#------------------------------------------------------------------------------
#$Date: 2021-09-04 06:00:30 +0300 (Sat, 04 Sep 2021) $
#$Revision: 268480 $
#$URL: file:///home/coder/svn-repositories/cod/cif/1/56/43/1564315.cif $
#------------------------------------------------------------------------------
#
# This file is available in the Crystallography Open Database (COD),
# http://www.crystallography.net/
#
# All data on this site have been placed in the public domain by the
# contributors.
#
data_1564315
loop_
_publ_author_name
'Machida, Shiori'
'Kida, Motoki'
'Muramatsu, Satoru'
'Hirao, Takehiro'
'Haino, Takeharu'
'Inokuchi, Yoshiya'
_publ_section_title
;
 Gas-Phase UV Spectroscopy of Chemical Intermediates Produced in Solution:
 Oxidation Reactions of Phenylhydrazines by DDQ.
;
_journal_issue                   31
_journal_name_full               'The journal of physical chemistry. A'
_journal_page_first              6697
_journal_page_last               6702
_journal_paper_doi               10.1021/acs.jpca.1c04669
_journal_volume                  125
_journal_year                    2021
_chemical_formula_sum            'C7 H7 N3 O3'
_chemical_formula_weight         181.16
_space_group_crystal_system      orthorhombic
_space_group_IT_number           29
_space_group_name_Hall           'P 2c -2ac'
_space_group_name_H-M_alt        'P c a 21'
_atom_sites_solution_hydrogens   geom
_cell_angle_alpha                90
_cell_angle_beta                 90
_cell_angle_gamma                90
_cell_formula_units_Z            4
_cell_length_a                   10.2828(16)
_cell_length_b                   9.5260(15)
_cell_length_c                   7.9993(13)
_cell_measurement_reflns_used    3514
_cell_measurement_temperature    123.(2)
_cell_measurement_theta_max      28.5781
_cell_measurement_theta_min      2.1432
_cell_volume                     783.6(2)
_computing_cell_refinement       'APEX3 v2018.1-0 (Bruker AXS)'
_computing_data_collection       'APEX2(Bruker AXS)'
_computing_data_reduction        'SAINT V8.38A (Bruker AXS Inc., 2017)'
_computing_molecular_graphics    'XSHELL V6.3.1(Bruker AXS)'
_computing_publication_material  'Generate Report (Bruker AXS)'
_computing_structure_refinement  'SHELXL-2017/1 (Sheldrick, 2017)'
_computing_structure_solution    'SHELXT 2014/5 (Sheldrick, 2014)'
_diffrn_ambient_temperature      123.(2)
_diffrn_detector_area_resol_mean 8.3333
_diffrn_measured_fraction_theta_full 0.998
_diffrn_measured_fraction_theta_max 0.998
_diffrn_measurement_device_type  'Bruker D8 goniometer'
_diffrn_measurement_method       'omega scans'
_diffrn_radiation_monochromator  'multilayered confocal mirror'
_diffrn_radiation_type           MoKa
_diffrn_radiation_wavelength     0.71073
_diffrn_reflns_av_R_equivalents  0.0304
_diffrn_reflns_av_unetI/netI     0.0324
_diffrn_reflns_limit_h_max       13
_diffrn_reflns_limit_h_min       -13
_diffrn_reflns_limit_k_max       12
_diffrn_reflns_limit_k_min       -11
_diffrn_reflns_limit_l_max       10
_diffrn_reflns_limit_l_min       -10
_diffrn_reflns_number            5877
_diffrn_reflns_theta_full        27.95
_diffrn_reflns_theta_max         27.95
_diffrn_reflns_theta_min         2.14
_diffrn_source                   'rotating-anode X-ray tube'
_diffrn_source_type              'Bruker Turbo X-ray Source'
_exptl_absorpt_coefficient_mu    0.123
_exptl_absorpt_correction_T_max  1.00
_exptl_absorpt_correction_T_min  0.91
_exptl_absorpt_correction_type   multi-scan
_exptl_absorpt_process_details
;
SADABS-2016/2 - Bruker AXS area detector scaling and absorption correction
;
_exptl_crystal_colour            'clear yellow'
_exptl_crystal_density_diffrn    1.536
_exptl_crystal_density_method    'not measured'
_exptl_crystal_description       block
_exptl_crystal_F_000             376
_exptl_crystal_size_max          0.150
_exptl_crystal_size_mid          0.090
_exptl_crystal_size_min          0.030
_refine_diff_density_max         0.274
_refine_diff_density_min         -0.354
_refine_ls_abs_structure_details
;

Flack x determined using 680 quotients [(I+)-(I-)]/[(I+)+(I-)]
(Parsons, Flack and Wagner, Acta Cryst. B69 (2013) 249-259).
;
_refine_ls_abs_structure_Flack   0.1(6)
_refine_ls_extinction_method     none
_refine_ls_goodness_of_fit_ref   0.994
_refine_ls_hydrogen_treatment    constr
_refine_ls_matrix_type           full
_refine_ls_number_parameters     118
_refine_ls_number_reflns         1866
_refine_ls_number_restraints     1
_refine_ls_restrained_S_all      0.994
_refine_ls_R_factor_all          0.0421
_refine_ls_R_factor_gt           0.0363
_refine_ls_shift/su_max          0.000
_refine_ls_shift/su_mean         0.000
_refine_ls_structure_factor_coef Fsqd
_refine_ls_weighting_details
'w=1/[\s^2^(Fo^2^)+(0.0291P)^2^+0.3636P] where P=(Fo^2^+2Fc^2^)/3'
_refine_ls_weighting_scheme      calc
_refine_ls_wR_factor_gt          0.0768
_refine_ls_wR_factor_ref         0.0800
_reflns_number_gt                1693
_reflns_number_total             1866
_reflns_threshold_expression     'I > 2\s(I)'
_cod_data_source_file            jp1c04669_si_002.cif
_cod_data_source_block           20200908machida9
_cod_depositor_comments
;
The following automatic conversions were performed:

data item '_exptl_absorpt_correction_type' value 'Multi-Scan' was
changed to 'multi-scan' in accordance with the
/home/data/users/saulius/crontab/automatic-downloads/rss-feeds/ACS/lib/dictionaries/cif_core.dic
dictionary named 'cif_core.dic' version 2.4.2 last updated on
2011-04-26.

Automatic conversion script
Id: cif_fix_values 7556 2019-12-06 15:28:31Z antanas 

 Adding full bibliography for 1564315.cif.
;
_cod_database_code               1564315
_shelx_res_file
;

TITL 20200908machida9_0ma_a.res in Pca2(1)
    20200908machida9_0ma_a.res
    created by SHELXL-2017/1 at 14:04:10 on 08-Sep-2020
CELL  0.71073  10.2828   9.5260   7.9993   90.000   90.000   90.000
ZERR    4.000   0.0016   0.0015   0.0013    0.000    0.000    0.000
LATT -1
SYMM -X, -Y, 1/2+Z
SYMM 1/2+X, -Y, Z
SYMM 1/2-X, Y, 1/2+Z
SFAC C  H  N  O
UNIT 28  28  12  12
L.S. 20
ACTA 50
BOND $H
FMAP 2
PLAN 20
SIZE 0.03 0.09 0.15
TEMP -150
WGHT    0.029100    0.363600
FVAR       0.86154
C1    1    0.381659    0.454043    0.545065    11.00000    0.02022    0.01736 =
         0.01701    0.00169    0.00245    0.00000
C2    1    0.475309    0.542858    0.611825    11.00000    0.01618    0.02252 =
         0.01827    0.00074   -0.00037    0.00279
AFIX  43
H2    2    0.543183    0.506309    0.679628    11.00000   -1.20000
AFIX   0
C3    1    0.468661    0.684586    0.578601    11.00000    0.01333    0.02117 =
         0.01930   -0.00279   -0.00130   -0.00249
AFIX  43
H3    2    0.532784    0.746050    0.622786    11.00000   -1.20000
AFIX   0
C4    1    0.367486    0.738619    0.479677    11.00000    0.01500    0.01977 =
         0.01377   -0.00048    0.00414   -0.00039
C5    1    0.272184    0.647583    0.417421    11.00000    0.01363    0.02474 =
         0.01819    0.00031   -0.00210    0.00017
AFIX  43
H5    2    0.201951    0.683873    0.353502    11.00000   -1.20000
AFIX   0
C6    1    0.279894    0.505273    0.448574    11.00000    0.01672    0.02282 =
         0.01884   -0.00205   -0.00032   -0.00399
AFIX  43
H6    2    0.216311    0.443098    0.404509    11.00000   -1.20000
AFIX   0
C7    1    0.166018    0.984255    0.357442    11.00000    0.02153    0.01454 =
         0.01796    0.00176   -0.00421   -0.00044
AFIX  43
H7    2    0.119701    1.024766    0.266713    11.00000   -1.20000
AFIX   0
N1    3    0.390232    0.303867    0.576454    11.00000    0.02979    0.01963 =
         0.02711    0.00156   -0.00201    0.00056
N2    3    0.362761    0.881322    0.452708    11.00000    0.01794    0.01924 =
         0.01714    0.00023   -0.00295   -0.00011
AFIX  43
H2A   2    0.408833    0.938905    0.515098    11.00000   -1.20000
AFIX   0
N3    3    0.283799    0.933268    0.324927    11.00000    0.02289    0.02127 =
         0.01339    0.00199   -0.00229    0.00022
AFIX  43
H3A   2    0.312374    0.932274    0.221238    11.00000   -1.20000
AFIX   0
O1    4    0.471300    0.261524    0.676371    11.00000    0.04587    0.02462 =
         0.03719    0.00813   -0.01651    0.00286
O2    4    0.315086    0.225578    0.503746    11.00000    0.05920    0.02099 =
         0.07744    0.00260   -0.03676   -0.00975
O3    4    0.111527    0.983625    0.495011    11.00000    0.01887    0.02761 =
         0.01887    0.00214   -0.00158    0.00272
HKLF 4




REM  20200908machida9_0ma_a.res in Pca2(1)
REM R1 =  0.0363 for    1693 Fo > 4sig(Fo)  and  0.0421 for all    1866 data
REM    118 parameters refined using      1 restraints

END

WGHT      0.0458      0.1412

REM Highest difference peak  0.274,  deepest hole -0.354,  1-sigma level  0.045
Q1    1   0.4524  0.9223  0.4555  11.00000  0.05    0.27
Q2    1   0.4406  0.4995  0.5370  11.00000  0.05    0.21
Q3    1   0.0255  0.9797  0.5001  11.00000  0.05    0.19
Q4    1   0.3076  0.6861  0.4703  11.00000  0.05    0.17
Q5    1   0.0462  1.0708  0.5265  11.00000  0.05    0.17
Q6    1   0.3505  0.4820  0.4657  11.00000  0.05    0.16
Q7    1   0.3952  0.7117  0.5556  11.00000  0.05    0.16
Q8    1   0.1920  1.1365  0.3519  11.00000  0.05    0.16
Q9    1   0.4036  0.5119  0.6133  11.00000  0.05    0.15
Q10   1  -0.0175  1.0835  0.3001  11.00000  0.05    0.14
Q11   1   0.4499  0.6179  0.6410  11.00000  0.05    0.14
Q12   1   0.5300  0.4524  0.8066  11.00000  0.05    0.14
Q13   1   0.5489  0.7787  0.5507  11.00000  0.05    0.14
Q14   1   0.2987  0.2556  0.6067  11.00000  0.05    0.14
Q15   1   0.3963  0.3990  0.5526  11.00000  0.05    0.14
Q16   1   0.1276  0.9557  0.5754  11.00000  0.05    0.14
Q17   1   0.2554  0.5841  0.4823  11.00000  0.05    0.13
Q18   1   0.5392  0.8623  0.8307  11.00000  0.05    0.13
Q19   1   0.3180  0.4748  0.5340  11.00000  0.05    0.13
Q20   1   0.3331  0.9976  0.3032  11.00000  0.05    0.13
;
_shelx_res_checksum              31400
_shelx_hkl_file
;
   0   0   1    0.10    0.30
   0   0  -1    0.40    0.40
   0   0   2 9999.00  135.19
   0   0  -2 9910.81  138.29
   0   0  -3    0.50    0.90
   0   0   3    0.30    0.60
   0   0   4   75.89    3.60
   0   0  -4   77.49    4.40
   0   0   5    3.50    1.30
   0   0  -5    2.50    1.50
   0   0   6  230.48    8.10
   0   0  -6  211.78    9.20
   0   0  -8  365.16   14.40
   0   0  -9   -0.40    2.70
   0   0 -10   24.00    5.80
   0   1   0    4.80    0.70
   0  -1   1    0.20    0.50
   0   1   1   -0.20    0.40
   0   1  -1   -0.50    0.30
   0   1  -1   -0.10    0.60
   0   1   1    0.20    0.50
   0   1  -2 2977.70   41.40
   0  -1  -2 2845.72   42.10
   0  -1   2 2955.10   41.60
   0   1   2 2906.41   39.80
   0  -1  -3    1.50    1.00
   0   1   3    0.00    0.60
   0  -1   3   -0.30    0.60
   0   1  -3    0.40    0.80
   0   1   4  401.36    8.60
   0  -1  -4  375.26   10.70
   0  -1   4  384.86    9.70
   0   1  -4  392.16   10.30
   0  -1   5   -0.70    1.00
   0   1   5    0.80    1.00
   0   1  -5   -1.00    1.10
   0  -1  -5   -0.60    1.20
   0   1  -6  933.31   21.20
   0  -1  -6  947.21   22.00
   0   1   6  917.21   18.40
   0  -1   6  900.61   19.80
   0   1  -7    2.10    2.00
   0  -1  -7   -1.80    1.80
   0  -1   7    2.40    1.90
   0  -1   8  140.29    7.90
   0  -1  -8  147.69    9.50
   0   1  -8  148.39    9.00
   0   1  -9   -0.70    2.70
   0  -1  -9    3.00    3.20
   0   1 -10    5.00    3.50
   0  -1 -10    8.60    4.00
   0  -2   0  141.69    3.50
   0   2   0  142.29    3.20
   0   2   0  145.09    4.10
   0  -2   1    0.10    0.60
   0   2  -1    1.20    0.80
   0   2   1    0.20    0.70
   0   2   1    0.10    0.70
   0   2   2 1848.02   25.30
   0   2  -2 1849.52   27.00
   0   2   2 1879.71   29.40
   0   2  -2 1849.71   29.70
   0  -2   2 1861.21   28.60
   0   2   2 1838.42   28.20
   0   2  -3    1.10    0.80
   0  -2  -3   -0.70    0.70
   0  -2   3    0.80    0.90
   0   2   3    0.70    0.50
   0   2  -4  135.59    5.40
   0   2   4  129.19    4.00
   0  -2  -4  130.49    6.10
   0  -2   4  135.69    5.70
   0   2   5    1.30    1.00
   0  -2  -5   -0.20    1.20
   0   2  -5   -1.20    0.90
   0  -2   5    1.60    1.30
   0  -2   6   48.10    4.80
   0  -2  -6   62.19    6.20
   0   2  -6   46.40    4.70
   0   2  -7    1.00    1.80
   0  -2  -7   -0.90    2.10
   0  -2   7   -0.60    1.50
   0  -2  -8   40.40    6.00
   0  -2   8   46.50    5.70
   0   2  -8   46.80    5.70
   0  -2  -9   -0.60    2.80
   0   2  -9   -1.20    2.70
   0  -2   9    1.20    2.50
   0  -2 -10  134.19   12.10
   0   3   0 1357.16   20.00
   0  -3   0 1369.16   20.70
   0   3   0 1308.77   21.90
   0   3   1    0.60    0.70
   0   3  -1   -0.10    0.40
   0   3  -1   -0.30    0.80
   0   3   1    0.50    0.80
   0  -3   1    0.10    0.70
   0  -3   2   49.80    3.10
   0   3  -2   47.20    2.10
   0   3   2   45.70    1.40
   0   3   2   46.80    3.10
   0   3  -2   52.29    3.60
   0   3   2   44.10    2.80
   0  -3  -3   -0.50    0.90
   0   3  -3    0.00    0.60
   0   3  -3   -0.60    1.10
   0   3   3   -0.90    0.70
   0   3   3    0.40    0.40
   0  -3   3    0.20    1.00
   0   3   4  376.06    7.20
   0   3  -4  395.06   12.00
   0  -3  -4  369.56   11.00
   0   3  -4  378.56    9.50
   0  -3   4  370.06   10.70
   0   3  -5    0.50    1.00
   0  -3  -5   -1.70    1.10
   0  -3   5    1.40    1.50
   0   3  -5    0.30    1.40
   0  -3  -6  162.38    8.80
   0   3  -6  154.28    8.70
   0   3  -6  170.58    7.60
   0  -3   6  166.28    8.00
   0   3  -7    1.20    1.70
   0  -3  -7   -1.90    2.00
   0  -3   7    1.90    2.00
   0   3  -7    0.10    1.90
   0   3  -8   26.50    5.30
   0  -3  -8   28.40    5.30
   0  -3   8   21.70    4.40
   0   3  -9   -0.10    2.60
   0  -3  -9   -2.10    2.80
   0  -3   9    1.70    2.70
   0   3 -10   89.89   10.50
   0  -3  10  114.69   10.60
   0   4   0 5101.39   72.99
   0   4   0 5117.39   70.09
   0  -4   0 5115.49   71.09
   0   4  -1    0.50    0.50
   0   4   1   -0.30    0.80
   0  -4   1    0.30    0.80
   0   4  -1    1.10    1.20
   0  -4  -1   -0.10    0.50
   0   4   1    0.20    0.80
   0  -4   2  875.81   17.20
   0   4   2  861.61   17.20
   0   4   2  873.91   13.20
   0   4  -2  865.31   13.70
   0   4   2  878.11   16.80
   0   4  -2  854.51   18.30
   0   4  -3   -0.50    1.20
   0  -4  -3    0.40    1.00
   0   4  -3    0.00    0.70
   0  -4   3    0.00    1.10
   0   4   3    0.30    0.40
   0   4   3   -0.60    0.80
   0  -4  -4  172.38    7.50
   0  -4   4  167.48    7.20
   0   4   4  169.68    7.00
   0   4  -4  169.98    5.70
   0   4  -4  173.48    8.20
   0  -4   5   -0.60    1.20
   0  -4  -5   -2.20    1.20
   0   4  -5   -0.10    1.00
   0   4  -5    0.50    1.80
   0   4  -6  503.25   16.90
   0  -4  -6  465.65   15.70
   0  -4   6  474.05   14.80
   0   4  -7    1.50    2.40
   0  -4   7   -2.30    1.60
   0  -4  -7    0.10    2.30
   0   4  -8  118.39   11.10
   0  -4   8  102.39    9.20
   0  -4  -8  131.99    9.80
   0   4  -9   -1.30    2.70
   0  -4  -9    2.70    3.60
   0  -4   9    1.90    3.00
   0   5   0  744.43   16.00
   0   5   0  752.42   13.30
   0  -5   0  744.63   14.50
   0  -5  -1   -0.10    0.70
   0  -5   1    1.50    1.00
   0   5  -1    0.60    1.20
   0   5   1   -0.60    0.60
   0   5  -1    0.00    0.40
   0   5   1    0.30    1.00
   0   5   2  196.28    4.70
   0   5   2  192.38    7.10
   0   5  -2  194.08    7.90
   0   5  -2  196.78    4.40
   0  -5   2  191.58    7.20
   0   5   2  185.38    6.90
   0  -5   3    0.30    1.20
   0   5   3    0.80    1.10
   0   5  -3    1.60    1.40
   0  -5  -3   -0.20    1.00
   0  -5  -4   68.69    5.00
   0   5   4   73.69    4.90
   0   5  -4   79.89    6.00
   0  -5   4   69.19    5.00
   0  -5   5    1.80    1.70
   0   5  -5   -0.60    1.80
   0  -5  -5   -1.00    1.50
   0   5   5    0.30    1.40
   0  -5   6  329.97   12.80
   0  -5  -6  357.06   13.90
   0   5  -6  359.06   14.50
   0  -5  -7   -0.70    2.20
   0   5  -7   -0.90    2.30
   0  -5   7   -1.60    2.10
   0  -5  -8  404.26   17.20
   0   5  -8  408.56   17.70
   0  -5   8  387.86   15.60
   0  -5   9   -2.60    2.10
   0  -5  -9    2.20    3.40
   0   5  -9   -3.70    2.40
   0   6   0    7.00    1.30
   0   6   0    2.80    1.60
   0  -6   0    7.70    1.70
   0  -6   1   -1.00    0.90
   0   6  -1    1.10    1.30
   0   6   1   -0.80    0.70
   0   6   1    0.30    1.10
   0  -6  -1   -0.30    0.70
   0   6  -2  205.18    8.80
   0  -6   2  193.68    7.70
   0   6   2  207.98    8.00
   0  -6  -3    0.40    1.20
   0   6  -3   -0.10    1.40
   0  -6   3    0.10    1.20
   0   6   3   -2.00    0.80
   0  -6  -4   46.30    4.90
   0   6   4   60.49    5.70
   0  -6   4   48.60    5.40
   0   6  -4   47.70    5.70
   0   6   5   -0.10    1.60
   0  -6  -5    0.30    1.70
   0   6  -5   -0.90    2.00
   0  -6   5   -0.30    1.50
   0   6  -6  225.28   12.10
   0  -6  -6  252.57   12.00
   0  -6   6  226.88   10.90
   0  -6   7    0.30    2.10
   0   6  -7   -0.80    2.30
   0  -6  -7   -1.50    2.30
   0   6  -8   10.60    4.30
   0  -6   8    7.40    3.30
   0  -6  -8    8.20    3.90
   0  -6  -9   -0.20    3.80
   0   6  -9    0.90    3.30
   0  -6   9    0.30    3.10
   0   7   0   46.10    5.00
   0  -7   0   40.70    3.80
   0  -7   1   -0.20    1.10
   0  -7  -1    1.40    1.40
   0   7   1    0.70    1.20
   0   7   1    0.80    1.30
   0   7  -1    1.30    1.50
   0  -7  -2  238.98    8.20
   0  -7   2  231.58    9.10
   0   7  -2  232.58   10.00
   0   7   2  253.57    9.60
   0  -7  -3   -1.20    1.10
   0   7   3    2.20    1.70
   0  -7   3    0.70    1.60
   0   7  -3    2.00    2.00
   0   7   4   34.00    4.60
   0   7  -4   20.50    4.10
   0  -7  -4   14.30    3.10
   0  -7   4   21.20    3.90
   0   7   5   -1.30    1.50
   0   7  -5   -0.60    2.10
   0  -7  -5    0.70    2.00
   0  -7   5   -1.60    1.90
   0  -7  -6   39.90    5.80
   0   7  -6   43.00    6.80
   0  -7   6   35.30    5.70
   0  -7   7    2.60    2.80
   0   7  -7    4.20    3.60
   0  -7  -7    3.00    3.10
   0  -7  -8   44.90    7.20
   0  -7   8   52.99    7.50
   0   7  -8   59.89    9.00
   0   8   0  117.09    7.00
   0  -8   0  106.29    5.50
   0  -8   1   -0.40    1.30
   0   8   1    0.50    1.60
   0   8  -1    0.90    1.80
   0   8  -2  276.87   11.50
   0  -8   2  270.67   10.50
   0   8   2  264.97   10.60
   0   8   3    2.20    1.90
   0  -8  -3    0.80    1.60
   0   8  -3   -0.30    1.90
   0  -8   3   -2.10    1.60
   0  -8   4  922.71   23.40
   0   8  -4  927.21   25.20
   0   8   4  900.61   22.70
   0  -8  -4  945.61   22.70
   0  -8  -5    0.10    2.30
   0   8  -5   -1.50    2.00
   0  -8   5   -3.20    1.70
   0   8   5   -0.40    1.80
   0  -8  -6  166.38   10.40
   0   8   6  145.69    9.30
   0  -8   6  177.18   10.50
   0   8  -6  172.38   11.50
   0  -8  -7   -3.60    2.90
   0  -8   7    0.00    2.60
   0   8  -7   -1.30    2.70
   0  -8  -8   21.60    5.80
   0  -8   8   32.40    9.30
   0   8  -8   23.20    7.80
   0   9   0  155.18    8.60
   0  -9   1    2.90    1.90
   0   9   1    1.30    1.80
   0   9  -1   -0.10    1.70
   0   9  -2  240.48   11.30
   0  -9   2  238.98   10.30
   0   9   2  217.48   10.20
   0   9  -3   -1.60    1.70
   0  -9   3   -0.90    1.70
   0   9   3   -1.20    1.50
   0   9  -4   19.40    4.70
   0  -9   4   19.60    4.20
   0   9   4   18.50    4.00
   0  -9   5   -0.20    2.20
   0   9   5   -0.50    1.90
   0   9  -5    2.10    2.70
   0   9  -6   32.80    6.70
   0  -9  -6   16.40    4.60
   0  -9   6   30.40    5.90
   0   9   6   25.00    5.00
   0   9  -7   -0.50    2.90
   0  -9   7   -0.10    2.70
   0  -9  -7   -3.20    2.80
   0  10   0    9.20    3.10
   0  10   1   -1.90    1.70
   0  10  -1    2.10    2.00
   0 -10   2   25.80    4.60
   0  10   2   23.60    4.50
   0  10  -2   28.70    5.20
   0  10  -3   -0.90    2.00
   0 -10   3   -0.50    2.20
   0  10   3    1.20    2.00
   0 -10   4    3.80    3.00
   0  10   4    6.70    3.10
   0  10  -4    4.30    3.30
   0 -10   5   -2.40    2.60
   0  10   5   -0.60    2.20
   0  10  -5   -0.20    3.10
   0 -10   6    9.40    4.50
   0  10   6   13.80    4.20
   0  10  -6   11.50    4.60
   0  11   0   17.20    4.20
   0  11  -1    0.60    2.40
   0  11   1    0.50    2.10
   0  11   2   17.30    4.30
   0  11  -2   14.50    4.20
   0  11   3    0.60    2.30
   0  11  -3   -0.50    2.70
   0  11   4    9.70    3.60
   0  11  -4   10.70    4.00
   0 -11   4    0.60    2.70
   0 -11   5    1.50    3.40
   0  12   0    4.30    2.80
   0  12  -1   -1.20    2.50
   0  12   1   -1.00    2.50
   0  12   2   48.30    6.80
   0  12  -2   42.60    6.90
   1   0   0    0.10    0.30
  -1   0   0    0.10    0.30
   1   0   1   -0.50    0.40
   1   0   1    0.50    0.50
   1   0  -1    0.30    0.60
  -1   0   1    0.70    0.50
   1   0   2   -0.70    0.70
   1   0   2    0.80    0.70
  -1   0   2    0.50    0.70
   1   0  -2   -1.10    0.60
   1   0   3    1.20    1.00
   1   0  -3   -1.10    0.80
   1   0   3   -0.70    0.70
  -1   0   3   -0.10    0.70
   1   0  -4   -0.10    1.00
  -1   0   4    0.20    0.90
  -1   0  -4    0.10    1.00
   1   0   4   -0.30    0.80
   1   0   5    0.40    1.00
  -1   0   5   -0.20    0.90
   1   0  -5   -0.10    1.10
  -1   0  -5    0.60    1.20
   1   0   6   -1.10    1.00
  -1   0  -6   -1.60    1.30
   1   0  -6    0.10    1.50
  -1   0   6    0.90    1.20
  -1   0   7    0.90    1.60
   1   0   7    0.50    1.60
  -1   0  -7   -1.00    1.80
   1   0  -7   -2.30    1.50
   1   0  -8   -0.80    2.00
  -1   0   8    1.50    1.80
  -1   0  -8    0.00    2.30
   1   0  -9    0.20    2.60
  -1   0  -9   -2.40    2.50
  -1   0 -10   -2.10    3.10
   1   0 -10   -1.80    3.20
   1   1   0  196.58    3.90
  -1   1   0  190.68    3.80
  -1  -1   0  193.08    3.50
  -1   1   0  188.58    4.10
   1   1   0  186.58    4.20
   1  -1  -1  547.55    9.70
   1   1   1  539.65    9.00
  -1  -1   1  541.05    9.10
   1   1   1  557.14   10.10
  -1   1  -1  546.55    9.60
   1  -1   1  551.04    8.60
   1   1  -1  550.14    9.50
  -1   1   1  543.35    8.70
   1  -1   1  549.85    9.70
   1   1  -1  550.24    9.70
  -1   1   1  543.55    9.10
  -1  -1   2 1454.55   22.20
   1   1   2 1432.36   20.60
   1   1   2 1440.26   23.50
   1   1  -2 1453.15   22.70
  -1   1   2 1437.66   21.10
   1  -1   2 1447.36   22.10
   1  -1   2 1473.15   22.60
   1   1   3  264.77    7.90
  -1   1  -3  255.97    6.80
   1   1   3  258.87    5.80
  -1  -1   3  268.97    6.90
   1  -1  -3  267.37    7.90
   1  -1   3  267.17    7.10
  -1   1   3  253.07    5.90
   1   1  -3  261.47    7.30
  -1  -1   4  243.68    7.30
   1   1   4  257.37    6.50
  -1   1  -4  262.27    7.80
  -1   1   4  248.98    6.50
   1   1  -4  258.57    8.20
   1  -1   4  260.67    7.70
   1  -1  -5  105.29    6.10
   1   1   5  111.59    4.60
  -1   1  -5  100.79    5.50
  -1  -1   5  105.99    5.20
   1  -1   5  100.29    5.10
  -1  -1  -5  108.69    5.90
   1   1  -5   96.79    5.60
  -1   1   5  106.09    4.50
  -1   1  -6  106.59    6.30
   1  -1  -6  121.49    7.30
  -1  -1   6  119.09    6.00
   1   1   6  111.59    5.20
   1  -1   6  124.59    6.30
  -1  -1  -6  117.49    7.00
  -1   1   6  114.59    5.40
   1   1  -6  122.69    6.90
  -1   1  -7  151.98    8.40
   1  -1  -7  176.98    9.50
  -1  -1   7  173.58    8.00
  -1  -1  -7  171.78    9.30
   1  -1   7  167.38    8.00
  -1   1   7  168.78    7.20
   1   1  -7  168.88    8.90
  -1   1  -8   19.20    3.90
   1  -1  -8   14.80    4.20
  -1  -1   8   14.70    3.50
  -1  -1  -8   17.60    4.30
   1   1  -8   16.50    3.90
   1  -1   8   17.20    3.60
  -1  -1   9    7.20    4.60
  -1   1  -9   12.00    3.80
   1  -1  -9    8.10    3.80
  -1  -1  -9    3.90    3.40
   1   1  -9    8.90    3.90
  -1   1 -10    1.60    3.30
   1  -1 -10    7.00    4.10
  -1  -1 -10    5.10    3.50
   1   1 -10    1.80    3.20
   1  -2   0  542.25    8.50
   1   2   0  521.25    9.40
  -1  -2   0  532.35    8.60
   1  -2   0  515.45    9.40
  -1   2   0  519.75    9.60
   1   2   0  534.75    9.70
  -1   2  -1   57.69    2.90
   1   2   1   53.99    2.80
   1  -2  -1   55.89    2.50
  -1  -2   1   55.69    2.40
   1   2   1   57.09    2.50
  -1   2   1   54.89    2.50
   1  -2   1   52.79    2.70
   1   2  -1   54.09    2.90
   1   2  -1   52.99    2.40
  -1   2   1   54.89    2.10
   1  -2  -2    4.20    1.20
   1   2   2    2.40    1.20
  -1  -2   2    3.40    1.10
   1   2   2    2.00    0.90
  -1   2  -2    4.00    0.80
  -1   2  -2    2.70    1.20
   1   2  -2    3.80    1.00
   1  -2   2    2.60    1.10
  -1   2   2    3.00    0.70
   1   2  -2    2.30    1.20
  -1   2   2    3.20    1.00
   1   2   3   63.99    2.10
  -1   2  -3   63.89    4.00
  -1   2  -3   61.79    3.00
   1  -2  -3   66.29    4.00
  -1  -2   3   59.39    3.40
   1   2   3   57.69    3.80
  -1   2   3   66.79    2.50
   1  -2   3   55.79    3.40
   1   2  -3   64.59    3.40
   1   2   4  156.08    4.30
  -1   2  -4  142.29    5.50
  -1  -2   4  150.88    6.00
   1   2   4  150.58    6.90
   1  -2  -4  151.68    6.70
   1  -2   4  153.48    6.20
  -1   2   4  154.38    4.60
   1   2  -4  150.18    5.90
  -1  -2   5   33.50    3.80
  -1   2  -5   31.90    3.50
   1  -2  -5   33.60    4.10
   1   2   5   35.00    2.40
  -1  -2  -5   28.30    3.70
   1  -2   5   25.50    3.30
  -1   2   5   36.90    2.60
   1   2  -5   27.00    3.40
   1  -2  -6   55.99    6.10
  -1   2  -6   62.29    4.80
  -1  -2   6   52.99    5.00
  -1  -2  -6   52.99    5.60
   1   2  -6   54.79    5.40
  -1   2   6   52.39    3.50
   1  -2   6   65.49    4.90
  -1  -2   7   13.60    3.20
   1  -2  -7   16.60    3.90
  -1   2  -7   11.10    2.90
   1   2  -7   22.00    3.80
  -1  -2  -7   12.30    3.50
   1  -2   7   16.40    3.50
  -1   2  -8   75.59    7.10
   1  -2  -8   65.19    7.50
  -1  -2   8   71.19    7.00
   1   2  -8   81.49    7.80
   1  -2   8   62.49    6.60
  -1  -2  -8   87.09    8.50
  -1  -2   9   57.19    6.70
   1  -2  -9   42.50    6.70
   1  -2   9   45.00    6.10
  -1  -2  -9   42.10    6.70
   1   2  -9   33.10    5.60
   1  -2 -10   15.20    5.10
  -1  -2 -10   20.40    5.50
   1   3   0 2376.66   35.70
   1  -3   0 2375.06   34.80
   1  -3   0 2346.67   32.80
  -1   3   0 2380.36   35.60
   1   3   0 2402.06   34.70
  -1  -3   0 2394.26   33.90
  -1   3  -1  395.26    9.40
   1   3   1  394.66    9.00
   1  -3  -1  399.76    8.30
   1   3   1  407.56    8.80
  -1  -3  -1  395.06    6.60
   1  -3   1  391.76    9.10
  -1   3   1  391.06    8.80
  -1   3   1  400.66    7.90
   1   3  -1  402.36    9.60
   1   3  -1  393.16    7.90
  -1   3  -2  223.48    7.30
   1   3   2  217.88    7.00
   1  -3  -2  218.68    6.60
  -1  -3   2  213.68    6.40
   1   3   2  213.68    6.20
  -1   3  -2  217.18    4.30
   1  -3   2  221.18    6.80
   1   3  -2  215.28    7.30
   1   3  -2  218.08    5.70
  -1   3   2  204.38    6.20
  -1   3   2  211.78    4.70
   1  -3  -3  430.86   11.20
  -1   3  -3  419.76    8.60
   1   3   3  416.66   10.20
  -1   3  -3  422.66   11.60
  -1  -3   3  415.56   10.50
   1   3   3  425.46   11.60
  -1   3   3  412.16   10.30
   1  -3   3  423.26   10.90
  -1   3   3  431.46    7.90
   1   3  -3  433.46   11.90
   1   3  -3  434.66    9.80
  -1  -3   4    4.10    1.60
  -1   3  -4    4.20    1.30
  -1   3  -4    1.40    1.50
   1   3   4    3.50    0.70
   1  -3  -4    3.20    1.60
   1   3   4    2.50    1.60
   1  -3   4    3.10    1.40
   1   3  -4    4.20    1.40
  -1   3   4    2.70    0.80
   1   3  -4    3.10    1.70
  -1  -3   5  131.19    6.50
  -1   3  -5  138.99    7.40
  -1   3  -5  139.89    5.90
   1  -3  -5  139.19    7.40
   1   3  -5  139.59    7.60
  -1   3   5  139.99    4.60
   1  -3   5  126.79    6.60
  -1  -3  -5  133.79    7.10
   1   3  -5  131.29    6.20
   1  -3  -6   48.00    5.50
  -1   3  -6   47.60    5.70
  -1  -3   6   43.80    4.90
  -1   3  -6   53.79    4.30
   1   3  -6   63.79    6.70
   1  -3   6   55.49    5.60
   1   3  -6   46.00    4.80
  -1  -3  -6   43.80    5.00
  -1   3  -7    6.80    3.00
  -1  -3   7    8.10    2.70
   1  -3  -7    6.40    2.90
   1  -3   7    8.00    2.90
   1   3  -7   10.30    3.00
   1   3  -7   12.10    3.60
  -1  -3  -7    6.30    3.00
   1  -3  -8   41.80    6.30
  -1   3  -8   35.70    5.90
  -1  -3   8   38.80    5.50
   1   3  -8   35.10    5.10
  -1  -3  -8   38.10    6.00
   1  -3   8   42.50    5.70
   1   3  -8   38.70    6.20
  -1   3  -9    5.30    3.40
  -1  -3   9    5.90    3.20
   1  -3  -9    3.70    3.40
  -1  -3  -9    2.60    3.40
   1   3  -9    4.20    3.10
   1  -3   9    8.00    3.50
  -1   3 -10   19.60    5.40
  -1  -3  10   20.20    5.00
   1  -3 -10   17.60    5.50
   1   3 -10   13.60    4.80
  -1  -3 -10   19.00    5.50
  -1   4   0 1726.63   28.70
   1   4   0 1772.12   27.30
  -1  -4   0 1769.72   26.80
   1   4   0 1779.42   28.90
   1  -4   0 1754.12   25.30
   1  -4   0 1761.42   27.70
   1   4   1  117.79    4.70
  -1  -4   1  112.89    4.40
  -1   4  -1  107.39    5.00
   1   4   1  106.89    4.60
   1  -4  -1  110.59    4.00
  -1   4   1  113.79    4.00
  -1  -4  -1  111.89    3.20
  -1   4   1  109.09    4.60
   1  -4   1  104.79    4.60
   1   4  -1  116.99    5.30
   1   4  -1  113.49    3.80
   1  -4  -2  596.14   13.00
  -1   4  -2  621.54   14.50
  -1  -4   2  607.24   13.30
   1   4   2  602.84   13.80
   1   4   2  620.54   13.10
   1   4  -2  617.44   11.60
  -1   4   2  605.54   13.10
   1  -4   2  623.34   13.80
  -1   4   2  608.84   10.80
   1   4  -2  597.74   14.50
  -1   4  -3  147.79    7.00
   1   4   3  160.18    7.00
  -1   4  -3  150.48    4.10
  -1  -4   3  147.39    6.20
   1   4   3  149.59    6.10
   1  -4  -3  140.79    6.20
  -1   4   3  141.49    6.00
  -1   4   3  148.39    3.90
   1  -4   3  154.48    6.50
   1   4  -3  135.49    6.80
   1   4  -3  145.59    5.10
   1   4   4   45.40    5.00
  -1  -4   4   52.19    4.80
  -1   4  -4   50.49    5.30
  -1   4  -4   49.80    2.90
   1   4   4   54.39    3.90
   1  -4  -4   60.29    4.70
   1   4  -4   55.39    3.50
  -1   4   4   53.79    2.40
  -1   4   4   58.99    4.20
   1  -4   4   50.79    4.80
   1   4  -4   45.00    4.90
  -1  -4   5   40.90    4.50
   1  -4  -5   34.90    4.50
  -1   4  -5   39.40    5.10
   1   4  -5   33.10    4.70
   1  -4   5   40.20    4.80
   1   4  -5   37.00    3.80
  -1  -4  -5   32.70    4.20
  -1  -4   6  119.89    7.20
   1  -4  -6  109.59    7.40
  -1   4  -6  116.89    8.10
   1  -4   6  115.99    7.20
   1   4  -6  123.59    6.40
  -1  -4  -6  126.49    7.80
   1   4  -6  115.69    8.10
  -1  -4   7   24.60    4.60
  -1   4  -7   20.30    4.70
   1  -4  -7   21.20    4.50
  -1  -4  -7   21.80    4.50
   1   4  -7   17.30    4.10
   1  -4   7   24.10    4.50
   1  -4  -8   10.80    3.60
  -1  -4   8    4.00    2.90
  -1   4  -8    1.50    2.70
  -1  -4  -8    2.20    3.00
   1  -4   8    5.10    2.90
   1   4  -8    4.50    3.20
   1  -4  -9   33.80    6.40
  -1   4  -9   34.40    6.60
  -1  -4   9   30.30    5.40
   1   4  -9   28.50    6.00
  -1  -4  -9   35.10    6.50
   1  -4   9   25.10    5.20
  -1  -5   0   37.90    2.60
   1  -5   0   38.50    2.00
   1   5   0   38.20    2.60
   1   5   0   44.50    3.40
  -1   5   0   46.20    4.10
   1  -5   0   37.30    2.80
   1   5   1  267.07    8.30
   1  -5  -1  259.67    6.90
  -1  -5   1  258.87    7.60
  -1   5  -1  247.78    8.60
   1   5   1  261.17    7.80
  -1   5   1  264.67    8.30
  -1  -5  -1  253.37    6.20
   1  -5   1  256.27    8.10
   1   5  -1  263.67    6.70
  -1   5   1  260.77    7.10
   1   5  -1  263.77    8.90
   1   5   2  205.58    7.40
   1   5   2  212.88    7.60
  -1  -5   2  222.98    7.60
  -1   5  -2  211.98    8.30
   1   5   2  209.98    4.30
   1  -5  -2  197.38    6.90
   1   5  -2  204.98    5.70
  -1   5   2  223.88    7.60
   1   5  -2  214.98    8.40
   1  -5   2  214.38    7.80
  -1   5   2  217.68    5.70
   1  -5  -3   27.00    3.40
   1   5   3   33.50    3.90
  -1  -5   3   32.30    3.90
  -1   5  -3   32.60    4.10
   1   5   3   26.90    3.40
   1   5  -3   30.90    2.40
  -1   5   3   34.20    3.80
   1   5  -3   33.10    4.30
   1  -5   3   37.50    4.40
  -1   5   3   26.90    1.80
  -1  -5   4   83.39    5.50
  -1   5  -4   94.79    6.40
   1  -5  -4   79.69    5.50
   1   5   4   91.09    5.40
   1   5   4   79.29    5.80
  -1   5   4   79.39    5.10
   1  -5   4   81.29    5.50
   1   5  -4   77.09    6.90
  -1   5  -5   61.89    6.60
   1   5   5   58.09    5.50
  -1  -5   5   66.99    6.20
   1  -5  -5   75.19    6.00
   1  -5   5   72.99    6.70
  -1  -5  -5   71.99    5.80
   1   5  -5   60.89    6.40
   1  -5  -6  166.38    9.50
  -1   5  -6  164.38    9.70
  -1  -5   6  161.88    8.60
   1  -5   6  160.18    8.80
   1   5  -6  160.38    9.80
  -1  -5  -6  181.78    9.60
  -1   5  -7  122.49    9.20
  -1  -5   7  114.09    8.00
   1  -5  -7  130.99    9.20
   1   5  -7  106.79    9.90
   1  -5   7  137.79    8.70
  -1  -5  -7  129.19    9.20
  -1   5  -8  145.79   10.70
  -1  -5   8  127.19    8.80
   1  -5  -8  135.89   10.40
   1   5  -8  135.59   10.40
  -1  -5  -8  128.09   10.10
   1  -5   8  138.39    9.20
   1  -5  -9   47.40    7.50
  -1  -5   9   40.20    6.50
  -1   5  -9   39.90    7.10
   1  -5   9   47.10    7.30
  -1  -5  -9   48.40    7.60
   1   5  -9   34.90    6.80
  -1   6   0   53.99    4.10
  -1  -6   0   62.79    3.50
   1   6   0   53.59    4.20
   1  -6   0   61.79    3.60
   1   6   0   58.79    3.40
   1  -6   0   57.49    3.70
  -1   6  -1  155.68    7.20
   1   6   1  169.18    7.10
   1  -6  -1  177.58    5.80
  -1  -6   1  162.48    6.40
   1   6   1  163.78    6.30
  -1   6   1  165.38    5.90
   1  -6   1  160.78    6.70
   1   6  -1  161.68    5.30
  -1  -6  -1  168.38    5.20
   1   6  -1  161.68    7.40
  -1   6   1  182.98    7.30
   1  -6  -2   49.99    3.60
  -1  -6   2   44.80    4.30
   1   6   2   55.09    4.10
   1   6   2   42.80    4.20
  -1   6  -2   47.80    4.80
   1  -6   2   47.50    4.60
  -1   6   2   45.60    4.40
  -1   6   2   43.30    2.70
   1   6  -2   53.19    5.50
  -1   6  -3   73.69    5.60
   1   6   3   79.39    5.10
   1  -6  -3   78.99    5.20
   1   6   3   84.39    5.50
  -1  -6   3   75.49    5.10
  -1   6   3   82.49    5.20
   1   6  -3   79.49    7.10
   1  -6   3   74.79    5.20
   1   6   4  211.68    8.80
  -1   6  -4  211.78   10.10
  -1  -6   4  207.28    9.10
   1  -6  -4  208.88    9.10
   1   6   4  217.88    9.70
  -1   6   4  223.48    9.10
   1  -6   4  199.28    9.00
   1   6  -4  222.98   10.50
   1   6   5   79.09    6.90
   1  -6  -5   50.79    5.80
  -1  -6   5   72.89    7.00
  -1   6  -5   64.39    7.20
   1  -6   5   76.39    7.10
  -1  -6  -5   53.99    5.80
   1   6  -5   74.69    7.90
  -1   6   5   65.49    6.30
   1  -6  -6   85.99    8.10
  -1  -6   6   89.99    7.00
  -1   6  -6   70.29    8.00
   1  -6   6   79.19    7.50
   1   6  -6   88.79    9.00
  -1  -6  -6   90.49    7.20
   1  -6  -7  166.98   10.70
  -1  -6   7  146.49    9.50
  -1   6  -7  165.78   11.10
  -1  -6  -7  153.78   10.20
   1  -6   7  152.58    9.60
   1   6  -7  171.08   11.30
  -1  -6   8   12.90    3.90
  -1   6  -8   11.90    4.60
   1  -6  -8   14.40    4.90
   1   6  -8    7.40    4.10
   1  -6   8    7.20    3.50
  -1  -6  -8    6.70    3.90
   1  -6  -9   57.69    8.40
  -1   6  -9   44.40    8.10
  -1  -6   9   54.79    7.80
   1   6  -9   50.99    8.60
  -1  -6  -9   45.10    7.70
   1  -6   9   40.90    7.10
   1  -7   0    6.80    1.90
   1   7   0    9.10    2.30
  -1   7   0    4.70    2.00
  -1  -7   0    7.10    1.80
  -1   7  -1  167.18    8.00
  -1  -7   1  156.98    6.70
   1   7   1  166.48    7.60
   1   7   1  177.68    6.80
  -1   7   1  162.88    6.30
  -1   7   1  173.18    7.80
   1  -7   1  170.88    7.30
   1   7  -1  170.08    8.10
   1  -7  -2   48.60    3.90
  -1  -7   2   54.59    5.20
  -1   7  -2   47.00    5.50
   1   7   2   43.50    4.80
   1   7   2   51.49    5.00
   1  -7   2   42.30    4.90
   1   7  -2   42.00    5.20
  -1   7   2   51.69    5.10
   1   7   3  304.47   10.80
  -1   7  -3  307.07   12.10
  -1  -7   3  313.07   11.30
   1  -7  -3  318.87   10.70
   1   7   3  306.67   11.10
   1  -7   3  300.17   11.40
  -1   7   3  306.17   10.80
   1   7  -3  312.67   12.30
   1  -7  -4   21.80    3.70
  -1  -7   4   19.20    3.90
  -1   7  -4   18.10    4.20
   1   7   4   22.10    3.80
   1   7  -4   25.20    4.60
  -1   7   4   16.70    3.60
   1  -7   4   23.90    4.30
  -1   7  -5   45.70    6.50
   1   7   5   38.50    4.90
   1  -7  -5   44.00    5.60
  -1  -7   5   54.19    6.50
   1   7  -5   41.40    6.40
   1  -7   5   65.59    7.10
  -1  -7  -5   59.89    6.40
  -1   7   5   49.90    5.50
  -1   7  -6   27.90    5.90
   1  -7  -6   34.40    5.60
  -1  -7   6   31.80    5.30
  -1  -7  -6   23.10    4.60
   1  -7   6   29.30    5.10
   1   7  -6   21.60    4.90
  -1   7  -7    9.20    4.30
  -1  -7   7    5.30    3.10
   1  -7  -7   11.40    4.20
   1   7  -7    7.60    4.00
  -1  -7  -7    7.20    3.70
   1  -7   7    2.60    2.80
  -1  -7   8    8.40    3.60
  -1   7  -8   11.80    5.10
   1  -7  -8   12.80    4.60
  -1  -7  -8   12.20    4.70
   1   7  -8   20.50    5.80
   1  -7   8   16.90    4.90
  -1   8   0   31.90    4.50
   1  -8   0   30.90    3.80
   1   8   0   33.80    4.70
   1   8   1   51.59    5.40
  -1  -8   1   65.89    4.80
  -1   8  -1   57.29    6.00
  -1   8   1   56.39    5.50
   1  -8   1   63.79    4.90
   1   8  -1   53.49    5.70
  -1  -8   2   66.69    5.10
  -1   8  -2   55.99    6.10
   1   8   2   75.29    6.70
  -1   8   2   61.39    5.80
   1   8  -2   56.59    6.10
   1  -8   2   65.49    6.30
  -1   8  -3   52.79    6.20
  -1  -8   3   69.19    6.50
   1   8   3   54.29    5.80
   1   8  -3   62.69    6.80
   1  -8   3   59.49    6.50
  -1   8   3   56.59    5.80
  -1   8  -4   86.59    8.30
  -1  -8   4  100.59    7.20
   1  -8  -4   86.29    6.60
   1   8   4  101.89    7.00
  -1  -8  -4  102.89    6.90
   1   8  -4   93.69    8.70
  -1   8   4  100.59    7.00
   1  -8   4  100.29    7.40
   1   8   5   15.20    3.40
  -1   8  -5   12.30    3.90
   1  -8  -5   15.90    3.90
  -1  -8   5   19.00    4.30
   1   8  -5   20.70    4.90
  -1  -8  -5   13.20    3.60
   1  -8   5   12.50    3.80
  -1   8   5   12.80    3.20
   1  -8  -6  109.09    8.70
   1   8   6  116.49    8.30
  -1  -8   6  123.79    8.90
  -1   8  -6  128.49   11.70
   1   8  -6  100.39   10.10
  -1  -8  -6  129.19    9.20
  -1   8   6  119.99    8.50
   1  -8   6  128.19    9.10
  -1  -8   7    4.70    3.20
  -1   8  -7   13.30    4.80
   1  -8  -7   11.20    4.50
   1   8  -7    8.10    3.90
   1  -8   7    9.40    4.10
  -1  -8  -7   13.60    4.50
  -1   8  -8   38.90    8.30
   1  -8  -8   35.60    6.60
   1  -8   8   38.10    9.70
  -1  -8  -8   44.00    7.30
   1   9   0   85.99    6.50
  -1   9   0   97.99    6.90
   1   9   1    6.50    2.60
  -1   9  -1    5.70    2.40
  -1   9   1    3.70    2.30
   1  -9   1   10.00    2.80
   1   9  -1    8.90    3.20
  -1   9  -2  114.79    7.90
  -1  -9   2  100.89    6.70
   1   9   2  107.99    7.20
  -1   9   2  100.29    7.00
   1  -9   2   97.89    6.80
   1   9  -2  106.39    7.70
   1   9   3    6.50    2.80
  -1   9  -3    9.60    3.20
  -1  -9   3    7.50    2.80
  -1   9   3    9.10    2.90
   1   9  -3    4.10    2.80
   1  -9   3    5.60    2.80
   1   9   4   40.30    5.60
  -1  -9   4   32.30    5.00
  -1   9  -4   29.90    5.40
  -1   9   4   40.30    5.50
   1   9  -4   33.40    5.60
   1  -9   4   38.30    5.70
   1   9   5   40.30    6.00
  -1   9  -5   37.60    6.30
  -1  -9   5   49.50    6.80
  -1   9   5   47.00    6.30
   1  -9   5   57.59    7.60
  -1  -9  -5   35.10    5.40
   1   9  -5   54.29    7.60
   1   9   6   10.80    3.60
  -1   9  -6    5.90    3.70
  -1  -9   6    6.90    3.70
   1   9  -6   11.40    4.70
  -1  -9  -6   11.20    4.10
   1  -9   6   15.90    4.90
  -1   9   6    7.70    3.20
   1  -9  -7   32.90    6.00
  -1   9  -7   42.20    7.80
  -1  -9   7   27.40    5.60
   1   9  -7   45.90    7.80
  -1  -9  -7   31.50    6.40
   1  -9   7   36.60    6.80
  -1  10   0   10.40    3.50
   1  10   0    3.40    2.50
   1  10   1   33.70    5.20
  -1  10  -1   27.70    4.80
   1  10  -1   35.60    5.80
  -1  10   1   27.60    4.90
  -1  10  -2   -0.80    1.90
   1  10   2    0.50    2.00
   1  10  -2   -0.40    2.00
  -1  10   2   -0.40    1.90
   1 -10   2   -1.00    1.90
   1  10   3   11.00    3.60
  -1 -10   3    8.90    3.30
  -1  10  -3    9.00    3.50
   1 -10   3    5.80    3.00
   1  10  -3    5.90    3.20
  -1  10   3    8.30    3.10
   1  10   4   10.50    3.40
  -1 -10   4   12.60    4.00
  -1  10  -4   15.90    4.70
   1  10  -4   11.60    4.20
  -1  10   4   11.70    3.40
   1 -10   4    8.50    3.70
  -1 -10   5    5.00    3.10
   1  10   5    8.60    3.40
  -1  10  -5    7.30    3.90
  -1  10   5    8.60    3.30
   1  10  -5   12.10    4.40
   1 -10   5    3.50    3.60
   1  10   6    9.50    3.90
  -1  10  -6   12.90    5.00
  -1 -10   6    6.10    4.10
  -1  10   6    8.90    3.90
   1 -10   6    8.70    4.20
   1  10  -6   11.80    4.70
  -1  11   0    1.40    2.40
   1  11   0    2.10    2.50
   1  11   1   16.00    4.10
  -1  11  -1   24.20    4.70
   1  11  -1   16.50    4.40
  -1  11   1   21.30    4.60
  -1  11  -2    8.20    3.20
   1  11   2    1.90    2.50
   1  11  -2    1.80    2.90
  -1  11   2    3.20    2.70
  -1  11  -3   11.40    4.00
   1  11   3    3.40    2.70
   1 -11   3    8.60    3.70
  -1  11   3   14.80    4.10
   1  11  -3   18.00    5.10
   1  11   4   15.50    4.30
  -1 -11   4   14.70    4.50
  -1  11  -4   24.50    5.30
  -1  11   4   14.60    4.20
   1  11  -4   20.60    5.20
   1 -11   4   13.30    4.40
  -1 -11   5   23.30    5.70
   1 -11   5   36.00    6.50
   1  12   0   80.19    8.70
  -1  12   0   80.99    8.90
   1  12   1   10.00    3.80
  -1  12  -1    4.00    3.40
  -1  12   1    1.40    2.50
   1  12  -1    5.20    3.30
   1  12   2   79.49    8.50
  -1  12  -2   92.99    9.90
  -1  12   2   67.89    7.90
   1  12  -2   73.99    8.60
   2   0   0  275.27    6.10
  -2   0   0  276.17    5.60
  -2   0   1 6028.80   84.29
  -2   0  -1 5972.60   83.29
   2   0  -1 6220.58   85.29
   2   0   1 6118.29   83.99
   2   0  -2 7890.81  111.89
  -2   0   2 8085.89  112.19
   2   0   2 8211.28  112.19
   2   0   2 8111.59  112.79
   2   0   3  675.93   12.70
   2   0   3  668.93   14.00
   2   0  -3  653.73   14.20
  -2   0   3  659.43   12.50
   2   0  -4  151.18    6.60
   2   0   4  155.98    5.50
  -2   0   4  155.08    5.40
   2   0   4  155.28    6.50
   2   0  -5   41.00    4.40
   2   0   5   43.40    3.30
  -2   0   5   47.00    3.30
   2   0   6   39.90    4.10
  -2   0   6   27.00    3.40
   2   0  -6   26.50    3.90
  -2   0  -6   27.80    3.90
   2   0   7  383.36   11.80
   2   0  -7  378.96   14.00
  -2   0  -7  389.66   13.70
  -2   0   7  365.16   11.60
  -2   0  -8   18.30    4.20
   2   0  -8   16.60    4.30
  -2   0   8   18.30    3.50
   2   0  -9  143.89   10.30
  -2   0  -9  135.29    9.80
  -2   0 -10  108.69   10.60
   2   0 -10  108.09   10.60
  -2   1   0  616.74    9.50
  -2   1   0  615.14   10.90
   2  -1   0  618.54   10.60
  -2  -1   0  622.54    9.90
   2   1   0  619.44   11.40
   2   1   0  623.34    9.60
   2   1   1 1980.40   30.20
  -2  -1   1 1999.60   28.70
  -2   1  -1 1989.70   28.60
   2  -1  -1 1980.40   29.70
   2   1   1 2030.20   27.90
  -2   1   1 2014.00   28.80
   2   1  -1 2002.50   29.90
   2   1  -1 2022.20   29.00
  -2   1   1 1947.81   28.10
  -2  -1  -1 1960.80   27.80
   2  -1   1 1968.30   28.60
   2   1   2  875.71   16.50
  -2  -1   2  901.31   15.10
   2  -1  -2  842.92   16.10
   2   1  -2  882.21   16.10
  -2   1   2  883.91   14.50
  -2  -1  -2  893.81   14.00
   2  -1   2  886.81   15.10
   2  -1   2  886.21   15.50
   2  -1  -3  413.16   10.60
   2   1   3  400.56    8.10
   2   1   3  385.66   10.40
  -2  -1   3  405.06    9.20
   2  -1   3  410.16    9.70
   2  -1   3  413.36    9.70
  -2   1   3  409.76    8.50
   2   1  -3  416.96   10.30
   2   1   4 1007.20   17.40
  -2  -1   4 1026.90   18.90
   2  -1  -4 1043.60   21.00
   2   1   4  990.00   20.80
   2  -1   4 1004.10   19.20
   2  -1   4 1004.70   19.70
   2   1  -4 1048.70   20.50
  -2   1   4  984.50   17.70
   2   1   5  157.58    7.60
   2   1   5  166.68    5.70
  -2  -1   5  154.98    6.40
   2  -1  -5  159.28    7.60
  -2   1  -5  149.29    6.50
   2   1  -5  172.78    7.50
   2  -1   5  168.88    6.70
  -2   1   5  154.58    5.70
   2  -1  -6   56.69    5.90
  -2   1  -6   58.09    5.40
   2   1   6   53.79    3.80
  -2  -1   6   56.99    5.10
   2   1  -6   66.09    6.30
  -2   1   6   56.49    3.80
   2  -1   6   53.59    5.00
  -2  -1  -6   59.89    5.70
  -2   1  -7   64.29    6.30
   2  -1  -7   66.09    6.90
  -2  -1   7   67.99    5.10
   2   1  -7   68.99    6.60
  -2   1   7   61.79    4.50
   2  -1   7   66.49    6.10
  -2  -1  -7   52.49    5.90
  -2   1  -8   65.09    6.90
   2  -1  -8   61.69    6.90
  -2  -1   8   56.89    5.80
   2  -1   8   62.49    6.80
  -2  -1  -8   65.19    7.60
   2   1  -8   53.29    6.50
  -2   1  -9   19.90    4.70
  -2  -1   9   22.40    4.20
   2  -1  -9   18.00    5.00
  -2  -1  -9   24.90    5.40
   2   1  -9   27.10    5.50
   2  -1 -10    2.80    3.50
  -2  -1 -10   -2.10    3.20
   2   1 -10    6.00    3.90
  -2  -2   0  809.62   12.50
   2   2   0  799.22   14.20
   2  -2   0  783.12   12.60
   2   2   0  793.82   13.20
  -2   2   0  783.82   14.00
  -2   2   0  785.42   13.10
   2   2   1 2616.44   37.00
  -2  -2   1 2618.14   37.30
  -2   2  -1 2608.14   38.00
   2   2   1 2584.74   39.10
   2  -2  -1 2588.14   37.90
   2   2  -1 2648.83   38.40
   2  -2   1 2578.54   38.40
  -2   2   1 2605.34   37.20
  -2  -2  -1 2632.94   35.40
  -2   2   1 2610.44   37.40
   2   2  -1 2630.54   38.40
   2  -2   1 2539.55   35.90
   2   2   2  459.05    9.40
  -2  -2   2  474.85    9.90
   2  -2  -2  462.45   10.60
  -2   2  -2  493.45   10.70
   2   2   2  480.95   11.30
  -2   2   2  473.85    9.10
  -2   2   2  481.85    9.80
   2   2  -2  473.75   10.90
  -2  -2  -2  473.45    7.40
   2  -2   2  478.25   10.60
   2   2  -2  465.95   10.30
   2  -2   2  470.75    8.80
   2   2   3  380.86   10.60
  -2  -2   3  371.16    9.10
  -2   2  -3  358.26    9.80
   2  -2  -3  366.76   10.10
   2  -2   3  369.06    9.80
   2   2  -3  354.66    9.50
  -2   2   3  366.86    7.80
   2  -2   3  364.86    8.50
   2   2   4  168.78    4.50
  -2  -2   4  160.58    6.20
  -2   2  -4  159.38    5.70
   2  -2  -4  172.48    7.40
   2   2   4  168.68    7.50
   2  -2   4  151.98    6.40
   2   2  -4  149.69    6.40
  -2   2   4  167.38    5.20
  -2  -2   5  207.48    7.90
   2  -2  -5  208.58    9.00
   2   2   5  201.18    8.30
  -2   2  -5  217.18    7.70
   2   2   5  225.98    9.50
  -2   2   5  221.28    6.60
   2  -2   5  219.18    8.20
   2   2  -5  211.68    8.40
  -2  -2   6   19.90    3.40
  -2   2  -6   21.30    3.30
   2  -2  -6   18.90    3.80
   2   2  -6   24.90    4.00
  -2   2   6   18.10    2.60
   2  -2   6   24.20    3.80
  -2  -2  -6   18.40    3.30
  -2  -2   7  123.69    7.20
   2  -2  -7  133.79    8.60
  -2   2  -7  138.49    7.70
   2   2  -7  141.89    8.20
   2  -2   7  124.19    7.30
  -2  -2  -7  146.99    8.60
  -2  -2   8  190.98    9.50
  -2   2  -8  175.38    9.50
   2  -2  -8  172.48   10.70
  -2  -2  -8  181.88   10.70
   2  -2   8  173.58    9.30
   2   2  -8  169.78    9.80
  -2  -2   9  229.08   11.40
  -2  -2  -9  230.98   13.00
   2   2  -9  245.18   12.70
  -2  -2  10   59.59    9.70
   2  -2 -10   61.79    8.80
  -2  -2 -10   45.90    7.90
   2   2 -10   67.49    8.70
  -2  -3   0   36.90    1.90
  -2   3   0   30.60    2.30
  -2   3   0   34.80    2.50
   2   3   0   29.70    2.40
   2  -3   0   33.70    1.70
   2   3   0   30.20    2.30
  -2   3  -1 1225.18   20.90
   2   3   1 1213.38   21.30
  -2  -3   1 1202.78   19.70
   2   3   1 1213.18   20.00
   2  -3  -1 1234.78   19.90
   2   3  -1 1198.68   20.20
  -2  -3  -1 1233.88   17.50
   2   3  -1 1195.38   21.10
   2  -3   1 1217.08   21.00
  -2   3   1 1219.08   19.90
  -2   3   1 1202.08   20.10
   2   3   2  548.75   11.20
   2   3   2  555.24   12.90
  -2   3  -2  536.05   12.50
   2  -3  -2  532.25   12.00
  -2  -3   2  551.54   11.60
   2   3  -2  548.15   11.60
   2  -3   2  554.24   12.40
   2   3  -2  547.75   12.80
  -2   3   2  548.65   10.40
  -2   3   2  537.05   11.40
  -2   3  -3  562.44   10.40
   2   3   3  582.14   12.40
   2   3   3  558.54   14.00
   2  -3  -3  565.04   13.60
  -2  -3   3  566.24   12.70
  -2   3  -3  556.74   13.70
   2   3  -3  542.05   13.90
  -2   3   3  557.54   12.60
   2  -3   3  545.05   13.40
  -2   3   3  569.54   10.60
   2   3  -3  563.24   12.50
  -2  -3   4  270.77    8.70
  -2   3  -4  255.57    9.50
   2   3   4  249.18    9.60
   2  -3  -4  243.18    9.20
  -2   3  -4  240.08    7.00
  -2   3   4  249.97    6.40
   2   3  -4  248.88    8.30
   2   3  -4  242.18    9.40
   2  -3  -5  205.08    9.10
  -2  -3   5  215.08    8.40
  -2   3  -5  228.78    7.60
  -2   3  -5  229.88    9.60
   2   3   5  220.98    9.70
   2  -3   5  225.28    8.90
   2   3  -5  225.48    8.50
  -2   3   5  224.88    6.50
   2   3  -5  213.28    9.50
  -2  -3   6    6.10    2.40
  -2   3  -6    6.80    2.40
   2  -3  -6    3.50    2.40
  -2   3  -6    4.20    1.90
   2  -3   6    5.70    2.20
  -2  -3  -6    7.50    2.50
   2   3  -6    4.60    2.00
   2   3  -6    1.50    2.10
   2  -3  -7  137.39    9.00
  -2   3  -7  153.08    9.30
  -2  -3   7  155.78    8.30
   2  -3   7  141.69    8.20
  -2  -3  -7  175.48    9.70
   2   3  -7  144.99    9.30
   2   3  -7  145.59    8.20
   2  -3  -8   36.10    5.80
  -2   3  -8   45.00    6.50
  -2  -3   8   37.50    5.30
   2   3  -8   36.60    6.10
   2  -3   8   52.79    6.50
  -2  -3  -8   32.30    5.60
   2   3  -8   24.60    4.60
   2  -3  -9   -6.30    2.30
  -2  -3   9    4.10    2.90
  -2   3  -9    0.50    2.60
   2   3  -9    1.80    2.70
   2  -3   9   -1.50    2.50
  -2  -3  -9    0.00    3.10
  -2   3 -10   48.80    8.00
  -2  -3  10   46.70    6.80
   2  -3 -10   41.70    7.80
  -2  -3 -10   42.20    7.90
   2   3 -10   55.59    9.30
  -2   4   0  118.29    4.90
   2   4   0  112.79    4.90
   2  -4   0  127.39    3.50
   2   4   0  125.49    5.00
  -2  -4   0  121.49    4.00
  -2   4   0  131.79    5.20
  -2  -4   1  300.07    7.70
   2   4   1  289.17    8.00
   2   4   1  297.57    8.70
   2  -4  -1  309.77    7.50
  -2   4  -1  310.47    8.80
   2   4  -1  294.07    8.80
   2   4  -1  306.77    7.90
  -2   4   1  318.57    7.90
  -2   4   1  304.17    8.20
  -2  -4  -1  314.27    6.20
   2  -4   1  314.07    8.80
   2   4   2  426.96   10.50
   2  -4  -2  457.25   11.00
   2   4   2  436.76   11.70
  -2   4  -2  441.66   11.80
  -2  -4   2  448.56   10.80
   2   4  -2  446.66   12.00
   2  -4   2  456.45   11.60
   2   4  -2  459.15   10.40
  -2   4   2  456.65   10.80
  -2   4   2  448.36    9.40
  -2   4  -3  119.29    6.20
   2   4   3  118.79    6.20
  -2  -4   3  122.79    5.60
   2  -4  -3  111.29    5.70
  -2   4  -3  117.09    3.30
   2   4   3  120.49    5.40
  -2   4   3  125.39    5.60
   2   4  -3  108.79    6.10
   2   4  -3  120.99    5.10
  -2   4   3  126.59    4.10
   2  -4   3  119.59    5.90
   2   4   4  161.48    6.80
  -2   4  -4  161.38    7.80
   2   4   4  167.38    8.20
   2  -4  -4  176.38    7.90
  -2  -4   4  167.58    7.10
  -2   4   4  164.98    5.00
   2  -4   4  171.58    7.70
   2   4  -4  162.08    8.00
   2   4  -4  170.98    6.70
  -2   4   4  162.88    7.00
   2  -4  -5    9.60    2.90
  -2   4  -5    5.20    2.40
   2   4   5    4.00    2.20
  -2  -4   5    5.30    2.10
   2   4  -5   11.60    2.50
   2   4  -5    4.80    2.40
   2  -4   5   10.30    2.70
   2  -4  -6    0.90    1.90
  -2  -4   6   -0.20    1.70
  -2   4  -6   -0.30    2.00
   2   4  -6   -2.70    1.60
  -2  -4  -6    0.10    1.90
   2  -4   6   -1.70    1.50
   2   4  -6    2.30    1.50
  -2  -4   7   11.10    3.10
   2  -4  -7   14.10    4.10
  -2   4  -7    8.80    3.60
   2  -4   7   16.30    3.70
  -2  -4  -7   13.40    3.60
   2   4  -7   15.80    4.20
  -2   4  -8   38.90    6.70
  -2  -4   8   30.60    5.10
   2  -4  -8   46.80    6.80
  -2  -4  -8   30.10    5.70
   2  -4   8   34.50    5.60
   2   4  -8   29.60    5.70
  -2  -4   9    0.70    2.40
  -2   4  -9    1.50    3.70
   2  -4  -9    1.30    3.20
   2   4  -9   -1.80    3.00
  -2  -4  -9   -4.30    2.90
   2  -4   9    2.30    3.00
  -2   5   0   88.59    4.60
  -2   5   0   82.19    4.50
   2   5   0   84.89    4.30
   2  -5   0   90.49    3.00
  -2  -5   0   84.79    3.70
   2   5   0   83.59    4.60
  -2   5  -1 1342.27   24.90
  -2  -5   1 1303.97   22.90
   2   5   1 1330.57   24.30
   2  -5  -1 1347.87   22.10
   2   5   1 1304.87   23.90
  -2   5   1 1331.97   23.90
   2  -5   1 1313.97   24.30
  -2   5   1 1351.66   23.10
  -2  -5  -1 1346.07   20.70
   2   5  -1 1294.67   22.70
   2   5  -1 1334.17   25.20
  -2   5  -2  270.17    9.50
  -2  -5   2  279.77    8.60
   2   5   2  286.37    9.50
   2   5   2  278.17    8.70
   2  -5  -2  272.97    8.40
   2   5  -2  282.47    9.80
   2   5  -2  289.27    8.00
   2  -5   2  282.37    9.30
  -2   5   2  291.87    8.90
  -2   5   2  285.17    7.40
  -2   5  -3   57.39    5.40
   2   5   3   56.99    4.60
   2  -5  -3   60.39    4.40
   2   5   3   54.29    4.00
  -2  -5   3   57.49    4.10
  -2   5   3   55.39    4.00
  -2   5   3   54.79    2.90
   2   5  -3   56.09    3.70
   2  -5   3   52.29    5.00
   2  -5  -4   73.19    5.40
   2   5   4   85.69    5.20
  -2  -5   4   70.39    5.00
   2   5   4   76.29    5.90
  -2   5  -4   78.09    5.90
  -2   5   4   79.59    5.20
   2  -5   4   72.39    5.50
   2   5  -4   87.69    4.80
   2   5  -4   83.39    6.30
   2   5   5    0.00    1.80
  -2   5  -5   -0.40    1.90
   2  -5  -5    2.20    2.00
  -2  -5   5   -0.90    1.50
   2   5  -5    0.00    2.00
   2  -5   5    0.40    1.60
   2  -5  -6   71.69    7.00
  -2  -5   6   71.39    7.00
  -2   5  -6   77.89    7.80
  -2  -5  -6   73.99    7.00
   2  -5   6   62.49    6.60
   2   5  -6   88.39    8.60
  -2   5  -7   52.79    7.10
  -2  -5   7   58.79    6.60
   2  -5  -7   57.89    7.20
   2   5  -7   54.29    7.50
  -2  -5  -7   58.59    6.80
   2  -5   7   69.89    7.80
  -2   5  -8    9.80    3.80
   2  -5  -8    4.10    3.70
  -2  -5   8    2.00    2.60
  -2  -5  -8    9.80    4.00
   2  -5   8    2.30    2.90
   2   5  -8    8.50    4.00
  -2  -5   9   94.49    9.70
   2  -5  -9   72.29    8.90
  -2   5  -9   86.29   10.40
   2  -5   9   97.09    9.90
  -2  -5  -9   78.89    9.60
   2   5  -9   79.39    9.90
  -2  -6   0   13.30    2.00
  -2   6   0   18.20    3.00
   2   6   0   13.30    2.30
   2   6   0   16.90    2.80
   2  -6  -1  398.86    9.40
   2   6   1  412.46   11.60
   2   6   1  401.86   11.20
  -2  -6   1  399.96   10.60
  -2   6  -1  385.26   11.70
   2   6  -1  397.26   12.00
  -2   6   1  390.26   10.40
   2   6  -1  386.16   10.10
  -2   6   1  419.76   11.60
   2  -6   1  403.86   11.50
  -2  -6  -1  389.66    8.70
   2   6   2   15.10    2.70
  -2   6  -2   19.70    3.30
  -2  -6   2   15.10    2.60
   2  -6  -2   18.30    2.70
   2   6   2   13.20    2.60
  -2   6   2   11.20    2.30
   2  -6   2   16.30    3.00
  -2   6   2   14.20    2.10
   2   6  -2   17.00    2.30
   2   6  -2   13.60    2.90
  -2  -6   3   78.59    5.20
   2   6   3   80.69    5.20
   2   6   3   81.59    5.70
  -2   6  -3   88.39    6.10
   2  -6  -3   78.49    5.20
  -2   6   3   94.69    5.60
   2   6  -3   76.59    5.90
   2  -6   3   75.99    5.50
   2   6   4  402.16   13.90
   2   6   4  398.26   12.60
   2  -6  -4  405.26   13.20
  -2  -6   4  389.36   13.00
  -2   6  -4  400.76   14.10
  -2   6   4  403.86   12.70
   2  -6   4  438.86   14.10
   2   6  -4  398.46   14.30
   2   6   5  274.87   12.10
   2  -6  -5  267.67   11.50
  -2  -6   5  271.87   11.30
   2   6   5  276.57   10.70
  -2   6  -5  260.47   12.00
   2  -6   5  277.27   11.80
  -2   6   5  266.27   10.70
   2   6  -5  252.87   12.10
  -2   6  -6   -1.30    2.10
  -2  -6   6    3.30    2.50
   2  -6  -6    4.20    2.70
  -2  -6  -6    5.60    2.90
   2  -6   6    1.10    2.40
   2   6  -6    2.00    2.70
  -2  -6   7  153.28    9.50
   2  -6  -7  181.18   11.00
  -2   6  -7  168.38   11.10
   2   6  -7  155.98   10.90
  -2  -6  -7  134.69    9.60
   2  -6   7  151.58    9.70
   2  -6  -8   20.80    5.40
  -2   6  -8   16.20    5.20
  -2  -6   8   23.90    5.40
   2   6  -8   21.50    5.50
  -2  -6  -8   13.90    4.50
   2  -6   8   24.40    5.40
  -2  -6   9   16.60    5.10
   2  -6  -9   18.30    5.50
  -2   6  -9   20.40    5.90
  -2  -6  -9   19.80    6.20
   2   6  -9   23.90    7.00
   2  -6   9   22.10    5.30
   2   7   0  634.94   14.50
  -2   7   0  642.94   16.40
   2   7   0  606.54   16.20
  -2  -7   0  619.64   13.80
  -2   7   0  619.64   15.40
   2   7   1  140.19    7.00
  -2   7  -1  152.88    7.60
  -2  -7   1  146.39    6.40
   2   7   1  143.29    6.60
   2   7  -1  141.59    7.40
  -2   7   1  142.29    7.00
  -2   7   1  143.69    6.20
   2  -7   1  153.48    7.10
   2   7   2   48.00    4.80
  -2   7  -2   48.30    5.40
  -2  -7   2   48.60    4.90
   2   7   2   45.00    4.80
   2   7  -2   47.80    5.40
  -2   7   2   44.90    4.70
   2  -7   2   51.29    5.40
   2   7   3   40.20    4.90
   2  -7  -3   46.40    4.80
   2   7   3   51.79    5.10
  -2   7  -3   49.99    5.70
  -2  -7   3   54.39    5.60
   2   7  -3   66.29    7.00
   2  -7   3   50.29    5.60
  -2   7   3   44.60    4.70
   2   7   4    7.60    2.70
  -2  -7   4    6.90    2.60
   2  -7  -4    9.20    2.80
  -2   7  -4    7.40    2.80
   2   7   4    8.30    2.50
   2   7  -4    8.80    3.10
  -2   7   4    8.40    2.50
   2  -7   4    8.60    3.10
   2   7   5   24.60    4.10
   2   7   5   38.20    5.60
  -2  -7   5   36.30    5.30
   2  -7  -5   28.20    4.70
  -2   7  -5   41.60    6.40
  -2   7   5   38.00    5.00
   2   7  -5   34.50    5.60
   2  -7   5   31.10    5.10
  -2  -7   6   19.60    4.50
  -2   7  -6   19.60    4.80
   2  -7  -6    9.00    3.40
  -2  -7  -6   14.70    3.90
   2   7  -6   18.40    5.00
   2  -7   6   19.00    4.40
  -2  -7   7   81.39    8.70
   2  -7  -7   57.39    7.40
  -2   7  -7   75.69    9.20
  -2  -7  -7   78.29    8.40
   2   7  -7   67.09    9.20
   2  -7   7   71.29    8.40
  -2  -7   8   56.69    7.80
  -2   7  -8   51.19    8.50
   2  -7  -8   51.29    7.50
  -2  -7  -8   53.39    7.90
   2   7  -8   47.40    8.00
   2  -7   8   50.99    7.40
   2   8   0   44.70    5.10
  -2   8   0   47.20    5.00
  -2   8   0   46.50    5.20
  -2   8  -1   13.30    3.20
  -2  -8   1   16.70    3.00
   2   8   1   14.60    3.20
   2  -8   1   16.90    3.30
   2   8  -1   14.10    3.40
  -2   8   1   11.40    2.80
  -2  -8   2  227.78    9.30
   2   8   2  201.98    8.90
   2   8   2  214.48    9.40
  -2   8  -2  221.48   10.10
   2   8  -2  219.58   10.30
  -2   8   2  220.38    9.60
   2  -8   2  210.98    9.50
  -2   8  -3  249.68   11.40
  -2  -8   3  220.78    9.90
   2   8   3  237.28   10.10
   2   8   3  254.77   10.70
   2  -8   3  231.18   10.50
  -2   8   3  237.78   10.10
   2   8  -3  241.38   11.40
  -2   8  -4    0.90    2.20
   2   8   4   -0.40    1.60
   2   8   4    2.70    2.10
  -2  -8   4   -0.40    1.80
  -2   8   4   -0.20    1.80
   2   8  -4    0.00    2.20
   2  -8   4   -1.90    1.80
   2  -8  -5  276.77   12.30
  -2  -8   5  267.57   12.20
   2   8   5  288.37   12.00
  -2   8  -5  279.67   13.40
   2  -8   5  264.47   12.60
   2   8  -5  267.47   13.40
  -2   8   5  262.37   11.70
  -2  -8   6  155.98   10.10
   2   8   6  156.88    9.50
  -2   8  -6  136.79   12.10
   2  -8  -6  134.49    9.30
   2   8  -6  144.09   10.70
  -2  -8  -6  150.18    9.90
  -2   8   6  142.89    9.30
   2  -8   6  131.49    9.50
   2  -8  -7   11.80    4.30
  -2   8  -7   14.80    4.90
  -2  -8   7   13.40    4.50
   2   8  -7    6.70    3.90
  -2  -8  -7   13.80    4.40
   2  -8   7   10.10    4.30
   2   9   0    2.40    2.10
  -2   9   0   -1.00    1.60
   2   9   1   18.70    3.70
  -2   9  -1   19.30    4.00
   2  -9   1   23.40    4.00
  -2   9   1   25.30    4.30
   2   9  -1   24.50    4.30
   2   9   2   -0.10    1.70
  -2   9  -2    0.40    2.10
  -2  -9   2    2.80    2.10
   2  -9   2   -3.30    1.50
  -2   9   2    1.20    1.80
   2   9  -2    0.80    2.10
   2   9   3   44.40    5.50
  -2   9  -3   35.20    5.40
  -2  -9   3   52.69    6.20
   2  -9   3   36.30    5.50
   2   9  -3   43.70    6.30
  -2   9   3   35.20    4.80
  -2   9  -4   33.00    5.60
  -2  -9   4   35.70    5.50
   2   9   4   31.60    4.90
  -2   9   4   31.00    5.00
   2  -9   4   37.20    5.80
   2   9  -4   35.20    6.00
  -2  -9   5    9.90    3.70
  -2   9  -5   12.20    4.10
   2   9   5    9.60    3.20
   2   9  -5    7.90    3.70
  -2  -9  -5    8.10    3.30
   2  -9   5    5.30    3.00
  -2   9   5    9.40    3.20
  -2  -9   6   53.09    7.40
  -2   9  -6   58.39    8.30
   2   9   6   46.80    6.60
   2   9  -6   43.30    7.40
  -2   9   6   43.80    6.20
  -2  -9  -6   47.60    6.70
   2  -9   6   44.40    6.90
  -2   9  -7   26.70    6.30
  -2  -9   7   38.90    6.80
   2   9  -7   35.20    7.60
   2  -9   7   22.50    5.40
  -2  -9  -7   41.70    6.80
   2  10   0    1.40    2.50
  -2  10   0   -0.30    2.00
  -2  10  -1   25.10    4.60
   2  10   1   22.30    4.40
   2  10  -1   26.90    4.70
  -2  10   1   23.90    4.60
  -2  10  -2   20.50    4.30
   2  10   2   23.80    4.40
  -2  10   2   24.20    4.50
   2  10  -2   21.70    4.70
   2 -10   2   18.40    4.10
   2  10   3   -0.30    2.10
  -2  10  -3    2.40    2.60
  -2 -10   3    0.90    2.30
  -2  10   3    2.00    2.40
   2  10  -3    1.20    2.60
   2 -10   3    1.80    2.30
  -2 -10   4   16.70    4.20
  -2  10  -4   23.10    5.50
   2  10   4   28.50    5.10
   2 -10   4   24.80    5.10
  -2  10   4   25.10    5.00
   2  10  -4   27.90    5.70
  -2  10  -5   44.60    7.40
  -2 -10   5   40.80    6.40
   2  10   5   38.20    6.00
   2 -10   5   29.60    6.10
  -2  10   5   40.00    6.20
   2  10  -5   35.50    6.70
  -2 -10   6   25.70    5.60
   2  10   6   24.20    5.30
  -2  10  -6   15.40    5.10
   2 -10   6   17.80    5.10
   2  10  -6   28.20    7.00
  -2  10   6   19.30    5.00
   2  11   0   32.30    5.50
  -2  11   0   31.50    5.30
  -2  11  -1    8.40    3.40
   2  11   1    9.90    3.40
   2  11  -1   16.10    4.40
  -2  11   1    4.70    3.10
  -2  11  -2    4.50    2.70
   2  11   2    8.20    3.50
  -2  11   2    7.20    3.20
   2  11  -2   16.90    4.90
   2  11   3    0.70    2.40
  -2  11  -3    3.40    2.90
  -2  11   3    2.70    2.70
   2 -11   3   -0.90    2.50
   2  11  -3    3.90    3.20
  -2  11  -4   19.90    5.10
  -2 -11   4    7.70    4.30
   2  11   4   21.40    5.00
   2  11  -4   22.50    5.40
   2 -11   4   19.70    5.00
  -2  11   4   19.30    4.80
   2  12   0   13.40    4.30
  -2  12   0   22.90    5.20
  -2  12  -1   34.90    6.20
   2  12   1   23.80    5.10
  -2  12   1   37.90    6.10
   2  12  -1   56.79    7.80
   2  12   2    3.90    3.10
  -2  12  -2   11.10    4.30
  -2  12   2    7.10    3.60
   2  12  -2    2.90    3.10
  -3   0   0   -0.60    0.60
   3   0   0    1.40    1.00
  -3   0  -1   -0.40    0.70
  -3   0   1   -0.20    0.70
   3   0  -1    0.30    0.90
   3   0   1   -0.10    0.80
   3   0  -2    0.00    0.90
  -3   0  -2   -0.40    0.60
   3   0   2    0.10    0.80
  -3   0   2   -0.50    0.70
  -3   0   3   -0.10    0.90
   3   0   3    1.10    0.90
   3   0   3    0.10    0.90
   3   0  -3    1.90    1.30
  -3   0   4   -0.10    1.00
   3   0   4    0.20    1.10
   3   0   4    0.70    0.90
   3   0  -4   -0.60    1.10
   3   0  -5    0.90    1.50
   3   0   5   -0.40    1.10
  -3   0   5    0.00    1.00
   3   0   5    0.30    1.20
  -3   0   6   -1.80    0.90
   3   0  -6   -2.50    1.40
   3   0   6    0.20    1.30
   3   0  -7   -1.60    1.90
  -3   0  -7    0.70    1.80
  -3   0   7   -2.00    1.30
   3   0  -8   -2.70    2.00
  -3   0   8    1.10    2.00
  -3   0  -8    1.90    2.40
   3   0  -9   -0.60    2.70
  -3   0  -9   -0.60    2.80
  -3   0 -10   -3.10    3.40
   3   0 -10    0.00    3.30
  -3   1   0  182.38    5.30
   3  -1   0  180.48    5.30
  -3  -1   0  190.58    4.70
   3   1   0  183.58    5.80
   3   1   0  186.88    3.80
  -3   1   0  188.48    3.60
   3   1   1  110.69    2.80
   3  -1  -1  109.99    4.40
   3   1   1  120.99    4.70
  -3   1  -1  108.29    3.20
  -3  -1   1  108.89    3.70
  -3   1  -1  108.59    4.20
   3  -1   1  107.29    3.90
  -3   1   1  104.89    3.80
   3   1  -1  107.19    3.50
   3   1  -1  104.39    4.50
  -3  -1  -1  108.89    3.40
   3   1   2  348.97    9.40
  -3  -1   2  341.17    7.90
   3  -1  -2  373.56    9.40
  -3   1   2  339.77    7.80
   3   1  -2  346.77    9.20
  -3  -1  -2  345.47    7.30
   3  -1   2  324.97    8.20
   3   1   3 1041.10   20.40
  -3  -1   3 1027.40   18.30
   3  -1  -3 1033.10   20.30
  -3   1   3 1003.10   17.70
   3  -1   3 1001.40   18.80
   3  -1   3 1021.40   19.00
  -3  -1  -3 1041.20   17.40
   3   1  -3 1010.10   20.00
   3  -1  -4  194.98    8.00
   3   1   4  187.38    7.70
   3   1   4  192.78    5.80
  -3  -1   4  190.48    6.60
   3  -1   4  188.88    7.10
   3  -1   4  185.88    6.70
  -3   1   4  191.48    6.10
   3   1  -4  174.38    7.40
   3   1   5  514.95   11.40
   3   1   5  493.15   14.50
   3  -1  -5  493.15   14.60
  -3  -1   5  484.75   12.40
   3   1  -5  485.75   14.10
  -3   1   5  502.95   11.80
   3  -1   5  481.95   13.40
   3  -1   5  505.45   12.90
   3  -1  -6   60.09    6.00
  -3  -1   6   57.69    4.50
   3   1   6   69.59    6.70
  -3   1  -6   70.49    5.10
   3  -1   6   63.29    4.80
   3   1  -6   74.19    6.90
  -3   1   6   67.99    4.40
  -3  -1   7    8.70    2.60
   3  -1  -7    5.60    2.70
  -3   1  -7   11.80    2.90
   3  -1   7    6.20    2.50
   3   1  -7    4.90    2.50
  -3   1   7    5.10    2.10
  -3  -1  -7    4.70    2.60
  -3   1  -8   78.29    7.60
  -3  -1   8   79.19    7.20
   3  -1  -8   83.79    8.30
  -3  -1  -8   84.89    8.00
   3   1  -8   82.89    8.30
   3  -1  -9   15.80    4.70
  -3  -1   9   14.60    3.70
  -3   1  -9   18.70    4.70
   3   1  -9   24.40    5.50
  -3  -1  -9   13.90    4.50
   3  -1 -10    9.40    4.30
  -3  -1 -10    3.40    4.10
   3   1 -10    5.00    4.00
   3   2   0  485.45    9.10
  -3   2   0  491.15   10.60
   3  -2   0  489.25    9.70
  -3  -2   0  494.45    9.10
   3   2   0  497.35   11.10
  -3   2   0  499.05    9.00
  -3   2  -1  349.37    8.90
   3  -2  -1  353.36    8.50
  -3   2  -1  368.26    7.80
   3   2   1  357.86    7.10
  -3  -2   1  351.66    7.80
   3   2   1  341.47    9.20
   3  -2   1  353.26    7.50
  -3   2   1  364.56    8.30
   3   2  -1  351.46    9.10
  -3   2   1  374.86    7.40
   3   2  -1  362.46    8.20
  -3  -2  -1  362.56    6.80
  -3   2  -2  653.93   12.90
   3   2   2  621.14   11.70
   3   2   2  658.03   14.50
   3  -2  -2  639.54   13.80
  -3  -2   2  636.54   12.60
   3  -2   2  648.24   13.60
   3   2  -2  630.14   13.40
   3  -2   2  638.94   12.00
  -3  -2  -2  645.14   10.60
   3   2  -2  652.23   13.80
  -3   2   2  660.13   12.30
  -3   2   2  641.34   12.30
  -3   2  -3  228.58    7.50
   3  -2  -3  232.98    8.10
   3   2   3  230.78    8.40
  -3  -2   3  241.38    7.20
   3  -2   3  241.78    6.80
   3  -2   3  233.78    7.60
  -3   2   3  225.38    6.30
   3   2  -3  225.28    7.80
  -3  -2  -3  227.38    5.30
   3   2  -3  225.78    7.80
   3  -2  -4  185.08    8.00
   3   2   4  175.78    7.90
  -3  -2   4  188.08    6.90
  -3   2   4  177.88    5.80
   3  -2   4  193.18    7.30
   3   2  -4  179.98    7.50
   3  -2   4  178.98    6.50
  -3  -2  -4  187.28    5.20
   3   2   5   31.30    4.40
   3  -2  -5   28.40    3.90
  -3  -2   5   46.00    4.60
  -3   2  -5   37.40    3.70
  -3   2   5   33.00    3.20
   3   2  -5   49.60    5.10
   3  -2   5   30.50    3.80
   3  -2  -6   68.39    6.70
   3   2   6   66.69    6.80
  -3  -2   6   68.19    5.00
  -3   2  -6   64.49    4.70
   3   2  -6   63.39    6.00
  -3   2   6   62.19    4.10
   3  -2   6   68.29    5.20
  -3  -2   7  103.99    6.70
   3  -2  -7  115.69    8.30
  -3   2  -7  107.79    6.90
   3  -2   7  110.09    7.00
   3   2  -7  111.79    7.60
  -3  -2  -7  119.89    7.90
  -3   2   7  111.39   10.10
   3  -2  -8   26.40    5.30
  -3  -2   8   38.20    5.40
   3   2  -8   24.10    4.80
  -3  -2  -8   25.30    4.80
   3  -2   8   27.50    4.80
   3  -2  -9   35.30    6.30
  -3  -2   9   29.30    5.30
  -3  -2  -9   46.10    7.10
   3   2  -9   36.00    6.10
   3  -2 -10    2.80    4.40
  -3  -2  10    5.10    3.70
  -3  -2 -10    7.40    4.80
   3   2 -10    5.30    3.90
  -3   3   0   20.30    2.10
   3  -3   0   20.40    1.90
  -3   3   0   19.50    2.40
   3   3   0   24.50    2.30
  -3  -3   0   20.30    1.90
   3   3   0   23.30    2.70
   3   3   1  554.64   12.80
  -3  -3   1  545.45   10.80
   3   3   1  522.15   10.70
   3  -3  -1  529.25   11.20
  -3   3  -1  549.85   12.60
  -3   3  -1  558.64   11.40
   3   3  -1  513.45   11.50
  -3   3   1  520.85   11.30
  -3  -3  -1  558.74    9.30
  -3   3   1  551.24   10.90
   3   3  -1  515.15   11.90
   3  -3   1  540.85    9.50
   3   3   2  232.08    8.20
  -3   3  -2  233.88    7.40
   3   3   2  235.38    6.50
   3  -3  -2  228.88    7.40
  -3  -3   2  226.08    6.80
  -3  -3  -2  242.18    4.50
   3   3  -2  235.38    7.50
   3  -3   2  235.98    5.50
  -3   3   2  237.08    6.80
   3  -3   2  224.08    7.60
   3   3  -2  224.78    7.60
  -3   3   2  237.18    6.50
  -3  -3   3  140.49    5.70
   3   3   3  136.09    5.30
   3  -3  -3  137.19    6.30
   3   3   3  140.39    6.70
  -3   3  -3  142.99    6.20
   3   3  -3  129.59    6.20
   3  -3   3  130.59    4.50
  -3   3   3  139.19    4.80
  -3   3   3  146.29    5.70
   3  -3   3  126.59    6.00
  -3  -3  -3  135.19    3.00
   3   3  -3  135.29    5.90
   3  -3  -4  204.18    8.40
   3   3   4  223.08    9.20
  -3  -3   4  214.58    7.80
  -3   3  -4  216.18    8.60
   3  -3   4  207.28    8.10
   3   3  -4  203.98    8.00
  -3   3   4  207.78    6.30
   3   3  -4  183.38    8.30
   3  -3  -5   15.10    3.30
  -3  -3   5   16.10    3.10
   3   3   5   19.70    3.70
  -3   3  -5   19.80    2.60
  -3   3  -5   15.00    3.30
  -3   3   5   18.50    2.40
   3  -3   5   22.40    3.70
   3   3  -5   12.80    2.70
   3   3  -5   14.90    3.30
  -3   3  -6   24.00    4.20
  -3  -3   6   24.40    3.90
   3  -3  -6   25.00    4.20
   3   3   6   23.60    4.40
   3  -3   6   26.60    4.20
  -3   3   6   28.40    4.10
   3   3  -6   23.40    4.20
   3   3  -6   22.30    3.80
  -3  -3   7   58.79    6.00
   3  -3  -7   49.60    6.50
  -3   3  -7   67.99    7.40
  -3  -3  -7   55.39    6.50
   3  -3   7   81.19    7.70
   3   3  -7   65.99    6.70
   3   3  -7   69.99    7.60
  -3   3  -8    5.90    3.00
  -3  -3   8    7.90    3.10
   3  -3  -8    2.10    3.10
   3   3  -8    9.20    3.50
  -3  -3  -8    5.70    3.30
   3   3  -8    8.40    3.10
   3  -3   8    4.10    2.80
  -3  -3   9   25.10    5.10
   3  -3  -9   21.60    5.60
  -3   3  -9   21.20    5.10
   3   3  -9   27.50    5.70
  -3  -3  -9   21.10    5.10
   3   3  -9   21.30    5.80
   3  -3   9   22.30    4.80
   3   4   0  130.99    5.20
  -3   4   0  135.19    5.70
  -3  -4   0  133.89    4.30
   3  -4   0  135.59    4.10
   3   4   0  137.69    5.70
  -3   4   0  139.39    5.20
  -3  -4   1   87.69    3.90
   3  -4  -1   87.19    3.90
  -3   4  -1   84.99    4.40
   3   4   1   84.99    4.80
   3   4   1   86.79    4.10
   3  -4   1   85.19    2.50
  -3  -4  -1   87.99    2.90
  -3   4   1   90.49    4.30
   3   4  -1   88.49    4.60
  -3   4   1   81.99    4.10
   3   4  -1   85.59    4.50
  -3  -4   2  196.08    6.70
  -3   4  -2  202.18    7.40
   3  -4  -2  200.58    7.00
   3   4   2  185.58    6.40
   3   4   2  200.18    7.90
  -3   4   2  186.58    6.50
   3   4  -2  207.68    7.70
   3  -4   2  214.38    7.70
  -3  -4  -2  201.18    4.00
   3  -4   2  201.88    4.10
   3   4  -2  209.78    7.20
  -3   4   2  206.18    6.30
  -3   4  -3    0.00    1.30
   3  -4  -3    2.20    1.30
  -3  -4   3    1.50    1.30
   3   4   3    0.10    1.20
   3   4   3    0.30    1.00
  -3   4   3    1.20    1.10
   3   4  -3    0.30    1.50
  -3   4   3    2.10    1.10
   3   4  -3    0.90    1.20
   3  -4   3    1.70    1.50
   3  -4  -4  189.98    8.40
  -3  -4   4  193.98    7.80
  -3   4  -4  188.58    8.40
   3   4   4  200.08    7.50
   3   4   4  186.48    8.70
   3   4  -4  179.48    7.40
   3   4  -4  206.48    9.00
   3  -4   4  177.18    8.00
  -3   4   4  185.18    5.90
   3   4   5   97.19    7.10
  -3   4  -5  110.89    7.10
  -3  -4   5  104.29    6.20
   3  -4  -5   94.89    6.70
   3   4  -5   97.29    5.90
  -3   4   5  112.49    6.10
   3   4  -5  116.89    7.50
   3  -4   5  101.99    6.60
   3  -4  -6    4.90    2.60
  -3   4  -6    7.60    2.90
   3   4   6    8.90    3.20
  -3  -4   6   10.80    2.80
   3   4  -6    9.60    3.40
   3  -4   6    7.20    2.90
   3   4  -6    7.00    2.60
  -3   4  -7   13.80    4.00
   3  -4  -7   17.80    4.30
  -3  -4   7   16.40    3.90
   3   4  -7   10.50    3.60
   3  -4   7   14.80    4.00
  -3  -4  -7   18.20    4.20
   3   4  -7   10.70    3.20
  -3  -4   8   17.60    4.20
  -3   4  -8   10.30    4.30
   3  -4  -8   11.30    4.10
   3  -4   8   13.60    4.00
   3   4  -8   10.50    4.20
  -3  -4  -8   14.30    4.30
  -3  -4   9   31.90    5.80
   3  -4  -9   41.80    7.40
  -3   4  -9   34.30    6.70
  -3  -4  -9   45.20    7.60
   3   4  -9   56.39    8.70
   3  -4   9   45.80    6.80
  -3   5   0   -0.30    0.90
  -3   5   0    1.30    1.20
   3   5   0    0.60    0.90
   3   5   0    0.50    1.00
   3  -5   0   -0.40    0.60
  -3  -5   0   -0.30    0.70
  -3   5  -1  191.78    7.20
   3  -5  -1  173.88    5.80
  -3  -5   1  179.48    6.20
   3   5   1  171.78    7.20
   3   5   1  170.78    6.50
  -3   5   1  191.68    6.90
   3   5  -1  170.18    6.60
   3   5  -1  187.78    7.40
  -3   5   1  195.58    6.80
  -3  -5  -1  181.58    4.90
  -3  -5   2  238.38    7.90
   3  -5  -2  226.88    7.80
   3   5   2  228.38    8.90
   3   5   2  230.48    7.70
  -3   5  -2  237.78    8.70
   3   5  -2  245.58    8.00
   3  -5   2  231.88    8.70
  -3   5   2  230.98    7.90
  -3   5   2  247.58    7.40
   3   5  -2  234.58    8.90
   3  -5  -3  149.39    7.00
  -3  -5   3  171.58    7.20
  -3   5  -3  159.58    7.70
   3   5   3  151.38    7.70
   3   5   3  168.78    6.80
   3  -5   3  165.48    7.60
  -3   5   3  147.39    6.70
  -3   5   3  160.88    5.60
   3   5  -3  166.38    8.00
   3   5  -3  168.78    6.90
   3   5   4   75.59    5.90
  -3   5  -4   72.29    6.60
  -3  -5   4   50.09    4.90
   3  -5  -4   68.59    5.30
   3   5   4   62.39    4.50
   3   5  -4   59.89    6.10
  -3   5   4   62.49    4.00
  -3   5   4   68.99    4.90
   3  -5   4   57.09    5.60
   3   5  -4   67.39    4.70
  -3   5  -5   53.59    6.20
  -3  -5   5   57.79    5.90
   3  -5  -5   51.99    5.70
   3   5   5   48.90    5.90
   3   5  -5   55.69    5.40
   3   5  -5   42.00    5.60
   3  -5   5   60.39    6.30
   3   5   6   30.20    5.00
  -3   5  -6   32.40    5.30
  -3  -5   6   42.60    5.50
   3  -5  -6   26.40    4.60
   3   5  -6   37.50    5.80
   3  -5   6   35.90    5.50
  -3   5  -7   -0.70    2.40
   3  -5  -7   -0.40    2.60
  -3  -5   7   -1.40    1.60
  -3  -5  -7   -2.10    2.10
   3  -5   7    0.00    2.30
   3   5  -7   -0.60    2.30
   3  -5  -8   94.29    9.30
  -3  -5   8   99.59    9.40
  -3   5  -8   80.39    9.30
   3   5  -8   89.39    9.80
   3  -5   8   91.99    9.30
  -3  -5  -8   78.79    8.80
  -3  -5   9   12.90    4.40
   3  -5  -9   18.00    5.60
  -3   5  -9    9.10    4.60
  -3  -5  -9   20.30    5.60
   3  -5   9   26.60    6.00
   3   5  -9   15.20    5.30
  -3   6   0   11.30    2.30
  -3  -6   0   10.70    1.90
  -3   6   0    8.60    2.10
   3   6   0   12.50    2.50
   3   6   0    5.50    1.90
  -3  -6   1   70.29    4.10
   3   6   1   67.59    4.50
   3   6   1   64.79    4.70
  -3   6  -1   65.29    4.70
   3  -6  -1   68.99    4.70
  -3   6   1   67.19    4.30
   3   6  -1   74.69    5.00
  -3   6   1   66.79    4.50
   3   6  -1   65.99    4.30
  -3   6  -2  185.48    8.20
   3  -6  -2  191.68    7.20
   3   6   2  193.38    7.60
  -3  -6   2  188.68    7.40
   3   6   2  199.88    8.60
  -3   6   2  195.18    6.80
   3   6  -2  181.18    7.10
  -3   6   2  191.18    7.70
   3   6  -2  191.58    8.60
   3  -6   2  195.08    8.40
  -3   6  -3  459.75   14.30
   3  -6  -3  459.45   13.10
   3   6   3  453.65   14.40
   3   6   3  448.06   12.60
  -3  -6   3  470.25   13.20
   3  -6   3  456.95   14.00
  -3   6   3  434.86   10.70
  -3   6   3  455.75   13.00
   3   6  -3  440.66   14.30
   3   6  -3  442.96   12.00
   3  -6  -4  104.59    6.70
  -3   6  -4  102.09    7.10
  -3  -6   4  109.29    6.50
   3   6   4  105.89    7.20
   3   6   4   98.89    6.10
  -3   6   4  101.89    6.20
   3  -6   4  109.89    7.00
   3   6  -4  101.19    7.30
  -3  -6   5  243.08   10.70
   3   6   5  262.17   12.00
   3  -6  -5  253.77   11.20
  -3   6  -5  248.08   11.70
   3   6   5  236.38   10.00
   3   6  -5  255.77   12.20
  -3   6   5  244.38   10.40
  -3  -6   6   72.19    7.20
   3   6   6   83.69    8.60
  -3   6  -6   73.69    8.10
   3  -6  -6   87.79    8.20
   3  -6   6   87.49    8.20
   3   6  -6   73.79    8.30
  -3   6  -7   65.89    8.20
  -3  -6   7   74.09    8.00
   3  -6  -7   40.20    6.20
  -3  -6  -7   55.89    7.40
   3   6  -7   69.19    8.80
   3  -6   7   40.90    6.30
  -3  -6   8   12.90    4.10
   3  -6  -8    4.40    3.70
  -3   6  -8    6.30    4.10
   3  -6   8    6.20    3.70
   3   6  -8    8.60    3.90
  -3  -6  -8    6.20    3.60
  -3  -7   0   28.60    4.60
  -3   7   0   30.90    4.10
  -3   7   0   34.60    4.30
   3   7   0   34.10    4.20
   3   7   0   33.50    3.80
   3   7   1  545.45   14.90
  -3  -7   1  568.34   14.00
  -3   7  -1  566.14   15.60
   3   7   1  589.14   15.40
   3   7  -1  565.04   15.90
   3   7  -1  571.24   14.80
  -3   7   1  562.64   14.20
  -3   7   1  586.14   15.30
  -3   7  -2   87.89    6.10
  -3  -7   2   87.49    5.50
   3   7   2   98.09    6.20
   3   7   2   90.09    5.70
   3  -7   2   91.69    6.20
   3   7  -2   82.29    6.20
  -3   7   2   96.79    5.10
  -3   7   2   90.79    5.70
   3   7   3   18.10    3.70
  -3  -7   3   24.70    4.00
  -3   7  -3   25.60    4.30
   3  -7  -3   15.30    2.90
   3   7   3   21.70    3.60
   3   7  -3   19.50    4.10
   3  -7   3   15.30    3.60
  -3   7   3   26.30    3.80
   3  -7  -4   19.40    3.70
   3   7   4   23.20    3.90
  -3   7  -4    9.00    3.10
  -3  -7   4   21.80    4.10
   3   7   4   19.80    4.00
  -3   7   4   14.90    3.40
   3  -7   4   17.60    3.90
   3   7  -4   23.60    4.60
   3   7   5    6.20    2.60
  -3  -7   5   -1.20    1.90
   3   7   5    5.50    2.90
  -3   7  -5    7.70    3.30
   3  -7  -5    3.80    2.60
   3   7  -5    2.40    3.10
  -3   7   5    3.30    2.20
   3  -7   5    4.40    2.40
  -3  -7   6    5.80    3.10
   3  -7  -6    6.20    3.20
  -3   7  -6    7.20    3.40
   3   7   6    5.90    3.20
   3   7  -6    7.70    3.80
   3  -7   6    9.10    3.40
  -3   7  -7   10.40    4.10
  -3  -7   7   23.00    5.10
   3  -7  -7   21.00    4.80
  -3  -7  -7   22.60    5.30
   3  -7   7   14.70    4.40
   3   7  -7   16.30    4.90
   3  -7  -8   24.20    5.60
  -3  -7   8   17.20    4.90
  -3   7  -8   21.70    5.90
  -3  -7  -8   15.00    4.80
   3  -7   8   21.70    5.30
   3   7  -8   26.70    6.30
   3   8   0   27.00    4.10
  -3   8   0   24.70    4.00
  -3   8   0   27.40    4.10
  -3   8  -1  104.39    6.90
   3   8   1  116.59    6.90
  -3   8  -1  115.29    7.10
   3   8   1  101.29    7.00
  -3  -8   1  104.19    5.90
  -3   8   1  113.29    6.90
   3   8  -1  105.99    7.00
  -3   8   1  106.09    6.00
  -3   8  -2   99.19    7.00
  -3  -8   2  110.59    6.50
   3   8   2  100.79    6.50
   3   8   2  101.89    6.80
   3   8  -2  110.29    7.40
  -3   8   2  110.09    6.80
   3  -8   2   93.59    6.70
  -3   8  -3   68.29    7.00
  -3  -8   3   49.50    5.60
   3   8   3   52.69    6.10
   3   8   3   60.79    6.00
   3   8  -3   52.59    6.50
  -3   8   3   58.29    5.70
   3  -8   3   56.79    6.30
   3   8   4   27.70    4.50
   3   8   4   19.70    4.30
  -3  -8   4   22.70    4.20
  -3   8  -4   20.50    4.70
   3   8  -4   13.60    4.00
  -3   8   4   17.80    3.60
   3  -8   4   23.30    4.50
   3   8   5   17.90    3.80
  -3  -8   5   12.60    3.70
  -3   8  -5   14.20    4.10
   3   8   5   13.00    4.10
  -3   8   5   15.30    3.50
   3   8  -5   23.50    4.90
   3  -8   5   13.30    4.00
  -3   8  -6    7.10    3.30
   3  -8  -6    4.30    3.20
  -3  -8   6    4.50    3.10
   3   8   6    0.30    2.30
   3   8  -6    0.90    3.10
   3  -8   6    3.70    3.10
  -3   8  -7   -3.20    2.70
  -3  -8   7   -1.70    2.80
   3  -8  -7    4.70    3.30
   3   8  -7    1.50    3.30
  -3  -8  -7    0.00    2.90
   3  -8   7   -0.20    2.40
  -3   9   0   23.70    3.90
   3   9   0   33.60    5.00
  -3   9   0   25.80    4.40
  -3   9  -1   40.50    5.30
  -3   9  -1   37.50    5.30
   3   9   1   37.00    5.10
  -3   9   1   44.70    5.70
   3   9  -1   40.40    5.40
  -3   9  -2   12.70    3.60
   3   9   2   17.60    3.70
  -3  -9   2   14.10    3.40
   3   9  -2   27.20    5.00
   3  -9   2   21.50    4.30
  -3   9   2   19.90    3.70
   3   9   3   13.00    3.50
  -3   9  -3    6.80    2.80
  -3  -9   3   12.20    3.40
  -3   9   3    9.20    3.00
   3  -9   3   11.80    3.40
   3   9  -3   12.80    4.00
   3   9   4   48.20    6.30
  -3   9  -4   41.30    6.40
   3   9   4   44.10    6.00
  -3  -9   4   48.50    6.40
   3  -9   4   52.79    7.10
  -3   9   4   46.30    6.00
   3   9  -4   44.70    6.60
  -3   9  -5   35.90    6.10
   3   9   5   44.80    6.30
   3   9   5   40.00    5.90
  -3  -9   5   40.00    6.30
  -3   9   5   35.20    5.70
   3  -9   5   34.30    5.80
   3   9  -5   31.90    5.90
  -3   9  -6   38.60    6.70
   3   9   6   38.80    5.90
  -3  -9   6   26.90    5.30
   3  -9   6   29.90    5.80
   3   9  -6   38.50    7.00
  -3   9   6   27.60    5.20
  -3  -9  -6   37.70    6.10
   3  10   0  124.89    8.50
  -3  10   0  112.09    8.00
  -3  10  -1   91.49    8.40
   3  10   1   83.79    7.90
  -3  10  -1   99.59    7.60
   3  10  -1  100.59    7.70
  -3  10   1   83.59    7.70
   3  10   2   15.20    3.90
  -3  10  -2   13.30    3.80
  -3  10   2   17.20    3.90
   3  10  -2   18.30    4.60
   3  10   3    0.60    2.10
  -3  10  -3    1.10    2.50
   3  10  -3    3.30    2.70
  -3  10   3    1.40    2.20
   3 -10   3    0.80    2.70
  -3 -10   4    5.20    2.80
  -3  10  -4    7.90    3.40
   3  10   4    7.20    3.10
   3 -10   4    7.90    3.10
   3  10  -4    5.40    3.60
  -3  10   4    7.20    3.20
  -3 -10   5   42.50    6.30
  -3  10  -5   62.59    8.10
   3  10   5   56.39    7.10
   3  10  -5   47.90    7.50
   3 -10   5   47.30    7.20
  -3  10   5   49.50    6.70
   3  11   0   36.20    5.70
  -3  11   0   42.70    6.20
   3  11   1   46.00    6.50
  -3  11  -1   49.20    7.00
   3  11  -1   52.79    7.00
  -3  11   1   50.99    6.60
   3  11   2   24.10    5.00
  -3  11  -2   25.30    5.40
   3  11  -2   18.20    4.80
  -3  11   2   22.30    4.80
   3  11   3   28.30    5.20
  -3  11  -3   27.40    5.50
   3  11  -3   19.20    5.10
   3 -11   3   25.20    5.70
  -3  11   3   28.60    5.40
  -3  11  -4    2.00    3.20
   3  11   4    8.10    3.50
   3 -11   4   -0.30    2.80
   3  11  -4    0.60    3.20
  -3  11   4    1.20    2.60
  -3  12   0    1.50    2.90
   3  12   0    9.90    3.70
  -3  12  -1   67.29    8.10
   3  12   1   72.59    8.20
   3  12  -1   69.59    8.50
  -3  12   1   57.69    7.50
   3  12   2    9.20    3.60
  -3  12  -2    8.60    4.00
  -3  12   2    6.00    3.70
   3  12  -2   14.00    5.60
  -4   0   0  206.28    5.90
   4   0   0  196.68    6.50
   4   0   1  955.20   18.20
   4   0  -1  989.10   18.70
  -4   0  -1  967.50   17.20
  -4   0   1  978.70   17.00
  -4   0  -2 2160.68   32.90
  -4   0   2 2094.59   32.40
   4   0   2 2074.09   34.20
   4   0  -2 2055.09   34.60
   4   0  -3 1180.18   23.00
  -4   0   3 1153.68   20.30
  -4   0  -3 1136.39   20.70
   4   0   3 1100.79   21.90
  -4   0   4 1165.98   21.40
   4   0  -4 1181.98   24.40
   4   0   4 1163.38   23.60
   4   0  -5  404.26   13.30
   4   0   5  396.06   12.60
  -4   0   5  391.06   10.90
   4   0   5  392.56   10.80
   4   0  -6   79.79    6.40
   4   0   6   74.89    4.90
  -4   0   6   80.69    5.10
   4   0   6   85.69    6.30
   4   0  -7   41.90    5.70
  -4   0   7   45.40    4.90
  -4   0   8  107.89    6.90
   4   0  -8  111.49    8.80
  -4   0  -8   94.29    7.40
  -4   0   9   66.29   10.40
   4   0  -9   61.19    7.90
  -4   0  -9   57.29    7.10
   4   0 -10  105.29   10.90
  -4   0 -10   96.89   10.00
   4   1   0 1663.53   23.40
  -4  -1   0 1703.23   26.20
   4   1   0 1705.53   28.50
  -4   1   0 1703.83   27.20
  -4   1   0 1697.53   23.30
   4  -1   0 1664.83   27.50
  -4  -1   1  130.89    4.50
   4  -1  -1  124.69    5.20
  -4   1  -1  125.89    5.00
   4   1   1  124.29    5.40
  -4   1  -1  133.09    3.30
  -4   1   1  126.39    4.60
   4  -1   1  126.89    4.90
  -4  -1  -1  127.99    4.30
   4   1  -1  124.29    3.80
   4   1  -1  127.99    5.50
   4   1   2  731.83   16.20
  -4  -1   2  763.92   14.50
  -4   1  -2  746.33   13.40
   4  -1  -2  740.73   16.00
  -4   1  -2  744.13   15.40
  -4   1   2  741.23   14.30
   4   1  -2  760.72   16.20
   4  -1   2  747.13   15.10
  -4  -1  -2  752.42   13.80
   4   1   3  354.36   10.80
   4  -1  -3  354.16   10.80
  -4   1  -3  386.16   10.40
  -4  -1   3  357.36    9.30
  -4   1   3  363.66    9.10
   4   1  -3  400.56   11.40
   4  -1   3  369.86   10.00
  -4  -1  -3  367.26    8.80
   4   1   4  627.34   16.20
   4  -1  -4  663.53   16.70
  -4  -1   4  622.74   14.20
   4  -1   4  660.13   15.40
  -4   1   4  631.34   13.70
   4   1  -4  622.04   16.20
   4  -1   4  663.83   14.90
  -4  -1  -4  646.54   13.50
  -4  -1   5   41.80    4.20
   4   1   5   39.80    4.70
   4  -1  -5   38.20    5.00
   4  -1   5   28.30    3.90
  -4   1   5   35.60    3.70
   4  -1   5   35.40    4.00
   4   1  -5   35.00    4.50
  -4  -1   6  192.28    8.10
   4  -1  -6  190.88    9.70
   4   1   6  215.68   10.10
   4   1  -6  183.08    9.40
   4  -1   6  188.08    8.20
  -4   1   6  204.18    7.80
   4  -1   6  211.28    9.30
   4  -1  -7   30.30    5.10
  -4  -1   7   28.00    4.00
  -4   1  -7   31.70    4.60
   4   1  -7   19.90    4.10
   4  -1   7   22.90    3.80
  -4   1   7   24.60    3.50
  -4   1  -8   90.99    7.20
   4  -1  -8  106.49    9.80
  -4  -1   8  108.39    7.20
  -4   1   8   90.99    6.30
  -4  -1  -8  101.29    8.00
   4   1  -8   87.89    8.80
  -4  -1   9   12.70    3.70
   4  -1  -9    6.80    3.90
   4   1  -9   13.40    4.20
  -4  -1  -9    2.80    3.20
   4  -1 -10   11.40    5.60
  -4  -1 -10   11.10    4.70
   4   1 -10   23.60    6.00
  -4   2   0   95.49    3.00
  -4  -2   0   97.59    3.60
   4  -2   0   87.09    4.00
   4   2   0   94.99    3.10
   4   2   0   93.09    4.80
  -4   2   0   92.59    4.40
  -4  -2   1   53.79    3.00
  -4   2  -1   56.09    3.70
  -4   2  -1   57.79    2.60
   4   2   1   53.39    2.30
   4  -2  -1   55.99    3.50
   4   2   1   62.39    4.10
  -4   2   1   56.79    2.60
   4   2  -1   52.89    3.70
  -4  -2  -1   51.59    2.50
  -4   2   1   56.09    3.20
   4  -2   1   48.90    2.90
   4   2  -1   51.09    2.80
   4  -2  -2   65.09    4.20
  -4   2  -2   65.09    4.20
  -4  -2   2   70.69    3.70
   4   2   2   75.89    3.10
  -4   2  -2   72.39    3.50
   4   2   2   73.79    4.60
   4   2  -2   75.49    3.90
  -4   2   2   70.59    3.60
   4   2  -2   75.79    4.60
  -4  -2  -2   71.69    2.90
   4  -2   2   71.59    3.70
   4  -2  -3   76.49    5.00
  -4  -2   3   75.89    4.10
  -4   2  -3   80.49    4.40
   4   2   3   76.39    5.10
   4  -2   3   75.99    4.50
  -4   2   3   73.69    3.80
   4   2  -3   78.19    4.50
   4  -2   3   82.09    4.10
   4   2  -3   72.49    4.70
  -4  -2  -3   80.09    3.30
  -4  -2   4   20.80    2.80
   4   2   4   25.70    3.90
   4  -2  -4   18.10    3.20
  -4   2  -4   28.20    3.50
   4  -2   4   22.80    2.90
   4  -2   4   32.70    4.00
   4   2  -4   19.90    3.20
  -4   2   4   31.30    3.20
  -4  -2  -4   22.50    2.30
   4  -2  -5   51.49    5.60
  -4  -2   5   44.50    4.50
   4   2   5   51.79    5.70
   4   2  -5   45.00    5.00
  -4   2   5   52.69    3.60
   4  -2   5   46.00    4.60
   4  -2   5   49.50    5.00
   4  -2  -6  283.17   12.20
   4   2   6  299.17   12.50
  -4  -2   6  298.57   10.60
   4  -2   6  299.47   10.90
   4   2  -6  307.27   12.10
  -4   2   6  310.27    9.60
  -4   2  -7   74.79    7.20
   4  -2  -7   73.29    7.70
   4   2   7   64.99    7.20
  -4  -2   7   75.99    7.00
   4  -2   7   79.99    6.10
   4   2  -7   75.19    7.40
  -4   2   7   79.99    5.20
  -4  -2   8  118.19    7.90
   4  -2  -8  105.99    9.80
   4   2  -8  108.69    8.50
   4  -2   8  118.49    7.80
  -4  -2  -8  144.09    9.70
  -4  -2   9   44.40    6.10
   4  -2  -9   29.10    5.90
   4   2  -9   42.30    6.70
  -4  -2  -9   34.40    6.00
   4   3   0   91.59    5.00
  -4   3   0   98.69    3.80
  -4   3   0   99.49    4.90
  -4  -3   0   94.29    3.70
   4  -3   0   99.59    4.10
   4   3   0  103.79    3.90
  -4   3  -1  221.28    7.80
   4   3   1  225.08    6.00
   4   3   1  225.68    8.00
  -4   3  -1  224.48    6.40
   4  -3  -1  208.98    6.80
  -4  -3   1  219.48    6.40
   4  -3   1  229.18    6.10
  -4   3   1  231.78    6.20
   4   3  -1  224.28    7.80
  -4  -3  -1  211.88    5.30
  -4   3   1  209.98    6.90
   4   3  -1  211.98    6.60
  -4   3  -2   75.89    4.80
   4   3   2   91.19    5.40
  -4  -3   2   79.49    4.00
   4  -3  -2   73.99    4.50
   4   3   2   79.39    3.60
  -4   3  -2   76.59    4.10
   4   3  -2   76.19    4.40
  -4  -3  -2   76.49    2.70
   4  -3   2   81.39    3.50
   4   3  -2   79.89    4.80
  -4   3   2   80.09    4.00
  -4   3   2   76.49    3.70
   4   3   3    0.10    0.80
  -4  -3   3   -0.20    0.90
   4   3   3    0.90    1.30
  -4   3  -3   -1.50    0.80
   4  -3  -3    0.20    1.10
   4  -3   3    0.00    0.80
  -4   3   3   -0.20    0.80
   4   3  -3    0.50    1.10
   4   3  -3   -0.30    1.10
  -4  -3  -3    0.20    0.60
   4  -3   3   -0.10    1.10
   4  -3  -4   25.10    3.70
   4   3   4   35.20    4.70
  -4  -3   4   34.30    3.90
  -4   3  -4   31.40    3.90
   4   3  -4   34.30    4.30
   4   3  -4   28.80    4.10
   4  -3   4   31.80    4.10
  -4   3   4   35.60    3.30
   4  -3   4   29.00    3.10
  -4   3  -5   17.60    3.60
   4  -3  -5   16.40    3.50
  -4  -3   5   19.80    3.20
   4   3   5   23.70    4.30
   4  -3   5   23.40    3.80
   4   3  -5   21.60    3.80
   4   3  -5   30.30    4.60
  -4   3   5   11.40    2.20
   4   3   6   57.29    6.70
  -4  -3   6   57.99    6.00
   4  -3  -6   47.80    6.00
  -4   3  -6   62.69    6.60
   4  -3   6   65.39    6.50
  -4   3   6   62.69    4.20
   4   3  -6   71.79    7.10
   4   3  -6   66.39    6.50
  -4  -3   7    5.60    2.60
  -4   3  -7    4.70    2.80
   4  -3  -7    3.20    2.90
   4   3   7    3.30    2.70
   4   3  -7    8.00    2.90
   4  -3   7    4.20    2.60
   4   3  -7    8.90    3.40
   4  -3  -8  144.09   10.50
  -4  -3   8  180.08    9.70
  -4   3  -8  149.69   10.10
  -4  -3  -8  152.18   10.10
   4  -3   8  149.29    9.20
   4   3  -8  171.98   11.00
   4   3  -8  138.09    9.40
   4  -3  -9   97.09   10.40
  -4   3  -9   78.29    9.10
  -4  -3   9  102.19    9.50
   4   3  -9   78.69    9.40
   4   3  -9   96.29    9.80
  -4  -3  -9  100.89   10.20
  -4   4   0   65.89    3.60
   4   4   0   67.39    4.50
   4  -4   0   66.19    3.30
  -4  -4   0   68.49    3.20
  -4   4   0   67.59    4.30
   4   4   0   69.89    3.70
  -4  -4   1   19.90    2.30
   4   4   1   19.70    3.00
   4  -4  -1   16.30    2.30
   4   4   1   19.70    2.40
  -4   4  -1   18.20    2.40
  -4   4  -1   26.50    3.50
   4   4  -1   24.60    3.00
   4  -4   1   20.30    1.90
  -4   4   1   21.40    2.50
  -4   4   1   19.00    2.70
  -4  -4  -1   20.90    1.90
   4   4  -1   17.90    2.80
   4  -4  -2  287.47    9.10
  -4  -4   2  288.97    8.50
   4   4   2  294.37    8.10
   4   4   2  294.27   10.30
  -4   4  -2  291.87    9.00
   4   4  -2  295.67    9.50
   4  -4   2  295.17    6.60
  -4  -4  -2  286.07    5.90
  -4   4   2  295.57    8.40
   4   4  -2  284.47    9.40
  -4   4   2  287.77    8.40
  -4  -4   3  467.75   12.20
   4   4   3  474.15   14.20
  -4   4  -3  472.25   12.90
   4   4   3  496.55   11.80
   4  -4  -3  470.55   13.20
   4   4  -3  488.15   13.60
  -4   4   3  470.55   11.90
   4  -4   3  433.96   13.10
  -4   4   3  491.85   11.50
   4   4  -3  462.65   13.00
  -4  -4   4  226.58    8.60
   4   4   4  247.18   10.50
   4  -4  -4  233.98    9.70
  -4   4  -4  239.28    9.50
   4  -4   4  211.68    9.10
  -4   4   4  225.48    7.30
   4   4  -4  223.28    8.90
   4   4  -4  222.38    9.50
  -4   4  -5   70.89    6.60
   4   4   5   58.69    6.80
  -4  -4   5   58.09    5.70
   4  -4  -5   58.89    6.10
   4  -4   5   59.19    6.10
   4   4  -5   59.59    5.90
  -4   4   5   65.19    4.00
   4   4  -5   69.39    6.90
   4  -4  -6   76.09    7.60
  -4  -4   6   78.59    5.90
   4   4   6   60.59    6.90
  -4   4  -6   53.29    6.20
   4   4  -6   62.19    6.90
   4  -4   6   58.69    6.30
   4   4  -6   68.89    6.60
  -4   4  -7   12.30    3.90
  -4  -4   7   13.60    3.40
   4   4   7   14.40    4.20
   4  -4  -7   16.50    4.20
   4  -4   7   16.40    3.70
   4   4  -7   13.40    3.50
   4   4  -7   14.80    4.30
  -4   4  -8   71.89    8.70
  -4  -4   8   62.59    7.30
   4  -4  -8   83.19    9.30
  -4  -4  -8   74.89    8.30
   4  -4   8   77.79    8.50
   4   4  -8   72.99    8.90
   4  -4  -9    5.00    4.10
  -4   4  -9    6.50    4.00
  -4  -4   9    2.70    3.30
   4  -4   9    3.40    3.20
  -4  -4  -9    3.60    3.30
   4   4  -9    0.30    3.60
   4   5   0  121.99    6.20
  -4  -5   0  123.19    4.70
  -4   5   0  130.89    6.30
   4   5   0  134.59    5.80
  -4   5   0  121.39    5.50
   4  -5   0  125.79    4.40
  -4   5  -1  231.98    8.00
  -4   5  -1  214.28    8.70
   4   5   1  241.48    7.70
   4  -5  -1  227.78    7.20
  -4  -5   1  232.28    7.30
   4   5   1  247.78    9.30
  -4   5   1  243.88    8.20
  -4  -5  -1  229.08    6.00
   4   5  -1  219.08    8.10
   4   5  -1  233.58    8.60
  -4   5   1  234.98    7.80
   4   5   2   17.80    2.50
   4  -5  -2   27.90    3.40
  -4  -5   2   27.00    3.20
   4   5   2   21.40    3.60
  -4   5  -2   25.20    3.40
   4   5  -2   27.80    3.70
  -4   5   2   27.20    3.20
  -4   5   2   17.70    2.60
   4   5  -2   21.40    3.20
  -4  -5   3  233.28    8.60
   4   5   3  235.48    8.20
   4  -5  -3  242.08    9.20
  -4   5  -3  227.58    9.10
   4   5   3  233.18   10.00
  -4   5   3  239.68    7.60
  -4   5   3  217.48    8.20
   4   5  -3  227.78    8.80
   4   5  -3  235.98    9.60
   4  -5   3  250.97    9.80
   4  -5  -4    1.30    1.80
   4   5   4    1.30    2.00
  -4  -5   4   -0.80    1.50
  -4   5  -4    0.80    1.70
   4   5   4    1.20    1.40
   4   5  -4    2.40    2.00
  -4   5   4   -0.60    1.20
   4  -5   4    2.50    1.80
  -4   5   4    3.50    1.80
   4   5  -4    3.30    1.80
   4  -5  -5   14.50    3.60
  -4   5  -5   15.70    3.80
   4   5   5   11.30    3.60
  -4  -5   5    7.80    2.50
   4  -5   5    9.60    3.00
   4   5  -5   10.70    2.90
   4   5  -5   13.00    3.60
  -4  -5   6   59.09    6.40
   4   5   6   68.29    7.80
  -4   5  -6   61.59    7.10
   4  -5  -6   68.29    7.30
   4  -5   6   74.09    7.50
   4   5  -6   74.09    9.10
   4   5  -6   73.09    7.90
  -4   5  -7    7.90    3.60
   4   5   7   16.40    4.50
  -4  -5   7    9.70    3.10
   4  -5  -7   26.20    5.50
   4   5  -7   18.20    4.70
   4  -5   7   17.20    4.10
  -4  -5   8   12.50    4.10
  -4   5  -8   12.60    4.60
   4  -5  -8   12.20    4.50
  -4  -5  -8   13.70    4.50
   4   5  -8   10.00    4.30
   4  -5   8    9.80    3.70
   4  -5  -9   11.40    4.70
  -4  -5   9   26.90    5.50
  -4   5  -9   23.70    5.80
  -4  -5  -9   25.70    6.70
   4   5  -9   25.90    6.20
   4  -5   9   22.80    5.30
   4   6   0   17.00    3.00
   4   6   0   12.60    2.50
  -4   6   0   13.00    2.70
  -4   6   0   19.30    2.90
  -4  -6   0   16.00    2.30
  -4   6  -1   87.79    5.80
  -4  -6   1   82.79    4.50
   4   6   1   81.99    4.90
   4   6   1   84.49    5.70
  -4   6  -1   87.29    5.30
  -4   6   1   80.79    5.00
   4   6  -1   85.19    5.30
   4   6  -1   84.09    5.30
  -4   6   1   86.09    5.20
   4  -6  -2  146.49    6.50
   4   6   2  157.78    6.80
   4   6   2  160.58    8.00
  -4  -6   2  154.38    6.80
  -4   6  -2  150.18    7.40
  -4   6   2  150.28    6.40
  -4   6   2  157.08    7.00
   4   6  -2  142.39    7.40
   4   6  -2  154.58    7.10
   4  -6  -3   75.09    5.40
  -4   6  -3   75.89    5.70
  -4  -6   3   80.19    5.40
   4   6   3   65.59    6.60
   4   6   3   76.49    5.10
   4   6  -3   83.49    5.50
  -4   6   3   83.79    5.40
   4   6  -3   88.39    6.30
  -4   6   3   75.19    4.40
   4  -6   3   82.09    6.10
  -4  -6   4   85.89    5.90
   4  -6  -4   91.09    6.40
   4   6   4   86.09    6.80
   4   6   4   81.39    5.60
  -4   6  -4   87.19    7.70
  -4   6   4   83.99    5.70
   4  -6   4   78.39    7.30
   4   6  -4   77.79    7.40
  -4  -6   5  153.38    8.30
   4   6   5  156.48    9.50
   4   6   5  152.68    8.00
   4  -6  -5  162.68    9.10
  -4   6  -5  146.59    8.90
   4   6  -5  131.19    8.90
  -4  -6   6  122.19    8.10
  -4   6  -6  149.88    9.60
   4   6   6  134.59    9.60
   4  -6  -6  140.99    9.30
   4   6  -6  127.79    9.30
   4  -6   6  145.89    9.20
  -4   6  -7   24.10    5.40
   4  -6  -7   33.30    5.70
   4   6   7   31.10    6.10
  -4  -6   7   30.90    5.30
   4  -6   7   38.60    6.10
   4   6  -7   33.40    6.40
   4  -6  -8    8.60    4.10
  -4   6  -8   16.60    5.30
  -4  -6   8    8.80    3.80
   4   6  -8   17.60    5.20
   4  -6   8   16.40    4.70
  -4  -6  -8   18.30    5.10
   4   7   0  584.14   15.80
  -4   7   0  618.14   16.40
   4   7   0  592.64   15.70
  -4   7   0  568.74   15.50
  -4   7  -1  279.97   10.30
   4   7   1  279.37   10.00
  -4  -7   1  276.27    9.10
  -4   7  -1  280.47   11.00
   4   7   1  276.67   10.60
   4   7  -1  284.07   10.70
  -4   7   1  268.87    9.80
   4   7  -1  288.77   10.10
  -4   7   1  274.87   10.00
   4   7   2  345.77   12.50
  -4   7  -2  342.97   12.00
   4   7   2  327.87   11.10
  -4  -7   2  342.97   11.10
  -4   7   2  350.66   10.60
  -4   7   2  351.96   11.50
   4   7  -2  336.37   12.40
  -4   7  -3   20.20    3.90
   4   7   3   25.70    4.40
   4   7   3   22.30    3.40
  -4  -7   3   34.80    4.40
   4  -7   3   29.90    4.70
   4   7  -3   25.00    4.30
  -4   7   3   24.90    3.90
   4   7   4   16.60    3.30
  -4  -7   4   20.20    3.90
   4  -7  -4   25.10    4.20
   4   7   4   20.60    4.30
  -4   7  -4   19.90    4.20
   4  -7   4   25.50    4.50
  -4   7   4   16.70    3.50
   4   7  -4   17.10    4.00
  -4   7  -5   13.70    3.80
   4   7   5    8.20    3.40
   4   7   5   12.10    3.20
   4  -7  -5   13.50    3.50
  -4   7   5   10.20    3.10
   4  -7   5   15.40    3.90
   4   7  -5   23.20    5.00
  -4   7  -6    2.20    2.70
   4  -7  -6    4.60    3.00
  -4  -7   6    6.30    3.00
   4   7   6    8.90    3.60
   4   7  -6    9.10    4.00
   4  -7   6    6.10    3.10
  -4   7  -7    3.40    3.10
  -4  -7   7    2.60    2.70
   4  -7  -7    2.90    3.40
   4  -7   7    5.70    3.60
   4   7  -7   -0.10    3.00
   4  -7  -8   15.40    5.20
  -4   7  -8   14.90    5.40
  -4  -7   8    9.20    4.00
   4   7  -8    7.50    4.40
  -4  -7  -8   22.70    5.50
   4  -7   8   20.40    5.30
   4   8   0   49.00    5.50
  -4   8   0   30.20    4.30
  -4   8   0   37.20    4.80
   4   8   1  110.99    6.80
   4   8   1  129.99    7.50
  -4   8  -1  116.19    7.50
  -4   8  -1  124.19    7.30
  -4   8   1  113.19    6.70
   4   8  -1  125.69    7.50
  -4   8   1  120.39    7.20
  -4   8  -2   98.29    6.80
   4   8   2   87.49    6.60
  -4  -8   2   88.59    5.90
   4   8   2   85.29    6.10
  -4   8  -2   94.59    8.40
  -4   8   2   86.89    6.10
   4   8  -2   87.39    6.60
   4   8   3  179.28    9.70
  -4  -8   3  184.88    9.00
  -4   8  -3  171.88    9.40
   4   8   3  168.28    8.40
  -4   8   3  171.68    8.70
   4   8  -3  188.48   10.10
   4  -8   3  167.08    9.40
  -4  -8   4   12.10    3.50
  -4   8  -4   12.20    3.70
   4   8   4   13.10    3.80
   4   8   4   16.40    3.50
  -4   8   4   10.70    3.20
   4  -8   4   10.80    3.30
   4   8  -4   14.40    3.90
   4   8   5   63.89    6.70
   4   8   5   44.70    6.60
  -4  -8   5   49.99    6.60
  -4   8  -5   34.10    5.80
  -4   8   5   47.50    6.20
   4   8  -5   45.80    6.50
   4  -8   5   46.70    6.40
  -4   8  -6   85.19    9.00
   4   8   6   99.69   10.10
  -4  -8   6   76.29    8.30
   4   8  -6  103.19   10.60
   4  -8   6   99.39   10.20
   4  -8  -7   38.50    6.50
  -4  -8   7   47.70    7.30
  -4   8  -7   45.00    7.30
   4   8  -7   38.80    7.20
   4  -8   7   41.20    7.20
  -4   9   0  120.19    7.50
  -4   9   0  101.99    7.00
   4   9   0  110.29    7.50
  -4   9  -1   19.70    4.10
   4   9   1   20.30    4.10
  -4   9  -1   15.30    3.50
   4   9  -1   16.50    3.70
  -4   9   1   19.30    3.90
  -4   9  -2   46.30    6.00
   4   9   2   51.89    5.90
  -4   9  -2   39.90    5.40
  -4   9   2   46.30    5.60
   4   9  -2   47.90    6.30
  -4   9  -3   46.60    6.00
  -4  -9   3   42.90    5.70
   4   9   3   62.79    6.50
   4   9   3   52.59    6.50
  -4   9   3   49.60    6.00
   4   9  -3   56.49    7.20
   4   9   4   35.80    5.90
   4   9   4   37.70    5.40
  -4  -9   4   32.80    5.20
  -4   9  -4   38.50    6.20
   4   9  -4   34.10    5.90
   4  -9   4   34.80    5.90
  -4   9   4   23.90    4.50
   4   9   5   22.70    5.00
   4   9   5   24.40    4.60
  -4  -9   5   23.40    4.80
  -4   9  -5   22.60    5.10
   4   9  -5   30.60    5.80
   4  -9   5   26.70    5.50
  -4   9   5   22.80    4.60
  -4   9  -6   25.40    5.60
   4   9   6   32.10    5.60
  -4  -9   6   29.90    5.50
   4   9   6   35.70    6.50
   4  -9   6   33.50    6.20
   4   9  -6   39.80    7.10
   4  10   0   58.89    6.70
  -4  10   0   55.49    6.40
  -4  10  -1   14.00    3.90
  -4  10  -1   11.70    3.50
   4  10   1   15.20    3.70
   4  10  -1   18.90    4.30
  -4  10   1   17.90    4.00
   4  10   2    5.40    2.80
  -4  10  -2    2.70    2.80
  -4  10  -2    6.40    2.90
  -4  10   2    4.10    2.60
   4  10  -2   10.20    3.60
  -4  10  -3    5.80    3.30
   4  10   3   -1.70    1.90
  -4  10  -3    2.10    2.60
   4  10  -3    4.80    3.20
  -4  10   3    1.60    2.30
  -4  10  -4   50.09    7.00
  -4 -10   4   68.29    8.00
   4  10   4   45.70    6.30
   4 -10   4   49.00    7.20
   4  10  -4   57.89    7.60
  -4  10   4   53.19    6.70
   4  10   5   39.30    6.00
  -4  10  -5   27.90    5.80
  -4 -10   5   31.80    6.00
  -4  10   5   49.50    6.80
   4 -10   5   54.39    7.80
   4  10  -5   40.50    6.80
  -4  11   0    2.60    2.70
   4  11   0    6.80    3.20
  -4  11  -1   20.90    4.70
   4  11   1   23.70    4.90
   4  11  -1   25.60    5.20
  -4  11   1   12.80    3.80
  -4  11  -2   35.20    6.00
   4  11   2   55.09    6.80
  -4  11  -2   40.70    6.10
  -4  11   2   36.90    5.80
   4  11  -2   50.59    6.90
  -4  11  -3    6.50    3.50
   4  11   3    5.80    3.20
  -4  11  -3    7.20    3.40
  -4  11   3    7.10    3.40
   4  11  -3    5.70    3.70
   4  11   4   62.49    7.70
  -4  11  -4   51.89    7.70
  -4  11   4   57.19    7.40
   4  11  -4   65.09    8.40
   4  12   0   47.20    6.70
  -4  12   0   36.00    6.10
  -5   0   0    0.30    1.00
   5   0   0   -0.40    0.90
   5   0  -1   -1.00    0.90
  -5   0   1    0.90    1.00
  -5   0  -1    0.10    0.90
   5   0   1    1.20    1.10
   5   0   2   -0.20    1.10
  -5   0  -2   -0.80    0.80
  -5   0   2   -0.60    1.00
   5   0  -2   -0.20    1.00
   5   0  -3    0.00    1.20
   5   0   3    0.40    1.10
  -5   0   3   -0.40    0.90
  -5   0  -3    0.80    1.00
  -5   0   4   -0.30    1.10
   5   0  -4   -0.60    1.20
  -5   0  -4    0.20    1.00
   5   0   4   -0.70    1.20
  -5   0   5    1.60    1.50
   5   0  -5    2.50    2.00
  -5   0  -5    0.00    1.20
   5   0   5    2.70    1.80
   5   0   6   -3.30    1.40
  -5   0   6   -1.20    1.10
  -5   0  -6   -1.60    1.20
   5   0  -6    3.00    2.20
   5   0  -7   -1.60    2.30
  -5   0   7    0.40    1.70
   5   0   7   -0.40    2.00
   5   0  -8   -2.30    2.40
  -5   0   8    1.70    2.10
  -5   0  -8   -0.70    2.00
  -5   0  -9    2.90    3.00
   5   0  -9   -2.60    2.90
  -5   0   9    3.30    2.40
  -5  -1   0   -0.20    0.80
   5  -1   0    0.10    1.00
   5   1   0   -0.50    1.00
  -5   1   0   -0.20    0.80
  -5  -1   1    5.10    1.40
  -5   1  -1    8.20    0.80
   5   1   1    7.80    2.00
  -5   1  -1    6.10    1.70
   5  -1  -1    9.00    2.10
   5   1  -1    7.00    2.00
   5   1  -1    9.50    1.30
  -5  -1  -1    7.90    1.60
  -5   1   1   10.10    2.00
   5  -1   1    9.60    2.10
  -5   1  -2   35.50    3.50
   5   1   2   34.40    3.80
  -5   1  -2   37.10    2.20
  -5  -1   2   40.60    3.00
   5  -1  -2   37.30    4.00
   5   1  -2   36.00    2.60
  -5   1   2   40.80    3.50
  -5  -1  -2   39.40    2.70
   5  -1   2   37.60    3.80
   5   1  -2   33.70    3.80
  -5   1  -3  193.48    6.20
  -5  -1   3  197.58    6.90
  -5   1  -3  196.58    7.60
   5   1   3  189.28    8.10
   5  -1  -3  189.28    8.10
  -5  -1  -3  188.98    6.40
  -5   1   3  204.38    6.90
   5   1  -3  205.18    8.40
   5  -1   3  191.08    7.50
   5  -1  -4  357.76   12.30
  -5  -1   4  364.86   10.50
   5   1   4  351.16   12.00
  -5   1  -4  359.76   11.10
   5   1  -4  370.26   12.40
  -5   1   4  368.46   10.20
   5  -1   4  370.06   11.30
  -5  -1  -4  353.76    9.70
   5  -1  -5  358.66   13.10
   5   1   5  360.26   12.90
  -5  -1   5  375.86   11.30
   5   1  -5  372.06   13.10
   5  -1   5  359.06   11.90
  -5  -1  -5  348.27   10.40
  -5   1   5  366.76   10.70
  -5  -1   6  139.29    7.20
   5   1   6  134.99    8.30
   5  -1  -6  121.89    8.20
   5  -1   6  141.39    7.20
  -5   1   6  136.59    6.70
   5   1  -6  140.59    8.60
   5  -1   6  133.79    7.70
   5   1   7  120.39    8.50
  -5  -1   7  120.49    7.00
   5  -1  -7  124.29    9.00
  -5   1   7  122.29    6.80
   5   1  -7  129.09    8.90
   5  -1   7  104.29    7.80
  -5  -1   8    8.50    3.20
  -5   1  -8    5.70    2.60
   5  -1  -8    4.30    3.40
   5   1  -8   14.60    4.40
  -5   1   8   10.80    3.10
   5  -1  -9    1.30    3.30
  -5  -1   9    2.80    2.50
   5   1  -9    1.80    3.10
  -5  -1  -9    1.10    3.00
  -5   2   0  585.24   13.40
  -5   2   0  587.24    9.90
   5   2   0  594.44   14.50
   5  -2   0  564.44   13.00
  -5  -2   0  583.24   11.80
   5   2   0  572.24   10.00
   5   2   1  518.35   13.70
   5  -2  -1  491.85   12.60
  -5   2  -1  540.55    9.70
   5   2   1  528.65    9.30
  -5   2  -1  531.05   13.00
  -5  -2   1  527.65   11.50
   5   2  -1  524.25   13.50
  -5  -2  -1  545.65   10.90
   5   2  -1  547.85   10.60
   5  -2   1  526.05   12.10
  -5   2   1  543.45    9.90
  -5   2   1  495.05   12.00
  -5  -2   2  309.77    8.60
   5   2   2  307.37   10.50
  -5   2  -2  326.37    7.90
  -5   2  -2  326.07   10.10
   5  -2  -2  313.77   10.00
  -5   2   2  329.57    9.10
  -5  -2  -2  324.47    7.70
   5   2  -2  311.47    8.40
   5  -2   2  304.67    8.90
   5   2  -2  318.87   10.40
   5   2   3  101.79    6.20
  -5   2  -3  118.99    6.20
  -5   2  -3  106.89    4.90
  -5  -2   3  109.99    5.20
   5  -2  -3  114.29    6.40
  -5   2   3  102.69    4.80
   5   2  -3  105.49    6.10
  -5  -2  -3  108.39    4.20
   5  -2   3  113.29    5.30
   5   2  -3  114.39    5.60
  -5   2  -4   38.30    4.50
  -5  -2   4   32.00    3.60
  -5   2  -4   36.80    4.00
   5   2   4   26.70    4.00
   5  -2  -4   44.00    5.10
   5  -2   4   32.10    3.70
  -5  -2  -4   32.00    3.30
  -5   2   4   29.20    3.30
   5   2  -4   33.70    4.40
   5   2  -4   30.70    3.90
   5   2   5  153.68    8.70
  -5   2  -5  167.98    7.70
  -5  -2   5  152.98    7.10
   5  -2  -5  163.18    8.90
   5  -2   5  163.18    7.50
   5   2  -5  159.88    8.50
  -5   2   5  169.28    6.90
   5  -2   5  167.68    7.90
   5  -2  -6  137.09    8.70
   5   2   6  130.79    8.40
  -5  -2   6  127.49    7.10
  -5   2  -6  130.59    7.60
   5   2  -6  141.79    8.60
   5  -2   6  140.79    7.50
  -5   2   6  126.39    6.30
   5  -2   6  132.39    7.50
  -5  -2   7   86.59    7.60
  -5   2  -7   69.79    7.30
   5   2   7   69.19    7.60
   5  -2  -7   73.89    8.00
   5   2  -7   82.89    8.00
  -5   2   7   80.29    5.40
   5  -2   7   79.29    7.30
   5  -2  -8   19.30    5.10
  -5   2  -8   17.50    4.40
  -5  -2   8   11.00    3.40
   5   2  -8   24.80    5.30
  -5  -2   9    5.90    3.10
  -5   2  -9    2.50    3.30
   5  -2  -9    0.50    3.80
  -5  -2  -9   -1.00    2.50
   5   2  -9   -1.00    2.80
   5   3   0  166.98    7.30
  -5   3   0  170.88    5.00
  -5   3   0  183.68    7.10
  -5  -3   0  163.28    5.40
   5   3   0  173.58    5.20
   5  -3   0  173.78    6.30
  -5   3  -1  563.54   14.20
   5   3   1  565.74   14.90
   5  -3  -1  577.24   13.40
  -5   3  -1  585.34   11.60
   5   3   1  588.64   11.10
  -5  -3   1  585.64   12.40
  -5   3   1  583.84   13.50
  -5   3   1  580.04   11.40
   5   3  -1  573.84   14.70
   5  -3   1  576.34   12.40
  -5  -3  -1  581.94   11.20
   5   3  -1  570.54   12.20
   5   3   2  136.89    4.70
  -5   3  -2  140.49    5.40
  -5   3  -2  140.99    6.80
  -5  -3   2  142.89    5.70
   5   3   2  133.79    7.00
   5  -3  -2  139.79    6.50
   5   3  -2  124.49    6.60
   5  -3   2  139.19    5.40
  -5   3   2  141.69    5.80
  -5  -3  -2  136.19    4.30
  -5   3   2  128.29    4.90
   5   3  -2  128.39    5.60
  -5   3  -3    2.30    1.70
   5  -3  -3    4.50    2.00
  -5  -3   3    2.00    1.40
  -5   3  -3    3.30    1.40
   5   3   3    3.80    2.00
   5   3  -3    6.90    2.30
  -5  -3  -3    2.90    1.60
  -5   3   3    6.60    1.80
   5  -3   3    3.70    1.40
   5   3  -3    4.10    1.70
  -5  -3   4    7.90    2.30
   5  -3  -4    9.00    2.70
  -5   3  -4    6.30    2.10
   5   3   4    7.10    2.60
   5   3  -4    9.80    2.80
   5   3  -4    6.30    2.30
   5  -3   4   12.00    2.20
  -5   3   4   12.50    2.30
  -5  -3   5  142.39    7.20
  -5   3  -5  130.79    7.10
   5  -3  -5  135.79    8.20
   5   3   5  129.59    8.30
  -5   3   5  144.79    6.30
   5   3  -5  134.89    7.80
   5  -3   5  153.88    7.90
   5   3  -5  129.99    7.70
   5   3   6   36.90    5.50
   5  -3  -6   31.30    5.20
  -5   3  -6   30.60    5.00
  -5  -3   6   28.90    4.40
   5   3  -6   31.10    4.80
   5   3  -6   33.90    5.20
   5  -3   6   33.50    4.80
  -5   3   6   33.10    3.80
  -5  -3   7   59.89    6.80
   5   3   7   49.40    6.80
   5  -3  -7   57.59    7.20
  -5   3  -7   57.39    7.00
   5   3  -7   51.19    6.70
   5  -3   7   47.90    6.00
   5   3  -7   37.30    5.60
  -5   3  -8    7.10    3.50
   5  -3  -8    7.00    3.80
  -5  -3   8    2.90    2.40
   5   3  -8    0.60    2.90
   5  -3   8    7.20    3.20
   5   3  -8   10.30    3.80
   5  -3  -9   15.20    4.90
  -5   3  -9   20.00    6.50
  -5  -3  -9   12.80    4.40
   5   3  -9   20.40    5.40
   5   3  -9   16.00    5.10
  -5   4   0   14.90    2.80
   5   4   0   13.30    2.80
  -5  -4   0   15.10    2.00
   5  -4   0   15.70    2.20
   5   4   0   16.80    2.20
  -5   4   0   12.30    1.90
  -5   4  -1  144.39    5.50
   5   4   1  137.59    7.10
   5   4   1  144.69    5.20
   5  -4  -1  137.99    5.80
  -5   4  -1  133.19    6.70
  -5  -4   1  153.88    5.70
   5   4  -1  135.99    5.70
   5  -4   1  141.09    5.10
  -5  -4  -1  132.29    4.50
   5   4  -1  147.29    7.10
  -5   4   1  149.59    5.40
  -5   4   1  140.99    6.20
  -5  -4   2   31.50    3.40
  -5   4  -2   39.70    4.70
  -5   4  -2   30.10    3.30
   5   4   2   26.80    4.10
   5   4   2   33.60    3.10
   5  -4  -2   26.50    3.40
  -5   4   2   26.60    3.20
  -5   4   2   30.90    3.10
   5   4  -2   18.70    3.10
  -5  -4  -2   32.90    2.30
   5   4  -2   35.50    3.90
   5   4   3   31.90    3.30
   5   4   3   34.50    4.80
  -5   4  -3   32.60    3.80
  -5  -4   3   39.50    4.20
   5  -4  -3   31.20    4.00
  -5   4  -3   34.50    4.70
  -5   4   3   26.40    3.20
   5   4  -3   31.10    4.20
  -5   4   3   30.70    3.40
   5   4  -3   26.50    3.70
   5  -4  -4   61.39    6.00
  -5   4  -4   73.29    5.30
  -5  -4   4   70.19    5.00
   5   4   4   66.09    6.70
   5   4  -4   73.59    5.70
   5  -4   4   77.49    6.90
  -5   4   4   75.39    4.50
   5   4  -4   66.19    6.00
  -5  -4   5   29.90    4.20
   5   4   5   27.60    4.70
  -5   4  -5   32.50    4.70
   5  -4  -5   29.00    4.70
  -5   4   5   32.30    3.80
   5   4  -5   38.10    5.10
   5   4  -5   36.50    5.00
   5  -4   5   31.50    4.80
   5   4   6   38.10    6.00
   5  -4  -6   32.50    5.10
  -5  -4   6   37.80    5.00
  -5   4  -6   33.50    5.00
   5   4  -6   35.80    5.10
   5  -4   6   45.90    5.80
   5   4  -6   42.00    6.10
  -5   4  -7   25.50    4.90
  -5  -4   7   24.40    4.70
   5   4   7   27.60    5.50
   5  -4  -7   31.90    5.80
   5  -4   7   34.20    5.50
   5   4  -7   33.10    6.00
   5   4  -7   35.00    5.50
  -5  -4   8   32.60    5.40
   5  -4  -8   33.10    6.20
  -5   4  -8   39.70    6.40
   5   4  -8   33.70    5.60
   5   4  -8   31.70    6.10
   5  -4   8   44.90    6.40
  -5  -4   9    1.70    2.80
   5  -4  -9    3.20    3.90
   5  -4   9    5.40    3.60
   5   4  -9    5.30    4.00
  -5  -4  -9    6.50    4.20
   5   5   0   28.20    3.90
   5   5   0   33.60    3.50
  -5  -5   0   34.10    2.60
  -5   5   0   31.40    4.10
  -5   5   0   33.60    3.40
   5   5   1   22.10    2.80
   5   5   1   23.10    3.70
   5  -5  -1   18.90    2.60
  -5  -5   1   25.10    2.90
  -5   5  -1   24.90    3.10
  -5   5  -1   19.60    3.30
  -5   5   1   18.40    2.60
   5   5  -1   19.30    3.30
   5   5  -1   28.10    3.40
  -5   5   1   20.60    3.20
  -5  -5  -1   20.90    2.20
  -5  -5   2    4.90    1.70
  -5   5  -2    4.80    2.20
  -5   5  -2    6.90    2.00
   5   5   2    3.10    2.00
   5  -5  -2    4.00    1.70
   5   5   2    3.70    1.40
   5   5  -2    3.60    1.80
  -5   5   2    5.60    1.80
   5   5  -2    4.10    1.80
  -5   5   2    4.20    1.50
   5   5   3   49.90    5.80
  -5  -5   3   59.09    5.40
  -5   5  -3   44.00    4.70
   5   5   3   41.60    4.00
   5  -5  -3   46.50    4.90
  -5   5  -3   37.40    5.00
   5   5  -3   47.60    5.10
  -5   5   3   47.30    4.60
  -5   5   3   49.50    4.40
   5   5  -3   47.90    5.10
  -5  -5   4   72.99    5.40
   5   5   4   59.19    4.50
  -5   5  -4   70.09    6.50
   5  -5  -4   77.69    6.20
   5   5   4   66.19    6.80
   5   5  -4   70.59    6.60
   5  -5   4   59.69    6.30
   5   5  -4   76.29    7.20
  -5   5   4   69.09    4.50
  -5  -5   5   31.80    4.60
   5   5   5   27.40    5.10
  -5   5  -5   24.30    4.30
   5  -5  -5   29.80    4.90
   5   5  -5   23.40    4.50
   5  -5   5   27.30    4.60
   5   5  -5   23.10    4.20
  -5  -5   6   17.10    3.80
   5   5   6   27.40    5.10
   5  -5  -6   16.20    4.10
  -5   5  -6   17.10    4.30
   5   5  -6   17.30    3.90
   5  -5   6   20.20    4.30
   5   5  -6   26.00    5.10
  -5  -5   7   29.80    5.10
   5   5   7   28.90    5.60
  -5   5  -7   27.90    5.60
   5  -5  -7   25.80    5.30
   5  -5   7   28.30    5.40
   5   5  -7   36.90    6.40
   5  -5  -8    0.40    3.30
  -5  -5   8   -0.10    2.60
  -5   5  -8   -3.60    2.50
   5   5  -8    3.20    3.00
   5  -5   8   -2.90    2.20
  -5  -6   0    6.20    1.70
   5   6   0    3.90    1.70
  -5   6   0    3.60    1.50
   5   6   0    5.20    2.10
  -5   6   0    1.80    1.70
  -5   6  -1  143.29    6.70
   5   6   1  142.89    7.80
   5   6   1  127.59    6.20
  -5   6  -1  144.29    7.70
  -5  -6   1  136.89    6.00
   5   6  -1  147.09    7.00
   5   6  -1  143.49    7.40
  -5   6   1  138.79    6.90
  -5   6   1  141.19    6.40
  -5   6  -2  137.49    8.00
   5   6   2  136.69    8.00
   5   6   2  144.39    6.50
  -5   6  -2  135.99    6.90
  -5  -6   2  129.09    6.40
   5   6  -2  132.79    7.30
  -5   6   2  163.18    6.90
  -5   6   2  149.09    6.80
   5   6  -2  140.19    7.40
  -5   6  -3  237.68    9.70
   5  -6  -3  248.08    9.70
  -5   6  -3  226.08   10.70
   5   6   3  235.98   10.90
   5   6   3  240.58    8.90
  -5  -6   3  233.78    9.30
   5   6  -3  223.18   10.00
   5   6  -3  243.98   10.00
  -5   6   3  244.88    9.30
  -5   6   3  244.98    8.50
   5   6   4  281.67   10.10
   5   6   4  244.18   11.80
   5  -6  -4  274.67   11.20
  -5  -6   4  263.47   10.60
  -5   6  -4  258.57   10.80
   5   6  -4  259.07   11.50
  -5   6   4  244.48    9.90
   5  -6   4  259.17   11.50
   5   6  -4  244.68   10.40
  -5  -6   5  156.68    8.70
  -5   6  -5  140.39    8.80
   5   6   5  158.48   10.00
   5  -6  -5  151.48    9.20
   5  -6   5  154.68    9.40
   5   6  -5  143.99    9.20
   5  -6  -6   38.30    5.80
  -5  -6   6   42.40    5.80
  -5   6  -6   39.10    5.90
   5   6   6   52.99    7.30
   5   6  -6   48.40    6.80
   5  -6   6   53.49    6.90
  -5  -6   7   17.80    4.30
   5  -6  -7   19.50    5.00
   5   6   7   15.90    4.90
  -5   6  -7   16.10    4.80
   5  -6   7   12.60    3.90
   5   6  -7   21.40    5.50
  -5  -6   8   10.70    3.90
  -5   6  -8   15.60    5.10
   5  -6  -8    9.00    4.50
   5   6  -8    6.40    4.40
   5  -6   8   12.90    4.60
  -5   7   0  412.16   12.50
   5   7   0  395.66   13.50
  -5   7   0  406.66   13.40
   5   7   0  402.76   12.50
  -5  -7   1  589.34   14.80
  -5   7  -1  603.34   16.10
  -5   7  -1  624.44   17.90
   5   7   1  624.34   17.80
   5   7   1  620.24   15.90
   5   7  -1  594.94   16.40
   5   7  -1  621.84   17.00
  -5   7   1  598.74   16.20
  -5   7   1  607.84   15.80
  -5   7  -2  191.18    9.80
  -5  -7   2  159.28    7.50
   5   7   2  178.18    9.30
   5   7   2  159.58    7.50
  -5   7  -2  155.58    8.00
  -5   7   2  158.18    7.50
   5   7  -2  170.08    8.30
   5   7  -2  155.18    8.30
  -5   7   2  161.98    7.50
  -5  -7   3  118.99    6.90
  -5   7  -3  104.99    7.70
   5   7   3  100.69    7.60
  -5   7  -3  128.09    7.60
   5   7   3  115.99    6.70
   5   7  -3  125.09    7.80
  -5   7   3  126.69    7.10
  -5   7  -4    1.90    2.30
  -5  -7   4    4.60    2.40
   5   7   4    6.70    2.40
   5   7   4    3.30    2.80
   5  -7   4    2.20    2.80
  -5   7   4    4.60    2.20
   5   7  -4    4.90    2.70
   5  -7  -5    4.60    2.80
   5   7   5    2.00    2.00
  -5  -7   5    0.70    2.10
  -5   7  -5    5.20    2.80
   5   7   5   -0.50    2.40
   5  -7   5    3.10    2.40
   5   7  -5    1.00    2.60
  -5  -7   6   42.30    6.10
  -5   7  -6   40.40    6.20
   5  -7  -6   44.90    6.20
   5   7   6   35.30    6.60
   5  -7   6   37.80    6.10
   5   7  -6   41.20    6.90
   5   7   7   12.10    4.50
  -5   7  -7   13.90    4.50
   5  -7  -7   12.40    4.60
  -5  -7   7    8.80    3.80
   5  -7   7   12.20    4.60
   5   7  -7   11.90    4.70
   5   8   0  289.37   11.20
   5   8   0  281.17   11.50
  -5   8   0  293.47   11.60
  -5   8   0  277.67   10.70
   5   8   1    0.70    1.90
   5   8   1    0.40    1.70
  -5   8  -1    5.60    2.60
  -5   8  -1    3.50    2.20
  -5   8   1    1.60    1.90
  -5   8   1    1.80    1.80
   5   8  -1   -1.10    1.60
   5   8   2   27.90    4.10
  -5   8  -2   30.90    4.40
  -5   8  -2   32.90    5.20
  -5  -8   2   28.80    4.30
   5   8   2   35.20    5.10
   5   8  -2   29.20    4.70
  -5   8   2   31.20    4.50
  -5   8  -3   66.39    6.70
  -5   8  -3   82.09    8.50
   5   8   3   84.69    8.30
  -5  -8   3   81.49    7.30
   5   8   3   80.79    6.00
   5   8  -3   82.09    8.00
  -5   8   3   81.69    6.10
   5   8   4    3.40    2.40
  -5   8  -4    2.10    2.40
   5   8   4    3.00    2.60
  -5  -8   4    0.30    2.20
   5   8  -4    8.70    3.50
  -5   8   4    2.70    2.10
  -5   8  -5   15.80    4.50
  -5  -8   5   29.80    5.30
   5   8   5   32.30    6.00
   5   8   5   25.10    4.60
   5  -8   5   25.60    5.10
  -5   8   5   27.40    4.90
   5   8  -5   34.30    6.00
   5   8   6    0.00    2.80
  -5  -8   6    4.10    3.10
  -5   8  -6    7.50    3.60
   5   8  -6    8.30    3.60
   5  -8   6    1.00    2.80
   5   8   7    8.60    4.40
  -5  -8   7    0.30    2.60
  -5   8  -7    6.70    3.50
   5  -8   7    3.20    3.80
   5   8  -7    7.10    4.30
   5   9   0   91.89    7.00
  -5   9   0  107.59    7.40
  -5   9   0   97.29    6.80
  -5   9  -1    4.40    2.60
  -5   9  -1    2.50    2.30
   5   9   1    3.00    2.20
   5   9  -1    1.10    2.10
  -5   9   1    2.30    2.00
  -5   9  -2    0.70    2.10
   5   9   2   -2.60    2.00
   5   9   2    0.40    1.80
  -5   9  -2   -0.50    2.00
   5   9  -2    0.20    2.00
  -5   9   2   -0.20    1.90
  -5   9  -3   43.50    6.30
  -5  -9   3   54.89    6.30
   5   9   3   36.80    5.20
   5   9   3   39.20    6.00
  -5   9  -3   55.09    6.70
  -5   9   3   49.20    6.10
   5   9  -3   45.90    6.20
  -5   9  -4    7.80    3.50
  -5  -9   4    6.50    3.30
   5   9   4    8.30    3.20
   5   9   4    4.30    3.00
  -5   9  -4    4.90    3.30
  -5   9   4    3.80    2.70
   5   9  -4    3.30    2.90
  -5  -9   5   11.60    3.70
   5   9   5   13.50    3.70
  -5   9  -5   10.00    4.00
   5   9   5    7.50    4.00
  -5   9   5    9.00    3.50
   5   9  -5   13.30    4.50
   5  -9   5   16.50    4.70
  -5   9  -6   32.40    6.40
  -5  -9   6   34.30    6.50
   5  -9   6   25.10    5.60
   5   9  -6   30.10    6.30
  -5  10   0    7.00    2.90
   5  10   0    9.20    3.30
  -5  10  -1   35.80    5.50
  -5  10  -1   32.30    5.60
   5  10   1   30.60    4.90
  -5  10   1   31.70    4.90
   5  10  -1   37.80    5.80
   5  10   2   53.49    6.40
  -5  10  -2   52.89    7.10
  -5  10  -2   34.90    5.60
   5  10  -2   47.90    6.40
  -5  10   2   63.69    7.20
   5  10   3   11.30    3.50
  -5  10  -3   10.00    3.90
  -5  10  -3   12.50    3.70
   5  10  -3   10.80    3.90
  -5  10   3    8.10    3.20
  -5  10  -4    6.70    4.00
   5  10   4   10.80    3.70
  -5  10  -4    6.10    3.50
   5  10  -4    8.80    3.80
  -5  10   4    5.60    3.10
  -5  10  -5    8.30    4.00
   5  10   5    9.80    3.40
   5  10   5   -1.10    3.60
  -5 -10   5    7.10    3.70
   5  10  -5    6.00    3.80
  -5  10   5    6.50    3.20
   5  11   0    8.20    3.30
  -5  11   0    9.10    3.50
  -5  11  -1   50.19    6.70
   5  11   1   53.09    6.60
  -5  11   1   49.10    6.70
   5  11  -1   44.10    6.50
  -5  11  -2   74.59    8.50
   5  11   2   64.49    7.20
  -5  11  -2   67.89    7.90
  -5  11   2   78.19    8.10
   5  11  -2   69.89    8.10
  -5  11  -3   31.60    5.70
   5  11   3   42.40    6.10
  -5  11  -3   33.80    6.40
   5  11  -3   52.89    7.60
  -5  11   3   30.80    5.40
  -6   0   0  113.09    5.10
   6   0   0  112.69    5.90
   6   0  -1  241.08    9.10
  -6   0  -1  265.97    8.10
   6   0   1  238.18    8.90
   6   0  -1  252.77    5.20
  -6   0   1  248.18    7.80
   6   0   2   36.40    4.10
  -6   0   2   27.70    3.20
  -6   0  -2   30.50    3.40
   6   0  -2   33.40    4.20
  -6   0  -3  194.08    7.40
   6   0   3  198.68    8.40
  -6   0   3  175.28    6.90
   6   0  -3  182.28    8.50
   6   0  -4   31.50    4.40
  -6   0  -4   37.70    4.10
   6   0   4   47.40    5.20
  -6   0   4   35.40    3.90
   6   0  -5   18.80    4.00
   6   0   5   19.40    3.70
  -6   0   5   33.00    4.20
  -6   0  -5   19.80    3.20
  -6   0   6   56.39    5.60
   6   0  -6   58.19    6.80
   6   0   6   40.60    5.50
   6   0  -7    7.00    3.50
  -6   0   7    9.00    2.70
   6   0   7    4.60    2.80
  -6   0   8   60.99    6.60
   6   0  -8   85.19    9.30
  -6   0  -9   25.30    5.10
  -6   0   9   28.60    5.00
   6   0  -9   16.90    5.50
   6   1   0   58.49    4.50
  -6   1   0   57.29    3.80
  -6  -1   0   57.49    3.50
   6  -1   0   60.29    4.30
   6   1   1   54.89    5.20
   6  -1  -1   47.50    4.60
  -6  -1   1   49.30    3.30
  -6   1  -1   45.00    3.50
   6  -1   1   43.20    4.40
  -6   1   1   44.30    3.40
  -6  -1  -1   51.79    3.30
   6   1  -1   36.70    4.20
   6   1  -1   45.40    2.10
  -6   1  -2  162.88    6.80
   6   1   2  171.98    7.90
   6  -1  -2  158.88    7.50
  -6  -1   2  169.48    6.40
  -6  -1  -2  154.98    5.90
   6   1  -2  169.88    7.90
   6  -1   2  161.18    6.90
  -6   1   2  180.58    6.60
   6   1  -2  158.18    5.40
   6   1   3  143.29    7.50
   6  -1  -3  142.09    7.40
  -6   1  -3  146.79    6.80
  -6  -1   3  154.48    6.40
   6  -1   3  136.39    6.70
   6   1  -3  146.69    7.60
  -6   1   3  145.09    6.20
  -6  -1  -3  135.39    5.70
  -6  -1   4   44.20    4.50
  -6   1  -4   44.30    4.90
   6  -1  -4   29.30    4.50
   6   1   4   31.80    4.40
  -6   1   4   40.20    4.20
   6  -1   4   36.50    4.40
  -6  -1  -4   42.50    4.10
   6   1  -4   32.80    4.60
  -6   1  -5  556.04   15.50
   6  -1  -5  533.95   17.20
  -6  -1   5  548.85   14.70
   6   1   5  554.44   17.00
   6   1  -5  560.64   17.40
  -6   1   5  530.75   14.10
   6  -1   5  549.65   15.90
  -6  -1   6   24.70    3.90
  -6   1  -6   27.90    4.40
   6   1   6   22.50    4.30
   6  -1  -6   30.40    5.10
   6   1  -6   20.90    4.20
   6  -1   6   26.70    4.30
  -6   1   6   33.40    4.40
   6  -1  -7  115.69   10.40
   6   1   7   92.59    8.70
  -6  -1   7  100.19    6.90
  -6   1   7   98.79    6.40
   6   1  -7  133.99    9.40
   6  -1   7  100.69    7.60
   6   1   8   22.50    5.30
  -6  -1   8   11.60    3.50
   6  -1  -8   11.30    4.30
  -6   1   8   11.90    3.30
   6   1  -8   16.90    4.60
  -6  -1   9    2.70    2.70
   6  -1  -9    6.70    3.90
  -6  -1  -9    2.10    3.30
   6   1  -9    3.40    3.60
  -6  -2   0  129.59    5.10
   6   2   0  131.79    6.80
  -6   2   0  126.89    6.00
   6  -2   0  130.79    6.00
  -6   2   0  127.99    3.60
   6   2   0  123.69    3.60
   6   2   1  472.55   13.60
  -6   2  -1  458.85   12.50
   6  -2  -1  458.65   12.70
  -6  -2   1  459.65   11.00
  -6   2   1  449.26   11.90
   6   2  -1  465.15   13.40
   6  -2   1  458.45   12.00
  -6  -2  -1  449.76   10.40
   6   2  -1  446.86    9.30
   6  -2  -2  174.08    7.70
  -6  -2   2  162.48    6.40
  -6   2  -2  160.08    7.20
   6   2   2  162.18    8.00
   6  -2   2  170.78    6.90
   6   2  -2  160.18    5.80
   6   2  -2  169.08    8.10
  -6   2   2  152.78    6.50
  -6  -2  -2  173.58    5.70
   6  -2  -3   90.09    6.10
   6   2   3   91.39    6.40
  -6  -2   3   93.69    5.10
  -6   2  -3   95.29    5.80
   6   2  -3   93.59    5.10
   6  -2   3   96.19    5.40
  -6  -2  -3   92.19    4.30
  -6   2   3   90.69    5.00
   6   2  -3   94.99    6.30
   6   2   4  286.57   11.50
  -6  -2   4  277.07    9.60
   6  -2  -4  274.77   11.20
  -6   2  -4  282.47   10.70
   6   2  -4  283.37   11.30
  -6   2   4  290.17    9.40
   6  -2   4  280.67    9.90
   6   2  -4  281.37    9.90
  -6  -2   5   79.29    5.50
   6   2   5   69.29    6.90
  -6   2  -5   77.09    6.00
   6  -2  -5   66.19    6.90
  -6   2   5   65.39    4.80
   6   2  -5   81.99    5.90
   6  -2   5   69.39    5.20
   6   2  -5   77.89    7.30
   6   2   6   94.19    7.60
  -6  -2   6   90.69    6.20
  -6   2  -6   92.19    6.80
   6  -2  -6   90.09    8.50
  -6   2   6   89.19    5.70
   6   2  -6   98.19    7.60
   6   2  -6   99.09    7.10
  -6  -2   7  363.26   13.30
  -6   2  -7  353.46   14.00
   6  -2  -7  380.76   16.10
   6   2   7  380.26   15.90
  -6   2   7  358.86   12.20
   6   2  -7  383.76   15.60
   6  -2  -8    6.50    3.90
   6   2   8    7.00    3.70
  -6  -2   8   10.40    3.10
   6   2  -8    1.70    3.30
   6   2  -8    5.00    3.20
   6  -2  -9   36.80    6.90
  -6  -2   9   36.10    5.80
  -6  -2  -9   39.10    6.70
   6   2  -9   34.30    6.40
   6   2  -9   34.80    6.90
  -6   3   0   54.69    4.20
   6  -3   0   49.80    3.80
   6   3   0   62.89    5.00
  -6  -3   0   57.99    3.50
  -6   3   0   49.90    2.60
   6   3   0   49.40    2.70
  -6   3  -1  147.79    4.80
  -6   3  -1  160.38    7.30
  -6  -3   1  162.18    6.10
   6   3   1  158.18    4.60
   6   3   1  152.48    7.60
   6  -3  -1  159.88    7.00
   6   3  -1  155.38    5.40
  -6   3   1  160.28    5.00
  -6  -3  -1  160.78    5.50
   6   3  -1  156.48    7.70
   6  -3   1  154.08    6.30
  -6   3   1  145.29    6.50
  -6   3  -2  136.59    7.00
  -6   3  -2  119.89    5.60
   6  -3  -2  125.89    6.60
  -6  -3   2  115.39    5.50
   6   3   2  132.29    4.90
   6   3   2  145.49    7.70
   6   3  -2  118.59    6.90
  -6  -3  -2  127.09    4.70
   6  -3   2  134.09    5.80
   6   3  -2  145.19    5.90
  -6   3   2  134.79    6.10
   6   3   3   47.50    5.60
   6  -3  -3   38.70    4.60
  -6  -3   3   37.40    3.90
  -6   3  -3   46.90    5.30
   6  -3   3   50.19    3.80
   6   3  -3   52.89    4.90
  -6   3   3   45.80    4.40
   6   3  -3   41.10    5.00
   6   3   4   45.70    5.80
   6  -3  -4   50.09    6.00
  -6   3  -4   56.59    6.10
  -6  -3   4   42.10    4.50
  -6   3   4   45.70    4.50
   6   3  -4   49.70    5.20
   6   3  -4   37.10    4.90
   6   3   5   35.70    5.30
  -6   3  -5   33.70    5.10
   6  -3  -5   35.10    5.10
  -6  -3   5   32.60    4.20
   6   3  -5   33.10    4.70
   6   3  -5   31.20    4.80
  -6   3   5   36.80    4.10
   6   3   6   37.40    5.80
  -6  -3   6   31.70    4.50
   6  -3  -6   37.00    5.90
  -6   3   6   37.70    4.40
   6   3  -6   25.70    4.70
   6   3  -6   30.30    5.20
  -6  -3   7   17.00    3.80
   6  -3  -7   15.50    4.40
   6   3   7   13.10    4.40
   6   3  -7   21.70    4.80
   6   3  -7   17.70    4.20
   6   3   8    4.30    3.80
   6  -3  -8   11.90    4.20
  -6  -3   8    4.70    2.50
   6   3  -8    2.20    3.00
   6   3  -8    7.80    3.70
  -6  -3   9   -0.20    2.40
   6  -3  -9    5.40    5.30
  -6  -3  -9    3.40    3.90
   6   3  -9    2.90    3.60
   6   3  -9    5.50    3.40
  -6   4   0   76.99    5.10
   6   4   0   84.19    4.00
  -6   4   0   75.29    3.80
   6  -4   0   83.69    4.60
  -6  -4   0   70.49    3.90
   6   4   0   75.09    5.60
  -6   4  -1  213.58    6.70
   6   4   1  222.38    9.50
  -6  -4   1  206.28    7.20
   6  -4  -1  206.48    7.90
   6   4   1  216.78    6.40
  -6   4  -1  220.78    9.00
  -6  -4  -1  213.88    6.40
   6   4  -1  210.18    7.00
  -6   4   1  207.18    8.20
  -6   4   1  214.38    6.60
   6  -4   1  211.88    7.20
   6   4  -1  202.48    9.00
  -6  -4   2   30.20    3.50
   6   4   2   28.60    4.50
   6   4   2   28.50    2.80
   6  -4  -2   33.20    4.00
  -6   4  -2   32.90    3.40
  -6   4  -2   24.70    3.80
  -6   4   2   27.00    2.90
  -6   4   2   27.80    3.50
   6   4  -2   32.50    3.80
   6   4  -2   33.40    4.50
   6  -4  -3   48.90    5.30
   6   4   3   39.50    5.30
  -6   4  -3   38.60    5.30
  -6   4  -3   40.60    5.30
  -6  -4   3   39.90    4.20
   6   4   3   35.70    3.60
   6   4  -3   47.90    4.80
   6   4  -3   35.10    4.70
  -6   4   3   38.50    4.20
  -6  -4   4   65.69    5.00
   6  -4  -4   78.69    7.30
  -6   4  -4   85.59    7.90
   6   4   4   63.69    6.80
   6   4  -4   87.89    6.60
   6   4  -4   76.99    6.80
  -6   4   4   78.79    4.90
   6   4   5  131.29    9.10
  -6   4  -5  127.29    8.40
  -6  -4   5  132.19    7.50
   6  -4  -5  152.38    9.10
   6   4  -5  139.09    8.30
  -6   4   5  130.79    6.60
   6   4  -5  130.29    8.40
   6   4   6   14.20    4.00
   6  -4  -6   20.10    4.60
  -6  -4   6   18.50    3.90
   6   4  -6   16.10    4.10
   6   4  -6   17.60    4.00
  -6   4   6   15.40    3.30
   6  -4  -7   12.90    4.30
   6   4   7    4.10    3.50
  -6  -4   7    7.30    3.00
   6   4  -7    9.10    3.70
   6  -4   7   13.10    3.80
   6   4  -7    5.20    3.40
  -6  -4   8   12.90    4.10
   6   4   8    3.80    3.70
   6  -4  -8   10.90    4.70
   6   4  -8    7.50    3.60
   6  -4   8    6.60    3.70
   6   4  -8   20.90    5.10
   6   5   0   28.40    4.30
  -6   5   0   23.20    2.90
  -6  -5   0   27.50    3.00
  -6   5   0   22.90    3.70
   6   5   0   27.10    3.20
   6   5   1   90.79    6.60
  -6   5  -1   91.49    6.10
   6  -5  -1   88.39    5.10
   6   5   1   80.79    4.40
  -6   5  -1   91.09    4.80
  -6  -5   1   84.59    4.70
  -6   5   1   84.79    5.50
   6   5  -1   85.99    6.10
   6   5  -1   93.59    5.10
  -6   5   1   84.99    4.60
   6   5   2   23.30    4.30
  -6   5  -2   16.70    3.50
  -6  -5   2   15.70    2.80
  -6   5  -2   27.40    3.40
   6   5   2   23.90    2.90
   6  -5  -2   22.30    3.50
   6   5  -2   26.80    3.60
  -6   5   2   25.70    3.30
  -6   5   2   21.60    3.30
   6   5  -2   21.50    3.70
  -6   5  -3  164.88    8.40
   6  -5  -3  177.08    8.40
   6   5   3  161.88    6.70
  -6   5  -3  164.88    9.00
  -6  -5   3  159.18    7.40
   6   5   3  157.28    9.00
   6   5  -3  145.69    7.60
   6   5  -3  167.28    8.60
  -6   5   3  157.18    7.00
  -6   5   3  154.08    7.10
  -6   5  -4   31.00    4.90
   6   5   4   48.40    6.30
  -6  -5   4   33.70    4.40
   6  -5  -4   27.60    4.60
  -6   5   4   42.90    4.60
   6   5  -4   35.90    4.90
   6   5  -4   38.60    5.10
   6  -5  -5   18.70    4.20
   6   5   5   15.20    3.90
  -6   5  -5   15.80    4.20
  -6  -5   5   15.90    3.40
  -6   5   5   18.70    3.10
   6   5  -5   12.30    3.40
   6   5  -5   25.80    4.80
   6   5   6   10.80    4.30
  -6  -5   6   11.20    3.40
   6  -5  -6    9.60    3.90
   6   5  -6   11.40    3.60
   6   5  -6    6.50    2.90
   6   5   7   22.10    5.60
   6  -5  -7   21.80    5.20
  -6  -5   7   33.60    5.60
   6  -5   7   23.90    5.30
   6   5  -7   23.80    5.20
   6   5   8    5.50    3.80
   6  -5  -8   -1.80    3.40
  -6  -5   8    5.90    3.10
   6   5  -8    5.30    3.70
   6  -5   8    4.30    3.50
   6   6   0   68.09    4.60
  -6   6   0   66.19    4.50
   6   6   0   69.79    6.80
  -6   6   0   61.69    6.00
   6   6   1  172.68    9.20
  -6  -6   1  159.48    6.70
  -6   6  -1  164.88    8.70
   6   6   1  164.88    7.00
  -6   6  -1  157.58    7.00
  -6   6   1  171.78    8.00
   6   6  -1  176.58    7.60
   6   6  -1  166.28    8.60
  -6   6   1  161.88    6.90
  -6  -6   2   79.79    5.20
  -6   6  -2   89.09    8.10
   6   6   2   77.09    4.80
  -6   6  -2   84.49    5.50
   6   6   2   94.89    7.10
  -6   6   2   85.09    5.60
   6   6  -2   88.39    6.40
   6   6  -2   84.49    5.80
  -6   6   2   74.09    5.00
  -6   6  -3  333.87   14.70
   6   6   3  352.66   14.00
   6   6   3  344.37   11.00
  -6   6  -3  350.56   14.00
   6  -6  -3  353.76   12.40
  -6  -6   3  361.26   12.00
   6   6  -3  343.17   13.00
   6   6  -3  374.66   12.90
  -6   6   3  353.96   11.40
  -6   6   3  369.76   11.40
   6  -6  -4  131.89    8.10
   6   6   4  127.09    8.80
  -6   6  -4  103.79    8.00
  -6  -6   4  115.29    7.10
  -6   6   4  119.79    7.00
  -6   6   4  125.19    6.30
   6   6  -4  130.69    8.20
   6   6  -4  113.29    7.60
  -6   6  -5   55.09    7.10
   6   6   5   58.29    7.50
   6  -6  -5   58.99    6.80
  -6  -6   5   76.29    7.60
   6   6  -5   52.39    6.70
   6   6  -5   67.99    7.50
   6   6   6   26.20    5.50
   6  -6  -6   26.30    5.20
  -6  -6   6   28.10    5.00
   6   6  -6   32.60    5.80
  -6  -6   7   20.50    4.70
   6   6   7   15.50    4.90
   6  -6  -7   12.30    4.70
   6   6  -7   17.90    5.10
   6  -6   7   20.80    5.10
   6  -6  -8   13.50    5.20
   6   6  -8    8.90    4.70
   6   7   0   31.20    4.20
   6   7   0   30.90    4.80
  -6   7   0   29.70    3.80
  -6   7   0   54.09    6.20
   6   7   1  243.28   11.30
  -6   7  -1  235.98    9.40
   6   7   1  263.67    9.60
  -6   7  -1  237.48   11.00
   6   7  -1  223.78   10.40
   6   7  -1  255.17    9.90
  -6   7   1  228.48    9.00
  -6   7   1  260.37   10.50
   6   7   2   85.89    8.30
  -6  -7   2   75.49    5.40
  -6   7  -2   63.09    6.70
  -6   7  -2   74.49    5.50
   6   7   2   68.59    5.00
   6   7  -2   69.49    6.70
   6   7  -2   80.59    7.00
  -6   7   2   66.59    5.10
  -6   7   2   76.79    5.60
  -6   7  -3   23.70    4.90
   6   7   3   21.80    3.70
   6   7   3   20.30    4.30
  -6  -7   3   20.00    3.70
  -6   7   3   18.40    3.50
   6   7  -3   14.90    3.70
   6   7  -3   16.20    4.20
  -6   7   3   23.30    3.70
  -6   7  -4   63.59    7.40
   6   7   4   81.19    8.60
  -6  -7   4   80.59    7.60
  -6   7   4   80.59    7.30
   6   7  -4   79.79    8.10
  -6   7  -5   -0.20    2.30
   6   7   5    3.20    3.00
  -6  -7   5   -0.60    1.80
   6   7  -5   -0.80    2.30
   6  -7  -6    2.80    3.20
   6   7   6    8.60    3.90
  -6  -7   6   -0.60    2.50
   6   7  -6    5.80    3.50
  -6  -7   7   45.70    6.70
   6  -7  -7   35.50    6.80
   6   7   7   34.90    6.90
   6   7  -7   44.70    7.50
  -6   8   0   23.20    3.80
   6   8   0   16.90    3.80
  -6   8   0   21.90    4.20
   6   8   0   26.30    4.10
  -6   8  -1   34.20    5.40
   6   8   1   28.90    4.30
   6   8   1   29.00    4.80
  -6   8  -1   32.10    4.40
  -6   8   1   36.40    4.70
  -6   8   1   31.90    4.80
   6   8  -1   34.70    4.80
   6   8   2    6.80    2.30
  -6   8  -2   10.00    3.20
   6   8   2    8.00    3.10
  -6   8  -2   11.50    3.70
  -6   8   2    5.20    2.50
   6   8  -2    8.40    2.90
  -6   8   2    7.00    2.50
   6   8   3   11.30    4.50
  -6  -8   3   12.40    3.30
  -6   8  -3   18.50    4.50
   6   8   3    9.90    3.60
  -6   8   3    9.80    2.80
   6   8  -3   14.10    3.60
   6   8   4    7.10    3.30
  -6   8  -4    3.60    3.10
  -6  -8   4    6.80    2.90
   6   8  -4    3.20    2.90
  -6   8   4    1.70    2.00
  -6   8  -5    0.50    2.40
  -6  -8   5   -1.80    2.30
   6   8   5    1.90    3.10
   6   8  -5    0.50    2.80
   6   8   6   18.70    5.40
  -6  -8   6   13.20    4.20
   6   8  -6   23.10    5.20
   6   9   0   51.39    5.90
  -6   9   0   47.80    6.30
  -6   9   0   57.19    6.20
  -6   9  -1   10.90    3.30
  -6   9  -1   14.90    3.80
   6   9   1   19.40    3.90
  -6   9   1   11.80    3.30
  -6   9   1   12.60    3.20
   6   9  -1   16.20    3.80
   6   9   2   19.90    4.60
   6   9   2   19.80    4.10
  -6   9  -2   18.50    4.50
  -6   9   2   14.70    3.50
   6   9  -2   16.20    3.90
   6   9   3   38.00    6.10
  -6   9  -3   43.00    6.70
  -6   9   3   33.10    4.90
   6   9  -3   36.10    5.60
   6   9   4    6.50    3.10
  -6   9  -4    0.30    2.90
  -6  -9   4    4.40    2.90
  -6   9   4    6.10    2.90
   6   9  -4    2.30    2.90
   6   9   5    9.30    4.20
  -6   9  -5    4.10    3.00
  -6  -9   5    5.30    3.30
  -6   9   5   10.90    3.60
   6   9  -5   12.90    4.40
  -6  10   0    2.50    2.60
  -6  10   0   -0.30    2.70
   6  10   0    3.00    2.50
  -6  10  -1    4.30    3.20
   6  10   1    3.60    2.80
   6  10  -1    5.60    3.00
  -6  10   1    3.90    2.60
  -6  10  -2   39.90    6.50
   6  10  -2   46.80    6.50
  -6  10   2   38.40    5.60
  -6  10  -3   80.59    8.90
   6  10  -3  111.69   10.20
  -6  10   3   89.39    8.30
  -6  10  -4   -0.60    2.60
  -6  10   4   -1.30    2.30
   6  10  -4   -1.90    2.50
   6  11   0    2.50    3.70
   6  11  -1   27.20    5.30
  -6  11  -2    2.90    3.20
   6  11  -2   13.00    4.40
  -6  11   2    5.80    3.70
  -7   0   0   -0.70    0.90
   7   0   0    1.20    1.50
   7   0   1    0.60    1.30
   7   0  -1   -1.50    1.30
  -7   0  -1   -0.30    1.10
  -7   0   1    0.70    1.30
  -7   0  -2   -0.20    1.00
  -7   0   2    0.20    1.10
   7   0  -2   -1.30    1.30
   7   0   2   -0.30    1.20
  -7   0   3   -0.20    1.30
  -7   0  -3   -0.40    1.10
   7   0  -3    0.00    1.50
   7   0   3    0.70    1.60
  -7   0   4   -0.50    1.50
   7   0  -4    0.60    1.70
   7   0   4   -1.00    1.60
  -7   0  -4    2.50    1.70
   7   0   5   -0.30    1.90
   7   0  -5    0.60    2.00
  -7   0  -5   -1.80    1.40
  -7   0   5   -3.00    1.40
  -7   0   6    2.40    1.80
   7   0   6    0.70    2.00
   7   0  -6    3.10    2.60
  -7   0   7    7.40    2.60
   7   0  -7   12.80    4.30
   7   0   7    9.00    3.50
   7   0  -8    3.70    3.60
   7   0   8   -0.60    2.40
  -7   0   8   -1.60    1.90
  -7   0   9    1.90    2.60
   7   0  -9   -4.10    5.00
   7  -1   0   48.00    5.10
  -7   1   0   33.00    3.70
  -7  -1   0   38.10    3.60
   7   1   0   32.00    4.30
  -7  -1   1   42.70    4.00
  -7   1  -1   35.40    4.10
   7  -1  -1   43.70    5.10
   7   1   1   36.30    4.60
   7  -1   1   37.80    4.30
  -7   1   1   33.50    3.70
   7   1  -1   33.10    4.20
  -7  -1  -1   39.10    3.70
   7   1   2   83.49    5.90
   7  -1  -2   83.39    6.00
  -7  -1   2   84.59    4.80
  -7   1  -2   93.39    5.50
   7  -1   2   87.59    5.70
   7   1  -2   81.29    6.10
  -7   1   2   83.59    4.90
  -7  -1  -2   99.19    5.00
   7   1   3  158.88    8.50
   7  -1  -3  144.79    8.10
  -7  -1   3  154.88    7.00
  -7   1  -3  149.09    7.30
   7  -1   3  154.48    7.70
  -7  -1  -3  153.28    6.50
   7   1  -3  147.99    8.40
  -7   1   3  145.69    6.80
  -7  -1   4  453.85   13.10
   7   1   4  491.45   15.70
  -7   1  -4  458.65   13.80
   7  -1  -4  455.85   15.40
  -7   1   4  463.75   13.10
  -7  -1  -4  449.26   12.30
   7   1  -4  469.95   15.70
   7  -1   4  452.65   14.30
  -7   1  -5   23.50    4.00
  -7  -1   5   35.70    4.60
   7   1   5   24.80    4.50
   7  -1  -5   31.80    5.40
   7   1  -5   28.70    4.90
   7  -1   5   23.60    4.10
  -7   1   5   23.20    3.80
   7  -1  -6  151.38   10.10
  -7  -1   6  174.88    8.60
   7   1   6  177.88   10.10
  -7   1  -6  178.58    9.00
   7   1  -6  176.88   10.40
   7  -1   6  169.28    9.30
  -7   1   6  167.08    8.20
  -7  -1   7   37.60    5.30
   7  -1  -7   35.40    6.30
   7   1   7   26.40    5.00
   7  -1   7   25.90    5.60
  -7   1   7   25.00    4.30
   7   1  -7   25.70    5.30
   7   1   8   22.40    5.10
   7  -1  -8   19.10    5.10
  -7  -1   8   20.00    4.20
   7   1  -8   22.60    5.50
  -7   1   8   27.70    4.80
   7   2   0  220.48    9.60
   7  -2   0  237.18    8.90
  -7   2   0  218.98    8.40
  -7  -2   0  230.58    7.50
  -7  -2   1   72.49    4.40
   7  -2  -1   79.79    5.50
   7   2   1   65.39    5.30
  -7   2  -1   72.39    4.90
   7   2  -1   74.09    5.70
  -7   2   1   81.29    5.00
   7  -2   1   70.29    4.90
  -7  -2  -1   66.79    4.00
   7   2   2  267.57   11.10
   7  -2  -2  273.57   10.60
  -7   2  -2  280.27   10.30
  -7  -2   2  262.57    8.90
   7   2  -2  291.27   11.40
  -7  -2  -2  287.27    8.40
   7  -2   2  276.97    9.80
  -7   2   2  275.67    9.50
  -7   2  -3  191.98    8.70
  -7  -2   3  195.28    7.80
   7   2   3  194.98    9.60
   7  -2  -3  193.58    9.30
  -7  -2  -3  198.68    7.00
   7  -2   3  189.88    8.30
  -7   2   3  191.08    7.80
   7   2  -3  177.18    9.20
  -7   2  -4  128.89    7.50
   7  -2  -4  131.09    8.20
  -7  -2   4  121.29    6.60
   7   2   4  123.39    8.10
   7   2  -4  127.49    8.10
  -7   2   4  122.09    6.40
   7  -2   4  134.69    7.10
  -7  -2   5   88.49    6.10
   7   2   5   87.59    8.30
  -7   2  -5   98.09    6.90
   7  -2  -5   77.39    7.70
   7   2  -5   84.59    8.00
  -7   2   5   87.59    5.70
   7  -2   5   95.89    6.50
   7  -2  -6   12.80    4.10
  -7  -2   6   11.50    3.10
   7   2   6    7.10    3.10
  -7   2  -6    9.30    3.30
   7   2  -6    9.70    3.50
  -7   2   6   11.90    3.00
   7  -2  -7   44.50    7.00
  -7   2  -7   52.69    6.60
  -7  -2   7   35.50    4.90
   7   2   7   39.10    6.30
   7   2  -7   48.60    6.90
  -7   2   7   41.60    5.20
   7  -2  -8   14.40    5.00
  -7  -2   8   17.80    4.30
   7   2   8   16.30    4.60
  -7   2   8    8.10    3.40
   7   2  -8   23.10    5.30
  -7   3   0  179.68    7.90
  -7  -3   0  179.68    6.60
   7   3   0  206.38    9.50
   7  -3   0  180.28    7.70
   7  -3  -1  139.59    7.00
  -7   3  -1  133.89    7.10
   7   3   1  131.39    7.70
  -7  -3   1  120.59    5.70
  -7  -3  -1  131.29    5.50
   7  -3   1  140.29    6.60
   7   3  -1  139.19    7.90
  -7   3   1  137.69    6.80
   7  -3  -2   56.89    5.60
  -7  -3   2   56.69    4.20
  -7   3  -2   47.50    5.10
   7   3   2   51.09    5.90
  -7  -3  -2   56.29    3.50
   7  -3   2   53.89    4.20
  -7   3   2   46.80    4.70
   7   3  -2   55.99    6.10
  -7  -3   3    0.30    1.50
   7  -3  -3   -0.10    1.70
  -7   3  -3    1.70    1.90
   7   3   3    3.00    2.20
   7   3  -3    0.50    1.80
  -7   3   3    0.80    1.60
   7  -3   3    1.30    1.80
  -7  -3   4    8.60    2.40
  -7   3  -4    9.10    2.80
   7   3   4   12.40    3.50
   7  -3  -4    6.10    2.90
  -7   3   4    5.10    2.30
   7   3  -4   10.90    3.30
   7  -3  -5  107.69    8.10
   7   3   5  114.09    8.40
  -7   3  -5  115.69    7.90
  -7  -3   5   96.49    6.50
  -7   3   5  114.49    6.50
   7   3  -5  129.49    8.60
   7  -3  -6   51.19    6.80
  -7   3  -6   40.40    5.90
   7   3   6   62.79    7.70
  -7  -3   6   54.99    6.00
  -7   3   6   48.00    5.10
   7   3  -6   59.69    7.20
  -7   3  -7    2.30    2.70
  -7  -3   7    6.80    2.70
   7  -3  -7    8.00    3.90
   7   3   7    9.60    3.60
  -7   3   7    6.30    2.60
   7   3  -7    5.20    3.30
   7   3   8   13.70    4.30
  -7  -3   8    5.40    3.10
   7  -3  -8   14.30    5.10
   7   3  -8   13.70    4.50
  -7   4   0    2.80    2.00
   7  -4   0    4.30    1.90
   7   4   0    4.00    2.30
  -7  -4   0    2.20    1.40
   7  -4  -1   29.90    3.90
  -7   4  -1   23.30    3.90
   7   4   1   26.50    4.40
  -7  -4   1   29.80    3.60
  -7  -4  -1   27.30    3.00
   7   4  -1   22.10    3.90
  -7   4   1   25.00    3.80
   7  -4  -2    2.90    1.90
   7   4   2    2.20    2.10
  -7  -4   2    2.80    1.80
  -7   4  -2    3.20    2.00
   7   4  -2    3.50    2.30
  -7   4   2    6.10    2.10
   7  -4  -3  107.19    7.00
   7   4   3  102.79    7.40
  -7   4  -3   99.69    7.00
  -7  -4   3   96.19    5.80
   7   4  -3  101.49    7.20
  -7   4   3   93.19    5.90
  -7   4  -4   49.40    6.30
   7  -4  -4   51.29    6.30
  -7  -4   4   47.60    5.30
   7   4   4   50.09    6.40
  -7   4   4   49.50    4.90
   7   4  -4   52.69    6.70
   7   4   5    1.60    2.70
  -7   4  -5    8.30    3.10
   7  -4  -5    7.80    3.30
  -7  -4   5    7.30    2.60
  -7   4   5    4.40    2.30
   7   4  -5    5.50    2.90
  -7  -4   6   25.00    4.30
  -7   4  -6   28.20    5.40
   7  -4  -6   24.50    5.30
   7   4   6   32.60    5.90
   7   4  -6   32.40    5.90
  -7   4   6   27.50    4.10
  -7   4  -7   11.00    4.00
   7   4   7   18.20    4.70
   7  -4  -7   11.90    4.50
  -7  -4   7   11.30    3.50
   7   4  -7   16.20    4.60
  -7   4  -8   19.40    4.80
   7  -4  -8   36.00    6.90
   7   4   8   24.90    5.80
  -7  -4   8   28.60    5.40
   7   4  -8   27.70    5.90
  -7   5   0   12.40    2.90
  -7  -5   0   12.60    2.30
   7   5   0   20.40    4.10
   7   5   1   18.20    3.90
  -7  -5   1   20.50    3.00
  -7   5  -1   10.00    3.00
  -7   5   1   16.30    3.30
   7   5  -1   14.10    3.30
  -7  -5   2   25.60    3.60
  -7   5  -2   10.50    3.30
   7   5   2   15.00    3.90
   7  -5  -2   23.20    3.80
   7   5  -2   18.00    4.00
  -7   5   2   23.00    3.80
  -7  -5   3   32.90    4.30
  -7   5  -3   30.00    5.10
   7   5   3   43.60    6.30
   7  -5  -3   41.10    5.10
  -7   5   3   38.10    4.70
   7   5  -3   31.60    5.00
  -7   5  -4  101.09    7.80
  -7  -5   4   94.39    6.30
   7   5   4  104.39    8.20
   7  -5  -4   89.59    7.00
   7   5  -4   99.99    9.00
  -7   5   4   83.19    5.70
   7  -5  -5   26.70    5.10
  -7   5  -5   37.50    5.70
   7   5   5   37.70    6.30
  -7  -5   5   36.90    5.10
   7   5  -5   28.90    5.30
  -7   5   5   31.00    4.20
  -7   5  -6   51.99    7.00
  -7  -5   6   64.69    7.30
   7   5   6   76.49    8.70
   7  -5  -6   67.89    8.00
   7   5  -6   59.09    7.30
  -7  -5   7   -3.70    1.90
  -7   5  -7    0.90    2.50
   7  -5  -7    1.70    3.10
   7   5   7   -0.70    2.80
   7   5  -7   -1.40    2.70
  -7   5  -8    6.40    3.90
   7  -5  -8   13.90    4.80
  -7   6   0  280.47   11.50
   7   6   0  285.37   12.30
   7   6   1  106.09    7.90
  -7   6  -1  119.99    7.90
  -7  -6   1  116.69    6.00
   7   6  -1  114.79    7.80
  -7   6   1  105.19    6.80
  -7   6  -2  306.87   12.90
  -7  -6   2  322.97   10.90
   7   6   2  333.57   13.90
   7   6  -2  313.97   12.90
  -7   6   2  309.67   11.40
   7   6   3   41.40    6.40
  -7   6  -3   49.70    6.40
  -7  -6   3   55.69    5.80
  -7   6   3   39.20    4.60
   7   6  -3   44.00    6.00
  -7   6  -4   85.59    8.90
  -7  -6   4   98.89    6.80
   7   6   4  109.19   10.30
   7  -6  -4   94.29    7.40
  -7   6   4  112.09    6.40
   7   6  -4  113.39    8.10
  -7  -6   5   30.30    5.10
   7   6   5   20.10    4.90
  -7   6  -5   16.80    4.40
   7  -6  -5   37.30    6.00
   7   6  -5   25.60    4.80
  -7  -6   6   27.10    5.10
   7  -6  -6   36.70    6.30
  -7   6  -6   27.40    5.90
   7   6   6   29.20    6.00
   7  -6  -7   63.39    8.40
   7   6   7   60.99    8.50
  -7   6  -7   55.39    8.00
  -7  -6   7   59.09    7.30
   7   7   0  357.46   14.40
  -7   7   0  366.16   13.70
  -7   7  -1  112.19    7.90
   7   7   1  126.29    8.90
  -7   7   1  137.49    8.00
   7   7  -1  132.99    8.70
  -7   7  -2  145.89    9.10
  -7  -7   2  139.59    7.50
   7   7   2  139.19    9.40
  -7   7   2  148.99    8.00
   7   7  -2  122.69    8.40
  -7   7  -3   94.49    9.10
   7   7   3   97.89    9.20
  -7  -7   3   94.39    6.60
   7   7  -3  107.49    8.00
  -7   7   3   80.29    5.90
  -7  -7   4   91.19    6.90
  -7   7  -4   92.59    9.30
   7   7   4   85.49    9.10
   7   7   5   20.40    5.20
  -7   7  -5   21.70    5.00
  -7  -7   5   22.80    4.60
  -7  -7   6   24.10    5.20
   7   7   6   15.10    4.90
  -7   7  -6   13.80    4.30
   7   8   0   -0.10    2.10
  -7   8   0    3.00    2.40
  -7   8  -1    8.10    3.40
   7   8   1    6.50    3.30
  -7   8   1    7.90    2.90
   7   8  -1    9.30    3.50
  -7   8  -2   49.20    6.50
   7   8   2   56.29    7.40
  -7   8   2   58.89    6.20
  -7   8  -3   15.00    4.20
   7   8   3   19.30    4.70
  -7  -8   3   22.80    4.10
   7   8   4    7.40    3.80
  -7  -8   4    4.30    2.60
  -7   8  -4    2.00    2.90
   7   8   5    2.10    3.10
  -7  -8   5    1.20    2.40
  -7   8  -5    4.20    3.20
   7   8   6    5.20    3.80
  -7  -8   6    3.20    2.90
  -7   9   0  111.29    8.30
   7   9   1    1.60    2.90
  -7   9  -1    0.00    2.60
  -7   9   1    3.30    2.60
  -7   9  -2   44.20    6.40
   7   9   2   60.89    7.80
   7   9   3    1.00    2.70
  -7   9  -3    4.60    3.40
   7   9   4   12.90    4.50
  -7  -9   4   20.00    4.50
  -7   9  -4   14.20    4.60
  -7  10   0   -0.50    2.50
  -7  10  -1    8.50    3.70
  -7  10  -2   12.20    4.40
  -7  10  -3   -1.30    2.80
   8   0   0  512.55   15.60
  -8   0   0  508.75   13.60
   8   0  -1  352.66   12.80
   8   0   1  377.16   13.00
  -8   0   1  363.66   10.90
  -8   0  -1  359.16   11.10
  -8   0   2  421.66   12.20
  -8   0  -2  402.26   12.10
   8   0  -2  419.66   14.50
   8   0   2  410.26   13.90
   8   0  -3   90.29    7.10
   8   0   3  125.69    7.80
  -8   0   3   88.79    5.60
  -8   0  -3  106.49    6.10
   8   0  -4   58.09    6.70
   8   0   4   63.49    6.80
  -8   0  -4   50.29    5.20
  -8   0   4   52.09    5.20
  -8   0   5  137.99    7.60
   8   0   5  118.29    8.20
   8   0  -5  134.49    9.20
   8   0  -6   62.99    7.90
   8   0   6   61.49    7.30
  -8   0   6   68.99    6.80
  -8   0   7   23.20    4.30
   8   0   7   24.00    4.90
   8   0  -7   23.80    5.40
   8   0   8   15.90    6.80
   8   0  -8   16.00    5.20
  -8   0   8   10.10    3.40
   8   1   0   17.20    3.50
   8  -1   0   13.90    3.20
  -8  -1   0   16.50    2.90
  -8   1   0   19.40    3.20
   8  -1  -1   49.10    5.50
  -8   1  -1   37.50    4.30
   8   1   1   43.50    5.30
  -8  -1   1   49.80    4.80
   8  -1   1   49.70    5.30
  -8   1   1   56.49    5.40
   8   1  -1   56.19    6.30
  -8  -1  -1   42.10    4.30
  -8   1  -2   19.90    3.30
   8   1   2   27.40    4.40
   8  -1  -2   25.90    4.40
  -8  -1   2   24.50    3.60
  -8  -1  -2   19.30    3.10
   8  -1   2   21.30    3.80
  -8   1   2   18.50    3.40
   8   1  -2   27.00    4.60
   8   1   3  578.54   17.70
  -8  -1   3  559.54   15.00
  -8   1  -3  566.54   15.90
   8  -1  -3  555.14   17.50
   8   1  -3  546.55   17.60
   8  -1   3  542.15   16.40
  -8  -1  -3  586.44   14.50
  -8   1   3  564.74   15.10
   8   1   4  138.89    8.70
  -8   1  -4  139.09    7.70
  -8  -1   4  136.89    7.20
   8  -1  -4  133.29    8.70
  -8   1   4  118.49    6.90
   8  -1   4  120.49    7.60
  -8  -1  -4  130.89    7.30
   8   1  -4  110.39    8.20
   8  -1  -5  156.48    9.70
   8   1   5  126.99    8.80
  -8   1  -5  161.08    8.50
  -8  -1   5  140.79    7.80
   8  -1   5  136.09    8.40
   8   1  -5  135.29    9.20
  -8   1   5  162.88    8.00
   8   1   6   48.70    6.60
  -8  -1   6   68.19    6.80
   8  -1  -6   59.49    7.50
   8  -1   6   43.80    5.90
  -8   1   6   51.19    5.60
   8   1  -6   51.49    7.10
   8   1   7   35.80    6.10
   8  -1  -7   36.90    6.70
  -8  -1   7   39.30    5.70
   8   1  -7   62.69    8.10
  -8   1   7   45.20    5.80
   8  -1  -8   13.10    5.10
  -8  -1   8    6.40    2.90
   8   1   8   11.00    4.10
   8   1  -8   12.20    4.70
  -8   1   8   17.40    4.20
   8   2   0   16.20    3.60
   8  -2   0   20.40    3.50
  -8   2   0   25.60    3.80
  -8  -2   0   22.40    3.20
  -8  -2   1   74.89    4.80
   8   2   1   85.99    8.00
  -8   2  -1   70.19    5.30
   8  -2  -1   81.59    6.10
  -8   2   1   84.49    5.50
   8  -2   1   77.19    5.60
   8   2  -1   62.99    6.70
  -8  -2  -1   70.59    4.40
  -8   2  -2   85.39    6.00
   8   2   2   72.19    7.10
   8  -2  -2   82.59    6.40
  -8  -2   2   71.19    4.90
  -8  -2  -2   69.99    4.60
  -8   2   2   68.89    5.10
   8   2  -2   90.99    6.90
   8  -2   2   80.69    5.80
   8   2   3  137.39    8.70
  -8  -2   3  154.78    7.40
   8  -2  -3  154.88    8.80
  -8   2  -3  129.89    7.60
   8  -2   3  135.59    7.50
  -8  -2  -3  141.19    6.30
   8   2  -3  148.69    8.90
  -8   2   3  154.28    7.50
   8  -2  -4   81.29    7.80
  -8   2  -4   67.59    6.50
   8   2   4   79.19    8.20
  -8  -2   4   64.99    5.90
   8  -2   4   67.99    6.40
   8   2  -4   70.69    7.60
  -8   2   4   75.59    5.40
  -8  -2   5   28.30    4.30
   8   2   5   32.10    5.50
   8  -2  -5   28.80    5.20
  -8   2  -5   23.30    4.40
   8   2  -5   35.20    5.90
  -8   2   5   27.90    4.20
   8  -2  -6   12.20    4.30
  -8   2  -6   14.70    4.00
  -8  -2   6   11.80    3.20
   8   2   6   17.20    4.40
  -8   2   6   12.60    3.00
   8   2  -6   21.30    5.20
   8   2   7    3.00    3.10
   8  -2  -7    8.30    4.30
  -8  -2   7    5.20    2.60
   8   2  -7    3.00    3.20
  -8   2   7    7.10    2.60
   8  -2  -8   14.90    5.50
   8   2   8    7.90    4.20
  -8  -2   8   20.90    4.70
   8   2  -8   17.70    5.50
  -8   2   8   13.30    3.60
   8   3   0   28.10    4.70
  -8   3   0   19.10    3.30
   8  -3   0   23.90    3.80
  -8  -3   0   24.80    3.20
   8   3   1   42.10    5.80
  -8  -3   1   45.90    4.70
   8  -3  -1   39.00    4.90
  -8   3  -1   42.20    5.00
   8  -3   1   37.10    4.50
  -8  -3  -1   38.20    3.90
   8   3  -1   36.30    5.10
  -8   3   1   37.70    4.50
   8  -3  -2   38.20    5.10
  -8   3  -2   37.50    4.80
   8   3   2   46.80    6.00
  -8  -3   2   38.90    4.40
   8  -3   2   41.60    4.70
  -8  -3  -2   44.50    4.00
  -8   3   2   40.40    4.90
   8   3  -2   41.10    5.40
   8   3   3  103.09    7.90
  -8  -3   3  117.39    6.50
   8  -3  -3  109.19    7.60
  -8   3  -3  103.09    7.20
  -8   3   3  114.09    6.60
   8   3  -3  111.99    8.00
  -8  -3   4   22.20    3.70
   8  -3  -4   26.00    4.80
   8   3   4   21.90    4.90
  -8   3  -4   30.20    5.10
   8   3  -4   27.90    5.00
  -8   3   4   24.40    4.00
   8   3   5   53.09    7.20
  -8  -3   5   49.30    5.80
   8  -3  -5   59.39    7.20
  -8   3  -5   53.09    6.60
   8   3  -5   44.30    6.20
  -8   3   5   51.19    5.40
   8  -3  -6    0.20    3.10
  -8  -3   6    1.10    2.20
   8   3   6    2.50    2.70
  -8   3  -6    3.80    2.60
  -8   3   6    1.70    2.30
   8   3  -6   -1.60    2.70
  -8  -3   7    3.40    2.80
   8  -3  -7    6.20    4.00
  -8   3  -7    8.60    3.50
   8   3   7    7.20    3.80
  -8   3   7    4.20    2.60
   8   3  -7    3.30    3.50
   8  -3  -8    5.30    4.00
   8   3   8   11.70    4.80
  -8  -3   8    6.10    3.30
   8   3  -8   19.00    5.40
   8  -4   0    4.40    2.00
   8   4   0    2.90    2.30
  -8   4   0    3.10    2.00
  -8  -4   0    1.70    1.60
   8   4   1   56.69    6.70
   8  -4  -1   49.20    5.50
  -8   4  -1   34.50    4.80
  -8  -4   1   42.50    4.30
  -8   4   1   42.00    5.20
  -8  -4  -1   39.90    3.80
   8   4  -1   40.90    5.80
   8  -4  -2   57.69    6.10
   8   4   2   44.10    6.00
  -8   4  -2   47.00    5.60
  -8  -4   2   53.99    5.20
  -8   4   2   45.80    4.90
   8   4  -2   41.30    5.60
  -8   4  -3    7.60    2.70
  -8  -4   3    4.30    2.10
   8  -4  -3    4.50    2.70
   8   4   3    5.40    2.80
   8   4  -3    3.50    2.60
  -8   4   3    4.20    2.40
  -8   4  -4   35.10    5.60
   8   4   4   36.30    6.10
   8  -4  -4   27.60    4.80
  -8  -4   4   28.30    4.30
  -8   4   4   36.80    4.70
   8   4  -4   25.10    4.80
   8   4   5   27.90    5.50
   8  -4  -5   27.00    5.30
  -8  -4   5   34.30    5.10
  -8   4  -5   23.10    4.60
   8   4  -5   30.80    5.70
  -8   4   5   21.50    3.80
  -8  -4   6   22.40    4.40
   8  -4  -6   21.30    5.30
   8   4   6   18.40    5.00
  -8   4  -6   24.90    5.20
   8   4  -6   27.40    5.60
  -8   4   6   19.60    3.90
  -8  -4   7   10.80    3.40
   8   4   7   16.90    5.00
   8  -4  -7   20.90    5.60
  -8   4  -7    8.70    3.80
   8   4  -7    8.30    4.20
  -8   5   0   66.99    6.70
  -8  -5   0   69.49    4.60
   8   5   0   74.39    8.00
  -8   5  -1    6.30    2.70
  -8  -5   1    5.10    2.00
   8   5   1   14.30    3.90
  -8   5   1   12.00    3.10
   8   5  -1    4.70    2.80
  -8  -5   2   17.70    3.30
  -8   5  -2   24.40    4.80
   8  -5  -2   17.10    3.90
   8   5   2   20.80    4.60
   8   5  -2   20.30    4.30
  -8   5   2   19.70    3.60
  -8  -5   3   33.50    4.60
   8   5   3   36.60    5.90
  -8   5  -3   28.70    4.90
   8  -5  -3   38.40    5.30
   8   5  -3   38.30    5.70
  -8   5   3   32.50    4.70
   8  -5  -4    5.90    2.80
  -8   5  -4    4.40    2.60
  -8  -5   4    8.00    2.70
   8   5   4    5.20    3.00
  -8   5   4    5.20    2.60
   8   5  -4    2.50    2.80
   8   5   5   47.70    7.10
   8  -5  -5   34.30    5.90
  -8  -5   5   34.40    5.20
  -8   5  -5   32.70    5.90
   8   5  -5   47.10    6.70
  -8   5   5   39.20    5.10
   8   5   6    3.70    3.90
  -8  -5   6    8.40    3.10
  -8   5  -6    3.20    3.30
   8  -5  -6    9.40    4.00
   8   5  -6    5.90    3.70
   8  -5  -7    2.40    3.80
   8   5   7    6.00    4.20
  -8   5  -7    4.10    3.40
  -8  -5   7    8.10    3.70
   8   5  -7    5.40    4.00
  -8   6   0    7.60    2.90
   8   6   0    5.20    3.00
   8   6   1   38.10    6.10
  -8  -6   1   22.80    3.50
  -8   6  -1   20.30    4.00
   8   6  -1   21.50    4.60
  -8   6   1   28.70    4.60
   8   6   2    4.80    2.90
  -8  -6   2    4.50    2.10
  -8   6  -2    6.80    3.10
   8   6  -2   13.90    4.20
  -8   6   2    4.00    2.60
  -8   6  -3  130.79    9.00
   8   6   3  131.99    9.70
  -8  -6   3  128.99    7.50
  -8   6   3  126.89    7.70
   8   6  -3  112.39    8.50
   8   6   4    9.00    3.80
  -8   6  -4    3.80    2.90
  -8  -6   4    8.20    2.70
   8   6  -4    7.20    3.40
  -8   6   4    5.20    2.50
  -8  -6   5   92.49    8.40
   8   6   5   84.39    9.40
  -8   6  -5   86.29    9.40
   8  -6  -5   76.99    8.60
   8   6  -5   85.19    8.90
   8  -6  -6    4.60    3.60
  -8   6  -6    5.20    3.50
  -8  -6   6    7.10    3.20
   8   6   6    4.40    3.40
   8   7   0  106.99    8.60
  -8   7   0  134.79    8.60
  -8   7  -1  107.09    8.10
   8   7   1   87.99    9.00
   8   7  -1   99.09    9.10
  -8   7   1  105.09    7.30
  -8  -7   2   91.89    6.30
   8   7   2  109.49   10.30
   8   7  -2  106.09    8.40
  -8   7   2  110.19    7.40
  -8  -7   3   31.30    4.60
  -8   7  -3   25.70    5.20
   8   7   3   22.40    5.50
   8   7  -3   28.90    5.30
  -8   7   3   23.70    4.40
   8   7   4   60.99    8.50
  -8   7  -4   50.49    7.10
  -8  -7   4   67.99    7.30
   8   7  -4   45.40   10.50
   8   7   5   21.50    5.50
  -8  -7   5   55.29    7.10
  -8   7  -5   34.10    6.20
  -8   7  -6   15.10    5.50
  -8  -7   6   11.60    3.90
   8   7   6   20.60    6.20
  -8   8   0    8.50    3.30
   8   8   0    7.30    3.50
   8   8   1    0.00    2.80
  -8   8  -1    0.70    2.40
   8   8  -1   -1.30    2.40
  -8   8   1   -0.20    2.30
  -8   8  -2   45.20    6.80
   8   8   2   44.40    6.90
  -8   8   2   42.90    5.70
   8   8   3   -0.10    2.80
  -8   8  -3    3.90    3.20
  -8   8  -4   93.19    9.90
   8   8   4  106.99   11.00
  -8  -8   4  109.59    8.20
   8   8   5   81.29   10.10
  -8   8  -5   81.29   11.30
  -8  -8   5   95.69    9.20
  -8   9   0   10.10    3.80
   8   9   1   55.29    7.90
  -8   9  -1   29.40    5.60
  -8   9   1   37.80    5.80
   8   9   2    5.50    3.30
  -8   9  -2    5.30    3.50
   8   9   3    2.30    3.50
  -8   9  -3    4.70    3.60
  -8  10   0   14.00    4.20
  -8  10  -1   10.70    4.10
   9   0   0   -1.80    1.40
  -9   0   0    1.10    1.70
  -9   0   1    1.90    1.90
   9   0  -1   -1.70    1.70
   9   0   1    0.00    1.90
  -9   0  -1    2.30    1.60
  -9   0   2    2.20    1.90
   9   0  -2   -1.00    1.80
  -9   0  -2    1.70    1.70
   9   0   2    1.20    2.00
  -9   0  -3   -1.20    1.50
   9   0  -3   -2.20    2.20
   9   0   3    1.40    2.20
  -9   0   3    1.40    1.80
   9   0  -4    1.00    2.30
  -9   0  -4    1.80    2.00
   9   0   4   -0.70    2.10
  -9   0   4    0.00    1.70
   9   0   5    1.90    2.20
   9   0  -5   -0.90    2.50
  -9   0   5   -0.70    2.00
   9   0   6    0.40    2.60
   9   0  -6    2.30    3.20
  -9   0   6   -0.40    2.10
   9   0  -7    4.30    3.70
   9   0   7    1.20    3.00
  -9   0   7    4.80    2.90
  -9  -1   0  150.38    7.10
  -9   1   0  151.98    7.60
   9  -1   0  175.08    9.20
   9   1   0  161.08    9.30
  -9  -1   1   51.29    5.00
   9   1   1   52.79    6.50
   9  -1  -1   44.40    5.60
  -9   1  -1   47.90    5.10
   9   1  -1   49.40    6.10
  -9  -1  -1   59.99    5.60
   9  -1   1   48.00    5.80
  -9   1   1   44.00    4.90
  -9  -1   2  263.67    9.90
  -9   1  -2  267.37   10.50
   9   1   2  275.27   12.10
   9  -1  -2  268.07   12.10
   9  -1   2  267.17   11.50
  -9  -1  -2  252.07    9.30
  -9   1   2  276.17   10.30
   9   1  -2  267.77   12.20
  -9  -1   3  131.69    7.20
   9   1   3  140.79    9.10
   9  -1  -3  136.59    9.00
  -9   1  -3  136.99    7.70
   9   1  -3  123.89    8.80
  -9   1   3  112.99    6.90
   9  -1   3  127.09    8.20
  -9  -1  -3  119.39    6.60
   9   1   4   33.20    5.40
  -9  -1   4   19.90    3.80
  -9   1  -4   24.70    4.30
   9  -1  -4   28.00    5.30
   9  -1   4   25.60    4.60
  -9   1   4   27.40    4.30
   9   1  -4   24.50    5.10
   9   1   5   49.99    6.90
   9  -1  -5   31.50    5.70
  -9   1  -5   31.80    4.90
  -9  -1   5   33.90    4.80
   9   1  -5   46.30    7.00
   9  -1   5   40.80    5.80
  -9   1   5   36.70    5.10
   9   1   6   41.60    6.60
  -9  -1   6   50.49    5.90
   9  -1  -6   44.00    7.10
   9   1  -6   44.40    7.00
  -9   1   6   34.10    4.90
   9   1   7    0.70    3.00
   9  -1  -7    4.50    3.80
  -9  -1   7    4.50    3.00
  -9   1   7    7.00    2.80
   9   1  -7    0.80    3.40
   9  -2   0    0.40    2.10
  -9  -2   0    5.00    2.10
   9   2   0    3.90    2.50
  -9   2   0    1.30    2.00
  -9  -2   1    9.80    2.50
   9   2   1   12.30    3.70
   9  -2  -1    8.20    2.90
  -9   2  -1    2.10    1.90
   9  -2   1    9.20    2.90
  -9  -2  -1    3.20    1.90
  -9   2   1    3.60    2.00
   9   2  -1    7.20    3.20
  -9   2  -2   31.90    4.80
   9   2   2   35.70    5.60
   9  -2  -2   34.30    5.10
  -9  -2   2   24.80    3.90
   9   2  -2   33.10    5.40
   9  -2   2   27.50    4.50
  -9  -2  -2   35.60    4.30
  -9   2   2   26.80    4.00
  -9   2  -3   72.59    7.00
  -9  -2   3   75.59    5.60
   9   2   3   84.99    8.40
   9  -2  -3   82.89    8.00
   9  -2   3   94.99    7.00
   9   2  -3   77.09    8.00
  -9   2   3   91.29    6.10
   9  -2  -4   76.69    8.30
  -9   2  -4   78.19    7.60
  -9  -2   4   79.39    5.90
   9   2   4   60.39    7.40
   9   2  -4   93.99    9.30
  -9   2   4   79.69    6.10
  -9   2  -5   70.19    7.40
   9  -2  -5   57.59    7.30
   9   2   5   52.09    7.00
  -9  -2   5   72.69    6.90
   9   2  -5   68.29    8.20
  -9   2   5   80.19    7.30
  -9   2  -6    7.80    3.30
   9   2   6   17.50    4.70
  -9  -2   6    9.90    3.20
   9  -2  -6   11.70    4.40
  -9   2   6    4.70    2.70
   9   2  -6   21.80    5.50
   9  -2  -7    7.20    3.70
   9   2   7    5.90    3.70
  -9  -2   7    8.90    3.50
   9   2  -7    7.30    4.00
  -9   2   7   12.10    3.50
  -9   3   0    2.70    2.10
   9  -3   0   -1.00    1.60
  -9  -3   0    0.00    1.40
   9   3   0   -0.30    2.00
   9  -3  -1   25.10    4.40
  -9   3  -1   28.40    4.50
   9   3   1   25.10    4.90
  -9  -3   1   24.00    3.80
  -9   3   1   18.30    3.50
  -9  -3  -1   29.10    3.80
   9   3  -1   27.70    5.00
   9  -3   1   17.60    3.50
  -9   3  -2   34.80    4.80
   9  -3  -2   42.80    5.80
   9   3   2   39.30    6.20
  -9  -3   2   43.60    4.80
  -9   3   2   32.30    4.50
   9   3  -2   37.80    5.60
  -9   3  -3  119.29    8.00
   9  -3  -3  122.09    8.70
   9   3   3  107.39    8.50
  -9  -3   3  132.59    7.30
  -9   3   3  114.49    7.10
   9   3  -3  123.99    8.90
   9   3   4  123.19    9.30
  -9   3  -4  119.29    8.30
  -9  -3   4  126.99    7.50
   9  -3  -4  135.49    9.40
  -9   3   4  129.19    7.70
   9   3  -4  112.79    8.90
   9   3   5   31.60    6.00
   9  -3  -5   33.90    6.00
  -9   3  -5   36.10    5.50
  -9  -3   5   43.00    5.80
   9   3  -5   36.40    6.40
  -9   3   5   42.40    5.40
  -9   3  -6   24.20    4.90
  -9  -3   6   26.00    4.80
   9   3   6   21.00    5.30
   9  -3  -6   30.50    6.10
  -9   3   6   19.30    4.20
   9   3  -6   27.50    5.90
  -9  -3   7   21.70    4.60
   9   3   7   18.20    5.10
   9  -3  -7   22.40    5.60
  -9   3  -7   11.30    4.20
  -9   3   7   25.00    4.60
   9   3  -7   18.20    5.80
   9   4   0    0.20    2.10
  -9  -4   0    1.50    1.60
  -9   4   0   -0.80    1.60
  -9  -4   1   49.60    5.00
  -9   4  -1   41.20    5.20
   9  -4  -1   55.69    6.10
   9   4   1   56.19    7.20
  -9   4   1   47.80    5.90
   9   4  -1   59.39    7.40
  -9  -4   2   25.80    3.80
   9  -4  -2   31.80    5.00
   9   4   2   31.90    5.50
  -9   4  -2   32.10    4.90
   9   4  -2   28.40    5.40
  -9   4   2   28.50    4.60
   9   4   3   42.80    6.50
  -9  -4   3   38.90    4.70
   9  -4  -3   35.30    5.50
  -9   4  -3   42.20    5.90
  -9   4   3   37.90    4.80
   9   4  -3   51.89    6.70
   9  -4  -4    2.20    2.70
  -9   4  -4    4.90    2.70
  -9  -4   4    4.70    2.40
   9   4   4    4.10    3.20
  -9   4   4    4.80    2.40
   9   4  -4    5.90    3.20
   9  -4  -5   32.70    6.00
  -9  -4   5   31.40    5.10
   9   4   5   25.30    5.70
  -9   4  -5   44.30    6.50
   9   4  -5   33.90    6.20
  -9   4   5   30.60    4.60
  -9  -4   6   35.40    5.70
   9   4   6   23.40    5.80
   9  -4  -6   29.40    5.80
  -9   4  -6   22.80    5.10
   9   4  -6   26.40    6.00
  -9   4   6   24.50    4.30
   9   4   7   11.20    4.60
  -9   4  -7    0.70    2.90
   9  -4  -7    5.30    4.30
  -9  -4   7    7.80    4.80
   9   4  -7    5.10    4.10
  -9   5   0    6.70    2.60
   9   5   0    4.90    3.20
  -9   5  -1   13.40    3.40
  -9  -5   1   16.80    3.20
   9   5   1    8.70    3.70
   9   5  -1   17.80    4.50
  -9   5   1   18.50    3.80
   9   5   2   10.20    3.70
  -9  -5   2   12.00    3.10
  -9   5  -2   12.00    3.70
   9   5  -2   12.20    4.20
  -9   5   2   15.10    3.60
  -9   5  -3   64.79    7.70
   9   5   3   54.39    7.40
   9  -5  -3   58.09    6.90
  -9  -5   3   50.19    5.60
  -9   5   3   59.09    6.50
   9   5  -3   57.09    7.50
  -9   5  -4    6.10    3.00
   9  -5  -4    3.90    3.10
  -9  -5   4    6.50    2.80
   9   5   4    7.00    3.50
  -9   5   4    6.20    2.70
   9   5  -4    7.50    3.60
  -9   5  -5    8.90    3.70
  -9  -5   5   14.70    3.70
   9  -5  -5   12.10    4.10
   9   5   5    4.50    3.60
   9   5  -5   14.90    4.50
  -9   5   5    8.00    3.10
  -9  -5   6   22.20    4.80
   9  -5  -6   27.30    6.00
   9   5   6   24.00    6.00
  -9   5  -6   10.20    4.10
   9   5  -6   12.80    4.80
  -9   6   0   59.49    7.00
   9   6   0   62.89    8.00
  -9   6  -1   49.99    6.50
   9   6   1   48.30    7.00
  -9   6   1   58.09    6.70
   9   6  -1   63.89    8.00
   9   6   2   12.80    4.30
  -9   6  -2   11.70    3.70
  -9  -6   2   13.00    3.10
   9   6  -2   16.10    4.40
  -9   6   2   10.10    3.40
   9   6   3   21.90    5.30
  -9   6  -3   23.90    5.10
  -9  -6   3   25.60    4.40
   9   6  -3   24.20    5.20
  -9   6   3   23.80    4.50
   9   6   4    8.00    3.90
  -9   6  -4    7.20    3.60
  -9  -6   4    7.70    2.90
  -9   6   4    4.70    2.60
   9   6  -4   10.50    4.10
  -9  -6   5   78.49    8.10
  -9   6  -5   56.09    7.40
   9   6   5   67.89    9.00
   9   6  -5   68.09    8.50
  -9   6  -6   68.09    8.90
   9  -6  -6   74.59    9.10
  -9  -6   6   67.39    7.90
   9   6  -6   90.09   10.20
  -9   7   0    1.80    2.60
   9   7   0    1.30    3.00
   9   7   1   48.80    7.60
  -9   7  -1   44.00    6.40
  -9   7   1   53.49    6.40
   9   7  -1   45.80    6.90
   9   7   2  127.19   11.70
  -9   7  -2  136.79    9.80
   9   7  -2  138.99    9.90
  -9   7   2  129.59    8.40
  -9   7  -3   68.09    8.10
  -9  -7   3   78.59    7.40
   9   7   3   63.49    8.40
   9   7  -3   79.79    9.10
  -9   7   3   70.69    7.40
   9   7   4  118.29   11.70
  -9  -7   4   87.49    8.50
  -9   7  -4   84.69    9.20
   9   7  -4  124.49    9.90
  -9   7  -5   16.40    5.10
   9   7   5   14.20    4.90
  -9  -7   5    7.70    3.50
   9   8   0   30.20    6.20
  -9   8   0   34.60    5.80
   9   8   1   40.30    6.80
  -9   8  -1   24.20    5.30
   9   8  -1   16.40    4.80
  -9   8   1   20.80    4.60
   9   8   2   10.10    4.60
  -9   8  -2    5.80    3.70
  -9   8   2    7.10    3.30
   9   8  -2   15.50    4.80
   9   8   3   20.00    5.50
  -9   8  -3   21.50    5.00
  -9  -8   4   11.10    3.60
   9   8   4   10.80    4.80
  -9   9   0    6.40    3.40
   9   9   1   14.90    4.90
  -9   9  -1   10.90    4.40
  -9   9   1   13.40    4.10
   9   9   2   35.80    6.90
  -9   9  -2   41.00    6.90
 -10   0   0    8.30    2.70
  10   0   0   16.30    4.10
 -10   0  -1  720.13   18.40
  10   0   1  684.83   20.60
  10   0  -1  684.63   21.00
 -10   0   1  675.63   18.00
 -10   0   2   37.40    5.10
  10   0  -2   33.90    5.90
 -10   0  -2   27.50    4.10
  10   0   2   36.50    5.70
 -10   0  -3   39.80    5.10
 -10   0   3   33.20    4.60
  10   0  -3   38.90    6.30
  10   0   3   39.00    5.90
  10   0  -4  109.19   10.40
 -10   0   4   97.49    6.90
 -10   0  -4   99.79    6.90
  10   0   4  103.89    8.40
  10   0  -5   51.99    7.50
 -10   0   5   66.69    6.70
  10   0   5   64.39    7.70
  10   0  -6   22.00    5.90
 -10   0   6   10.70    3.30
  10   0   6    8.80    3.80
 -10   0   7  109.19    8.40
  10   1   0    1.80    2.40
 -10  -1   0    2.40    2.00
  10  -1   0    1.00    2.30
 -10   1   0   -1.30    1.70
  10  -1  -1  248.48   11.90
 -10   1  -1  267.47   10.80
 -10  -1   1  240.38   10.00
  10   1   1  249.78   12.20
 -10   1   1  253.47   10.40
  10  -1   1  266.27   12.00
 -10  -1  -1  249.28    9.90
  10   1  -1  231.08   12.00
 -10  -1   2    2.00    2.20
  10  -1  -2    1.80    2.50
  10   1   2   -2.00    2.00
 -10   1  -2    3.20    1.90
  10   1  -2    3.20    2.60
 -10  -1  -2    0.10    2.00
  10  -1   2    1.80    2.40
 -10   1   2    1.60    2.10
 -10  -1   3  158.58    8.40
  10   1   3  134.29    9.60
 -10   1  -3  139.59    8.10
  10  -1  -3  111.29    8.90
 -10  -1  -3  129.59    7.20
  10  -1   3  135.99    9.00
 -10   1   3  141.09    7.90
  10   1  -3  149.49   10.10
  10   1   4   14.90    4.30
  10  -1  -4    7.70    3.50
 -10  -1   4   12.00    3.30
 -10   1  -4   16.10    3.80
  10   1  -4   12.30    4.50
  10  -1   4   15.00    4.00
 -10   1   4   10.30    3.30
  10  -1  -5   49.50    7.30
  10   1   5   32.10    5.80
 -10  -1   5   45.50    5.80
 -10   1  -5   29.90    5.80
 -10   1   5   38.30    5.60
  10   1  -5   57.29    8.00
 -10  -1   6   17.60    4.40
  10   1   6   25.40    5.50
  10  -1  -6   24.70    5.70
  10   1  -6   17.00    5.30
 -10   1   6   17.60    3.80
  10   1   7   22.00    5.40
 -10  -1   7   23.80    5.70
  10   1  -7   26.40   10.10
 -10   1   7   20.50    4.60
 -10  -2   0   36.20    4.80
 -10   2   0   31.00    4.70
  10  -2   0   36.80    5.40
  10   2   0   38.60    6.30
 -10   2  -1   29.50    4.40
  10  -2  -1   37.00    5.40
 -10  -2   1   32.40    4.20
  10   2   1   44.80    6.60
 -10   2   1   34.10    5.00
 -10  -2  -1   42.30    4.70
  10  -2   1   42.60    5.60
  10   2  -1   42.10    6.20
 -10  -2   2   19.90    3.90
  10  -2  -2   15.60    4.20
 -10   2  -2   18.70    4.10
  10   2   2   17.80    4.60
  10  -2   2   20.10    4.10
 -10  -2  -2   13.50    3.10
  10   2  -2   14.70    4.20
 -10   2   2   13.30    3.30
 -10   2  -3   24.60    4.40
  10   2   3   20.60    4.80
 -10  -2   3   23.90    4.30
  10  -2  -3   22.60    5.00
  10  -2   3   25.50    7.10
 -10   2   3   24.30    4.30
  10   2  -3   20.10    5.00
 -10   2  -4   43.80    5.80
 -10  -2   4   52.09    5.80
  10  -2  -4   67.19    8.20
  10   2   4   56.79    7.60
 -10   2   4   54.69    6.30
  10   2  -4   63.29    8.10
 -10   2  -5   23.50    4.80
  10   2   5   25.10    5.40
  10  -2  -5   35.20    6.60
 -10  -2   5   29.80    4.90
  10   2  -5   22.80    5.60
 -10   2   5   17.40    4.20
  10  -2  -6   32.00    6.30
  10   2   6   22.50    5.60
 -10  -2   6   19.80    4.30
 -10   2   6   23.30    4.60
  10   2  -6   20.10    5.50
  10   3   0    0.10    2.10
 -10   3   0    1.00    1.90
 -10  -3   0    2.80    2.00
  10  -3   0    4.20    2.50
 -10   3  -1    6.40    2.90
  10  -3  -1    6.00    3.00
  10   3   1    6.40    3.30
 -10  -3   1    5.40    2.40
 -10  -3  -1    1.10    1.90
  10   3  -1    6.40    3.50
 -10   3   1    8.50    2.90
  10  -3  -2    6.20    3.10
 -10   3  -2    9.30    3.30
 -10  -3   2   15.90    3.50
  10   3   2    8.90    3.70
 -10   3   2   13.90    3.60
  10   3  -2   12.20    3.90
  10  -3  -3   74.79    8.30
 -10   3  -3   72.99    7.60
 -10  -3   3   66.39    6.50
  10   3   3   59.89    7.80
 -10   3   3   62.39    6.40
  10   3  -3   77.19    8.70
 -10  -3   4   22.20    4.10
 -10   3  -4   25.20    5.00
  10  -3  -4   16.40    4.80
  10   3   4   15.30    4.80
 -10   3   4   21.70    4.50
  10   3  -4   18.80    4.80
  10   3   5   83.09    9.20
  10  -3  -5   89.39    9.40
 -10   3  -5   84.89    8.50
 -10  -3   5   85.19    8.10
 -10   3   5   86.89    8.00
  10   3  -5  106.79   10.90
 -10  -3   6   18.00    4.20
 -10   3  -6   10.60    3.80
  10   3   6   12.80    4.70
  10  -3  -6   13.20    5.10
 -10   3   6   14.80    4.00
  10   3  -6    4.00    4.10
 -10   4   0   35.20    5.20
  10   4   0   37.70    6.00
 -10  -4   0   32.60    4.30
  10   4   1   17.00    4.80
 -10   4  -1   17.30    4.10
 -10  -4   1   12.70    2.90
  10   4  -1    9.10    3.70
 -10   4   1   14.50    3.50
  10   4   2   79.49    8.90
 -10   4  -2   62.59    7.20
 -10  -4   2   73.39    6.70
  10  -4  -2   67.39    7.50
  10   4  -2   83.29    9.20
 -10   4   2   71.69    7.50
 -10   4  -3   34.70    5.70
 -10  -4   3   31.60    4.70
  10  -4  -3   31.90    5.60
  10   4   3   35.40    6.50
 -10   4   3   35.30    5.00
  10   4  -3   32.40    6.20
 -10   4  -4   21.20    4.70
  10   4   4   20.40    5.60
  10  -4  -4   26.20    5.60
 -10  -4   4   23.00    4.30
  10   4  -4   24.70    5.60
 -10   4   4   15.90    4.00
 -10  -4   5    4.90    2.90
  10   4   5    7.00    4.00
 -10   4  -5    0.60    2.60
  10  -4  -5   -0.40    3.10
 -10   4   5    0.20    2.30
  10   4  -5    4.00    3.80
  10   4   6   14.50    5.10
 -10   4  -6   11.90    4.10
 -10  -4   6   15.10    3.80
  10  -4  -6   13.60    5.00
  10   4  -6   15.20    5.30
 -10   4   6    9.00    3.40
  10   5   0    6.40    3.40
 -10   5   0    0.50    2.20
  10   5   1  236.08   13.20
 -10  -5   1  233.98    9.70
 -10   5  -1  225.88   11.50
  10   5  -1  255.27   13.30
 -10   5   1  242.78   11.40
  10   5   2   33.30    6.50
 -10   5  -2   16.30    3.90
 -10  -5   2   31.10    4.60
 -10   5   2   23.70    4.70
  10   5  -2   25.90    5.60
 -10  -5   3   58.49    6.20
 -10   5  -3   63.99    7.70
  10   5   3   65.39    8.60
  10   5  -3   77.59    9.40
 -10   5   3   66.19    7.00
 -10   5  -4   49.70    7.10
  10  -5  -4   45.00    7.00
  10   5   4   38.50    7.00
 -10  -5   4   39.60    5.60
 -10   5   4   45.70    5.90
  10   5  -4   54.09    7.70
 -10  -5   5   22.90    4.60
  10   5   5   30.40    6.90
 -10   5  -5   18.50    4.90
  10  -5  -5   24.10    5.50
  10   5  -5   25.50    6.10
 -10   5   5   23.50    4.60
  10   6   0   -0.30    3.00
 -10   6   0   -0.60    2.40
  10   6   1   10.90    4.30
 -10   6  -1    1.80    2.50
  10   6  -1    6.80    3.70
 -10   6   1    8.20    3.50
 -10   6  -2   22.40    5.20
 -10  -6   2   21.00    4.00
  10   6   2   24.40    5.80
  10   6  -2   31.20    6.20
 -10   6   2   21.10    4.40
 -10   6  -3    5.30    3.30
  10   6   3    6.20    4.00
 -10  -6   3    6.50    2.90
  10   6  -3    7.30    4.40
 -10   6   3    7.90    3.40
 -10   6  -4   29.90    5.70
 -10  -6   4   56.99    6.90
  10   6   4   43.30    7.60
  10   6  -4   48.80    7.80
 -10   6   4   45.40    6.20
 -10  -6   5  116.99    8.60
 -10   6  -5   95.29   14.50
 -10   6   5  110.49   11.80
  10   6  -5  115.39   11.30
  10   7   0    4.90    3.80
 -10   7   0    4.90    3.30
  10   7   1   32.50    6.50
 -10   7  -1   26.40    5.40
  10   7  -1   27.90    6.20
 -10   7   1   31.60    5.40
  10   7   2   18.40    5.30
 -10   7  -2   29.50    5.60
 -10   7   2   24.90    4.90
  10   7  -2   21.40    5.50
 -10   7  -3   29.50    6.00
  10   7   3   40.50    7.60
 -10  -7   3   33.20    5.60
  10   7  -3   31.80    6.40
 -10   7   3   27.40    5.10
 -10  -7   4    3.10    2.60
  10   7   4    8.30    7.10
  10   7  -4    0.10    3.40
 -10   7   4    2.60    3.30
 -10   8   0   29.10    5.70
  10   8   0   27.60    6.40
  10   8   1   13.90    5.00
 -10   8  -1   12.40    4.30
  10   8  -1   12.40    4.60
 -10   8   1   18.20    4.50
  10   8   2    3.40    4.20
 -10   8  -2    6.50    4.10
 -10   8   2    4.90    3.10
  10   8  -2    9.20    4.60
 -11   0   0    0.10    2.10
  11   0   0    2.30    2.50
  11   0  -1    0.00    2.50
  11   0   1    2.60    2.60
 -11   0  -1   -0.60    1.90
 -11   0   1   -1.80    1.60
 -11   0   2   -1.00    1.80
  11   0   2   -2.40    2.00
 -11   0  -2   -0.60    1.80
  11   0  -2   -0.50    2.30
  11   0   3    2.60    2.90
 -11   0  -3    0.20    2.00
 -11   0   3    0.10    2.20
  11   0  -3    5.60    3.40
 -11   0   4   -1.50    2.10
  11   0  -4   -1.90    2.70
  11   0   4    1.40    2.70
  11   0  -5   -2.80    3.00
  11   0   5    3.50    3.00
 -11   0   5   -0.80    2.10
  11   0  -6   -5.10    5.20
 -11   0   6    1.60    2.90
  11  -1   0    2.30    2.50
 -11  -1   0    1.90    2.20
  11   1   0    2.90    2.50
 -11   1   0    4.50    2.70
  11   1   1  242.78   12.70
  11  -1  -1  206.68   11.70
 -11   1  -1  215.08   10.10
 -11  -1   1  202.58    9.60
 -11  -1  -1  200.38    9.20
  11  -1   1  189.58   10.90
 -11   1   1  211.98    9.90
  11   1  -1  224.48   12.40
 -11  -1   2    4.10    2.70
 -11   1  -2   10.40    3.30
  11  -1  -2    6.30    3.40
  11   1   2   12.30    4.10
  11  -1   2    7.80    3.50
 -11  -1  -2   13.80    3.50
  11   1  -2   10.30    3.80
 -11   1   2   13.80    3.60
  11   1   3   64.79    8.50
  11  -1  -3   50.29    7.40
 -11  -1   3   55.79    6.40
 -11   1  -3   60.69    6.80
  11   1  -3   44.60    7.20
  11  -1   3   46.30    6.50
 -11   1   3   64.59    6.90
  11   1   4    8.60    3.80
 -11   1  -4    0.40    2.30
 -11  -1   4    4.50    2.60
  11  -1  -4    1.80    3.40
  11   1  -4    6.40    4.00
  11  -1   4    5.40    3.30
 -11   1   4    0.50    2.10
  11   1   5   25.20    5.50
  11  -1  -5   21.40    5.80
 -11  -1   5    9.50    3.40
  11   1  -5   18.80    5.70
 -11   1   5   18.10    4.20
  11   1   6    9.80    4.30
  11  -1  -6   14.90    8.10
 -11   1   6    9.90    3.70
  11  -2   0    4.10    3.00
 -11  -2   0    3.00    2.20
  11   2   0    4.60    3.20
 -11   2   0   -1.00    1.80
  11   2   1   10.70    3.80
  11  -2  -1    1.40    2.70
 -11  -2   1    2.00    2.10
 -11   2  -1    3.60    2.70
 -11   2   1    6.90    3.10
 -11  -2  -1    5.80    2.50
  11  -2   1    3.80    2.60
  11   2  -1    3.90    3.10
  11  -2  -2    2.90    3.10
 -11  -2   2    4.40    2.60
 -11   2  -2    2.70    2.50
  11   2   2    6.40    3.90
  11  -2   2    2.20    2.40
 -11   2   2    0.50    2.50
  11   2  -2    6.10    3.70
  11  -2  -3   -0.20    2.70
 -11  -2   3    7.70    3.10
  11   2   3   -2.20    2.40
 -11   2  -3    2.30    2.80
  11   2  -3    1.30    2.70
 -11   2   3    0.80    2.70
 -11  -2   4   10.40    3.50
 -11   2  -4   14.90    3.90
  11   2   4   11.50    4.30
  11  -2  -4   17.80    5.40
  11   2  -4   14.30    5.10
 -11   2   4   16.10    3.90
  11   2   5   29.80    6.00
  11  -2  -5   37.90    6.90
 -11   2  -5   30.50    5.30
 -11  -2   5   30.70    5.00
  11   2  -5   31.20    6.60
 -11   2   5   31.50    5.50
  11   3   0   40.00    6.80
  11  -3   0   24.10    5.20
 -11  -3   0   24.60    4.20
 -11   3   0   30.30    4.70
 -11  -3   1    9.90    3.30
  11  -3  -1   12.30    3.80
  11   3   1   14.40    4.40
 -11   3  -1   13.90    3.90
  11   3  -1   15.60    4.70
 -11   3   1    7.50    3.40
  11  -3  -2   17.80    4.60
 -11  -3   2   19.60    4.00
  11   3   2   25.80    5.70
 -11   3  -2   15.60    4.10
 -11   3   2   16.60    3.80
  11   3  -2   16.90    5.00
 -11  -3   3   60.99    6.50
  11   3   3   61.59    8.20
 -11   3  -3   57.09    6.90
  11  -3  -3   55.79    7.60
 -11   3   3   55.79    6.40
  11   3  -3   62.49    8.60
  11   3   4   15.00    5.10
 -11  -3   4   16.50    4.00
  11  -3  -4   18.00    4.80
 -11   3  -4   12.20    4.20
 -11   3   4   22.60    4.80
  11   3  -4    8.30    4.30
 -11  -3   5    1.30    2.50
 -11   3  -5    1.80    2.70
  11   3   5    5.50    3.80
  11  -3  -5    1.70    4.00
 -11   3   5   -0.50    2.80
  11   3  -5   -1.10    3.10
 -11   4   0   10.20    3.60
  11   4   0    9.70    4.60
  11   4   1   45.30    7.10
 -11  -4   1   40.00    5.10
 -11   4  -1   49.10    6.60
  11   4  -1   51.19    7.70
 -11   4   1   39.30    5.70
 -11   4  -2   22.10    5.10
 -11  -4   2   14.40    3.50
  11   4   2   15.70    4.90
  11   4  -2   10.70    4.50
 -11   4   2    9.40    3.40
 -11   4  -3   -1.40    2.30
  11  -4  -3    1.40    3.30
  11   4   3    4.00    3.80
 -11  -4   3    3.40    2.80
 -11   4   3   -1.00    2.50
  11   4  -3   -0.30    3.40
  11   4   4   66.09    9.20
  11  -4  -4   50.29    7.40
 -11   4  -4   41.80    6.50
 -11  -4   4   48.30    6.10
  11   4  -4   67.79    9.10
 -11   4   4   53.79    6.70
  11   4   5   14.40    5.40
  11  -4  -5    9.00    4.70
 -11   4  -5    3.70    3.60
 -11  -4   5    5.90    3.20
  11   4  -5    3.20    4.50
 -11   4   5    9.40    3.70
 -11   5   0    2.60    2.70
  11   5   0   -0.50    3.30
 -11   5  -1    4.60    3.20
  11   5   1    4.30    3.80
  11   5  -1    2.70    3.20
 -11   5   1    4.30    3.00
  11   5   2    3.80    3.80
 -11  -5   2    4.20    2.60
 -11   5  -2    3.40    2.70
 -11   5   2    5.30    3.10
  11   5  -2    8.10    4.10
 -11   5  -3    4.00    2.80
  11   5   3    6.20    4.20
 -11  -5   3    3.00    2.80
 -11   5   3    1.10    2.70
  11   5  -3    5.20    3.70
 -11  -5   4    0.30    2.40
 -11   5  -4    3.80    3.00
  11   5   4    8.50    4.60
 -11   5   4   -1.00    2.50
  11   5  -4   -3.00    3.20
  11   6   0    4.40    4.00
 -11   6   0    6.60    3.40
  11   6   1   -2.60    2.70
 -11   6  -1    2.20    3.10
 -11   6   1    5.90    3.40
  11   6  -1    7.50    4.40
  11   6   2    5.60    4.10
 -11   6  -2    9.20    4.10
  11   6  -2   13.90    4.70
 -11   6   2    3.60    3.00
 -11   6  -3    4.50    3.40
  11   6   3    8.90    4.60
 -11  -6   3    7.40    3.20
  11   6  -3   11.70    4.90
 -11   6   3    2.10    3.00
 -11   7   0   14.60    4.50
  11   7   0    7.90    4.90
 -11   7  -1    5.60    3.80
  11   7   1   11.90    4.90
  11   7  -1   16.50    5.60
 -11   7   1    5.20    3.60
 -12   0   0  361.96   13.70
  12   0   0  371.16   16.50
 -12   0   1  139.69    8.70
  12   0   1  155.08   10.80
 -12   0  -1  166.28    9.30
  12   0  -1  157.08   11.00
  12   0  -2  126.19   11.90
  12   0   2  146.89   10.50
 -12   0  -2  136.19    8.80
 -12   0   2  109.59    7.70
  12   0   3  332.97   16.00
 -12   0  -3  344.27   13.40
  12   0  -3  344.77   16.60
 -12   0   3  367.76   14.40
  12   0   4   14.90    4.60
  12   0  -4   29.40    6.40
 -12   0   4   37.20    5.60
  12   1   0   16.60    4.80
  12  -1   0   22.70    5.20
 -12  -1   0   19.50    4.20
 -12   1   0   20.50    4.40
 -12   1  -1   62.79    7.30
  12  -1  -1   53.29    7.40
 -12  -1   1   61.89    6.50
  12   1   1   53.19    7.40
 -12   1   1   63.69    7.10
 -12  -1  -1   58.69    6.60
  12  -1   1   67.49    8.30
  12   1  -1   80.69    9.50
 -12  -1   2    4.00    3.20
 -12   1  -2    9.70    3.30
  12  -1  -2    5.80    3.70
  12   1   2   12.50    4.40
 -12   1   2    6.30    3.40
 -12  -1  -2    0.30    2.20
  12   1  -2    8.20    4.00
  12  -1   2    5.50    3.60
 -12  -1   3   57.89    6.80
 -12   1  -3   46.60    6.20
  12   1   3   71.59    9.50
  12  -1  -3   64.89    8.80
 -12   1   3   67.39    7.50
  12   1  -3   63.89    8.70
  12  -1   3   78.39    9.20
  12   1   4   22.40    5.50
 -12  -1   4   12.00    3.80
 -12   1  -4   17.00    4.30
  12  -1  -4   16.80    5.40
  12   1  -4   24.40    6.10
 -12   1   4   26.50    5.10
 -12   2   0   -1.10    2.80
  12  -2   0   -0.10    2.50
  12   2   0    0.90    3.00
 -12  -2   0   -2.10    1.90
 -12  -2   1   32.40    5.00
  12   2   1   27.50    6.00
  12  -2  -1   36.90    6.40
 -12   2  -1   24.10    4.50
  12  -2   1   21.40    5.00
 -12  -2  -1   32.60    5.00
  12   2  -1   41.80    7.30
 -12   2   1   26.50    4.90
  12   2   2    3.20    3.40
 -12   2  -2    3.40    2.90
  12  -2  -2    7.10    3.60
 -12  -2   2    6.50    3.40
  12   2  -2    6.20    3.90
 -12   2   2    3.00    3.00
  12   2   3   14.60    4.70
 -12   2  -3   12.30    3.90
  12  -2  -3    6.90    3.80
 -12  -2   3    7.00    3.40
  12   2  -3   11.70    5.00
 -12   2   3    1.70    3.00
 -12  -2   4    7.70    3.50
  12   2   4   14.00    5.00
 -12   2  -4   10.30    3.80
  12  -2  -4   11.60    4.60
 -12   2   4    3.70    3.40
  12   2  -4   15.00    5.30
  12   3   0    6.10    3.50
 -12   3   0    4.10    3.00
 -12  -3   0    0.90    2.30
 -12  -3   1    2.90    2.50
 -12   3  -1    2.80    3.00
  12   3   1    1.90    3.70
  12  -3  -1    2.10    3.30
  12   3  -1    4.40    3.70
 -12   3   1    4.90    3.20
 -12   3  -2   17.60    4.50
  12   3   2   31.30    6.40
 -12  -3   2   20.20    4.40
  12  -3  -2   23.90    5.50
  12   3  -2   23.20    5.70
 -12   3   2   24.00    4.90
 -12   3  -3    2.50    2.70
  12  -3  -3    1.70    3.20
  12   3   3    1.90    3.50
 -12  -3   3    0.70    2.50
 -12   3   3    2.30    3.30
  12   3  -3    0.10    3.50
 -12   3  -4   11.40    3.90
 -12  -3   4   20.10    4.50
  12   3   4    6.40    4.50
  12  -3  -4    8.50    4.30
 -12   3   4   12.70    4.00
  12   3  -4    8.20    5.90
 -12   4   0    8.50    3.70
  12   4   0   17.70    5.10
 -12   4  -1    2.00    3.00
  12   4   1    5.60    4.00
 -12  -4   1    5.60    2.90
 -12   4   1    0.40    3.30
  12   4  -1    7.80    4.00
  12   4   2   58.39    8.50
 -12  -4   2   45.60    6.10
 -12   4  -2   44.70    6.60
  12   4  -2   38.00    7.30
 -12   4   2   48.50    6.90
  12   4   3   19.80    6.00
 -12   4  -3   20.20    5.10
 -12  -4   3   23.50    4.80
  12   4  -3   19.90    6.10
 -12   4   3   23.00    4.70
  12   5   0  114.99   12.10
 -12   5   0  108.39   10.40
 -12   5  -1   17.20    4.60
  12   5   1   27.10    6.60
 -12   5   1   19.40    5.00
  12   5  -1   27.50    6.50
  12   5   2    9.30    5.40
 -12   5  -2    6.30    4.40
 -12  -5   2    9.90    3.40
  12   5  -2   10.90    4.90
 -12   5   2   19.50    5.10
 -13   0   0   -0.30    2.80
  13   0   0    1.80    3.40
 -13   0   1   -1.60    2.60
 -13   0  -1   -0.10    2.40
  13   0  -1    1.80    3.00
  13   0   1    1.20    3.40
 -13   0   2   -1.70    2.30
  13   0   2    2.70    3.70
  13   0  -2   -2.10    3.40
 -13   0  -2   -1.60    2.50
  13   0   3    0.10    3.00
  13   0  -3   -1.50    5.30
 -13   1   0   46.50    6.30
  13  -1   0   51.69    7.80
 -13  -1   0   40.30    6.10
  13   1   0   51.79    8.10
  13   1   1    5.00    3.90
 -13   1  -1   12.40    4.40
 -13  -1   1   15.00    4.20
  13  -1  -1   13.80    4.90
  13   1  -1   20.50    5.40
  13  -1   1   10.60    4.30
 -13  -1  -1   21.40    4.60
 -13   1   1   18.40    4.60
  13   1   2   27.60    6.40
  13  -1  -2   23.30    5.90
 -13   1  -2   31.30    5.80
 -13  -1   2   23.30    5.10
  13   1  -2   24.30    6.10
  13  -1   2   26.30    6.00
 -13   1   2   30.40    5.70
 -13   2   0   33.90    5.70
  13   2   0   36.00    7.20
  13  -2   0   40.80    6.80
 -13  -2   0   38.40    5.80
  13  -2  -1    2.70    3.40
 -13  -2   1    2.90    2.90
  13   2   1    2.30    3.60
 -13   2  -1   -1.40    2.90
 -13   2   1    7.90    3.90
  13   2  -1    1.90    3.60
 -13   2  -2    0.50    2.80
 -13  -2   2    4.10    3.00
  13   2   2    1.10    3.40
  13  -2  -2    4.20    3.80
 -13   2   2   -2.40    3.30
  13   2  -2    9.60    5.00
  13   3   0    8.50    5.00
 -13   3   0    9.60    4.30
 -13  -3   1   14.40    4.10
 -13   3  -1   17.20    4.50
  13   3   1   20.30    7.40
   0   0   0    0.00    0.00

_computing_structure_solution     'SHELXT 2014/5 (Sheldrick, 2014)'
;
_shelx_hkl_checksum              84098
loop_
_space_group_symop_operation_xyz
'x, y, z'
'-x, -y, z+1/2'
'x+1/2, -y, z'
'-x+1/2, y, z+1/2'
loop_
_atom_site_type_symbol
_atom_site_label
_atom_site_fract_x
_atom_site_fract_y
_atom_site_fract_z
_atom_site_U_iso_or_equiv
_atom_site_adp_type
_atom_site_calc_flag
_atom_site_refinement_flags_adp
_atom_site_refinement_flags_occupancy
_atom_site_refinement_flags_posn
_atom_site_occupancy
_atom_site_disorder_assembly
_atom_site_disorder_group
C C1 0.3817(2) 0.4540(3) 0.5451(3) 0.0182(5) Uani d . . . 1 . .
C C2 0.4753(2) 0.5429(3) 0.6118(3) 0.0190(5) Uani d . . . 1 . .
H H2 0.543183 0.506309 0.679628 0.023 Uiso calc U . R 1 . .
C C3 0.4687(2) 0.6846(3) 0.5786(3) 0.0179(5) Uani d . . . 1 . .
H H3 0.532784 0.74605 0.622786 0.022 Uiso calc U . R 1 . .
C C4 0.3675(2) 0.7386(2) 0.4797(3) 0.0162(5) Uani d . . . 1 . .
C C5 0.2722(2) 0.6476(3) 0.4174(3) 0.0189(5) Uani d . . . 1 . .
H H5 0.201951 0.683873 0.353502 0.023 Uiso calc U . R 1 . .
C C6 0.2799(2) 0.5053(3) 0.4486(3) 0.0195(5) Uani d . . . 1 . .
H H6 0.216311 0.443098 0.404509 0.023 Uiso calc U . R 1 . .
C C7 0.1660(2) 0.9843(3) 0.3574(3) 0.0180(5) Uani d . . . 1 . .
H H7 0.119701 1.024766 0.266713 0.022 Uiso calc U . R 1 . .
N N1 0.3902(2) 0.3039(2) 0.5765(3) 0.0255(5) Uani d . . . 1 . .
N N2 0.3628(2) 0.8813(2) 0.4527(2) 0.0181(5) Uani d . . . 1 . .
H H2A 0.408833 0.938905 0.515098 0.022 Uiso calc U . R 1 . .
N N3 0.2838(2) 0.9333(2) 0.3249(3) 0.0192(5) Uani d . . . 1 . .
H H3A 0.312374 0.932274 0.221238 0.023 Uiso calc U . R 1 . .
O O1 0.4713(2) 0.2615(2) 0.6764(3) 0.0359(5) Uani d . . . 1 . .
O O2 0.3151(2) 0.2256(2) 0.5037(4) 0.0525(8) Uani d . . . 1 . .
O O3 0.11153(16) 0.98362(19) 0.4950(2) 0.0218(4) Uani d . . . 1 . .
loop_
_atom_site_aniso_label
_atom_site_aniso_U_11
_atom_site_aniso_U_22
_atom_site_aniso_U_33
_atom_site_aniso_U_12
_atom_site_aniso_U_13
_atom_site_aniso_U_23
C1 0.0202(12) 0.0174(12) 0.0170(12) 0.0000(10) 0.0024(10) 0.0017(9)
C2 0.0162(12) 0.0225(13) 0.0183(12) 0.0028(10) -0.0004(9) 0.0007(11)
C3 0.0133(13) 0.0212(13) 0.0193(13) -0.0025(10) -0.0013(9) -0.0028(10)
C4 0.0150(10) 0.0198(11) 0.0138(11) -0.0004(9) 0.0041(10) -0.0005(10)
C5 0.0136(12) 0.0247(12) 0.0182(12) 0.0002(10) -0.0021(10) 0.0003(10)
C6 0.0167(12) 0.0228(12) 0.0188(14) -0.0040(10) -0.0003(9) -0.0020(10)
C7 0.0215(11) 0.0145(12) 0.0180(12) -0.0004(10) -0.0042(10) 0.0018(9)
N1 0.0298(13) 0.0196(11) 0.0271(13) 0.0006(10) -0.0020(10) 0.0016(9)
N2 0.0179(10) 0.0192(10) 0.0171(12) -0.0001(8) -0.0029(8) 0.0002(8)
N3 0.0229(11) 0.0213(11) 0.0134(10) 0.0002(8) -0.0023(9) 0.0020(8)
O1 0.0459(13) 0.0246(10) 0.0372(12) 0.0029(10) -0.0165(10) 0.0081(9)
O2 0.0592(15) 0.0210(11) 0.0774(19) -0.0097(10) -0.0368(16) 0.0026(11)
O3 0.0189(8) 0.0276(9) 0.0189(9) 0.0027(7) -0.0016(8) 0.0021(8)
loop_
_atom_type_symbol
_atom_type_description
_atom_type_scat_dispersion_real
_atom_type_scat_dispersion_imag
_atom_type_scat_source
C C 0.0033 0.0016 'International Tables Vol C Tables 4.2.6.8 and 6.1.1.4'
H H 0.0000 0.0000 'International Tables Vol C Tables 4.2.6.8 and 6.1.1.4'
N N 0.0061 0.0033 'International Tables Vol C Tables 4.2.6.8 and 6.1.1.4'
O O 0.0106 0.0060 'International Tables Vol C Tables 4.2.6.8 and 6.1.1.4'
loop_
_geom_angle_atom_site_label_1
_geom_angle_atom_site_label_2
_geom_angle_atom_site_label_3
_geom_angle_site_symmetry_1
_geom_angle_site_symmetry_3
_geom_angle
_geom_angle_publ_flag
C2 C1 C6 . . 121.5(2) ?
C2 C1 N1 . . 119.4(2) ?
C6 C1 N1 . . 119.1(2) ?
C3 C2 C1 . . 119.2(2) ?
C3 C2 H2 . . 120.4 ?
C1 C2 H2 . . 120.4 ?
C2 C3 C4 . . 120.3(2) ?
C2 C3 H3 . . 119.9 ?
C4 C3 H3 . . 119.9 ?
N2 C4 C3 . . 118.4(2) ?
N2 C4 C5 . . 122.1(2) ?
C3 C4 C5 . . 119.5(2) ?
C6 C5 C4 . . 120.2(2) ?
C6 C5 H5 . . 119.9 ?
C4 C5 H5 . . 119.9 ?
C5 C6 C1 . . 119.2(2) ?
C5 C6 H6 . . 120.4 ?
C1 C6 H6 . . 120.4 ?
O3 C7 N3 . . 125.8(2) ?
O3 C7 H7 . . 117.1 ?
N3 C7 H7 . . 117.1 ?
O1 N1 O2 . . 122.7(2) ?
O1 N1 C1 . . 118.6(2) ?
O2 N1 C1 . . 118.7(2) ?
C4 N2 N3 . . 119.0(2) ?
C4 N2 H2A . . 120.5 ?
N3 N2 H2A . . 120.5 ?
C7 N3 N2 . . 121.0(2) ?
C7 N3 H3A . . 119.5 ?
N2 N3 H3A . . 119.5 ?
loop_
_geom_bond_atom_site_label_1
_geom_bond_atom_site_label_2
_geom_bond_site_symmetry_2
_geom_bond_distance
_geom_bond_publ_flag
C1 C2 . 1.389(3) ?
C1 C6 . 1.389(3) ?
C1 N1 . 1.455(3) ?
C2 C3 . 1.378(3) ?
C2 H2 . 0.95 ?
C3 C4 . 1.405(3) ?
C3 H3 . 0.95 ?
C4 N2 . 1.377(3) ?
C4 C5 . 1.400(3) ?
C5 C6 . 1.381(3) ?
C5 H5 . 0.95 ?
C6 H6 . 0.95 ?
C7 O3 . 1.235(3) ?
C7 N3 . 1.331(3) ?
C7 H7 . 0.95 ?
N1 O1 . 1.223(3) ?
N1 O2 . 1.221(3) ?
N2 N3 . 1.396(3) ?
N2 H2A . 0.88 ?
N3 H3A . 0.88 ?
