#------------------------------------------------------------------------------
#$Date: 2021-09-29 11:25:38 +0300 (Wed, 29 Sep 2021) $
#$Revision: 269369 $
#$URL: file:///home/coder/svn-repositories/cod/cif/1/56/47/1564762.cif $
#------------------------------------------------------------------------------
#
# This file is available in the Crystallography Open Database (COD),
# http://www.crystallography.net/
#
# All data on this site have been placed in the public domain by the
# contributors.
#
data_1564762
loop_
_publ_author_name
'Zhang, Xiao-Yu'
'Wen, Hui-Fang'
'Yang, Qing-Feng'
'Zhou, Rui-Sha'
'Song, Jiang-Feng'
_publ_section_title
;
 Eight new coordination polymers containing rigid
 4-(4-carboxy-phenyl)-pyridine-2-carboxylic acid: Synthesis, structural
 diversity, fluorescence and magnetic properties
;
_journal_name_full               'Inorganica Chimica Acta'
_journal_page_first              119600
_journal_paper_doi               10.1016/j.ica.2020.119600
_journal_volume                  507
_journal_year                    2020
_chemical_formula_sum            'C26 H16 Cu N2 O8'
_chemical_formula_weight         547.96
_space_group_crystal_system      triclinic
_space_group_IT_number           2
_space_group_name_Hall           '-P 1'
_space_group_name_H-M_alt        'P -1'
_atom_sites_solution_hydrogens   mixed
_atom_sites_solution_primary     direct
_audit_creation_method           SHELXL-2018/3
_cell_angle_alpha                90.5500(10)
_cell_angle_beta                 97.6490(10)
_cell_angle_gamma                106.1360(10)
_cell_formula_units_Z            1
_cell_length_a                   5.04880(10)
_cell_length_b                   7.0315(2)
_cell_length_c                   15.7214(5)
_cell_measurement_reflns_used    2434
_cell_measurement_temperature    293(2)
_cell_measurement_theta_max      27.48
_cell_measurement_theta_min      3.02
_cell_volume                     530.73(3)
_computing_cell_refinement       'Bruker XSCANS'
_computing_data_collection       'Bruker XSCANS'
_computing_data_reduction        'Bruker SHELXTL'
_computing_molecular_graphics    'Bruker SHELXTL'
_computing_publication_material  'Bruker SHELXTL'
_computing_structure_refinement  'SHELXL-2018/3 (Sheldrick, 2018)'
_computing_structure_solution    'ShelXS (Sheldrick, 2008)'
_diffrn_ambient_temperature      293(2)
_diffrn_measured_fraction_theta_full 0.998
_diffrn_measured_fraction_theta_max 0.996
_diffrn_measurement_device_type  'CCD area detector'
_diffrn_measurement_method       'phi and omega scans'
_diffrn_radiation_type           MoK\a
_diffrn_radiation_wavelength     0.71073
_diffrn_reflns_av_R_equivalents  0.0223
_diffrn_reflns_av_unetI/netI     0.0174
_diffrn_reflns_Laue_measured_fraction_full 0.998
_diffrn_reflns_Laue_measured_fraction_max 0.996
_diffrn_reflns_limit_h_max       6
_diffrn_reflns_limit_h_min       -6
_diffrn_reflns_limit_k_max       9
_diffrn_reflns_limit_k_min       -9
_diffrn_reflns_limit_l_max       20
_diffrn_reflns_limit_l_min       -20
_diffrn_reflns_number            11495
_diffrn_reflns_point_group_measured_fraction_full 0.998
_diffrn_reflns_point_group_measured_fraction_max 0.996
_diffrn_reflns_theta_full        25.242
_diffrn_reflns_theta_max         27.484
_diffrn_reflns_theta_min         3.019
_diffrn_source                   'fine-focus sealed tube'
_exptl_absorpt_coefficient_mu    1.091
_exptl_absorpt_correction_T_max  0.7646
_exptl_absorpt_correction_T_min  0.6634
_exptl_absorpt_correction_type   empirical
_exptl_crystal_colour            Blue
_exptl_crystal_density_diffrn    1.714
_exptl_crystal_description       Block
_exptl_crystal_F_000             279
_exptl_crystal_size_max          0.410
_exptl_crystal_size_mid          0.320
_exptl_crystal_size_min          0.260
_refine_diff_density_max         0.342
_refine_diff_density_min         -0.214
_refine_diff_density_rms         0.049
_refine_ls_extinction_coef       .
_refine_ls_extinction_method     none
_refine_ls_goodness_of_fit_ref   1.085
_refine_ls_hydrogen_treatment    mixed
_refine_ls_matrix_type           full
_refine_ls_number_parameters     173
_refine_ls_number_reflns         2434
_refine_ls_number_restraints     1
_refine_ls_restrained_S_all      1.085
_refine_ls_R_factor_all          0.0253
_refine_ls_R_factor_gt           0.0241
_refine_ls_shift/su_max          0.001
_refine_ls_shift/su_mean         0.000
_refine_ls_structure_factor_coef Fsqd
_refine_ls_weighting_details
'w=1/[\s^2^(Fo^2^)+(0.0286P)^2^+0.2811P] where P=(Fo^2^+2Fc^2^)/3'
_refine_ls_weighting_scheme      calc
_refine_ls_wR_factor_gt          0.0644
_refine_ls_wR_factor_ref         0.0651
_reflns_Friedel_coverage         0.000
_reflns_Friedel_fraction_full    .
_reflns_Friedel_fraction_max     .
_reflns_number_gt                2351
_reflns_number_total             2434
_reflns_threshold_expression     'I > 2\s(I)'
_cod_data_source_file            ICA-2020-507-119600.cif
_cod_data_source_block           Compound_7
_cod_depositor_comments
;
The following automatic conversions were performed:

data item '_exptl_absorpt_correction_type' value 'Empirical' was
changed to 'empirical' in accordance with the built-in table derived
from the CIF Core dictionary named 'cif_core.dic' version 2.4.5 last
updated on 2014-11-21.

Automatic conversion script
Id: cif_fix_values 8369 2020-08-20 11:38:08Z andrius 
;
_cod_database_code               1564762
_shelx_shelxl_version_number     2018/3
_shelx_space_group_comment
;
The symmetry employed for this shelxl refinement is uniquely defined
by the following loop, which should always be used as a source of
symmetry information in preference to the above space-group names.
They are only intended as comments.
;
_shelx_estimated_absorpt_t_min   0.663
_shelx_estimated_absorpt_t_max   0.765
_shelx_res_file
;
TITL s in P1                          P-1
    s.res
    created by SHELXL-2018/3 at 12:02:58 on 20-Feb-2020
CELL  0.71073    5.0488    7.0315   15.7214    90.550    97.649   106.136
ZERR 1           0.0001    0.0002    0.0005     0.001     0.001     0.001
LATT 1
SFAC
SFAC C   2.3100 20.8439  1.0200 10.2075  1.5886  0.5687  0.8650 51.6512  =
        0.2156  0.0033  0.0016 11.5000 0.680 12.01000
SFAC
SFAC H   0.4930 10.5109  0.3229 26.1257  0.1402  3.1424  0.0408 57.7998  =
        0.0030  0.0000  0.0000  0.6240 0.350  1.00800
SFAC
SFAC Cu 13.3380  3.5828  7.1676  0.2470  5.6158 11.3966  1.6735 64.8127  =
        1.1910  0.3201  1.2651 5180.0000 1.520 63.55000
SFAC
SFAC N  12.2126  0.0057  3.1322  9.8933  2.0125 28.9975  1.1663  0.5826  =
       -11.5290  0.0061  0.0033 19.6000 0.680 14.01000
SFAC
SFAC O   3.0485 13.2771  2.2868  5.7011  1.5463  0.3239  0.8670 32.9089  =
        0.2508  0.0106  0.0060 32.5000 0.680 16.00000
UNIT 26 16 1 2 8
L.S. 8
ACTA
BOND $H
FMAP 2
PLAN 5
Dfix 0.85 O3 H1
HTAB C3 O1_$2
HTAB O3 O4_$3
EQIV $3 -x-2, -y, -z
HTAB C3 O1_$2
EQIV $2 -x, -y+1, -z+1
size 0.41 0.32 0.26
htab
TEMP  20
WGHT    0.028600    0.281100
FVAR       0.26871
H1    2   -0.984705   -0.055268    0.069709    11.00000    0.22151
CU1   3    1.000000    1.000000    0.500000    10.50000    0.01514    0.02690 =
         0.02077   -0.00579   -0.00039   -0.00253
O1    5    0.254784    0.716357    0.549102    11.00000    0.02556    0.04925 =
         0.03073   -0.00674    0.00923   -0.00821
O2    5    0.701702    0.892715    0.567038    11.00000    0.02125    0.03189 =
         0.02104   -0.00478    0.00074   -0.00144
O3    5   -0.827374   -0.004666    0.100852    11.00000    0.03225    0.04574 =
         0.04613    0.00312   -0.01167   -0.01013
O4    5   -0.690021    0.178259   -0.008749    11.00000    0.03857    0.05198 =
         0.03294    0.00002   -0.01455   -0.00356
N1    4    0.750467    0.822656    0.406674    11.00000    0.01659    0.02216 =
         0.02240   -0.00351   -0.00064    0.00167
C1    1    0.481168    0.777524    0.523967    11.00000    0.02094    0.02420 =
         0.02222   -0.00099    0.00147    0.00144
C2    1    0.508737    0.724626    0.432447    11.00000    0.01858    0.02116 =
         0.02125   -0.00178   -0.00057    0.00283
C3    1    0.295220    0.595319    0.378730    11.00000    0.01819    0.02226 =
         0.02411   -0.00134    0.00007    0.00082
AFIX  43
H3A   2    0.132865    0.526499    0.399384    11.00000   -1.20000
AFIX   0
C4    1    0.326439    0.569172    0.292670    11.00000    0.02052    0.02174 =
         0.02334   -0.00388   -0.00235    0.00388
C5    1    0.578467    0.672128    0.266499    11.00000    0.02388    0.03094 =
         0.02210   -0.00548    0.00182    0.00472
AFIX  43
H5    2    0.607502    0.657549    0.209907    11.00000   -1.20000
AFIX   0
C6    1    0.785453    0.796131    0.324939    11.00000    0.01790    0.02751 =
         0.02564   -0.00257    0.00318    0.00220
AFIX  43
H6    2    0.953378    0.862795    0.306877    11.00000   -1.20000
AFIX   0
C7    1    0.089590    0.444758    0.231978    11.00000    0.02078    0.02411 =
         0.02323   -0.00624   -0.00208    0.00331
C8    1   -0.105553    0.288150    0.262099    11.00000    0.03100    0.02762 =
         0.02393    0.00018   -0.00508    0.00025
AFIX  43
H8    2   -0.075117    0.252326    0.318576    11.00000   -1.20000
AFIX   0
C9    1   -0.344355    0.185356    0.208743    11.00000    0.02848    0.02602 =
         0.03149    0.00054   -0.00295   -0.00345
AFIX  43
H9    2   -0.474983    0.082556    0.229809    11.00000   -1.20000
AFIX   0
C10   1   -0.389745    0.235231    0.123700    11.00000    0.02341    0.02777 =
         0.02663   -0.00616   -0.00563    0.00235
C11   1   -0.193262    0.387753    0.092479    11.00000    0.03001    0.04036 =
         0.02085   -0.00142   -0.00325    0.00145
AFIX  43
H11   2   -0.221522    0.420102    0.035412    11.00000   -1.20000
AFIX   0
C12   1    0.045431    0.492358    0.146040    11.00000    0.02627    0.03425 =
         0.02414   -0.00102    0.00086   -0.00203
AFIX  43
H12   2    0.176433    0.594440    0.124711    11.00000   -1.20000
AFIX   0
C13   1   -0.652435    0.129216    0.068201    11.00000    0.02572    0.03043 =
         0.03219   -0.00611   -0.00679    0.00263
HKLF 4 1  1.0000  0.0000  0.0000  0.0000  1.0000  0.0000  0.0000  0.0000  1.0000




REM  s in P1                          P-1
REM wR2 = 0.0651, GooF = S = 1.085, Restrained GooF = 1.085 for all data
REM R1 = 0.0241 for 2351 Fo > 4sig(Fo) and 0.0253 for all 2434 data
REM 173 parameters refined using 1 restraints

END

WGHT      0.0298      0.2829

REM Instructions for potential hydrogen bonds
HTAB O3 O4_$3
HTAB C3 O1_$2

REM Highest difference peak  0.342,  deepest hole -0.214,  1-sigma level  0.049
Q1    1   0.3155  0.6212  0.5524  11.00000  0.05    0.34
Q2    1   0.5013  0.7509  0.4787  11.00000  0.05    0.33
Q3    1   0.2981  0.5971  0.3340  11.00000  0.05    0.31
Q4    1  -0.5135  0.1907  0.1000  11.00000  0.05    0.31
Q5    1  -0.8273  0.1362 -0.0351  11.00000  0.05    0.30
;
_shelx_res_checksum              11319
_shelx_hkl_file
;
  -1   0   0    0.95    0.06
  -1   0   0    0.90    0.07
   1   0   0    0.95    0.07
   1   0   0    0.98    0.07
  -2   0   0   15.43    0.44
  -2   0   0   15.69    0.44
   2   0   0   16.07    0.44
   2   0   0   16.00    0.43
   2   0   0   15.49    0.44
  -3   0   0   45.27    1.14
  -3   0   0   46.11    1.11
  -3   0   0   46.25    1.14
   3   0   0   46.31    1.15
   3   0   0   46.24    1.12
  -4   0   0   24.42    0.76
  -4   0   0   25.39    0.74
  -4   0   0   24.95    0.76
   4   0   0   26.22    0.75
   4   0   0   26.77    0.79
  -5   0   0    0.32    0.13
   5   0   0    0.35    0.12
  -6   0   0    5.05    0.38
   6   0   0    5.42    0.38
   6  -1   0    8.28    0.45
  -6   1   0    7.85    0.43
   5  -1   0   18.67    0.64
  -5   1   0   17.97    0.62
   4  -1   0   16.47    0.56
   4  -1   0   16.18    0.53
  -4   1   0   15.20    0.54
  -4   1   0   15.23    0.54
  -4   1   0   15.17    0.51
  -4   1   0   15.90    0.52
   3  -1   0    7.29    0.30
   3  -1   0    7.26    0.31
   3  -1   0    7.72    0.31
  -3   1   0    7.67    0.28
  -3   1   0    7.46    0.28
  -3   1   0    7.38    0.30
  -3   1   0    7.24    0.31
   2  -1   0    0.31    0.06
   2  -1   0    0.31    0.08
   2  -1   0    0.23    0.05
  -2   1   0    0.27    0.06
  -2   1   0    0.28    0.08
  -2   1   0    0.27    0.06
  -2   1   0    0.36    0.06
   1  -1   0    8.92    0.25
   1  -1   0    8.89    0.21
   1  -1   0    8.76    0.21
   1  -1   0    8.70    0.24
  -1   1   0    9.30    0.24
  -1   1   0    8.96    0.24
  -1   1   0    9.09    0.21
  -1   1   0    8.71    0.25
  -1   1   0    9.00    0.21
  -1   1   0    9.42    0.25
   0  -1   0   36.40    0.80
   0   1   0   36.88    0.80
  -1  -1   0    6.00    0.19
  -1  -1   0    5.81    0.17
  -1  -1   0    5.91    0.18
   1   1   0    6.01    0.17
   1   1   0    6.02    0.19
   1   1   0    5.98    0.17
  -2  -1   0   10.42    0.27
  -2  -1   0    9.66    0.27
  -2  -1   0   10.10    0.32
  -2  -1   0    9.76    0.33
   2   1   0   10.56    0.33
   2   1   0    9.95    0.27
   2   1   0   10.16    0.27
   2   1   0   10.32    0.34
  -3  -1   0   30.39    0.84
  -3  -1   0   31.04    0.82
  -3  -1   0   31.39    0.73
  -3  -1   0   31.80    0.73
   3   1   0   32.51    0.75
   3   1   0   32.37    0.85
   3   1   0   30.52    0.71
   3   1   0   31.72    0.83
  -4  -1   0   11.11    0.44
  -4  -1   0   11.51    0.32
   4   1   0   11.19    0.44
  -5  -1   0    5.33    0.37
   5   1   0    5.41    0.34
  -6   2   0    3.52    0.28
   5  -2   0    6.12    0.37
  -5   2   0    5.40    0.30
   4  -2   0   16.51    0.57
   4  -2   0   16.55    0.56
  -4   2   0   16.44    0.55
  -4   2   0   15.99    0.52
  -4   2   0   17.05    0.50
  -4   2   0   16.60    0.57
   3  -2   0    1.72    0.17
   3  -2   0    1.79    0.20
  -3   2   0    1.79    0.13
  -3   2   0    1.71    0.17
  -3   2   0    1.75    0.14
  -3   2   0    1.63    0.15
   2  -2   0   18.35    0.51
   2  -2   0   18.32    0.43
   2  -2   0   18.76    0.49
  -2   2   0   19.05    0.44
  -2   2   0   18.05    0.44
  -2   2   0   18.92    0.49
  -2   2   0   18.80    0.49
  -2   2   0   18.99    0.44
  -2   2   0   18.02    0.51
  -1   2   0 1000.00   21.28
   0  -2   0    6.22    0.20
   0  -2   0    6.26    0.20
   0   2   0    6.26    0.20
   0   2   0    6.29    0.20
  -1  -2   0    5.28    0.19
  -1  -2   0    5.29    0.18
  -1  -2   0    5.07    0.19
   1   2   0    5.14    0.19
   1   2   0    5.17    0.18
  -2  -2   0   53.30    1.19
  -2  -2   0   51.48    1.18
  -2  -2   0   51.16    1.20
  -2  -2   0   51.68    1.23
   2   2   0   51.32    1.19
   2   2   0   55.59    1.31
   2   2   0   52.19    1.18
  -3  -2   0  100.57    2.17
  -3  -2   0   98.35    2.24
  -3  -2   0   97.90    2.26
  -3  -2   0  100.91    2.18
   3   2   0   95.13    2.15
   3   2   0  100.37    2.16
   3   2   0  100.23    2.27
  -4  -2   0    0.55    0.10
  -4  -2   0    0.47    0.12
  -4  -2   0    0.67    0.10
  -4  -2   0    0.75    0.14
   4   2   0    0.77    0.09
   4   2   0    0.68    0.13
  -5  -2   0    6.41    0.26
  -5  -2   0    6.89    0.25
   5   2   0    7.16    0.39
  -6   3   0    1.53    0.21
   5  -3   0   13.37    0.54
   5  -3   0   12.66    0.55
  -5   3   0   12.70    0.44
  -5   3   0   13.78    0.57
   4  -3   0   13.87    0.50
   4  -3   0   13.99    0.52
  -4   3   0   14.47    0.41
  -4   3   0   13.33    0.51
  -4   3   0   13.85    0.47
  -4   3   0   13.56    0.49
   3  -3   0    4.23    0.22
   3  -3   0    3.96    0.24
  -3   3   0    4.07    0.16
  -3   3   0    4.05    0.24
  -3   3   0    3.66    0.20
  -3   3   0    4.10    0.16
  -3   3   0    3.91    0.21
  -3   3   0    3.93    0.16
   2  -3   0   43.25    0.97
   2  -3   0   42.91    1.03
   2  -3   0   42.57    0.98
   2  -3   0   43.17    0.99
  -2   3   0   43.32    1.03
  -2   3   0   41.97    0.98
  -2   3   0   42.86    0.99
  -2   3   0   43.58    0.98
   1  -3   0   56.86    1.28
   1  -3   0   57.22    1.28
   1  -3   0   57.87    1.28
   1  -3   0   56.66    1.25
  -1   3   0   55.22    1.28
  -1   3   0   58.85    1.29
   0  -3   0    0.11    0.05
   0  -3   0    0.15    0.05
   0   3   0    0.17    0.06
   0   3   0    0.23    0.07
  -1  -3   0   23.38    0.61
  -1  -3   0   22.80    0.57
  -1  -3   0   23.01    0.60
   1   3   0   22.59    0.60
   1   3   0   23.54    0.60
  -2  -3   0   41.20    0.99
  -2  -3   0   41.26    0.98
  -2  -3   0   42.60    1.01
  -2  -3   0   40.04    1.07
   2   3   0   40.75    0.99
   2   3   0   41.83    0.99
  -3  -3   0    7.50    0.31
  -3  -3   0    7.35    0.31
  -3  -3   0    7.62    0.30
  -3  -3   0    7.80    0.34
   3   3   0    7.61    0.28
   3   3   0    8.19    0.36
   3   3   0    7.79    0.29
  -4  -3   0    1.23    0.17
  -4  -3   0    1.26    0.15
  -4  -3   0    1.29    0.15
   4   3   0    1.03    0.12
   4   3   0    1.17    0.17
   4   3   0    1.23    0.13
  -5  -3   0    7.64    0.37
  -5  -3   0    6.69    0.29
   5   3   0    7.61    0.42
  -6   4   0    0.24    0.11
   5  -4   0    1.02    0.20
   5  -4   0    0.96    0.17
  -5   4   0    1.14    0.14
   4  -4   0    9.51    0.43
   4  -4   0    9.69    0.39
  -4   4   0    9.98    0.30
  -4   4   0    8.80    0.37
  -4   4   0    8.88    0.42
  -4   4   0    8.99    0.38
   3  -4   0    2.20    0.13
   3  -4   0    2.30    0.17
   3  -4   0    2.36    0.20
   3  -4   0    2.39    0.14
  -3   4   0    2.44    0.15
  -3   4   0    2.43    0.18
  -3   4   0    2.48    0.20
  -3   4   0    2.41    0.15
   2  -4   0    9.44    0.28
   2  -4   0    9.83    0.34
   2  -4   0    9.44    0.31
   2  -4   0    9.73    0.32
  -2   4   0    9.39    0.32
  -2   4   0    9.19    0.32
   1  -4   0   20.09    0.55
   1  -4   0   18.75    0.50
   1  -4   0   19.09    0.53
   1  -4   0   19.85    0.52
  -1   4   0   22.03    0.67
  -1   4   0   19.01    0.54
   0  -4   0   38.68    0.96
   0  -4   0   38.95    0.99
   0   4   0   39.52    0.96
   0   4   0   40.50    0.97
  -1  -4   0   47.33    1.19
  -1  -4   0   50.25    1.20
  -1  -4   0   49.87    1.12
   1   4   0   47.44    1.18
   1   4   0   51.61    1.19
  -2  -4   0  110.47    2.71
  -2  -4   0  109.29    2.43
  -2  -4   0  108.74    2.46
  -2  -4   0  114.16    2.50
   2   4   0  113.99    2.48
   2   4   0  108.23    2.47
  -3  -4   0    1.11    0.14
  -3  -4   0    1.49    0.15
  -3  -4   0    1.73    0.21
  -3  -4   0    1.56    0.18
   3   4   0    1.54    0.16
   3   4   0    1.33    0.14
   3   4   0    1.27    0.16
  -4  -4   0    8.72    0.36
  -4  -4   0    8.95    0.40
  -4  -4   0    8.54    0.37
   4   4   0    8.31    0.34
   4   4   0    8.67    0.43
   5  -5   0    5.90    0.44
  -5   5   0    6.57    0.24
   4  -5   0    5.70    0.34
   4  -5   0    5.78    0.23
   4  -5   0    5.77    0.30
   4  -5   0    5.67    0.22
  -4   5   0    5.87    0.25
  -4   5   0    5.96    0.26
   3  -5   0    7.31    0.28
   3  -5   0    7.58    0.34
   3  -5   0    7.15    0.29
   3  -5   0    7.06    0.28
  -3   5   0    7.51    0.30
  -3   5   0    7.25    0.29
   2  -5   0    9.08    0.30
   2  -5   0    9.44    0.34
   2  -5   0    9.94    0.36
   2  -5   0    9.75    0.35
  -2   5   0    9.27    0.35
  -2   5   0    9.81    0.36
   1  -5   0    0.62    0.10
   1  -5   0    0.74    0.10
   1  -5   0    0.61    0.10
   1  -5   0    0.79    0.13
  -1   5   0    0.77    0.12
  -1   5   0    0.99    0.14
   0  -5   0   33.50    0.87
   0  -5   0   30.76    0.84
   0   5   0   34.11    0.87
   0   5   0   31.20    0.85
  -1  -5   0   32.99    0.89
  -1  -5   0   35.04    0.92
   1   5   0   33.10    0.89
   1   5   0   34.13    0.91
  -2  -5   0    4.83    0.27
  -2  -5   0    4.99    0.24
  -2  -5   0    4.82    0.21
  -2  -5   0    5.37    0.30
   2   5   0    3.77    0.25
   2   5   0    5.08    0.28
  -3  -5   0    1.82    0.20
  -3  -5   0    1.58    0.19
  -3  -5   0    1.60    0.21
  -3  -5   0    1.98    0.16
   3   5   0    1.74    0.19
   3   5   0    1.67    0.24
  -4  -5   0    4.69    0.27
  -4  -5   0    3.95    0.27
  -4  -5   0    4.53    0.31
   4   5   0    4.28    0.27
   4   5   0    4.68    0.35
   5  -6   0   11.20    0.53
  -5   6   0    9.84    0.35
  -5   6   0   10.67    0.37
   4  -6   0    1.78    0.17
   4  -6   0    1.62    0.22
   4  -6   0    1.71    0.15
  -4   6   0    1.50    0.18
  -4   6   0    1.70    0.16
  -4   6   0    1.66    0.18
   3  -6   0    0.23    0.11
   3  -6   0    0.47    0.13
   3  -6   0    0.31    0.10
  -3   6   0    0.38    0.12
   2  -6   0   13.47    0.47
   2  -6   0   13.10    0.41
   2  -6   0   12.88    0.44
  -2   6   0   13.94    0.47
  -2   6   0   13.13    0.46
   1  -6   0   11.86    0.44
   1  -6   0   10.27    0.41
   1  -6   0   11.04    0.36
   1  -6   0   10.65    0.38
  -1   6   0   10.69    0.42
  -1   6   0   11.07    0.43
   0  -6   0    6.99    0.34
   0  -6   0    6.09    0.31
   0   6   0    6.83    0.33
   0   6   0    6.51    0.36
  -1  -6   0   17.97    0.61
  -1  -6   0   16.36    0.58
   1   6   0   17.43    0.59
  -2  -6   0    0.70    0.10
  -2  -6   0    0.49    0.10
  -2  -6   0    0.53    0.13
  -2  -6   0    0.60    0.16
   2   6   0    0.70    0.14
  -3  -6   0    9.86    0.60
  -3  -6   0    9.99    0.35
  -3  -6   0   10.68    0.48
   3   6   0   10.09    0.49
   3   6   0    9.76    0.44
   5  -7   0    0.62    0.20
   5  -7   0    0.51    0.12
  -5   7   0    0.52    0.11
  -5   7   0    0.71    0.15
   4  -7   0    0.03    0.10
   4  -7   0    0.04    0.12
  -4   7   0   -0.20    0.10
  -4   7   0    0.04    0.08
   3  -7   0    4.26    0.29
   3  -7   0    4.15    0.28
  -3   7   0    4.15    0.28
  -3   7   0    4.26    0.27
   2  -7   0    2.36    0.18
   2  -7   0    1.99    0.20
   2  -7   0    1.93    0.23
  -2   7   0    1.91    0.22
  -2   7   0    1.94    0.21
   1  -7   0   14.02    0.49
   1  -7   0   14.91    0.56
   1  -7   0   14.70    0.45
  -1   7   0   14.94    0.54
  -1   7   0   14.99    0.55
   0  -7   0   13.28    0.54
   0  -7   0   13.42    0.39
   0   7   0   13.59    0.53
  -1  -7   0    0.89    0.18
   1   7   0    0.83    0.17
  -2  -7   0    0.49    0.15
   2   7   0    0.21    0.13
   4  -8   0    0.42    0.18
   4  -8   0    0.43    0.14
  -4   8   0    0.33    0.14
  -4   8   0    0.43    0.13
   3  -8   0    1.93    0.22
   3  -8   0    1.88    0.24
  -3   8   0    1.96    0.25
  -3   8   0    2.27    0.32
   2  -8   0    2.80    0.29
   2  -8   0    2.48    0.21
   2  -8   0    3.05    0.22
  -2   8   0    2.43    0.26
  -2   8   0    2.86    0.34
   1  -8   0    0.04    0.12
   1  -8   0    0.06    0.07
  -1   8   0   -0.09    0.12
   0  -8   0    0.97    0.20
   0   8   0    1.21    0.22
  -1  -8   0    9.18    0.48
   1   8   0    8.59    0.45
   2  -9   0    1.25    0.17
   2  -9   0    0.90    0.16
   2  -9   0    1.41    0.25
  -2   9   0    0.96    0.19
   1  -9   0    0.63    0.20
  -1   9   0    0.37    0.15
  -1   9  -1    4.41    0.36
   1  -9   1    5.03    0.31
   1  -9   1    4.58    0.38
  -2   9  -1    4.00    0.35
   2  -9   1    4.73    0.25
   2  -9   1    4.00    0.26
   2  -9   1    3.61    0.27
   2  -9   1    4.80    0.37
   1   8  -1    0.47    0.14
  -1  -8   1    0.67    0.17
   0   8  -1    1.15    0.22
   0  -8   1    0.57    0.17
  -1   8  -1    0.23    0.13
   1  -8   1    0.57    0.09
   1  -8   1    0.21    0.15
   1  -8   1    0.61    0.11
  -2   8  -1    5.53    0.35
  -2   8  -1    5.42    0.51
   2  -8   1    5.62    0.36
   2  -8   1    4.73    0.26
   2  -8   1    5.80    0.28
  -3   8  -1    3.74    0.36
  -3   8  -1    3.82    0.31
   3  -8   1    3.53    0.27
   3  -8   1    3.52    0.29
  -4   8  -1    0.36    0.15
  -4   8  -1    0.26    0.12
   4  -8   1    0.42    0.16
   4  -8   1    0.19    0.13
   2   7  -1    3.80    0.29
  -2  -7   1    4.14    0.33
   1   7  -1   -0.03    0.11
  -1  -7   1   -0.07    0.13
   0   7  -1    9.40    0.43
   0  -7   1    8.92    0.43
  -1   7  -1    7.67    0.37
  -1   7  -1    7.83    0.38
   1  -7   1    7.82    0.39
   1  -7   1    7.56    0.28
   1  -7   1    7.18    0.32
  -2   7  -1    0.21    0.10
  -2   7  -1    0.64    0.14
   2  -7   1    0.20    0.12
   2  -7   1    0.35    0.09
   2  -7   1    0.25    0.10
  -3   7  -1    1.38    0.17
  -3   7  -1    1.35    0.19
   3  -7   1    1.40    0.19
   3  -7   1    1.19    0.18
  -4   7  -1    4.19    0.28
  -4   7  -1    4.32    0.26
   4  -7   1    4.12    0.26
   4  -7   1    4.22    0.31
  -5   7  -1    3.17    0.24
  -5   7  -1    3.55    0.22
   5  -7   1    3.04    0.31
   5  -7   1    2.74    0.20
   3   6  -1    1.41    0.20
   3   6  -1    1.14    0.18
  -3  -6   1    1.53    0.33
  -3  -6   1    1.13    0.27
  -3  -6   1    1.16    0.18
   2   6  -1    0.03    0.08
  -2  -6   1    0.22    0.13
  -2  -6   1    0.00    0.11
  -2  -6   1    0.05    0.07
  -2  -6   1    0.16    0.06
   1   6  -1   24.45    0.74
  -1  -6   1   24.76    0.76
  -1  -6   1   23.48    0.73
   0   6  -1    3.47    0.25
   0   6  -1    2.93    0.24
   0  -6   1    3.18    0.23
   0  -6   1    3.23    0.25
  -1   6  -1   24.27    0.73
  -1   6  -1   26.28    0.75
   1  -6   1   24.95    0.64
   1  -6   1   26.87    0.76
   1  -6   1   23.37    0.71
  -2   6  -1   15.31    0.51
  -2   6  -1   14.58    0.50
   2  -6   1   14.81    0.42
   2  -6   1   15.79    0.52
   2  -6   1   14.73    0.53
  -3   6  -1    2.82    0.23
   3  -6   1    2.29    0.19
   3  -6   1    2.55    0.22
   3  -6   1    2.71    0.18
   3  -6   1    3.14    0.24
  -4   6  -1    0.09    0.08
  -4   6  -1    0.19    0.09
   4  -6   1    0.07    0.08
   4  -6   1    0.02    0.10
   4  -6   1   -0.03    0.07
   4  -6   1    0.19    0.07
  -5   6  -1    3.81    0.21
  -5   6  -1    4.16    0.23
   5  -6   1    4.11    0.34
   4   5  -1    6.30    0.38
   4   5  -1    5.84    0.31
  -4  -5   1    6.13    0.32
  -4  -5   1    6.21    0.35
  -4  -5   1    6.33    0.30
   3   5  -1    3.82    0.34
   3   5  -1    3.61    0.24
  -3  -5   1    3.62    0.25
  -3  -5   1    3.78    0.25
  -3  -5   1    3.77    0.20
  -3  -5   1    3.19    0.32
   2   5  -1    9.88    0.41
   2   5  -1   12.59    0.45
  -2  -5   1   12.42    0.45
  -2  -5   1   12.37    0.47
  -2  -5   1   12.20    0.40
  -2  -5   1   11.94    0.35
   1   5  -1   11.86    0.43
   1   5  -1   11.92    0.43
  -1  -5   1   11.74    0.43
  -1  -5   1   12.22    0.45
  -1  -5   1   11.64    0.35
   0   5  -1    0.13    0.09
   0   5  -1    0.11    0.07
   0  -5   1    0.15    0.09
   0  -5   1    0.15    0.06
   0  -5   1    0.21    0.11
  -1   5  -1    3.61    0.22
  -1   5  -1    3.07    0.20
   1  -5   1    3.20    0.17
   1  -5   1    2.94    0.19
   1  -5   1    3.34    0.22
  -2   5  -1    8.04    0.32
  -2   5  -1    7.64    0.31
   2  -5   1    7.89    0.25
   2  -5   1    8.14    0.31
   2  -5   1    8.12    0.32
   2  -5   1    7.32    0.30
  -3   5  -1   37.33    0.91
  -3   5  -1   35.08    0.89
   3  -5   1   36.01    0.89
   3  -5   1   35.71    0.89
   3  -5   1   35.02    0.95
   3  -5   1   35.06    0.88
  -4   5  -1   10.17    0.45
  -4   5  -1   10.03    0.41
  -4   5  -1   11.08    0.36
  -4   5  -1   10.11    0.35
   4  -5   1   10.28    0.33
   4  -5   1   10.73    0.41
   4  -5   1   10.37    0.45
   4  -5   1    9.89    0.32
  -5   5  -1    0.15    0.07
   5  -5   1    0.18    0.13
   5  -5   1   -0.02    0.09
   4   4  -1    2.76    0.26
   4   4  -1    2.42    0.19
  -4  -4   1    2.53    0.21
  -4  -4   1    2.55    0.21
  -4  -4   1    2.60    0.29
   3   4  -1    0.09    0.06
   3   4  -1    0.11    0.08
   3   4  -1    0.14    0.08
  -3  -4   1    0.09    0.07
  -3  -4   1    0.01    0.09
  -3  -4   1   -0.02    0.10
  -3  -4   1    0.08    0.08
   2   4  -1   48.85    1.16
   2   4  -1   45.55    1.14
  -2  -4   1   47.22    1.17
  -2  -4   1   47.38    1.14
  -2  -4   1   46.10    1.08
  -2  -4   1   46.23    1.34
   1   4  -1    6.85    0.28
   1   4  -1    7.21    0.29
  -1  -4   1    7.13    0.30
  -1  -4   1    7.15    0.24
  -1  -4   1    7.27    0.30
   0   4  -1   15.71    0.47
   0   4  -1   16.55    0.48
   0  -4   1   15.87    0.49
   0  -4   1   15.60    0.46
  -1   4  -1    0.25    0.08
   1  -4   1    0.19    0.06
   1  -4   1    0.10    0.06
   1  -4   1    0.14    0.07
  -2   4  -1   91.70    2.08
  -2   4  -1   97.30    2.09
   2  -4   1   94.65    2.08
   2  -4   1   93.55    2.10
   2  -4   1   93.87    2.07
   2  -4   1   94.31    2.05
  -3   4  -1    7.97    0.28
  -3   4  -1    7.96    0.34
  -3   4  -1    7.42    0.30
  -3   4  -1    7.62    0.27
   3  -4   1    7.41    0.25
   3  -4   1    7.80    0.26
   3  -4   1    7.57    0.33
   3  -4   1    7.57    0.30
  -4   4  -1    6.69    0.32
  -4   4  -1    6.98    0.32
  -4   4  -1    7.25    0.25
   4  -4   1    7.22    0.34
   4  -4   1    6.93    0.36
   5  -4   1    4.30    0.31
   5   3  -1    0.99    0.20
  -5  -3   1    1.05    0.23
  -5  -3   1    0.86    0.12
   4   3  -1    6.36    0.35
   4   3  -1    5.95    0.25
   4   3  -1    5.85    0.28
  -4  -3   1    6.16    0.31
  -4  -3   1    6.67    0.29
  -4  -3   1    6.34    0.27
   3   3  -1  146.95    3.19
   3   3  -1  134.23    3.08
   3   3  -1  142.71    3.09
  -3  -3   1  139.69    3.12
  -3  -3   1  142.24    3.18
  -3  -3   1  141.68    3.10
  -3  -3   1  147.17    3.12
   2   3  -1   16.80    0.49
   2   3  -1   16.03    0.46
   2   3  -1   15.45    0.45
  -2  -3   1   15.03    0.43
  -2  -3   1   15.22    0.60
  -2  -3   1   15.56    0.46
  -2  -3   1   15.97    0.47
   1   3  -1    0.17    0.07
   1   3  -1    0.21    0.07
  -1  -3   1    0.19    0.06
  -1  -3   1    0.17    0.06
  -1  -3   1    0.22    0.05
   0   3  -1   52.38    1.21
   0   3  -1   54.98    1.22
   0  -3   1   53.30    1.22
   0  -3   1   52.62    1.21
  -1   3  -1   19.88    0.51
  -1   3  -1   20.00    0.51
   1  -3   1   20.19    0.52
   1  -3   1   19.86    0.50
   1  -3   1   20.33    0.47
   1  -3   1   19.76    0.51
  -2   3  -1   49.24    1.09
  -2   3  -1   48.17    1.14
  -2   3  -1   48.05    1.09
   2  -3   1   48.48    1.11
   2  -3   1   48.64    1.09
   2  -3   1   48.21    1.14
   2  -3   1   47.33    1.08
  -3   3  -1   19.27    0.55
  -3   3  -1   19.55    0.56
  -3   3  -1   19.50    0.59
  -3   3  -1   19.74    0.48
  -3   3  -1   18.63    0.48
   3  -3   1   19.11    0.58
   3  -3   1   19.72    0.63
   3  -3   1   19.47    0.46
  -4   3  -1    0.16    0.09
  -4   3  -1    0.13    0.07
  -4   3  -1   -0.11    0.07
  -4   3  -1    0.08    0.07
   4  -3   1   -0.03    0.08
   4  -3   1    0.03    0.10
  -5   3  -1    1.66    0.18
   5  -3   1    1.92    0.25
  -6   3  -1    4.63    0.29
   5   2  -1    2.48    0.25
  -5  -2   1    2.51    0.15
  -5  -2   1    2.53    0.30
  -5  -2   1    2.54    0.17
   4   2  -1    0.49    0.12
   4   2  -1    0.44    0.07
  -4  -2   1    0.47    0.11
  -4  -2   1    0.50    0.09
  -4  -2   1    0.57    0.13
  -4  -2   1    0.39    0.09
   3   2  -1   34.48    0.81
   3   2  -1   33.72    0.81
   3   2  -1   34.06    0.90
  -3  -2   1   33.75    0.88
  -3  -2   1   35.32    0.83
  -3  -2   1   33.48    0.91
  -3  -2   1   33.82    0.82
   2   2  -1   18.84    0.50
   2   2  -1   19.26    0.53
   2   2  -1   19.30    0.49
  -2  -2   1   18.98    0.50
  -2  -2   1   18.97    0.50
  -2  -2   1   18.88    0.53
  -2  -2   1   18.57    0.49
   1   2  -1    4.37    0.17
   1   2  -1    4.38    0.17
  -1  -2   1    4.37    0.17
  -1  -2   1    4.64    0.15
  -1  -2   1    4.50    0.17
  -1  -2   1    4.52    0.18
   0   2  -1   25.63    0.60
   0   2  -1   24.50    0.59
   0  -2   1   24.78    0.60
   0  -2   1   25.39    0.59
  -1   2  -1  804.05   17.25
  -2   2  -1   25.94    0.58
  -2   2  -1   25.38    0.64
  -2   2  -1   24.82    0.65
  -2   2  -1   25.35    0.62
  -2   2  -1   24.60    0.58
  -2   2  -1   25.59    0.56
   2  -2   1   25.58    0.65
   2  -2   1   25.04    0.63
   2  -2   1   24.59    0.57
  -3   2  -1   30.10    0.76
  -3   2  -1   28.41    0.79
  -3   2  -1   29.33    0.78
  -3   2  -1   29.56    0.71
   3  -2   1   29.35    0.80
   3  -2   1   30.06    0.80
  -4   2  -1   10.56    0.42
  -4   2  -1   10.54    0.36
  -4   2  -1   10.32    0.39
  -4   2  -1    9.88    0.42
   4  -2   1   10.77    0.43
  -5   2  -1   25.22    0.74
   5  -2   1   24.95    0.82
  -6   2  -1   -0.03    0.10
   6   1  -1   -0.10    0.10
  -6  -1   1    0.02    0.15
   5   1  -1   15.38    0.60
  -5  -1   1   16.89    0.65
   4   1  -1  117.46    2.64
  -4  -1   1  106.10    2.87
  -4  -1   1  115.40    2.64
  -4  -1   1  122.55    2.48
   3   1  -1   12.54    0.33
   3   1  -1   13.17    0.43
  -3  -1   1   12.79    0.44
  -3  -1   1   13.17    0.35
  -3  -1   1   12.80    0.34
  -3  -1   1   12.95    0.42
   2   1  -1   18.85    0.50
   2   1  -1   18.19    0.44
   2   1  -1   18.11    0.44
  -2  -1   1   18.07    0.51
  -2  -1   1   18.01    0.44
  -2  -1   1   18.20    0.48
  -2  -1   1   18.47    0.45
   1   1  -1   86.82    1.81
   1   1  -1   82.61    1.79
   1   1  -1   83.75    1.79
  -1  -1   1   83.41    1.79
  -1  -1   1   83.77    1.79
  -1  -1   1   84.40    1.82
  -1  -1   1   83.58    1.79
   0   1  -1    9.58    0.24
   0   1  -1    9.37    0.25
   0  -1   1    9.29    0.25
  -1   1  -1   16.19    0.38
  -1   1  -1   16.14    0.36
  -1   1  -1   16.24    0.36
  -1   1  -1   15.73    0.40
  -1   1  -1   16.83    0.40
   1  -1   1   16.16    0.39
   1  -1   1   14.95    0.37
   1  -1   1   16.13    0.36
   1  -1   1   15.75    0.40
  -2   1  -1   65.80    1.53
  -2   1  -1   68.50    1.51
   2  -1   1   67.66    1.53
   2  -1   1   70.02    1.51
   2  -1   1   68.15    1.54
  -3   1  -1    6.15    0.28
  -3   1  -1    6.57    0.29
  -3   1  -1    6.29    0.26
   3  -1   1    6.66    0.28
   3  -1   1    6.83    0.29
  -4   1  -1    7.06    0.34
  -4   1  -1    6.77    0.31
  -4   1  -1    6.99    0.32
  -4   1  -1    6.53    0.34
   4  -1   1    7.07    0.33
   4  -1   1    7.27    0.35
  -5   1  -1   10.99    0.45
   5  -1   1   10.44    0.46
   5  -1   1   10.34    0.49
  -6   1  -1    3.35    0.30
   6  -1   1    3.26    0.31
   6   0  -1    4.69    0.35
  -6   0   1    3.96    0.36
   5   0  -1    0.81    0.15
  -5   0   1    0.60    0.16
   4   0  -1   28.40    0.80
  -4   0   1   28.40    0.83
  -4   0   1   28.23    0.82
  -4   0   1   27.39    0.78
  -4   0   1   26.79    0.80
   3   0  -1   13.97    0.58
   3   0  -1   13.11    0.44
   3   0  -1   13.03    0.42
  -3   0   1   13.05    0.42
  -3   0   1   13.21    0.43
  -3   0   1   12.39    0.43
   2   0  -1    5.94    0.22
   2   0  -1    5.83    0.23
   2   0  -1    6.06    0.22
  -2   0   1    5.99    0.21
  -2   0   1    5.86    0.22
   1   0  -1   16.82    0.41
   1   0  -1   16.91    0.40
  -1   0   1   16.91    0.41
  -1   0   1   17.13    0.37
  -1   0   1   17.02    0.42
  -1   0   1   16.81    0.41
  -1   0   1   17.47    0.37
  -1   0   1   16.98    0.40
  -1   0  -1    2.96    0.11
  -1   0  -1    3.05    0.09
  -1   0  -1    2.99    0.09
  -1   0  -1    2.85    0.12
   1   0   1    3.03    0.09
   1   0   1    2.80    0.12
   1   0   1    2.93    0.11
  -2   0  -1   46.62    1.07
  -2   0  -1   46.54    1.00
  -2   0  -1   47.55    1.00
  -2   0  -1   46.16    1.09
  -2   0  -1   46.42    1.09
   2   0   1   46.25    1.07
   2   0   1   46.77    1.10
  -3   0  -1    9.67    0.34
  -3   0  -1    9.34    0.36
  -3   0  -1    9.91    0.36
   3   0   1   10.32    0.38
   3   0   1    9.81    0.35
  -4   0  -1  140.16    3.18
  -4   0  -1  135.13    3.17
   4   0   1  144.79    3.16
   4   0   1  142.48    3.20
  -5   0  -1    0.71    0.16
   5   0   1    0.66    0.18
   5   0   1    0.39    0.11
  -6   0  -1    0.06    0.13
   6   0   1   -0.05    0.11
  -6   1   1    5.31    0.37
   5  -1  -1    8.42    0.40
  -5   1   1    8.20    0.40
   4  -1  -1   14.59    0.49
   4  -1  -1   14.57    0.52
  -4   1   1   13.38    0.50
  -4   1   1   13.10    0.47
  -4   1   1   13.67    0.50
  -4   1   1   14.58    0.49
   3  -1  -1   45.59    1.16
   3  -1  -1   46.10    1.17
   3  -1  -1   46.99    1.12
  -3   1   1   45.85    1.14
  -3   1   1   46.63    1.14
  -3   1   1   47.88    1.12
  -3   1   1   47.27    1.12
   2  -1  -1   89.55    2.00
   2  -1  -1   93.76    2.00
   2  -1  -1   89.10    2.01
  -2   1   1   90.57    2.01
  -2   1   1   90.30    2.01
  -2   1   1   92.78    2.00
  -2   1   1   93.25    1.98
   1  -1  -1  190.76    4.27
  -1   1   1  196.47    4.27
   0  -1  -1   57.68    1.25
   0   1   1   59.29    1.25
  -1  -1  -1  110.32    2.30
  -1  -1  -1  107.36    2.31
  -1  -1  -1  109.35    2.30
   1   1   1  106.67    2.29
   1   1   1  109.03    2.32
   1   1   1  106.77    2.29
  -2  -1  -1   36.71    0.89
  -2  -1  -1   36.46    0.83
  -2  -1  -1   36.70    0.82
  -2  -1  -1   35.85    0.88
   2   1   1   36.73    0.89
   2   1   1   36.05    0.88
   2   1   1   36.06    0.82
   2   1   1   36.57    0.82
  -3  -1  -1   21.24    0.63
  -3  -1  -1   20.81    0.62
  -3  -1  -1   21.34    0.53
  -3  -1  -1   21.42    0.52
   3   1   1   21.83    0.64
   3   1   1   21.99    0.62
   3   1   1   20.92    0.51
  -4  -1  -1    2.34    0.22
  -4  -1  -1    2.34    0.26
  -4  -1  -1    2.58    0.14
  -4  -1  -1    2.46    0.13
   4   1   1    2.65    0.24
   4   1   1    2.61    0.21
   5   1   1    1.83    0.23
  -6   2   1    3.99    0.30
   5  -2  -1    8.38    0.42
  -5   2   1    7.81    0.36
   4  -2  -1    0.20    0.10
   4  -2  -1    0.18    0.11
  -4   2   1    0.18    0.08
  -4   2   1    0.07    0.10
  -4   2   1    0.22    0.08
  -4   2   1    0.20    0.09
   3  -2  -1   78.69    1.82
   3  -2  -1   76.83    1.80
  -3   2   1   79.98    1.80
  -3   2   1   78.31    1.82
  -3   2   1   78.76    1.74
  -3   2   1   77.46    1.78
   2  -2  -1   11.94    0.37
   2  -2  -1   12.00    0.30
   2  -2  -1   11.98    0.35
   2  -2  -1   12.09    0.32
  -2   2   1   12.16    0.35
  -2   2   1   12.12    0.30
  -2   2   1   12.55    0.32
  -2   2   1   12.32    0.31
  -2   2   1   12.22    0.35
   1  -2  -1  178.51    3.78
   1  -2  -1  178.79    3.76
   1  -2  -1  175.17    3.76
   1  -2  -1  177.48    3.76
  -1   2   1  184.83    3.74
  -1   2   1  181.82    3.76
  -1   2   1  172.69    3.76
   0  -2  -1    1.89    0.11
  -1  -2  -1   27.78    0.67
  -1  -2  -1   27.69    0.65
  -1  -2  -1   28.02    0.66
   1   2   1   27.19    0.66
   1   2   1   27.69    0.66
   1   2   1   27.95    0.66
  -2  -2  -1   29.32    0.72
  -2  -2  -1   29.48    0.71
  -2  -2  -1   28.75    0.74
   2   2   1   29.90    0.78
   2   2   1   29.20    0.75
   2   2   1   29.57    0.71
  -3  -2  -1  207.16    4.56
  -3  -2  -1  216.63    4.50
  -3  -2  -1  210.80    4.49
  -3  -2  -1  203.54    4.58
   3   2   1  215.93    4.60
   3   2   1  205.30    4.47
   3   2   1  215.99    4.59
   3   2   1  211.14    4.47
  -4  -2  -1    0.88    0.15
  -4  -2  -1    0.48    0.11
  -4  -2  -1    0.95    0.12
  -4  -2  -1    0.87    0.10
   4   2   1    0.82    0.10
   4   2   1    0.58    0.11
  -5  -2  -1    1.34    0.14
  -5  -2  -1    1.37    0.14
   5   2   1    1.14    0.19
  -6   3   1    0.48    0.14
   5  -3  -1   10.58    0.49
  -5   3   1   10.04    0.45
  -5   3   1   11.56    0.56
   4  -3  -1   15.60    0.56
   4  -3  -1   15.74    0.53
  -4   3   1   15.04    0.55
  -4   3   1   15.17    0.52
  -4   3   1   16.01    0.46
  -4   3   1   15.66    0.51
   3  -3  -1   43.38    0.96
   3  -3  -1   44.33    1.06
   3  -3  -1   44.24    1.10
  -3   3   1   42.40    0.97
  -3   3   1   43.47    0.98
  -3   3   1   43.37    1.00
  -3   3   1   44.07    1.25
  -3   3   1   42.63    1.06
  -3   3   1   43.58    1.10
   2  -3  -1   82.72    1.81
   2  -3  -1   83.80    1.87
   2  -3  -1   81.76    1.78
   2  -3  -1   81.92    1.80
   2  -3  -1   81.74    1.81
  -2   3   1   84.10    1.81
  -2   3   1   83.82    1.81
  -2   3   1   83.61    1.81
  -2   3   1   83.18    1.78
   1  -3  -1   31.26    0.74
   1  -3  -1   30.73    0.74
   1  -3  -1   30.94    0.72
  -1   3   1   29.57    0.74
  -1   3   1   31.74    0.74
   0  -3  -1   24.59    0.62
   0  -3  -1   25.24    0.63
   0   3   1   25.43    0.63
   0   3   1   24.69    0.63
  -1  -3  -1   12.48    0.38
  -1  -3  -1   12.50    0.34
  -1  -3  -1   11.92    0.37
   1   3   1   12.55    0.37
   1   3   1   11.95    0.37
  -2  -3  -1   23.20    0.77
  -2  -3  -1   22.25    0.61
  -2  -3  -1   22.41    0.61
   2   3   1   22.96    0.60
   2   3   1   22.11    0.60
  -3  -3  -1   15.17    0.50
  -3  -3  -1   15.89    0.49
  -3  -3  -1   15.72    0.52
  -3  -3  -1   15.37    0.47
   3   3   1   16.21    0.54
   3   3   1   15.92    0.47
   3   3   1   15.67    0.46
  -4  -3  -1    6.26    0.35
  -4  -3  -1    6.51    0.29
  -4  -3  -1    6.15    0.27
   4   3   1    5.88    0.52
   4   3   1    6.98    0.26
   4   3   1    6.04    0.25
  -5  -3  -1    0.15    0.09
  -5  -3  -1    0.15    0.09
   5   3   1   -0.01    0.10
  -6   4   1    1.01    0.15
   5  -4  -1    0.21    0.13
  -5   4   1    0.21    0.09
  -5   4   1    0.04    0.09
   4  -4  -1   55.48    1.40
  -4   4   1   53.63    1.23
  -4   4   1   53.64    1.34
  -4   4   1   52.41    1.33
  -4   4   1   58.36    1.23
  -4   4   1   50.26    1.31
   3  -4  -1    5.91    0.25
   3  -4  -1    5.83    0.22
   3  -4  -1    5.85    0.30
   3  -4  -1    6.11    0.22
  -3   4   1    6.00    0.23
  -3   4   1    5.72    0.19
  -3   4   1    5.99    0.23
  -3   4   1    5.78    0.25
   2  -4  -1    6.08    0.25
   2  -4  -1    6.21    0.27
   2  -4  -1    6.37    0.22
   2  -4  -1    5.77    0.24
  -2   4   1    5.99    0.25
  -2   4   1    5.70    0.24
   1  -4  -1   19.93    0.54
   1  -4  -1   18.87    0.53
   1  -4  -1   19.34    0.51
  -1   4   1   19.18    0.53
   0  -4  -1   28.85    0.75
   0   4   1   30.39    0.76
   0   4   1   28.43    0.75
  -1  -4  -1    5.37    0.25
  -1  -4  -1    5.87    0.27
  -1  -4  -1    5.92    0.21
   1   4   1    5.83    0.26
   1   4   1    5.42    0.25
  -2  -4  -1   22.24    0.70
  -2  -4  -1   22.86    0.63
  -2  -4  -1   23.58    0.67
   2   4   1   24.59    0.66
   2   4   1   22.61    0.65
  -3  -4  -1    1.41    0.16
  -3  -4  -1    1.20    0.16
  -3  -4  -1    1.48    0.18
   3   4   1    1.70    0.20
   3   4   1    1.30    0.16
   3   4   1    1.30    0.14
  -4  -4  -1    5.87    0.29
  -4  -4  -1    6.21    0.32
  -4  -4  -1    6.01    0.33
   4   4   1    6.36    0.29
   4   4   1    6.31    0.37
   6  -5  -1    1.11    0.25
   5  -5  -1    2.59    0.34
  -5   5   1    2.29    0.15
   4  -5  -1    4.83    0.31
   4  -5  -1    4.51    0.20
   4  -5  -1    4.76    0.21
  -4   5   1    5.19    0.24
  -4   5   1    4.49    0.22
  -4   5   1    3.97    0.26
   3  -5  -1    6.15    0.27
   3  -5  -1    6.16    0.25
   3  -5  -1    6.32    0.32
  -3   5   1    6.36    0.28
  -3   5   1    6.15    0.27
   2  -5  -1   20.06    0.73
   2  -5  -1   20.20    0.57
   2  -5  -1   19.00    0.55
   2  -5  -1   18.95    0.53
  -2   5   1   19.87    0.57
  -2   5   1   19.01    0.56
   1  -5  -1   24.27    0.67
   1  -5  -1   24.74    0.64
   1  -5  -1   23.78    0.64
   1  -5  -1   22.56    0.65
  -1   5   1   22.76    0.66
  -1   5   1   23.95    0.67
   0  -5  -1    7.31    0.32
   0  -5  -1    6.55    0.30
   0   5   1    7.45    0.32
  -1  -5  -1   18.20    0.57
  -1  -5  -1   19.22    0.60
   1   5   1   17.66    0.57
   1   5   1   19.82    0.59
  -2  -5  -1   43.87    1.17
  -2  -5  -1   45.36    1.12
  -2  -5  -1   48.09    1.21
   2   5   1   47.55    1.18
  -3  -5  -1    5.06    0.28
  -3  -5  -1    4.35    0.29
  -3  -5  -1    4.94    0.25
  -3  -5  -1    4.20    0.27
   3   5   1    4.90    0.27
   3   5   1    4.77    0.32
  -4  -5  -1    3.57    0.29
  -4  -5  -1    3.53    0.26
  -4  -5  -1    4.51    0.25
   4   5   1    3.00    0.24
   4   5   1    3.34    0.31
   5  -6  -1    9.90    0.49
  -5   6   1    9.58    0.35
  -5   6   1    8.15    0.32
   4  -6  -1    2.90    0.27
   4  -6  -1    2.79    0.18
   4  -6  -1    2.66    0.19
  -4   6   1    2.34    0.23
  -4   6   1    3.29    0.20
  -4   6   1    2.98    0.21
   3  -6  -1    1.51    0.21
   3  -6  -1    1.64    0.16
   3  -6  -1    1.54    0.18
  -3   6   1    1.05    0.15
  -3   6   1    1.25    0.26
   2  -6  -1    5.43    0.25
   2  -6  -1    4.97    0.27
   2  -6  -1    5.17    0.41
   2  -6  -1    5.07    0.28
  -2   6   1    5.66    0.29
  -2   6   1    4.80    0.27
   1  -6  -1   20.26    0.60
   1  -6  -1   20.76    0.64
   1  -6  -1   19.09    0.61
   1  -6  -1   20.91    0.58
  -1   6   1   19.47    0.62
  -1   6   1   20.24    0.63
   0  -6  -1    0.55    0.11
   0  -6  -1    0.90    0.16
   0   6   1    0.80    0.14
   0   6   1    0.75    0.22
  -1  -6  -1    1.27    0.18
  -1  -6  -1    1.76    0.22
   1   6   1    1.57    0.20
  -2  -6  -1   16.45    0.48
  -2  -6  -1   15.26    0.67
  -2  -6  -1   16.29    0.60
   2   6   1   16.63    0.58
  -3  -6  -1    7.00    0.30
  -3  -6  -1    6.79    0.39
  -3  -6  -1    7.58    0.43
   3   6   1    6.71    0.40
   3   6   1    6.54    0.35
   5  -7  -1    0.58    0.11
   5  -7  -1    0.79    0.20
  -5   7   1    0.65    0.11
  -5   7   1    0.78    0.15
   4  -7  -1    2.61    0.26
   4  -7  -1    2.02    0.20
  -4   7   1    1.87    0.20
  -4   7   1    2.12    0.23
   3  -7  -1    4.92    0.31
   3  -7  -1    5.30    0.31
  -3   7   1    5.39    0.30
  -3   7   1    5.58    0.32
   2  -7  -1   12.81    0.45
   2  -7  -1   13.49    0.47
   2  -7  -1   13.81    0.51
  -2   7   1   13.41    0.51
  -2   7   1   13.09    0.50
   1  -7  -1    1.62    0.21
   1  -7  -1    1.82    0.27
   1  -7  -1    2.00    0.19
  -1   7   1    1.49    0.20
  -1   7   1    1.73    0.21
   0  -7  -1    3.26    0.25
   0  -7  -1    3.65    0.29
   0   7   1    3.59    0.28
  -1  -7  -1   15.68    0.61
   1   7   1   15.25    0.59
  -2  -7  -1    1.54    0.22
   2   7   1    1.79    0.24
   4  -8  -1    0.40    0.20
   4  -8  -1    0.43    0.14
  -4   8   1    0.30    0.14
  -4   8   1    0.26    0.13
   3  -8  -1    2.68    0.27
   3  -8  -1    2.51    0.25
  -3   8   1    2.76    0.28
  -3   8   1    2.74    0.30
   2  -8  -1    7.78    0.35
   2  -8  -1    8.29    0.43
   2  -8  -1    8.12    0.36
  -2   8   1    8.25    0.42
   1  -8  -1    0.17    0.14
   1  -8  -1    0.23    0.09
  -1   8   1    0.06    0.11
   0  -8  -1    0.15    0.08
   0  -8  -1   -0.11    0.12
   0   8   1    0.27    0.16
  -1  -8  -1    9.06    0.49
   1   8   1    9.15    0.47
   2  -9  -1    0.16    0.10
   2  -9  -1   -0.26    0.15
   2  -9  -1   -0.25    0.13
  -2   9   1   -0.09    0.12
   1  -9  -1    0.18    0.08
   1  -9  -1    0.10    0.16
  -1   9   1   -0.01    0.14
  -1   9  -2    0.69    0.19
   1  -9   2    0.78    0.17
   1  -9   2    0.53    0.18
  -2   9  -2    2.79    0.31
   2  -9   2    2.98    0.23
   2  -9   2    2.69    0.23
   2  -9   2    3.54    0.33
   1   8  -2    0.06    0.11
  -1  -8   2    0.38    0.15
   0   8  -2   16.23    0.63
   0  -8   2   15.48    0.63
  -1   8  -2    1.71    0.25
   1  -8   2    2.18    0.19
   1  -8   2    1.42    0.23
  -2   8  -2    1.44    0.22
   2  -8   2    1.41    0.16
   2  -8   2    1.30    0.20
   2  -8   2    1.61    0.15
   2  -8   2    1.95    0.17
  -3   8  -2    3.51    0.30
  -3   8  -2    3.68    0.32
   3  -8   2    3.55    0.30
   3  -8   2    3.41    0.26
  -4   8  -2    0.06    0.12
  -4   8  -2    0.04    0.12
   4  -8   2    0.15    0.13
   4  -8   2    0.25    0.13
   2   7  -2    0.90    0.17
  -2  -7   2    1.01    0.20
   1   7  -2    3.60    0.29
  -1  -7   2    4.27    0.33
   0   7  -2    4.11    0.30
   0  -7   2    4.62    0.32
  -1   7  -2    2.99    0.25
  -1   7  -2    3.25    0.27
   1  -7   2    3.08    0.16
   1  -7   2    3.29    0.27
  -2   7  -2    0.44    0.11
  -2   7  -2    0.38    0.12
   2  -7   2    0.46    0.14
   2  -7   2    0.64    0.12
   2  -7   2    0.38    0.08
   2  -7   2    0.36    0.08
  -3   7  -2    0.35    0.13
  -3   7  -2    0.24    0.11
   3  -7   2    0.55    0.14
   3  -7   2    0.34    0.13
  -4   7  -2   10.23    0.42
  -4   7  -2   10.28    0.41
   4  -7   2    9.73    0.38
   4  -7   2    9.91    0.39
   4  -7   2   10.01    0.46
  -5   7  -2    4.15    0.26
  -5   7  -2    4.09    0.24
   5  -7   2    4.23    0.23
   3   6  -2    4.63    0.32
   3   6  -2    4.36    0.30
  -3  -6   2    4.77    0.46
  -3  -6   2    4.90    0.33
  -3  -6   2    3.57    0.32
   2   6  -2    0.54    0.13
  -2  -6   2    0.59    0.11
  -2  -6   2    0.62    0.14
  -2  -6   2    0.80    0.17
   1   6  -2   48.59    1.24
  -1  -6   2   48.02    1.25
  -1  -6   2   45.43    1.22
   0   6  -2   12.38    0.46
   0   6  -2   11.62    0.51
   0  -6   2   11.58    0.46
   0  -6   2   11.27    0.44
  -1   6  -2    0.62    0.14
  -1   6  -2    0.56    0.12
   1  -6   2    0.51    0.09
   1  -6   2    0.42    0.13
   1  -6   2    0.56    0.14
  -2   6  -2    0.19    0.09
  -2   6  -2    0.23    0.10
   2  -6   2    0.28    0.06
   2  -6   2    0.11    0.09
   2  -6   2    0.42    0.12
   2  -6   2    0.31    0.11
  -3   6  -2   12.79    0.51
  -3   6  -2   13.71    0.47
   3  -6   2   12.93    0.41
   3  -6   2   11.76    0.43
   3  -6   2   13.18    0.46
   3  -6   2   12.97    0.48
  -4   6  -2    2.49    0.19
  -4   6  -2    2.94    0.21
  -4   6  -2    2.36    0.21
   4  -6   2    2.84    0.18
   4  -6   2    2.43    0.25
   4  -6   2    2.57    0.21
   4  -6   2    2.56    0.19
  -5   6  -2    2.85    0.18
  -5   6  -2    2.31    0.18
   5  -6   2    2.72    0.26
   4   5  -2    0.85    0.18
   4   5  -2    0.81    0.15
  -4  -5   2    0.81    0.15
  -4  -5   2    0.77    0.17
  -4  -5   2    0.72    0.13
   3   5  -2    0.07    0.08
   3   5  -2   -0.01    0.08
  -3  -5   2    0.10    0.09
  -3  -5   2    0.04    0.08
  -3  -5   2   -0.12    0.12
  -3  -5   2    0.13    0.07
   2   5  -2   48.54    1.18
  -2  -5   2   44.76    1.12
  -2  -5   2   47.42    1.20
  -2  -5   2   44.11    1.03
  -2  -5   2   44.17    1.16
   1   5  -2   21.57    0.64
   1   5  -2   20.06    0.62
  -1  -5   2   20.49    0.63
  -1  -5   2   22.28    0.65
  -1  -5   2   21.05    0.55
   0   5  -2   13.29    0.44
   0   5  -2   11.95    0.42
   0  -5   2   12.78    0.45
   0  -5   2   11.87    0.42
  -1   5  -2    5.31    0.25
  -1   5  -2    5.12    0.26
   1  -5   2    5.18    0.20
   1  -5   2    5.08    0.26
   1  -5   2    5.07    0.24
  -2   5  -2   18.95    0.55
  -2   5  -2   18.34    0.54
   2  -5   2   17.40    0.52
   2  -5   2   17.73    0.54
   2  -5   2   16.95    0.52
   2  -5   2   18.22    0.48
  -3   5  -2   11.08    0.38
  -3   5  -2   11.76    0.44
  -3   5  -2   11.49    0.39
   3  -5   2   11.21    0.37
   3  -5   2   11.96    0.40
   3  -5   2   11.81    0.39
   3  -5   2   11.44    0.43
  -4   5  -2    3.49    0.20
  -4   5  -2    3.32    0.19
  -4   5  -2    2.90    0.24
  -4   5  -2    3.07    0.22
   4  -5   2    3.00    0.26
   4  -5   2    3.09    0.16
   4  -5   2    3.07    0.23
   4  -5   2    2.94    0.17
  -5   5  -2    1.36    0.12
   5  -5   2    1.16    0.18
   6  -5   2    1.09    0.20
   4   4  -2   12.10    0.42
   4   4  -2   12.72    0.52
  -4  -4   2   11.82    0.44
  -4  -4   2   12.42    0.45
  -4  -4   2   12.07    0.55
   3   4  -2    5.37    0.25
   3   4  -2    6.05    0.27
   3   4  -2    5.71    0.31
  -3  -4   2    4.81    0.39
  -3  -4   2    5.49    0.29
  -3  -4   2    5.27    0.29
   2   4  -2   50.18    1.20
   2   4  -2   46.58    1.16
   2   4  -2   49.20    1.18
  -2  -4   2   47.49    1.24
  -2  -4   2   46.69    1.16
  -2  -4   2   48.58    1.19
  -2  -4   2   46.86    1.09
   1   4  -2   52.94    1.29
   1   4  -2   56.29    1.30
  -1  -4   2   54.19    1.30
  -1  -4   2   55.59    1.31
  -1  -4   2   54.06    1.24
   0   4  -2    5.30    0.24
   0   4  -2    5.97    0.25
   0  -4   2    5.47    0.29
  -1   4  -2   23.79    0.63
  -1   4  -2   23.48    0.64
   1  -4   2   23.29    0.58
   1  -4   2   24.51    0.63
   1  -4   2   22.73    0.62
  -2   4  -2  161.82    3.51
  -2   4  -2  169.65    3.52
  -2   4  -2  161.42    3.53
   2  -4   2  164.40    3.49
   2  -4   2  162.57    3.51
   2  -4   2  160.11    3.52
   2  -4   2  160.09    3.50
  -3   4  -2    8.38    0.36
  -3   4  -2    8.69    0.32
  -3   4  -2    8.93    0.30
  -3   4  -2    9.38    0.31
   3  -4   2    8.98    0.36
   3  -4   2    8.85    0.28
   3  -4   2    9.04    0.29
  -4   4  -2    5.65    0.28
  -4   4  -2    5.06    0.47
  -4   4  -2    5.31    0.21
  -4   4  -2    5.80    0.22
   4  -4   2    5.88    0.31
   4  -4   2    5.88    0.34
   5  -4   2    3.47    0.29
   6  -4   2    6.96    0.44
   5   3  -2    0.22    0.13
  -5  -3   2    0.35    0.17
  -5  -3   2    0.12    0.09
   4   3  -2    6.54    0.26
   4   3  -2    6.37    0.29
   4   3  -2    6.92    0.36
  -4  -3   2    6.53    0.28
  -4  -3   2    6.41    0.31
  -4  -3   2    6.67    0.30
   3   3  -2   32.14    0.89
   3   3  -2   32.31    0.82
   3   3  -2   32.91    0.82
  -3  -3   2   32.53    0.83
  -3  -3   2   32.23    0.89
  -3  -3   2   31.43    0.88
  -3  -3   2   34.07    0.85
   2   3  -2   29.90    0.79
   2   3  -2   30.38    0.77
   2   3  -2   29.35    0.76
  -2  -3   2   30.77    0.81
  -2  -3   2   31.35    0.78
  -2  -3   2   30.78    0.77
  -2  -3   2   29.62    0.73
   1   3  -2   62.98    1.46
   1   3  -2   64.17    1.46
  -1  -3   2   64.53    1.44
  -1  -3   2   65.37    1.47
  -1  -3   2   64.20    1.46
   0   3  -2   19.97    0.52
   0   3  -2   19.04    0.51
   0  -3   2   19.12    0.51
  -1   3  -2  151.65    3.24
  -1   3  -2  157.49    3.27
  -1   3  -2  151.15    3.26
   1  -3   2  156.72    3.27
   1  -3   2  148.03    3.24
   1  -3   2  150.85    3.26
  -2   3  -2    0.25    0.08
  -2   3  -2    0.25    0.06
  -2   3  -2    0.22    0.06
   2  -3   2    0.14    0.05
   2  -3   2    0.27    0.06
   2  -3   2    0.17    0.06
   2  -3   2    0.22    0.08
  -3   3  -2    0.22    0.10
  -3   3  -2    0.22    0.07
  -3   3  -2    0.17    0.05
  -3   3  -2    0.20    0.06
   3  -3   2    0.27    0.05
   3  -3   2    0.19    0.08
   3  -3   2    0.13    0.09
  -4   3  -2   14.17    0.53
  -4   3  -2   15.19    0.41
  -4   3  -2   14.87    0.49
   4  -3   2   14.60    0.52
  -5   3  -2   11.93    0.41
   5  -3   2   12.91    0.53
  -6   3  -2    8.26    0.36
   6  -3   2    8.90    0.49
   5   2  -2   14.31    0.58
  -5  -2   2   16.08    0.67
  -5  -2   2   14.77    0.44
  -5  -2   2   14.61    0.43
  -5  -2   2   14.91    0.66
   4   2  -2    0.26    0.06
   4   2  -2    0.22    0.09
  -4  -2   2    0.20    0.13
  -4  -2   2    0.38    0.09
  -4  -2   2    0.31    0.08
  -4  -2   2    0.20    0.09
  -4  -2   2    0.31    0.11
   3   2  -2   53.37    1.23
   3   2  -2   54.32    1.32
   3   2  -2   53.82    1.23
  -3  -2   2   54.82    1.24
  -3  -2   2   53.97    1.34
  -3  -2   2   56.72    1.25
  -3  -2   2   52.25    1.30
   2   2  -2   79.99    1.79
   2   2  -2   78.32    1.80
   2   2  -2   79.41    1.75
  -2  -2   2   80.48    1.75
  -2  -2   2   80.58    1.76
  -2  -2   2   79.46    1.80
  -2  -2   2   78.32    1.75
   1   2  -2    0.12    0.04
   1   2  -2    0.10    0.05
  -1  -2   2    0.14    0.05
  -1  -2   2    0.10    0.05
  -1  -2   2    0.10    0.03
   0   2  -2    0.13    0.05
   0   2  -2    0.13    0.05
   0  -2   2    0.14    0.05
   0  -2   2    0.16    0.05
  -1   2  -2  385.72    8.63
  -2   2  -2    0.19    0.07
  -2   2  -2    0.15    0.05
  -2   2  -2    0.15    0.04
  -2   2  -2    0.16    0.05
   2  -2   2    0.16    0.04
   2  -2   2    0.14    0.04
   2  -2   2    0.09    0.05
   2  -2   2    0.06    0.06
  -3   2  -2    0.46    0.07
  -3   2  -2    0.37    0.08
  -3   2  -2    0.39    0.11
  -3   2  -2    0.40    0.07
   3  -2   2    0.33    0.08
  -4   2  -2    3.93    0.26
  -4   2  -2    3.70    0.25
  -4   2  -2    3.52    0.22
  -4   2  -2    3.73    0.21
   4  -2   2    3.89    0.26
   4  -2   2    3.81    0.25
  -5   2  -2   47.71    1.20
   5  -2   2   46.67    1.30
  -6   2  -2    0.00    0.11
   6  -2   2    0.33    0.15
   6   1  -2    5.78    0.39
  -6  -1   2    6.02    0.44
   5   1  -2    9.72    0.45
  -5  -1   2    9.25    0.48
  -5  -1   2    8.53    0.43
   4   1  -2    5.74    0.30
  -4  -1   2    4.97    0.46
  -4  -1   2    6.02    0.35
  -4  -1   2    6.06    0.21
  -4  -1   2    5.90    0.30
  -4  -1   2    5.94    0.20
   3   1  -2   18.53    0.55
   3   1  -2   18.15    0.45
  -3  -1   2   18.00    0.53
  -3  -1   2   18.65    0.46
  -3  -1   2   18.09    0.56
  -3  -1   2   18.99    0.47
   2   1  -2   51.27    1.16
   2   1  -2   50.22    1.11
   2   1  -2   51.21    1.15
   2   1  -2   49.58    1.11
  -2  -1   2   49.68    1.11
  -2  -1   2   49.00    1.15
  -2  -1   2   50.65    1.18
  -2  -1   2   51.78    1.12
   1   1  -2   30.67    0.70
   1   1  -2   31.28    0.70
   1   1  -2   31.59    0.71
   1   1  -2   31.02    0.69
  -1  -1   2   30.11    0.69
  -1  -1   2   30.96    0.70
  -1  -1   2   31.39    0.70
  -1   1  -2    0.14    0.03
  -1   1  -2    0.14    0.04
  -1   1  -2    0.11    0.03
  -1   1  -2    0.14    0.03
  -1   1  -2    0.16    0.03
   1  -1   2    0.22    0.04
   1  -1   2    0.16    0.03
   1  -1   2    0.14    0.03
  -2   1  -2    0.08    0.03
  -2   1  -2    0.11    0.05
  -2   1  -2    0.18    0.04
  -2   1  -2    0.16    0.05
  -2   1  -2    0.14    0.07
   2  -1   2    0.06    0.06
   2  -1   2    0.12    0.05
  -3   1  -2   74.34    1.77
  -3   1  -2   75.89    1.78
  -3   1  -2   76.79    1.74
   3  -1   2   79.90    1.79
   3  -1   2   76.61    1.76
  -4   1  -2   55.97    1.42
  -4   1  -2   55.26    1.41
  -4   1  -2   53.66    1.36
   4  -1   2   56.06    1.42
   4  -1   2   57.05    1.38
  -5   1  -2    2.17    0.23
   5  -1   2    1.58    0.20
   5  -1   2    2.04    0.25
  -6   1  -2    2.13    0.26
   6  -1   2    1.87    0.24
   6   0  -2   16.01    0.65
  -6   0   2   16.70    0.69
   5   0  -2   12.45    0.51
  -5   0   2   12.03    0.52
  -5   0   2   12.74    0.53
   4   0  -2   34.04    0.93
  -4   0   2   34.04    0.92
  -4   0   2   34.67    0.97
  -4   0   2   35.65    0.96
  -4   0   2   33.50    0.94
   3   0  -2   14.01    0.44
   3   0  -2   13.48    0.45
  -3   0   2   13.83    0.44
  -3   0   2   13.74    0.43
  -3   0   2   13.77    0.46
  -3   0   2   14.01    0.46
   2   0  -2   52.99    1.20
   2   0  -2   52.89    1.21
  -2   0   2   54.30    1.22
  -2   0   2   52.12    1.20
  -2   0   2   52.79    1.22
  -2   0   2   53.27    1.13
  -2   0   2   51.07    1.20
  -2   0   2   52.95    1.13
   1   0  -2    5.53    0.15
   1   0  -2    5.72    0.17
   1   0  -2    5.81    0.19
   1   0  -2    5.64    0.15
   1   0  -2    5.55    0.18
  -1   0   2    5.86    0.15
  -1   0   2    5.53    0.17
  -1   0   2    5.62    0.19
  -1   0   2    5.66    0.15
  -1   0  -2    1.59    0.08
  -1   0  -2    1.64    0.08
   1   0   2    1.64    0.10
   1   0   2    1.70    0.09
   1   0   2    1.54    0.07
   1   0   2    1.56    0.08
  -2   0  -2   50.85    1.19
  -2   0  -2   49.58    1.18
  -2   0  -2   50.93    1.10
  -2   0  -2   52.31    1.12
   2   0   2   49.85    1.10
   2   0   2   50.74    1.19
   2   0   2   51.33    1.17
  -3   0  -2   18.55    0.57
  -3   0  -2   18.40    0.57
  -3   0  -2   18.86    0.45
   3   0   2   18.97    0.58
   3   0   2   19.32    0.55
  -4   0  -2   80.13    2.04
  -4   0  -2   79.45    1.94
   4   0   2   82.90    1.96
   4   0   2   82.34    1.92
   5   0   2    0.16    0.13
   5   0   2    0.06    0.16
  -6   0  -2    5.79    0.39
   6   0   2    5.11    0.37
  -6   1   2    1.69    0.24
   5  -1  -2    7.23    0.38
  -5   1   2    7.66    0.38
  -5   1   2    7.37    0.43
   4  -1  -2   19.36    0.63
   4  -1  -2   19.37    0.61
  -4   1   2   20.58    0.62
  -4   1   2   19.29    0.60
  -4   1   2   18.74    0.62
  -4   1   2   19.22    0.62
   3  -1  -2   24.31    0.66
   3  -1  -2   24.05    0.74
  -3   1   2   24.05    0.68
  -3   1   2   25.73    0.66
  -3   1   2   23.82    0.67
  -3   1   2   24.71    0.66
   2  -1  -2   25.10    0.64
   2  -1  -2   24.58    0.61
  -2   1   2   24.44    0.63
  -2   1   2   24.90    0.62
  -2   1   2   24.79    0.63
  -2   1   2   25.12    0.62
   1  -1  -2  430.49    9.12
  -1   1   2  413.86    9.10
   0  -1  -2   47.79    1.06
   0  -1  -2   49.40    1.04
   0  -1  -2   47.12    1.04
   0   1   2   46.77    1.04
   0   1   2   47.90    1.06
   0   1   2   48.39    1.04
  -1  -1  -2    1.56    0.09
  -1  -1  -2    1.59    0.10
  -1  -1  -2    1.69    0.09
   1   1   2    1.50    0.09
   1   1   2    1.56    0.10
   1   1   2    1.63    0.09
  -2  -1  -2   46.05    1.10
  -2  -1  -2   47.26    1.05
  -2  -1  -2   47.62    1.04
   2   1   2   45.41    1.04
   2   1   2   45.96    1.04
   2   1   2   47.22    1.10
   2   1   2   47.19    1.11
  -3  -1  -2   66.14    1.48
  -3  -1  -2   64.97    1.58
  -3  -1  -2   64.35    1.58
  -3  -1  -2   66.87    1.47
   3   1   2   68.32    1.58
   3   1   2   67.08    1.48
   3   1   2   68.60    1.60
  -4  -1  -2    1.16    0.17
  -4  -1  -2    1.22    0.11
  -4  -1  -2    1.17    0.10
  -4  -1  -2    0.76    0.13
   4   1   2    1.25    0.17
   4   1   2    1.50    0.20
   5   1   2   10.44    0.47
   5   1   2   10.72    0.52
  -6   2   2    8.82    0.44
   5  -2  -2    4.10    0.31
  -5   2   2    4.33    0.28
  -5   2   2    4.76    0.46
   4  -2  -2    5.53    0.31
  -4   2   2    5.40    0.27
  -4   2   2    5.32    0.29
  -4   2   2    4.84    0.26
   3  -2  -2   61.61    1.47
  -3   2   2   60.90    1.47
  -3   2   2   62.86    1.41
  -3   2   2   61.53    1.45
  -3   2   2   61.83    1.44
   2  -2  -2    2.99    0.12
   2  -2  -2    2.83    0.17
   2  -2  -2    3.00    0.11
   2  -2  -2    2.91    0.14
  -2   2   2    2.81    0.12
  -2   2   2    3.01    0.12
  -2   2   2    2.93    0.15
  -2   2   2    3.11    0.15
   1  -2  -2  242.27    5.11
  -1   2   2  245.48    5.12
  -1   2   2  243.56    5.09
   0  -2  -2   19.81    0.49
   0  -2  -2   20.51    0.50
   0   2   2   19.39    0.49
   0   2   2   20.24    0.50
  -1  -2  -2    8.39    0.26
  -1  -2  -2    8.39    0.27
  -1  -2  -2    8.63    0.26
   1   2   2    8.45    0.26
   1   2   2    8.14    0.26
   1   2   2    8.53    0.26
  -2  -2  -2   38.42    0.96
  -2  -2  -2   40.10    0.95
  -2  -2  -2   39.59    0.93
   2   2   2   39.98    0.97
   2   2   2   40.14    0.93
   2   2   2   39.53    0.93
  -3  -2  -2    1.46    0.14
  -3  -2  -2    1.45    0.15
  -3  -2  -2    1.74    0.18
  -3  -2  -2    1.70    0.17
   3   2   2    1.52    0.13
   3   2   2    2.07    0.19
   3   2   2    1.82    0.18
   3   2   2    1.77    0.13
  -4  -2  -2    0.21    0.08
  -4  -2  -2    0.18    0.07
  -4  -2  -2    0.05    0.09
   4   2   2    0.23    0.10
   4   2   2    0.09    0.11
   4   2   2    0.26    0.06
  -5  -2  -2   15.48    0.46
   5   2   2   15.74    0.62
  -6   3   2    0.81    0.17
   5  -3  -2    5.24    0.35
  -5   3   2    4.97    0.32
  -5   3   2    5.29    0.28
   4  -3  -2   10.34    0.44
  -4   3   2    9.92    0.40
  -4   3   2   10.21    0.44
  -4   3   2    9.98    0.39
  -4   3   2   10.72    0.37
   3  -3  -2    0.37    0.11
   3  -3  -2    0.36    0.07
   3  -3  -2    0.30    0.06
  -3   3   2    0.21    0.07
  -3   3   2    0.25    0.06
  -3   3   2    0.21    0.13
  -3   3   2    0.30    0.06
  -3   3   2    0.38    0.09
   2  -3  -2    1.18    0.10
   2  -3  -2    0.88    0.10
   2  -3  -2    0.81    0.10
   2  -3  -2    1.11    0.14
  -2   3   2    0.84    0.10
  -2   3   2    0.90    0.10
  -2   3   2    0.88    0.10
  -2   3   2    1.06    0.11
   1  -3  -2   72.10    1.60
   1  -3  -2   71.43    1.61
   1  -3  -2   72.47    1.60
  -1   3   2   74.80    1.61
  -1   3   2   71.09    1.60
   0  -3  -2    9.03    0.29
   0  -3  -2    9.26    0.30
   0   3   2    8.95    0.30
   0   3   2    9.14    0.29
  -1  -3  -2   14.58    0.42
  -1  -3  -2   15.18    0.53
   1   3   2   14.35    0.42
   1   3   2   14.34    0.39
   1   3   2   14.26    0.42
  -2  -3  -2   72.88    1.66
  -2  -3  -2   70.73    1.65
  -2  -3  -2   73.32    1.73
   2   3   2   72.58    1.67
   2   3   2   70.79    1.64
   2   3   2   74.46    1.65
  -3  -3  -2   13.48    0.44
  -3  -3  -2   14.08    0.44
  -3  -3  -2   13.43    0.47
  -3  -3  -2   13.08    0.47
   3   3   2   13.59    0.42
   3   3   2   14.03    0.43
   3   3   2   13.58    0.50
   3   3   2   14.37    0.50
  -4  -3  -2   11.82    0.41
  -4  -3  -2   11.29    0.39
  -4  -3  -2   11.17    0.45
   4   3   2   10.66    0.36
   4   3   2   11.26    0.37
   4   3   2   11.08    0.52
  -5  -3  -2   17.95    0.55
  -5  -3  -2   18.66    0.56
   5   3   2   18.93    0.72
   6  -4  -2    0.32    0.18
  -6   4   2    0.29    0.12
   5  -4  -2   11.83    0.52
  -5   4   2   10.54    0.46
  -5   4   2   11.15    0.40
   4  -4  -2   19.18    0.65
  -4   4   2   18.31    0.58
  -4   4   2   19.20    0.49
  -4   4   2   17.97    0.48
  -4   4   2   18.54    0.52
  -4   4   2   18.26    0.59
   3  -4  -2    7.95    0.26
   3  -4  -2    8.49    0.28
   3  -4  -2    7.89    0.27
   3  -4  -2    8.63    0.36
  -3   4   2    8.01    0.28
  -3   4   2    8.31    0.29
  -3   4   2    8.14    0.30
  -3   4   2    8.38    0.27
   2  -4  -2   79.91    1.81
   2  -4  -2   78.46    1.76
   2  -4  -2   78.74    1.77
   2  -4  -2   77.69    1.75
  -2   4   2   82.15    1.78
  -2   4   2   77.74    1.77
  -2   4   2   78.09    1.71
   1  -4  -2   16.55    0.48
   1  -4  -2   16.93    0.49
   1  -4  -2   16.20    0.47
  -1   4   2   16.23    0.48
  -1   4   2   17.63    0.55
   0  -4  -2   99.43    2.22
   0  -4  -2  102.59    2.26
   0   4   2   95.33    2.22
   0   4   2  101.78    2.24
  -1  -4  -2    2.83    0.19
  -1  -4  -2    2.68    0.20
   1   4   2    2.81    0.18
   1   4   2    3.28    0.20
  -2  -4  -2   17.21    0.54
  -2  -4  -2   16.54    0.50
  -2  -4  -2   16.99    0.52
   2   4   2   17.21    0.53
   2   4   2   16.33    0.51
  -3  -4  -2    7.20    0.32
  -3  -4  -2    7.29    0.33
  -3  -4  -2    7.19    0.32
  -3  -4  -2    6.95    0.33
   3   4   2    7.16    0.36
   3   4   2    5.93    0.29
   3   4   2    7.69    0.31
  -4  -4  -2   16.84    0.62
  -4  -4  -2   16.25    0.58
  -4  -4  -2   16.91    0.57
   4   4   2   16.72    0.53
   4   4   2   17.63    0.66
   6  -5  -2    0.34    0.15
   5  -5  -2    6.03    0.41
  -5   5   2    5.52    0.22
  -5   5   2    6.18    0.24
  -5   5   2    5.38    0.33
   4  -5  -2    0.34    0.13
   4  -5  -2    0.38    0.09
   4  -5  -2    0.30    0.07
  -4   5   2    0.19    0.10
  -4   5   2    0.30    0.09
  -4   5   2    0.28    0.08
  -4   5   2    0.39    0.10
   3  -5  -2    0.03    0.07
   3  -5  -2    0.05    0.10
   3  -5  -2   -0.06    0.07
   3  -5  -2    0.15    0.06
  -3   5   2   -0.09    0.06
  -3   5   2    0.01    0.09
   2  -5  -2   25.22    0.70
   2  -5  -2   24.04    0.66
   2  -5  -2   24.45    0.67
   2  -5  -2   25.30    0.68
  -2   5   2   24.90    0.68
  -2   5   2   24.82    0.68
   1  -5  -2   10.27    0.37
   1  -5  -2   10.75    0.39
   1  -5  -2   10.27    0.37
  -1   5   2   10.34    0.38
  -1   5   2   11.04    0.39
   0  -5  -2   10.97    0.40
   0  -5  -2   11.29    0.42
   0   5   2   11.36    0.41
   0   5   2   10.82    0.40
  -1  -5  -2   37.89    0.99
  -1  -5  -2   36.88    0.97
   1   5   2   34.50    0.96
   1   5   2   39.42    0.99
  -2  -5  -2    4.67    0.27
  -2  -5  -2    4.84    0.29
   2   5   2    4.46    0.27
  -3  -5  -2    2.14    0.20
  -3  -5  -2    2.47    0.20
  -3  -5  -2    2.49    0.24
   3   5   2    2.56    0.25
   3   5   2    2.20    0.21
  -4  -5  -2   15.20    0.57
  -4  -5  -2   14.94    0.54
  -4  -5  -2   16.26    0.58
   4   5   2   15.15    0.64
   4   5   2   14.69    0.53
   5  -6  -2    1.39    0.25
  -5   6   2    1.20    0.15
  -5   6   2    1.21    0.15
   4  -6  -2    2.40    0.19
   4  -6  -2    2.82    0.18
   4  -6  -2    2.86    0.27
  -4   6   2    2.95    0.21
  -4   6   2    2.67    0.20
   3  -6  -2    4.61    0.24
   3  -6  -2    4.92    0.30
   3  -6  -2    4.40    0.20
   3  -6  -2    4.86    0.26
  -3   6   2    3.89    0.25
  -3   6   2    4.69    0.27
   2  -6  -2   12.33    0.49
   2  -6  -2   13.24    0.44
   2  -6  -2   13.30    0.47
   2  -6  -2   14.06    0.48
  -2   6   2   13.06    0.47
  -2   6   2   13.12    0.46
   1  -6  -2   36.24    0.96
   1  -6  -2   36.15    1.06
   1  -6  -2   38.68    1.00
  -1   6   2   37.97    1.00
  -1   6   2   35.42    0.98
   0  -6  -2    1.03    0.15
   0  -6  -2    1.42    0.17
   0  -6  -2    1.29    0.18
   0   6   2    1.07    0.15
   0   6   2    1.23    0.19
  -1  -6  -2    1.36    0.19
  -1  -6  -2    1.41    0.19
   1   6   2    1.42    0.19
  -2  -6  -2   12.50    0.51
  -2  -6  -2   11.79    0.64
   2   6   2   12.18    0.48
  -3  -6  -2    7.66    0.42
  -3  -6  -2    8.00    0.40
  -3  -6  -2    8.96    0.35
   3   6   2    8.03    0.39
   3   6   2    8.26    0.45
   5  -7  -2    2.72    0.31
   5  -7  -2    2.23    0.19
  -5   7   2    2.42    0.23
  -5   7   2    2.71    0.20
   4  -7  -2    1.41    0.21
   4  -7  -2    1.42    0.17
  -4   7   2    1.33    0.17
  -4   7   2    1.50    0.18
   3  -7  -2    1.19    0.15
   3  -7  -2    1.58    0.22
   3  -7  -2    1.50    0.20
  -3   7   2    1.47    0.19
  -3   7   2    1.17    0.17
   2  -7  -2    2.35    0.22
   2  -7  -2    2.54    0.21
   2  -7  -2    2.07    0.23
  -2   7   2    2.07    0.22
  -2   7   2    2.08    0.24
   1  -7  -2    2.21    0.20
   1  -7  -2    2.54    0.21
   1  -7  -2    2.01    0.24
  -1   7   2    2.61    0.26
  -1   7   2    1.98    0.22
   0  -7  -2    3.16    0.28
   0  -7  -2    3.63    0.26
   0   7   2    3.44    0.28
  -1  -7  -2    0.59    0.18
   1   7   2    0.41    0.15
  -2  -7  -2    2.81    0.28
  -2  -7  -2    3.50    0.19
   2   7   2    3.19    0.28
   4  -8  -2   -0.03    0.11
   4  -8  -2   -0.09    0.12
  -4   8   2    0.04    0.12
  -4   8   2    0.19    0.13
   3  -8  -2    8.82    0.43
   3  -8  -2    8.40    0.42
   3  -8  -2    7.99    0.33
  -3   8   2    8.36    0.41
  -3   8   2    9.60    0.44
   2  -8  -2    2.80    0.24
   2  -8  -2    2.86    0.24
   2  -8  -2    2.37    0.28
  -2   8   2    2.94    0.27
   1  -8  -2    4.58    0.42
   1  -8  -2    4.17    0.27
   1  -8  -2    3.83    0.24
  -1   8   2    4.61    0.33
   0  -8  -2    8.13    0.45
   0  -8  -2    7.85    0.33
   0   8   2    8.59    0.45
  -1  -8  -2    2.95    0.31
   1   8   2    2.73    0.30
   2  -9  -2    1.03    0.16
   2  -9  -2    0.85    0.20
   2  -9  -2    0.88    0.21
  -2   9   2    0.80    0.20
  -2   9  -3    1.95    0.26
   2  -9   3    1.80    0.25
   2  -9   3    1.54    0.18
   2  -9   3    1.28    0.20
   1   8  -3    0.26    0.14
  -1  -8   3    0.19    0.14
   0   8  -3   18.98    0.70
   0  -8   3   18.74    0.70
  -1   8  -3    3.14    0.29
   1  -8   3    2.97    0.24
   1  -8   3    3.20    0.22
   1  -8   3    3.04    0.30
  -2   8  -3    1.24    0.20
   2  -8   3    1.51    0.15
   2  -8   3    1.37    0.21
   2  -8   3    1.44    0.15
  -3   8  -3    0.57    0.16
  -3   8  -3    0.82    0.16
   3  -8   3    0.67    0.16
  -4   8  -3    6.00    0.34
  -4   8  -3    5.79    0.35
   4  -8   3    5.80    0.35
   2   7  -3    1.12    0.18
   2   7  -3    1.24    0.18
  -2  -7   3    1.17    0.15
  -2  -7   3    1.27    0.21
   1   7  -3   12.08    0.51
  -1  -7   3   12.68    0.54
   0   7  -3    9.41    0.44
   0  -7   3    9.41    0.45
  -1   7  -3    4.24    0.28
  -1   7  -3    4.44    0.30
   1  -7   3    4.57    0.26
   1  -7   3    4.62    0.31
  -2   7  -3    0.21    0.09
  -2   7  -3    0.07    0.12
   2  -7   3    0.24    0.16
   2  -7   3    0.17    0.11
  -3   7  -3    4.44    0.28
  -3   7  -3    4.60    0.47
   3  -7   3    4.94    0.29
   3  -7   3    4.73    0.30
  -4   7  -3    0.82    0.13
  -4   7  -3    0.53    0.14
  -4   7  -3    0.50    0.15
   4  -7   3    0.57    0.12
   4  -7   3    0.71    0.14
  -5   7  -3    1.04    0.15
  -5   7  -3    1.52    0.17
   5  -7   3    1.00    0.13
   5  -7   3    1.00    0.17
   3   6  -3   12.32    0.49
   3   6  -3   11.95    0.51
  -3  -6   3   11.35    0.46
  -3  -6   3   12.28    0.57
  -3  -6   3   11.84    0.51
   2   6  -3   -0.04    0.09
   2   6  -3    0.07    0.08
  -2  -6   3   -0.01    0.07
  -2  -6   3    0.15    0.12
   1   6  -3   11.26    0.45
  -1  -6   3    9.93    0.45
  -1  -6   3   10.25    0.34
  -1  -6   3   10.57    0.45
   0   6  -3    7.31    0.35
   0   6  -3    6.78    0.49
   0  -6   3    7.13    0.35
   0  -6   3    7.02    0.36
  -1   6  -3    3.40    0.24
  -1   6  -3    4.06    0.26
   1  -6   3    3.41    0.25
   1  -6   3    3.69    0.16
  -2   6  -3    0.30    0.11
  -2   6  -3    0.16    0.10
   2  -6   3    0.08    0.07
   2  -6   3    0.12    0.06
   2  -6   3    0.07    0.08
   2  -6   3    0.17    0.10
  -3   6  -3   48.96    1.24
  -3   6  -3   53.43    1.27
   3  -6   3   50.92    1.24
   3  -6   3   46.82    1.22
   3  -6   3   51.54    1.28
  -4   6  -3    0.87    0.13
  -4   6  -3    0.54    0.11
  -4   6  -3    0.83    0.13
   4  -6   3    0.77    0.13
   4  -6   3    0.87    0.12
   4  -6   3    0.74    0.13
  -5   6  -3    0.78    0.11
  -5   6  -3    0.45    0.10
   5  -6   3    0.44    0.13
   4   5  -3    0.12    0.12
   4   5  -3    0.21    0.10
  -4  -5   3    0.23    0.12
  -4  -5   3    0.28    0.12
  -4  -5   3    0.12    0.15
  -4  -5   3    0.18    0.11
   3   5  -3    1.46    0.19
   3   5  -3    1.35    0.17
  -3  -5   3    1.44    0.18
  -3  -5   3    1.41    0.12
  -3  -5   3    1.75    0.23
  -3  -5   3    1.53    0.18
   2   5  -3   31.75    0.87
   2   5  -3   31.69    0.87
  -2  -5   3   30.76    0.87
  -2  -5   3   32.27    0.89
  -2  -5   3   30.64    0.83
   1   5  -3    9.76    0.39
   1   5  -3    9.92    0.38
  -1  -5   3   10.08    0.40
  -1  -5   3    9.53    0.32
  -1  -5   3    9.81    0.38
   0   5  -3    5.74    0.28
   0   5  -3    6.49    0.30
   0  -5   3    5.45    0.27
   0  -5   3    5.75    0.29
  -1   5  -3    6.86    0.30
  -1   5  -3    6.71    0.29
   1  -5   3    6.89    0.29
   1  -5   3    6.51    0.22
   1  -5   3    6.41    0.30
  -2   5  -3   51.54    1.25
  -2   5  -3   53.50    1.25
   2  -5   3   50.51    1.22
   2  -5   3   52.28    1.25
   2  -5   3   51.53    1.19
   2  -5   3   49.97    1.23
  -3   5  -3    0.23    0.09
  -3   5  -3    0.27    0.10
  -3   5  -3    0.31    0.11
  -3   5  -3    0.11    0.07
   3  -5   3    0.18    0.08
   3  -5   3    0.09    0.08
   3  -5   3    0.19    0.11
   3  -5   3    0.21    0.07
  -4   5  -3    0.62    0.10
  -4   5  -3    0.59    0.11
  -4   5  -3    0.47    0.10
  -4   5  -3    0.50    0.16
   4  -5   3    0.41    0.09
   4  -5   3    0.62    0.13
   4  -5   3    0.63    0.09
   5  -5   3    0.45    0.12
   6  -5   3    1.45    0.23
   4   4  -3   15.30    0.59
   4   4  -3   15.92    0.51
  -4  -4   3   16.39    0.54
  -4  -4   3   16.59    0.70
  -4  -4   3   15.41    0.51
  -4  -4   3   15.22    0.59
   3   4  -3    3.82    0.25
   3   4  -3    3.81    0.23
   3   4  -3    3.56    0.21
  -3  -4   3    3.60    0.26
  -3  -4   3    3.59    0.19
  -3  -4   3    3.61    0.24
  -3  -4   3    3.44    0.24
   2   4  -3    9.52    0.36
   2   4  -3   10.59    0.38
   2   4  -3   10.56    0.38
  -2  -4   3   10.30    0.39
  -2  -4   3    9.98    0.29
  -2  -4   3   10.29    0.38
  -2  -4   3    9.78    0.37
   1   4  -3    8.20    0.32
   1   4  -3    8.84    0.33
  -1  -4   3    8.23    0.33
  -1  -4   3    8.16    0.32
   0   4  -3   31.60    0.97
   0   4  -3   29.72    0.79
   0  -4   3   30.12    0.79
   0  -4   3   34.08    1.00
  -1   4  -3   12.16    0.39
  -1   4  -3   11.83    0.38
   1  -4   3   11.80    0.33
   1  -4   3   11.89    0.33
   1  -4   3   11.66    0.37
   1  -4   3   12.06    0.39
  -2   4  -3  136.76    3.03
  -2   4  -3  138.46    3.04
  -2   4  -3  146.26    3.04
   2  -4   3  139.99    3.02
   2  -4   3  139.97    3.04
   2  -4   3  140.15    3.03
   2  -4   3  134.57    3.01
  -3   4  -3    1.99    0.15
  -3   4  -3    2.17    0.15
  -3   4  -3    2.45    0.16
  -3   4  -3    2.08    0.19
   3  -4   3    2.01    0.13
   3  -4   3    2.31    0.20
   3  -4   3    2.25    0.18
   3  -4   3    2.18    0.14
  -4   4  -3    0.17    0.12
  -4   4  -3    0.22    0.07
  -4   4  -3    0.25    0.08
  -4   4  -3    0.27    0.08
   4  -4   3    0.30    0.10
   5  -4   3    1.83    0.24
   6  -4   3   16.15    0.68
   5   3  -3    4.13    0.32
  -5  -3   3    3.19    0.28
  -5  -3   3    4.24    0.40
  -5  -3   3    4.03    0.23
  -5  -3   3    3.50    0.38
   4   3  -3   14.23    0.45
   4   3  -3   15.67    0.46
   4   3  -3   15.31    0.56
  -4  -3   3   14.84    0.51
  -4  -3   3   15.78    0.65
  -4  -3   3   15.74    0.49
  -4  -3   3   15.35    0.48
   3   3  -3    5.93    0.25
   3   3  -3    6.54    0.26
   3   3  -3    6.20    0.30
  -3  -3   3    5.78    0.25
  -3  -3   3    6.12    0.27
  -3  -3   3    5.87    0.31
  -3  -3   3    6.27    0.27
   2   3  -3    2.29    0.16
   2   3  -3    2.35    0.16
   2   3  -3    2.72    0.18
  -2  -3   3    2.56    0.13
  -2  -3   3    2.52    0.18
  -2  -3   3    2.32    0.17
  -2  -3   3    2.59    0.17
   1   3  -3    1.02    0.12
   1   3  -3    1.15    0.11
  -1  -3   3    1.09    0.13
  -1  -3   3    1.12    0.12
   0   3  -3   20.58    0.55
   0   3  -3   21.32    0.55
   0  -3   3   20.85    0.55
   0  -3   3   20.30    0.54
  -1   3  -3  168.11    3.61
  -1   3  -3  176.65    3.64
  -1   3  -3  169.15    3.64
   1  -3   3  170.73    3.58
   1  -3   3  166.34    3.63
   1  -3   3  170.34    3.64
  -2   3  -3    0.68    0.10
  -2   3  -3    0.66    0.08
  -2   3  -3    0.54    0.08
  -2   3  -3    0.57    0.07
   2  -3   3    0.67    0.09
   2  -3   3    0.59    0.08
   2  -3   3    0.55    0.08
  -3   3  -3    8.14    0.29
  -3   3  -3    7.97    0.33
  -3   3  -3    8.13    0.25
  -3   3  -3    8.17    0.29
   3  -3   3    8.13    0.33
   3  -3   3    7.12    0.23
   3  -3   3    7.82    0.31
  -4   3  -3    9.02    0.28
  -4   3  -3    9.45    0.47
  -4   3  -3    9.13    0.36
   4  -3   3    9.32    0.40
  -5   3  -3   18.55    0.74
  -5   3  -3   17.66    0.52
   5  -3   3   17.94    0.66
  -6   3  -3    0.08    0.10
   6  -3   3    0.19    0.14
   5   2  -3   14.14    0.56
  -5  -2   3   12.70    0.52
  -5  -2   3   13.36    0.41
  -5  -2   3   13.89    0.62
   4   2  -3   33.05    0.93
   4   2  -3   30.73    0.78
  -4  -2   3   33.93    0.82
  -4  -2   3   33.43    0.81
  -4  -2   3   34.97    1.02
  -4  -2   3   32.13    0.90
  -4  -2   3   32.82    0.96
   3   2  -3   26.30    0.65
   3   2  -3   26.69    0.73
   3   2  -3   25.17    0.65
  -3  -2   3   26.48    0.67
  -3  -2   3   26.41    0.80
  -3  -2   3   26.21    0.76
  -3  -2   3   25.48    0.75
  -3  -2   3   26.36    0.66
   2   2  -3    1.77    0.12
   2   2  -3    1.88    0.15
   2   2  -3    1.89    0.14
  -2  -2   3    1.84    0.13
  -2  -2   3    1.45    0.15
  -2  -2   3    1.86    0.12
  -2  -2   3    1.63    0.13
   1   2  -3  152.57    3.21
   1   2  -3  146.99    3.21
   1   2  -3  152.09    3.20
  -1  -2   3  152.84    3.22
  -1  -2   3  147.08    3.21
   0   2  -3   46.46    1.03
   0   2  -3   45.11    1.03
   0  -2   3   44.44    1.02
   0  -2   3   45.64    1.03
   0  -2   3   45.39    1.02
  -1   2  -3  100.35    2.25
  -1   2  -3  107.21    2.25
  -1   2  -3  107.51    2.25
   1  -2   3  103.52    2.25
   1  -2   3  104.38    2.20
   1  -2   3  105.88    2.25
  -2   2  -3   20.67    0.50
  -2   2  -3   20.70    0.52
  -2   2  -3   21.56    0.51
  -2   2  -3   20.80    0.57
   2  -2   3   20.63    0.56
   2  -2   3   20.52    0.50
   2  -2   3   20.36    0.50
  -3   2  -3    0.15    0.08
  -3   2  -3    0.21    0.05
  -3   2  -3    0.13    0.05
  -3   2  -3    0.15    0.05
   3  -2   3    0.11    0.08
   3  -2   3    0.11    0.07
  -4   2  -3    1.40    0.18
  -4   2  -3    1.33    0.15
   4  -2   3    1.05    0.15
   4  -2   3    1.00    0.14
  -5   2  -3   44.35    1.14
   5  -2   3   44.98    1.20
   5  -2   3   44.33    1.25
  -6   2  -3    0.75    0.16
   6  -2   3    1.05    0.20
   6   1  -3   10.59    0.52
  -6  -1   3   10.34    0.57
   5   1  -3    5.72    0.35
  -5  -1   3    4.79    0.32
  -5  -1   3    5.78    0.39
   4   1  -3    3.81    0.25
  -4  -1   3    3.42    0.16
  -4  -1   3    3.49    0.24
  -4  -1   3    3.52    0.16
  -4  -1   3    3.78    0.29
   3   1  -3    4.74    0.17
   3   1  -3    4.79    0.24
   3   1  -3    5.05    0.24
  -3  -1   3    5.17    0.29
  -3  -1   3    4.45    0.23
  -3  -1   3    4.88    0.18
  -3  -1   3    5.00    0.26
  -3  -1   3    5.00    0.19
  -3  -1   3    4.76    0.28
   2   1  -3    3.89    0.17
   2   1  -3    3.38    0.16
   2   1  -3    3.52    0.14
   2   1  -3    3.43    0.14
  -2  -1   3    3.36    0.16
  -2  -1   3    3.55    0.15
  -2  -1   3    3.51    0.15
  -2  -1   3    3.52    0.19
  -2  -1   3    3.75    0.17
  -2  -1   3    3.67    0.21
   1   1  -3   51.36    1.13
   1   1  -3   52.63    1.15
   1   1  -3   53.07    1.15
   1   1  -3   51.79    1.15
  -1  -1   3   52.13    1.15
  -1  -1   3   53.18    1.20
  -1  -1   3   52.61    1.15
  -1  -1   3   52.17    1.15
   0   1  -3   14.75    0.36
   0   1  -3   14.45    0.36
   0   1  -3   14.69    0.36
   0  -1   3   14.17    0.36
   0  -1   3   14.74    0.37
  -1   1  -3   38.72    0.84
  -1   1  -3   38.09    0.83
  -1   1  -3   38.38    0.84
   1  -1   3   38.19    0.83
   1  -1   3   36.94    0.84
   1  -1   3   36.67    0.84
  -2   1  -3  104.41    2.19
  -2   1  -3  103.90    2.20
  -2   1  -3  103.62    2.23
  -2   1  -3  100.59    2.27
   2  -1   3  103.86    2.28
   2  -1   3  102.52    2.23
   2  -1   3  102.34    2.18
  -3   1  -3   10.91    0.36
  -3   1  -3   10.38    0.39
   3  -1   3   11.29    0.38
   3  -1   3   10.96    0.40
  -4   1  -3   21.35    0.64
  -4   1  -3   20.73    0.68
   4  -1   3   21.43    0.69
   4  -1   3   22.10    0.66
   5  -1   3    2.75    0.26
   5  -1   3    2.98    0.33
  -6   1  -3    3.55    0.30
   6  -1   3    3.58    0.35
   6  -1   3    3.35    0.32
   6   0  -3    7.15    0.42
  -6   0   3    5.73    0.42
   5   0  -3   19.84    0.67
  -5   0   3   18.91    0.68
  -5   0   3   20.77    0.72
   4   0  -3    8.00    0.36
   4   0  -3    7.94    0.34
  -4   0   3    7.79    0.37
  -4   0   3    7.31    0.35
  -4   0   3    7.19    0.33
  -4   0   3    7.70    0.36
   3   0  -3    0.06    0.08
   3   0  -3    0.08    0.06
  -3   0   3    0.08    0.04
  -3   0   3    0.04    0.05
  -3   0   3    0.14    0.10
  -3   0   3    0.05    0.04
  -3   0   3    0.11    0.07
  -3   0   3    0.05    0.07
   2   0  -3  164.69    3.51
   2   0  -3  161.20    3.44
   2   0  -3  162.98    3.50
  -2   0   3  166.75    3.45
  -2   0   3  166.67    3.54
  -2   0   3  165.04    3.45
  -2   0   3  164.37    3.51
  -2   0   3  160.58    3.50
  -2   0   3  163.94    3.53
   1   0  -3   18.08    0.47
   1   0  -3   19.10    0.45
   1   0  -3   19.48    0.45
   1   0  -3   18.98    0.44
  -1   0   3   19.28    0.48
  -1   0   3   18.71    0.45
  -1   0   3   19.39    0.45
   0   0  -3   84.17    1.79
   0   0  -3   83.40    1.81
   0   0  -3   85.16    1.79
   0   0   3   83.56    1.81
   0   0   3   83.24    1.79
  -1   0  -3   70.30    1.57
  -1   0  -3   72.20    1.55
  -1   0  -3   73.83    1.55
   1   0   3   70.57    1.55
   1   0   3   74.57    1.55
   1   0   3   71.79    1.56
  -2   0  -3   90.91    1.90
  -2   0  -3   88.33    1.90
   2   0   3   88.99    1.90
   2   0   3   91.11    1.96
   2   0   3   82.72    1.89
   2   0   3   90.45    1.99
  -3   0  -3   21.96    0.53
  -3   0  -3   21.06    0.64
  -3   0  -3   21.96    0.64
  -3   0  -3   21.64    0.52
   3   0   3   23.12    0.63
   3   0   3   21.65    0.65
  -4   0  -3   20.04    0.72
  -4   0  -3   21.50    0.77
   4   0   3   21.89    0.66
   4   0   3   22.51    0.71
   5   0   3    0.83    0.16
  -6   0  -3    1.63    0.25
   6   0   3    1.48    0.23
  -6   1   3    2.76    0.30
   5  -1  -3   21.97    0.73
  -5   1   3   21.96    0.71
  -5   1   3   20.47    0.74
   4  -1  -3    8.53    0.37
   4  -1  -3    9.22    0.39
  -4   1   3    8.75    0.39
  -4   1   3    9.34    0.39
  -4   1   3    9.03    0.36
  -4   1   3    9.01    0.38
   3  -1  -3   70.98    1.69
  -3   1   3   70.27    1.64
  -3   1   3   70.96    1.63
  -3   1   3   69.84    1.64
   2  -1  -3   12.59    0.30
   2  -1  -3   12.18    0.36
   2  -1  -3   12.33    0.37
  -2   1   3   12.29    0.30
  -2   1   3   12.53    0.37
  -2   1   3   11.62    0.35
  -2   1   3   12.27    0.35
  -2   1   3   12.44    0.37
  -1   1   3  304.00    6.79
   0  -1  -3   85.96    1.83
   0  -1  -3   85.21    1.85
   0   1   3   86.74    1.86
   0   1   3   85.65    1.84
   0   1   3   84.25    1.83
  -1  -1  -3  165.07    3.50
  -1  -1  -3  167.88    3.50
   1   1   3  165.14    3.49
   1   1   3  163.44    3.51
   1   1   3  164.88    3.49
  -2  -1  -3    0.12    0.05
  -2  -1  -3    0.08    0.04
   2   1   3    0.12    0.06
   2   1   3    0.06    0.04
   2   1   3    0.09    0.05
   2   1   3    0.13    0.05
  -3  -1  -3   16.70    0.44
  -3  -1  -3   16.65    0.44
  -3  -1  -3   15.75    0.52
  -3  -1  -3   16.08    0.53
   3   1   3   16.92    0.54
   3   1   3   15.95    0.42
   3   1   3   16.33    0.42
   3   1   3   17.20    0.53
  -4  -1  -3    3.61    0.19
  -4  -1  -3    4.03    0.18
  -4  -1  -3    3.47    0.29
  -4  -1  -3    3.97    0.27
   4   1   3    3.75    0.28
   4   1   3    3.92    0.27
   5   1   3    6.72    0.41
   5   1   3    6.06    0.36
  -6   2   3    3.50    0.31
   5  -2  -3    0.54    0.16
  -5   2   3    0.21    0.12
   4  -2  -3    3.72    0.26
  -4   2   3    3.89    0.24
  -4   2   3    4.31    0.26
   3  -2  -3   92.03    2.10
  -3   2   3   91.31    2.05
  -3   2   3   89.70    2.07
  -3   2   3   93.44    1.96
  -3   2   3   93.20    2.08
   2  -2  -3   79.50    1.80
   2  -2  -3   78.28    1.71
   2  -2  -3   81.72    1.72
   2  -2  -3   78.47    1.75
  -2   2   3   80.57    1.76
  -2   2   3   80.72    1.76
  -2   2   3   79.53    1.72
  -2   2   3   77.79    1.71
   1  -2  -3   14.69    0.41
   1  -2  -3   14.81    0.39
   1  -2  -3   14.60    0.38
  -1   2   3   14.61    0.38
  -1   2   3   14.69    0.38
  -1   2   3   15.17    0.40
   0  -2  -3   46.46    1.09
   0  -2  -3   48.14    1.07
   0   2   3   48.50    1.08
   0   2   3   46.69    1.07
  -1  -2  -3  423.67    8.83
   1   2   3  418.75    8.82
  -2  -2  -3   10.39    0.32
  -2  -2  -3   10.38    0.33
   2   2   3   10.51    0.36
   2   2   3    9.85    0.31
   2   2   3   10.60    0.32
  -3  -2  -3    5.98    0.29
  -3  -2  -3    5.61    0.24
  -3  -2  -3    5.40    0.29
  -3  -2  -3    6.03    0.25
   3   2   3    6.02    0.30
   3   2   3    5.93    0.23
   3   2   3    5.76    0.23
   3   2   3    6.05    0.30
  -4  -2  -3    6.31    0.26
  -4  -2  -3    6.61    0.26
  -4  -2  -3    5.96    0.33
   4   2   3    6.08    0.34
   4   2   3    6.63    0.36
   4   2   3    6.07    0.23
  -5  -2  -3    1.39    0.15
  -5  -2  -3    1.75    0.16
   5   2   3    1.63    0.24
   6  -3  -3   12.49    0.58
  -6   3   3   12.02    0.50
   5  -3  -3    2.87    0.28
  -5   3   3    2.53    0.25
  -5   3   3    2.42    0.23
   4  -3  -3   37.88    1.06
  -4   3   3   38.45    1.02
  -4   3   3   39.85    0.98
  -4   3   3   38.58    1.02
   3  -3  -3    2.88    0.16
   3  -3  -3    2.63    0.21
   3  -3  -3    2.78    0.13
   3  -3  -3    2.77    0.13
  -3   3   3    2.62    0.13
  -3   3   3    2.71    0.19
  -3   3   3    2.94    0.19
  -3   3   3    2.70    0.14
   2  -3  -3   32.43    0.78
   2  -3  -3   32.72    0.84
   2  -3  -3   31.94    0.77
   2  -3  -3   33.06    0.79
  -2   3   3   32.49    0.78
  -2   3   3   32.62    0.79
  -2   3   3   33.42    0.78
  -2   3   3   33.60    0.78
   1  -3  -3   64.70    1.46
   1  -3  -3   64.75    1.45
   1  -3  -3   65.52    1.46
  -1   3   3   62.84    1.45
  -1   3   3   65.14    1.45
   0  -3  -3   88.69    1.93
   0  -3  -3   86.79    1.92
   0  -3  -3   83.68    1.93
   0   3   3   85.48    1.91
   0   3   3   88.18    1.92
  -1  -3  -3    0.38    0.09
  -1  -3  -3    0.23    0.07
   1   3   3    0.22    0.06
   1   3   3    0.30    0.06
   1   3   3    0.21    0.07
  -2  -3  -3   14.59    0.45
  -2  -3  -3   13.84    0.43
   2   3   3   14.63    0.44
   2   3   3   13.74    0.43
   2   3   3   14.16    0.45
  -3  -3  -3   25.31    0.70
  -3  -3  -3   25.20    0.69
  -3  -3  -3   24.14    0.73
   3   3   3   26.47    0.76
   3   3   3   25.77    0.77
   3   3   3   25.38    0.67
   3   3   3   24.46    0.67
  -4  -3  -3    1.43    0.15
  -4  -3  -3    1.49    0.17
  -4  -3  -3    1.75    0.21
   4   3   3    1.28    0.18
   4   3   3    1.66    0.15
   4   3   3    1.79    0.14
  -5  -3  -3    3.47    0.22
  -5  -3  -3    3.06    0.22
   5   3   3    3.11    0.30
   6  -4  -3   -0.04    0.12
  -6   4   3   -0.14    0.10
   5  -4  -3    3.59    0.30
  -5   4   3    2.96    0.25
  -5   4   3    3.15    0.28
   4  -4  -3   20.17    0.67
  -4   4   3   19.16    0.52
  -4   4   3   20.42    0.58
  -4   4   3   19.34    0.84
  -4   4   3   20.82    0.53
  -4   4   3   19.34    0.61
   3  -4  -3   27.66    0.69
   3  -4  -3   28.57    0.80
   3  -4  -3   27.01    0.69
   3  -4  -3   27.20    0.68
  -3   4   3   27.16    0.72
  -3   4   3   27.59    0.70
  -3   4   3   28.96    0.70
  -3   4   3   27.48    0.69
   2  -4  -3   11.22    0.37
   2  -4  -3   11.66    0.37
   2  -4  -3   11.57    0.37
  -2   4   3   11.75    0.32
  -2   4   3   11.47    0.37
  -2   4   3   11.87    0.38
  -2   4   3   12.21    0.36
   1  -4  -3   34.64    0.88
   1  -4  -3   36.96    0.89
   1  -4  -3   35.14    0.88
  -1   4   3   34.52    0.88
  -1   4   3   36.45    0.89
   0  -4  -3  126.18    2.72
   0  -4  -3  121.74    2.70
   0  -4  -3  120.19    2.72
   0   4   3  122.99    2.71
  -1  -4  -3    0.47    0.11
  -1  -4  -3    0.31    0.08
   1   4   3    0.44    0.07
   1   4   3    0.29    0.08
   1   4   3    0.33    0.10
  -2  -4  -3   46.28    1.16
  -2  -4  -3   45.11    1.14
   2   4   3   43.51    1.13
   2   4   3   48.01    1.15
   2   4   3   47.37    1.20
  -3  -4  -3   24.90    0.72
  -3  -4  -3   23.98    0.73
  -3  -4  -3   24.51    0.71
   3   4   3   25.46    0.79
   3   4   3   25.19    0.70
  -4  -4  -3    6.08    0.32
  -4  -4  -3    5.61    0.34
   4   4   3    4.95    0.27
   4   4   3    5.48    0.36
   6  -5  -3    2.54    0.30
  -6   5   3    1.69    0.21
   5  -5  -3    6.81    0.41
  -5   5   3    5.91    0.33
  -5   5   3    6.46    0.26
  -5   5   3    5.98    0.24
  -5   5   3    6.55    0.25
   4  -5  -3   10.81    0.35
   4  -5  -3   11.10    0.48
   4  -5  -3   10.57    0.34
  -4   5   3   10.26    0.39
  -4   5   3   11.32    0.37
  -4   5   3   10.78    0.36
  -4   5   3   10.84    0.44
  -4   5   3   11.34    0.35
   3  -5  -3   12.56    0.48
   3  -5  -3   12.46    0.41
   3  -5  -3   12.44    0.38
   3  -5  -3   12.04    0.39
  -3   5   3   11.85    0.37
  -3   5   3   12.69    0.42
  -3   5   3   11.69    0.40
   2  -5  -3    9.14    0.35
   2  -5  -3    8.97    0.37
   2  -5  -3    8.60    0.34
   2  -5  -3    8.81    0.33
  -2   5   3    8.82    0.48
  -2   5   3    8.51    0.34
   1  -5  -3   25.15    0.70
   1  -5  -3   25.56    0.70
   1  -5  -3   26.77    0.73
  -1   5   3   25.16    0.71
  -1   5   3   25.90    0.72
   0  -5  -3    0.21    0.09
   0  -5  -3    0.22    0.10
   0  -5  -3    0.28    0.09
   0   5   3    0.28    0.09
   0   5   3    0.23    0.09
  -1  -5  -3   -0.08    0.07
  -1  -5  -3    0.05    0.10
   1   5   3    0.04    0.09
   1   5   3   -0.07    0.08
  -2  -5  -3   15.64    0.54
  -2  -5  -3   16.07    0.55
   2   5   3   16.20    0.54
  -3  -5  -3    1.63    0.20
  -3  -5  -3    2.22    0.19
  -3  -5  -3    2.21    0.23
   3   5   3    1.77    0.20
   3   5   3    1.59    0.22
   5  -6  -3    2.47    0.29
   5  -6  -3    2.06    0.16
  -5   6   3    2.23    0.19
  -5   6   3    2.11    0.17
   4  -6  -3    5.17    0.24
   4  -6  -3    5.21    0.35
   4  -6  -3    5.25    0.21
   4  -6  -3    5.55    0.26
  -4   6   3    5.84    0.28
  -4   6   3    5.21    0.26
   3  -6  -3    3.60    0.24
   3  -6  -3    3.89    0.23
   3  -6  -3    3.59    0.21
   3  -6  -3    3.73    0.28
  -3   6   3    3.71    0.25
  -3   6   3    3.40    0.23
   2  -6  -3   28.09    0.79
   2  -6  -3   26.38    0.94
   2  -6  -3   26.91    0.76
   2  -6  -3   28.48    0.79
  -2   6   3   27.45    0.78
  -2   6   3   26.48    0.77
   1  -6  -3    7.73    0.36
   1  -6  -3    7.96    0.48
   1  -6  -3    7.50    0.34
  -1   6   3    7.71    0.35
  -1   6   3    7.83    0.36
   0  -6  -3    4.37    0.27
   0  -6  -3    3.86    0.27
   0   6   3    3.88    0.27
   0   6   3    4.12    0.25
  -1  -6  -3   41.68    1.15
  -1  -6  -3   43.66    1.39
   1   6   3   42.72    1.14
  -2  -6  -3   16.50    0.60
  -2  -6  -3   17.63    0.63
   2   6   3   17.94    0.61
  -3  -6  -3    6.01    0.36
  -3  -6  -3    6.82    0.38
   3   6   3    6.72    0.41
   3   6   3    6.58    0.36
   5  -7  -3    5.06    0.26
   5  -7  -3    5.82    0.40
  -5   7   3    5.25    0.29
  -5   7   3    4.84    0.26
   4  -7  -3    3.94    0.32
   4  -7  -3    3.35    0.24
  -4   7   3    3.42    0.23
  -4   7   3    3.69    0.26
   3  -7  -3    0.59    0.12
   3  -7  -3    0.83    0.17
   3  -7  -3    0.98    0.17
  -3   7   3    0.71    0.16
  -3   7   3    0.97    0.16
   2  -7  -3   10.15    0.42
   2  -7  -3   10.48    0.45
   2  -7  -3    9.81    0.40
  -2   7   3   10.42    0.44
  -2   7   3    9.82    0.42
   1  -7  -3    1.63    0.20
   1  -7  -3    1.19    0.18
  -1   7   3    1.16    0.18
  -1   7   3    1.36    0.19
   0  -7  -3    0.63    0.19
   0   7   3    0.48    0.14
  -1  -7  -3   11.62    0.52
   1   7   3   12.11    0.51
  -2  -7  -3    4.03    0.32
   2   7   3    3.85    0.30
   4  -8  -3    0.20    0.14
   4  -8  -3    0.25    0.13
  -4   8   3   -0.07    0.12
  -4   8   3    0.17    0.11
   3  -8  -3    5.64    0.35
   3  -8  -3    4.45    0.28
   3  -8  -3    5.54    0.35
  -3   8   3    5.36    0.35
  -3   8   3    5.50    0.33
   2  -8  -3    0.10    0.11
   2  -8  -3    0.04    0.12
   2  -8  -3    0.00    0.11
  -2   8   3    0.05    0.12
   1  -8  -3    3.25    0.26
   1  -8  -3    2.42    0.40
   1  -8  -3    3.37    0.25
  -1   8   3    3.24    0.30
   0  -8  -3    1.31    0.23
   0   8   3    1.08    0.22
  -1  -8  -3    7.84    0.46
   1   8   3    8.96    0.47
   2  -9  -3    2.56    0.31
   2  -9  -3    2.33    0.27
   2  -9  -3    3.25    0.26
  -2   9   3    2.64    0.30
   1   8  -4    0.16    0.12
  -1  -8   4    0.11    0.14
  -1  -8   4    0.14    0.15
   0   8  -4    1.38    0.24
   0  -8   4    1.01    0.21
   0  -8   4    1.06    0.19
  -1   8  -4    1.25    0.19
   1  -8   4    1.66    0.19
   1  -8   4    1.26    0.23
  -2   8  -4    0.60    0.15
   2  -8   4    0.76    0.18
  -3   8  -4    1.38    0.21
  -3   8  -4    1.71    0.22
   3  -8   4    1.69    0.22
  -4   8  -4    9.75    0.44
  -4   8  -4    9.53    0.45
   4  -8   4    9.84    0.44
   4  -8   4    9.49    0.38
   2   7  -4    0.66    0.17
   2   7  -4    0.66    0.14
  -2  -7   4    0.94    0.21
  -2  -7   4    0.65    0.12
  -2  -7   4    0.88    0.20
   1   7  -4   26.35    0.84
  -1  -7   4   26.95    0.88
  -1  -7   4   26.92    0.86
   0   7  -4    2.73    0.26
   0  -7   4    3.02    0.26
   0  -7   4    2.95    0.28
  -1   7  -4    1.47    0.21
  -1   7  -4    1.09    0.17
   1  -7   4    1.02    0.17
   1  -7   4    1.48    0.19
  -2   7  -4    4.07    0.29
  -2   7  -4    4.06    0.27
   2  -7   4    4.01    0.29
  -3   7  -4   14.94    0.56
  -3   7  -4   13.60    0.51
   3  -7   4   14.46    0.53
   3  -7   4   13.92    0.47
  -4   7  -4    0.96    0.15
  -4   7  -4    1.69    0.19
  -4   7  -4    1.37    0.19
   4  -7   4    1.21    0.16
   4  -7   4    0.90    0.14
  -5   7  -4    0.80    0.13
  -5   7  -4    0.88    0.16
   5  -7   4    0.71    0.16
   5  -7   4    0.54    0.12
   3   6  -4    9.46    0.43
   3   6  -4    9.86    0.45
  -3  -6   4    9.41    0.46
  -3  -6   4    9.02    0.42
  -3  -6   4   10.18    0.56
  -3  -6   4    9.28    0.44
   2   6  -4    0.72    0.13
   2   6  -4    1.12    0.19
  -2  -6   4    0.68    0.11
  -2  -6   4    0.88    0.16
  -2  -6   4    0.82    0.19
  -2  -6   4    0.66    0.17
   1   6  -4    3.16    0.25
  -1  -6   4    2.94    0.26
  -1  -6   4    2.61    0.19
  -1  -6   4    2.59    0.39
   0   6  -4    5.21    0.30
   0   6  -4    5.02    0.32
   0  -6   4    5.09    0.36
   0  -6   4    5.58    0.30
   0  -6   4    5.50    0.32
  -1   6  -4    2.83    0.22
  -1   6  -4    2.52    0.23
   1  -6   4    3.00    0.20
   1  -6   4    3.05    0.24
  -2   6  -4    0.15    0.09
  -2   6  -4   -0.05    0.07
   2  -6   4    0.00    0.06
   2  -6   4    0.08    0.08
   2  -6   4    0.10    0.10
  -3   6  -4   20.23    0.61
  -3   6  -4   18.65    0.59
  -3   6  -4   18.47    0.56
   3  -6   4   16.09    0.55
   3  -6   4   19.42    0.59
   3  -6   4   19.42    0.57
  -4   6  -4    1.33    0.22
  -4   6  -4    1.72    0.17
  -4   6  -4    1.90    0.18
   4  -6   4    1.92    0.21
   4  -6   4    2.00    0.18
  -5   6  -4    1.37    0.17
  -5   6  -4    1.58    0.16
   5  -6   4    1.26    0.19
   4   5  -4    7.41    0.41
   4   5  -4    7.81    0.48
  -4  -5   4    8.43    0.41
  -4  -5   4    8.24    0.52
  -4  -5   4    8.49    0.39
   3   5  -4   13.59    0.51
   3   5  -4   12.92    0.48
  -3  -5   4   13.10    0.49
  -3  -5   4   12.59    0.59
  -3  -5   4   13.67    0.52
   2   5  -4   21.09    0.65
   2   5  -4   21.08    0.64
  -2  -5   4   20.65    0.62
  -2  -5   4   20.38    0.65
  -2  -5   4   21.20    0.66
   1   5  -4    6.52    0.30
   1   5  -4    7.04    0.32
  -1  -5   4    6.91    0.32
  -1  -5   4    6.97    0.33
   0   5  -4    0.04    0.09
   0   5  -4   -0.03    0.07
   0  -5   4    0.07    0.08
   0  -5   4   -0.01    0.13
   0  -5   4    0.03    0.09
  -1   5  -4    1.51    0.16
  -1   5  -4    1.65    0.17
   1  -5   4    1.67    0.14
   1  -5   4    1.53    0.15
   1  -5   4    1.60    0.18
  -2   5  -4   57.04    1.37
  -2   5  -4   58.92    1.38
   2  -5   4   58.58    1.38
   2  -5   4   58.22    1.34
   2  -5   4   55.10    1.36
  -3   5  -4    8.58    0.33
  -3   5  -4    8.21    0.32
  -3   5  -4    8.22    0.31
  -3   5  -4    7.93    0.35
   3  -5   4    8.76    0.34
   3  -5   4    7.83    0.31
   3  -5   4    7.73    0.30
  -4   5  -4    1.53    0.18
  -4   5  -4    1.82    0.16
  -4   5  -4    1.66    0.20
  -4   5  -4    2.11    0.17
   4  -5   4    1.91    0.21
   4  -5   4    1.72    0.15
   4  -5   4    1.72    0.14
  -5   5  -4    1.03    0.13
   5  -5   4    0.87    0.17
   4   4  -4    8.67    0.41
   4   4  -4    7.86    0.33
  -4  -4   4    8.20    0.51
  -4  -4   4    8.34    0.38
  -4  -4   4    7.68    0.34
  -4  -4   4    8.02    0.50
   3   4  -4    2.26    0.17
   3   4  -4    2.41    0.19
   3   4  -4    1.85    0.19
  -3  -4   4    2.18    0.27
  -3  -4   4    1.94    0.19
  -3  -4   4    2.15    0.21
  -3  -4   4    2.15    0.21
  -3  -4   4    1.97    0.15
   2   4  -4   26.64    0.75
   2   4  -4   28.40    0.76
   2   4  -4   28.39    0.76
  -2  -4   4   27.67    0.76
  -2  -4   4   27.45    0.76
  -2  -4   4   28.28    0.77
   1   4  -4   29.17    0.78
   1   4  -4   30.73    0.82
  -1  -4   4   29.05    0.78
  -1  -4   4   29.96    0.80
   0   4  -4   25.74    0.68
   0   4  -4   24.32    0.67
   0  -4   4   25.18    0.67
   0  -4   4   25.31    0.68
   0  -4   4   24.55    0.67
  -1   4  -4    0.09    0.06
  -1   4  -4    0.12    0.06
  -1   4  -4    0.16    0.08
   1  -4   4    0.08    0.06
   1  -4   4    0.05    0.07
   1  -4   4    0.10    0.05
  -2   4  -4    5.77    0.26
  -2   4  -4    6.21    0.26
  -2   4  -4    6.61    0.27
   2  -4   4    6.15    0.25
   2  -4   4    6.13    0.26
   2  -4   4    6.40    0.26
  -3   4  -4   11.63    0.43
  -3   4  -4   12.13    0.38
  -3   4  -4   11.69    0.38
  -3   4  -4   10.96    0.36
   3  -4   4   11.40    0.36
   3  -4   4   11.11    0.35
   3  -4   4   11.91    0.42
  -4   4  -4    3.61    0.22
  -4   4  -4    3.22    0.17
  -4   4  -4    3.29    0.26
   4  -4   4    3.49    0.26
   4  -4   4    3.30    0.15
   5  -4   4    0.04    0.10
   6  -4   4   14.34    0.63
   5   3  -4   19.86    0.72
  -5  -3   4   21.07    0.62
  -5  -3   4   19.78    0.82
  -5  -3   4   19.73    0.58
  -5  -3   4   18.63    0.66
   4   3  -4    8.78    0.32
   4   3  -4    8.61    0.40
   4   3  -4    9.11    0.33
  -4  -3   4    8.72    0.36
  -4  -3   4    9.30    0.50
  -4  -3   4    9.54    0.35
  -4  -3   4    9.43    0.36
   3   3  -4    6.74    0.31
   3   3  -4    5.98    0.25
   3   3  -4    6.32    0.27
  -3  -3   4    6.49    0.26
  -3  -3   4    5.99    0.27
  -3  -3   4    6.47    0.29
  -3  -3   4    6.76    0.37
  -3  -3   4    6.34    0.32
   2   3  -4   13.17    0.41
   2   3  -4   12.82    0.41
   2   3  -4   13.28    0.42
  -2  -3   4   13.79    0.44
  -2  -3   4   13.08    0.42
  -2  -3   4   13.54    0.43
  -2  -3   4   13.21    0.49
   1   3  -4   16.09    0.46
   1   3  -4   15.49    0.46
  -1  -3   4   16.03    0.50
  -1  -3   4   15.84    0.46
  -1  -3   4   16.48    0.54
   0   3  -4   13.81    0.40
   0   3  -4   13.56    0.40
   0  -3   4   13.77    0.40
   0  -3   4   13.07    0.40
   0  -3   4   14.10    0.41
  -1   3  -4   59.65    1.35
  -1   3  -4   59.89    1.35
  -1   3  -4   58.88    1.31
   1  -3   4   58.51    1.28
   1  -3   4   57.97    1.34
   1  -3   4   59.80    1.35
  -2   3  -4   26.06    0.64
  -2   3  -4   25.58    0.62
  -2   3  -4   25.01    0.67
  -2   3  -4   25.59    0.64
   2  -3   4   25.63    0.67
   2  -3   4   25.15    0.63
   2  -3   4   24.91    0.63
  -3   3  -4    9.41    0.32
  -3   3  -4    9.79    0.30
  -3   3  -4    9.25    0.37
  -3   3  -4    9.46    0.29
   3  -3   4    9.00    0.36
   3  -3   4    8.98    0.27
   3  -3   4    9.43    0.29
  -4   3  -4   14.19    0.39
  -4   3  -4   13.61    0.38
  -4   3  -4   14.08    0.47
  -4   3  -4   13.95    0.38
  -4   3  -4   14.41    0.39
  -4   3  -4   13.70    0.55
   4  -3   4   14.38    0.53
  -5   3  -4   24.92    0.66
  -5   3  -4   24.27    0.65
  -5   3  -4   24.38    0.89
   5  -3   4   25.29    0.83
  -6   3  -4    0.99    0.15
   6  -3   4    1.18    0.23
   5   2  -4    6.95    0.38
  -5  -2   4    6.74    0.44
  -5  -2   4    6.37    0.26
  -5  -2   4    5.67    0.34
  -5  -2   4    6.32    0.26
   4   2  -4    0.16    0.06
   4   2  -4    0.07    0.07
  -4  -2   4    0.19    0.08
  -4  -2   4    0.17    0.10
  -4  -2   4    0.17    0.08
  -4  -2   4    0.11    0.10
  -4  -2   4    0.09    0.12
   3   2  -4   31.37    0.78
   3   2  -4   33.09    0.86
   3   2  -4   33.05    0.79
  -3  -2   4   33.11    0.81
  -3  -2   4   33.56    0.81
  -3  -2   4   31.73    0.82
  -3  -2   4   32.71    0.94
  -3  -2   4   32.10    0.89
   2   2  -4   41.25    0.99
   2   2  -4   40.13    0.97
   2   2  -4   41.07    0.95
   2   2  -4   42.26    0.97
  -2  -2   4   43.22    1.13
  -2  -2   4   41.95    1.06
  -2  -2   4   40.11    0.97
   1   2  -4   31.41    0.76
   1   2  -4   31.54    0.69
   1   2  -4   31.57    0.73
   1   2  -4   32.56    0.76
  -1  -2   4   31.44    0.76
  -1  -2   4   31.28    0.76
  -1  -2   4   30.89    0.79
   0   2  -4   10.44    0.31
   0   2  -4   10.09    0.30
   0  -2   4   10.24    0.30
  -1   2  -4    6.91    0.23
  -1   2  -4    7.13    0.23
  -1   2  -4    6.99    0.20
  -1   2  -4    6.59    0.22
  -1   2  -4    7.05    0.19
   1  -2   4    7.12    0.21
   1  -2   4    6.66    0.22
   1  -2   4    6.87    0.23
  -2   2  -4   17.74    0.42
  -2   2  -4   17.41    0.45
  -2   2  -4   17.53    0.45
  -2   2  -4   17.10    0.50
  -2   2  -4   17.56    0.45
   2  -2   4   17.01    0.44
   2  -2   4   17.21    0.50
   2  -2   4   17.00    0.44
  -3   2  -4   33.46    0.75
  -3   2  -4   30.61    0.76
  -3   2  -4   31.71    0.86
  -3   2  -4   32.19    0.74
  -3   2  -4   32.06    0.80
   3  -2   4   32.10    0.86
   3  -2   4   31.14    0.72
   3  -2   4   32.36    0.84
  -4   2  -4   14.69    0.49
  -4   2  -4   14.29    0.69
   4  -2   4   14.24    0.53
   4  -2   4   14.75    0.50
  -5   2  -4   13.42    0.48
   5  -2   4   14.38    0.79
   5  -2   4   13.78    0.53
  -6   2  -4    0.02    0.11
   6  -2   4    0.05    0.13
   6   1  -4   11.17    0.53
  -6  -1   4   11.67    0.60
   5   1  -4    7.09    0.39
  -5  -1   4    7.48    0.44
  -5  -1   4    6.77    0.37
   4   1  -4    7.81    0.35
  -4  -1   4    8.14    0.41
  -4  -1   4    7.80    0.41
  -4  -1   4    7.64    0.26
  -4  -1   4    7.29    0.26
  -4  -1   4    7.11    0.34
   3   1  -4   20.21    0.57
   3   1  -4   20.92    0.59
   3   1  -4   20.34    0.54
  -3  -1   4   20.83    0.65
  -3  -1   4   20.03    0.52
  -3  -1   4   20.10    0.59
  -3  -1   4   20.49    0.63
  -3  -1   4   20.63    0.72
   2   1  -4  255.40    5.48
   2   1  -4  256.72    5.49
   2   1  -4  256.06    5.46
   2   1  -4  258.84    5.46
  -2  -1   4  261.95    5.50
  -2  -1   4  263.92    5.46
  -2  -1   4  257.82    5.55
  -2  -1   4  266.05    5.47
   1   1  -4   41.89    0.93
   1   1  -4   40.59    0.93
   1   1  -4   41.70    0.92
   1   1  -4   40.88    0.97
  -1  -1   4   41.17    0.93
  -1  -1   4   40.84    0.93
  -1  -1   4   41.85    0.97
  -1  -1   4   41.04    0.92
   0   1  -4    0.11    0.05
   0   1  -4    0.09    0.05
   0   1  -4    0.18    0.05
   0  -1   4    0.18    0.05
   0  -1   4    0.10    0.05
   0  -1   4    0.09    0.05
  -1   1  -4   38.37    0.85
  -1   1  -4   40.13    0.89
  -1   1  -4   38.74    0.88
  -1   1  -4   39.46    0.88
   1  -1   4   38.80    0.88
   1  -1   4   38.82    0.88
   1  -1   4   39.16    0.88
   1  -1   4   39.00    0.85
  -2   1  -4    8.00    0.24
  -2   1  -4    8.07    0.24
  -2   1  -4    7.48    0.25
  -2   1  -4    7.39    0.25
  -2   1  -4    7.22    0.28
   2  -1   4    7.65    0.23
   2  -1   4    7.74    0.23
   2  -1   4    8.19    0.29
   2  -1   4    8.13    0.26
  -3   1  -4   13.17    0.46
  -3   1  -4   13.26    0.35
  -3   1  -4   13.09    0.41
   3  -1   4   13.37    0.42
  -4   1  -4   25.94    0.86
   4  -1   4   27.47    0.82
   4  -1   4   27.20    0.77
   5  -1   4    2.50    0.25
   5  -1   4    2.73    0.28
  -6   1  -4    3.81    0.31
   6  -1   4    4.07    0.37
   6  -1   4    3.96    0.34
   6   0  -4    1.72    0.24
  -6   0   4    2.51    0.32
   5   0  -4    0.09    0.11
  -5   0   4   -0.04    0.11
  -5   0   4   -0.01    0.11
   4   0  -4    6.06    0.30
   4   0  -4    5.89    0.30
  -4   0   4    5.64    0.31
  -4   0   4    5.93    0.33
  -4   0   4    5.25    0.29
  -4   0   4    5.83    0.29
   3   0  -4   15.71    0.48
   3   0  -4   15.01    0.38
   3   0  -4   16.12    0.49
  -3   0   4   16.22    0.40
  -3   0   4   15.56    0.48
  -3   0   4   15.33    0.50
  -3   0   4   16.19    0.52
  -3   0   4   15.69    0.49
   2   0  -4   26.36    0.65
   2   0  -4   26.36    0.66
   2   0  -4   25.36    0.67
   2   0  -4   25.39    0.60
   2   0  -4   25.97    0.61
  -2   0   4   26.11    0.61
  -2   0   4   26.19    0.61
  -2   0   4   26.42    0.65
  -2   0   4   26.12    0.68
   1   0  -4   22.64    0.53
   1   0  -4   22.22    0.57
   1   0  -4   21.82    0.53
  -1   0   4   22.93    0.57
  -1   0   4   22.35    0.53
  -1   0   4   22.98    0.54
  -1   0   4   23.04    0.54
   0   0  -4   55.08    1.21
   0   0  -4   54.15    1.21
   0   0  -4   56.04    1.24
   0   0   4   54.64    1.21
   0   0   4   55.28    1.24
  -1   0  -4    0.24    0.05
  -1   0  -4    0.21    0.05
  -1   0  -4    0.17    0.05
   1   0   4    0.26    0.05
   1   0   4    0.33    0.05
  -2   0  -4  167.73    3.53
  -2   0  -4  169.24    3.53
   2   0   4  163.83    3.52
   2   0   4  166.86    3.57
   2   0   4  165.93    3.60
   2   0   4  164.28    3.51
  -3   0  -4   38.16    1.01
  -3   0  -4   39.32    0.90
  -3   0  -4   39.17    0.89
   3   0   4   38.71    0.88
   3   0   4   39.69    0.99
  -4   0  -4    4.91    0.19
  -4   0  -4    4.95    0.18
  -4   0  -4    3.90    0.29
   4   0   4    4.50    0.27
   5   0   4    0.79    0.16
   5   0   4    0.81    0.16
  -6   1   4    9.81    0.51
   5  -1  -4    3.07    0.27
  -5   1   4    2.89    0.28
  -5   1   4    3.06    0.28
   4  -1  -4   15.29    0.54
  -4   1   4   14.96    0.54
  -4   1   4   15.18    0.51
  -4   1   4   14.94    0.54
  -4   1   4   15.84    0.54
   3  -1  -4  151.92    3.34
  -3   1   4  150.36    3.34
  -3   1   4  150.02    3.21
  -3   1   4  156.57    3.21
  -3   1   4  150.83    3.32
  -3   1   4  154.19    3.34
   2  -1  -4    3.45    0.18
   2  -1  -4    3.67    0.19
   2  -1  -4    3.49    0.13
   2  -1  -4    3.54    0.13
  -2   1   4    3.50    0.16
  -2   1   4    3.63    0.14
  -2   1   4    3.59    0.14
  -2   1   4    3.74    0.19
   1  -1  -4   48.36    1.07
   1  -1  -4   48.00    1.07
   1  -1  -4   48.54    1.11
  -1   1   4   48.45    1.07
  -1   1   4   48.24    1.07
  -1   1   4   48.24    1.11
   0  -1  -4  111.44    2.40
   0  -1  -4  114.42    2.41
   0   1   4  112.15    2.43
   0   1   4  110.29    2.40
   0   1   4  112.74    2.40
  -1  -1  -4    5.07    0.19
  -1  -1  -4    4.92    0.21
  -1  -1  -4    5.12    0.18
   1   1   4    5.03    0.20
   1   1   4    5.18    0.18
   1   1   4    4.91    0.18
  -2  -1  -4    5.92    0.21
  -2  -1  -4    5.93    0.21
   2   1   4    5.69    0.20
   2   1   4    5.85    0.25
   2   1   4    6.01    0.25
   2   1   4    5.66    0.20
  -3  -1  -4   24.13    0.71
  -3  -1  -4   24.31    0.61
  -3  -1  -4   24.27    0.61
   3   1   4   23.71    0.59
   3   1   4   24.60    0.72
   3   1   4   24.24    0.60
   3   1   4   24.48    0.70
  -4  -1  -4   34.44    0.83
  -4  -1  -4   34.36    0.83
  -4  -1  -4   33.55    0.98
   4   1   4   34.68    1.00
   4   1   4   35.02    0.97
   5   1   4    7.23    0.40
   5   1   4    7.71    0.44
   6  -2  -4    6.33    0.42
  -6   2   4    5.73    0.38
   5  -2  -4    0.83    0.18
  -5   2   4    0.85    0.16
   4  -2  -4   10.55    0.43
  -4   2   4   10.04    0.41
  -4   2   4   10.11    0.40
  -4   2   4    9.64    0.39
   3  -2  -4   23.24    0.64
   3  -2  -4   24.72    0.59
   3  -2  -4   23.99    0.68
   3  -2  -4   23.84    0.55
  -3   2   4   23.30    0.66
  -3   2   4   23.27    0.58
  -3   2   4   22.81    0.65
  -3   2   4   24.74    0.57
  -3   2   4   23.91    0.65
   2  -2  -4   34.73    0.87
   2  -2  -4   34.77    0.80
   2  -2  -4   35.49    0.80
   2  -2  -4   34.61    0.84
  -2   2   4   35.19    0.86
  -2   2   4   34.68    0.80
  -2   2   4   33.81    0.80
   1  -2  -4    0.07    0.05
   1  -2  -4    0.21    0.07
   1  -2  -4    0.13    0.05
  -1   2   4    0.12    0.05
  -1   2   4    0.13    0.05
  -1   2   4    0.17    0.07
   0  -2  -4    4.01    0.17
   0  -2  -4    3.96    0.19
   0  -2  -4    3.98    0.17
   0   2   4    3.89    0.17
   0   2   4    4.19    0.17
  -1  -2  -4   69.84    1.56
  -1  -2  -4   70.63    1.56
   1   2   4   70.19    1.56
   1   2   4   68.74    1.56
   1   2   4   70.07    1.56
  -2  -2  -4   10.41    0.34
  -2  -2  -4   10.07    0.33
   2   2   4   10.70    0.37
   2   2   4   10.15    0.32
   2   2   4   10.04    0.32
  -3  -2  -4    9.49    0.32
  -3  -2  -4    9.61    0.33
  -3  -2  -4    9.07    0.38
   3   2   4    9.48    0.39
   3   2   4    9.56    0.39
   3   2   4    9.22    0.31
   3   2   4    8.82    0.30
  -4  -2  -4   11.11    0.37
  -4  -2  -4   11.15    0.38
  -4  -2  -4   10.32    0.46
   4   2   4   11.71    0.49
   4   2   4   11.21    0.34
   4   2   4   11.68    0.48
   4   2   4   10.91    0.35
  -5  -2  -4   23.44    0.64
  -5  -2  -4   23.18    0.64
   5   2   4   24.42    0.84
   6  -3  -4    0.00    0.13
  -6   3   4   -0.04    0.12
   5  -3  -4    8.75    0.45
  -5   3   4    9.20    0.43
  -5   3   4    9.63    0.41
   4  -3  -4   11.88    0.49
  -4   3   4   12.03    0.34
  -4   3   4   13.25    0.45
  -4   3   4   11.93    0.44
  -4   3   4   12.25    0.45
  -4   3   4   12.56    0.34
   3  -3  -4   15.01    0.51
   3  -3  -4   14.76    0.45
   3  -3  -4   15.68    0.41
   3  -3  -4   15.29    0.40
  -3   3   4   15.55    0.52
  -3   3   4   15.50    0.48
  -3   3   4   15.30    0.48
  -3   3   4   14.92    0.41
   2  -3  -4  208.14    4.50
   2  -3  -4  199.35    4.55
   2  -3  -4  211.36    4.46
   2  -3  -4  211.39    4.43
  -2   3   4  207.47    4.46
  -2   3   4  208.35    4.43
  -2   3   4  213.24    4.43
  -2   3   4  208.78    4.42
   1  -3  -4   78.52    1.74
   1  -3  -4   79.61    1.75
   1  -3  -4   80.00    1.77
  -1   3   4   75.62    1.74
  -1   3   4   78.61    1.74
  -1   3   4   77.36    1.76
   0  -3  -4   31.83    0.79
   0  -3  -4   30.81    0.77
   0  -3  -4   30.11    0.79
   0   3   4   31.04    0.71
   0   3   4   30.58    0.77
   0   3   4   32.07    0.78
  -1  -3  -4    4.63    0.22
  -1  -3  -4    5.19    0.23
   1   3   4    5.09    0.20
   1   3   4    5.07    0.22
   1   3   4    4.82    0.22
  -2  -3  -4    5.54    0.26
  -2  -3  -4    5.54    0.25
   2   3   4    5.29    0.30
   2   3   4    5.40    0.25
   2   3   4    4.99    0.23
  -3  -3  -4   31.59    0.83
  -3  -3  -4   31.11    0.82
   3   3   4   32.49    0.91
   3   3   4   32.08    0.89
   3   3   4   30.12    0.81
   3   3   4   30.75    0.81
  -4  -3  -4    8.17    0.34
  -4  -3  -4    8.32    0.33
   4   3   4    8.21    0.42
   4   3   4    7.92    0.31
   4   3   4    8.06    0.42
   6  -4  -4    0.20    0.15
  -6   4   4   -0.05    0.12
   5  -4  -4    5.39    0.37
  -5   4   4    5.08    0.31
  -5   4   4    5.09    0.30
   4  -4  -4    5.85    0.34
   4  -4  -4    5.73    0.21
   4  -4  -4    5.61    0.25
  -4   4   4    5.88    0.29
  -4   4   4    5.73    0.31
  -4   4   4    5.75    0.23
  -4   4   4    5.86    0.23
  -4   4   4    5.36    0.29
   3  -4  -4    1.14    0.17
   3  -4  -4    1.08    0.12
   3  -4  -4    1.01    0.13
   3  -4  -4    1.22    0.14
  -3   4   4    1.02    0.13
  -3   4   4    1.09    0.12
  -3   4   4    1.14    0.16
  -3   4   4    0.97    0.12
   2  -4  -4    0.56    0.10
   2  -4  -4    0.64    0.10
   2  -4  -4    0.63    0.11
  -2   4   4    0.58    0.10
  -2   4   4    0.48    0.07
  -2   4   4    0.59    0.10
  -2   4   4    0.54    0.10
   1  -4  -4   32.31    0.82
   1  -4  -4   31.89    0.83
   1  -4  -4   33.20    0.83
  -1   4   4   31.29    0.88
  -1   4   4   32.31    0.82
   0  -4  -4    8.04    0.32
   0  -4  -4    8.02    0.33
   0  -4  -4    7.51    0.30
   0   4   4    7.38    0.30
   0   4   4    7.69    0.31
  -1  -4  -4   12.73    0.43
  -1  -4  -4   12.79    0.42
   1   4   4   12.62    0.37
   1   4   4   13.56    0.61
   1   4   4   11.98    0.41
  -2  -4  -4    4.31    0.24
  -2  -4  -4    4.26    0.26
   2   4   4    4.35    0.24
   2   4   4    4.48    0.25
  -3  -4  -4   15.57    0.52
  -3  -4  -4   15.46    0.53
   3   4   4   15.33    0.59
   3   4   4   15.54    0.51
   3   4   4   15.66    0.55
  -4  -4  -4   38.88    1.03
  -4  -4  -4   36.98    1.01
   4   4   4   38.09    0.98
   4   4   4   37.31    1.13
   6  -5  -4    2.83    0.31
  -6   5   4    2.54    0.22
   5  -5  -4    0.82    0.20
  -5   5   4    0.64    0.12
  -5   5   4    0.76    0.10
  -5   5   4    0.43    0.12
  -5   5   4    0.63    0.10
   4  -5  -4   16.95    0.50
   4  -5  -4   16.99    0.48
   4  -5  -4   17.40    0.63
   4  -5  -4   17.28    0.49
  -4   5   4   18.18    0.51
  -4   5   4   18.22    0.52
  -4   5   4   16.52    0.59
  -4   5   4   16.35    0.49
  -4   5   4   16.73    0.54
   3  -5  -4   30.94    0.80
   3  -5  -4   30.86    0.80
   3  -5  -4   31.37    0.81
   3  -5  -4   31.09    0.89
  -3   5   4   31.71    0.82
  -3   5   4   31.51    0.80
  -3   5   4   30.09    0.77
  -3   5   4   31.11    0.81
   2  -5  -4   11.60    0.40
   2  -5  -4   12.35    0.45
   2  -5  -4   11.55    0.43
   2  -5  -4   11.94    0.42
  -2   5   4   11.83    0.41
  -2   5   4   12.08    0.42
   1  -5  -4   18.23    0.55
   1  -5  -4   16.87    0.54
   1  -5  -4   16.63    0.53
  -1   5   4   16.84    0.53
  -1   5   4   17.35    0.54
   0  -5  -4    9.20    0.38
   0  -5  -4    9.44    0.39
   0   5   4    9.52    0.38
   0   5   4    9.20    0.36
  -1  -5  -4    4.74    0.27
  -1  -5  -4    4.97    0.29
   1   5   4    5.31    0.29
  -2  -5  -4   13.58    0.51
  -2  -5  -4   12.97    0.49
   2   5   4   13.93    0.50
  -3  -5  -4   10.87    0.45
  -3  -5  -4   10.36    0.43
  -3  -5  -4    9.99    0.42
   3   5   4   10.11    0.48
   3   5   4    9.72    0.41
   5  -6  -4    1.89    0.16
   5  -6  -4    2.19    0.27
  -5   6   4    1.37    0.20
  -5   6   4    2.33    0.15
  -5   6   4    2.27    0.19
  -5   6   4    1.96    0.17
   4  -6  -4    2.34    0.18
   4  -6  -4    2.28    0.17
   4  -6  -4    2.46    0.27
   4  -6  -4    2.56    0.20
  -4   6   4    2.55    0.20
  -4   6   4    2.05    0.18
  -4   6   4    2.39    0.21
   3  -6  -4    1.74    0.22
   3  -6  -4    1.86    0.26
   3  -6  -4    1.81    0.17
   3  -6  -4    1.42    0.18
  -3   6   4    1.60    0.17
  -3   6   4    1.45    0.19
   2  -6  -4   13.57    0.48
   2  -6  -4   13.42    0.48
   2  -6  -4   13.96    0.50
  -2   6   4   12.64    0.47
  -2   6   4   13.13    0.48
   1  -6  -4    2.82    0.21
   1  -6  -4    2.88    0.24
   1  -6  -4    2.80    0.22
  -1   6   4    2.60    0.23
  -1   6   4    2.28    0.21
   0  -6  -4    8.79    0.40
   0  -6  -4    8.80    0.38
   0  -6  -4    9.31    0.41
   0   6   4    9.06    0.38
   0   6   4    9.74    0.41
  -1  -6  -4    4.60    0.28
  -1  -6  -4    4.82    0.31
   1   6   4    4.50    0.29
  -2  -6  -4    7.81    0.39
  -2  -6  -4    8.35    0.42
   2   6   4    8.13    0.40
  -3  -6  -4    9.90    0.47
  -3  -6  -4   10.31    0.40
  -3  -6  -4    8.90    0.43
   3   6   4    9.30    0.43
   3   6   4    9.51    0.50
   5  -7  -4    2.42    0.31
   5  -7  -4    2.63    0.21
  -5   7   4    2.94    0.24
  -5   7   4    2.80    0.21
   4  -7  -4    0.08    0.18
   4  -7  -4    0.06    0.10
   4  -7  -4   -0.10    0.07
  -4   7   4   -0.02    0.09
  -4   7   4    0.02    0.10
   3  -7  -4    5.75    0.32
   3  -7  -4    4.77    0.28
   3  -7  -4    5.17    0.33
  -3   7   4    5.22    0.30
   2  -7  -4    4.89    0.30
   2  -7  -4    4.79    0.31
   2  -7  -4    5.48    0.32
  -2   7   4    5.40    0.34
  -2   7   4    5.78    0.33
   1  -7  -4   15.06    0.56
   1  -7  -4   13.92    0.53
  -1   7   4   14.83    0.56
  -1   7   4   13.90    0.53
   0  -7  -4   12.91    0.54
   0   7   4   12.70    0.52
  -1  -7  -4    4.59    0.34
   1   7   4    4.46    0.32
  -2  -7  -4    6.55    0.40
   2   7   4    6.21    0.37
   4  -8  -4    0.97    0.18
   4  -8  -4    0.69    0.11
   4  -8  -4    1.07    0.22
  -4   8   4    0.97    0.17
  -4   8   4    1.28    0.20
   3  -8  -4    1.76    0.23
   3  -8  -4    0.93    0.16
   3  -8  -4    1.41    0.22
  -3   8   4    1.49    0.20
  -3   8   4    1.67    0.21
   2  -8  -4    1.68    0.23
   2  -8  -4    1.41    0.21
   2  -8  -4    1.37    0.19
  -2   8   4    1.87    0.25
   1  -8  -4    2.34    0.28
   1  -8  -4    2.18    0.25
  -1   8   4    2.40    0.29
   0  -8  -4    3.20    0.32
   0   8   4    3.34    0.31
   1   8  -5    0.42    0.16
  -1  -8   5    0.80    0.20
  -1  -8   5    0.74    0.18
   0   8  -5    4.77    0.35
   0  -8   5    5.82    0.38
   0  -8   5    5.28    0.37
  -1   8  -5    0.88    0.18
   1  -8   5    0.78    0.15
   1  -8   5    1.11    0.32
  -2   8  -5    0.33    0.15
   2  -8   5    0.21    0.15
  -3   8  -5    0.74    0.16
  -3   8  -5    0.61    0.17
   3  -8   5    0.77    0.17
   2   7  -5    0.75    0.16
   2   7  -5    0.48    0.14
  -2  -7   5    0.74    0.19
  -2  -7   5    0.36    0.11
  -2  -7   5    0.64    0.18
   1   7  -5    5.58    0.34
  -1  -7   5    5.62    0.37
  -1  -7   5    5.46    0.25
  -1  -7   5    5.76    0.39
   0   7  -5    6.42    0.36
   0  -7   5    6.29    0.38
   0  -7   5    6.77    0.36
  -1   7  -5    1.14    0.18
  -1   7  -5    1.78    0.21
   1  -7   5    1.27    0.19
   1  -7   5    1.29    0.16
  -2   7  -5    0.31    0.12
  -2   7  -5    0.30    0.15
   2  -7   5    0.36    0.13
  -3   7  -5   18.75    0.63
  -3   7  -5   19.93    0.66
  -3   7  -5   19.26    0.59
   3  -7   5   20.12    0.65
   3  -7   5   19.11    0.58
  -4   7  -5    0.32    0.10
  -4   7  -5    0.10    0.09
  -4   7  -5    0.09    0.10
   4  -7   5    0.15    0.10
   4  -7   5    0.28    0.11
   3   6  -5    7.83    0.40
   3   6  -5    7.05    0.38
  -3  -6   5    7.58    0.41
  -3  -6   5    7.36    0.38
  -3  -6   5    6.94    0.44
  -3  -6   5    8.43    0.52
   2   6  -5    1.46    0.18
   2   6  -5    1.36    0.16
  -2  -6   5    1.23    0.16
  -2  -6   5    1.45    0.22
  -2  -6   5    1.51    0.18
  -2  -6   5    2.07    0.29
   1   6  -5   18.69    0.62
  -1  -6   5   17.03    0.60
  -1  -6   5   18.71    0.63
  -1  -6   5   18.24    0.65
  -1  -6   5   17.57    0.53
   0   6  -5    5.07    0.29
   0  -6   5    5.44    0.32
   0  -6   5    4.67    0.28
   0  -6   5    5.70    0.31
  -1   6  -5   14.12    0.50
  -1   6  -5   12.65    0.48
   1  -6   5   13.97    0.44
   1  -6   5   14.43    0.51
  -2   6  -5    6.96    0.32
  -2   6  -5    7.61    0.35
   2  -6   5    6.45    0.33
   2  -6   5    7.04    0.28
  -3   6  -5    1.09    0.13
  -3   6  -5    1.38    0.17
  -3   6  -5    1.28    0.18
  -3   6  -5    1.53    0.19
   3  -6   5    1.03    0.15
   3  -6   5    1.44    0.17
  -4   6  -5    0.75    0.14
  -4   6  -5    0.48    0.11
  -4   6  -5    0.81    0.12
   4  -6   5    0.85    0.15
   4  -6   5    0.89    0.13
  -5   6  -5    0.54    0.11
   5  -6   5    0.14    0.20
   4   5  -5    7.31    0.40
   4   5  -5    7.27    0.40
  -4  -5   5    7.14    0.37
  -4  -5   5    7.66    0.51
  -4  -5   5    7.41    0.39
   3   5  -5    1.87    0.21
   3   5  -5    1.62    0.20
  -3  -5   5    1.97    0.21
  -3  -5   5    1.90    0.23
  -3  -5   5    1.71    0.21
  -3  -5   5    2.26    0.31
   2   5  -5    0.63    0.11
   2   5  -5    0.65    0.14
  -2  -5   5    0.78    0.14
  -2  -5   5    0.83    0.17
  -2  -5   5    0.52    0.11
  -2  -5   5    0.76    0.17
   1   5  -5    6.62    0.31
   1   5  -5    6.02    0.33
  -1  -5   5    5.85    0.30
  -1  -5   5    6.47    0.34
  -1  -5   5    6.48    0.32
   0   5  -5   10.21    0.39
   0   5  -5    9.90    0.38
   0  -5   5   10.46    0.41
   0  -5   5   11.12    0.56
   0  -5   5    9.44    0.38
  -1   5  -5    3.63    0.22
  -1   5  -5    3.76    0.23
   1  -5   5    3.62    0.19
   1  -5   5    3.77    0.24
   1  -5   5    3.07    0.21
  -2   5  -5   35.29    0.92
  -2   5  -5   36.65    0.93
   2  -5   5   36.51    0.92
   2  -5   5   36.49    0.90
   2  -5   5   32.80    0.90
  -3   5  -5    0.09    0.08
  -3   5  -5    0.15    0.08
  -3   5  -5    0.08    0.06
  -3   5  -5   -0.02    0.07
   3  -5   5    0.01    0.06
   3  -5   5    0.02    0.07
   3  -5   5   -0.03    0.07
  -4   5  -5    1.19    0.14
  -4   5  -5    1.00    0.17
  -4   5  -5    0.86    0.13
  -4   5  -5    1.14    0.14
   4  -5   5    1.03    0.12
   4  -5   5    1.14    0.15
   4  -5   5    1.07    0.15
  -5   5  -5   14.42    0.44
  -5   5  -5   14.33    0.44
   4   4  -5   11.73    0.49
   4   4  -5   11.99    0.43
  -4  -4   5   11.40    0.44
  -4  -4   5   12.32    0.61
  -4  -4   5   12.42    0.47
   3   4  -5    2.13    0.19
   3   4  -5    2.89    0.21
   3   4  -5    2.79    0.21
  -3  -4   5    2.67    0.23
  -3  -4   5    2.86    0.23
  -3  -4   5    2.45    0.28
  -3  -4   5    2.63    0.21
   2   4  -5   18.91    0.56
   2   4  -5   19.21    0.57
   2   4  -5   20.02    0.59
  -2  -4   5   19.52    0.59
  -2  -4   5   18.16    0.57
  -2  -4   5   19.07    0.59
  -2  -4   5   19.51    0.66
   1   4  -5    6.83    0.31
   1   4  -5    6.92    0.29
  -1  -4   5    6.95    0.33
  -1  -4   5    6.48    0.29
  -1  -4   5    6.72    0.30
   0   4  -5   50.86    1.28
   0   4  -5   57.15    1.30
   0  -4   5   55.25    1.28
   0  -4   5   55.05    1.30
   0  -4   5   52.47    1.28
  -1   4  -5    6.12    0.22
  -1   4  -5    6.41    0.31
  -1   4  -5    6.48    0.27
   1  -4   5    6.28    0.26
   1  -4   5    6.51    0.28
   1  -4   5    6.53    0.23
  -2   4  -5    9.34    0.33
  -2   4  -5    8.88    0.38
  -2   4  -5    9.63    0.30
  -2   4  -5    9.62    0.34
   2  -4   5    9.46    0.34
   2  -4   5    9.51    0.33
  -3   4  -5    2.57    0.21
  -3   4  -5    3.42    0.20
  -3   4  -5    3.07    0.18
  -3   4  -5    3.31    0.18
   3  -4   5    3.01    0.22
   3  -4   5    2.91    0.18
   3  -4   5    2.85    0.17
  -4   4  -5    2.87    0.20
  -4   4  -5    2.90    0.23
  -4   4  -5    3.03    0.18
  -4   4  -5    2.61    0.17
   4  -4   5    3.03    0.25
   4  -4   5    2.69    0.15
  -5   4  -5    3.55    0.31
   5  -4   5    2.72    0.41
   5   3  -5    4.61    0.33
  -5  -3   5    4.41    0.41
  -5  -3   5    4.40    0.25
  -5  -3   5    4.98    0.27
   4   3  -5    6.05    0.27
   4   3  -5    5.61    0.25
   4   3  -5    5.77    0.32
  -4  -3   5    5.66    0.29
  -4  -3   5    5.97    0.48
  -4  -3   5    5.66    0.27
   3   3  -5    1.56    0.17
   3   3  -5    1.29    0.13
   3   3  -5    1.34    0.14
  -3  -3   5    1.24    0.17
  -3  -3   5    1.57    0.21
  -3  -3   5    1.39    0.15
  -3  -3   5    1.68    0.17
   2   3  -5    0.86    0.11
   2   3  -5    0.90    0.12
   2   3  -5    0.67    0.11
  -2  -3   5    0.77    0.11
  -2  -3   5    0.59    0.13
  -2  -3   5    0.67    0.11
   1   3  -5  143.59    3.04
   1   3  -5  138.21    3.08
   1   3  -5  143.92    3.09
  -1  -3   5  139.06    3.08
  -1  -3   5  143.43    3.09
  -1  -3   5  142.64    3.13
   0   3  -5   68.10    1.52
   0   3  -5   65.67    1.52
   0  -3   5   66.28    1.52
   0  -3   5   66.09    1.52
   0  -3   5   67.56    1.51
  -1   3  -5    9.08    0.30
  -1   3  -5    8.51    0.29
  -1   3  -5    8.44    0.27
   1  -3   5    8.98    0.30
   1  -3   5    8.69    0.29
   1  -3   5    8.59    0.26
  -2   3  -5    0.18    0.06
  -2   3  -5    0.20    0.08
  -2   3  -5    0.16    0.05
  -2   3  -5    0.22    0.07
   2  -3   5    0.17    0.07
   2  -3   5    0.15    0.06
  -3   3  -5    8.03    0.35
  -3   3  -5    8.57    0.28
  -3   3  -5    8.07    0.29
   3  -3   5    7.93    0.27
   3  -3   5    7.95    0.34
   3  -3   5    7.75    0.26
  -4   3  -5   10.57    0.34
  -4   3  -5   10.86    0.33
  -4   3  -5   10.54    0.45
  -4   3  -5   10.21    0.31
  -4   3  -5   10.70    0.32
  -4   3  -5   11.10    0.39
   4  -3   5   11.06    0.46
  -5   3  -5   10.96    0.36
  -5   3  -5   11.30    0.37
   5  -3   5   11.61    0.56
  -6   3  -5    0.40    0.12
   6  -3   5    0.50    0.15
   5   2  -5    6.54    0.37
  -5  -2   5    6.75    0.28
  -5  -2   5    7.09    0.46
  -5  -2   5    6.61    0.27
   4   2  -5   11.33    0.35
   4   2  -5   12.44    0.46
  -4  -2   5   12.22    0.54
  -4  -2   5    9.72    0.46
  -4  -2   5   12.29    0.39
  -4  -2   5   12.50    0.39
   3   2  -5    4.99    0.25
   3   2  -5    5.01    0.22
   3   2  -5    5.12    0.21
  -3  -2   5    5.19    0.24
  -3  -2   5    5.32    0.28
  -3  -2   5    4.92    0.22
  -3  -2   5    5.14    0.32
   2   2  -5    0.73    0.09
   2   2  -5    0.86    0.11
   2   2  -5    0.87    0.11
   2   2  -5    0.84    0.11
  -2  -2   5    0.97    0.15
  -2  -2   5    0.73    0.09
  -2  -2   5    0.95    0.12
   1   2  -5   57.34    1.29
   1   2  -5   57.39    1.25
   1   2  -5   55.40    1.29
   1   2  -5   55.44    1.22
  -1  -2   5   57.38    1.30
  -1  -2   5   55.89    1.29
  -1  -2   5   58.38    1.34
   0   2  -5   40.71    0.95
   0   2  -5   40.98    0.96
   0   2  -5   41.68    0.96
   0  -2   5   41.96    0.96
   0  -2   5   40.90    0.96
   0  -2   5   40.18    0.96
  -1   2  -5  136.90    2.87
  -1   2  -5  139.11    2.90
  -1   2  -5  136.48    2.83
  -1   2  -5  133.09    2.90
   1  -2   5  134.73    2.87
   1  -2   5  130.84    2.89
   1  -2   5  132.58    2.89
  -2   2  -5    5.11    0.20
  -2   2  -5    5.00    0.20
  -2   2  -5    5.18    0.19
  -2   2  -5    5.15    0.19
  -2   2  -5    4.92    0.27
   2  -2   5    5.23    0.24
   2  -2   5    5.16    0.20
   2  -2   5    4.79    0.19
  -3   2  -5   26.74    0.77
  -3   2  -5   27.73    0.71
  -3   2  -5   26.83    0.67
  -3   2  -5   28.34    0.67
  -3   2  -5   29.43    0.69
   3  -2   5   26.87    0.65
   3  -2   5   28.19    0.78
   3  -2   5   28.62    0.74
   3  -2   5   23.78    0.65
  -4   2  -5    8.65    0.35
  -4   2  -5    8.99    0.27
  -4   2  -5    8.45    0.31
   4  -2   5    8.90    0.37
   4  -2   5    9.01    0.41
  -5   2  -5    0.74    0.12
   5  -2   5    0.53    0.13
   5  -2   5    0.65    0.15
  -6   2  -5    3.09    0.26
   6  -2   5    2.42    0.31
   6   1  -5    1.51    0.23
  -6  -1   5    1.78    0.30
   5   1  -5   14.55    0.59
  -5  -1   5   15.08    0.65
   4   1  -5    1.42    0.11
   4   1  -5    1.33    0.17
   4   1  -5    1.69    0.19
  -4  -1   5    1.18    0.18
  -4  -1   5    1.25    0.17
  -4  -1   5    1.61    0.13
  -4  -1   5    1.39    0.12
   3   1  -5    2.32    0.13
   3   1  -5    2.58    0.18
   3   1  -5    2.52    0.18
   3   1  -5    2.41    0.13
  -3  -1   5    2.34    0.17
  -3  -1   5    2.39    0.19
  -3  -1   5    2.56    0.14
  -3  -1   5    2.51    0.15
  -3  -1   5    2.47    0.23
   2   1  -5  181.68    3.93
   2   1  -5  189.37    3.94
   2   1  -5  184.41    3.92
  -2  -1   5  180.16    3.92
  -2  -1   5  185.43    3.95
  -2  -1   5  186.17    3.93
  -2  -1   5  185.72    4.01
   1   1  -5   31.34    0.79
   1   1  -5   32.14    0.72
   1   1  -5   32.17    0.75
   1   1  -5   31.85    0.75
  -1  -1   5   32.10    0.72
  -1  -1   5   31.51    0.75
  -1  -1   5   31.72    0.75
   0   1  -5    2.02    0.12
   0   1  -5    2.03    0.12
   0  -1   5    1.80    0.12
   0  -1   5    1.99    0.13
  -1   1  -5   26.18    0.63
  -1   1  -5   26.59    0.63
  -1   1  -5   26.24    0.64
   1  -1   5   26.32    0.63
   1  -1   5   26.02    0.63
   1  -1   5   25.83    0.59
   1  -1   5   25.72    0.63
  -2   1  -5   95.45    2.14
  -2   1  -5   99.66    2.13
  -2   1  -5   98.31    2.13
   2  -1   5   98.98    2.20
   2  -1   5  100.47    2.14
   2  -1   5   98.46    2.12
   2  -1   5   95.71    2.12
  -3   1  -5    1.62    0.15
  -3   1  -5    1.74    0.14
  -3   1  -5    1.66    0.17
  -3   1  -5    1.60    0.11
   3  -1   5    1.68    0.15
   3  -1   5    1.39    0.17
  -4   1  -5    4.91    0.18
  -4   1  -5    4.88    0.19
   4  -1   5    4.87    0.28
   4  -1   5    5.04    0.31
   5  -1   5   11.49    0.53
   5  -1   5   12.65    0.51
  -6   0   5    3.13    0.35
   5   0  -5   48.10    1.29
   5   0  -5   47.92    1.28
  -5   0   5   48.64    1.34
   4   0  -5    1.34    0.18
   4   0  -5    1.22    0.15
  -4   0   5    1.37    0.10
  -4   0   5    1.22    0.17
  -4   0   5    1.25    0.16
  -4   0   5    1.29    0.11
  -4   0   5    1.23    0.17
   3   0  -5    0.13    0.07
   3   0  -5    0.10    0.04
   3   0  -5    0.08    0.10
  -3   0   5    0.08    0.08
  -3   0   5    0.08    0.07
  -3   0   5    0.07    0.05
  -3   0   5    0.14    0.06
  -3   0   5    0.13    0.06
   2   0  -5   88.29    2.03
   2   0  -5   88.19    1.96
   2   0  -5   91.74    2.00
   2   0  -5   88.81    1.95
  -2   0   5   91.48    2.04
  -2   0   5   91.67    1.96
  -2   0   5   92.93    1.96
  -2   0   5   90.46    1.99
   1   0  -5  114.99    2.52
   1   0  -5  113.98    2.49
   1   0  -5  115.61    2.49
  -1   0   5  117.24    2.49
  -1   0   5  116.33    2.52
  -1   0   5  117.31    2.47
  -1   0   5  116.68    2.49
   0   0  -5   67.46    1.48
   0   0  -5   67.12    1.48
   0   0  -5   67.16    1.50
   0   0   5   65.83    1.48
   0   0   5   65.98    1.47
   0   0   5   68.07    1.50
  -1   0  -5   35.38    0.83
  -1   0  -5   35.48    0.85
  -1   0  -5   36.67    0.83
   1   0   5   35.29    0.83
   1   0   5   35.27    0.83
  -2   0  -5   35.83    0.91
  -2   0  -5   38.20    0.87
  -2   0  -5   37.45    0.87
   2   0   5   38.07    0.86
   2   0   5   36.69    0.86
   2   0   5   37.21    0.90
   2   0   5   36.89    0.93
  -3   0  -5    0.05    0.06
  -3   0  -5    0.07    0.05
  -3   0  -5    0.13    0.08
   3   0   5    0.16    0.07
   3   0   5    0.06    0.07
   3   0   5    0.16    0.05
   3   0   5    0.08    0.05
  -4   0  -5    4.72    0.31
  -4   0  -5    4.92    0.20
   4   0   5    4.67    0.31
   4   0   5    4.89    0.28
   5   0   5   11.20    0.52
   5   0   5   10.62    0.48
   6  -1  -5    4.79    0.36
  -6   1   5    4.53    0.50
   5  -1  -5    0.19    0.12
  -5   1   5    0.10    0.13
   4  -1  -5    7.14    0.35
  -4   1   5    7.44    0.36
  -4   1   5    6.97    0.32
  -4   1   5    7.42    0.35
   3  -1  -5   17.45    0.53
   3  -1  -5   17.06    0.52
   3  -1  -5   16.68    0.41
  -3   1   5   16.89    0.53
  -3   1   5   17.17    0.55
  -3   1   5   16.86    0.43
  -3   1   5   16.98    0.50
   2  -1  -5   15.82    0.46
   2  -1  -5   15.78    0.40
   2  -1  -5   15.13    0.40
   2  -1  -5   15.61    0.46
  -2   1   5   15.35    0.46
  -2   1   5   15.72    0.41
  -2   1   5   15.51    0.44
  -2   1   5   15.20    0.41
   1  -1  -5    8.01    0.25
   1  -1  -5    8.28    0.25
  -1   1   5    8.18    0.25
  -1   1   5    8.02    0.25
  -1   1   5    8.27    0.29
   0  -1  -5  134.15    2.88
   0  -1  -5  133.56    2.84
   0   1   5  131.02    2.87
   0   1   5  134.87    2.84
   0   1   5  129.50    2.84
  -1  -1  -5  396.49    8.23
  -1  -1  -5  382.61    8.27
   1   1   5  389.30    8.23
   1   1   5  402.35    8.23
  -2  -1  -5    0.55    0.08
  -2  -1  -5    0.56    0.10
   2   1   5    0.32    0.12
   2   1   5    0.31    0.09
   2   1   5    0.51    0.08
   2   1   5    0.46    0.07
  -3  -1  -5    0.99    0.11
  -3  -1  -5    0.96    0.11
   3   1   5    0.94    0.11
   3   1   5    0.85    0.11
   3   1   5    0.68    0.11
   3   1   5    0.79    0.12
  -4  -1  -5   18.60    0.51
  -4  -1  -5   17.84    0.51
  -4  -1  -5   17.86    0.64
   4   1   5   19.50    0.64
   4   1   5   18.12    0.65
  -5  -1  -5    6.66    0.26
  -5  -1  -5    6.25    0.24
   5   1   5    6.72    0.41
   5   1   5    5.82    0.37
   6  -2  -5   36.27    1.12
  -6   2   5   35.45    1.07
   5  -2  -5    0.30    0.13
  -5   2   5    0.36    0.13
   4  -2  -5    6.57    0.35
  -4   2   5    6.32    0.32
  -4   2   5    6.63    0.31
  -4   2   5    6.95    0.34
   3  -2  -5   64.62    1.53
   3  -2  -5   65.76    1.55
   3  -2  -5   65.03    1.43
   3  -2  -5   61.52    1.41
  -3   2   5   63.62    1.52
  -3   2   5   66.24    1.43
  -3   2   5   65.77    1.53
  -3   2   5   65.61    1.44
  -3   2   5   65.81    1.53
   2  -2  -5   22.41    0.56
   2  -2  -5   22.83    0.56
   2  -2  -5   22.88    0.61
  -2   2   5   22.12    0.56
  -2   2   5   22.49    0.56
  -2   2   5   22.60    0.62
   1  -2  -5    7.50    0.29
   1  -2  -5    7.17    0.24
   1  -2  -5    7.21    0.24
  -1   2   5    7.33    0.24
  -1   2   5    7.10    0.28
  -1   2   5    7.37    0.25
   0  -2  -5   93.63    2.06
   0  -2  -5   91.23    2.09
   0  -2  -5   94.31    2.06
   0   2   5   91.94    2.06
   0   2   5   96.90    2.10
   0   2   5   95.37    2.06
  -1  -2  -5   25.58    0.71
  -1  -2  -5   26.67    0.67
  -1  -2  -5   26.75    0.67
   1   2   5   26.03    0.67
   1   2   5   26.64    0.67
   1   2   5   26.73    0.67
  -2  -2  -5    0.49    0.10
  -2  -2  -5    0.50    0.08
   2   2   5    0.55    0.10
   2   2   5    0.50    0.08
   2   2   5    0.56    0.09
  -3  -2  -5   10.89    0.37
  -3  -2  -5   11.27    0.38
   3   2   5   11.45    0.44
   3   2   5   11.78    0.44
   3   2   5   11.01    0.36
   3   2   5   10.70    0.35
  -4  -2  -5   15.03    0.46
  -4  -2  -5   14.62    0.46
   4   2   5   14.64    0.57
   4   2   5   14.34    0.43
   4   2   5   14.60    0.49
   4   2   5   14.97    0.58
  -5  -2  -5   17.35    0.57
  -5  -2  -5   15.74    0.50
   5   2   5   16.26    0.66
   5   2   5   17.22    0.69
   6  -3  -5    0.75    0.19
  -6   3   5    0.46    0.16
   5  -3  -5    4.42    0.32
  -5   3   5    4.42    0.30
  -5   3   5    4.13    0.30
   4  -3  -5    1.42    0.21
   4  -3  -5    1.46    0.16
  -4   3   5    1.55    0.12
  -4   3   5    1.56    0.17
  -4   3   5    1.45    0.21
  -4   3   5    1.47    0.17
  -4   3   5    1.38    0.18
   3  -3  -5   42.03    0.97
   3  -3  -5   42.54    0.97
   3  -3  -5   42.69    1.09
   3  -3  -5   41.17    1.03
  -3   3   5   39.89    0.97
  -3   3   5   43.47    0.98
  -3   3   5   41.72    1.05
  -3   3   5   42.18    1.04
   2  -3  -5    1.40    0.15
   2  -3  -5    1.17    0.13
   2  -3  -5    1.22    0.12
  -2   3   5    1.28    0.17
  -2   3   5    1.18    0.12
  -2   3   5    1.25    0.16
   1  -3  -5   40.87    1.05
   1  -3  -5   42.63    1.00
   1  -3  -5   41.98    1.03
  -1   3   5   40.43    0.99
  -1   3   5   42.67    1.03
  -1   3   5   42.49    1.00
   0  -3  -5  176.73    3.77
   0  -3  -5  169.51    3.79
   0  -3  -5  177.87    3.77
   0   3   5  170.49    3.76
   0   3   5  176.96    3.76
  -1  -3  -5    2.65    0.17
  -1  -3  -5    2.63    0.18
  -1  -3  -5    2.77    0.20
   1   3   5    2.76    0.18
   1   3   5    2.76    0.16
   1   3   5    2.70    0.16
  -2  -3  -5    7.41    0.30
  -2  -3  -5    7.31    0.30
   2   3   5    7.34    0.29
   2   3   5    7.30    0.31
   2   3   5    6.98    0.29
  -3  -3  -5   14.69    0.48
  -3  -3  -5   14.23    0.47
   3   3   5   14.61    0.46
   3   3   5   14.24    0.45
   3   3   5   14.32    0.53
   3   3   5   14.47    0.52
  -4  -3  -5    5.07    0.28
  -4  -3  -5    4.59    0.25
   4   3   5    4.92    0.24
   4   3   5    4.70    0.34
   4   3   5    5.07    0.34
   6  -4  -5    0.34    0.17
  -6   4   5    0.33    0.14
   5  -4  -5    6.21    0.48
  -5   4   5    5.79    0.33
  -5   4   5    5.62    0.33
   4  -4  -5   20.12    0.60
   4  -4  -5   21.11    0.70
   4  -4  -5   21.34    0.55
  -4   4   5   20.77    0.64
  -4   4   5   20.88    0.55
  -4   4   5   21.20    0.56
   3  -4  -5   25.40    0.65
   3  -4  -5   24.71    0.75
   3  -4  -5   24.89    0.68
   3  -4  -5   24.65    0.64
  -3   4   5   23.69    0.65
  -3   4   5   24.63    0.69
  -3   4   5   24.92    0.68
  -3   4   5   25.34    0.66
   2  -4  -5    0.30    0.09
   2  -4  -5    0.24    0.07
   2  -4  -5    0.29    0.08
  -2   4   5    0.27    0.06
  -2   4   5    0.23    0.09
  -2   4   5    0.22    0.09
  -2   4   5    0.34    0.08
   1  -4  -5   64.89    1.49
   1  -4  -5   63.41    1.48
   1  -4  -5   63.24    1.51
  -1   4   5   63.09    1.49
  -1   4   5   64.50    1.49
   0  -4  -5   39.10    1.00
   0  -4  -5   40.42    1.01
   0  -4  -5   39.08    1.03
   0   4   5   41.31    1.01
   0   4   5   39.79    1.00
  -1  -4  -5    4.20    0.23
  -1  -4  -5    3.91    0.26
  -1  -4  -5    4.12    0.24
   1   4   5    4.01    0.19
   1   4   5    3.94    0.22
   1   4   5    4.21    0.24
  -2  -4  -5    1.93    0.18
  -2  -4  -5    2.19    0.20
   2   4   5    2.16    0.17
   2   4   5    2.13    0.18
   2   4   5    1.90    0.28
  -3  -4  -5   15.27    0.53
  -3  -4  -5   14.90    0.51
   3   4   5   14.86    0.50
   3   4   5   15.14    0.54
  -4  -4  -5    0.60    0.12
  -4  -4  -5    0.66    0.13
   4   4   5    0.80    0.13
   4   4   5    0.75    0.16
   6  -5  -5    0.60    0.19
  -6   5   5    0.19    0.12
   5  -5  -5    3.28    0.32
  -5   5   5    3.02    0.25
  -5   5   5    3.48    0.20
  -5   5   5    3.30    0.18
  -5   5   5    3.08    0.24
   4  -5  -5   10.58    0.38
   4  -5  -5   11.04    0.36
   4  -5  -5   11.02    0.36
   4  -5  -5   11.31    0.49
  -4   5   5   10.69    0.40
  -4   5   5   11.10    0.37
  -4   5   5   11.21    0.38
  -4   5   5   10.97    0.41
   3  -5  -5   14.80    0.50
   3  -5  -5   14.74    0.55
   3  -5  -5   14.45    0.47
   3  -5  -5   14.40    0.45
  -3   5   5   14.00    0.43
  -3   5   5   15.16    0.48
  -3   5   5   15.06    0.48
  -3   5   5   14.21    0.46
   2  -5  -5    8.14    0.35
   2  -5  -5    8.25    0.34
   2  -5  -5    8.16    0.32
  -2   5   5    7.84    0.33
  -2   5   5    8.03    0.34
   1  -5  -5   15.60    0.50
   1  -5  -5   16.05    0.52
   1  -5  -5   15.68    0.52
  -1   5   5   16.18    0.52
  -1   5   5   15.23    0.50
   0  -5  -5   18.45    0.58
   0  -5  -5   18.59    0.61
   0  -5  -5   18.91    0.60
   0   5   5   19.16    0.59
   0   5   5   18.09    0.58
  -1  -5  -5   19.84    0.69
  -1  -5  -5   21.08    0.65
  -1  -5  -5   21.51    0.66
   1   5   5   21.28    0.55
   1   5   5   21.04    0.65
  -2  -5  -5   12.46    0.48
  -2  -5  -5   12.85    0.50
   2   5   5   13.68    0.49
  -3  -5  -5    4.69    0.30
  -3  -5  -5    5.31    0.32
   3   5   5    5.02    0.35
   3   5   5    5.10    0.30
   5  -6  -5    3.19    0.32
   5  -6  -5    3.05    0.25
  -5   6   5    2.54    0.27
  -5   6   5    2.95    0.20
  -5   6   5    3.40    0.22
   4  -6  -5   18.45    0.66
   4  -6  -5   17.82    0.54
   4  -6  -5   17.23    0.53
  -4   6   5   17.26    0.54
  -4   6   5   16.35    0.52
  -4   6   5   18.92    0.57
   3  -6  -5    0.94    0.15
   3  -6  -5    0.87    0.15
   3  -6  -5    0.88    0.17
  -3   6   5    1.24    0.17
  -3   6   5    0.83    0.13
   2  -6  -5   17.80    0.58
   2  -6  -5   15.90    0.56
  -2   6   5   16.37    0.55
  -2   6   5   17.23    0.57
   1  -6  -5   13.60    0.50
   1  -6  -5   14.22    0.52
  -1   6   5   13.79    0.50
  -1   6   5   13.16    0.48
   0  -6  -5    0.40    0.12
   0  -6  -5    0.74    0.15
   0  -6  -5    0.53    0.14
   0   6   5    0.52    0.13
   0   6   5    0.61    0.13
  -1  -6  -5    2.23    0.25
  -1  -6  -5    1.62    0.19
   1   6   5    2.40    0.23
  -2  -6  -5   16.38    0.60
  -2  -6  -5   16.70    0.62
   2   6   5   17.30    0.61
  -3  -6  -5    1.17    0.19
   3   6   5    1.68    0.22
   3   6   5    1.54    0.23
   5  -7  -5    1.05    0.15
   5  -7  -5    1.39    0.24
  -5   7   5    1.32    0.15
  -5   7   5    1.30    0.18
   4  -7  -5    1.52    0.25
   4  -7  -5    1.31    0.18
   4  -7  -5    0.91    0.13
  -4   7   5    1.24    0.18
  -4   7   5    1.43    0.19
   3  -7  -5    3.71    0.27
   3  -7  -5    3.65    0.30
   3  -7  -5    3.08    0.25
  -3   7   5    2.96    0.26
  -3   7   5    3.30    0.25
   2  -7  -5    3.31    0.28
   2  -7  -5    3.24    0.27
   2  -7  -5    3.29    0.26
  -2   7   5    3.73    0.28
  -2   7   5    3.26    0.28
   1  -7  -5   11.67    0.49
   1  -7  -5   11.03    0.48
  -1   7   5   10.62    0.47
   0  -7  -5    0.68    0.26
   0   7   5    0.42    0.14
  -1  -7  -5    6.47    0.39
   1   7   5    5.93    0.37
  -2  -7  -5    3.44    0.31
   2   7   5    3.38    0.29
   4  -8  -5    0.89    0.18
   4  -8  -5    1.03    0.21
  -4   8   5    0.79    0.15
  -4   8   5    0.79    0.16
   3  -8  -5    5.08    0.35
   3  -8  -5    3.70    0.30
   3  -8  -5    4.86    0.32
  -3   8   5    5.08    0.34
  -3   8   5    5.33    0.33
   2  -8  -5    2.04    0.27
   2  -8  -5    1.80    0.22
   2  -8  -5    1.92    0.25
  -2   8   5    1.62    0.21
   1  -8  -5    2.81    0.29
  -1   8   5    2.54    0.29
   0  -8  -5    7.92    0.45
   0   8   5    8.05    0.44
   1   8  -6    0.95    0.20
   1   8  -6    0.87    0.15
  -1  -8   6    1.44    0.25
  -1  -8   6    1.24    0.23
   0   8  -6    1.17    0.21
   0  -8   6    1.16    0.22
   0  -8   6    1.02    0.19
  -1   8  -6    0.65    0.18
   1  -8   6    0.46    0.16
   1  -8   6    0.65    0.14
  -2   8  -6   17.47    0.66
   2  -8   6   17.59    0.66
  -3   8  -6    2.53    0.25
  -3   8  -6    2.78    0.27
  -3   8  -6    2.35    0.24
   3  -8   6    2.24    0.27
   3  -8   6    2.46    0.20
   2   7  -6    2.67    0.27
   2   7  -6    2.65    0.28
  -2  -7   6    2.64    0.24
  -2  -7   6    2.51    0.29
  -2  -7   6    3.28    0.36
   1   7  -6    0.84    0.18
  -1  -7   6    0.45    0.10
  -1  -7   6    0.66    0.17
  -1  -7   6    0.73    0.19
   0   7  -6    0.78    0.15
   0  -7   6    0.97    0.17
   0  -7   6    0.78    0.17
  -1   7  -6    0.55    0.15
  -1   7  -6    0.52    0.14
   1  -7   6    0.59    0.18
   1  -7   6    0.56    0.12
  -2   7  -6    0.22    0.17
  -2   7  -6    0.08    0.10
   2  -7   6    0.10    0.10
   2  -7   6    0.15    0.13
  -3   7  -6    5.57    0.28
  -3   7  -6    5.73    0.33
  -3   7  -6    6.38    0.35
   3  -7   6    6.71    0.35
   3  -7   6    6.14    0.30
  -4   7  -6    0.35    0.13
  -4   7  -6    0.46    0.12
   4  -7   6    0.20    0.10
   4  -7   6    0.30    0.12
   3   6  -6    8.01    0.40
   3   6  -6    8.78    0.42
  -3  -6   6    8.04    0.52
  -3  -6   6    7.71    0.40
  -3  -6   6    7.66    0.42
   2   6  -6    1.89    0.22
   2   6  -6    1.77    0.19
  -2  -6   6    2.03    0.23
  -2  -6   6    1.62    0.19
  -2  -6   6    2.05    0.29
  -2  -6   6    2.25    0.26
   1   6  -6    0.81    0.16
  -1  -6   6    0.82    0.17
  -1  -6   6    0.87    0.17
  -1  -6   6    0.69    0.15
   0   6  -6    3.48    0.25
   0   6  -6    3.89    0.27
   0  -6   6    3.95    0.26
   0  -6   6    3.70    0.28
  -1   6  -6   44.45    1.12
  -1   6  -6   41.85    1.10
   1  -6   6   44.42    1.03
   1  -6   6   35.10    1.07
   1  -6   6   42.83    1.11
  -2   6  -6    1.36    0.18
  -2   6  -6    1.26    0.17
   2  -6   6    1.02    0.13
   2  -6   6    0.86    0.14
  -3   6  -6    5.32    0.30
  -3   6  -6    4.88    0.26
  -3   6  -6    4.77    0.24
  -3   6  -6    4.71    0.28
   3  -6   6    5.04    0.28
   3  -6   6    4.83    0.27
  -4   6  -6    2.93    0.21
  -4   6  -6    3.25    0.31
  -4   6  -6    3.00    0.22
   4  -6   6    3.19    0.22
   4  -6   6    3.12    0.26
  -5   6  -6    0.68    0.12
  -5   6  -6    0.88    0.14
   5  -6   6    0.60    0.16
   4   5  -6    6.04    0.36
   4   5  -6    6.35    0.34
  -4  -5   6    6.36    0.48
  -4  -5   6    6.32    0.36
  -4  -5   6    5.54    0.33
   3   5  -6    7.13    0.35
   3   5  -6    7.29    0.35
  -3  -5   6    6.99    0.45
  -3  -5   6    5.82    0.34
  -3  -5   6    6.23    0.35
  -3  -5   6    7.23    0.37
   2   5  -6    7.97    0.34
   2   5  -6    8.31    0.37
  -2  -5   6    7.97    0.38
  -2  -5   6    8.06    0.44
  -2  -5   6    7.63    0.36
  -2  -5   6    7.74    0.35
   1   5  -6    0.09    0.07
   1   5  -6    0.10    0.09
  -1  -5   6    0.06    0.10
  -1  -5   6   -0.03    0.08
  -1  -5   6    0.07    0.08
   0   5  -6   18.61    0.58
   0   5  -6   17.45    0.57
   0  -5   6   19.25    0.58
   0  -5   6   17.65    0.57
   0  -5   6   18.48    0.59
  -1   5  -6   10.85    0.41
  -1   5  -6    9.93    0.39
   1  -5   6   10.86    0.35
   1  -5   6   10.21    0.38
   1  -5   6   10.80    0.41
  -2   5  -6    2.30    0.20
  -2   5  -6    2.27    0.17
  -2   5  -6    2.24    0.18
   2  -5   6    2.16    0.18
   2  -5   6    2.41    0.20
  -3   5  -6    4.29    0.26
  -3   5  -6    4.52    0.25
  -3   5  -6    4.68    0.22
  -3   5  -6    4.99    0.26
   3  -5   6    4.91    0.26
   3  -5   6    4.75    0.27
  -4   5  -6    3.21    0.21
  -4   5  -6    3.32    0.22
  -4   5  -6    3.80    0.22
   4  -5   6    3.61    0.27
   4  -5   6    3.48    0.19
   4  -5   6    3.68    0.21
  -5   5  -6    1.11    0.14
  -5   5  -6    1.19    0.14
   5  -5   6    1.01    0.19
   4   4  -6    6.79    0.32
   4   4  -6    7.19    0.38
  -4  -4   6    6.98    0.47
  -4  -4   6    7.67    0.34
  -4  -4   6    7.93    0.37
   3   4  -6    4.45    0.26
   3   4  -6    4.37    0.26
  -3  -4   6    4.69    0.35
  -3  -4   6    3.28    0.38
  -3  -4   6    4.52    0.26
  -3  -4   6    4.70    0.28
   2   4  -6    2.03    0.17
   2   4  -6    2.13    0.19
   2   4  -6    2.06    0.21
  -2  -4   6    2.23    0.20
  -2  -4   6    2.25    0.25
  -2  -4   6    2.07    0.18
   1   4  -6    8.38    0.33
   1   4  -6    7.51    0.32
   1   4  -6    8.01    0.27
  -1  -4   6    7.84    0.36
  -1  -4   6    7.81    0.32
  -1  -4   6    7.93    0.34
   0   4  -6   20.79    0.59
   0   4  -6   19.44    0.58
   0  -4   6   19.00    0.57
   0  -4   6   20.31    0.59
   0  -4   6   20.26    0.58
  -1   4  -6    0.22    0.06
  -1   4  -6    0.16    0.07
  -1   4  -6    0.09    0.07
   1  -4   6    0.07    0.06
   1  -4   6    0.10    0.08
   1  -4   6    0.19    0.07
  -2   4  -6   49.29    1.16
  -2   4  -6   46.83    1.15
  -2   4  -6   48.56    1.09
  -2   4  -6   48.18    1.16
   2  -4   6   48.36    1.16
   2  -4   6   45.81    1.14
  -3   4  -6   11.70    0.39
  -3   4  -6   11.92    0.37
  -3   4  -6   11.45    0.44
  -3   4  -6   12.92    0.41
   3  -4   6   11.04    0.36
   3  -4   6   11.73    0.44
   3  -4   6   11.45    0.38
  -4   4  -6   19.84    0.58
  -4   4  -6   20.24    0.55
  -4   4  -6   19.74    0.54
  -4   4  -6   16.23    0.63
   4  -4   6   20.22    0.67
   4  -4   6   19.05    0.51
   4  -4   6   18.35    0.51
  -5   4  -6    6.11    0.23
  -5   4  -6    6.23    0.25
  -5   4  -6    5.80    0.37
   5  -4   6    6.11    0.38
   5   3  -6    4.03    0.32
  -5  -3   6    4.04    0.26
  -5  -3   6    4.37    0.42
  -5  -3   6    4.06    0.23
   4   3  -6   18.10    0.56
   4   3  -6   19.00    0.56
   4   3  -6   20.36    0.65
  -4  -3   6   19.60    0.60
  -4  -3   6   20.02    0.91
  -4  -3   6   19.58    0.58
   3   3  -6   12.49    0.41
   3   3  -6   12.36    0.43
   3   3  -6   11.30    0.39
  -3  -3   6   12.45    0.43
  -3  -3   6   12.06    0.41
  -3  -3   6   12.25    0.52
  -3  -3   6   11.49    0.46
   2   3  -6    2.40    0.17
   2   3  -6    2.58    0.25
   2   3  -6    2.57    0.18
  -2  -3   6    2.51    0.18
  -2  -3   6    2.47    0.24
  -2  -3   6    2.56    0.19
   1   3  -6   69.91    1.63
   1   3  -6   72.30    1.63
   1   3  -6   72.04    1.57
  -1  -3   6   69.58    1.64
  -1  -3   6   71.15    1.63
   0   3  -6    5.28    0.16
   0   3  -6    5.67    0.24
   0   3  -6    5.47    0.27
   0  -3   6    5.02    0.23
   0  -3   6    5.20    0.23
   0  -3   6    5.95    0.25
  -1   3  -6    1.81    0.15
  -1   3  -6    2.02    0.08
  -1   3  -6    1.78    0.11
  -1   3  -6    1.85    0.12
  -1   3  -6    2.01    0.15
   1  -3   6    1.93    0.15
   1  -3   6    1.80    0.14
   1  -3   6    2.00    0.13
  -2   3  -6   34.60    0.77
  -2   3  -6   33.14    0.87
  -2   3  -6   34.56    0.85
  -2   3  -6   34.69    0.80
  -2   3  -6   35.89    0.86
   2  -3   6   33.06    0.83
   2  -3   6   34.50    0.85
  -3   3  -6   32.12    0.79
  -3   3  -6   32.42    0.81
  -3   3  -6   30.78    0.88
  -3   3  -6   33.08    0.80
   3  -3   6   31.62    0.78
   3  -3   6   31.05    0.77
   3  -3   6   31.58    0.88
  -4   3  -6    2.78    0.16
  -4   3  -6    2.67    0.16
  -4   3  -6    2.83    0.19
  -4   3  -6    3.10    0.18
  -4   3  -6    3.04    0.24
   4  -3   6    2.74    0.14
   4  -3   6    3.06    0.26
  -5   3  -6    2.11    0.17
  -5   3  -6    1.93    0.15
   5  -3   6    1.92    0.25
   5   2  -6    1.98    0.25
  -5  -2   6    1.72    0.17
  -5  -2   6    1.57    0.26
  -5  -2   6    1.84    0.16
   4   2  -6   21.17    0.66
   4   2  -6   20.85    0.56
   4   2  -6   19.16    0.54
  -4  -2   6   20.68    0.59
  -4  -2   6   21.64    0.76
  -4  -2   6   20.83    0.58
   3   2  -6    8.10    0.29
   3   2  -6    7.87    0.32
   3   2  -6    7.98    0.30
   3   2  -6    7.48    0.28
  -3  -2   6    8.08    0.40
  -3  -2   6    7.81    0.35
  -3  -2   6    7.87    0.29
  -3  -2   6    8.05    0.31
   2   2  -6   29.11    0.75
   2   2  -6   30.73    0.75
   2   2  -6   29.53    0.72
   2   2  -6   30.75    0.76
  -2  -2   6   30.93    0.85
  -2  -2   6   30.59    0.77
  -2  -2   6   30.50    0.76
   1   2  -6   20.40    0.49
   1   2  -6   20.13    0.54
  -1  -2   6   19.20    0.54
  -1  -2   6   20.97    0.58
  -1  -2   6   20.05    0.54
   0   2  -6   12.18    0.36
   0   2  -6   12.82    0.37
   0  -2   6   12.31    0.37
   0  -2   6   11.51    0.36
  -1   2  -6   41.40    0.94
  -1   2  -6   41.36    0.96
  -1   2  -6   39.29    0.95
   1  -2   6   38.55    0.95
   1  -2   6   41.25    0.94
   1  -2   6   40.50    0.96
  -2   2  -6   30.49    0.74
  -2   2  -6   31.75    0.77
  -2   2  -6   31.97    0.76
  -2   2  -6   32.17    0.83
   2  -2   6   32.15    0.75
   2  -2   6   31.81    0.77
   2  -2   6   31.17    0.76
  -3   2  -6   45.70    1.07
  -3   2  -6   46.13    1.19
  -3   2  -6   47.43    1.08
  -3   2  -6   46.59    1.10
  -3   2  -6   45.41    1.08
   3  -2   6   45.38    1.13
   3  -2   6   47.60    1.19
   3  -2   6   45.23    1.05
   3  -2   6   45.94    1.07
  -4   2  -6    2.35    0.15
  -4   2  -6    2.40    0.16
   4  -2   6    2.57    0.21
   4  -2   6    2.43    0.23
  -5   2  -6    8.93    0.35
   5  -2   6    8.55    0.41
   5  -2   6    8.77    0.46
   5   1  -6   11.74    0.50
  -5  -1   6   10.75    0.35
  -5  -1   6   10.62    0.34
  -5  -1   6   11.22    0.80
   4   1  -6    2.27    0.20
   4   1  -6    2.05    0.12
   4   1  -6    1.94    0.19
  -4  -1   6    1.64    0.29
  -4  -1   6    2.19    0.22
  -4  -1   6    2.25    0.16
  -4  -1   6    2.07    0.14
  -4  -1   6    2.04    0.26
   3   1  -6   20.88    0.55
   3   1  -6   20.81    0.59
   3   1  -6   21.40    0.60
   3   1  -6   20.26    0.54
  -3  -1   6   21.91    0.68
  -3  -1   6   21.13    0.56
  -3  -1   6   21.47    0.61
  -3  -1   6   21.57    0.56
  -3  -1   6   20.34    0.64
   2   1  -6   28.54    0.71
   2   1  -6   29.10    0.70
   2   1  -6   28.24    0.77
   2   1  -6   28.71    0.70
   2   1  -6   27.78    0.74
  -2  -1   6   28.65    0.70
  -2  -1   6   27.88    0.70
  -2  -1   6   28.77    0.71
   1   1  -6    0.20    0.06
   1   1  -6    0.15    0.05
   1   1  -6    0.10    0.06
  -1  -1   6    0.10    0.03
  -1  -1   6    0.08    0.06
  -1  -1   6    0.13    0.07
  -1  -1   6    0.09    0.05
   0   1  -6    0.14    0.06
   0   1  -6    0.24    0.06
   0   1  -6    0.18    0.06
   0  -1   6    0.17    0.06
   0  -1   6    0.18    0.07
   0  -1   6    0.09    0.05
  -1   1  -6  112.19    2.40
  -1   1  -6  112.19    2.40
  -1   1  -6  111.97    2.40
   1  -1   6  108.28    2.39
   1  -1   6  109.78    2.40
   1  -1   6  108.95    2.39
   1  -1   6  108.52    2.33
  -2   1  -6  152.51    3.15
  -2   1  -6  145.66    3.15
  -2   1  -6  142.12    3.15
   2  -1   6  145.43    3.22
   2  -1   6  145.38    3.14
   2  -1   6  147.21    3.14
  -3   1  -6    0.42    0.08
  -3   1  -6    0.71    0.11
  -3   1  -6    0.62    0.09
  -3   1  -6    0.58    0.11
   3  -1   6    0.48    0.09
   3  -1   6    0.50    0.12
   3  -1   6    0.55    0.08
   3  -1   6    0.48    0.07
  -4   1  -6    1.60    0.15
  -4   1  -6    2.05    0.19
  -4   1  -6    1.64    0.13
   4  -1   6    1.76    0.21
   4  -1   6    1.58    0.18
  -5   1  -6    4.85    0.28
   5  -1   6    3.94    0.29
   5  -1   6    3.54    0.32
  -6   0   6    4.12    0.38
   5   0  -6   20.93    0.72
  -5   0   6   23.22    0.79
   4   0  -6    5.92    0.30
   4   0  -6    5.95    0.31
  -4   0   6    6.22    0.30
  -4   0   6    5.87    0.23
  -4   0   6    6.04    0.23
  -4   0   6    6.24    0.36
   3   0  -6   46.43    1.18
   3   0  -6   46.21    1.06
   3   0  -6   46.19    1.07
  -3   0   6   47.98    1.15
  -3   0   6   48.46    1.21
  -3   0   6   46.32    1.18
  -3   0   6   48.87    1.08
   2   0  -6   62.50    1.51
   2   0  -6   64.51    1.44
   2   0  -6   64.17    1.47
   2   0  -6   64.18    1.43
  -2   0   6   65.10    1.44
  -2   0   6   65.19    1.51
  -2   0   6   63.07    1.45
  -2   0   6   65.91    1.44
   1   0  -6   49.47    1.14
   1   0  -6   50.42    1.17
   1   0  -6   50.50    1.14
  -1   0   6   49.97    1.17
  -1   0   6   49.12    1.14
  -1   0   6   49.22    1.14
   0   0  -6   22.72    0.61
   0   0  -6   22.86    0.58
   0   0  -6   23.19    0.58
   0   0   6   23.25    0.61
   0   0   6   22.82    0.58
  -1   0  -6   30.04    0.72
  -1   0  -6   27.98    0.73
  -1   0  -6   29.74    0.72
   1   0   6   30.27    0.74
   1   0   6   28.70    0.71
   1   0   6   29.08    0.72
  -2   0  -6   47.35    1.09
  -2   0  -6   46.02    1.13
  -2   0  -6   46.96    1.09
   2   0   6   48.03    1.08
   2   0   6   46.38    1.10
   2   0   6   46.85    1.15
   2   0   6   46.76    1.08
  -3   0  -6   18.06    0.57
  -3   0  -6   19.52    0.52
  -3   0  -6   19.05    0.52
  -3   0  -6   18.32    0.61
   3   0   6   18.73    0.57
   3   0   6   18.80    0.50
   3   0   6   20.22    0.62
   3   0   6   19.02    0.49
  -4   0  -6   25.99    0.67
  -4   0  -6   25.03    0.81
  -4   0  -6   25.84    0.65
   4   0   6   26.48    0.82
   4   0   6   25.59    0.77
   5   0   6    2.30    0.25
   5   0   6    2.14    0.27
   6  -1  -6    3.90    0.33
  -6   1   6    4.15    0.37
   5  -1  -6    1.57    0.22
  -5   1   6    1.24    0.19
   4  -1  -6   19.17    0.63
  -4   1   6   20.09    0.49
  -4   1   6   19.08    0.60
  -4   1   6   19.46    0.49
  -4   1   6   19.58    0.65
  -4   1   6   19.39    0.64
   3  -1  -6    9.53    0.36
   3  -1  -6    8.81    0.35
   3  -1  -6    9.10    0.28
   3  -1  -6    9.17    0.27
  -3   1   6    8.77    0.35
  -3   1   6    8.62    0.33
  -3   1   6    9.38    0.29
  -3   1   6    9.63    0.38
   2  -1  -6   31.81    0.83
   2  -1  -6   32.13    0.77
   2  -1  -6   31.84    0.76
  -2   1   6   32.32    0.77
  -2   1   6   32.41    0.78
  -2   1   6   33.10    0.84
  -2   1   6   32.64    0.79
   1  -1  -6    7.44    0.25
   1  -1  -6    7.43    0.25
  -1   1   6    7.36    0.25
  -1   1   6    7.93    0.30
  -1   1   6    7.34    0.25
   0  -1  -6   85.14    1.92
   0  -1  -6   85.11    1.88
   0  -1  -6   86.96    1.88
   0   1   6   84.05    1.91
   0   1   6   83.60    1.87
   0   1   6   86.81    1.88
  -1  -1  -6   57.52    1.39
  -1  -1  -6   60.04    1.36
  -1  -1  -6   60.93    1.36
   1   1   6   58.39    1.35
   1   1   6   61.19    1.36
  -2  -1  -6    3.67    0.18
  -2  -1  -6    3.66    0.18
  -2  -1  -6    3.51    0.22
   2   1   6    3.52    0.18
   2   1   6    3.63    0.18
   2   1   6    3.59    0.21
  -3  -1  -6    7.92    0.29
  -3  -1  -6    7.88    0.29
   3   1   6    7.77    0.28
   3   1   6    7.39    0.33
   3   1   6    7.72    0.27
   3   1   6    7.86    0.36
  -4  -1  -6   11.94    0.39
  -4  -1  -6   12.47    0.39
   4   1   6   11.45    0.36
   4   1   6   11.97    0.48
   4   1   6   12.15    0.51
  -5  -1  -6    6.65    0.27
   5   1   6    7.07    0.43
   5   1   6    6.82    0.40
   6  -2  -6    1.42    0.25
  -6   2   6    1.05    0.22
   5  -2  -6    1.52    0.24
  -5   2   6    1.21    0.19
   4  -2  -6   15.58    0.56
  -4   2   6   15.58    0.53
  -4   2   6   16.59    0.56
  -4   2   6   16.35    0.42
  -4   2   6   15.52    0.55
   3  -2  -6   37.46    0.98
   3  -2  -6   36.28    0.85
   3  -2  -6   36.25    0.86
   3  -2  -6   35.79    0.94
  -3   2   6   36.89    0.95
  -3   2   6   36.28    0.87
  -3   2   6   37.44    1.00
  -3   2   6   38.03    1.19
  -3   2   6   37.20    0.94
   2  -2  -6   79.90    1.74
   2  -2  -6   80.22    1.80
   2  -2  -6   76.18    1.79
  -2   2   6   79.35    1.74
  -2   2   6   78.97    1.81
  -2   2   6   76.87    1.74
   1  -2  -6   14.33    0.41
   1  -2  -6   14.08    0.41
   1  -2  -6   14.93    0.46
  -1   2   6   13.91    0.40
  -1   2   6   14.25    0.45
  -1   2   6   14.81    0.41
   0  -2  -6   22.91    0.59
   0  -2  -6   22.62    0.62
   0  -2  -6   22.58    0.59
   0   2   6   22.11    0.63
   0   2   6   22.26    0.59
  -1  -2  -6   88.29    2.10
  -1  -2  -6   94.94    2.07
  -1  -2  -6   95.00    2.06
   1   2   6   89.79    2.05
   1   2   6   93.94    2.06
   1   2   6   94.76    2.07
  -2  -2  -6   49.77    1.29
  -2  -2  -6   52.17    1.22
  -2  -2  -6   52.35    1.22
   2   2   6   52.31    1.21
   2   2   6   50.15    1.21
   2   2   6   51.65    1.26
  -3  -2  -6    8.76    0.32
  -3  -2  -6    8.74    0.33
   3   2   6    9.29    0.39
   3   2   6    7.99    0.30
   3   2   6    8.93    0.32
   3   2   6    8.51    0.38
  -4  -2  -6    7.10    0.30
  -4  -2  -6    7.71    0.31
   4   2   6    7.39    0.29
   4   2   6    7.85    0.54
   4   2   6    7.21    0.28
   4   2   6    7.60    0.40
  -5  -2  -6    3.27    0.21
  -5  -2  -6    3.23    0.21
   5   2   6    3.17    0.34
   5   2   6    2.89    0.29
   6  -3  -6    2.81    0.31
  -6   3   6    2.15    0.29
   5  -3  -6    5.77    0.36
  -5   3   6    5.71    0.40
  -5   3   6    5.58    0.34
   4  -3  -6    9.98    0.39
   4  -3  -6   10.72    0.45
  -4   3   6   10.94    0.33
  -4   3   6   10.59    0.33
  -4   3   6   10.81    0.43
  -4   3   6   10.49    0.42
   3  -3  -6   21.04    0.55
   3  -3  -6   21.42    0.55
   3  -3  -6   20.67    0.61
   3  -3  -6   20.09    0.65
  -3   3   6   20.91    0.60
  -3   3   6   20.43    0.55
  -3   3   6   21.32    0.56
  -3   3   6   21.06    0.65
   2  -3  -6    1.02    0.11
   2  -3  -6    1.05    0.12
   2  -3  -6    0.95    0.13
  -2   3   6    1.03    0.11
  -2   3   6    1.03    0.12
  -2   3   6    0.87    0.13
   1  -3  -6   26.03    0.68
   1  -3  -6   26.52    0.69
   1  -3  -6   26.28    0.81
  -1   3   6   27.21    0.73
  -1   3   6   25.73    0.68
   0  -3  -6    6.04    0.26
   0  -3  -6    6.33    0.31
   0  -3  -6    6.11    0.28
   0   3   6    6.03    0.26
  -1  -3  -6   18.75    0.54
  -1  -3  -6   18.01    0.58
  -1  -3  -6   17.16    0.58
   1   3   6   18.56    0.51
   1   3   6   17.37    0.52
   1   3   6   18.14    0.53
  -2  -3  -6   16.23    0.51
  -2  -3  -6   15.72    0.56
  -2  -3  -6   15.89    0.56
   2   3   6   14.95    0.48
   2   3   6   16.50    0.52
   2   3   6   16.50    0.50
  -3  -3  -6   24.59    0.71
  -3  -3  -6   24.73    0.70
   3   3   6   25.42    0.76
   3   3   6   24.03    0.68
   3   3   6   23.90    0.68
   3   3   6   25.09    0.78
  -4  -3  -6   13.79    0.47
  -4  -3  -6   13.99    0.49
   4   3   6   11.98    0.71
   4   3   6   13.35    0.56
   4   3   6   13.92    0.45
   6  -4  -6    1.26    0.24
  -6   4   6    0.84    0.19
   5  -4  -6    7.31    0.48
  -5   4   6    7.43    0.38
  -5   4   6    7.42    0.26
  -5   4   6    6.42    0.25
  -5   4   6    6.55    0.36
   4  -4  -6    6.84    0.26
   4  -4  -6    6.82    0.25
   4  -4  -6    6.62    0.37
   4  -4  -6    6.67    0.31
  -4   4   6    6.93    0.32
  -4   4   6    7.22    0.28
  -4   4   6    6.55    0.26
  -4   4   6    6.95    0.35
   3  -4  -6   41.62    0.98
   3  -4  -6   39.15    1.02
   3  -4  -6   41.14    1.09
   3  -4  -6   39.68    0.97
  -3   4   6   38.73    1.00
  -3   4   6   39.51    0.98
  -3   4   6   41.20    0.99
   2  -4  -6    1.96    0.20
   2  -4  -6    2.13    0.16
   2  -4  -6    2.13    0.17
  -2   4   6    2.05    0.17
  -2   4   6    1.95    0.16
  -2   4   6    1.94    0.22
   1  -4  -6   26.45    0.79
   1  -4  -6   24.53    0.68
   1  -4  -6   25.06    0.73
  -1   4   6   25.56    0.69
  -1   4   6   24.36    0.68
   0  -4  -6   52.06    1.26
   0  -4  -6   49.69    1.28
   0  -4  -6   51.03    1.24
   0   4   6   51.07    1.15
   0   4   6   51.10    1.24
  -1  -4  -6   16.91    0.53
  -1  -4  -6   15.68    0.52
  -1  -4  -6   15.23    0.56
   1   4   6   16.66    0.47
   1   4   6   15.98    0.51
   1   4   6   17.38    0.53
  -2  -4  -6    0.59    0.11
  -2  -4  -6    0.47    0.11
   2   4   6    0.49    0.10
   2   4   6    0.58    0.11
   2   4   6    0.45    0.10
  -3  -4  -6   19.75    0.64
   3   4   6   20.23    0.71
   3   4   6   20.22    0.66
   3   4   6   22.07    0.82
  -4  -4  -6    1.86    0.21
  -4  -4  -6    1.61    0.20
   4   4   6    1.52    0.21
   4   4   6    1.35    0.20
   4   4   6    1.69    0.19
   6  -5  -6    2.56    0.30
  -6   5   6    1.77    0.23
   5  -5  -6    5.89    0.39
  -5   5   6    5.50    0.25
  -5   5   6    5.53    0.32
  -5   5   6    5.35    0.24
  -5   5   6    5.22    0.31
   4  -5  -6    4.15    0.22
   4  -5  -6    3.78    0.31
   4  -5  -6    3.69    0.23
  -4   5   6    4.21    0.24
  -4   5   6    3.74    0.21
  -4   5   6    3.81    0.24
  -4   5   6    4.12    0.26
   3  -5  -6    6.88    0.37
   3  -5  -6    7.08    0.32
   3  -5  -6    6.53    0.29
   3  -5  -6    6.70    0.30
  -3   5   6    6.65    0.31
  -3   5   6    6.52    0.29
  -3   5   6    6.75    0.26
  -3   5   6    6.81    0.32
   2  -5  -6   10.58    0.41
   2  -5  -6    9.92    0.41
   2  -5  -6   10.21    0.38
  -2   5   6    9.78    0.38
  -2   5   6   10.08    0.39
   1  -5  -6    0.09    0.09
   1  -5  -6    0.03    0.09
   1  -5  -6    0.09    0.09
  -1   5   6    0.08    0.08
  -1   5   6    0.09    0.09
   0  -5  -6   31.88    0.92
   0  -5  -6   32.26    0.90
   0  -5  -6   32.73    0.89
   0   5   6   31.99    0.88
   0   5   6   32.96    0.90
  -1  -5  -6    0.23    0.11
  -1  -5  -6    0.20    0.09
  -1  -5  -6    0.34    0.10
   1   5   6    0.07    0.10
   1   5   6    0.12    0.06
  -2  -5  -6   11.91    0.48
  -2  -5  -6   14.13    0.69
   2   5   6   12.96    0.45
   2   5   6   13.02    0.49
  -3  -5  -6   10.47    0.46
  -3  -5  -6   11.01    0.45
   3   5   6    9.82    0.42
   3   5   6   10.07    0.51
   5  -6  -6    0.11    0.15
   5  -6  -6    0.17    0.08
  -5   6   6    0.31    0.10
  -5   6   6    0.20    0.10
  -5   6   6    0.33    0.09
   4  -6  -6    2.78    0.21
   4  -6  -6    2.35    0.29
   4  -6  -6    2.10    0.20
  -4   6   6    1.75    0.17
  -4   6   6    2.25    0.20
  -4   6   6    2.82    0.22
  -4   6   6    2.57    0.22
   3  -6  -6    4.98    0.28
   3  -6  -6    4.22    0.28
   3  -6  -6    4.96    0.33
  -3   6   6    4.30    0.28
  -3   6   6    4.41    0.26
   2  -6  -6    9.52    0.41
   2  -6  -6    9.12    0.41
  -2   6   6    9.15    0.39
  -2   6   6    9.93    0.41
   1  -6  -6    4.75    0.30
   1  -6  -6    4.51    0.27
   1  -6  -6    4.66    0.29
  -1   6   6    4.52    0.33
  -1   6   6    5.17    0.30
   0  -6  -6   14.26    0.55
   0  -6  -6   13.99    0.52
   0  -6  -6   14.06    0.54
   0   6   6   14.99    0.54
   0   6   6   13.56    0.52
  -1  -6  -6    2.40    0.40
  -1  -6  -6    2.62    0.24
   1   6   6    3.15    0.26
  -2  -6  -6   14.82    0.59
  -2  -6  -6   14.91    0.58
   2   6   6   15.24    0.57
   5  -7  -6    2.31    0.22
   5  -7  -6    3.30    0.34
   5  -7  -6    3.02    0.21
  -5   7   6    2.89    0.27
  -5   7   6    3.33    0.26
   4  -7  -6    7.60    0.44
   4  -7  -6    6.68    0.33
  -4   7   6    7.92    0.38
  -4   7   6    7.39    0.35
   3  -7  -6    2.59    0.25
   3  -7  -6    2.21    0.24
   3  -7  -6    2.43    0.28
  -3   7   6    2.50    0.24
  -3   7   6    2.50    0.23
   2  -7  -6    5.17    0.32
   2  -7  -6    4.84    0.32
  -2   7   6    4.77    0.30
  -2   7   6    4.34    0.36
   1  -7  -6    6.82    0.37
   1  -7  -6    7.04    0.39
  -1   7   6    7.08    0.44
   0  -7  -6    5.31    0.36
   0   7   6    5.43    0.35
  -1  -7  -6    3.91    0.33
   1   7   6    4.48    0.37
   4  -8  -6    3.28    0.32
   4  -8  -6    1.82    0.21
   4  -8  -6    2.49    0.27
  -4   8   6    2.93    0.27
   3  -8  -6    3.30    0.31
   3  -8  -6    2.57    0.27
   3  -8  -6    1.88    0.24
  -3   8   6    2.86    0.28
  -3   8   6    2.90    0.34
   2  -8  -6    0.05    0.11
   2  -8  -6   -0.13    0.13
   2  -8  -6   -0.06    0.13
  -2   8   6   -0.05    0.11
   1  -8  -6   16.63    0.65
  -1   8   6   15.88    0.64
   0  -8  -6    1.39    0.21
   0   8   6    1.56    0.23
   0   8  -7    1.06    0.18
   0  -8   7    1.05    0.20
   0  -8   7    1.25    0.20
  -1   8  -7    0.28    0.16
   1  -8   7    0.30    0.13
   1  -8   7    0.14    0.16
  -2   8  -7    2.40    0.28
   2  -8   7    2.57    0.30
  -3   8  -7    0.98    0.17
   3  -8   7    0.98    0.14
   3  -8   7    1.02    0.19
   2   7  -7    0.23    0.13
   2   7  -7    0.43    0.12
  -2  -7   7    0.10    0.15
  -2  -7   7    0.68    0.19
  -2  -7   7    0.36    0.17
   1   7  -7    9.94    0.48
   1   7  -7    9.97    0.39
  -1  -7   7   10.15    0.48
  -1  -7   7    9.93    0.39
  -1  -7   7   10.14    0.51
   0   7  -7    0.81    0.19
   0  -7   7    1.06    0.18
   0  -7   7    0.95    0.28
  -1   7  -7    4.92    0.36
   1  -7   7    4.99    0.27
  -2   7  -7    6.45    0.36
  -2   7  -7    5.69    0.33
   2  -7   7    5.73    0.28
   2  -7   7    6.27    0.36
  -3   7  -7    3.77    0.28
  -3   7  -7    3.42    0.27
  -3   7  -7    3.38    0.21
   3  -7   7    3.42    0.24
   3  -7   7    3.70    0.28
  -4   7  -7    0.70    0.14
  -4   7  -7    0.52    0.15
  -4   7  -7    0.19    0.18
   4  -7   7    0.36    0.12
   4  -7   7    0.65    0.15
   3   6  -7    4.68    0.32
   3   6  -7    5.31    0.32
  -3  -6   7    4.88    0.43
  -3  -6   7    5.57    0.36
  -3  -6   7    4.55    0.33
   2   6  -7    0.33    0.12
   2   6  -7    0.44    0.10
  -2  -6   7    0.49    0.11
  -2  -6   7    0.62    0.17
  -2  -6   7    0.41    0.13
   1   6  -7    5.42    0.26
   1   6  -7    5.63    0.32
  -1  -6   7    5.71    0.36
  -1  -6   7    5.85    0.34
  -1  -6   7    5.32    0.31
   0   6  -7    3.28    0.24
   0   6  -7    3.17    0.26
   0  -6   7    3.83    0.26
   0  -6   7    3.17    0.27
   0  -6   7    3.13    0.24
  -1   6  -7    0.28    0.12
  -1   6  -7    0.39    0.15
   1  -6   7    0.09    0.10
   1  -6   7    0.30    0.10
   1  -6   7    0.14    0.14
  -2   6  -7    0.04    0.09
  -2   6  -7    0.15    0.10
  -2   6  -7    0.00    0.07
   2  -6   7   -0.04    0.10
  -3   6  -7    3.31    0.25
  -3   6  -7    2.92    0.18
  -3   6  -7    2.98    0.22
  -3   6  -7    3.24    0.24
   3  -6   7    3.44    0.24
   3  -6   7    3.38    0.29
  -4   6  -7    0.23    0.09
  -4   6  -7    0.37    0.13
  -4   6  -7    0.33    0.17
   4  -6   7    0.25    0.11
   4  -6   7    0.42    0.12
  -5   6  -7   13.35    0.47
  -5   6  -7   13.03    0.45
   5  -6   7   13.04    0.57
   4   5  -7    1.71    0.21
   4   5  -7    1.53    0.22
  -4  -5   7    1.50    0.20
  -4  -5   7    1.90    0.24
  -4  -5   7    1.58    0.29
   3   5  -7    7.83    0.37
   3   5  -7    7.96    0.37
  -3  -5   7    7.65    0.38
  -3  -5   7    8.35    0.40
  -3  -5   7    7.70    0.47
   2   5  -7   12.90    0.48
   2   5  -7   12.58    0.44
  -2  -5   7   12.53    0.48
  -2  -5   7   13.38    0.51
  -2  -5   7   12.72    0.55
   1   5  -7    3.96    0.22
   1   5  -7    3.20    0.22
   1   5  -7    3.41    0.24
  -1  -5   7    4.13    0.29
  -1  -5   7    3.27    0.25
  -1  -5   7    3.57    0.24
   0   5  -7   46.32    1.17
   0   5  -7   44.10    1.16
   0  -5   7   47.39    1.15
   0  -5   7   44.10    1.15
   0  -5   7   45.15    1.17
  -1   5  -7   12.25    0.35
  -1   5  -7   13.14    0.46
  -1   5  -7   12.63    0.45
   1  -5   7   12.82    0.46
   1  -5   7   12.68    0.39
   1  -5   7   12.14    0.43
  -2   5  -7    4.86    0.26
  -2   5  -7    4.84    0.24
  -2   5  -7    4.81    0.27
  -2   5  -7    5.39    0.20
   2  -5   7    5.55    0.41
   2  -5   7    5.16    0.34
  -3   5  -7    1.90    0.18
  -3   5  -7    1.56    0.18
  -3   5  -7    1.53    0.18
  -3   5  -7    1.65    0.14
   3  -5   7    1.81    0.20
   3  -5   7    1.50    0.16
   3  -5   7    1.87    0.19
  -4   5  -7    4.67    0.25
  -4   5  -7    4.57    0.25
   4  -5   7    4.60    0.24
   4  -5   7    5.06    0.32
   4  -5   7    4.05    0.22
  -5   5  -7    1.47    0.17
  -5   5  -7    0.99    0.13
   5  -5   7    1.04    0.18
   4   4  -7    0.75    0.17
   4   4  -7    0.78    0.13
  -4  -4   7    1.11    0.16
  -4  -4   7    0.87    0.17
  -4  -4   7    0.79    0.21
   3   4  -7    5.65    0.46
   3   4  -7    6.67    0.31
  -3  -4   7    6.25    0.41
  -3  -4   7    5.61    0.32
  -3  -4   7    6.05    0.34
  -3  -4   7    5.96    0.30
   2   4  -7   13.72    0.47
   2   4  -7   12.99    0.46
   2   4  -7   13.50    0.43
  -2  -4   7   13.45    0.48
  -2  -4   7   14.16    0.54
  -2  -4   7   12.64    0.46
   1   4  -7   14.02    0.40
   1   4  -7   13.81    0.46
   1   4  -7   14.04    0.47
  -1  -4   7   14.70    0.51
  -1  -4   7   14.22    0.48
  -1  -4   7   13.69    0.46
   0   4  -7    1.04    0.15
   0   4  -7    0.85    0.12
   0  -4   7    1.38    0.17
   0  -4   7    1.23    0.16
   0  -4   7    0.85    0.12
  -1   4  -7    6.07    0.28
  -1   4  -7    6.52    0.23
  -1   4  -7    6.94    0.29
   1  -4   7    6.56    0.25
   1  -4   7    6.12    0.28
  -2   4  -7    1.54    0.15
  -2   4  -7    1.74    0.16
  -2   4  -7    1.52    0.17
  -2   4  -7    1.58    0.11
   2  -4   7    1.64    0.17
   2  -4   7    1.44    0.15
  -3   4  -7    4.09    0.26
  -3   4  -7    3.83    0.22
  -3   4  -7    3.73    0.29
   3  -4   7    3.82    0.25
   3  -4   7    3.28    0.19
   3  -4   7    4.00    0.22
  -4   4  -7   20.63    0.59
  -4   4  -7   22.06    0.61
  -4   4  -7   21.10    0.62
   4  -4   7   21.33    0.58
   4  -4   7   21.47    0.72
   4  -4   7   20.81    0.56
  -5   4  -7    0.02    0.06
  -5   4  -7   -0.04    0.10
   5  -4   7    0.03    0.11
   5   3  -7    5.13    0.25
   5   3  -7    5.58    0.36
  -5  -3   7    5.72    0.28
  -5  -3   7    5.67    0.30
  -5  -3   7    5.90    0.46
   4   3  -7   16.14    0.58
  -4  -3   7   16.85    0.54
  -4  -3   7   16.65    0.70
  -4  -3   7   16.38    0.52
   3   3  -7    0.11    0.08
   3   3  -7    0.15    0.08
   3   3  -7    0.08    0.11
  -3  -3   7    0.13    0.09
  -3  -3   7    0.06    0.07
  -3  -3   7    0.00    0.12
  -3  -3   7    0.07    0.10
   2   3  -7    8.94    0.34
   2   3  -7    9.47    0.27
   2   3  -7    9.44    0.37
   2   3  -7    9.92    0.36
  -2  -3   7    9.80    0.52
  -2  -3   7    9.76    0.37
  -2  -3   7    9.55    0.42
   1   3  -7   64.86    1.43
   1   3  -7   62.49    1.50
   1   3  -7   65.75    1.51
  -1  -3   7   65.86    1.52
  -1  -3   7   65.60    1.55
  -1  -3   7   63.60    1.51
   0   3  -7   28.50    0.81
   0   3  -7   27.45    0.74
   0  -3   7   32.00    0.93
   0  -3   7   27.85    0.74
   0  -3   7   26.87    0.74
  -1   3  -7   18.55    0.50
  -1   3  -7   18.74    0.53
  -1   3  -7   18.24    0.52
  -1   3  -7   17.69    0.48
   1  -3   7   18.35    0.49
   1  -3   7   18.88    0.53
   1  -3   7   17.65    0.52
  -2   3  -7    2.47    0.17
  -2   3  -7    2.38    0.13
  -2   3  -7    2.28    0.17
  -2   3  -7    2.29    0.12
   2  -3   7    2.59    0.17
   2  -3   7    2.46    0.16
  -3   3  -7   36.70    1.01
  -3   3  -7   39.02    0.94
  -3   3  -7   37.57    0.93
  -3   3  -7   37.92    0.87
  -3   3  -7   36.44    1.07
   3  -3   7   37.14    0.91
   3  -3   7   38.60    1.03
   3  -3   7   37.56    0.92
  -4   3  -7   19.09    0.57
  -4   3  -7   19.34    0.54
  -4   3  -7   18.31    0.51
  -4   3  -7   19.36    0.53
   4  -3   7   20.22    0.68
   4  -3   7   18.23    0.49
  -5   3  -7    1.54    0.16
  -5   3  -7    1.48    0.13
  -5   3  -7    1.55    0.15
   5  -3   7    1.90    0.26
   5   2  -7    2.50    0.25
  -5  -2   7    2.33    0.33
  -5  -2   7    2.50    0.18
  -5  -2   7    2.37    0.19
   4   2  -7   24.44    0.65
   4   2  -7   24.99    0.74
   4   2  -7   23.69    0.64
  -4  -2   7   24.94    0.68
  -4  -2   7   24.40    0.67
  -4  -2   7   24.34    0.84
   3   2  -7   10.41    0.36
   3   2  -7   11.38    0.40
   3   2  -7   11.37    0.37
  -3  -2   7   11.28    0.38
  -3  -2   7   11.13    0.48
  -3  -2   7   11.88    0.39
   2   2  -7   13.73    0.42
   2   2  -7   13.35    0.38
   2   2  -7   13.07    0.41
   2   2  -7   13.62    0.40
  -2  -2   7   13.76    0.49
  -2  -2   7   13.30    0.42
  -2  -2   7   13.96    0.42
   1   2  -7   47.48    1.15
   1   2  -7   51.06    1.30
   1   2  -7   48.91    1.16
   1   2  -7   49.68    1.09
  -1  -2   7   47.93    1.16
  -1  -2   7   50.36    1.21
   0   2  -7   61.62    1.41
   0   2  -7   62.07    1.41
   0   2  -7   61.97    1.41
   0  -2   7   59.22    1.40
   0  -2   7   62.23    1.41
  -1   2  -7    7.80    0.28
  -1   2  -7    7.67    0.27
  -1   2  -7    7.65    0.28
   1  -2   7    7.44    0.28
   1  -2   7    7.57    0.27
   1  -2   7    7.74    0.27
  -2   2  -7    5.92    0.25
  -2   2  -7    6.22    0.24
  -2   2  -7    6.34    0.25
   2  -2   7    5.89    0.24
   2  -2   7    6.25    0.22
   2  -2   7    6.40    0.25
  -3   2  -7    3.56    0.24
  -3   2  -7    4.03    0.20
  -3   2  -7    3.59    0.20
  -3   2  -7    3.60    0.19
   3  -2   7    3.72    0.18
   3  -2   7    3.88    0.19
   3  -2   7    3.50    0.24
   3  -2   7    3.78    0.26
  -4   2  -7    1.14    0.14
  -4   2  -7    1.02    0.13
  -4   2  -7    1.17    0.13
   4  -2   7    0.70    0.13
   4  -2   7    1.14    0.15
  -5   2  -7    6.86    0.32
   5  -2   7    7.08    0.38
   5  -2   7    7.34    0.43
   5   1  -7   11.28    0.48
   5   1  -7   12.97    0.52
  -5  -1   7   11.95    0.39
  -5  -1   7   12.23    0.39
  -5  -1   7   12.18    0.59
   4   1  -7    0.88    0.11
   4   1  -7    0.69    0.13
   4   1  -7    0.78    0.10
   4   1  -7    0.96    0.15
  -4  -1   7    0.88    0.11
  -4  -1   7    0.81    0.18
  -4  -1   7    0.87    0.19
  -4  -1   7    0.83    0.14
  -4  -1   7    0.84    0.11
   3   1  -7    7.90    0.32
   3   1  -7    7.63    0.27
   3   1  -7    7.91    0.28
   3   1  -7    8.30    0.32
  -3  -1   7    7.86    0.29
  -3  -1   7    8.31    0.39
  -3  -1   7    7.91    0.31
  -3  -1   7    8.32    0.30
   2   1  -7   54.77    1.25
   2   1  -7   55.92    1.25
   2   1  -7   54.31    1.25
   2   1  -7   53.29    1.32
   2   1  -7   53.03    1.24
  -2  -1   7   54.34    1.25
  -2  -1   7   54.95    1.34
  -2  -1   7   53.92    1.26
  -2  -1   7   54.30    1.25
   1   1  -7  120.50    2.61
   1   1  -7  119.66    2.65
   1   1  -7  121.48    2.61
  -1  -1   7  120.09    2.65
  -1  -1   7  117.71    2.61
  -1  -1   7  119.38    2.61
  -1  -1   7  120.73    2.55
   0   1  -7   28.01    0.70
   0   1  -7   28.19    0.72
   0   1  -7   27.60    0.70
   0  -1   7   28.32    0.72
   0  -1   7   27.85    0.70
   0  -1   7   28.00    0.70
  -1   1  -7   15.24    0.44
  -1   1  -7   15.23    0.44
  -1   1  -7   15.77    0.45
   1  -1   7   14.67    0.43
   1  -1   7   15.18    0.37
   1  -1   7   14.89    0.44
   1  -1   7   15.23    0.44
  -2   1  -7   67.89    1.57
  -2   1  -7   68.14    1.56
  -2   1  -7   71.43    1.57
   2  -1   7   68.65    1.54
   2  -1   7   68.87    1.56
   2  -1   7   68.47    1.55
  -3   1  -7   19.15    0.51
  -3   1  -7   17.60    0.54
  -3   1  -7   17.39    0.60
  -3   1  -7   18.09    0.51
   3  -1   7   18.99    0.54
   3  -1   7   18.47    0.49
   3  -1   7   18.09    0.49
   3  -1   7   18.68    0.61
  -4   1  -7    2.95    0.17
  -4   1  -7    3.19    0.18
  -4   1  -7    3.04    0.22
   4  -1   7    3.25    0.27
   4  -1   7    2.82    0.14
   4  -1   7    3.07    0.23
   4  -1   7    2.78    0.14
  -5   1  -7   14.24    0.74
   5  -1   7   13.73    0.78
   5  -1   7   13.60    0.60
  -6   0   7    3.40    0.37
   5   0  -7   13.35    0.53
  -5   0   7   13.16    0.59
   4   0  -7    2.24    0.20
   4   0  -7    2.08    0.12
  -4   0   7    2.24    0.16
  -4   0   7    2.14    0.14
  -4   0   7    2.16    0.25
  -4   0   7    2.23    0.19
   3   0  -7    0.12    0.09
   3   0  -7    0.03    0.05
   3   0  -7    0.11    0.06
   3   0  -7    0.12    0.07
  -3   0   7    0.07    0.06
  -3   0   7    0.07    0.06
  -3   0   7    0.09    0.10
  -3   0   7    0.07    0.06
   2   0  -7   69.90    1.57
   2   0  -7   65.55    1.58
   2   0  -7   65.69    1.51
  -2   0   7   67.00    1.52
  -2   0   7   67.89    1.52
  -2   0   7   66.91    1.52
  -2   0   7   68.25    1.67
   1   0  -7  116.71    2.47
   1   0  -7  113.39    2.51
   1   0  -7  111.87    2.47
  -1   0   7  111.89    2.47
  -1   0   7  111.54    2.47
  -1   0   7  113.97    2.51
   0   0  -7    3.84    0.18
   0   0  -7    3.93    0.18
   0   0  -7    3.63    0.20
   0   0   7    3.74    0.21
   0   0   7    3.93    0.19
  -1   0  -7   17.69    0.50
  -1   0  -7   18.32    0.50
  -1   0  -7   17.91    0.53
   1   0   7   17.54    0.49
   1   0   7   18.56    0.52
   1   0   7   18.38    0.51
  -2   0  -7   13.97    0.46
  -2   0  -7   14.53    0.43
  -2   0  -7   14.61    0.43
   2   0   7   14.05    0.42
   2   0   7   14.73    0.42
   2   0   7   14.01    0.42
   2   0   7   15.08    0.49
  -3   0  -7   12.56    0.39
  -3   0  -7   12.59    0.39
  -3   0  -7   11.84    0.44
   3   0   7   12.61    0.48
   3   0   7   12.51    0.43
   3   0   7   12.48    0.37
   3   0   7   12.25    0.38
  -4   0  -7    1.39    0.19
  -4   0  -7    1.27    0.14
  -4   0  -7    1.50    0.14
   4   0   7    1.40    0.12
   4   0   7    1.12    0.16
   4   0   7    1.09    0.14
  -5   0  -7    9.36    0.32
  -5   0  -7   10.01    0.32
   5   0   7    9.49    0.50
   5   0   7   10.01    0.47
   6  -1  -7   11.36    0.53
  -6   1   7   11.05    0.56
   5  -1  -7    1.15    0.19
  -5   1   7    1.16    0.21
   4  -1  -7    7.42    0.36
  -4   1   7    7.50    0.26
  -4   1   7    7.56    0.37
  -4   1   7    7.51    0.34
  -4   1   7    7.62    0.39
  -4   1   7    7.70    0.26
   3  -1  -7   45.00    1.14
   3  -1  -7   46.04    1.04
   3  -1  -7   44.01    1.14
   3  -1  -7   45.63    1.04
  -3   1   7   46.70    1.17
  -3   1   7   45.26    1.11
  -3   1   7   44.45    1.06
   2  -1  -7   94.10    2.07
   2  -1  -7   93.40    2.23
   2  -1  -7   94.60    2.16
  -2   1   7   95.11    2.15
  -2   1   7   96.09    2.09
  -2   1   7   94.98    2.08
  -2   1   7   92.40    2.08
   1  -1  -7    0.19    0.07
   1  -1  -7    0.09    0.05
   1  -1  -7    0.29    0.07
  -1   1   7    0.17    0.06
  -1   1   7    0.21    0.06
  -1   1   7    0.29    0.10
   0  -1  -7   53.80    1.24
   0  -1  -7   53.95    1.24
   0  -1  -7   54.04    1.28
   0   1   7   50.93    1.27
   0   1   7   52.90    1.23
   0   1   7   54.52    1.24
  -1  -1  -7   14.78    0.43
  -1  -1  -7   15.84    0.48
  -1  -1  -7   15.01    0.53
   1   1   7   14.23    0.43
   1   1   7   15.19    0.44
  -2  -1  -7    9.05    0.31
  -2  -1  -7    8.40    0.30
  -2  -1  -7    8.00    0.34
   2   1   7    8.55    0.35
   2   1   7    8.11    0.30
   2   1   7    8.30    0.30
  -3  -1  -7    7.04    0.28
  -3  -1  -7    6.36    0.27
  -3  -1  -7    6.69    0.33
   3   1   7    6.77    0.32
   3   1   7    6.58    0.26
   3   1   7    6.36    0.26
  -4  -1  -7   34.04    0.86
  -4  -1  -7   33.43    0.86
  -4  -1  -7   33.74    0.99
   4   1   7   33.08    0.83
   4   1   7   32.98    0.82
   4   1   7   34.33    0.97
   4   1   7   33.73    1.01
  -5  -1  -7   12.62    0.42
  -5  -1  -7   12.62    0.41
   5   1   7   12.15    0.58
   5   1   7   12.58    0.55
   6  -2  -7    2.69    0.30
  -6   2   7    2.21    0.34
   5  -2  -7    0.65    0.16
  -5   2   7    0.69    0.17
   4  -2  -7    0.39    0.11
   4  -2  -7    0.61    0.15
   4  -2  -7    0.66    0.08
  -4   2   7    0.60    0.15
  -4   2   7    0.70    0.12
  -4   2   7    0.70    0.09
  -4   2   7    0.49    0.10
   3  -2  -7   26.43    0.66
   3  -2  -7   26.18    0.76
   3  -2  -7   26.45    0.74
   3  -2  -7   27.17    0.67
  -3   2   7   26.53    0.76
  -3   2   7   26.78    0.67
  -3   2   7   25.80    0.72
  -3   2   7   26.39    0.68
   2  -2  -7   40.85    0.98
   2  -2  -7   41.35    1.05
   2  -2  -7   41.03    0.97
  -2   2   7   40.70    1.13
  -2   2   7   40.76    1.05
  -2   2   7   40.58    0.97
   1  -2  -7    5.08    0.26
   1  -2  -7    5.05    0.27
  -1   2   7    4.86    0.21
  -1   2   7    5.05    0.22
  -1   2   7    5.07    0.26
   0  -2  -7   80.36    1.78
   0  -2  -7   78.23    1.77
   0  -2  -7   77.46    1.82
   0   2   7   78.88    1.90
   0   2   7   78.67    1.82
   0   2   7   77.72    1.77
  -1  -2  -7   54.44    1.28
  -1  -2  -7   55.88    1.29
  -1  -2  -7   53.83    1.33
   1   2   7   54.38    1.28
   1   2   7   53.73    1.28
  -2  -2  -7    1.33    0.18
  -2  -2  -7    1.68    0.15
  -2  -2  -7    1.62    0.16
   2   2   7    1.42    0.15
   2   2   7    1.70    0.14
   2   2   7    1.63    0.17
  -3  -2  -7    2.29    0.18
  -3  -2  -7    2.22    0.18
  -3  -2  -7    2.38    0.23
   3   2   7    2.50    0.22
   3   2   7    2.11    0.17
   3   2   7    2.31    0.21
   3   2   7    2.51    0.18
  -4  -2  -7   22.87    0.66
  -4  -2  -7   22.75    0.66
   4   2   7   24.21    0.82
   4   2   7   22.80    0.78
   4   2   7   22.61    0.63
   6  -3  -7    2.91    0.30
  -6   3   7    2.56    0.31
   5  -3  -7    4.64    0.35
  -5   3   7    4.51    0.33
   4  -3  -7   12.30    0.46
   4  -3  -7   12.69    0.51
   4  -3  -7   12.43    0.37
  -4   3   7   12.95    0.40
  -4   3   7   12.58    0.47
  -4   3   7   13.21    0.39
  -4   3   7   13.11    0.48
  -4   3   7   13.17    0.50
   3  -3  -7   26.53    0.76
   3  -3  -7   27.02    0.80
   3  -3  -7   27.11    0.69
   3  -3  -7   27.39    0.70
  -3   3   7   27.83    0.79
  -3   3   7   28.12    0.71
  -3   3   7   26.67    0.74
  -3   3   7   26.31    0.70
   2  -3  -7    0.93    0.11
   2  -3  -7    0.82    0.13
   2  -3  -7    1.06    0.12
  -2   3   7    1.01    0.12
  -2   3   7    0.86    0.11
   1  -3  -7   34.85    0.87
   1  -3  -7   34.22    0.92
   1  -3  -7   33.95    0.86
  -1   3   7   34.15    0.93
  -1   3   7   34.48    1.00
   0  -3  -7   25.70    0.74
   0  -3  -7   26.46    0.70
   0  -3  -7   27.03    0.71
   0   3   7   25.50    0.70
   0   3   7   26.53    0.72
  -1  -3  -7   37.78    0.96
  -1  -3  -7   38.43    0.96
  -1  -3  -7   36.16    1.01
   1   3   7   39.70    0.94
   1   3   7   38.11    0.96
   1   3   7   36.06    0.95
  -2  -3  -7    3.32    0.21
  -2  -3  -7    3.40    0.22
  -2  -3  -7    3.13    0.34
   2   3   7    3.21    0.21
   2   3   7    3.01    0.20
   2   3   7    3.43    0.23
  -3  -3  -7   23.99    0.70
  -3  -3  -7   24.49    0.71
   3   3   7   24.57    0.69
   3   3   7   23.95    0.75
   3   3   7   23.96    0.77
  -4  -3  -7    4.04    0.29
  -4  -3  -7    4.79    0.28
   4   3   7    4.90    0.35
   4   3   7    4.71    0.34
   4   3   7    5.02    0.26
   6  -4  -7    1.00    0.21
  -6   4   7    1.21    0.21
   5  -4  -7   11.43    0.54
  -5   4   7   10.82    0.37
  -5   4   7   11.77    0.50
  -5   4   7   11.54    0.36
  -5   4   7   10.75    0.49
   4  -4  -7    1.09    0.12
   4  -4  -7    1.07    0.19
   4  -4  -7    1.04    0.15
   4  -4  -7    1.07    0.13
  -4   4   7    1.00    0.17
  -4   4   7    0.92    0.12
  -4   4   7    0.99    0.12
  -4   4   7    1.09    0.15
   3  -4  -7    0.21    0.10
   3  -4  -7    0.30    0.09
   3  -4  -7    0.16    0.08
   3  -4  -7    0.39    0.14
  -3   4   7    0.43    0.13
  -3   4   7    0.22    0.08
  -3   4   7    0.28    0.10
  -3   4   7    0.19    0.07
   2  -4  -7    8.34    0.37
   2  -4  -7    8.80    0.34
   2  -4  -7    8.08    0.32
  -2   4   7    8.48    0.33
  -2   4   7    8.80    0.48
  -2   4   7    8.80    0.37
   1  -4  -7   49.43    1.19
   1  -4  -7   47.75    1.17
   1  -4  -7   46.67    1.22
  -1   4   7   48.60    1.18
  -1   4   7   46.36    1.17
   0  -4  -7   10.22    0.39
   0  -4  -7    9.78    0.37
   0  -4  -7    9.95    0.41
   0   4   7    9.74    0.37
   0   4   7   10.75    0.39
  -1  -4  -7    0.82    0.13
  -1  -4  -7    0.65    0.13
  -1  -4  -7    0.80    0.14
   1   4   7    0.65    0.10
   1   4   7    0.62    0.10
   1   4   7    0.75    0.12
  -2  -4  -7    0.62    0.12
  -2  -4  -7    0.45    0.12
   2   4   7    0.49    0.11
   2   4   7    0.60    0.12
  -3  -4  -7   20.88    0.67
  -3  -4  -7   20.49    0.66
   3   4   7   20.67    0.73
   3   4   7   21.35    0.69
   3   4   7   20.94    0.65
  -4  -4  -7    7.83    0.38
  -4  -4  -7    7.87    0.37
   4   4   7    8.02    0.45
   4   4   7    7.10    0.35
   4   4   7    8.57    0.45
   6  -5  -7    2.88    0.33
  -6   5   7    2.80    0.27
   5  -5  -7    0.45    0.17
   5  -5  -7    0.61    0.13
   5  -5  -7    0.47    0.11
   5  -5  -7    0.56    0.11
  -5   5   7    0.52    0.11
  -5   5   7    0.53    0.11
  -5   5   7    0.70    0.15
  -5   5   7    0.41    0.12
   4  -5  -7   20.07    0.58
   4  -5  -7   20.61    0.58
   4  -5  -7   20.56    0.72
   4  -5  -7   19.21    0.62
  -4   5   7   19.82    0.61
  -4   5   7   20.45    0.65
  -4   5   7   18.82    0.58
  -4   5   7   21.07    0.61
   3  -5  -7    6.41    0.29
   3  -5  -7    5.43    0.34
   3  -5  -7    5.63    0.27
   3  -5  -7    5.56    0.31
  -3   5   7    5.62    0.29
  -3   5   7    5.71    0.26
  -3   5   7    5.48    0.28
  -3   5   7    5.69    0.31
   2  -5  -7    9.33    0.41
   2  -5  -7    9.08    0.37
   2  -5  -7    8.26    0.36
  -2   5   7    8.89    0.36
  -2   5   7    9.28    0.37
   1  -5  -7   42.45    1.11
   1  -5  -7   43.06    1.16
   1  -5  -7   45.08    1.13
  -1   5   7   42.62    1.11
  -1   5   7   44.48    1.13
   0  -5  -7   26.05    0.76
   0  -5  -7   23.50    0.76
   0  -5  -7   24.13    0.73
   0   5   7   24.57    0.83
   0   5   7   25.95    0.74
  -1  -5  -7    0.14    0.10
  -1  -5  -7    0.14    0.09
   1   5   7    0.19    0.10
   1   5   7    0.14    0.06
  -2  -5  -7    7.30    0.36
  -2  -5  -7    7.46    0.38
   2   5   7    7.30    0.36
   2   5   7    7.35    0.33
  -3  -5  -7   -0.11    0.11
  -3  -5  -7    0.09    0.11
   3   5   7    0.08    0.11
   3   5   7    0.05    0.11
   3   5   7    0.12    0.11
   5  -6  -7    0.94    0.15
   5  -6  -7    1.03    0.13
   5  -6  -7    0.89    0.23
  -5   6   7    0.73    0.14
  -5   6   7    1.41    0.20
  -5   6   7    0.98    0.14
  -5   6   7    0.95    0.15
   4  -6  -7    0.12    0.10
   4  -6  -7   -0.01    0.10
   4  -6  -7    0.12    0.24
  -4   6   7    0.16    0.08
  -4   6   7    0.31    0.11
  -4   6   7    0.09    0.10
  -4   6   7   -0.02    0.07
   3  -6  -7    6.04    0.34
   3  -6  -7    6.92    0.34
   3  -6  -7    7.49    0.40
  -3   6   7    6.77    0.34
  -3   6   7    6.25    0.32
   2  -6  -7   12.55    0.48
   2  -6  -7   11.98    0.50
  -2   6   7   12.45    0.47
  -2   6   7   12.82    0.49
   1  -6  -7    0.04    0.11
   1  -6  -7    0.15    0.10
   1  -6  -7    0.03    0.10
  -1   6   7    0.00    0.09
  -1   6   7    0.18    0.10
   0  -6  -7    7.43    0.38
   0  -6  -7    6.90    0.36
   0   6   7    6.75    0.36
  -1  -6  -7    8.56    0.42
  -1  -6  -7    7.83    0.45
   1   6   7    8.10    0.40
  -2  -6  -7    7.25    0.40
   2   6   7    6.77    0.37
   5  -7  -7    6.92    0.32
   5  -7  -7    5.82    0.33
   5  -7  -7    7.72    0.46
  -5   7   7    7.37    0.36
  -5   7   7    6.55    0.32
  -5   7   7    5.55    0.31
   4  -7  -7    0.94    0.17
   4  -7  -7    1.74    0.26
   4  -7  -7    1.33    0.19
  -4   7   7    1.42    0.20
  -4   7   7    1.33    0.19
   3  -7  -7    2.85    0.31
   3  -7  -7    3.32    0.26
  -3   7   7    3.13    0.26
  -3   7   7    3.35    0.25
   2  -7  -7    6.94    0.40
   2  -7  -7    7.48    0.39
  -2   7   7    7.30    0.37
  -2   7   7    7.83    0.40
   1  -7  -7    6.55    0.38
  -1   7   7    6.29    0.37
   0  -7  -7    3.68    0.31
   0   7   7    3.54    0.31
  -1  -7  -7    5.25    0.37
   1   7   7    5.17    0.36
   3  -8  -7    2.15    0.26
   3  -8  -7    3.50    0.33
   3  -8  -7    3.31    0.30
  -3   8   7    2.94    0.28
   2  -8  -7    0.61    0.20
   2  -8  -7    0.72    0.19
  -2   8   7    0.69    0.16
   1  -8  -7    1.51    0.23
  -1   8   7    1.79    0.26
   0  -8  -7    3.27    0.30
   0   8   7    2.85    0.30
   0   8  -8    0.54    0.17
   0  -8   8    0.53    0.19
   0  -8   8    0.46    0.16
  -1   8  -8    0.86    0.18
   1  -8   8    1.48    0.26
   1  -8   8    1.13    0.16
  -2   8  -8    0.46    0.16
   2  -8   8    0.85    0.13
   2  -8   8    0.66    0.17
  -3   8  -8   -0.05    0.11
  -3   8  -8   -0.20    0.08
   3  -8   8   -0.01    0.09
   3  -8   8   -0.06    0.13
   2   7  -8    1.81    0.28
   2   7  -8    1.78    0.21
  -2  -7   8    1.32    0.19
  -2  -7   8    1.69    0.24
  -2  -7   8    1.76    0.28
   1   7  -8    0.99    0.13
   1   7  -8    1.03    0.20
  -1  -7   8    1.06    0.19
  -1  -7   8    1.41    0.23
   0   7  -8    0.31    0.14
   0  -7   8    0.10    0.15
   0  -7   8    0.17    0.12
  -1   7  -8   27.69    0.86
   1  -7   8   26.77    0.76
   1  -7   8   27.84    0.87
  -2   7  -8    0.68    0.13
  -2   7  -8    0.34    0.12
   2  -7   8    0.63    0.17
   2  -7   8    0.46    0.11
  -3   7  -8    2.04    0.21
  -3   7  -8    1.28    0.15
  -3   7  -8    1.34    0.19
   3  -7   8    1.15    0.16
   3  -7   8    1.43    0.22
  -4   7  -8    2.06    0.24
  -4   7  -8    2.55    0.24
  -4   7  -8    1.72    0.19
   4  -7   8    1.88    0.23
   4  -7   8    1.67    0.23
   3   6  -8    4.12    0.34
   3   6  -8    3.94    0.30
  -3  -6   8    4.05    0.40
  -3  -6   8    4.00    0.33
   2   6  -8    4.84    0.28
   2   6  -8    5.25    0.33
  -2  -6   8    5.36    0.32
  -2  -6   8    5.21    0.35
  -2  -6   8    5.15    0.42
  -2  -6   8    5.42    0.40
   1   6  -8    0.58    0.15
   1   6  -8    0.56    0.10
  -1  -6   8    0.41    0.14
  -1  -6   8    0.53    0.13
  -1  -6   8    0.51    0.14
   0   6  -8    4.44    0.29
   0  -6   8    4.86    0.32
   0  -6   8    4.78    0.30
   0  -6   8    4.22    0.34
  -1   6  -8   13.20    0.50
  -1   6  -8   12.36    0.56
   1  -6   8   12.87    0.43
   1  -6   8   13.46    0.51
  -2   6  -8    0.71    0.13
  -2   6  -8    0.82    0.12
  -2   6  -8    0.80    0.16
  -2   6  -8    0.66    0.08
   2  -6   8    0.63    0.14
  -3   6  -8    0.90    0.24
  -3   6  -8    0.78    0.10
  -3   6  -8    1.04    0.17
  -3   6  -8    1.03    0.14
   3  -6   8    1.01    0.16
   3  -6   8    0.80    0.15
  -4   6  -8    2.37    0.20
  -4   6  -8    2.27    0.19
   4  -6   8    2.90    0.27
   4  -6   8    2.46    0.22
   3   5  -8   14.33    0.52
   3   5  -8   14.60    0.54
  -3  -5   8   14.02    0.54
  -3  -5   8   15.11    0.67
  -3  -5   8   15.11    0.57
   2   5  -8    1.06    0.17
   2   5  -8    0.76    0.12
  -2  -5   8    0.89    0.16
  -2  -5   8    0.58    0.13
  -2  -5   8    0.53    0.16
   1   5  -8    0.96    0.15
   1   5  -8    1.04    0.12
   1   5  -8    0.79    0.13
  -1  -5   8    0.84    0.16
  -1  -5   8    0.87    0.15
  -1  -5   8    0.91    0.17
   0   5  -8   23.93    0.70
   0   5  -8   21.16    0.67
   0  -5   8   21.39    0.67
   0  -5   8   22.97    0.68
   0  -5   8   22.20    0.69
  -1   5  -8    0.78    0.12
  -1   5  -8    1.04    0.16
  -1   5  -8    0.98    0.10
   1  -5   8    0.83    0.13
   1  -5   8    1.00    0.13
   1  -5   8    0.98    0.19
  -2   5  -8    4.00    0.26
  -2   5  -8    3.62    0.23
  -2   5  -8    3.80    0.16
  -2   5  -8    3.68    0.21
   2  -5   8    3.95    0.25
   2  -5   8    3.27    0.22
  -3   5  -8    3.35    0.24
  -3   5  -8    3.37    0.24
  -3   5  -8    3.04    0.22
   3  -5   8    3.22    0.25
   3  -5   8    3.06    0.23
  -4   5  -8   12.76    0.45
  -4   5  -8   14.05    0.48
  -4   5  -8   13.44    0.45
   4  -5   8   13.85    0.56
   4  -5   8   13.46    0.45
  -5   5  -8    1.97    0.18
  -5   5  -8    2.10    0.19
   5  -5   8    2.25    0.28
   4   4  -8    3.87    0.35
  -4  -4   8    4.58    0.41
  -4  -4   8    4.27    0.29
  -4  -4   8    4.22    0.27
   3   4  -8   23.42    0.70
   3   4  -8   24.00    0.70
  -3  -4   8   24.73    0.73
  -3  -4   8   22.55    0.70
  -3  -4   8   22.06    0.74
  -3  -4   8   24.05    0.83
   2   4  -8    1.77    0.18
   2   4  -8    1.83    0.16
  -2  -4   8    1.87    0.19
  -2  -4   8    2.00    0.21
  -2  -4   8    1.89    0.24
   1   4  -8   10.15    0.39
   1   4  -8   10.36    0.31
   1   4  -8    9.94    0.38
  -1  -4   8   10.39    0.41
  -1  -4   8    9.94    0.39
  -1  -4   8   10.17    0.43
   0   4  -8   59.47    1.45
   0   4  -8   63.16    1.46
   0  -4   8   61.30    1.47
   0  -4   8   57.60    1.44
  -1   4  -8   12.30    0.37
  -1   4  -8   12.42    0.43
  -1   4  -8   12.89    0.44
   1  -4   8   12.31    0.44
   1  -4   8   12.75    0.39
   1  -4   8   12.19    0.42
  -2   4  -8    6.86    0.30
  -2   4  -8    7.38    0.32
  -2   4  -8    7.65    0.32
  -2   4  -8    7.26    0.22
   2  -4   8    6.69    0.29
   2  -4   8    7.18    0.23
   2  -4   8    7.30    0.31
  -3   4  -8   12.24    0.46
  -3   4  -8   13.41    0.44
  -3   4  -8   12.36    0.38
  -3   4  -8   12.28    0.43
   3  -4   8   12.96    0.49
   3  -4   8   12.55    0.42
   3  -4   8   12.11    0.45
  -4   4  -8    4.09    0.24
  -4   4  -8    4.09    0.23
  -4   4  -8    4.35    0.23
   4  -4   8    3.99    0.20
   4  -4   8    4.42    0.32
   4  -4   8    4.06    0.22
  -5   4  -8    0.06    0.08
  -5   4  -8    0.10    0.08
   5  -4   8    0.21    0.12
   5   3  -8    6.90    0.39
   5   3  -8    5.76    0.28
  -5  -3   8    7.07    0.49
  -5  -3   8    6.37    0.30
  -5  -3   8    6.38    0.32
   4   3  -8   16.40    0.57
   4   3  -8   16.03    0.51
  -4  -3   8   16.40    0.69
  -4  -3   8   15.83    0.54
  -4  -3   8   16.13    0.53
   3   3  -8    1.54    0.15
   3   3  -8    1.37    0.16
   3   3  -8    1.30    0.16
  -3  -3   8    1.37    0.16
  -3  -3   8    1.43    0.18
  -3  -3   8    1.78    0.25
   2   3  -8    1.79    0.15
   2   3  -8    1.76    0.17
   2   3  -8    1.91    0.15
   2   3  -8    1.86    0.11
  -2  -3   8    1.91    0.17
  -2  -3   8    1.78    0.18
  -2  -3   8    2.02    0.24
   1   3  -8   11.97    0.32
   1   3  -8   11.88    0.45
   1   3  -8   11.61    0.40
  -1  -3   8   11.15    0.41
  -1  -3   8   11.29    0.40
  -1  -3   8   11.56    0.44
   0   3  -8   20.56    0.58
   0   3  -8   19.21    0.57
   0   3  -8   19.96    0.57
   0  -3   8   19.39    0.57
   0  -3   8   20.43    0.58
   0  -3   8   19.71    0.58
  -1   3  -8    0.36    0.08
  -1   3  -8    0.29    0.08
  -1   3  -8    0.27    0.10
   1  -3   8    0.30    0.10
   1  -3   8    0.23    0.09
   1  -3   8    0.36    0.09
  -2   3  -8   25.04    0.67
  -2   3  -8   24.58    0.69
  -2   3  -8   24.55    0.62
  -2   3  -8   25.53    0.68
   2  -3   8   24.27    0.67
   2  -3   8   23.83    0.66
  -3   3  -8   48.33    1.13
  -3   3  -8   51.47    1.20
  -3   3  -8   48.46    1.27
  -3   3  -8   48.06    1.18
   3  -3   8   51.84    1.30
   3  -3   8   48.32    1.17
   3  -3   8   47.51    1.16
  -4   3  -8    0.51    0.10
  -4   3  -8    0.54    0.10
  -4   3  -8    0.66    0.11
   4  -3   8    0.40    0.08
   4  -3   8    0.35    0.08
   4  -3   8    0.51    0.15
  -5   3  -8    3.26    0.19
  -5   3  -8    2.83    0.18
   5  -3   8    3.21    0.31
   5   2  -8    6.98    0.38
   5   2  -8    6.04    0.31
  -5  -2   8    6.93    0.29
  -5  -2   8    6.57    0.31
  -5  -2   8    6.15    0.46
   4   2  -8   25.00    0.75
   4   2  -8   22.63    0.65
   4   2  -8   24.59    0.67
   4   2  -8   25.23    0.71
  -4  -2   8   25.13    0.70
  -4  -2   8   24.89    0.69
  -4  -2   8   25.97    0.87
   3   2  -8    4.42    0.23
   3   2  -8    4.19    0.21
   3   2  -8    4.35    0.22
   3   2  -8    4.11    0.22
  -3  -2   8    4.09    0.22
  -3  -2   8    4.35    0.24
  -3  -2   8    4.37    0.32
   2   2  -8    1.26    0.14
   2   2  -8    1.17    0.12
   2   2  -8    1.28    0.12
  -2  -2   8    1.20    0.14
  -2  -2   8    1.12    0.16
  -2  -2   8    1.21    0.15
   1   2  -8   54.39    1.33
   1   2  -8   54.64    1.29
  -1  -2   8   53.21    1.29
  -1  -2   8   58.50    1.58
  -1  -2   8   54.47    1.30
   0   2  -8   45.48    1.09
   0   2  -8   44.30    1.15
   0  -2   8   45.01    1.08
   0  -2   8   45.15    1.09
   0  -2   8   45.08    1.09
  -1   2  -8   32.87    0.83
  -1   2  -8   33.10    0.84
  -1   2  -8   33.69    0.84
   1  -2   8   33.00    0.84
   1  -2   8   33.37    0.84
   1  -2   8   34.21    0.84
  -2   2  -8   25.81    0.69
  -2   2  -8   26.20    0.69
  -2   2  -8   26.24    0.68
   2  -2   8   25.87    0.68
   2  -2   8   25.83    0.68
   2  -2   8   25.53    0.63
  -3   2  -8    0.07    0.08
  -3   2  -8    0.07    0.09
  -3   2  -8    0.13    0.08
  -3   2  -8    0.10    0.07
   3  -2   8    0.16    0.10
   3  -2   8    0.07    0.08
   3  -2   8    0.21    0.07
   3  -2   8    0.21    0.08
  -4   2  -8    8.68    0.31
  -4   2  -8    8.59    0.31
  -4   2  -8    8.53    0.34
   4  -2   8    8.06    0.28
   4  -2   8    8.15    0.42
   4  -2   8    8.70    0.36
  -5   2  -8    3.08    0.23
  -5   2  -8    2.76    0.17
  -5   2  -8    3.18    0.18
   5  -2   8    3.17    0.28
   5  -2   8    2.90    0.30
   5   1  -8    8.94    0.42
  -5  -1   8   10.12    0.53
  -5  -1   8    8.97    0.32
  -5  -1   8    8.81    0.33
   4   1  -8    2.90    0.23
   4   1  -8    2.99    0.23
   4   1  -8    2.71    0.16
   4   1  -8    2.75    0.17
  -4  -1   8    2.58    0.19
  -4  -1   8    2.56    0.17
  -4  -1   8    2.41    0.23
  -4  -1   8    2.97    0.30
   3   1  -8   14.68    0.46
   3   1  -8   14.56    0.52
   3   1  -8   14.79    0.44
   3   1  -8   13.89    0.42
  -3  -1   8   14.31    0.44
  -3  -1   8   14.81    0.45
  -3  -1   8   15.07    0.55
  -3  -1   8   14.44    0.46
   2   1  -8   26.99    0.69
   2   1  -8   26.60    0.69
   2   1  -8   26.66    0.69
   2   1  -8   25.56    0.75
  -2  -1   8   27.49    0.78
  -2  -1   8   27.34    0.70
  -2  -1   8   26.75    0.67
  -2  -1   8   26.54    0.70
   1   1  -8   25.97    0.66
   1   1  -8   25.03    0.66
   1   1  -8   24.71    0.76
  -1  -1   8   24.89    0.70
  -1  -1   8   24.63    0.66
  -1  -1   8   25.42    0.66
  -1  -1   8   24.98    0.59
   0   1  -8   40.30    1.00
   0   1  -8   39.94    0.98
   0   1  -8   40.57    0.99
   0  -1   8   41.41    1.01
   0  -1   8   41.68    0.99
   0  -1   8   39.75    0.98
  -1   1  -8   97.06    2.20
  -1   1  -8   97.39    2.13
  -1   1  -8   95.65    2.12
   1  -1   8   96.58    2.12
   1  -1   8   92.87    2.12
   1  -1   8   91.54    2.11
   1  -1   8   93.91    2.02
  -2   1  -8   40.63    0.98
  -2   1  -8   38.68    0.99
  -2   1  -8   39.41    0.97
   2  -1   8   39.24    0.93
   2  -1   8   39.53    0.97
   2  -1   8   40.74    0.97
  -3   1  -8    0.56    0.13
  -3   1  -8    0.57    0.11
  -3   1  -8    0.37    0.09
  -3   1  -8    0.58    0.10
   3  -1   8    0.59    0.09
   3  -1   8    0.44    0.09
   3  -1   8    0.44    0.11
   3  -1   8    0.59    0.10
  -4   1  -8    3.46    0.19
  -4   1  -8    3.37    0.19
  -4   1  -8    4.04    0.26
   4  -1   8    3.35    0.17
   4  -1   8    3.54    0.24
  -5   1  -8    9.14    0.32
  -5   1  -8    9.76    0.42
  -5   1  -8    9.39    0.32
   5  -1   8    9.09    0.50
   5  -1   8    9.97    0.51
   6   0  -8    1.27    0.21
  -6   0   8    0.96    0.24
   5   0  -8    6.44    0.36
  -5   0   8    6.65    0.43
  -5   0   8    6.44    0.26
  -5   0   8    5.72    0.26
   4   0  -8    2.19    0.14
   4   0  -8    2.18    0.21
   4   0  -8    2.12    0.13
  -4   0   8    2.23    0.17
  -4   0   8    2.23    0.26
  -4   0   8    2.04    0.19
  -4   0   8    2.11    0.15
   3   0  -8    3.89    0.19
   3   0  -8    4.03    0.19
   3   0  -8    3.69    0.25
   3   0  -8    4.25    0.24
  -3   0   8    4.17    0.29
  -3   0   8    4.02    0.20
  -3   0   8    4.09    0.21
  -3   0   8    4.14    0.22
   2   0  -8   33.71    0.84
   2   0  -8   33.90    0.83
   2   0  -8   33.62    0.90
  -2   0   8   34.29    0.84
  -2   0   8   34.62    0.91
  -2   0   8   33.42    0.83
  -2   0   8   34.14    0.85
   1   0  -8   66.09    1.62
   1   0  -8   59.90    1.62
   1   0  -8   63.05    1.45
  -1   0   8   63.60    1.45
  -1   0   8   63.16    1.45
  -1   0   8   62.73    1.49
   0   0  -8   29.78    0.75
   0   0  -8   28.80    0.78
   0   0  -8   29.83    0.75
   0   0   8   29.09    0.75
   0   0   8   29.07    0.75
   0   0   8   29.92    0.79
  -1   0  -8   41.96    1.06
  -1   0  -8   40.45    0.98
  -1   0  -8   41.07    1.02
   1   0   8   39.41    1.00
   1   0   8   39.02    0.97
   1   0   8   40.12    0.98
  -2   0  -8   70.49    1.59
  -2   0  -8   67.58    1.62
  -2   0  -8   69.80    1.59
   2   0   8   70.34    1.58
   2   0   8   67.50    1.58
   2   0   8   69.13    1.58
  -3   0  -8   16.99    0.50
  -3   0  -8   16.00    0.55
  -3   0  -8   16.96    0.50
   3   0   8   17.07    0.48
   3   0   8   16.66    0.59
   3   0   8   16.82    0.53
  -4   0  -8    0.29    0.09
  -4   0  -8    0.37    0.12
  -4   0  -8    0.13    0.07
   4   0   8    0.12    0.07
   4   0   8    0.22    0.11
   4   0   8    0.19    0.07
   4   0   8    0.21    0.09
  -5   0  -8    4.98    0.24
  -5   0  -8    4.88    0.29
   5   0   8    5.49    0.39
   5   0   8    5.00    0.34
   6  -1  -8    2.76    0.29
  -6   1   8    2.24    0.33
   5  -1  -8    9.67    0.45
  -5   1   8    9.18    0.48
   4  -1  -8   20.45    0.66
   4  -1  -8   19.86    0.52
  -4   1   8   20.87    0.69
  -4   1   8   21.09    0.65
  -4   1   8   21.27    0.56
  -4   1   8   20.07    0.55
  -4   1   8   19.99    0.69
   3  -1  -8    8.63    0.37
   3  -1  -8    8.27    0.36
   3  -1  -8    8.68    0.29
   3  -1  -8    8.61    0.29
  -3   1   8    8.60    0.30
  -3   1   8    8.44    0.33
  -3   1   8    8.74    0.39
   2  -1  -8    6.29    0.25
   2  -1  -8    6.13    0.25
   2  -1  -8    6.67    0.30
  -2   1   8    6.33    0.31
  -2   1   8    6.55    0.26
  -2   1   8    6.31    0.25
   1  -1  -8   19.00    0.52
   1  -1  -8   18.00    0.62
   1  -1  -8   17.92    0.56
  -1   1   8   19.21    0.53
  -1   1   8   19.36    0.53
  -1   1   8   19.45    0.58
   0  -1  -8   80.02    1.95
   0  -1  -8   82.92    1.82
   0  -1  -8   80.98    1.82
   0   1   8   78.39    1.86
   0   1   8   80.32    1.82
  -1  -1  -8   26.22    0.69
  -1  -1  -8   27.06    0.70
  -1  -1  -8   24.93    0.72
   1   1   8   27.64    0.70
   1   1   8   25.34    0.69
  -2  -1  -8   18.92    0.54
  -2  -1  -8   17.28    0.58
  -2  -1  -8   17.72    0.53
   2   1   8   18.65    0.53
   2   1   8   17.38    0.52
   2   1   8   19.08    0.59
  -3  -1  -8    3.66    0.21
  -3  -1  -8    3.28    0.21
  -3  -1  -8    3.87    0.27
   3   1   8    3.80    0.24
   3   1   8    3.46    0.20
   3   1   8    3.75    0.21
   3   1   8    3.69    0.27
  -4  -1  -8   10.33    0.38
  -4  -1  -8   10.18    0.37
   4   1   8   10.32    0.34
   4   1   8   11.10    0.61
   4   1   8    9.76    0.35
   4   1   8    9.86    0.44
  -5  -1  -8    3.00    0.21
  -5  -1  -8    3.22    0.20
   5   1   8    2.77    0.28
   5   1   8    3.22    0.32
   6  -2  -8    1.89    0.27
  -6   2   8    1.40    0.24
   5  -2  -8    3.09    0.29
  -5   2   8    2.83    0.29
  -5   2   8    2.53    0.15
  -5   2   8    2.82    0.16
   4  -2  -8   35.02    0.92
   4  -2  -8   38.56    1.07
   4  -2  -8   39.58    0.93
   4  -2  -8   40.04    1.11
  -4   2   8   41.47    0.97
  -4   2   8   40.27    1.09
  -4   2   8   47.63    1.36
  -4   2   8   40.84    1.11
  -4   2   8   39.81    0.97
   3  -2  -8   11.09    0.36
   3  -2  -8   11.49    0.36
   3  -2  -8   11.66    0.45
   3  -2  -8   11.66    0.44
  -3   2   8   11.33    0.37
  -3   2   8   11.26    0.45
  -3   2   8   11.30    0.37
  -3   2   8   11.21    0.41
   2  -2  -8   16.92    0.49
   2  -2  -8   16.83    0.55
   2  -2  -8   17.06    0.49
  -2   2   8   16.70    0.49
  -2   2   8   16.01    0.48
  -2   2   8   18.25    0.57
   1  -2  -8    7.63    0.33
   1  -2  -8    7.34    0.28
   1  -2  -8    7.08    0.27
  -1   2   8    6.70    0.29
  -1   2   8    7.42    0.42
  -1   2   8    7.06    0.27
   0  -2  -8   26.97    0.73
   0  -2  -8   25.15    0.68
   0  -2  -8   24.85    0.73
   0   2   8   24.96    0.68
   0   2   8   24.98    0.73
   0   2   8   26.24    0.69
  -1  -2  -8   58.86    1.48
  -1  -2  -8   62.69    1.44
  -1  -2  -8   61.07    1.64
   1   2   8   58.89    1.42
   1   2   8   62.87    1.44
  -2  -2  -8   13.89    0.52
  -2  -2  -8   14.43    0.47
  -2  -2  -8   14.12    0.47
   2   2   8   15.45    0.51
   2   2   8   14.44    0.46
   2   2   8   13.85    0.45
  -3  -2  -8    4.94    0.32
  -3  -2  -8    5.42    0.27
  -3  -2  -8    6.10    0.29
   3   2   8    5.55    0.26
   3   2   8    5.42    0.26
   3   2   8    5.49    0.31
   3   2   8    5.57    0.32
  -4  -2  -8    7.90    0.34
  -4  -2  -8    7.79    0.39
   4   2   8    7.90    0.31
   4   2   8    7.66    0.41
   4   2   8    8.04    0.43
   6  -3  -8    5.07    0.39
  -6   3   8    5.14    0.40
   5  -3  -8    9.06    0.66
  -5   3   8   10.18    0.48
  -5   3   8   10.30    0.33
   4  -3  -8    0.94    0.12
   4  -3  -8    1.02    0.18
   4  -3  -8    1.11    0.16
   4  -3  -8    0.98    0.11
  -4   3   8    0.78    0.14
  -4   3   8    0.76    0.11
  -4   3   8    0.88    0.12
  -4   3   8    1.00    0.17
  -4   3   8    0.61    0.12
   3  -3  -8   17.23    0.51
   3  -3  -8   17.34    0.50
   3  -3  -8   17.82    0.58
   3  -3  -8   17.63    0.60
  -3   3   8   18.23    0.61
  -3   3   8   16.64    0.50
  -3   3   8   17.41    0.51
   2  -3  -8   12.78    0.41
   2  -3  -8   13.38    0.42
   2  -3  -8   12.26    0.47
  -2   3   8   12.68    0.47
  -2   3   8   12.70    0.42
  -2   3   8   12.98    0.41
   1  -3  -8   18.71    0.60
   1  -3  -8   19.07    0.56
   1  -3  -8   18.36    0.54
  -1   3   8   18.07    0.54
  -1   3   8   18.93    0.60
  -1   3   8   18.19    0.54
   0  -3  -8   32.02    0.82
   0  -3  -8   29.78    0.80
   0  -3  -8   29.94    0.85
   0   3   8   31.21    0.81
   0   3   8   29.54    0.80
  -1  -3  -8   53.14    1.28
  -1  -3  -8   49.98    1.32
  -1  -3  -8   52.02    1.27
   1   3   8   53.54    1.27
   1   3   8   50.44    1.26
  -2  -3  -8    0.80    0.13
  -2  -3  -8    1.05    0.14
  -2  -3  -8    0.96    0.16
   2   3   8    0.71    0.13
   2   3   8    0.87    0.15
   2   3   8    0.81    0.13
  -3  -3  -8    6.68    0.33
  -3  -3  -8    6.32    0.31
   3   3   8    6.57    0.31
   3   3   8    6.24    0.35
   3   3   8    5.71    0.35
  -4  -3  -8    0.98    0.14
  -4  -3  -8    0.79    0.15
   4   3   8    0.84    0.18
   4   3   8    0.86    0.17
   4   3   8    1.04    0.14
   6  -4  -8    3.78    0.36
  -6   4   8    3.88    0.35
   5  -4  -8   27.55    0.91
   5  -4  -8   25.53    0.83
  -5   4   8   27.85    0.87
  -5   4   8   26.85    0.72
  -5   4   8   28.81    0.72
   4  -4  -8    0.05    0.07
   4  -4  -8    0.22    0.13
   4  -4  -8   -0.01    0.09
   4  -4  -8    0.07    0.07
  -4   4   8    0.11    0.12
  -4   4   8    0.08    0.08
  -4   4   8   -0.01    0.07
  -4   4   8    0.08    0.07
   3  -4  -8    8.57    0.33
   3  -4  -8    8.32    0.41
   3  -4  -8    8.10    0.32
   3  -4  -8    7.75    0.37
  -3   4   8    7.80    0.32
  -3   4   8    8.73    0.34
  -3   4   8    8.11    0.32
  -3   4   8    7.98    0.39
   2  -4  -8    9.61    0.37
   2  -4  -8    9.67    0.36
   2  -4  -8    9.47    0.41
  -2   4   8    9.48    0.37
  -2   4   8    9.39    0.36
  -2   4   8    9.95    0.41
   1  -4  -8    9.64    0.37
   1  -4  -8    9.61    0.42
   1  -4  -8   10.43    0.39
  -1   4   8    9.52    0.37
  -1   4   8    9.65    0.38
   0  -4  -8    4.40    0.28
   0  -4  -8    4.69    0.26
   0  -4  -8    4.93    0.28
   0   4   8    4.52    0.26
   0   4   8    4.49    0.25
  -1  -4  -8   21.07    0.65
  -1  -4  -8   21.47    0.66
   1   4   8   21.26    0.65
  -2  -4  -8   25.15    0.76
  -2  -4  -8   23.82    0.74
   2   4   8   24.83    0.72
   2   4   8   24.86    0.74
  -3  -4  -8    8.49    0.39
  -3  -4  -8    9.64    0.42
   3   4   8    9.66    0.43
   3   4   8    9.20    0.46
   3   4   8    9.53    0.40
   5  -5  -8    2.28    0.23
   5  -5  -8    2.89    0.31
   5  -5  -8    2.65    0.18
  -5   5   8    2.85    0.28
  -5   5   8    3.11    0.21
  -5   5   8    2.84    0.21
  -5   5   8    2.45    0.24
   4  -5  -8   10.40    0.39
   4  -5  -8   10.37    0.39
   4  -5  -8   10.66    0.45
   4  -5  -8   10.56    0.50
  -4   5   8   11.18    0.41
  -4   5   8   11.07    0.40
  -4   5   8   10.82    0.45
  -4   5   8   10.70    0.42
   3  -5  -8   11.62    0.48
   3  -5  -8   12.14    0.43
   3  -5  -8   12.68    0.44
   3  -5  -8   12.38    0.53
  -3   5   8   12.49    0.48
  -3   5   8   12.23    0.40
  -3   5   8   11.92    0.43
  -3   5   8   12.54    0.45
   2  -5  -8    5.16    0.32
   2  -5  -8    5.35    0.29
  -2   5   8    5.24    0.28
  -2   5   8    5.12    0.31
  -2   5   8    5.19    0.29
   1  -5  -8    1.88    0.22
   1  -5  -8    1.59    0.20
   1  -5  -8    1.51    0.28
  -1   5   8    1.59    0.18
  -1   5   8    1.75    0.21
   0  -5  -8   22.62    0.88
   0  -5  -8   22.93    0.76
   0  -5  -8   24.72    0.74
   0   5   8   23.60    0.72
   0   5   8   23.96    0.73
  -1  -5  -8    0.99    0.23
  -1  -5  -8    1.13    0.17
   1   5   8    0.87    0.16
   1   5   8    0.99    0.14
  -2  -5  -8    5.25    0.32
  -2  -5  -8    4.95    0.36
   2   5   8    4.47    0.27
   2   5   8    5.19    0.32
  -3  -5  -8    6.83    0.38
  -3  -5  -8    6.08    0.35
   3   5   8    5.98    0.40
   3   5   8    6.33    0.36
   3   5   8    6.84    0.36
   5  -6  -8    0.07    0.09
   5  -6  -8   -0.15    0.10
   5  -6  -8    0.12    0.14
  -5   6   8    0.06    0.10
  -5   6   8   -0.09    0.09
  -5   6   8    0.14    0.09
  -5   6   8    0.08    0.09
   4  -6  -8   13.33    0.48
   4  -6  -8   12.09    0.50
   4  -6  -8   13.77    0.59
  -4   6   8   14.00    0.51
  -4   6   8   13.25    0.47
  -4   6   8   12.72    0.44
  -4   6   8   14.37    0.52
   3  -6  -8    7.43    0.39
   3  -6  -8    8.47    0.38
   3  -6  -8    8.51    0.45
  -3   6   8    8.21    0.38
  -3   6   8    8.14    0.37
   2  -6  -8    8.29    0.42
   2  -6  -8    8.85    0.40
  -2   6   8    8.46    0.38
  -2   6   8    8.71    0.40
   1  -6  -8    0.26    0.11
   1  -6  -8   -0.07    0.09
  -1   6   8    0.02    0.10
  -1   6   8   -0.03    0.09
   0  -6  -8   10.46    0.47
   0   6   8   10.83    0.47
  -1  -6  -8   12.03    0.51
   1   6   8   11.04    0.48
  -2  -6  -8    4.81    0.34
   2   6   8    4.64    0.32
   4  -7  -8    4.22    0.28
   4  -7  -8    3.58    0.34
  -4   7   8    4.33    0.27
  -4   7   8    3.43    0.28
   3  -7  -8    2.66    0.36
   3  -7  -8    1.82    0.26
   3  -7  -8    2.84    0.26
  -3   7   8    3.08    0.27
  -3   7   8    2.87    0.29
   2  -7  -8    3.79    0.29
   2  -7  -8    2.40    0.28
  -2   7   8    3.88    0.45
  -2   7   8    3.06    0.28
   1  -7  -8   18.77    0.68
  -1   7   8   18.67    0.68
   0  -7  -8    3.62    0.32
   0   7   8    3.73    0.30
  -1  -7  -8    3.25    0.31
   1   7   8    2.93    0.29
   3  -8  -8    2.33    0.31
   3  -8  -8    1.45    0.22
  -3   8   8    1.79    0.23
   2  -8  -8    0.34    0.17
  -2   8   8    0.13    0.14
   1  -8  -8    4.35    0.36
  -1   8   8    4.25    0.34
   0   8  -9    0.84    0.11
   0   8  -9    1.04    0.21
   0  -8   9    0.72    0.19
   0  -8   9    1.14    0.21
  -1   8  -9    0.72    0.17
   1  -8   9    0.94    0.16
   1  -8   9    0.79    0.18
  -2   8  -9    3.16    0.29
  -2   8  -9    2.61    0.18
   2  -8   9    3.03    0.24
   1   7  -9    0.46    0.15
   1   7  -9    0.47    0.10
  -1  -7   9    0.49    0.16
  -1  -7   9    0.51    0.19
   0   7  -9    0.95    0.12
   0   7  -9    0.90    0.18
   0  -7   9    0.84    0.21
   0  -7   9    0.72    0.17
  -1   7  -9   -0.01    0.10
   1  -7   9    0.00    0.12
   1  -7   9   -0.13    0.10
  -2   7  -9    0.19    0.13
  -2   7  -9    0.28    0.07
  -2   7  -9    0.25    0.14
   2  -7   9    0.19    0.13
  -3   7  -9    2.93    0.17
  -3   7  -9    3.35    0.26
  -3   7  -9    2.20    0.24
  -3   7  -9    2.89    0.28
   3  -7   9    4.05    0.31
   3  -7   9    2.97    0.25
   3   6  -9    0.06    0.15
   3   6  -9   -0.03    0.11
  -3  -6   9    0.18    0.13
  -3  -6   9    0.03    0.15
   2   6  -9    6.68    0.31
   2   6  -9    6.28    0.36
  -2  -6   9    6.65    0.43
  -2  -6   9    6.46    0.39
   1   6  -9    3.44    0.20
   1   6  -9    3.57    0.28
  -1  -6   9    3.66    0.32
  -1  -6   9    3.66    0.31
   0   6  -9    6.60    0.24
   0   6  -9    6.48    0.36
   0  -6   9    6.77    0.37
   0  -6   9    6.78    0.36
  -1   6  -9   10.71    0.45
  -1   6  -9   11.00    0.47
   1  -6   9   11.28    0.47
   1  -6   9   11.31    0.42
  -2   6  -9    7.01    0.35
  -2   6  -9    6.75    0.23
  -2   6  -9    6.82    0.29
  -2   6  -9    7.44    0.44
   2  -6   9    6.96    0.36
  -3   6  -9    2.52    0.25
  -3   6  -9    2.26    0.22
  -3   6  -9    2.58    0.24
  -3   6  -9    2.38    0.22
   3  -6   9    2.47    0.24
   3  -6   9    2.83    0.25
  -4   6  -9    4.08    0.23
  -4   6  -9    4.40    0.26
   4  -6   9    4.27    0.28
   4  -6   9    3.85    0.48
   3   5  -9   14.31    0.51
   3   5  -9   14.28    0.54
  -3  -5   9   14.06    0.75
  -3  -5   9   15.54    0.59
  -3  -5   9   14.49    0.67
   2   5  -9    1.82    0.17
   2   5  -9    1.93    0.22
  -2  -5   9    1.97    0.29
  -2  -5   9    1.89    0.27
   1   5  -9    1.39    0.12
   1   5  -9    1.19    0.17
   1   5  -9    1.33    0.17
  -1  -5   9    1.66    0.22
  -1  -5   9    1.07    0.18
   0   5  -9    1.50    0.19
   0   5  -9    1.25    0.20
   0   5  -9    1.76    0.11
   0  -5   9    1.65    0.19
   0  -5   9    1.44    0.20
   0  -5   9    1.76    0.21
  -1   5  -9   12.30    0.37
  -1   5  -9   12.26    0.46
  -1   5  -9   13.09    0.48
   1  -5   9   12.98    0.48
   1  -5   9   12.64    0.42
  -2   5  -9    1.27    0.18
  -2   5  -9    1.23    0.15
  -2   5  -9    1.27    0.17
   2  -5   9    1.18    0.16
  -3   5  -9    0.33    0.06
  -3   5  -9    0.27    0.11
  -3   5  -9    0.41    0.12
   3  -5   9    0.36    0.11
   3  -5   9    0.28    0.11
  -4   5  -9   10.92    0.46
  -4   5  -9   11.71    0.43
  -4   5  -9   10.86    0.38
   4  -5   9   11.31    0.41
   4  -5   9   11.43    0.61
  -5   5  -9    0.33    0.10
  -5   5  -9    0.31    0.10
   5  -5   9    0.27    0.14
  -4  -4   9    1.10    0.22
  -4  -4   9    0.90    0.16
  -4  -4   9    0.87    0.14
   3   4  -9    6.30    0.32
   3   4  -9    6.82    0.32
  -3  -4   9    6.29    0.32
  -3  -4   9    7.18    0.56
  -3  -4   9    6.10    0.53
   2   4  -9   16.98    0.49
   2   4  -9   16.76    0.55
  -2  -4   9   16.18    0.55
  -2  -4   9   16.78    0.63
  -2  -4   9   16.58    0.57
   1   4  -9    8.11    0.35
   1   4  -9    7.67    0.25
   1   4  -9    6.63    0.32
  -1  -4   9    8.01    0.38
  -1  -4   9    7.23    0.34
  -1  -4   9    7.01    0.34
   0   4  -9    3.78    0.15
   0   4  -9    3.65    0.24
   0   4  -9    3.93    0.25
   0  -4   9    3.73    0.24
   0  -4   9    3.77    0.26
   0  -4   9    3.86    0.25
  -1   4  -9   20.34    0.62
  -1   4  -9   20.36    0.56
  -1   4  -9   20.61    0.63
   1  -4   9   19.90    0.61
   1  -4   9   21.52    0.63
   1  -4   9   20.38    0.58
  -2   4  -9    3.98    0.17
  -2   4  -9    4.34    0.24
  -2   4  -9    4.17    0.24
  -2   4  -9    3.86    0.24
   2  -4   9    3.62    0.23
   2  -4   9    3.98    0.18
   2  -4   9    4.35    0.25
  -3   4  -9    5.88    0.32
  -3   4  -9    5.77    0.29
  -3   4  -9    6.61    0.31
   3  -4   9    5.67    0.27
   3  -4   9    6.34    0.30
   3  -4   9    6.78    0.36
  -4   4  -9   15.29    0.50
  -4   4  -9   16.19    0.52
   4  -4   9   14.39    0.52
   4  -4   9   15.53    0.62
   4  -4   9   15.68    0.49
  -5   4  -9    3.02    0.20
   5  -4   9    2.99    0.31
   5   3  -9    4.73    0.27
   5   3  -9    5.03    0.34
  -5  -3   9    4.97    0.45
  -5  -3   9    5.12    0.28
  -5  -3   9    4.91    0.30
   4   3  -9   12.43    0.45
   4   3  -9   13.08    0.49
  -4  -3   9   12.68    0.55
  -4  -3   9   13.70    0.63
  -4  -3   9   12.06    0.45
   3   3  -9    4.67    0.26
   3   3  -9    5.80    0.23
   3   3  -9    6.08    0.28
  -3  -3   9    5.63    0.28
  -3  -3   9    5.52    0.38
  -3  -3   9    5.66    0.30
   2   3  -9    6.17    0.29
   2   3  -9    6.44    0.31
   2   3  -9    6.76    0.26
   2   3  -9    6.44    0.22
  -2  -3   9    7.16    0.38
  -2  -3   9    6.38    0.31
  -2  -3   9    6.51    0.30
   1   3  -9   20.96    0.62
   1   3  -9   21.83    0.63
   1   3  -9   21.56    0.52
  -1  -3   9   20.84    0.62
  -1  -3   9   22.40    0.67
  -1  -3   9   21.49    0.64
   0   3  -9   58.55    1.38
   0   3  -9   57.77    1.37
   0   3  -9   55.96    1.38
   0  -3   9   55.75    1.37
   0  -3   9   58.13    1.38
   0  -3   9   58.29    1.38
  -1   3  -9    6.14    0.26
  -1   3  -9    6.05    0.28
   1  -3   9    6.07    0.32
   1  -3   9    6.48    0.28
   1  -3   9    5.43    0.26
  -2   3  -9    7.04    0.27
  -2   3  -9    6.81    0.30
  -2   3  -9    6.71    0.31
  -2   3  -9    7.02    0.30
   2  -3   9    6.81    0.30
   2  -3   9    6.45    0.28
   2  -3   9    6.71    0.26
  -3   3  -9    7.67    0.32
  -3   3  -9    7.50    0.37
  -3   3  -9    7.95    0.33
  -3   3  -9    7.91    0.29
   3  -3   9    7.77    0.32
   3  -3   9    8.70    0.40
   3  -3   9    7.54    0.30
  -4   3  -9    0.71    0.12
  -4   3  -9    0.67    0.11
  -4   3  -9    0.50    0.11
   4  -3   9    0.53    0.14
   4  -3   9    0.55    0.10
   4  -3   9    0.66    0.10
  -5   3  -9    0.05    0.08
  -5   3  -9   -0.05    0.08
  -5   3  -9    0.08    0.09
   5  -3   9    0.16    0.11
   5   2  -9    0.38    0.13
   5   2  -9    0.13    0.08
  -5  -2   9    0.38    0.09
  -5  -2   9    0.43    0.12
  -5  -2   9    0.23    0.17
   4   2  -9    1.78    0.15
   4   2  -9    1.80    0.21
   4   2  -9    1.68    0.16
   4   2  -9    2.00    0.18
  -4  -2   9    1.86    0.28
  -4  -2   9    2.01    0.19
  -4  -2   9    1.71    0.17
   3   2  -9   12.50    0.41
   3   2  -9   12.28    0.42
   3   2  -9   11.63    0.41
   3   2  -9   12.96    0.43
  -3  -2   9   12.30    0.43
  -3  -2   9   13.01    0.44
   2   2  -9    4.30    0.23
   2   2  -9    4.20    0.22
   2   2  -9    4.48    0.20
   2   2  -9    4.10    0.20
  -2  -2   9    4.84    0.31
  -2  -2   9    4.09    0.28
  -2  -2   9    4.24    0.24
   1   2  -9    5.17    0.27
   1   2  -9    5.46    0.25
   1   2  -9    5.06    0.24
  -1  -2   9    4.98    0.24
  -1  -2   9    5.27    0.26
  -1  -2   9    5.44    0.29
   0   2  -9   56.89    1.35
   0   2  -9   55.94    1.34
   0   2  -9   58.30    1.44
   0  -2   9   56.48    1.43
   0  -2   9   56.16    1.35
  -1   2  -9    0.39    0.10
  -1   2  -9    0.33    0.08
  -1   2  -9    0.48    0.10
   1  -2   9    0.36    0.09
   1  -2   9    0.19    0.08
   1  -2   9    0.30    0.08
  -2   2  -9    6.26    0.28
  -2   2  -9    6.52    0.29
  -2   2  -9    6.65    0.28
   2  -2   9    5.99    0.27
   2  -2   9    6.54    0.28
   2  -2   9    6.32    0.22
  -3   2  -9  104.58    2.32
  -3   2  -9  101.66    2.58
  -3   2  -9  101.91    2.31
   3  -2   9  105.69    2.44
   3  -2   9  101.15    2.30
   3  -2   9  107.23    2.51
   3  -2   9   99.03    2.28
  -4   2  -9   13.03    0.46
  -4   2  -9   13.31    0.44
  -4   2  -9   13.58    0.44
   4  -2   9   13.78    0.41
   4  -2   9   14.52    0.58
   4  -2   9   13.71    0.48
   4  -2   9   12.89    0.40
  -5   2  -9    0.19    0.09
  -5   2  -9    0.46    0.12
  -5   2  -9    0.17    0.09
   5  -2   9    0.10    0.12
   5  -2   9    0.29    0.12
   5   1  -9    7.16    0.37
  -5  -1   9    6.89    0.30
  -5  -1   9    7.51    0.48
  -5  -1   9    6.65    0.28
   4   1  -9    7.04    0.27
   4   1  -9    7.56    0.29
   4   1  -9    7.55    0.35
  -4  -1   9    7.79    0.44
  -4  -1   9    7.55    0.31
  -4  -1   9    7.54    0.30
  -4  -1   9    7.04    0.34
   3   1  -9   18.67    0.55
   3   1  -9   19.80    0.57
   3   1  -9   20.25    0.59
  -3  -1   9   20.40    0.58
  -3  -1   9   19.88    0.58
  -3  -1   9   19.78    0.68
  -3  -1   9   19.95    0.57
   2   1  -9   44.57    1.09
   2   1  -9   42.38    1.15
   2   1  -9   45.97    1.10
  -2  -1   9   45.77    1.06
  -2  -1   9   46.32    1.18
  -2  -1   9   45.70    1.10
  -2  -1   9   44.49    1.10
   1   1  -9   52.22    1.29
   1   1  -9   52.29    1.25
   1   1  -9   53.04    1.25
  -1  -1   9   51.76    1.25
  -1  -1   9   53.97    1.30
  -1  -1   9   51.84    1.25
  -1  -1   9   52.64    1.16
   0   1  -9    2.40    0.23
   0   1  -9    2.53    0.18
   0   1  -9    2.49    0.20
   0  -1   9    2.62    0.18
   0  -1   9    2.99    0.21
   0  -1   9    2.38    0.17
  -1   1  -9   10.81    0.37
  -1   1  -9   11.28    0.39
  -1   1  -9   11.00    0.37
   1  -1   9   10.61    0.37
   1  -1   9   10.53    0.38
   1  -1   9   10.60    0.28
   1  -1   9   10.07    0.36
  -2   1  -9    2.68    0.21
  -2   1  -9    2.85    0.19
  -2   1  -9    2.62    0.18
   2  -1   9    2.64    0.19
   2  -1   9    2.75    0.15
   2  -1   9    2.42    0.17
  -3   1  -9   19.90    0.57
  -3   1  -9   19.62    0.57
  -3   1  -9   19.30    0.60
   3  -1   9   19.88    0.67
   3  -1   9   19.15    0.55
   3  -1   9   20.00    0.58
   3  -1   9   20.02    0.56
  -4   1  -9    0.29    0.10
  -4   1  -9    0.24    0.09
  -4   1  -9    0.30    0.10
   4  -1   9    0.23    0.09
   4  -1   9    0.09    0.13
   4  -1   9    0.17    0.08
   4  -1   9    0.23    0.07
  -5   1  -9    5.61    0.26
  -5   1  -9    7.15    0.35
  -5   1  -9    6.55    0.27
   5  -1   9    6.45    0.43
   5  -1   9    6.07    0.36
   5   0  -9    1.71    0.22
  -5   0   9    1.53    0.27
  -5   0   9    1.25    0.14
  -5   0   9    1.30    0.16
   4   0  -9    3.60    0.19
   4   0  -9    3.69    0.26
   4   0  -9    3.48    0.18
  -4   0   9    3.22    0.34
  -4   0   9    3.48    0.20
  -4   0   9    3.71    0.22
  -4   0   9    3.95    0.32
   3   0  -9   31.50    0.80
   3   0  -9   31.23    0.90
   3   0  -9   32.56    0.87
   3   0  -9   31.79    0.81
  -3   0   9   31.87    0.84
  -3   0   9   32.04    0.81
  -3   0   9   31.58    0.82
  -3   0   9   31.97    0.92
   2   0  -9   19.55    0.61
   2   0  -9   19.61    0.55
   2   0  -9   19.93    0.56
  -2   0   9   19.73    0.63
  -2   0   9   18.94    0.55
  -2   0   9   19.84    0.53
  -2   0   9   20.54    0.57
   1   0  -9   40.16    0.96
   1   0  -9   38.10    0.95
   1   0  -9   37.28    0.99
  -1   0   9   37.43    1.00
  -1   0   9   38.24    0.95
  -1   0   9   38.40    1.08
   0   0  -9    2.00    0.19
   0   0  -9    2.22    0.16
   0   0   9    2.16    0.20
   0   0   9    2.46    0.17
   0   0   9    2.11    0.16
  -1   0  -9   10.23    0.36
  -1   0  -9   10.17    0.35
  -1   0  -9    9.89    0.39
   1   0   9    9.91    0.35
   1   0   9   10.03    0.35
   1   0   9    9.96    0.43
  -2   0  -9   84.84    1.93
  -2   0  -9   83.42    1.97
  -2   0  -9   86.71    1.93
   2   0   9   84.79    1.92
   2   0   9   83.59    1.92
   2   0   9   84.27    1.90
  -3   0  -9    9.82    0.36
  -3   0  -9   10.14    0.37
  -3   0  -9    9.55    0.41
   3   0   9   10.35    0.36
   3   0   9   10.13    0.38
   3   0   9   10.14    0.44
  -4   0  -9    4.13    0.28
  -4   0  -9    3.49    0.21
  -4   0  -9    3.96    0.23
   4   0   9    3.52    0.19
   4   0   9    2.97    0.19
   4   0   9    3.83    0.37
   4   0   9    3.34    0.26
  -5   0  -9    8.32    0.49
  -5   0  -9    8.17    0.33
   5   0   9    8.95    0.44
   5   0   9    8.82    0.49
   6  -1  -9    2.43    0.27
  -6   1   9    1.79    0.27
   5  -1  -9    5.71    0.36
  -5   1   9    5.76    0.25
  -5   1   9    5.68    0.26
  -5   1   9    5.46    0.39
   4  -1  -9   13.95    0.41
   4  -1  -9   14.87    0.42
   4  -1  -9   14.36    0.54
  -4   1   9   14.35    0.57
  -4   1   9   14.80    0.44
  -4   1   9   14.74    0.45
  -4   1   9   14.25    0.55
   3  -1  -9    0.66    0.15
   3  -1  -9    0.46    0.12
   3  -1  -9    0.41    0.08
   3  -1  -9    0.40    0.09
  -3   1   9    0.31    0.12
  -3   1   9    0.53    0.11
  -3   1   9    0.45    0.09
   2  -1  -9   50.73    1.20
   2  -1  -9   51.37    1.21
   2  -1  -9   49.97    1.28
  -2   1   9   50.92    1.28
  -2   1   9   50.42    1.21
  -2   1   9   51.16    1.21
   1  -1  -9   64.74    1.48
   1  -1  -9   63.04    1.47
   1  -1  -9   62.25    1.53
  -1   1   9   61.19    1.47
  -1   1   9   65.51    1.54
  -1   1   9   63.43    1.48
   0  -1  -9   11.20    0.38
   0  -1  -9   11.43    0.43
   0  -1  -9   11.62    0.45
   0   1   9   11.58    0.39
   0   1   9   11.60    0.43
  -1  -1  -9   11.07    0.38
  -1  -1  -9   10.83    0.38
  -1  -1  -9   10.54    0.42
   1   1   9   10.10    0.37
   1   1   9   10.90    0.38
  -2  -1  -9   47.83    1.26
  -2  -1  -9   48.37    1.20
  -2  -1  -9   50.50    1.21
   2   1   9   47.10    1.19
   2   1   9   50.53    1.20
   2   1   9   51.64    1.28
  -3  -1  -9    0.55    0.21
  -3  -1  -9    0.32    0.10
  -3  -1  -9    0.38    0.09
   3   1   9    0.29    0.11
   3   1   9    0.50    0.12
   3   1   9    0.22    0.09
   3   1   9    0.36    0.09
  -4  -1  -9   18.55    0.58
  -4  -1  -9   18.91    0.58
   4   1   9   18.28    0.54
   4   1   9   18.66    0.65
   4   1   9   18.85    0.70
   6  -2  -9    1.83    0.26
  -6   2   9    1.67    0.26
   5  -2  -9    4.09    0.34
  -5   2   9    4.15    0.21
  -5   2   9    4.62    0.21
  -5   2   9    4.38    0.36
   4  -2  -9   38.50    1.06
   4  -2  -9   35.32    1.03
   4  -2  -9   36.83    0.90
   4  -2  -9   37.50    0.90
  -4   2   9   38.27    1.07
  -4   2   9   36.69    0.93
  -4   2   9   37.57    1.07
  -4   2   9   37.89    0.92
  -4   2   9   36.77    1.01
   3  -2  -9    2.97    0.18
   3  -2  -9    2.71    0.24
   3  -2  -9    2.94    0.18
   3  -2  -9    2.73    0.23
  -3   2   9    2.57    0.20
  -3   2   9    2.60    0.19
  -3   2   9    2.68    0.27
  -3   2   9    2.75    0.19
   2  -2  -9    5.76    0.25
   2  -2  -9    5.41    0.30
   2  -2  -9    5.77    0.25
  -2   2   9    5.62    0.25
  -2   2   9    5.63    0.32
  -2   2   9    5.70    0.26
   1  -2  -9    4.29    0.27
   1  -2  -9    3.85    0.21
   1  -2  -9    4.16    0.22
  -1   2   9    3.95    0.21
  -1   2   9    4.42    0.23
  -1   2   9    4.33    0.27
   0  -2  -9   33.71    0.87
   0  -2  -9   33.76    0.86
   0  -2  -9   32.61    0.92
   0   2   9   32.89    0.91
   0   2   9   34.20    0.87
   0   2   9   32.26    0.85
  -1  -2  -9    7.90    0.33
  -1  -2  -9    7.24    0.35
  -1  -2  -9    7.75    0.31
   1   2   9    8.38    0.34
   1   2   9    7.26    0.31
  -2  -2  -9    8.03    0.34
  -2  -2  -9    7.51    0.32
  -2  -2  -9    7.06    0.37
   2   2   9    7.37    0.31
   2   2   9    7.81    0.35
   2   2   9    7.96    0.33
  -3  -2  -9   11.20    0.58
  -3  -2  -9   12.02    0.44
  -3  -2  -9   12.27    0.62
   3   2   9   12.23    0.48
   3   2   9   12.32    0.51
   3   2   9   12.01    0.43
  -4  -2  -9   15.56    0.53
  -4  -2  -9   14.74    0.51
   4   2   9   14.97    0.62
   4   2   9   15.50    0.49
   4   2   9   15.48    0.61
   6  -3  -9    4.93    0.40
  -6   3   9    4.53    0.39
   5  -3  -9    9.68    0.49
  -5   3   9   10.33    0.35
  -5   3   9   10.10    0.50
   4  -3  -9    2.99    0.18
   4  -3  -9    3.46    0.19
   4  -3  -9    3.31    0.28
   4  -3  -9    3.09    0.26
  -4   3   9    3.22    0.21
  -4   3   9    3.31    0.25
  -4   3   9    3.38    0.31
  -4   3   9    3.64    0.21
  -4   3   9    2.94    0.23
   3  -3  -9   40.07    0.98
   3  -3  -9   39.62    0.99
   3  -3  -9   39.35    1.07
  -3   3   9   39.98    1.10
  -3   3   9   40.51    1.00
  -3   3   9   38.26    0.99
   2  -3  -9   66.56    1.67
   2  -3  -9   69.59    1.60
   2  -3  -9   67.86    1.59
  -2   3   9   67.28    1.59
  -2   3   9   69.36    1.67
   1  -3  -9   11.59    0.47
   1  -3  -9   12.19    0.42
   1  -3  -9   12.54    0.43
  -1   3   9   11.98    0.42
  -1   3   9   12.38    0.47
  -1   3   9   12.20    0.42
   0  -3  -9    0.83    0.13
   0  -3  -9    1.14    0.17
   0  -3  -9    1.22    0.15
   0   3   9    1.00    0.15
   0   3   9    0.84    0.12
  -1  -3  -9   27.07    0.84
  -1  -3  -9   28.98    0.80
  -1  -3  -9   27.79    0.78
   1   3   9   26.99    0.78
   1   3   9   28.84    0.79
   1   3   9   29.32    0.78
  -2  -3  -9    1.07    0.16
  -2  -3  -9    0.97    0.13
  -2  -3  -9    0.78    0.14
   2   3   9    0.78    0.12
   2   3   9    1.05    0.15
   2   3   9    0.87    0.13
  -3  -3  -9   14.16    0.64
  -3  -3  -9   14.69    0.52
   3   3   9   15.76    0.56
   3   3   9   14.84    0.68
   3   3   9   15.65    0.58
  -4  -3  -9    4.66    0.29
  -4  -3  -9    3.50    0.26
   4   3   9    4.11    0.25
   4   3   9    4.05    0.32
   4   3   9    4.30    0.34
   6  -4  -9    3.75    0.35
  -6   4   9    2.78    0.34
   5  -4  -9    2.99    0.25
   5  -4  -9    3.61    0.32
   5  -4  -9    2.80    0.25
  -5   4   9    3.34    0.21
  -5   4   9    3.23    0.33
  -5   4   9    3.15    0.21
   4  -4  -9    0.34    0.09
   4  -4  -9    0.35    0.09
   4  -4  -9    0.29    0.12
   4  -4  -9    0.59    0.17
  -4   4   9    0.34    0.11
  -4   4   9    0.18    0.09
  -4   4   9    0.45    0.11
  -4   4   9    0.39    0.14
   3  -4  -9    6.46    0.35
   3  -4  -9    6.73    0.30
   3  -4  -9    6.63    0.34
  -3   4   9    6.51    0.35
  -3   4   9    7.17    0.31
  -3   4   9    7.14    0.38
   2  -4  -9   18.25    0.56
   2  -4  -9   18.28    0.57
   2  -4  -9   18.04    0.62
  -2   4   9   18.39    0.62
  -2   4   9   18.58    0.57
  -2   4   9   17.52    0.56
   1  -4  -9   51.84    1.39
   1  -4  -9   53.64    1.32
   1  -4  -9   54.77    1.33
  -1   4   9   53.16    1.32
  -1   4   9   54.17    1.39
  -1   4   9   53.82    1.33
   0  -4  -9    0.20    0.11
   0  -4  -9    0.22    0.09
   0  -4  -9    0.16    0.10
   0   4   9    0.06    0.09
   0   4   9    0.20    0.09
  -1  -4  -9    6.75    0.34
  -1  -4  -9    6.20    0.31
   1   4   9    6.12    0.28
   1   4   9    6.56    0.33
  -2  -4  -9    6.26    0.33
  -2  -4  -9    7.16    0.37
   2   4   9    6.83    0.34
   2   4   9    6.52    0.33
  -3  -4  -9   11.26    0.47
  -3  -4  -9   12.32    0.50
   3   4   9   12.11    0.47
   3   4   9   12.19    0.50
   3   4   9   11.19    0.53
   5  -5  -9    0.37    0.13
   5  -5  -9    0.40    0.17
   5  -5  -9    0.55    0.10
  -5   5   9    0.57    0.11
  -5   5   9    0.48    0.19
  -5   5   9    0.28    0.14
   4  -5  -9    6.83    0.37
   4  -5  -9    7.44    0.32
  -4   5   9    7.10    0.34
  -4   5   9    7.20    0.33
  -4   5   9    7.19    0.39
  -4   5   9    7.61    0.34
   3  -5  -9   12.06    0.52
   3  -5  -9   14.23    0.56
  -3   5   9   13.53    0.44
  -3   5   9   14.07    0.49
  -3   5   9   13.47    0.47
  -3   5   9   13.60    0.53
   2  -5  -9    7.41    0.35
   2  -5  -9    6.73    0.37
  -2   5   9    6.86    0.33
  -2   5   9    7.24    0.35
  -2   5   9    7.07    0.37
   1  -5  -9    5.16    0.31
   1  -5  -9    5.54    0.30
   1  -5  -9    5.18    0.39
  -1   5   9    5.10    0.29
  -1   5   9    5.59    0.31
   0  -5  -9   26.05    0.80
   0  -5  -9   29.22    0.84
   0   5   9   27.10    0.69
   0   5   9   26.26    0.80
   0   5   9   26.52    0.80
  -1  -5  -9    9.79    0.42
  -1  -5  -9    9.68    0.44
   1   5   9    9.42    0.36
   1   5   9   10.21    0.43
  -2  -5  -9    5.95    0.35
  -2  -5  -9    5.22    0.33
   2   5   9    6.21    0.35
   2   5   9    5.99    0.31
  -3  -5  -9    5.45    0.36
  -3  -5  -9    4.68    0.33
   3   5   9    5.50    0.38
   3   5   9    5.83    0.34
   3   5   9    5.60    0.34
   5  -6  -9    2.30    0.30
   5  -6  -9    1.73    0.23
   5  -6  -9    2.56    0.22
  -5   6   9    2.66    0.24
  -5   6   9    2.79    0.21
  -5   6   9    2.27    0.24
  -5   6   9    3.00    0.26
   4  -6  -9    5.33    0.31
   4  -6  -9    5.34    0.39
   4  -6  -9    4.10    0.50
  -4   6   9    5.32    0.33
  -4   6   9    4.92    0.31
  -4   6   9    4.59    0.26
  -4   6   9    5.59    0.30
   3  -6  -9    8.18    0.38
   3  -6  -9    8.12    0.46
  -3   6   9    7.76    0.37
  -3   6   9    7.94    0.54
   2  -6  -9   13.63    0.57
   2  -6  -9   14.70    0.55
  -2   6   9   14.01    0.74
  -2   6   9   14.49    0.54
   1  -6  -9    0.28    0.14
  -1   6   9    0.05    0.11
  -1   6   9    0.25    0.12
   0  -6  -9    6.31    0.40
   0   6   9    6.12    0.37
  -1  -6  -9    2.04    0.26
   1   6   9    2.14    0.26
  -2  -6  -9    3.07    0.30
   2   6   9    2.81    0.27
   2   6   9    2.83    0.23
   4  -7  -9    4.44    0.37
   4  -7  -9    4.41    0.31
  -4   7   9    4.35    0.30
  -4   7   9    4.46    0.31
   3  -7  -9    3.89    0.36
   3  -7  -9    2.38    0.33
   3  -7  -9    3.25    0.29
  -3   7   9    3.32    0.26
  -3   7   9    3.59    0.29
   2  -7  -9    1.30    0.20
  -2   7   9    1.18    0.18
   1  -7  -9   15.33    0.63
  -1   7   9   14.21    0.59
   0  -7  -9    6.90    0.42
   0   7   9    7.27    0.42
  -1  -7  -9    1.65    0.24
   1   7   9    1.70    0.24
   3  -8  -9    0.34    0.18
   3  -8  -9    0.25    0.13
  -3   8   9    0.16    0.13
   2  -8  -9    3.00    0.31
  -2   8   9    3.00    0.30
   1  -8  -9    7.68    0.46
  -1   8   9    7.39    0.44
   1   7 -10    0.85    0.11
   1   7 -10    0.87    0.19
  -1  -7  10    1.06    0.22
  -1  -7  10    0.68    0.26
   0   7 -10    1.22    0.18
   0   7 -10    1.26    0.12
   0  -7  10    1.28    0.19
   0  -7  10    1.50    0.25
  -1   7 -10    3.46    0.30
   1  -7  10    3.34    0.31
   1  -7  10    3.70    0.26
  -2   7 -10    1.99    0.25
   2  -7  10    1.86    0.24
  -3   7 -10    0.01    0.12
  -3   7 -10    0.18    0.12
  -3   7 -10   -0.40    0.19
   3  -7  10    0.02    0.12
   3  -7  10    0.10    0.10
   2   6 -10    0.97    0.19
   2   6 -10    0.87    0.12
  -2  -6  10    0.87    0.22
  -2  -6  10    0.86    0.21
   1   6 -10    1.62    0.22
   1   6 -10    1.49    0.15
  -1  -6  10    1.51    0.22
  -1  -6  10    1.46    0.21
   0   6 -10    4.12    0.30
   0  -6  10    4.30    0.32
   0  -6  10    4.32    0.30
  -1   6 -10    1.31    0.19
  -1   6 -10    1.25    0.17
   1  -6  10    1.23    0.19
   1  -6  10    1.35    0.19
  -2   6 -10    1.29    0.15
  -2   6 -10    1.27    0.28
  -2   6 -10    1.16    0.18
   2  -6  10    1.35    0.19
  -3   6 -10    1.27    0.18
  -3   6 -10    0.89    0.10
  -3   6 -10    1.33    0.22
  -3   6 -10    1.02    0.18
   3  -6  10    0.97    0.17
   3  -6  10    1.09    0.17
  -4   6 -10    2.10    0.16
  -4   6 -10    2.59    0.25
  -4   6 -10    2.29    0.23
   4  -6  10    2.02    0.27
   4  -6  10    2.37    0.24
   3   5 -10   11.96    0.49
   3   5 -10   12.08    0.45
  -3  -5  10   11.26    0.49
  -3  -5  10   11.83    0.61
  -3  -5  10   12.28    0.52
   2   5 -10    0.23    0.08
   2   5 -10    0.00    0.09
  -2  -5  10    0.25    0.11
  -2  -5  10    0.27    0.14
  -2  -5  10    0.12    0.11
   1   5 -10    1.18    0.18
   1   5 -10    1.10    0.11
  -1  -5  10    0.83    0.16
  -1  -5  10    1.22    0.20
  -1  -5  10    0.92    0.15
   0   5 -10   55.05    1.42
   0   5 -10   58.02    1.44
   0  -5  10   52.70    1.40
   0  -5  10   57.55    1.40
   0  -5  10   56.67    1.43
  -1   5 -10   23.67    0.61
  -1   5 -10   23.99    0.74
  -1   5 -10   23.48    0.72
   1  -5  10   23.74    0.74
   1  -5  10   23.26    0.66
  -2   5 -10    1.59    0.19
  -2   5 -10    1.94    0.21
  -2   5 -10    1.71    0.17
   2  -5  10    1.53    0.20
   2  -5  10    1.50    0.13
  -3   5 -10    9.27    0.45
  -3   5 -10    8.75    0.39
  -3   5 -10    9.12    0.49
   3  -5  10    9.06    0.42
   3  -5  10    8.94    0.43
  -4   5 -10    1.13    0.15
  -4   5 -10    1.14    0.17
   4  -5  10    1.24    0.20
   4  -5  10    1.45    0.18
   4   4 -10    3.35    0.25
   4   4 -10    2.83    0.39
  -4  -4  10    3.18    0.37
  -4  -4  10    2.94    0.26
  -4  -4  10    2.65    0.26
   3   4 -10    1.35    0.17
  -3  -4  10    1.49    0.18
  -3  -4  10    1.28    0.23
  -3  -4  10    1.37    0.19
   2   4 -10    2.89    0.18
   2   4 -10    2.56    0.22
  -2  -4  10    2.70    0.23
  -2  -4  10    2.86    0.25
  -2  -4  10    2.39    0.29
   1   4 -10    0.27    0.10
   1   4 -10    0.36    0.10
   1   4 -10    0.34    0.06
  -1  -4  10    0.12    0.09
  -1  -4  10    0.13    0.11
  -1  -4  10    0.43    0.13
   0   4 -10    3.11    0.22
   0   4 -10    3.27    0.24
   0   4 -10    2.84    0.14
   0  -4  10    3.02    0.24
   0  -4  10    2.70    0.22
   0  -4  10    3.34    0.25
  -1   4 -10    3.62    0.21
  -1   4 -10    3.48    0.24
  -1   4 -10    3.87    0.25
  -1   4 -10    3.59    0.19
   1  -4  10    3.26    0.27
   1  -4  10    3.20    0.24
   1  -4  10    3.28    0.23
  -2   4 -10    2.71    0.16
  -2   4 -10    2.76    0.22
  -2   4 -10    2.82    0.21
  -2   4 -10    2.57    0.21
   2  -4  10    2.63    0.21
   2  -4  10    2.70    0.16
   2  -4  10    2.88    0.22
  -3   4 -10    4.45    0.27
  -3   4 -10    4.59    0.26
  -3   4 -10    4.63    0.30
   3  -4  10    4.39    0.32
   3  -4  10    4.36    0.26
  -4   4 -10    3.15    0.21
  -4   4 -10    3.10    0.25
   4  -4  10    3.08    0.21
   4  -4  10    3.14    0.31
  -5   4 -10    4.09    0.24
  -5   4 -10    3.92    0.24
   5  -4  10    4.62    0.37
   4   3 -10    9.63    0.38
   4   3 -10    9.02    0.40
  -4  -3  10    9.67    0.54
  -4  -3  10    8.85    0.38
  -4  -3  10    9.28    0.41
   3   3 -10    0.03    0.07
   3   3 -10    0.16    0.07
   3   3 -10    0.20    0.14
  -3  -3  10    0.06    0.12
  -3  -3  10    0.05    0.09
  -3  -3  10    0.08    0.09
   2   3 -10   10.34    0.40
   2   3 -10   10.65    0.32
   2   3 -10   10.96    0.35
  -2  -3  10   10.75    0.48
  -2  -3  10   10.57    0.41
  -2  -3  10   11.10    0.43
   1   3 -10   97.22    2.25
   1   3 -10   97.28    2.29
  -1  -3  10   97.38    2.25
  -1  -3  10  101.18    2.30
  -1  -3  10   99.43    2.26
   0   3 -10   29.30    0.81
   0   3 -10   30.00    0.81
   0  -3  10   29.88    0.82
   0  -3  10   28.71    0.81
   0  -3  10   30.14    0.82
  -1   3 -10    0.48    0.12
  -1   3 -10    0.46    0.10
  -1   3 -10    0.45    0.11
   1  -3  10    0.50    0.12
   1  -3  10    0.49    0.13
   1  -3  10    0.52    0.10
  -2   3 -10   21.02    0.59
  -2   3 -10   20.70    0.64
  -2   3 -10   21.54    0.63
  -2   3 -10   22.01    0.63
   2  -3  10   21.09    0.63
   2  -3  10   20.30    0.61
   2  -3  10   20.66    0.58
  -3   3 -10    2.45    0.20
  -3   3 -10    2.74    0.21
  -3   3 -10    2.60    0.18
  -3   3 -10    2.58    0.23
   3  -3  10    2.46    0.25
   3  -3  10    2.33    0.20
   3  -3  10    2.31    0.18
  -4   3 -10    6.44    0.30
  -4   3 -10    7.46    0.32
  -4   3 -10    7.12    0.31
   4  -3  10    7.74    0.43
   4  -3  10    7.15    0.29
   4  -3  10    6.36    0.32
  -5   3 -10    0.05    0.10
  -5   3 -10    0.27    0.10
  -5   3 -10    0.40    0.09
   5  -3  10    0.16    0.11
   5   2 -10    2.14    0.18
  -5  -2  10    2.03    0.33
  -5  -2  10    1.76    0.18
  -5  -2  10    1.63    0.20
   4   2 -10    7.73    0.34
   4   2 -10    7.77    0.36
   4   2 -10    7.47    0.33
  -4  -2  10    7.85    0.49
  -4  -2  10    7.64    0.34
  -4  -2  10    7.38    0.33
   3   2 -10    0.42    0.10
   3   2 -10    0.63    0.12
  -3  -2  10    0.37    0.11
  -3  -2  10    0.58    0.16
  -3  -2  10    0.37    0.13
   2   2 -10    5.46    0.31
   2   2 -10    5.28    0.26
   2   2 -10    5.76    0.24
   2   2 -10    5.20    0.27
  -2  -2  10    5.29    0.28
  -2  -2  10    4.87    0.26
  -2  -2  10    5.58    0.34
   1   2 -10   21.26    0.62
   1   2 -10   21.98    0.62
   1   2 -10   20.93    0.65
  -1  -2  10   20.93    0.62
  -1  -2  10   21.43    0.63
  -1  -2  10   21.58    0.66
   0   2 -10    7.40    0.32
   0   2 -10    7.31    0.31
   0   2 -10    7.50    0.31
   0  -2  10    7.10    0.31
   0  -2  10    7.53    0.32
   0  -2  10    8.16    0.48
  -1   2 -10   14.21    0.47
  -1   2 -10   14.01    0.65
  -1   2 -10   14.11    0.47
   1  -2  10   15.20    0.47
   1  -2  10   13.64    0.46
   1  -2  10   14.68    0.48
  -2   2 -10   10.51    0.39
  -2   2 -10   10.41    0.55
  -2   2 -10   10.26    0.38
   2  -2  10   10.18    0.37
   2  -2  10   10.44    0.30
   2  -2  10   10.64    0.38
  -3   2 -10    0.19    0.08
  -3   2 -10    0.33    0.09
  -3   2 -10    0.60    0.12
  -3   2 -10    0.27    0.12
   3  -2  10    0.18    0.10
   3  -2  10    0.42    0.15
   3  -2  10    0.20    0.10
   3  -2  10    0.18    0.10
  -4   2 -10    2.17    0.18
  -4   2 -10    2.45    0.19
  -4   2 -10    2.19    0.21
   4  -2  10    2.77    0.27
   4  -2  10    2.17    0.17
   4  -2  10    2.38    0.21
   4  -2  10    2.51    0.17
  -5   2 -10    6.10    0.33
  -5   2 -10    5.91    0.27
  -5   2 -10    5.56    0.42
   5  -2  10    6.31    0.38
   5  -2  10    6.38    0.42
   5   1 -10    1.64    0.21
   5   1 -10    1.42    0.17
  -5  -1  10    1.64    0.19
  -5  -1  10    1.51    0.16
  -5  -1  10    1.57    0.27
   4   1 -10    2.32    0.18
   4   1 -10    2.02    0.17
   4   1 -10    2.35    0.21
  -4  -1  10    2.50    0.30
  -4  -1  10    2.20    0.18
  -4  -1  10    2.13    0.20
  -4  -1  10    2.25    0.20
   3   1 -10   28.55    0.77
   3   1 -10   29.37    0.80
   3   1 -10   28.90    0.78
  -3  -1  10   30.62    0.80
  -3  -1  10   29.41    0.91
  -3  -1  10   29.17    0.78
  -3  -1  10   29.01    0.78
   2   1 -10    2.71    0.19
   2   1 -10    2.65    0.19
   2   1 -10    2.74    0.22
  -2  -1  10    2.53    0.20
  -2  -1  10    2.72    0.20
  -2  -1  10    2.85    0.16
  -2  -1  10    3.01    0.26
   1   1 -10   16.01    0.50
   1   1 -10   16.28    0.51
   1   1 -10   16.61    0.54
  -1  -1  10   15.96    0.51
  -1  -1  10   16.32    0.51
  -1  -1  10   16.91    0.42
  -1  -1  10   17.37    0.56
   0   1 -10   25.60    0.73
   0   1 -10   25.07    0.70
   0   1 -10   25.85    0.71
   0  -1  10   25.03    0.70
   0  -1  10   25.66    0.71
   0  -1  10   27.19    0.83
  -1   1 -10   53.44    1.27
  -1   1 -10   53.59    1.29
  -1   1 -10   52.23    1.28
   1  -1  10   52.75    1.26
   1  -1  10   51.43    1.26
   1  -1  10   51.80    1.36
   1  -1  10   49.95    1.14
  -2   1 -10   37.43    0.94
  -2   1 -10   37.43    0.94
  -2   1 -10   35.95    0.96
   2  -1  10   36.83    0.93
   2  -1  10   34.85    0.93
   2  -1  10   35.79    0.87
  -3   1 -10   22.93    0.64
  -3   1 -10   21.70    0.64
  -3   1 -10   21.69    0.68
   3  -1  10   21.97    0.63
   3  -1  10   22.03    0.63
   3  -1  10   21.31    0.63
   3  -1  10   22.61    0.75
  -4   1 -10    0.63    0.13
  -4   1 -10    0.59    0.11
  -4   1 -10    0.51    0.12
   4  -1  10    0.64    0.10
   4  -1  10    0.62    0.11
   4  -1  10    0.40    0.14
   4  -1  10    0.61    0.13
  -5   1 -10   13.97    0.45
  -5   1 -10   12.15    0.43
   5  -1  10   13.81    0.63
   5  -1  10   13.03    0.54
   5   0 -10   11.70    0.50
  -5   0  10   11.49    0.40
  -5   0  10   10.99    0.38
  -5   0  10   11.64    0.58
   4   0 -10    2.96    0.19
   4   0 -10    2.57    0.17
   4   0 -10    2.74    0.24
  -4   0  10    2.91    0.30
  -4   0  10    2.87    0.27
  -4   0  10    2.79    0.21
  -4   0  10    2.66    0.19
   3   0 -10   26.29    0.75
   3   0 -10   24.82    0.78
   3   0 -10   25.56    0.69
   3   0 -10   25.10    0.69
  -3   0  10   26.89    0.72
  -3   0  10   25.17    0.71
  -3   0  10   26.39    0.82
  -3   0  10   26.27    0.71
   2   0 -10   12.33    0.47
   2   0 -10   13.28    0.43
   2   0 -10   13.48    0.43
  -2   0  10   12.25    0.42
  -2   0  10   13.37    0.40
  -2   0  10   12.98    0.43
  -2   0  10   13.21    0.50
   1   0 -10    1.77    0.19
   1   0 -10    1.47    0.15
   1   0 -10    1.61    0.16
  -1   0  10    1.48    0.15
  -1   0  10    1.88    0.21
  -1   0  10    1.52    0.16
   0   0 -10   34.85    0.89
   0   0 -10   34.08    0.93
   0   0 -10   34.72    0.89
   0   0  10   35.13    0.93
   0   0  10   35.11    1.01
  -1   0 -10   28.34    0.77
  -1   0 -10   28.20    0.80
  -1   0 -10   28.01    0.76
   1   0  10   28.28    0.75
   1   0  10   27.18    0.79
   1   0  10   27.07    0.74
  -2   0 -10    7.11    0.35
  -2   0 -10    8.18    0.33
  -2   0 -10    7.82    0.32
   2   0  10    6.98    0.33
   2   0  10    7.54    0.31
   2   0  10    8.02    0.32
  -3   0 -10    2.22    0.19
  -3   0 -10    2.36    0.23
  -3   0 -10    2.12    0.19
   3   0  10    1.91    0.23
   3   0  10    2.23    0.18
   3   0  10    2.13    0.19
  -4   0 -10    6.24    0.30
  -4   0 -10    6.60    0.36
  -4   0 -10    6.57    0.31
   4   0  10    6.41    0.27
   4   0  10    6.67    0.41
   4   0  10    6.38    0.34
   5   0  10    1.66    0.23
   6  -1 -10    0.23    0.15
  -6   1  10    0.00    0.16
   5  -1 -10    8.89    0.45
  -5   1  10    8.31    0.32
  -5   1  10    8.53    0.31
  -5   1  10    9.57    0.60
   4  -1 -10   33.29    0.85
   4  -1 -10   33.83    1.01
   4  -1 -10   35.07    1.00
   4  -1 -10   36.25    0.87
  -4   1  10   35.74    1.04
  -4   1  10   33.06    0.96
  -4   1  10   35.59    0.89
  -4   1  10   34.68    0.89
   3  -1 -10   14.71    0.52
   3  -1 -10   13.48    0.43
   3  -1 -10   13.36    0.52
   3  -1 -10   13.65    0.44
  -3   1  10   13.78    0.46
  -3   1  10   15.08    0.56
  -3   1  10   13.95    0.46
   2  -1 -10   24.47    0.67
   2  -1 -10   24.11    0.74
   2  -1 -10   24.71    0.67
  -2   1  10   24.29    0.75
  -2   1  10   24.13    0.67
  -2   1  10   24.69    0.68
   1  -1 -10   55.59    1.33
   1  -1 -10   56.20    1.39
   1  -1 -10   56.27    1.33
  -1   1  10   55.32    1.39
  -1   1  10   54.86    1.33
  -1   1  10   54.35    1.33
   0  -1 -10   62.15    1.49
   0  -1 -10   63.64    1.55
   0  -1 -10   63.96    1.50
   0   1  10   63.99    1.50
   0   1  10   64.27    1.55
   0   1  10   62.00    1.49
  -1  -1 -10   27.06    0.75
  -1  -1 -10   27.44    0.74
  -1  -1 -10   27.07    0.79
   1   1  10   26.31    0.74
   1   1  10   26.93    0.74
  -2  -1 -10   19.88    0.67
  -2  -1 -10   21.66    0.63
  -2  -1 -10   20.69    0.63
   2   1  10   21.81    0.68
   2   1  10   21.71    0.62
   2   1  10   20.12    0.61
  -3  -1 -10    7.34    0.38
  -3  -1 -10    7.87    0.33
  -3  -1 -10    7.74    0.34
   3   1  10    7.60    0.32
   3   1  10    7.80    0.40
   3   1  10    7.18    0.32
   3   1  10    7.49    0.35
  -4  -1 -10    9.22    0.41
  -4  -1 -10    9.29    0.38
   4   1  10    9.54    0.48
   4   1  10    9.12    0.34
   4   1  10    8.19    0.52
   6  -2 -10    5.15    0.39
  -6   2  10    5.21    0.43
   5  -2 -10    5.09    0.39
  -5   2  10    5.66    0.25
  -5   2  10    5.50    0.40
  -5   2  10    5.22    0.24
   4  -2 -10    4.55    0.31
   4  -2 -10    5.16    0.23
   4  -2 -10    5.44    0.24
   4  -2 -10    5.54    0.34
  -4   2  10    5.29    0.36
  -4   2  10    4.43    0.28
  -4   2  10    5.07    0.25
  -4   2  10    4.58    0.30
   3  -2 -10    2.20    0.17
   3  -2 -10    2.35    0.23
   3  -2 -10    2.29    0.17
  -3   2  10    2.24    0.19
  -3   2  10    2.44    0.19
  -3   2  10    2.52    0.27
  -3   2  10    2.28    0.19
   2  -2 -10    8.96    0.34
   2  -2 -10    8.34    0.33
   2  -2 -10    7.82    0.38
  -2   2  10    8.76    0.41
  -2   2  10    8.17    0.39
  -2   2  10    8.46    0.34
   1  -2 -10   37.14    1.03
   1  -2 -10   37.98    0.97
   1  -2 -10   38.82    0.98
  -1   2  10   38.99    1.04
  -1   2  10   37.14    0.97
  -1   2  10   37.96    0.97
   0  -2 -10   49.87    1.31
   0  -2 -10   51.25    1.25
   0   2  10   52.10    1.26
   0   2  10   50.85    1.31
   0   2  10   50.31    1.24
  -1  -2 -10    0.14    0.10
  -1  -2 -10    0.02    0.08
  -1  -2 -10    0.08    0.08
   1   2  10    0.00    0.06
   1   2  10    0.06    0.09
  -2  -2 -10    5.08    0.28
  -2  -2 -10    5.38    0.32
  -2  -2 -10    5.42    0.28
   2   2  10    4.93    0.26
   2   2  10    6.01    0.32
  -3  -2 -10    4.54    0.27
  -3  -2 -10    4.51    0.28
   3   2  10    4.73    0.26
   3   2  10    5.07    0.33
   3   2  10    4.55    0.30
  -4  -2 -10    4.75    0.29
  -4  -2 -10    4.81    0.28
   4   2  10    4.16    0.32
   4   2  10    4.87    0.27
   4   2  10    5.00    0.36
   6  -3 -10    6.83    0.44
  -6   3  10    6.90    0.47
   5  -3 -10   18.06    0.70
  -5   3  10   18.16    0.53
  -5   3  10   17.57    0.70
   4  -3 -10    4.15    0.31
   4  -3 -10    2.67    0.41
   4  -3 -10    3.78    0.21
  -4   3  10    3.35    0.21
  -4   3  10    3.29    0.26
  -4   3  10    3.72    0.33
  -4   3  10    3.37    0.22
   3  -3 -10   14.23    0.55
   3  -3 -10   15.28    0.48
   3  -3 -10   14.65    0.48
  -3   3  10   14.60    0.48
  -3   3  10   14.47    0.48
  -3   3  10   14.83    0.58
   2  -3 -10   15.25    0.57
   2  -3 -10   16.54    0.53
   2  -3 -10   16.27    0.51
  -2   3  10   16.51    0.59
  -2   3  10   15.88    0.51
  -2   3  10   16.65    0.52
   1  -3 -10   21.98    0.65
   1  -3 -10   22.42    0.72
   1  -3 -10   21.64    0.64
  -1   3  10   23.22    0.66
  -1   3  10   21.59    0.71
  -1   3  10   21.53    0.64
   0  -3 -10    2.04    0.20
   0  -3 -10    2.21    0.23
   0  -3 -10    2.03    0.19
   0   3  10    2.11    0.20
   0   3  10    1.90    0.18
  -1  -3 -10   45.17    1.17
  -1  -3 -10   45.59    1.27
  -1  -3 -10   45.43    1.17
   1   3  10   45.94    1.17
  -2  -3 -10   28.82    0.84
  -2  -3 -10   29.98    0.85
   2   3  10   29.32    0.84
   2   3  10   29.00    0.85
  -3  -3 -10    1.97    0.22
  -3  -3 -10    1.50    0.19
   3   3  10    1.93    0.22
   3   3  10    1.88    0.20
   3   3  10    1.89    0.23
   5  -4 -10    0.04    0.07
   5  -4 -10    0.12    0.07
   5  -4 -10    0.08    0.13
  -5   4  10    0.05    0.08
  -5   4  10    0.10    0.14
  -5   4  10    0.16    0.09
   4  -4 -10    3.56    0.22
   4  -4 -10    3.55    0.32
   4  -4 -10    3.57    0.22
   4  -4 -10    3.40    0.33
  -4   4  10    3.99    0.24
  -4   4  10    3.69    0.24
  -4   4  10    4.00    0.32
  -4   4  10    3.60    0.26
   3  -4 -10   17.15    0.63
   3  -4 -10   19.84    0.58
   3  -4 -10   17.62    0.56
  -3   4  10   17.99    0.57
  -3   4  10   18.40    0.65
  -3   4  10   16.93    0.55
   2  -4 -10   20.10    0.68
   2  -4 -10   20.23    0.62
  -2   4  10   20.11    0.62
  -2   4  10   19.35    0.61
  -2   4  10   19.97    0.68
   1  -4 -10   13.65    0.48
   1  -4 -10   14.46    0.50
   1  -4 -10   13.32    0.54
  -1   4  10   13.93    0.54
  -1   4  10   13.33    0.48
  -1   4  10   13.35    0.49
   0  -4 -10    3.18    0.28
   0  -4 -10    3.27    0.23
   0  -4 -10    3.27    0.24
   0   4  10    3.47    0.30
   0   4  10    3.09    0.24
  -1  -4 -10    7.30    0.35
  -1  -4 -10    7.54    0.37
   1   4  10    7.78    0.33
   1   4  10    8.01    0.37
  -2  -4 -10    6.11    0.35
  -2  -4 -10    6.16    0.33
   2   4  10    6.27    0.34
   2   4  10    6.10    0.33
  -3  -4 -10    3.22    0.26
  -3  -4 -10    3.89    0.29
   3   4  10    3.57    0.29
   3   4  10    3.45    0.30
   3   4  10    3.31    0.27
   5  -5 -10    0.51    0.18
   5  -5 -10    0.41    0.11
  -5   5  10    0.46    0.12
  -5   5  10    0.55    0.16
  -5   5  10    0.43    0.13
   4  -5 -10    4.72    0.27
   4  -5 -10    4.05    0.32
   4  -5 -10    4.66    0.37
  -4   5  10    4.42    0.27
  -4   5  10    4.49    0.33
  -4   5  10    4.39    0.25
  -4   5  10    4.30    0.29
   3  -5 -10    6.10    0.32
  -3   5  10    6.14    0.37
  -3   5  10    6.57    0.33
  -3   5  10    5.77    0.30
  -3   5  10    5.68    0.28
   2  -5 -10    6.70    0.45
   2  -5 -10    7.12    0.35
  -2   5  10    7.15    0.34
  -2   5  10    7.21    0.38
  -2   5  10    6.71    0.35
   1  -5 -10    1.94    0.21
   1  -5 -10    1.60    0.19
   1  -5 -10    1.60    0.23
  -1   5  10    1.62    0.21
  -1   5  10    1.70    0.19
   0  -5 -10   48.78    1.29
   0  -5 -10   46.01    1.26
   0   5  10   47.96    1.15
   0   5  10   49.07    1.28
  -1  -5 -10   17.78    0.63
  -1  -5 -10   18.63    0.66
   1   5  10   19.20    0.65
   1   5  10   18.22    0.57
  -2  -5 -10    0.97    0.18
  -2  -5 -10    0.95    0.20
   2   5  10    0.89    0.14
   2   5  10    0.83    0.16
   5  -6 -10    0.99    0.23
   5  -6 -10    0.76    0.14
  -5   6  10    0.93    0.18
  -5   6  10    0.87    0.14
  -5   6  10    1.07    0.17
   4  -6 -10    9.40    0.51
   4  -6 -10    7.30    0.44
   4  -6 -10    8.85    0.40
  -4   6  10    8.58    0.36
  -4   6  10    8.04    0.39
  -4   6  10    9.19    0.41
  -4   6  10    9.00    0.44
   3  -6 -10    3.37    0.27
   3  -6 -10    2.19    0.28
  -3   6  10    3.08    0.26
  -3   6  10    3.15    0.28
  -3   6  10    3.02    0.18
  -3   6  10    3.36    0.26
   2  -6 -10    0.97    0.18
  -2   6  10    1.05    0.19
  -2   6  10    1.08    0.16
   1  -6 -10    6.24    0.36
  -1   6  10    6.24    0.39
   0  -6 -10   11.82    0.52
   0   6  10   11.51    0.50
  -1  -6 -10    7.57    0.41
   1   6  10    6.96    0.30
   1   6  10    7.14    0.40
   4  -7 -10    2.31    0.32
   4  -7 -10    2.06    0.24
  -4   7  10    2.15    0.38
  -4   7  10    2.12    0.25
   3  -7 -10    3.67    0.37
   3  -7 -10    3.90    0.30
  -3   7  10    3.78    0.32
  -3   7  10    4.59    0.32
   2  -7 -10    1.69    0.22
  -2   7  10    1.65    0.22
   1  -7 -10    7.69    0.44
  -1   7  10    7.46    0.42
   0  -7 -10    3.11    0.31
   0   7  10    3.11    0.30
   1   7 -11    0.02    0.07
   1   7 -11    0.38    0.15
  -1  -7  11    0.17    0.15
  -1  -7  11    0.28    0.15
   0   7 -11   -0.06    0.11
   0  -7  11   -0.04    0.12
   0  -7  11    0.07    0.13
  -1   7 -11    3.80    0.32
   1  -7  11    3.43    0.26
   1  -7  11    3.55    0.33
  -2   7 -11    7.57    0.43
   2  -7  11    8.04    0.44
  -3   7 -11   -0.16    0.14
  -3   7 -11    0.63    0.17
   3  -7  11    0.33    0.23
   3  -7  11    0.11    0.15
   2   6 -11    0.76    0.16
   2   6 -11    0.76    0.12
  -2  -6  11    0.57    0.19
  -2  -6  11    0.85    0.18
   1   6 -11    6.52    0.25
   1   6 -11    6.51    0.38
  -1  -6  11    7.01    0.42
  -1  -6  11    6.85    0.40
   0   6 -11    0.03    0.20
   0  -6  11    0.04    0.12
   0  -6  11    0.04    0.11
  -1   6 -11    2.64    0.26
   1  -6  11    3.32    0.29
   1  -6  11    2.46    0.22
  -2   6 -11    2.67    0.26
  -2   6 -11    2.42    0.23
  -2   6 -11    2.76    0.20
   2  -6  11    2.56    0.26
  -3   6 -11    0.09    0.11
  -3   6 -11    0.04    0.11
   3  -6  11    0.11    0.11
   3  -6  11    0.10    0.12
  -4   6 -11    0.35    0.14
  -4   6 -11    0.22    0.12
   4  -6  11    0.54    0.20
   4  -6  11    0.45    0.16
   3   5 -11    4.75    0.32
   3   5 -11    4.57    0.27
  -3  -5  11    4.38    0.31
  -3  -5  11    5.10    0.43
  -3  -5  11    4.96    0.35
   2   5 -11    0.25    0.12
   2   5 -11    0.31    0.08
  -2  -5  11    0.40    0.15
  -2  -5  11    0.37    0.15
  -2  -5  11    0.24    0.17
   1   5 -11    1.75    0.22
   1   5 -11    1.56    0.12
  -1  -5  11    1.98    0.25
  -1  -5  11    1.34    0.18
  -1  -5  11    1.79    0.25
   0   5 -11    4.09    0.29
   0   5 -11    3.87    0.27
   0  -5  11    3.74    0.29
   0  -5  11    3.99    0.31
   0  -5  11    3.19    0.30
  -1   5 -11   16.58    0.48
  -1   5 -11   16.46    0.59
  -1   5 -11   18.72    0.83
   1  -5  11   16.55    0.59
   1  -5  11   16.67    0.54
  -2   5 -11    1.44    0.17
  -2   5 -11    1.54    0.19
   2  -5  11    1.54    0.20
   2  -5  11    1.48    0.13
  -3   5 -11    2.06    0.21
  -3   5 -11    2.41    0.24
  -3   5 -11    2.25    0.22
   3  -5  11    2.31    0.23
   3  -5  11    2.21    0.26
  -4   5 -11    4.92    0.29
  -4   5 -11    4.96    0.31
   4  -5  11    4.43    0.28
   4  -5  11    4.69    0.36
   4   4 -11    0.48    0.12
   4   4 -11    0.27    0.20
  -4  -4  11    0.56    0.16
  -4  -4  11    0.38    0.14
  -4  -4  11    0.22    0.16
   3   4 -11    7.18    0.32
  -3  -4  11    6.94    0.45
  -3  -4  11    7.24    0.38
  -3  -4  11    6.44    0.35
   2   4 -11    7.45    0.36
  -2  -4  11    8.21    0.45
  -2  -4  11    7.29    0.38
  -2  -4  11    7.36    0.36
   1   4 -11    4.53    0.28
   1   4 -11    4.34    0.27
  -1  -4  11    4.76    0.32
  -1  -4  11    4.50    0.28
  -1  -4  11    4.84    0.30
   0   4 -11    9.85    0.41
   0  -4  11   10.81    0.43
   0  -4  11   10.19    0.43
   0  -4  11    9.89    0.55
  -1   4 -11    8.92    0.35
  -1   4 -11    9.23    0.39
  -1   4 -11    9.27    0.34
   1  -4  11    9.38    0.40
   1  -4  11    9.14    0.53
  -2   4 -11    6.11    0.30
  -2   4 -11    5.91    0.31
  -2   4 -11    6.01    0.31
  -2   4 -11    5.82    0.25
   2  -4  11    5.94    0.32
   2  -4  11    5.75    0.25
  -3   4 -11    2.19    0.22
  -3   4 -11    1.85    0.14
  -3   4 -11    2.25    0.22
  -3   4 -11    2.22    0.20
   3  -4  11    1.92    0.21
   3  -4  11    2.01    0.25
  -4   4 -11    3.85    0.26
  -4   4 -11    3.88    0.28
   4  -4  11    3.84    0.25
   4  -4  11    4.15    0.33
   4   3 -11    1.15    0.17
   4   3 -11    0.91    0.16
  -4  -3  11    0.88    0.22
  -4  -3  11    0.79    0.16
  -4  -3  11    1.11    0.17
   3   3 -11    5.21    0.26
   3   3 -11    5.19    0.23
   3   3 -11    5.30    0.30
  -3  -3  11    5.03    0.39
  -3  -3  11    5.14    0.31
  -3  -3  11    4.88    0.28
   2   3 -11   20.58    0.64
   2   3 -11   20.15    0.54
  -2  -3  11   20.47    0.65
  -2  -3  11   20.44    0.71
  -2  -3  11   20.60    0.64
   1   3 -11   13.70    0.49
   1   3 -11   13.79    0.49
   1   3 -11   13.46    0.50
  -1  -3  11   14.64    0.54
  -1  -3  11   14.50    0.51
  -1  -3  11   13.07    0.48
   0   3 -11   10.54    0.41
   0   3 -11   10.45    0.41
   0   3 -11   10.21    0.41
   0  -3  11   10.75    0.42
   0  -3  11   10.84    0.43
  -1   3 -11    4.67    0.27
  -1   3 -11    4.24    0.24
  -1   3 -11    4.49    0.25
   1  -3  11    4.35    0.30
   1  -3  11    4.18    0.26
   1  -3  11    4.25    0.25
  -2   3 -11    3.08    0.22
  -2   3 -11    3.04    0.23
  -2   3 -11    3.12    0.25
   2  -3  11    2.63    0.21
   2  -3  11    3.07    0.20
   2  -3  11    3.29    0.28
  -3   3 -11   33.89    1.07
  -3   3 -11   33.17    1.00
  -3   3 -11   34.51    0.93
  -3   3 -11   36.07    0.95
   3  -3  11   35.29    0.93
   3  -3  11   35.75    1.05
  -4   3 -11    9.47    0.37
  -4   3 -11    8.71    0.35
  -4   3 -11   10.34    0.57
   4  -3  11    9.77    0.50
   4  -3  11    9.33    0.36
   5   2 -11    1.28    0.16
   5   2 -11    1.54    0.20
  -5  -2  11    0.91    0.15
  -5  -2  11    1.60    0.19
  -5  -2  11    1.38    0.28
   4   2 -11   11.55    0.42
   4   2 -11   11.98    0.43
  -4  -2  11   11.59    0.55
  -4  -2  11   10.85    0.43
  -4  -2  11   11.30    0.57
   3   2 -11   11.19    0.42
   3   2 -11   12.28    0.42
   3   2 -11   12.42    0.45
  -3  -2  11   12.63    0.55
  -3  -2  11   12.63    0.45
  -3  -2  11   12.84    0.46
   2   2 -11   38.02    0.99
   2   2 -11   37.02    0.98
   2   2 -11   36.71    1.05
  -2  -2  11   37.83    1.00
  -2  -2  11   37.78    0.99
  -2  -2  11   38.74    1.08
   1   2 -11   13.97    0.52
   1   2 -11   14.29    0.48
   1   2 -11   14.98    0.49
  -1  -2  11   14.27    0.49
  -1  -2  11   14.12    0.49
  -1  -2  11   15.12    0.54
   0   2 -11   20.09    0.61
   0   2 -11   20.07    0.61
   0   2 -11   20.33    0.63
   0  -2  11   20.55    0.64
   0  -2  11   20.07    0.61
   0  -2  11   19.42    0.61
  -1   2 -11    8.68    0.37
  -1   2 -11    9.66    0.38
  -1   2 -11   10.03    0.39
   1  -2  11   10.15    0.40
   1  -2  11    9.62    0.38
   1  -2  11    9.44    0.37
  -2   2 -11    3.93    0.25
  -2   2 -11    4.06    0.24
  -2   2 -11    3.73    0.24
   2  -2  11    3.74    0.23
   2  -2  11    4.03    0.25
   2  -2  11    3.91    0.16
  -3   2 -11    9.70    0.38
  -3   2 -11    9.99    0.38
  -3   2 -11    9.19    0.38
   3  -2  11    9.51    0.46
   3  -2  11    9.20    0.36
   3  -2  11    9.95    0.38
  -4   2 -11    0.73    0.13
  -4   2 -11    0.69    0.14
  -4   2 -11    0.84    0.14
   4  -2  11    0.99    0.13
   4  -2  11    0.79    0.13
   4  -2  11    0.91    0.18
   5  -2  11   -0.04    0.21
   5   1 -11    0.16    0.08
   5   1 -11    0.18    0.11
  -5  -1  11    0.05    0.08
  -5  -1  11    0.10    0.17
  -5  -1  11   -0.13    0.08
   4   1 -11   15.10    0.49
   4   1 -11   14.97    0.53
  -4  -1  11   14.91    0.50
  -4  -1  11   15.77    0.68
  -4  -1  11   15.37    0.51
  -4  -1  11   14.23    0.52
   3   1 -11   43.31    1.08
   3   1 -11   41.67    1.06
   3   1 -11   40.23    1.25
  -3  -1  11   41.79    1.05
  -3  -1  11   41.35    1.07
  -3  -1  11   41.27    1.18
  -3  -1  11   41.74    1.31
   2   1 -11   44.64    1.19
   2   1 -11   44.86    1.12
   2   1 -11   43.98    1.11
  -2  -1  11   43.22    1.05
  -2  -1  11   45.45    1.14
  -2  -1  11   45.60    1.21
  -2  -1  11   45.28    1.13
   1   1 -11   18.41    0.56
   1   1 -11   17.56    0.59
   1   1 -11   17.42    0.55
  -1  -1  11   18.12    0.45
  -1  -1  11   18.25    0.56
  -1  -1  11   18.07    0.60
  -1  -1  11   17.50    0.55
   0   1 -11   16.83    0.56
   0   1 -11   16.83    0.53
   0   1 -11   16.10    0.52
   0  -1  11   17.36    0.57
   0  -1  11   16.57    0.53
   0  -1  11   16.07    0.52
  -1   1 -11   14.04    0.50
  -1   1 -11   14.89    0.48
  -1   1 -11   14.25    0.47
   1  -1  11   14.37    0.49
   1  -1  11   13.42    0.46
   1  -1  11   13.68    0.36
   1  -1  11   14.08    0.54
  -2   1 -11   25.84    0.72
  -2   1 -11   24.68    0.72
  -2   1 -11   24.66    0.74
   2  -1  11   25.68    0.65
   2  -1  11   26.09    0.72
   2  -1  11   24.84    0.71
  -3   1 -11   13.74    0.51
  -3   1 -11   14.15    0.48
  -3   1 -11   14.05    0.48
   3  -1  11   13.69    0.46
   3  -1  11   14.13    0.45
   3  -1  11   13.05    0.46
   3  -1  11   14.11    0.57
  -4   1 -11    0.32    0.21
  -4   1 -11    0.15    0.09
  -4   1 -11   -0.05    0.09
   4  -1  11    0.23    0.11
   4  -1  11    0.20    0.08
   4  -1  11    0.09    0.09
   5   0 -11    4.87    0.32
   5   0 -11    4.34    0.21
  -5   0  11    4.36    0.24
  -5   0  11    4.52    0.39
  -5   0  11    5.14    0.27
   4   0 -11   13.01    0.43
   4   0 -11   13.10    0.43
   4   0 -11   13.49    0.51
  -4   0  11   12.80    0.49
  -4   0  11   13.16    0.45
  -4   0  11   13.87    0.47
  -4   0  11   14.16    0.60
   3   0 -11   17.64    0.53
   3   0 -11   18.30    0.59
   3   0 -11   15.09    0.82
   3   0 -11   17.83    0.54
  -3   0  11   18.13    0.56
  -3   0  11   17.35    0.54
  -3   0  11   17.70    0.65
  -3   0  11   17.63    0.55
   2   0 -11    8.81    0.35
   2   0 -11    9.19    0.41
   2   0 -11    9.41    0.36
  -2   0  11    9.20    0.43
  -2   0  11    8.71    0.40
  -2   0  11    9.47    0.37
  -2   0  11    9.24    0.36
   1   0 -11   45.46    1.11
   1   0 -11   42.72    1.16
   1   0 -11   44.94    1.12
  -1   0  11   43.84    1.11
  -1   0  11   44.54    1.17
  -1   0  11   45.22    1.12
   0   0 -11    4.84    0.25
   0   0 -11    5.06    0.26
   0   0 -11    5.34    0.30
   0   0  11    5.02    0.29
   0   0  11    5.14    0.27
   0   0  11    4.87    0.25
  -1   0 -11   16.63    0.52
  -1   0 -11   16.15    0.56
  -1   0 -11   15.91    0.52
   1   0  11   16.07    0.51
   1   0  11   17.18    0.60
   1   0  11   16.09    0.56
  -2   0 -11   56.26    1.37
  -2   0 -11   56.93    1.38
  -2   0 -11   55.67    1.43
   2   0  11   55.55    1.37
   2   0  11   56.56    1.33
   2   0  11   55.77    1.36
  -3   0 -11    6.93    0.37
  -3   0 -11    6.96    0.38
  -3   0 -11    7.40    0.33
   3   0  11    7.39    0.32
   3   0  11    6.99    0.32
   3   0  11    7.40    0.40
  -4   0 -11    1.00    0.15
  -4   0 -11    0.99    0.16
   4   0  11    0.89    0.13
   4   0  11    0.76    0.14
   4   0  11    1.09    0.22
   5  -1 -11   14.48    0.82
   5  -1 -11   13.42    0.41
  -5   1  11   14.34    0.46
  -5   1  11   15.27    0.66
  -5   1  11   14.62    0.47
   4  -1 -11   28.67    0.87
   4  -1 -11   28.02    0.75
   4  -1 -11   28.62    0.80
  -4   1  11   29.85    0.93
  -4   1  11   27.51    0.82
  -4   1  11   28.37    0.77
  -4   1  11   27.63    0.77
   3  -1 -11    9.32    0.43
   3  -1 -11    9.21    0.35
   3  -1 -11    8.91    0.35
  -3   1  11    8.94    0.36
  -3   1  11    9.77    0.37
  -3   1  11    9.47    0.46
   2  -1 -11   22.36    0.64
   2  -1 -11   21.37    0.63
   2  -1 -11   21.07    0.70
  -2   1  11   22.21    0.72
  -2   1  11   21.83    0.64
  -2   1  11   21.94    0.64
   1  -1 -11   27.11    0.81
   1  -1 -11   27.61    0.75
   1  -1 -11   28.31    0.76
  -1   1  11   26.23    0.75
  -1   1  11   26.26    0.75
  -1   1  11   27.52    0.82
   0  -1 -11   11.36    0.42
   0  -1 -11   11.92    0.47
   0  -1 -11   11.60    0.42
   0   1  11   11.37    0.42
   0   1  11   12.50    0.47
   0   1  11   11.32    0.42
  -1  -1 -11   21.74    0.71
  -1  -1 -11   23.07    0.67
  -1  -1 -11   22.52    0.66
   1   1  11   21.89    0.65
   1   1  11   21.07    0.64
  -2  -1 -11   28.79    0.80
  -2  -1 -11   28.16    0.86
  -2  -1 -11   28.96    0.80
   2   1  11   28.53    0.81
   2   1  11   27.05    0.78
  -3  -1 -11    8.52    0.37
  -3  -1 -11    9.39    0.39
  -3  -1 -11    8.94    0.44
   3   1  11    9.47    0.46
   3   1  11    9.81    0.40
   3   1  11    9.32    0.37
  -4  -1 -11    3.93    0.27
  -4  -1 -11    3.66    0.32
   4   1  11    3.29    0.23
   4   1  11    3.63    0.33
   4   1  11    3.25    0.27
   5  -2 -11    4.77    0.22
   5  -2 -11    5.94    0.38
  -5   2  11    5.71    0.27
  -5   2  11    5.33    0.26
  -5   2  11    5.58    0.66
   4  -2 -11    0.81    0.16
   4  -2 -11    1.14    0.14
   4  -2 -11    1.07    0.13
   4  -2 -11    1.07    0.20
  -4   2  11    0.85    0.19
  -4   2  11    0.69    0.14
  -4   2  11    1.08    0.14
   3  -2 -11   11.18    0.48
   3  -2 -11   11.62    0.40
   3  -2 -11   10.83    0.40
  -3   2  11   10.99    0.42
  -3   2  11   11.36    0.51
  -3   2  11   11.29    0.41
  -3   2  11   11.06    0.41
   2  -2 -11   49.78    1.23
   2  -2 -11   48.21    1.29
   2  -2 -11   49.95    1.22
  -2   2  11   47.28    1.21
  -2   2  11   50.26    1.31
  -2   2  11   47.55    1.21
   1  -2 -11    7.93    0.34
   1  -2 -11    8.47    0.34
   1  -2 -11    8.06    0.39
  -1   2  11    7.87    0.39
  -1   2  11    7.92    0.34
   0  -2 -11   18.86    0.59
   0  -2 -11   18.55    0.65
   0  -2 -11   19.79    0.60
   0   2  11   19.63    0.60
   0   2  11   18.11    0.64
   0   2  11   18.81    0.59
  -1  -2 -11   55.77    1.38
  -1  -2 -11   57.41    1.39
  -1  -2 -11   54.75    1.45
   1   2  11   56.59    1.38
   1   2  11   53.37    1.38
  -2  -2 -11   11.11    0.44
  -2  -2 -11   11.28    0.43
  -2  -2 -11   10.67    0.48
   2   2  11   11.32    0.47
   2   2  11   11.45    0.44
  -3  -2 -11    8.51    0.40
  -3  -2 -11    7.07    0.35
   3   2  11    8.04    0.49
   3   2  11    8.07    0.39
   3   2  11    8.61    0.43
  -4  -2 -11    8.79    0.40
  -4  -2 -11    7.74    0.37
   4   2  11    8.25    0.36
   4   2  11    7.80    0.46
   4   2  11    7.85    0.43
   5  -3 -11    3.71    0.33
   5  -3 -11    3.15    0.19
  -5   3  11    3.63    0.37
  -5   3  11    3.61    0.23
   4  -3 -11    0.45    0.10
   4  -3 -11    0.38    0.16
   4  -3 -11    0.14    0.12
   4  -3 -11    0.47    0.11
  -4   3  11    0.70    0.12
  -4   3  11    0.53    0.16
  -4   3  11    0.55    0.12
  -4   3  11    0.44    0.12
   3  -3 -11    8.78    0.37
   3  -3 -11    9.98    0.37
   3  -3 -11    8.76    0.43
  -3   3  11    9.04    0.37
  -3   3  11    9.28    0.46
  -3   3  11    9.42    0.38
   2  -3 -11   27.87    0.78
   2  -3 -11   29.01    0.79
   2  -3 -11   26.98    0.85
  -2   3  11   27.39    0.85
  -2   3  11   27.48    0.78
  -2   3  11   26.34    0.77
   1  -3 -11    6.00    0.36
   1  -3 -11    6.58    0.31
   1  -3 -11    6.08    0.31
  -1   3  11    6.10    0.31
  -1   3  11    5.93    0.30
  -1   3  11    6.39    0.36
   0  -3 -11   32.94    1.01
   0  -3 -11   33.49    0.92
   0  -3 -11   35.02    0.94
   0   3  11   32.02    0.91
   0   3  11   34.82    0.93
  -1  -3 -11   50.62    1.31
  -1  -3 -11   53.34    1.34
   1   3  11   51.47    1.32
  -2  -3 -11   10.70    0.44
  -2  -3 -11    9.79    0.42
   2   3  11   10.02    0.42
   2   3  11    9.36    0.43
  -3  -3 -11    4.69    0.31
  -3  -3 -11    4.64    0.30
   3   3  11    5.13    0.33
   3   3  11    4.88    0.30
   3   3  11    4.32    0.46
   5  -4 -11    1.61    0.16
   5  -4 -11    1.73    0.28
  -5   4  11    2.09    0.19
  -5   4  11    1.94    0.23
  -5   4  11    1.78    0.26
   4  -4 -11    4.03    0.44
   4  -4 -11    3.64    0.23
   4  -4 -11    3.64    0.30
  -4   4  11    4.04    0.34
  -4   4  11    3.38    0.26
  -4   4  11    3.81    0.25
   3  -4 -11   16.73    0.66
   3  -4 -11   19.06    0.61
  -3   4  11   17.93    0.66
  -3   4  11   17.65    0.57
  -3   4  11   18.73    0.60
   2  -4 -11    8.04    0.36
  -2   4  11    7.35    0.34
  -2   4  11    7.68    0.36
  -2   4  11    7.43    0.40
   1  -4 -11    0.15    0.09
   1  -4 -11    0.36    0.12
   1  -4 -11    0.16    0.12
  -1   4  11    0.24    0.11
  -1   4  11    0.32    0.11
  -1   4  11    0.33    0.13
   0  -4 -11   16.05    0.58
   0  -4 -11   17.32    0.59
   0   4  11   16.62    0.57
   0   4  11   16.33    0.58
  -1  -4 -11   16.73    0.66
  -1  -4 -11   18.28    0.63
   1   4  11   17.50    0.61
   1   4  11   17.61    0.58
  -2  -4 -11   11.02    0.49
  -2  -4 -11   11.68    0.50
   2   4  11   12.07    0.49
   2   4  11   11.52    0.47
  -3  -4 -11    5.53    0.35
  -3  -4 -11    6.33    0.37
   3   4  11    6.15    0.39
   3   4  11    6.55    0.36
   3   4  11    6.10    0.38
   5  -5 -11    4.69    0.38
   5  -5 -11    4.41    0.25
  -5   5  11    4.32    0.26
  -5   5  11    4.54    0.36
  -5   5  11    4.56    0.28
   4  -5 -11    4.06    0.26
   4  -5 -11    3.95    0.35
  -4   5  11    3.96    0.32
  -4   5  11    3.99    0.28
  -4   5  11    4.42    0.33
  -4   5  11    4.22    0.26
   3  -5 -11    8.87    0.47
   3  -5 -11   10.75    0.43
  -3   5  11   10.39    0.44
  -3   5  11    9.87    0.42
  -3   5  11   10.15    0.48
   2  -5 -11    6.38    0.38
   2  -5 -11    7.71    0.37
  -2   5  11    7.19    0.37
  -2   5  11    6.76    0.39
  -2   5  11    6.79    0.35
   1  -5 -11    0.29    0.12
  -1   5  11    0.06    0.10
  -1   5  11    0.22    0.10
   0  -5 -11   15.62    0.59
   0   5  11   14.74    0.48
   0   5  11   15.57    0.58
  -1  -5 -11    1.47    0.19
   1   5  11    1.59    0.18
   1   5  11    1.50    0.19
  -2  -5 -11    4.17    0.32
   2   5  11    3.98    0.28
   2   5  11    3.91    0.31
   4  -6 -11    4.99    0.31
   4  -6 -11    4.91    0.41
  -4   6  11    4.32    0.27
  -4   6  11    4.92    0.30
  -4   6  11    4.99    0.35
  -4   6  11    5.36    0.33
   3  -6 -11    1.92    0.23
  -3   6  11    1.89    0.24
  -3   6  11    1.88    0.29
  -3   6  11    1.83    0.25
   2  -6 -11    0.03    0.09
  -2   6  11   -0.02    0.11
  -2   6  11    0.14    0.11
   1  -6 -11    7.95    0.42
  -1   6  11    8.84    0.44
   0  -6 -11   19.97    0.72
   0   6  11   18.76    0.70
  -1  -6 -11    3.08    0.30
   1   6  11    2.78    0.21
   1   6  11    3.17    0.30
   3  -7 -11    3.39    0.30
  -3   7  11    3.35    0.30
   2  -7 -11    5.25    0.45
  -2   7  11    4.75    0.35
   1  -7 -11    0.64    0.17
  -1   7  11    0.28    0.15
   0  -7 -11    1.11    0.22
   0   7  11    0.94    0.19
   0   7 -12    0.23    0.14
   0  -7  12    0.23    0.15
   0  -7  12    0.21    0.15
  -1   7 -12    3.37    0.30
   1  -7  12    3.41    0.33
   1  -7  12    2.56    0.25
  -2   7 -12    5.49    0.37
   2  -7  12    5.11    0.37
   2   6 -12    2.27    0.35
   2   6 -12    2.03    0.18
  -2  -6  12    2.10    0.27
  -2  -6  12    1.87    0.29
   1   6 -12    1.41    0.20
  -1  -6  12    1.20    0.21
  -1  -6  12    1.60    0.26
   0   6 -12    9.91    0.47
   0  -6  12   10.35    0.49
   0  -6  12    9.98    0.46
  -1   6 -12    1.05    0.11
  -1   6 -12    0.98    0.20
   1  -6  12    1.29    0.21
   1  -6  12    0.85    0.15
  -2   6 -12    0.12    0.10
  -2   6 -12    0.33    0.12
   2  -6  12    0.14    0.12
  -3   6 -12    5.57    0.35
  -3   6 -12    5.57    0.33
  -3   6 -12    6.59    0.40
   3  -6  12    6.15    0.39
   3  -6  12    5.78    0.36
   3   5 -12    2.61    0.22
  -3  -5  12    2.74    0.28
  -3  -5  12    2.46    0.36
   2   5 -12    1.26    0.14
   2   5 -12    1.32    0.20
  -2  -5  12    1.48    0.21
  -2  -5  12    1.16    0.21
   1   5 -12    9.61    0.44
  -1  -5  12    9.37    0.47
  -1  -5  12    9.13    0.60
   0   5 -12    0.49    0.13
   0  -5  12    0.38    0.14
   0  -5  12    0.36    0.14
  -1   5 -12    4.16    0.23
  -1   5 -12    3.77    0.28
   1  -5  12    4.05    0.27
   1  -5  12    4.22    0.30
  -2   5 -12    0.41    0.12
  -2   5 -12    0.39    0.12
  -2   5 -12    0.32    0.12
   2  -5  12    0.51    0.09
   2  -5  12    0.51    0.15
  -3   5 -12    0.51    0.13
  -3   5 -12    0.27    0.12
   3  -5  12    0.48    0.13
   3  -5  12    0.53    0.16
  -4   5 -12    3.60    0.27
  -4   5 -12    2.63    0.24
   4  -5  12    3.13    0.32
   4  -5  12    3.14    0.26
   3   4 -12    3.44    0.26
   3   4 -12    3.62    0.23
  -3  -4  12    3.87    0.30
  -3  -4  12    2.71    0.35
  -2  -4  12    2.77    0.28
  -2  -4  12    3.02    0.32
  -1  -4  12   34.34    1.00
  -1  -4  12   36.87    1.05
  -1  -4  12   36.33    1.02
   0   4 -12    4.22    0.27
   0  -4  12    4.52    0.29
   0  -4  12    4.05    0.30
   0  -4  12    4.13    0.27
  -1   4 -12    1.04    0.14
  -1   4 -12    0.71    0.13
  -1   4 -12    0.96    0.16
  -1   4 -12    0.84    0.13
   1  -4  12    0.80    0.15
   1  -4  12    0.87    0.14
  -2   4 -12   14.86    0.54
  -2   4 -12   15.53    0.53
  -2   4 -12   14.11    0.53
   2  -4  12   14.86    0.47
   2  -4  12   15.09    0.54
  -3   4 -12    6.52    0.34
  -3   4 -12    5.93    0.34
  -3   4 -12    6.23    0.25
   3  -4  12    6.34    0.32
   3  -4  12    7.51    0.61
  -4   4 -12    0.64    0.13
  -4   4 -12    1.27    0.17
   4  -4  12    1.07    0.21
   4  -4  12    1.09    0.16
   4   3 -12    0.95    0.16
   4   3 -12    1.10    0.15
  -4  -3  12    0.83    0.16
  -4  -3  12    1.00    0.25
  -4  -3  12    0.98    0.16
   3   3 -12    4.11    0.21
   3   3 -12    4.09    0.28
  -3  -3  12    3.98    0.28
  -3  -3  12    3.93    0.34
  -3  -3  12    4.93    0.47
   2   3 -12   28.63    0.72
   2   3 -12   28.10    0.82
  -2  -3  12   28.03    0.84
  -2  -3  12   28.76    0.91
  -2  -3  12   28.45    0.83
   1   3 -12   -0.02    0.07
   1   3 -12    0.13    0.09
   1   3 -12    0.13    0.09
  -1  -3  12    0.20    0.10
  -1  -3  12    0.06    0.08
  -1  -3  12    0.17    0.12
   0   3 -12    8.54    0.37
   0   3 -12    8.37    0.37
   0   3 -12    7.97    0.37
   0  -3  12    7.95    0.37
   0  -3  12    9.03    0.39
   0  -3  12    8.48    0.40
  -1   3 -12    0.78    0.14
  -1   3 -12    0.94    0.14
  -1   3 -12    0.95    0.16
   1  -3  12    1.00    0.15
   1  -3  12    0.89    0.14
  -2   3 -12   11.98    0.46
  -2   3 -12   11.21    0.41
  -2   3 -12   10.88    0.44
   2  -3  12   11.79    0.45
   2  -3  12   12.04    0.44
  -3   3 -12    0.54    0.13
  -3   3 -12    0.47    0.13
  -3   3 -12    0.22    0.10
   3  -3  12    0.21    0.14
   3  -3  12    0.30    0.11
  -4   3 -12    5.99    0.32
  -4   3 -12    5.25    0.28
  -4   3 -12    5.12    0.42
   4  -3  12    6.34    0.30
   4  -3  12    6.55    0.42
   4   2 -12    4.11    0.25
   4   2 -12    4.28    0.26
  -4  -2  12    3.68    0.25
  -4  -2  12    3.93    0.39
  -4  -2  12    3.96    0.28
   3   2 -12    7.08    0.31
   3   2 -12    7.01    0.34
  -3  -2  12    6.73    0.33
  -3  -2  12    6.64    0.43
  -3  -2  12    7.02    0.35
   2   2 -12    6.79    0.32
   2   2 -12    6.14    0.36
  -2  -2  12    6.41    0.39
  -2  -2  12    5.91    0.32
  -2  -2  12    6.54    0.32
   1   2 -12    4.83    0.28
   1   2 -12    4.67    0.30
   1   2 -12    4.90    0.27
  -1  -2  12    4.67    0.33
  -1  -2  12    4.52    0.26
  -1  -2  12    4.81    0.28
   0   2 -12   10.19    0.41
   0   2 -12   10.71    0.43
   0   2 -12   10.56    0.42
   0  -2  12   10.65    0.44
   0  -2  12   10.34    0.41
   0  -2  12   10.52    0.42
  -1   2 -12   11.10    0.43
  -1   2 -12   11.27    0.43
  -1   2 -12   11.42    0.43
   1  -2  12   11.25    0.43
   1  -2  12   11.30    0.43
   1  -2  12   10.50    0.41
  -2   2 -12   16.40    0.55
  -2   2 -12   17.33    0.56
  -2   2 -12   16.47    0.55
   2  -2  12   16.27    0.42
   2  -2  12   16.56    0.55
   2  -2  12   15.53    0.53
  -3   2 -12    3.98    0.26
  -3   2 -12    4.16    0.25
  -3   2 -12    4.34    0.26
   3  -2  12    4.30    0.33
   3  -2  12    3.95    0.25
  -4   2 -12    3.65    0.27
  -4   2 -12    3.75    0.24
  -4   2 -12    4.42    0.26
   4  -2  12    3.90    0.25
   4  -2  12    4.32    0.35
   4  -2  12    3.97    0.23
   5   1 -12    2.55    0.19
   5   1 -12    2.73    0.25
  -5  -1  12    2.24    0.31
  -5  -1  12    2.04    0.20
  -5  -1  12    2.52    0.23
   4   1 -12    8.01    0.38
   4   1 -12    8.16    0.34
  -4  -1  12    8.17    0.49
  -4  -1  12    7.51    0.36
  -4  -1  12    8.32    0.37
   3   1 -12   37.68    1.01
   3   1 -12   41.34    1.05
   3   1 -12   39.75    1.02
  -3  -1  12   39.55    1.16
  -3  -1  12   39.15    1.03
  -3  -1  12   38.17    1.00
  -3  -1  12   38.92    1.04
   2   1 -12    4.27    0.25
   2   1 -12    3.71    0.28
   2   1 -12    3.90    0.24
  -2  -1  12    4.14    0.19
  -2  -1  12    4.16    0.33
  -2  -1  12    4.24    0.26
  -2  -1  12    4.19    0.25
   1   1 -12   16.24    0.53
   1   1 -12   16.59    0.53
   1   1 -12   15.24    0.57
  -1  -1  12   15.54    0.53
  -1  -1  12   15.83    0.53
  -1  -1  12   15.96    0.41
  -1  -1  12   15.99    0.58
   0   1 -12   30.29    0.83
   0   1 -12   30.84    0.83
   0   1 -12   29.53    0.86
   0  -1  12   29.88    0.83
   0  -1  12   30.08    0.86
   0  -1  12   28.66    0.83
  -1   1 -12   40.03    1.07
  -1   1 -12   42.45    1.11
  -1   1 -12   42.42    1.08
   1  -1  12   43.77    1.11
   1  -1  12   39.35    1.07
   1  -1  12   41.89    1.08
   1  -1  12   41.00    0.93
  -2   1 -12   42.77    1.14
  -2   1 -12   44.40    1.12
  -2   1 -12   44.29    1.12
   2  -1  12   42.94    1.02
   2  -1  12   42.25    1.11
  -3   1 -12    6.92    0.37
  -3   1 -12    6.94    0.33
  -3   1 -12    7.34    0.34
   3  -1  12    7.25    0.30
   3  -1  12    7.75    0.42
   3  -1  12    7.60    0.33
  -4   1 -12   11.18    0.44
  -4   1 -12   10.61    0.42
  -4   1 -12   10.31    0.48
   4  -1  12   12.40    0.57
   4  -1  12   11.23    0.40
   4  -1  12   11.42    0.45
   5   0 -12    4.25    0.22
   5   0 -12    5.17    0.39
  -5   0  12    4.75    0.25
  -5   0  12    4.43    0.41
  -5   0  12    5.06    0.28
   4   0 -12    3.55    0.27
   4   0 -12    3.51    0.22
  -4   0  12    3.33    0.23
  -4   0  12    3.68    0.35
  -4   0  12    3.82    0.25
  -4   0  12    3.00    0.24
   3   0 -12    2.93    0.21
   3   0 -12    2.90    0.21
   3   0 -12    3.07    0.25
  -3   0  12    2.78    0.31
  -3   0  12    2.95    0.22
  -3   0  12    2.72    0.20
  -3   0  12    3.30    0.24
   2   0 -12    9.93    0.39
   2   0 -12    9.59    0.38
   2   0 -12    9.62    0.44
  -2   0  12   10.14    0.40
  -2   0  12    9.93    0.39
  -2   0  12    9.81    0.46
  -2   0  12    9.92    0.35
   1   0 -12   20.58    0.62
   1   0 -12   20.47    0.62
   1   0 -12   19.73    0.67
  -1   0  12   20.53    0.69
  -1   0  12   21.12    0.63
   0   0 -12   20.46    0.62
   0   0 -12   20.70    0.67
   0   0 -12   19.66    0.61
   0   0  12   19.94    0.65
   0   0  12   19.86    0.62
   0   0  12   19.39    0.61
  -1   0 -12   34.09    0.98
  -1   0 -12   34.05    0.93
  -1   0 -12   36.01    0.95
   1   0  12   34.76    0.93
   1   0  12   35.55    0.94
   1   0  12   34.65    0.98
  -2   0 -12    6.47    0.31
  -2   0 -12    5.87    0.34
  -2   0 -12    6.69    0.31
   2   0  12    6.65    0.33
   2   0  12    6.40    0.27
   2   0  12    6.37    0.30
  -3   0 -12    9.02    0.44
  -3   0 -12    9.19    0.38
  -3   0 -12    8.72    0.39
   3   0  12    8.61    0.37
   3   0  12    8.85    0.37
   3   0  12    9.34    0.48
  -4   0 -12   18.03    0.83
  -4   0 -12   17.85    0.60
   4   0  12   16.93    0.55
   4   0  12   17.07    0.71
   4   0  12   17.88    0.62
   5  -1 -12    4.25    0.22
   5  -1 -12    4.47    0.34
  -5   1  12    4.48    0.30
  -5   1  12    4.18    0.24
  -5   1  12    4.12    0.39
   4  -1 -12   12.94    0.43
   4  -1 -12   12.06    0.42
   4  -1 -12   12.86    0.53
  -4   1  12   11.85    0.47
  -4   1  12   12.69    0.58
  -4   1  12   12.03    0.44
  -4   1  12   12.37    0.45
   3  -1 -12    6.02    0.36
   3  -1 -12    5.83    0.28
   3  -1 -12    5.93    0.32
  -3   1  12    5.82    0.28
  -3   1  12    6.02    0.30
  -3   1  12    6.14    0.39
   2  -1 -12   13.62    0.47
   2  -1 -12   12.52    0.52
   2  -1 -12   13.95    0.47
  -2   1  12   13.54    0.47
  -2   1  12   13.71    0.56
  -2   1  12   13.38    0.47
   1  -1 -12   62.17    1.50
   1  -1 -12   62.05    1.57
   1  -1 -12   62.32    1.50
  -1   1  12   62.28    1.57
  -1   1  12   61.09    1.50
  -1   1  12   61.30    1.50
   0  -1 -12   33.46    0.89
   0  -1 -12   32.08    0.88
   0  -1 -12   31.86    0.93
   0   1  12   33.58    0.94
   0   1  12   31.66    0.88
   0   1  12   31.18    0.88
  -1  -1 -12   47.99    1.22
  -1  -1 -12   46.30    1.28
  -1  -1 -12   49.47    1.23
   1   1  12   47.06    1.28
   1   1  12   48.32    1.22
   1   1  12   48.32    1.30
  -2  -1 -12   27.94    0.88
  -2  -1 -12   28.70    0.82
  -2  -1 -12   28.41    0.82
   2   1  12   29.18    0.82
  -3  -1 -12   16.28    0.57
  -3  -1 -12   16.66    0.79
   3   1  12   17.36    0.59
   3   1  12   18.76    0.93
   3   1  12   17.47    0.57
  -4  -1 -12    2.33    0.23
  -4  -1 -12    2.27    0.22
   4   1  12    2.30    0.21
   4   1  12    2.32    0.29
   4   1  12    2.19    0.25
   5  -2 -12    2.61    0.28
   5  -2 -12    2.50    0.17
  -5   2  12    2.35    0.31
  -5   2  12    1.78    0.18
  -5   2  12    2.54    0.21
   4  -2 -12    0.04    0.13
   4  -2 -12    0.22    0.10
   4  -2 -12    0.19    0.08
  -4   2  12    0.09    0.15
  -4   2  12    0.07    0.09
   3  -2 -12    5.24    0.28
   3  -2 -12    5.33    0.35
   3  -2 -12    5.45    0.27
  -3   2  12    5.38    0.38
  -3   2  12    5.06    0.28
  -3   2  12    5.50    0.29
  -3   2  12    5.19    0.28
   2  -2 -12    6.70    0.31
   2  -2 -12    6.96    0.32
  -2   2  12    6.70    0.32
  -2   2  12    6.81    0.39
  -2   2  12    6.30    0.31
   1  -2 -12   24.74    0.73
   1  -2 -12   25.50    0.81
   1  -2 -12   26.69    0.75
  -1   2  12   25.52    0.74
  -1   2  12   24.36    0.74
  -1   2  12   25.80    0.81
   0  -2 -12    6.38    0.32
   0  -2 -12    6.49    0.36
   0  -2 -12    6.89    0.33
   0   2  12    6.73    0.33
   0   2  12    5.97    0.31
   0   2  12    6.92    0.37
  -1  -2 -12    0.62    0.14
  -1  -2 -12    0.59    0.15
  -1  -2 -12    0.57    0.14
   1   2  12    0.48    0.12
  -2  -2 -12   12.23    0.48
  -2  -2 -12   12.91    0.49
   2   2  12   12.24    0.51
   2   2  12   11.77    0.47
  -3  -2 -12   11.02    0.45
  -3  -2 -12    9.77    0.43
   3   2  12   10.49    0.46
   3   2  12   11.07    0.52
   3   2  12   10.38    0.43
   5  -3 -12    0.82    0.22
   5  -3 -12    0.87    0.12
  -5   3  12    1.44    0.25
  -5   3  12    1.15    0.16
   4  -3 -12    7.04    0.31
   4  -3 -12    6.75    0.44
  -4   3  12    7.32    0.45
  -4   3  12    6.67    0.32
  -4   3  12    6.85    0.39
   3  -3 -12   12.59    0.55
   3  -3 -12   12.57    0.47
  -3   3  12   14.58    0.50
  -3   3  12   14.53    0.59
  -3   3  12   13.92    0.49
   2  -3 -12   24.32    0.73
   2  -3 -12   24.22    0.91
  -2   3  12   23.76    0.72
  -2   3  12   24.38    0.80
  -2   3  12   24.62    0.73
   1  -3 -12   14.77    0.53
   1  -3 -12   15.28    0.68
  -1   3  12   14.62    0.52
  -1   3  12   14.41    0.51
  -1   3  12   14.80    0.58
   0  -3 -12    4.22    0.27
   0  -3 -12    3.99    0.26
   0   3  12    4.09    0.26
   0   3  12    3.97    0.27
  -1  -3 -12   29.00    0.85
  -1  -3 -12   27.91    0.83
   1   3  12   27.37    0.83
  -2  -3 -12   11.05    0.47
  -2  -3 -12   12.01    0.49
   2   3  12   11.64    0.49
   2   3  12   12.06    0.48
  -3  -3 -12    1.94    0.22
  -3  -3 -12    2.11    0.25
   3   3  12    2.30    0.24
   3   3  12    2.46    0.25
   3   3  12    2.33    0.26
   5  -4 -12    3.92    0.37
   5  -4 -12    3.12    0.22
  -5   4  12    3.48    0.25
  -5   4  12    3.20    0.35
  -5   4  12    3.66    0.25
   4  -4 -12    0.25    0.10
   4  -4 -12    0.26    0.16
  -4   4  12    0.14    0.11
  -4   4  12    0.11    0.14
  -4   4  12    0.39    0.11
   3  -4 -12    3.35    0.25
   3  -4 -12    2.25    0.27
  -3   4  12    3.75    0.32
  -3   4  12    2.70    0.23
  -3   4  12    3.45    0.26
   2  -4 -12   10.27    0.49
   2  -4 -12   11.37    0.45
  -2   4  12   10.14    0.49
  -2   4  12   10.28    0.42
  -2   4  12   11.00    0.45
   1  -4 -12    0.01    0.09
   1  -4 -12   -0.02    0.08
   1  -4 -12    0.24    0.11
  -1   4  12    0.06    0.09
  -1   4  12   -0.07    0.09
  -1   4  12    0.15    0.10
   0  -4 -12    2.06    0.22
   0  -4 -12    2.08    0.23
   0   4  12    2.02    0.23
  -1  -4 -12   20.13    0.80
  -1  -4 -12   17.63    0.64
   1   4  12   18.73    0.62
   1   4  12   18.96    0.65
  -2  -4 -12    3.35    0.28
  -2  -4 -12    3.00    0.27
   2   4  12    3.14    0.26
   2   4  12    3.05    0.26
   5  -5 -12    4.72    0.40
   5  -5 -12    5.05    0.27
  -5   5  12    4.67    0.30
  -5   5  12    4.80    0.37
  -5   5  12    4.62    0.28
   4  -5 -12    7.78    0.36
   4  -5 -12    7.61    0.47
  -4   5  12    6.77    0.36
  -4   5  12    6.13    0.34
  -4   5  12    7.29    0.37
  -4   5  12    7.65    0.44
   3  -5 -12    0.87    0.17
  -3   5  12    0.60    0.15
  -3   5  12    0.52    0.12
  -3   5  12    0.80    0.18
   2  -5 -12    5.31    0.32
  -2   5  12    5.67    0.36
  -2   5  12    4.87    0.35
  -2   5  12    4.79    0.30
   1  -5 -12   24.51    0.79
  -1   5  12   24.69    0.79
   0  -5 -12    4.90    0.54
   0   5  12    5.54    0.35
   0   5  12    5.31    0.28
  -1  -5 -12    8.19    0.43
   1   5  12    7.82    0.41
   1   5  12    7.07    0.35
  -2  -5 -12    1.39    0.22
   2   5  12    1.78    0.23
   2   5  12    1.32    0.18
   4  -6 -12    2.36    0.33
   4  -6 -12    2.05    0.25
  -4   6  12    2.15    0.25
  -4   6  12    1.52    0.20
  -4   6  12    2.53    0.25
  -4   6  12    2.44    0.34
   3  -6 -12    4.28    0.30
  -3   6  12    3.69    0.23
  -3   6  12    4.13    0.40
  -3   6  12    3.93    0.31
  -3   6  12    4.34    0.29
   2  -6 -12    3.31    0.29
  -2   6  12    2.98    0.28
   1  -6 -12    1.36    0.21
  -1   6  12    2.09    0.26
   0  -6 -12    8.14    0.45
   0   6  12    8.39    0.45
  -1  -6 -12    0.59    0.17
   1   6  12    0.27    0.09
   1   6  12    0.59    0.18
   3  -7 -12    1.45    0.21
  -3   7  12    1.34    0.21
   2  -7 -12    8.52    0.46
  -2   7  12    7.81    0.44
   1  -7 -12    2.46    0.29
  -1   7  12    2.18    0.28
  -1   7 -13    0.19    0.12
   1  -7  13    0.45    0.15
   1  -7  13    0.15    0.12
   1   6 -13    1.18    0.22
  -1  -6  13    0.41    0.29
  -1  -6  13    0.90    0.19
   0   6 -13    3.67    0.30
   0  -6  13    3.20    0.31
   0  -6  13    4.00    0.33
  -1   6 -13    3.20    0.17
   1  -6  13    2.83    0.30
   1  -6  13    3.05    0.26
  -2   6 -13    2.10    0.20
  -2   6 -13    1.75    0.22
   2  -6  13    2.11    0.26
  -3   6 -13    1.41    0.20
  -3   6 -13    2.05    0.25
   3  -6  13    1.83    0.24
   3  -6  13    1.64    0.23
  -2  -5  13    5.48    0.37
  -2  -5  13    5.61    0.42
  -1  -5  13   16.13    0.64
  -1  -5  13   16.32    0.63
   0  -5  13    0.72    0.17
   0  -5  13    0.58    0.15
  -1   5 -13    5.31    0.49
  -1   5 -13    6.27    0.27
  -1   5 -13    6.40    0.36
   1  -5  13    5.84    0.35
   1  -5  13    5.76    0.32
  -2   5 -13    1.89    0.23
  -2   5 -13    2.08    0.19
  -2   5 -13    1.70    0.22
   2  -5  13    1.85    0.17
   2  -5  13    1.41    0.20
  -3   5 -13    2.50    0.26
  -3   5 -13    2.74    0.25
   3  -5  13    2.09    0.24
   3  -5  13    1.58    0.22
   3   4 -13    3.19    0.27
  -3  -4  13    3.71    0.31
  -3  -4  13    3.58    0.38
  -3  -4  13    3.47    0.29
   2   4 -13    9.35    0.43
  -2  -4  13    9.77    0.46
  -2  -4  13    9.49    0.51
  -2  -4  13    9.36    0.44
   1   4 -13    1.70    0.22
  -1  -4  13    1.48    0.19
  -1  -4  13    2.00    0.28
  -1  -4  13    2.24    0.25
   0   4 -13    3.58    0.27
   0   4 -13    3.67    0.26
   0  -4  13    3.94    0.29
   0  -4  13    3.05    0.28
  -1   4 -13   13.97    0.50
  -1   4 -13   14.59    0.54
  -1   4 -13   14.41    0.56
   1  -4  13   14.72    0.55
   1  -4  13   14.50    0.51
  -2   4 -13    0.98    0.28
  -2   4 -13    0.97    0.14
  -2   4 -13    1.02    0.17
  -2   4 -13    1.11    0.17
   2  -4  13    1.19    0.15
   2  -4  13    1.05    0.17
  -3   4 -13    1.93    0.22
  -3   4 -13    1.88    0.22
   3  -4  13    1.55    0.23
   3  -4  13    1.55    0.19
  -4   4 -13    0.23    0.13
  -4   4 -13    0.46    0.13
   4  -4  13    0.28    0.11
   4  -4  13    0.28    0.13
   4   3 -13    0.95    0.14
   4   3 -13    0.45    0.14
  -4  -3  13    0.57    0.21
  -4  -3  13    0.57    0.16
  -4  -3  13    0.75    0.17
   3   3 -13    7.03    0.36
  -3  -3  13    7.06    0.46
  -3  -3  13    6.76    0.36
  -3  -3  13    7.08    0.37
   2   3 -13   38.95    1.05
   2   3 -13   38.30    0.95
  -2  -3  13   38.37    1.07
  -2  -3  13   36.94    1.05
  -2  -3  13   38.76    1.14
   1   3 -13    0.55    0.14
   1   3 -13    0.39    0.13
  -1  -3  13    0.38    0.13
  -1  -3  13    0.37    0.14
  -1  -3  13    0.45    0.15
   0   3 -13   13.00    0.50
   0   3 -13   13.86    0.50
   0   3 -13   12.69    0.59
   0  -3  13   13.57    0.51
   0  -3  13   12.76    0.49
   0  -3  13   13.37    0.52
  -1   3 -13   25.35    0.77
  -1   3 -13   24.56    0.74
  -1   3 -13   23.65    0.75
   1  -3  13   24.83    0.76
   1  -3  13   25.09    0.74
  -2   3 -13   20.22    0.63
  -2   3 -13   20.17    0.66
  -2   3 -13   21.36    0.68
   2  -3  13   20.05    0.65
   2  -3  13   20.73    0.63
  -3   3 -13    0.36    0.12
  -3   3 -13    0.32    0.11
  -3   3 -13    0.50    0.14
   3  -3  13    0.12    0.12
   3  -3  13    0.18    0.11
  -4   3 -13    4.02    0.27
  -4   3 -13    3.14    0.25
  -4   3 -13    3.56    0.26
   4  -3  13    4.07    0.26
   4  -3  13    3.80    0.35
   4   2 -13   12.11    0.45
   4   2 -13   12.12    0.66
  -4  -2  13   11.24    0.47
  -4  -2  13   11.63    0.48
  -4  -2  13   12.43    0.62
   3   2 -13    9.00    0.39
   3   2 -13    8.71    0.36
  -3  -2  13    8.99    0.52
  -3  -2  13    9.06    0.42
  -3  -2  13    9.07    0.40
   2   2 -13   21.83    0.68
   2   2 -13   20.89    0.73
  -2  -2  13   20.18    0.68
  -2  -2  13   23.01    0.78
   1   2 -13    8.39    0.38
   1   2 -13    8.41    0.41
  -1  -2  13    8.36    0.38
  -1  -2  13    8.47    0.39
  -1  -2  13    8.97    0.44
   0   2 -13   27.53    0.84
   0   2 -13   29.02    0.83
   0   2 -13   27.56    0.82
   0  -2  13   27.82    0.82
   0  -2  13   29.06    0.83
   0  -2  13   29.96    0.86
  -1   2 -13    1.92    0.20
  -1   2 -13    1.58    0.19
  -1   2 -13    1.35    0.19
   1  -2  13    1.69    0.20
   1  -2  13    1.78    0.21
  -2   2 -13    2.42    0.23
  -2   2 -13    2.65    0.22
  -2   2 -13    2.31    0.22
   2  -2  13    2.24    0.22
  -3   2 -13    8.10    0.38
  -3   2 -13    8.57    0.38
   3  -2  13    9.08    0.48
   3  -2  13    7.85    0.41
   3  -2  13    9.57    0.44
  -4   2 -13    2.35    0.22
  -4   2 -13    1.75    0.20
  -4   2 -13    1.46    0.20
   4  -2  13    2.09    0.20
   4  -2  13    2.06    0.21
   4  -2  13    2.29    0.29
   5   1 -13    1.65    0.23
   5   1 -13    1.77    0.20
  -5  -1  13    1.89    0.23
  -5  -1  13    1.69    0.29
  -5  -1  13    1.77    0.20
   4   1 -13    9.11    0.41
   4   1 -13    9.03    0.37
  -4  -1  13    9.27    0.39
  -4  -1  13    9.35    0.53
  -4  -1  13    8.61    0.39
  -4  -1  13    9.12    0.40
   3   1 -13   29.33    0.83
   3   1 -13   30.15    0.85
  -3  -1  13   27.95    0.78
  -3  -1  13   28.26    0.83
  -3  -1  13   30.79    0.97
  -3  -1  13   28.92    0.85
   2   1 -13    1.15    0.16
   2   1 -13    1.53    0.19
  -2  -1  13    1.42    0.18
  -2  -1  13    1.38    0.18
  -2  -1  13    1.50    0.12
  -2  -1  13    1.18    0.19
   1   1 -13   11.29    0.44
   1   1 -13   12.01    0.50
   1   1 -13   12.69    0.46
  -1  -1  13   12.40    0.46
  -1  -1  13   11.84    0.32
  -1  -1  13   11.86    0.51
  -1  -1  13   11.49    0.45
   0   1 -13   49.51    1.24
   0   1 -13   47.78    1.24
   0   1 -13   47.46    1.27
   0  -1  13   47.82    1.24
   0  -1  13   48.44    1.24
   0  -1  13   49.69    1.28
  -1   1 -13   21.16    0.70
  -1   1 -13   21.28    0.67
  -1   1 -13   22.35    0.68
   1  -1  13   21.46    0.53
   1  -1  13   22.27    0.68
   1  -1  13   22.72    0.70
  -2   1 -13    0.31    0.11
  -2   1 -13    0.41    0.12
  -2   1 -13    0.30    0.11
   2  -1  13    0.29    0.11
   2  -1  13    0.27    0.07
  -3   1 -13   17.35    0.59
   3  -1  13   18.18    0.55
   3  -1  13   18.53    0.71
   3  -1  13   17.68    0.59
  -4   1 -13    0.62    0.14
  -4   1 -13    0.52    0.12
   4  -1  13    0.79    0.14
   4  -1  13    0.36    0.11
   4  -1  13    0.60    0.17
   5   0 -13    7.72    0.42
   5   0 -13    7.86    0.32
  -5   0  13    7.16    0.34
  -5   0  13    8.00    0.52
  -5   0  13    8.28    0.37
   4   0 -13    4.23    0.25
   4   0 -13    4.68    0.30
  -4   0  13    4.67    0.27
  -4   0  13    3.96    0.27
  -4   0  13    4.38    0.39
  -4   0  13    4.66    0.28
   3   0 -13    0.33    0.17
   3   0 -13    0.16    0.10
  -3   0  13    0.31    0.15
  -3   0  13    0.28    0.12
  -3   0  13    0.24    0.10
  -3   0  13    0.10    0.08
   2   0 -13   13.22    0.59
   2   0 -13   14.60    0.49
  -2   0  13   13.58    0.57
  -2   0  13   14.15    0.50
  -2   0  13   13.39    0.42
  -2   0  13   14.33    0.50
   1   0 -13   21.64    0.73
   1   0 -13   23.37    0.68
  -1   0  13   22.65    0.69
  -1   0  13   22.13    0.75
   0   0 -13    6.48    0.32
   0   0 -13    6.05    0.35
   0   0 -13    6.53    0.32
   0   0  13    5.94    0.35
   0   0  13    5.56    0.30
   0   0  13    6.14    0.32
  -1   0 -13    1.33    0.17
  -1   0 -13    1.61    0.18
  -1   0 -13    1.45    0.21
   1   0  13    1.59    0.21
   1   0  13    1.64    0.20
  -2   0 -13   17.45    0.59
  -2   0 -13   16.78    0.58
   2   0  13   17.57    0.52
   2   0  13   16.79    0.57
  -3   0 -13    3.97    0.27
  -3   0 -13    4.31    0.27
  -3   0 -13    4.10    0.33
   3   0  13    4.25    0.25
   3   0  13    4.89    0.35
  -4   0 -13   -0.01    0.10
  -4   0 -13    0.14    0.11
   4   0  13   -0.11    0.09
   4   0  13    0.04    0.10
   4   0  13    0.02    0.12
   5  -1 -13    2.19    0.26
   5  -1 -13    2.26    0.19
  -5   1  13    1.78    0.27
  -5   1  13    1.92    0.20
  -5   1  13    2.13    0.22
   4  -1 -13    3.47    0.23
   4  -1 -13    3.59    0.30
  -4   1  13    3.17    0.26
  -4   1  13    3.33    0.25
  -4   1  13    4.06    0.45
  -4   1  13    3.29    0.38
   3  -1 -13    0.35    0.10
   3  -1 -13    0.47    0.13
  -3   1  13    0.26    0.11
  -3   1  13    0.15    0.09
  -3   1  13    0.24    0.15
   2  -1 -13   17.80    0.57
  -2   1  13   17.06    0.66
  -2   1  13   17.19    0.57
  -2   1  13   16.86    0.56
   1  -1 -13   24.35    0.72
   1  -1 -13   24.22    0.72
   1  -1 -13   23.18    0.77
  -1   1  13   25.08    0.79
  -1   1  13   23.72    0.71
  -1   1  13   23.61    0.72
   0  -1 -13   10.12    0.41
   0  -1 -13    9.72    0.45
   0  -1 -13    9.42    0.40
   0   1  13    8.97    0.40
   0   1  13   10.21    0.46
   0   1  13    9.68    0.40
  -1  -1 -13   24.95    0.93
  -1  -1 -13   27.06    0.79
  -1  -1 -13   27.04    0.80
   1   1  13   28.57    0.80
   1   1  13   26.84    0.85
  -2  -1 -13   37.68    1.04
  -2  -1 -13   37.37    1.12
  -2  -1 -13   38.09    1.05
   2   1  13   39.67    1.01
   2   1  13   37.81    1.04
  -3  -1 -13    5.77    0.33
  -3  -1 -13    5.32    0.31
   3   1  13    5.32    0.31
   3   1  13    5.77    0.38
   3   1  13    5.46    0.31
   5  -2 -13    5.14    0.25
   5  -2 -13    5.10    0.37
  -5   2  13    4.71    0.28
  -5   2  13    3.98    0.26
  -5   2  13    4.32    0.41
   4  -2 -13   20.40    0.74
   4  -2 -13   19.33    0.60
  -4   2  13   19.72    0.63
  -4   2  13   19.31    0.76
   3  -2 -13    2.34    0.21
  -3   2  13    2.27    0.22
  -3   2  13    2.93    0.32
  -3   2  13    2.66    0.22
  -3   2  13    2.25    0.20
   2  -2 -13   15.14    0.53
   2  -2 -13   14.34    0.59
  -2   2  13   15.18    0.60
  -2   2  13   15.34    0.53
  -2   2  13   15.07    0.52
   1  -2 -13    5.10    0.45
   1  -2 -13    5.13    0.29
  -1   2  13    4.58    0.33
  -1   2  13    5.47    0.30
  -1   2  13    5.33    0.29
   0  -2 -13    8.94    0.39
   0  -2 -13    9.36    0.40
   0   2  13    8.46    0.39
   0   2  13    8.96    0.40
   0   2  13    8.70    0.43
  -1  -2 -13   20.57    0.67
  -1  -2 -13   20.39    0.67
  -1  -2 -13   20.14    0.73
   1   2  13   21.06    0.67
  -2  -2 -13    9.88    0.51
  -2  -2 -13   10.16    0.44
   2   2  13   10.68    0.48
   2   2  13   10.79    0.45
  -3  -2 -13    0.04    0.10
  -3  -2 -13   -0.13    0.10
   3   2  13    0.32    0.17
   3   2  13    0.08    0.11
   3   2  13    0.16    0.10
   5  -3 -13    1.49    0.27
   5  -3 -13    1.08    0.14
  -5   3  13    1.09    0.24
  -5   3  13    1.09    0.17
   4  -3 -13    1.76    0.27
   4  -3 -13    2.19    0.21
  -4   3  13    2.27    0.32
  -4   3  13    1.91    0.20
   3  -3 -13   14.07    0.50
  -3   3  13   13.79    0.60
  -3   3  13   13.57    0.50
  -3   3  13   14.04    0.51
   2  -3 -13    1.30    0.19
   2  -3 -13    1.22    0.21
  -2   3  13    1.29    0.17
  -2   3  13    1.43    0.21
  -2   3  13    1.07    0.16
   1  -3 -13    4.87    0.29
   1  -3 -13    4.94    0.30
  -1   3  13    5.22    0.31
  -1   3  13    5.03    0.36
  -1   3  13    4.71    0.34
   0  -3 -13   34.20    0.98
   0  -3 -13   35.91    1.00
   0   3  13   33.57    0.97
   0   3  13   35.06    0.99
  -1  -3 -13   16.36    0.61
  -1  -3 -13   18.34    0.63
   1   3  13   17.76    0.62
  -2  -3 -13    7.23    0.38
  -2  -3 -13    6.38    0.36
   2   3  13    6.96    0.39
   2   3  13    6.69    0.37
  -3  -3 -13    4.07    0.30
  -3  -3 -13    4.02    0.31
   3   3  13    3.68    0.32
   3   3  13    4.16    0.31
   3   3  13    4.05    0.30
   5  -4 -13    7.55    0.34
   5  -4 -13    8.37    0.51
  -5   4  13    7.64    0.49
  -5   4  13    8.21    0.38
  -5   4  13    8.56    0.53
   4  -4 -13    0.74    0.23
   4  -4 -13    0.96    0.22
  -4   4  13    1.14    0.16
  -4   4  13    0.90    0.16
  -4   4  13    1.22    0.27
   3  -4 -13   10.64    0.45
  -3   4  13   10.87    0.52
  -3   4  13   10.82    0.67
  -3   4  13   10.19    0.44
   2  -4 -13    6.29    0.34
  -2   4  13    5.83    0.39
  -2   4  13    5.50    0.34
  -2   4  13    5.55    0.33
   1  -4 -13    0.83    0.16
  -1   4  13    1.13    0.20
  -1   4  13    0.57    0.13
  -1   4  13    0.77    0.14
   0  -4 -13   14.05    0.55
   0   4  13   13.11    0.54
  -1  -4 -13   10.65    0.48
   1   4  13   10.35    0.47
   1   4  13   10.73    0.45
  -2  -4 -13    1.81    0.25
   2   4  13    1.33    0.19
   2   4  13    1.79    0.23
   4  -5 -13    1.49    0.27
   4  -5 -13    1.59    0.20
  -4   5  13    2.35    0.29
  -4   5  13    1.35    0.19
  -4   5  13    1.22    0.18
  -4   5  13    1.31    0.17
   3  -5 -13   -0.02    0.11
  -3   5  13    0.04    0.13
  -3   5  13    0.15    0.11
   2  -5 -13    3.83    0.28
  -2   5  13    3.80    0.29
  -2   5  13    3.23    0.27
  -2   5  13    3.52    0.33
   1  -5 -13    7.24    0.39
  -1   5  13    7.44    0.47
   0  -5 -13    6.30    0.39
   0   5  13    6.23    0.52
  -1  -5 -13    1.15    0.21
   1   5  13    1.47    0.19
   1   5  13    1.65    0.25
   4  -6 -13    2.46    0.34
   4  -6 -13    2.23    0.27
  -4   6  13    2.22    0.26
  -4   6  13    1.69    0.21
  -4   6  13    2.76    0.30
  -4   6  13    1.41    0.18
   3  -6 -13    4.79    0.34
  -3   6  13    5.60    0.36
  -3   6  13    5.02    0.38
   2  -6 -13    6.42    0.39
  -2   6  13    6.80    0.40
   1  -6 -13    2.00    0.29
  -1   6  13    1.87    0.23
   0  -6 -13    4.16    0.34
   0   6  13    3.71    0.23
   0   6  13    4.14    0.34
  -1  -6  14    7.30    0.44
  -1  -6  14    7.81    0.47
   0  -6  14    1.00    0.20
   0  -6  14    0.69    0.17
  -1   6 -14    1.33    0.21
  -1   6 -14    1.64    0.16
   1  -6  14    1.41    0.23
   1  -6  14    1.67    0.20
  -2   6 -14    0.44    0.16
  -2   6 -14    0.68    0.15
   2  -6  14    0.51    0.15
   2   5 -14    0.23    0.13
  -2  -5  14    0.09    0.16
  -2  -5  14    0.12    0.11
   1   5 -14   11.28    0.73
  -1  -5  14   11.87    0.53
  -1  -5  14   10.74    0.53
   0   5 -14    0.83    0.10
   0   5 -14    0.76    0.18
   0  -5  14    0.73    0.23
   0  -5  14    0.51    0.16
  -1   5 -14    2.78    0.27
  -1   5 -14    2.61    0.19
   1  -5  14    2.91    0.28
   1  -5  14    2.63    0.25
  -2   5 -14    6.38    0.37
  -2   5 -14    5.39    0.41
   2  -5  14    6.01    0.37
   2  -5  14    6.30    0.29
  -3   5 -14    9.48    0.46
  -3   5 -14    8.71    0.43
   3  -5  14    8.66    0.49
   3  -5  14    8.72    0.43
   3   4 -14   13.57    0.55
  -3  -4  14   12.93    0.65
  -3  -4  14   14.19    0.58
   2   4 -14   12.92    0.53
  -2  -4  14   13.32    0.55
  -2  -4  14   12.15    0.59
   1   4 -14    0.36    0.14
  -1  -4  14    0.28    0.16
  -1  -4  14    0.40    0.20
   0   4 -14    2.54    0.24
   0   4 -14    2.41    0.25
   0  -4  14    2.46    0.27
   0  -4  14    2.68    0.26
  -1   4 -14    1.52    0.19
  -1   4 -14    1.37    0.20
  -1   4 -14    1.27    0.28
   1  -4  14    1.79    0.22
   1  -4  14    1.45    0.22
  -2   4 -14    4.18    0.27
  -2   4 -14    4.00    0.31
  -2   4 -14    4.13    0.30
  -2   4 -14    3.45    0.23
   2  -4  14    3.50    0.28
   2  -4  14    4.25    0.25
  -3   4 -14    1.16    0.18
  -3   4 -14    1.20    0.18
  -3   4 -14    0.94    0.13
   3  -4  14    1.01    0.17
   4   3 -14    1.28    0.18
   4   3 -14    1.53    0.17
  -4  -3  14    0.81    0.23
  -4  -3  14    1.65    0.22
  -4  -3  14    0.92    0.24
   3   3 -14    0.88    0.17
   3   3 -14    0.83    0.12
  -3  -3  14    0.74    0.22
  -3  -3  14    0.85    0.19
  -3  -3  14    0.70    0.20
   2   3 -14   16.29    0.64
   2   3 -14   15.05    0.56
  -2  -3  14   15.54    0.65
  -2  -3  14   15.00    0.70
  -2  -3  14   14.07    0.56
   1   3 -14    0.03    0.11
   1   3 -14    0.06    0.10
  -1  -3  14   -0.03    0.11
  -1  -3  14    0.15    0.11
  -1  -3  14    0.04    0.12
   0   3 -14    2.22    0.23
   0   3 -14    2.23    0.23
   0   3 -14    2.33    0.23
   0  -3  14    2.00    0.24
   0  -3  14    2.50    0.27
  -1   3 -14   10.15    0.43
  -1   3 -14   10.00    0.44
   1  -3  14   10.23    0.45
   1  -3  14   10.65    0.44
  -2   3 -14   15.35    0.58
  -2   3 -14   16.48    0.57
  -2   3 -14   16.66    0.72
   2  -3  14   16.60    0.58
   2  -3  14   16.87    0.56
  -3   3 -14    4.65    0.31
  -3   3 -14    5.13    0.29
  -3   3 -14    5.13    0.31
   3  -3  14    4.91    0.31
  -4   3 -14    2.78    0.26
  -4   3 -14    3.64    0.26
  -4   3 -14    2.56    0.25
   4  -3  14    3.55    0.34
   4  -3  14    3.45    0.27
   4   2 -14    8.65    0.39
   4   2 -14    8.66    0.39
  -4  -2  14    8.58    0.42
  -4  -2  14    9.08    0.55
  -4  -2  14    8.67    0.42
   3   2 -14    4.55    0.27
   3   2 -14    4.45    0.29
  -3  -2  14    4.36    0.29
  -3  -2  14    4.58    0.39
  -3  -2  14    4.31    0.31
   2   2 -14    9.95    0.42
  -2  -2  14    9.27    0.43
  -2  -2  14   10.14    0.51
  -2  -2  14    9.22    0.42
   1   2 -14   11.31    0.46
   1   2 -14   12.10    0.48
   1   2 -14   11.10    0.49
  -1  -2  14   12.74    0.54
  -1  -2  14   12.60    0.49
   0   2 -14    6.42    0.36
   0   2 -14    6.97    0.35
   0  -2  14    7.05    0.35
   0  -2  14    7.01    0.38
   0  -2  14    7.15    0.36
  -1   2 -14   14.62    0.54
  -1   2 -14   14.88    0.54
  -1   2 -14   14.99    0.55
   1  -2  14   15.47    0.55
   1  -2  14   15.02    0.54
  -2   2 -14    0.22    0.12
  -2   2 -14    0.21    0.11
  -2   2 -14    0.23    0.13
   2  -2  14    0.41    0.12
  -3   2 -14   14.36    0.52
  -3   2 -14   13.16    0.51
  -3   2 -14   12.44    0.51
   3  -2  14   13.68    0.50
   3  -2  14   14.11    0.61
   3  -2  14   12.62    0.45
  -4   2 -14    4.70    0.34
  -4   2 -14    5.79    0.33
  -4   2 -14    6.83    0.35
   4  -2  14    5.94    0.30
   4  -2  14    5.90    0.31
   4  -2  14    6.84    0.45
   4   1 -14    0.71    0.22
   4   1 -14    1.01    0.18
  -4  -1  14    0.88    0.22
  -4  -1  14    0.74    0.15
  -4  -1  14    0.74    0.15
  -4  -1  14    0.83    0.14
   3   1 -14    1.11    0.18
   3   1 -14    1.32    0.20
  -3  -1  14    1.17    0.20
  -3  -1  14    1.06    0.13
  -3  -1  14    1.17    0.19
  -3  -1  14    1.20    0.25
   2   1 -14    0.22    0.12
   2   1 -14    0.56    0.13
  -2  -1  14    0.63    0.18
  -2  -1  14    0.63    0.13
  -2  -1  14    0.68    0.16
  -2  -1  14    0.61    0.09
   1   1 -14    4.55    0.40
   1   1 -14    4.25    0.27
   1   1 -14    4.49    0.28
  -1  -1  14    4.82    0.35
  -1  -1  14    4.12    0.28
  -1  -1  14    4.57    0.17
   0   1 -14    7.31    0.35
   0   1 -14    7.96    0.36
   0   1 -14    7.16    0.38
   0  -1  14    7.25    0.39
   0  -1  14    7.13    0.36
  -1   1 -14   12.98    0.48
  -1   1 -14   11.95    0.47
  -1   1 -14   12.21    0.50
   1  -1  14   12.65    0.49
   1  -1  14   12.85    0.51
  -2   1 -14    0.60    0.15
  -2   1 -14    0.91    0.16
  -2   1 -14    0.42    0.14
   2  -1  14    0.69    0.09
   2  -1  14    0.53    0.13
  -3   1 -14   12.98    0.49
  -3   1 -14   11.33    0.51
  -3   1 -14   12.11    0.48
   3  -1  14   12.46    0.58
   3  -1  14   12.61    0.42
   3  -1  14   13.23    0.48
  -4   1 -14   19.50    0.66
  -4   1 -14   19.83    0.66
   4  -1  14   20.80    0.82
   4  -1  14   20.41    0.65
   4  -1  14   19.76    0.64
   5   0 -14    0.26    0.11
   5   0 -14    0.60    0.16
  -5   0  14    0.43    0.21
  -5   0  14    0.46    0.14
   4   0 -14    4.06    0.26
   4   0 -14    4.45    0.32
  -4   0  14    3.63    0.26
  -4   0  14    3.88    0.29
  -4   0  14    4.40    0.40
  -4   0  14    4.50    0.29
   3   0 -14   46.60    1.18
  -3   0  14   47.05    1.21
  -3   0  14   46.71    1.33
  -3   0  14   43.67    1.14
  -3   0  14   44.17    1.20
   2   0 -14    7.53    0.35
  -2   0  14    7.09    0.28
  -2   0  14    7.27    0.43
  -2   0  14    6.79    0.35
  -2   0  14    7.00    0.35
   1   0 -14   10.02    0.50
   1   0 -14   11.46    0.44
  -1   0  14   11.05    0.50
  -1   0  14   11.64    0.46
   0   0 -14   18.83    0.72
   0   0 -14   17.94    0.60
   0   0 -14   18.41    0.61
   0   0  14   18.38    0.65
   0   0  14   17.69    0.60
  -1   0 -14    0.79    0.24
  -1   0 -14    0.99    0.17
  -1   0 -14    0.78    0.14
   1   0  14    0.78    0.15
   1   0  14    0.94    0.16
  -2   0 -14   11.93    0.48
  -2   0 -14   12.57    0.49
  -2   0 -14   11.47    0.52
   2   0  14   12.52    0.48
   2   0  14   12.92    0.42
  -3   0 -14   11.89    0.48
  -3   0 -14   11.29    0.47
   3   0  14   11.88    0.44
   3   0  14   11.88    0.47
   3   0  14   12.03    0.57
   5  -1 -14    0.08    0.10
   5  -1 -14    0.47    0.16
  -5   1  14    0.36    0.19
  -5   1  14    0.00    0.10
  -5   1  14    0.23    0.12
   4  -1 -14    0.00    0.09
   4  -1 -14    0.26    0.15
  -4   1  14    0.16    0.11
  -4   1  14   -0.14    0.09
  -4   1  14    0.03    0.15
   3  -1 -14    6.41    0.32
  -3   1  14    6.93    0.35
  -3   1  14    6.30    0.31
  -3   1  14    6.75    0.34
  -3   1  14    7.06    0.45
   2  -1 -14   11.93    0.46
  -2   1  14   11.69    0.54
  -2   1  14   12.01    0.47
  -2   1  14   11.83    0.46
   1  -1 -14    3.73    0.25
   1  -1 -14    3.87    0.25
   1  -1 -14    3.25    0.29
  -1   1  14    3.46    0.25
  -1   1  14    3.94    0.27
  -1   1  14    3.50    0.30
   0  -1 -14    9.65    0.43
   0  -1 -14   10.23    0.42
   0  -1 -14    9.54    0.46
   0   1  14    9.41    0.41
   0   1  14    9.53    0.45
   0   1  14    9.85    0.42
  -1  -1 -14    0.14    0.10
  -1  -1 -14    0.04    0.13
  -1  -1 -14    0.08    0.09
   1   1  14    0.06    0.12
  -2  -1 -14    8.04    0.42
  -2  -1 -14    7.63    0.38
   2   1  14    8.72    0.36
   2   1  14    8.09    0.39
  -3  -1 -14   22.54    0.74
  -3  -1 -14   21.98    0.73
   3   1  14   23.59    0.84
   3   1  14   22.19    0.71
   3   1  14   22.58    0.72
   5  -2 -14    4.38    0.26
   5  -2 -14    4.28    0.36
  -5   2  14    3.53    0.26
  -5   2  14    4.35    0.29
  -5   2  14    4.53    0.43
   4  -2 -14   16.70    0.68
   4  -2 -14   15.49    0.54
  -4   2  14   16.18    0.70
  -4   2  14   15.86    0.57
   3  -2 -14    1.67    0.19
  -3   2  14    1.43    0.24
  -3   2  14    1.34    0.21
  -3   2  14    1.80    0.21
  -3   2  14    1.53    0.20
   2  -2 -14    6.52    0.34
  -2   2  14    6.62    0.34
  -2   2  14    6.08    0.33
  -2   2  14    6.66    0.41
   1  -2 -14   19.60    0.64
   1  -2 -14   18.52    0.63
  -1   2  14   18.64    0.76
  -1   2  14   19.14    0.64
  -1   2  14   18.84    0.69
   0  -2 -14   20.72    0.68
   0  -2 -14   18.96    0.72
   0  -2 -14   20.94    0.68
   0   2  14   20.44    0.68
   0   2  14   20.67    0.68
   0   2  14   21.24    0.74
  -1  -2 -14    6.14    0.36
  -1  -2 -14    6.35    0.35
   1   2  14    6.11    0.34
  -2  -2 -14   15.33    0.58
  -2  -2 -14   13.71    0.78
   2   2  14   15.62    0.57
   2   2  14   14.93    0.62
  -3  -2 -14    8.54    0.43
   3   2  14    8.11    0.41
   3   2  14    8.78    0.43
   3   2  14    8.80    0.48
   5  -3 -14    1.49    0.19
   5  -3 -14    1.51    0.27
  -5   3  14    1.86    0.30
  -5   3  14    1.21    0.17
  -5   3  14    1.57    0.20
   4  -3 -14   12.14    0.58
  -4   3  14   12.03    0.48
  -4   3  14   11.47    0.59
  -4   3  14   11.79    0.47
   3  -3 -14    4.99    0.30
  -3   3  14    4.34    0.34
  -3   3  14    4.10    0.29
  -3   3  14    4.46    0.37
   2  -3 -14    0.93    0.17
  -2   3  14    0.74    0.13
  -2   3  14    0.74    0.17
  -2   3  14    0.72    0.16
   1  -3 -14    4.95    0.31
  -1   3  14    4.26    0.29
  -1   3  14    4.71    0.34
   0  -3 -14    0.32    0.11
   0  -3 -14    0.39    0.13
   0   3  14    0.46    0.13
  -1  -3 -14    4.01    0.29
  -1  -3 -14    4.79    0.31
   1   3  14    3.68    0.29
  -2  -3 -14    2.85    0.27
  -2  -3 -14    3.32    0.28
   2   3  14    3.32    0.27
   5  -4 -14    0.85    0.22
  -5   4  14    0.83    0.17
  -5   4  14    0.80    0.22
   4  -4 -14    2.62    0.24
   4  -4 -14    2.68    0.34
  -4   4  14    3.19    0.27
  -4   4  14    2.79    0.26
  -4   4  14    2.69    0.34
   3  -4 -14    0.79    0.16
  -3   4  14    0.69    0.13
  -3   4  14    0.66    0.15
   2  -4 -14   18.72    0.65
  -2   4  14   18.04    0.84
  -2   4  14   17.81    0.63
  -2   4  14   18.37    0.72
   1  -4 -14   43.32    1.19
  -1   4  14   42.34    1.19
  -1   4  14   42.83    1.45
   0  -4 -14    0.08    0.13
   0   4  14    0.32    0.13
  -1  -4 -14   10.60    0.49
   1   4  14    9.67    0.44
   1   4  14   10.81    0.49
  -2  -4 -14   10.46    0.51
   2   4  14   10.02    0.49
   2   4  14    9.77    0.48
   4  -5 -14    0.33    0.13
   4  -5 -14    0.40    0.20
  -4   5  14    0.52    0.16
  -4   5  14    0.39    0.14
  -4   5  14    0.30    0.15
   3  -5 -14    1.66    0.21
  -3   5  14    1.45    0.24
  -3   5  14    1.93    0.23
  -3   5  14    2.01    0.25
   2  -5 -14    3.87    0.31
  -2   5  14    3.79    0.31
  -2   5  14    3.80    0.34
   1  -5 -14    2.28    0.39
  -1   5  14    1.48    0.22
   0  -5 -14    1.50    0.22
   0   5  14    2.23    0.27
  -1  -5 -14    0.23    0.15
   1   5  14   -0.15    0.08
   1   5  14    0.03    0.12
   3  -6 -14    5.27    0.35
  -3   6  14    4.55    0.38
  -3   6  14    5.13    0.36
   2  -6 -14    7.77    0.45
  -2   6  14    8.20    0.45
   1  -6 -14    0.32    0.17
  -1   6  14    0.22    0.13
   0  -6 -14    4.67    0.36
   0   6  14    4.37    0.35
   0   6  14    3.74    0.25
   0   6 -15    1.40    0.21
   0  -6  15    1.46    0.23
   0  -6  15    1.32    0.22
  -1   6 -15    0.29    0.12
  -1   6 -15    0.42    0.11
   1  -6  15    0.27    0.15
   1  -6  15    0.13    0.12
   2   5 -15    0.96    0.20
  -2  -5  15    0.84    0.20
  -2  -5  15    0.68    0.21
   1   5 -15    8.09    0.43
  -1  -5  15    7.50    0.45
  -1  -5  15    8.34    0.56
   0   5 -15    2.34    0.26
   0   5 -15    2.70    0.17
   0  -5  15    3.03    0.30
   0  -5  15    2.48    0.30
  -1   5 -15    3.52    0.23
  -1   5 -15    3.71    0.31
   1  -5  15    3.64    0.32
   1  -5  15    3.92    0.29
  -2   5 -15    2.08    0.26
  -2   5 -15    2.59    0.24
   2  -5  15    1.71    0.22
   2  -5  15    1.99    0.19
   3   4 -15    4.80    0.33
  -3  -4  15    4.89    0.44
  -3  -4  15    4.27    0.34
   2   4 -15    2.44    0.26
  -2  -4  15    2.82    0.28
  -2  -4  15    2.83    0.35
   1   4 -15    0.88    0.18
  -1  -4  15    0.75    0.19
  -1  -4  15    0.93    0.20
   0   4 -15    3.78    0.28
   0   4 -15    4.29    0.41
   0  -4  15    4.42    0.34
   0  -4  15    4.20    0.32
  -1   4 -15   15.01    0.59
  -1   4 -15   14.25    0.54
   1  -4  15   14.86    0.58
   1  -4  15   15.27    0.55
  -2   4 -15    4.76    0.33
  -2   4 -15    4.29    0.28
  -2   4 -15    4.86    0.34
   2  -4  15    5.30    0.28
   2  -4  15    5.10    0.34
  -3   4 -15    0.91    0.18
  -3   4 -15    0.57    0.12
  -3   4 -15    0.93    0.17
   3  -4  15    0.90    0.18
   3   3 -15    3.92    0.22
   3   3 -15    4.32    0.30
  -3  -3  15    3.54    0.30
  -3  -3  15    3.11    0.30
  -3  -3  15    3.67    0.39
   2   3 -15    3.30    0.23
   2   3 -15    3.68    0.29
  -2  -3  15    3.62    0.29
  -2  -3  15    3.48    0.30
  -2  -3  15    3.77    0.41
   1   3 -15    1.83    0.23
   1   3 -15    1.54    0.32
  -1  -3  15    1.76    0.24
  -1  -3  15    1.55    0.20
   0   3 -15    6.11    0.36
   0   3 -15    6.44    0.36
   0  -3  15    6.33    0.37
   0  -3  15    6.09    0.38
  -1   3 -15    1.47    0.21
  -1   3 -15    1.97    0.37
  -1   3 -15    1.78    0.22
   1  -3  15    1.85    0.22
   1  -3  15    1.90    0.23
  -2   3 -15    2.05    0.23
  -2   3 -15    1.37    0.19
  -2   3 -15    1.57    0.22
   2  -3  15    1.50    0.19
   2  -3  15    2.26    0.22
  -3   3 -15    0.25    0.12
  -3   3 -15   -0.06    0.11
  -3   3 -15   -0.24    0.10
   3  -3  15    0.19    0.13
   4   2 -15    0.08    0.10
   4   2 -15    0.35    0.13
  -4  -2  15   -0.19    0.14
  -4  -2  15    0.31    0.13
  -4  -2  15   -0.19    0.12
   3   2 -15    1.83    0.21
   3   2 -15    1.96    0.21
  -3  -2  15    1.44    0.20
  -3  -2  15    1.96    0.30
  -3  -2  15    1.55    0.25
   2   2 -15    3.24    0.25
  -2  -2  15    2.73    0.33
  -2  -2  15    3.01    0.43
   1   2 -15    6.37    0.39
   1   2 -15    6.95    0.36
  -1  -2  15    6.87    0.37
  -1  -2  15    6.58    0.36
  -1  -2  15    7.27    0.43
   0   2 -15   31.28    0.98
   0   2 -15   33.21    0.95
   0   2 -15   32.12    0.95
   0  -2  15   32.37    1.10
   0  -2  15   33.11    0.98
   0  -2  15   32.90    0.95
  -1   2 -15    6.82    0.36
  -1   2 -15    6.34    0.34
  -1   2 -15    6.44    0.37
   1  -2  15    7.37    0.37
   1  -2  15    6.56    0.36
  -2   2 -15    1.80    0.21
  -2   2 -15    1.59    0.23
  -2   2 -15    1.85    0.21
   2  -2  15    1.63    0.21
  -3   2 -15    3.96    0.31
  -3   2 -15    4.80    0.31
  -3   2 -15    3.77    0.29
   3  -2  15    4.82    0.38
   3  -2  15    4.50    0.29
   4   1 -15    2.94    0.24
   4   1 -15    3.03    0.26
  -4  -1  15    3.17    0.28
  -4  -1  15    3.00    0.39
  -4  -1  15    2.24    0.25
   3   1 -15    3.48    0.28
   3   1 -15    3.76    0.27
  -3  -1  15    4.45    0.40
  -3  -1  15    3.13    0.21
  -3  -1  15    3.40    0.28
  -3  -1  15    3.74    0.29
   2   1 -15    2.60    0.23
  -2  -1  15    2.29    0.15
  -2  -1  15    2.01    0.22
  -2  -1  15    2.55    0.32
  -2  -1  15    2.40    0.25
   1   1 -15   16.00    0.56
   1   1 -15   14.95    0.56
   1   1 -15   14.21    0.60
  -1  -1  15   15.77    0.63
  -1  -1  15   15.57    0.57
   0   1 -15    5.58    0.32
   0   1 -15    5.76    0.36
   0  -1  15    5.83    0.36
   0  -1  15    5.25    0.31
   0  -1  15    5.67    0.33
  -1   1 -15    3.18    0.25
  -1   1 -15    2.68    0.27
  -1   1 -15    2.63    0.40
   1  -1  15    3.19    0.27
   1  -1  15    2.69    0.25
  -2   1 -15    7.58    0.37
  -2   1 -15    6.78    0.40
  -2   1 -15    7.55    0.38
   2  -1  15    7.80    0.27
   2  -1  15    7.42    0.37
  -3   1 -15    7.01    0.37
  -3   1 -15    7.51    0.38
   3  -1  15    7.50    0.46
   3  -1  15    7.05    0.31
   3  -1  15    7.23    0.36
   4   0 -15    3.68    0.26
   4   0 -15    3.86    0.31
  -4   0  15    3.61    0.28
  -4   0  15    3.42    0.39
  -4   0  15    3.28    0.27
   3   0 -15    1.68    0.21
  -3   0  15    1.38    0.17
  -3   0  15    1.48    0.18
  -3   0  15    1.93    0.29
  -3   0  15    1.75    0.31
   2   0 -15    2.09    0.22
  -2   0  15    1.92    0.27
  -2   0  15    1.86    0.16
  -2   0  15    2.44    0.24
  -2   0  15    2.54    0.23
   1   0 -15   10.29    0.50
   1   0 -15   11.75    0.46
  -1   0  15   11.35    0.47
  -1   0  15   10.88    0.46
  -1   0  15   11.40    0.52
   0   0 -15    3.79    0.27
   0   0 -15    4.04    0.31
   0   0 -15    4.43    0.29
   0   0  15    4.34    0.32
   0   0  15    4.07    0.28
  -1   0 -15   10.26    0.49
  -1   0 -15   11.35    0.46
   1   0  15   11.20    0.46
   1   0  15   11.37    0.49
  -2   0 -15    6.33    0.35
  -2   0 -15    7.06    0.36
   2   0  15    7.27    0.30
   2   0  15    6.84    0.36
  -3   0 -15    3.58    0.28
  -3   0 -15    3.70    0.29
   3   0  15    4.08    0.29
   3   0  15    3.30    0.34
   3   0  15    3.71    0.25
   5  -1 -15    3.34    0.32
   5  -1 -15    2.60    0.22
  -5   1  15    2.63    0.24
  -5   1  15    3.42    0.41
  -5   1  15    2.61    0.25
   4  -1 -15   10.84    0.57
   4  -1 -15    9.91    0.43
  -4   1  15   10.28    0.58
  -4   1  15   10.16    0.44
  -4   1  15    9.26    0.43
   3  -1 -15    7.77    0.37
  -3   1  15    8.65    0.58
  -3   1  15    7.54    0.34
  -3   1  15    7.31    0.37
   2  -1 -15   15.46    0.56
  -2   1  15   16.82    0.58
  -2   1  15   15.69    0.50
  -2   1  15   15.83    0.56
  -2   1  15   15.57    0.65
   1  -1 -15    5.91    0.32
   1  -1 -15    5.18    0.36
   1  -1 -15    5.68    0.32
  -1   1  15    5.68    0.32
  -1   1  15    5.99    0.33
  -1   1  15    5.39    0.37
   0  -1 -15    1.56    0.20
   0  -1 -15    1.14    0.18
   0  -1 -15    1.53    0.21
   0   1  15    1.48    0.20
   0   1  15    1.70    0.23
   0   1  15    1.80    0.21
  -1  -1 -15   11.67    0.48
  -1  -1 -15   11.03    0.47
   1   1  15   11.58    0.47
  -2  -1 -15    8.75    0.41
  -2  -1 -15    7.44    0.42
   2   1  15    8.05    0.40
   2   1  15    8.54    0.36
  -3  -1 -15    2.13    0.25
   3   1  15    2.06    0.23
   3   1  15    2.12    0.24
   3   1  15    1.72    0.24
   5  -2 -15    1.92    0.20
   5  -2 -15    1.83    0.30
  -5   2  15    1.74    0.28
  -5   2  15    2.10    0.23
  -5   2  15    1.41    0.20
   4  -2 -15    0.31    0.16
   4  -2 -15    0.11    0.10
  -4   2  15   -0.02    0.10
  -4   2  15    0.12    0.11
  -4   2  15    0.32    0.18
   3  -2 -15    1.96    0.21
  -3   2  15    1.84    0.22
  -3   2  15    2.05    0.24
  -3   2  15    1.83    0.20
  -3   2  15    1.99    0.40
   2  -2 -15    0.30    0.12
  -2   2  15    0.56    0.16
  -2   2  15    0.37    0.14
  -2   2  15    0.33    0.15
   1  -2 -15   10.95    0.47
  -1   2  15   11.39    0.53
  -1   2  15   10.71    0.46
  -1   2  15   10.67    0.46
   0  -2 -15   33.07    0.97
   0  -2 -15   33.45    0.97
   0   2  15   32.47    0.96
   0   2  15   33.53    1.03
  -1  -2 -15    2.67    0.25
  -1  -2 -15    2.16    0.24
   1   2  15    2.50    0.24
  -2  -2 -15    4.96    0.33
  -2  -2 -15    4.94    0.33
   2   2  15    5.21    0.32
   2   2  15    4.87    0.36
   4  -3 -15    8.86    0.39
   4  -3 -15    8.77    0.52
  -4   3  15    8.16    0.41
  -4   3  15    8.77    0.41
  -4   3  15    9.26    0.53
   3  -3 -15    4.80    0.31
  -3   3  15    4.55    0.31
  -3   3  15    5.32    0.40
  -3   3  15    4.90    0.30
   2  -3 -15    3.39    0.27
  -2   3  15    3.27    0.27
  -2   3  15    3.27    0.49
  -2   3  15    3.38    0.36
   1  -3 -15    2.93    0.27
  -1   3  15    2.36    0.25
  -1   3  15    2.82    0.31
   0  -3 -15   27.10    0.89
   0   3  15   25.43    0.83
  -1  -3 -15   10.09    0.48
   1   3  15   10.16    0.48
  -2  -3 -15    2.39    0.27
   2   3  15    1.89    0.26
   2   3  15    2.10    0.25
   4  -4 -15    1.42    0.19
   4  -4 -15    1.11    0.27
  -4   4  15    1.42    0.23
  -4   4  15    1.74    0.22
  -4   4  15    1.53    0.20
   3  -4 -15    0.43    0.13
  -3   4  15    0.30    0.12
  -3   4  15    0.17    0.12
  -3   4  15    0.44    0.16
   2  -4 -15    7.10    0.39
  -2   4  15    7.26    0.46
  -2   4  15    7.09    0.40
   1  -4 -15    1.96    0.25
  -1   4  15    1.61    0.22
  -1   4  15    2.09    0.27
   0  -4 -15    0.64    0.17
   0   4  15    0.67    0.19
  -1  -4 -15    2.39    0.27
   1   4  15    2.13    0.40
   1   4  15    2.34    0.25
   4  -5 -15    0.57    0.23
   4  -5 -15    0.60    0.16
  -4   5  15    0.68    0.18
  -4   5  15    0.74    0.18
  -4   5  15    0.89    0.20
   3  -5 -15    3.47    0.30
  -3   5  15    4.06    0.36
  -3   5  15    3.57    0.31
   2  -5 -15    5.74    0.37
  -2   5  15    5.65    0.37
  -2   5  15    5.84    0.41
   1  -5 -15   27.05    0.89
  -1   5  15   26.87    0.89
   0  -5 -15    1.69    0.25
   0   5  15    2.11    0.27
   2  -6 -15    0.33    0.16
  -2   6  15    0.00    0.11
   1   5 -16    1.98    0.27
  -1  -5  16    2.13    0.29
  -1  -5  16    1.99    0.28
   0   5 -16    0.12    0.12
   0   5 -16    0.20    0.09
   0  -5  16   -0.03    0.14
   0  -5  16    0.11    0.14
  -1   5 -16    1.33    0.21
   1  -5  16    1.83    0.27
   1  -5  16    1.53    0.20
  -2   5 -16    2.62    0.28
   2  -5  16    2.14    0.27
   2  -5  16    2.10    0.20
   2   4 -16    1.21    0.33
  -2  -4  16    0.86    0.24
  -2  -4  16    1.32    0.25
   1   4 -16    2.88    0.28
  -1  -4  16    3.41    0.32
  -1  -4  16    3.21    0.47
   0   4 -16    4.76    0.34
   0  -4  16    4.80    0.35
   0  -4  16    3.77    0.34
  -1   4 -16    6.19    0.36
  -1   4 -16    7.01    0.40
   1  -4  16    6.40    0.40
   1  -4  16    7.47    0.38
  -2   4 -16    5.11    0.35
  -2   4 -16    4.14    0.30
   2  -4  16    5.35    0.30
   2  -4  16    4.82    0.34
   3   3 -16    0.85    0.14
   3   3 -16    0.43    0.12
  -3  -3  16    0.43    0.15
  -3  -3  16    0.59    0.23
   2   3 -16    5.10    0.34
  -2  -3  16    5.00    0.42
  -2  -3  16    4.73    0.35
   1   3 -16    0.29    0.13
  -1  -3  16    0.16    0.14
  -1  -3  16    0.13    0.14
   0   3 -16    2.13    0.26
   0  -3  16    2.61    0.28
   0  -3  16    2.74    0.27
  -1   3 -16    3.23    0.28
  -1   3 -16    2.80    0.27
   1  -3  16    3.28    0.28
   1  -3  16    3.97    0.29
  -2   3 -16    5.75    0.36
  -2   3 -16    5.35    0.34
   2  -3  16    5.68    0.35
   2  -3  16    6.08    0.33
  -3   3 -16    5.60    0.34
  -3   3 -16    4.24    0.37
  -3   3 -16    4.54    0.34
   3  -3  16    5.45    0.34
   3   2 -16    2.89    0.24
   3   2 -16    2.50    0.25
  -3  -2  16    3.22    0.38
  -3  -2  16    2.10    0.27
  -3  -2  16    2.40    0.26
   2   2 -16   11.55    0.49
  -2  -2  16   11.92    0.51
  -2  -2  16   10.21    0.48
  -2  -2  16   12.03    0.59
   1   2 -16    3.63    0.29
  -1  -2  16    3.87    0.36
  -1  -2  16    3.19    0.28
   0   2 -16    0.13    0.12
   0   2 -16    0.13    0.12
   0  -2  16    0.23    0.13
   0  -2  16    0.16    0.12
  -1   2 -16    2.02    0.23
  -1   2 -16    2.33    0.23
  -1   2 -16    1.78    0.25
   1  -2  16    2.25    0.25
   1  -2  16    2.36    0.25
  -2   2 -16    1.27    0.19
  -2   2 -16    0.79    0.18
  -2   2 -16    1.10    0.18
   2  -2  16    0.91    0.17
  -3   2 -16    5.24    0.33
  -3   2 -16    5.21    0.36
   3  -2  16    5.10    0.32
   3  -2  16    4.27    0.38
   4   1 -16    1.26    0.21
   4   1 -16    1.18    0.18
  -4  -1  16    1.14    0.26
  -4  -1  16    0.78    0.17
  -4  -1  16    1.28    0.20
   3   1 -16   11.60    0.47
   3   1 -16   11.76    0.50
  -3  -1  16   11.88    0.61
  -3  -1  16   11.85    0.51
  -3  -1  16   10.99    0.40
  -3  -1  16   10.21    0.58
   2   1 -16    3.60    0.26
  -2  -1  16    2.67    0.26
  -2  -1  16    2.68    0.50
  -2  -1  16    3.20    0.30
  -2  -1  16    2.77    0.17
   1   1 -16    7.16    0.37
  -1  -1  16    6.86    0.43
  -1  -1  16    6.20    0.36
  -1  -1  16    6.59    0.37
   0   1 -16    7.67    0.43
   0   1 -16    7.88    0.48
   0   1 -16    8.78    0.41
   0  -1  16    7.90    0.40
   0  -1  16    8.18    0.43
  -1   1 -16   11.26    0.47
  -1   1 -16   10.31    0.49
  -1   1 -16   10.37    0.53
   1  -1  16   11.46    0.48
   1  -1  16   10.90    0.49
  -2   1 -16    2.52    0.24
  -2   1 -16    2.39    0.24
   2  -1  16    2.64    0.25
   2  -1  16    2.21    0.15
  -3   1 -16    2.88    0.32
  -3   1 -16    3.72    0.29
   3  -1  16    3.03    0.21
   3  -1  16    3.49    0.28
   3  -1  16    2.61    0.32
   4   0 -16    2.33    0.39
   4   0 -16    2.06    0.22
  -4   0  16    1.96    0.24
  -4   0  16    1.70    0.30
  -4   0  16    1.95    0.24
   3   0 -16   12.59    0.49
  -3   0  16   10.88    0.42
  -3   0  16   13.53    0.53
  -3   0  16   12.65    0.63
  -3   0  16   11.88    0.50
   2   0 -16    3.68    0.27
  -2   0  16    3.92    0.28
  -2   0  16    3.89    0.33
  -2   0  16    3.63    0.38
  -2   0  16    3.50    0.20
   1   0 -16    3.42    0.27
  -1   0  16    3.27    0.28
  -1   0  16    3.18    0.17
  -1   0  16    3.35    0.26
  -1   0  16    3.34    0.33
   0   0 -16    8.62    0.41
   0   0  16    8.94    0.45
   0   0  16    8.69    0.42
  -1   0 -16   16.02    0.61
  -1   0 -16   14.68    0.57
   1   0  16   15.55    0.62
   1   0  16   15.57    0.58
  -2   0 -16    4.02    0.30
  -2   0 -16    3.54    0.28
   2   0  16    4.05    0.22
   2   0  16    3.96    0.29
  -3   0 -16   10.67    0.47
  -3   0 -16    9.08    0.45
   3   0  16    9.26    0.44
   3   0  16    9.80    0.40
   3   0  16    9.41    0.53
   4  -1 -16    2.28    0.29
   4  -1 -16    1.64    0.21
  -4   1  16    2.01    0.25
  -4   1  16    1.74    0.31
  -4   1  16    1.61    0.23
   3  -1 -16    7.78    0.38
  -3   1  16    8.08    0.40
  -3   1  16    7.47    0.39
  -3   1  16    7.82    0.50
  -3   1  16    7.83    0.39
   2  -1 -16    4.37    0.29
  -2   1  16    4.59    0.35
  -2   1  16    4.04    0.43
  -2   1  16    3.78    0.23
   1  -1 -16    5.62    0.33
  -1   1  16    5.31    0.33
  -1   1  16    5.70    0.39
  -1   1  16    4.84    0.32
   0  -1 -16   11.47    0.49
   0   1  16   11.58    0.49
   0   1  16   11.87    0.54
  -1  -1 -16    2.37    0.24
  -1  -1 -16    2.22    0.24
   1   1  16    2.77    0.25
  -2  -1 -16    7.74    0.40
  -2  -1 -16    6.94    0.38
   2   1  16    6.90    0.37
   2   1  16    7.36    0.34
   4  -2 -16   16.15    0.58
   4  -2 -16   16.07    0.69
  -4   2  16   15.04    0.58
  -4   2  16   15.86    0.73
  -4   2  16   15.76    0.59
   3  -2 -16    2.95    0.26
  -3   2  16    2.32    0.33
  -3   2  16    2.70    0.38
  -3   2  16    2.08    0.22
  -3   2  16    2.73    0.26
   2  -2 -16    0.10    0.09
  -2   2  16    0.09    0.11
  -2   2  16    0.02    0.13
  -2   2  16    0.10    0.13
   1  -2 -16   16.06    0.61
  -1   2  16   17.98    0.96
   0  -2 -16    2.78    0.30
   0   2  16    2.57    0.26
   0   2  16    2.82    0.31
  -1  -2 -16   -0.03    0.11
   1   2  16    0.19    0.14
  -2  -2 -16    3.43    0.30
   2   2  16    3.04    0.28
   2   2  16    3.07    0.31
   4  -3 -16    9.62    0.56
   4  -3 -16    9.21    0.43
  -4   3  16    8.85    0.44
  -4   3  16    8.96    0.43
  -4   3  16    9.03    0.55
   3  -3 -16    0.49    0.13
  -3   3  16    0.68    0.16
  -3   3  16    0.48    0.14
  -3   3  16    0.59    0.18
   2  -3 -16    3.82    0.29
  -2   3  16    3.88    0.34
  -2   3  16    3.47    0.29
   1  -3 -16   15.65    0.61
  -1   3  16   15.98    0.67
   0  -3 -16    8.12    0.44
   0   3  16    8.87    0.50
  -1  -3 -16    2.97    0.29
   1   3  16    2.88    0.29
   4  -4 -16    0.97    0.19
   4  -4 -16    1.22    0.28
  -4   4  16    1.18    0.21
  -4   4  16    0.91    0.16
  -4   4  16    1.01    0.23
   3  -4 -16    4.00    0.31
  -3   4  16    3.88    0.37
  -3   4  16    3.82    0.31
   2  -4 -16    3.48    0.30
  -2   4  16    3.70    0.35
  -2   4  16    3.01    0.29
   1  -4 -16    0.50    0.15
  -1   4  16    0.39    0.16
  -1   4  16    0.53    0.17
   0  -4 -16    0.54    0.16
   0   4  16    0.49    0.16
  -1  -4 -16    1.01    0.21
   1   4  16    0.64    0.15
   1   4  16    0.96    0.19
   3  -5 -16    2.02    0.25
  -3   5  16    2.30    0.32
  -3   5  16    1.47    0.22
   2  -5 -16    5.01    0.36
  -2   5  16    5.09    0.38
  -2   5  16    5.14    0.40
   1  -5 -16    5.05    0.37
  -1   5  16    4.99    0.37
   0  -5 -16    0.24    0.14
   0   5  16   -0.06    0.15
   0   5 -17    0.65    0.12
   0   5 -17    0.64    0.19
   0  -5  17    0.38    0.32
  -1   5 -17    1.60    0.23
   1  -5  17    1.74    0.23
   2   4 -17    4.05    0.33
   2   4 -17    4.06    0.27
  -2  -4  17    3.71    0.41
  -2  -4  17    3.41    0.34
   1   4 -17    5.20    0.36
  -1  -4  17    4.93    0.38
  -1  -4  17    4.99    0.41
   0   4 -17    1.32    0.20
   0  -4  17    1.20    0.21
   0  -4  17    1.43    0.23
  -1   4 -17    2.29    0.27
  -1   4 -17    1.57    0.22
   1  -4  17    1.99    0.28
   1  -4  17    2.14    0.25
  -2   4 -17    3.18    0.31
   2  -4  17    3.50    0.25
   2  -4  17    2.67    0.28
   2   3 -17    4.17    0.33
  -2  -3  17    4.56    0.42
  -2  -3  17    4.51    0.35
   1   3 -17    3.02    0.29
  -1  -3  17    3.64    0.37
  -1  -3  17    3.37    0.31
   0   3 -17    7.06    0.40
   0  -3  17    7.16    0.41
   0  -3  17    7.00    0.42
  -1   3 -17    0.33    0.16
  -1   3 -17    0.69    0.17
   1  -3  17    0.54    0.16
   1  -3  17    0.83    0.16
  -2   3 -17    1.19    0.19
  -2   3 -17    0.85    0.19
   2  -3  17    1.35    0.20
   3   2 -17    2.52    0.25
   3   2 -17    2.34    0.25
  -3  -2  17    3.21    0.39
  -3  -2  17    3.05    0.29
   2   2 -17    4.40    0.32
  -2  -2  17    4.34    0.41
  -2  -2  17    3.65    0.31
   1   2 -17    3.56    0.29
  -1  -2  17    3.70    0.57
  -1  -2  17    4.05    0.32
   0   2 -17   -0.02    0.10
   0  -2  17    0.04    0.12
   0  -2  17    0.04    0.12
  -1   2 -17    3.00    0.27
   1  -2  17    3.05    0.29
   1  -2  17    3.40    0.29
  -2   2 -17    9.99    0.47
   2  -2  17    9.32    0.45
   3   1 -17    0.84    0.17
   3   1 -17    0.74    0.20
  -3  -1  17    0.76    0.19
  -3  -1  17    0.88    0.24
  -3  -1  17    0.50    0.15
  -3  -1  17    0.68    0.11
   2   1 -17    7.82    0.39
  -2  -1  17    6.95    0.27
  -2  -1  17    7.44    0.49
  -2  -1  17    7.40    0.41
   1   1 -17    8.65    0.41
  -1  -1  17    8.56    0.56
  -1  -1  17    7.87    0.65
   0  -1  17    2.03    0.28
   0  -1  17    1.87    0.25
  -1   1 -17    1.21    0.18
   1  -1  17    1.16    0.19
   1  -1  17    1.31    0.20
  -2   1 -17    0.06    0.10
   2  -1  17    0.14    0.12
   4   0 -17    2.19    0.25
   4   0 -17    2.55    0.29
  -4   0  17    1.79    0.30
  -4   0  17    2.11    0.32
  -4   0  17    2.17    0.26
   3   0 -17    8.83    0.42
  -3   0  17    7.45    0.34
  -3   0  17    8.84    0.44
  -3   0  17    8.76    0.54
  -3   0  17    8.16    0.42
   2   0 -17    3.77    0.28
  -2   0  17    3.70    0.29
  -2   0  17    3.75    0.37
  -2   0  17    3.73    0.21
  -2   0  17    3.23    0.30
   1   0 -17    3.08    0.26
  -1   0  17    3.00    0.18
  -1   0  17    2.65    0.33
   0   0  17   13.83    0.59
   0   0  17   13.67    0.55
  -1   0 -17   13.57    0.55
   1   0  17   13.58    0.55
   1   0  17   13.35    0.45
  -2   0 -17    1.07    0.19
   2   0  17    0.72    0.12
   2   0  17    0.97    0.17
   4  -1 -17    1.29    0.18
   4  -1 -17    1.31    0.26
  -4   1  17    1.17    0.36
  -4   1  17    1.28    0.27
  -4   1  17    1.18    0.21
   3  -1 -17    9.76    0.43
  -3   1  17    9.49    0.56
  -3   1  17    9.38    0.45
  -3   1  17    9.01    0.39
  -3   1  17    9.14    0.44
   2  -1 -17    2.62    0.25
  -2   1  17    2.51    0.32
  -2   1  17    2.27    0.25
  -2   1  17    2.09    0.19
   1  -1 -17    1.55    0.23
  -1   1  17    1.45    0.24
   0  -1 -17    2.56    0.26
   0   1  17    2.46    0.26
   0   1  17    2.28    0.28
  -1  -1 -17    8.22    0.43
   1   1  17    7.87    0.42
  -2  -1 -17    5.01    0.34
   2   1  17    4.37    0.27
   2   1  17    4.10    0.31
   4  -2 -17    6.35    0.37
   4  -2 -17    7.57    0.50
  -4   2  17    6.44    0.44
  -4   2  17    7.37    0.53
  -4   2  17    7.22    0.40
   3  -2 -17    1.05    0.17
  -3   2  17    1.20    0.20
  -3   2  17    1.27    0.26
  -3   2  17    1.14    0.19
   2  -2 -17   11.51    0.50
  -2   2  17   11.13    0.50
  -2   2  17   10.83    0.56
   1  -2 -17    6.80    0.38
  -1   2  17    6.68    0.43
  -1   2  17    5.95    0.38
   0  -2 -17    9.83    0.48
   0   2  17    9.80    0.52
   0   2  17   11.37    0.73
  -1  -2 -17    0.71    0.17
   1   2  17    0.60    0.16
   2   2  17    0.70    0.18
   4  -3 -17    8.34    0.55
   4  -3 -17    8.38    0.42
  -4   3  17    7.63    0.42
  -4   3  17    7.72    0.42
  -4   3  17    8.64    0.54
   3  -3 -17    0.77    0.17
  -3   3  17    1.06    0.18
  -3   3  17    0.96    0.23
   2  -3 -17    1.29    0.20
  -2   3  17    1.00    0.18
  -2   3  17    0.82    0.17
   1  -3 -17    0.12    0.13
  -1   3  17    0.37    0.16
  -1   3  17    0.57    0.19
   0  -3 -17   15.46    0.63
   0   3  17   15.82    0.63
  -1  -3 -17    0.47    0.16
   1   3  17    0.47    0.15
   3  -4 -17    6.29    0.38
  -3   4  17    5.70    0.38
  -3   4  17    6.28    0.44
   2  -4 -17    1.31    0.26
  -2   4  17    1.31    0.24
  -2   4  17    0.70    0.17
   1  -4 -17   21.03    0.77
  -1   4  17   20.18    0.76
  -1   4  17   20.53    0.82
   0  -4 -17    2.40    0.28
   0   4  17    1.68    0.23
   1   4 -18    0.40    0.17
  -1  -4  18    0.20    0.17
  -1  -4  18    0.20    0.17
   0   4 -18    3.47    0.31
   0  -4  18    3.83    0.36
   0  -4  18    3.63    0.34
  -1   4 -18   -0.06    0.10
   1  -4  18   -0.04    0.14
   1  -4  18    0.21    0.11
   2   3 -18    4.22    0.33
  -2  -3  18    4.14    0.43
  -2  -3  18    4.59    0.36
   1   3 -18    3.75    0.32
  -1  -3  18    3.67    0.38
   0   3 -18    1.52    0.23
   0  -3  18    1.55    0.29
   0  -3  18    1.29    0.22
  -1   3 -18    4.94    0.36
   1  -3  18    4.18    0.34
   1  -3  18    5.14    0.35
   3   2 -18   -0.02    0.13
   3   2 -18   -0.05    0.10
  -3  -2  18    0.06    0.17
  -3  -2  18    0.11    0.15
   2   2 -18    4.57    0.38
  -2  -2  18    4.49    0.43
  -2  -2  18    4.48    0.35
   1   2 -18    3.28    0.30
  -1  -2  18    3.57    0.37
  -1  -2  18    3.75    0.33
   0   2 -18    0.14    0.14
   0  -2  18    0.28    0.18
   0  -2  18    0.06    0.12
  -1   2 -18    5.17    0.35
   1  -2  18    5.47    0.39
   1  -2  18    5.63    0.40
  -2   2 -18    5.26    0.35
   2  -2  18    4.93    0.34
   3   1 -18    0.35    0.14
  -3  -1  18    0.05    0.09
  -3  -1  18    0.34    0.21
  -3  -1  18    0.33    0.16
   2   1 -18    4.49    0.32
  -2  -1  18    4.13    0.20
  -2  -1  18    5.00    0.35
  -2  -1  18    4.63    0.43
   1   1 -18   -0.10    0.13
  -1  -1  18    0.12    0.13
  -1  -1  18    0.11    0.15
   0   1 -18    4.99    0.34
   0  -1  18    4.22    0.34
   0  -1  18    5.22    0.37
  -1   1 -18    6.98    0.40
   1  -1  18    7.86    0.44
   1  -1  18    7.49    0.41
  -2   1 -18    8.22    0.43
   2  -1  18    8.79    0.44
   3   0 -18   14.01    0.55
  -3   0  18   13.89    0.57
  -3   0  18   12.31    0.46
  -3   0  18   13.92    0.69
   2   0 -18    1.86    0.23
  -2   0  18    1.13    0.19
  -2   0  18    1.22    0.23
  -2   0  18    1.14    0.13
   1   0 -18    3.16    0.46
  -1   0  18    2.10    0.30
  -1   0  18    2.36    0.27
   0   0 -18    5.67    0.36
   0   0  18    5.70    0.43
   0   0  18    6.38    0.41
  -1   0 -18    2.94    0.28
   1   0  18    2.98    0.29
   1   0  18    3.36    0.31
  -2   0 -18    0.14    0.12
   2   0  18    0.23    0.13
   2   0  18   -0.01    0.08
   3  -1 -18    7.74    0.40
  -3   1  18    7.40    0.52
  -3   1  18    6.36    0.33
  -3   1  18    7.76    0.42
   2  -1 -18    0.84    0.16
  -2   1  18    0.94    0.18
  -2   1  18    1.07    0.23
   1  -1 -18    4.46    0.38
  -1   1  18    4.91    0.35
  -1   1  18    5.04    0.39
   0  -1 -18    5.48    0.36
   0   1  18    4.74    0.34
   0   1  18    4.75    0.38
  -1  -1 -18   17.20    0.67
   1   1  18   17.39    0.90
   3  -2 -18    0.62    0.15
  -3   2  18    0.49    0.19
  -3   2  18    0.74    0.18
   2  -2 -18    1.16    0.19
  -2   2  18    1.16    0.22
  -2   2  18    1.08    0.20
   1  -2 -18    1.20    0.19
  -1   2  18    1.34    0.23
  -1   2  18    1.24    0.23
   0  -2 -18    8.26    0.44
   0   2  18    8.44    0.49
   0   2  18    8.23    0.45
  -1  -2 -18    0.27    0.14
   1   2  18    0.27    0.13
   3  -3 -18    2.26    0.26
  -3   3  18    2.79    0.35
  -3   3  18    2.13    0.27
   2  -3 -18    2.42    0.29
  -2   3  18    2.47    0.31
   1  -3 -18    1.72    0.26
  -1   3  18    1.30    0.21
  -1   3  18    1.48    0.26
   0  -3 -18    9.61    0.50
   0   3  18    9.42    0.49
   2  -4 -18    0.96    0.21
  -2   4  18    0.87    0.19
  -2   4  18    1.22    0.22
   1  -4 -18    7.82    0.46
  -1   4  18    7.93    0.50
  -1   4  18    7.76    0.45
   1   3 -19    1.39    0.23
  -1  -3  19    1.15    0.25
  -1  -3  19    1.22    0.21
   0   3 -19    0.64    0.17
   0  -3  19    0.34    0.16
   0  -3  19    0.46    0.17
   2   2 -19   18.96    0.69
  -2  -2  19   17.75    0.72
  -2  -2  19   18.24    0.80
   1   2 -19    1.58    0.24
  -1  -2  19    1.19    0.20
  -1  -2  19    1.32    0.25
   0   2 -19    1.18    0.21
   0  -2  19    1.28    0.22
   0  -2  19    1.21    0.22
  -1   2 -19    4.09    0.33
   1  -2  19    5.17    0.36
   1  -2  19    4.44    0.34
   2   1 -19    4.10    0.32
  -2  -1  19    3.58    0.41
  -2  -1  19    3.46    0.33
   1   1 -19    3.87    0.31
  -1  -1  19    3.57    0.37
  -1  -1  19    4.06    0.34
   0   1 -19    1.81    0.26
   0  -1  19    2.04    0.28
   0  -1  19    1.38    0.20
  -1   1 -19    0.80    0.17
   1  -1  19    0.86    0.18
   3   0 -19   12.35    0.53
  -3   0  19   13.05    0.56
  -3   0  19   11.63    0.45
  -3   0  19   12.25    0.67
   2   0 -19    0.80    0.19
  -2   0  19    0.58    0.11
  -2   0  19    1.07    0.25
  -2   0  19    0.61    0.16
   1   0 -19    1.58    0.24
  -1   0  19    1.34    0.21
  -1   0  19    1.66    0.25
   0   0 -19    0.81    0.18
   0   0  19    0.77    0.16
   0   0  19    0.69    0.17
  -1   0 -19   10.64    0.51
   1   0  19   10.15    0.53
   1   0  19   10.43    0.50
   3  -1 -19    6.80    0.38
  -3   1  19    5.29    0.36
  -3   1  19    6.55    0.50
  -3   1  19    6.77    0.41
   2  -1 -19   10.09    0.50
  -2   1  19   10.62    0.51
  -2   1  19    9.09    0.38
  -2   1  19   10.26    0.56
   1  -1 -19    0.81    0.17
  -1   1  19    1.11    0.22
  -1   1  19    1.27    0.24
   0  -1 -19    0.25    0.13
   0   1  19    0.24    0.16
   0   1  19    0.43    0.16
  -1  -1 -19    3.34    0.31
   1   1  19    3.27    0.30
  -3   2  19    1.75    0.29
   2  -2 -19    1.39    0.23
  -2   2  19    0.95    0.23
  -2   2  19    0.95    0.19
   1  -2 -19    0.37    0.16
  -1   2  19    0.63    0.19
  -1   2  19    0.63    0.19
   0  -2 -19   23.62    0.82
   0   2  19   22.78    0.81
   0   2  19   22.20    0.86
   2  -3 -19    0.83    0.20
  -2   3  19    0.96    0.22
  -2   3  19    0.86    0.17
   1  -3 -19    2.38    0.29
  -1   3  19    2.46    0.31
  -1   3  19    1.68    0.23
   1   1 -20    4.08    0.32
  -1  -1  20    4.24    0.35
  -1  -1  20    4.14    0.38
   0   1 -20    1.43    0.21
   0  -1  20    1.31    0.23
   0  -1  20    1.33    0.23
   2   0 -20    1.34    0.21
  -2   0  20    1.58    0.27
  -2   0  20    1.42    0.23
   1   0 -20    1.15    0.21
  -1   0  20    0.91    0.19
  -1   0  20    0.86    0.21
  -1   0  20    0.75    0.11
   0   0 -20    0.82    0.17
   0   0  20    0.70    0.19
   0   0  20    0.50    0.17
   2  -1 -20    0.54    0.16
  -2   1  20    0.07    0.11
  -2   1  20    0.48    0.15
  -2   1  20    0.44    0.18
   1  -1 -20    1.26    0.21
  -1   1  20    0.91    0.18
  -1   1  20    1.36    0.27
   0   0   0    0.00    0.00
;
_shelx_hkl_checksum              61261
loop_
_space_group_symop_operation_xyz
'x, y, z'
'-x, -y, -z'
loop_
_atom_site_label
_atom_site_type_symbol
_atom_site_fract_x
_atom_site_fract_y
_atom_site_fract_z
_atom_site_U_iso_or_equiv
_atom_site_adp_type
_atom_site_occupancy
_atom_site_site_symmetry_order
_atom_site_calc_flag
_atom_site_refinement_flags_posn
_atom_site_refinement_flags_adp
_atom_site_refinement_flags_occupancy
_atom_site_disorder_assembly
_atom_site_disorder_group
H1 H -0.985(7) -0.055(9) 0.070(3) 0.22(3) Uiso 1 1 d D . . . .
Cu1 Cu 1.000000 1.000000 0.500000 0.02297(9) Uani 1 2 d S . P . .
O1 O 0.2548(2) 0.7164(2) 0.54910(8) 0.0386(3) Uani 1 1 d . . . . .
O2 O 0.7017(2) 0.89271(16) 0.56704(7) 0.0268(2) Uani 1 1 d . . . . .
O3 O -0.8274(3) -0.0047(2) 0.10085(9) 0.0473(4) Uani 1 1 d D . . . .
O4 O -0.6900(3) 0.1783(2) -0.00875(8) 0.0463(3) Uani 1 1 d . . . . .
N1 N 0.7505(2) 0.82266(18) 0.40667(8) 0.0215(2) Uani 1 1 d . . . . .
C1 C 0.4812(3) 0.7775(2) 0.52397(9) 0.0236(3) Uani 1 1 d . . . . .
C2 C 0.5087(3) 0.7246(2) 0.43245(9) 0.0212(3) Uani 1 1 d . . . . .
C3 C 0.2952(3) 0.5953(2) 0.37873(9) 0.0228(3) Uani 1 1 d . . . . .
H3A H 0.132865 0.526499 0.399384 0.027 Uiso 1 1 calc R U . . .
C4 C 0.3264(3) 0.5692(2) 0.29267(9) 0.0228(3) Uani 1 1 d . . . . .
C5 C 0.5785(3) 0.6721(2) 0.26650(10) 0.0264(3) Uani 1 1 d . . . . .
H5 H 0.607502 0.657549 0.209907 0.032 Uiso 1 1 calc R U . . .
C6 C 0.7855(3) 0.7961(2) 0.32494(10) 0.0246(3) Uani 1 1 d . . . . .
H6 H 0.953378 0.862795 0.306877 0.029 Uiso 1 1 calc R U . . .
C7 C 0.0896(3) 0.4448(2) 0.23198(9) 0.0239(3) Uani 1 1 d . . . . .
C8 C -0.1056(3) 0.2881(2) 0.26210(10) 0.0300(3) Uani 1 1 d . . . . .
H8 H -0.075117 0.252326 0.318576 0.036 Uiso 1 1 calc R U . . .
C9 C -0.3444(3) 0.1854(2) 0.20874(11) 0.0316(3) Uani 1 1 d . . . . .
H9 H -0.474983 0.082556 0.229809 0.038 Uiso 1 1 calc R U . . .
C10 C -0.3897(3) 0.2352(2) 0.12370(10) 0.0278(3) Uani 1 1 d . . . . .
C11 C -0.1933(3) 0.3878(3) 0.09248(10) 0.0328(4) Uani 1 1 d . . . . .
H11 H -0.221522 0.420102 0.035412 0.039 Uiso 1 1 calc R U . . .
C12 C 0.0454(3) 0.4924(3) 0.14604(10) 0.0306(3) Uani 1 1 d . . . . .
H12 H 0.176433 0.594440 0.124711 0.037 Uiso 1 1 calc R U . . .
C13 C -0.6524(3) 0.1292(2) 0.06820(11) 0.0316(3) Uani 1 1 d . . . . .
loop_
_atom_site_aniso_label
_atom_site_aniso_U_11
_atom_site_aniso_U_22
_atom_site_aniso_U_33
_atom_site_aniso_U_23
_atom_site_aniso_U_13
_atom_site_aniso_U_12
Cu1 0.01514(13) 0.02690(14) 0.02077(14) -0.00579(9) -0.00039(9) -0.00253(9)
O1 0.0256(6) 0.0492(8) 0.0307(6) -0.0067(5) 0.0092(5) -0.0082(5)
O2 0.0212(5) 0.0319(6) 0.0210(5) -0.0048(4) 0.0007(4) -0.0014(4)
O3 0.0322(7) 0.0457(8) 0.0461(8) 0.0031(6) -0.0117(6) -0.0101(6)
O4 0.0386(7) 0.0520(8) 0.0329(7) 0.0000(6) -0.0145(5) -0.0036(6)
N1 0.0166(5) 0.0222(6) 0.0224(6) -0.0035(5) -0.0006(4) 0.0017(4)
C1 0.0209(7) 0.0242(7) 0.0222(7) -0.0010(5) 0.0015(5) 0.0014(5)
C2 0.0186(6) 0.0212(7) 0.0213(7) -0.0018(5) -0.0006(5) 0.0028(5)
C3 0.0182(6) 0.0223(7) 0.0241(7) -0.0013(5) 0.0001(5) 0.0008(5)
C4 0.0205(7) 0.0217(7) 0.0233(7) -0.0039(5) -0.0024(5) 0.0039(5)
C5 0.0239(7) 0.0309(8) 0.0221(7) -0.0055(6) 0.0018(5) 0.0047(6)
C6 0.0179(7) 0.0275(7) 0.0256(7) -0.0026(6) 0.0032(5) 0.0022(5)
C7 0.0208(7) 0.0241(7) 0.0232(7) -0.0062(5) -0.0021(5) 0.0033(5)
C8 0.0310(8) 0.0276(8) 0.0239(7) 0.0002(6) -0.0051(6) 0.0003(6)
C9 0.0285(8) 0.0260(8) 0.0315(8) 0.0005(6) -0.0030(6) -0.0035(6)
C10 0.0234(7) 0.0278(8) 0.0266(7) -0.0062(6) -0.0056(6) 0.0023(6)
C11 0.0300(8) 0.0404(9) 0.0208(7) -0.0014(6) -0.0032(6) 0.0014(7)
C12 0.0263(8) 0.0342(8) 0.0241(7) -0.0010(6) 0.0009(6) -0.0020(6)
C13 0.0257(8) 0.0304(8) 0.0322(8) -0.0061(6) -0.0068(6) 0.0026(6)
loop_
_atom_type_symbol
_atom_type_description
_atom_type_scat_dispersion_real
_atom_type_scat_dispersion_imag
_atom_type_scat_source
C C 0.0033 0.0016 'International Tables Vol C Tables 4.2.6.8 and 6.1.1.4'
H H 0.0000 0.0000 'International Tables Vol C Tables 4.2.6.8 and 6.1.1.4'
Cu Cu 0.3201 1.2651 'International Tables Vol C Tables 4.2.6.8 and 6.1.1.4'
N N 0.0061 0.0033 'International Tables Vol C Tables 4.2.6.8 and 6.1.1.4'
O O 0.0106 0.0060 'International Tables Vol C Tables 4.2.6.8 and 6.1.1.4'
loop_
_geom_angle_atom_site_label_1
_geom_angle_atom_site_label_2
_geom_angle_atom_site_label_3
_geom_angle
_geom_angle_site_symmetry_1
_geom_angle_site_symmetry_3
O2 Cu1 O2 180.0 . 2_776
O2 Cu1 N1 95.86(5) . 2_776
O2 Cu1 N1 84.14(5) 2_776 2_776
O2 Cu1 N1 84.14(5) . .
O2 Cu1 N1 95.86(5) 2_776 .
N1 Cu1 N1 180.0 2_776 .
C1 O2 Cu1 114.40(9) . .
C13 O3 H1 117(4) . .
C6 N1 C2 118.75(12) . .
C6 N1 Cu1 129.85(10) . .
C2 N1 Cu1 111.34(9) . .
O1 C1 O2 125.87(14) . .
O1 C1 C2 119.01(13) . .
O2 C1 C2 115.04(12) . .
N1 C2 C3 122.91(13) . .
N1 C2 C1 114.56(12) . .
C3 C2 C1 122.42(13) . .
C2 C3 C4 119.00(13) . .
C2 C3 H3A 120.5 . .
C4 C3 H3A 120.5 . .
C5 C4 C3 117.59(13) . .
C5 C4 C7 122.51(13) . .
C3 C4 C7 119.80(13) . .
C6 C5 C4 119.89(14) . .
C6 C5 H5 120.1 . .
C4 C5 H5 120.1 . .
N1 C6 C5 121.83(13) . .
N1 C6 H6 119.1 . .
C5 C6 H6 119.1 . .
C8 C7 C12 119.00(13) . .
C8 C7 C4 119.83(13) . .
C12 C7 C4 120.95(14) . .
C9 C8 C7 120.58(14) . .
C9 C8 H8 119.7 . .
C7 C8 H8 119.7 . .
C8 C9 C10 120.23(15) . .
C8 C9 H9 119.9 . .
C10 C9 H9 119.9 . .
C11 C10 C9 119.62(14) . .
C11 C10 C13 120.71(14) . .
C9 C10 C13 119.63(15) . .
C10 C11 C12 120.29(15) . .
C10 C11 H11 119.9 . .
C12 C11 H11 119.9 . .
C11 C12 C7 120.24(15) . .
C11 C12 H12 119.9 . .
C7 C12 H12 119.9 . .
O3 C13 O4 123.59(14) . .
O3 C13 C10 117.92(15) . .
O4 C13 C10 118.49(15) . .
loop_
_geom_bond_atom_site_label_1
_geom_bond_atom_site_label_2
_geom_bond_distance
_geom_bond_site_symmetry_2
Cu1 O2 1.9376(10) .
Cu1 O2 1.9376(10) 2_776
Cu1 N1 1.9734(12) 2_776
Cu1 N1 1.9734(12) .
O1 C1 1.2238(19) .
O2 C1 1.2813(17) .
O3 C13 1.264(2) .
O3 H1 0.86(2) .
O4 C13 1.266(2) .
N1 C6 1.3384(19) .
N1 C2 1.3410(18) .
C1 C2 1.516(2) .
C2 C3 1.3784(19) .
C3 C4 1.399(2) .
C3 H3A 0.9300 .
C4 C5 1.395(2) .
C4 C7 1.4847(19) .
C5 C6 1.385(2) .
C5 H5 0.9300 .
C6 H6 0.9300 .
C7 C8 1.392(2) .
C7 C12 1.399(2) .
C8 C9 1.384(2) .
C8 H8 0.9300 .
C9 C10 1.391(2) .
C9 H9 0.9300 .
C10 C11 1.387(2) .
C10 C13 1.485(2) .
C11 C12 1.388(2) .
C11 H11 0.9300 .
C12 H12 0.9300 .
loop_
_geom_hbond_atom_site_label_D
_geom_hbond_atom_site_label_H
_geom_hbond_atom_site_label_A
_geom_hbond_distance_DH
_geom_hbond_distance_HA
_geom_hbond_distance_DA
_geom_hbond_angle_DHA
_geom_hbond_site_symmetry_A
_geom_hbond_publ_flag
C3 H3A O1 0.93 2.45 3.3623(18) 167.6 2_566 yes
C3 H3A O1 0.93 2.45 3.3623(18) 167.6 2_566 yes
