#------------------------------------------------------------------------------
#$Date: 2021-07-09 11:17:25 +0300 (Fri, 09 Jul 2021) $
#$Revision: 267421 $
#$URL: file:///home/coder/svn-repositories/cod/cif/1/56/40/1564075.cif $
#------------------------------------------------------------------------------
#
# This file is available in the Crystallography Open Database (COD),
# http://www.crystallography.net/
#
# All data on this site have been placed in the public domain by the
# contributors.
#
data_1564075
loop_
_publ_author_name
'\'Swiderski, Grzegorz'
'\/Lyszczek, Renata'
'Wojtulewski, S\/lawomir'
'Kalinowska, Monika'
'\'Swis\/locka, Renata'
'Lewandowski, W\/lodzimierz'
_publ_section_title
;
 Comparison of structural, spectroscopic, theoretical and thermal
 properties of metal complexes (Zn(II), Mn(II), Cu(II), Ni(II) and Co(II))
 of pyridazine-3-carboxylic acid and pyridazine-4-carboxylic acids
;
_journal_name_full               'Inorganica Chimica Acta'
_journal_page_first              119865
_journal_paper_doi               10.1016/j.ica.2020.119865
_journal_volume                  512
_journal_year                    2020
_chemical_formula_moiety         'C10 H10 Mn N4 O6, 2(H2 O)'
_chemical_formula_sum            'C10 H14 Mn N4 O8'
_chemical_formula_weight         373.19
_chemical_name_systematic
'diaaqua-bis(pyridazine-3-carboxylato)-manganese(II) dihydrate'
_space_group_crystal_system      triclinic
_space_group_IT_number           2
_space_group_name_Hall           '-P 1'
_space_group_name_H-M_alt        'P -1'
_atom_sites_solution_hydrogens   mixed
_atom_sites_solution_primary     iterative
_cell_angle_alpha                80.580(5)
_cell_angle_beta                 89.658(6)
_cell_angle_gamma                72.544(6)
_cell_formula_units_Z            1
_cell_length_a                   5.3124(4)
_cell_length_b                   7.3148(4)
_cell_length_c                   9.7421(7)
_cell_measurement_reflns_used    3085
_cell_measurement_temperature    100
_cell_measurement_theta_max      76.0980
_cell_measurement_theta_min      4.5830
_cell_volume                     355.89(4)
_computing_cell_refinement       'CrysAlisPro 1.171.38.46 (Rigaku OD, 2015)'
_computing_data_collection       'CrysAlisPro 1.171.38.46 (Rigaku OD, 2015)'
_computing_data_reduction        'CrysAlisPro 1.171.38.46 (Rigaku OD, 2015)'
_computing_molecular_graphics    'Olex2 (Dolomanov et al., 2009)'
_computing_publication_material  'Olex2 (Dolomanov et al., 2009)'
_computing_structure_refinement  'ShelXL (Sheldrick, 2015)'
_computing_structure_solution    'olex2.solve (Bourhis et al., 2015)'
_diffrn_ambient_temperature      100
_diffrn_detector                 'CCD plate'
_diffrn_detector_area_resol_mean 10.4052
_diffrn_detector_type            Atlas
_diffrn_measured_fraction_theta_full 1.000
_diffrn_measured_fraction_theta_max 0.992
_diffrn_measurement_details
;
List of Runs (angles in degrees, time in seconds):

  # Type    Start    End  Width  t~exp~   \w     \q     \k     \f   Frames
#--------------------------------------------------------------------------
  1  \w    -73.00  33.00   1.00    1.00    --  -41.69  66.00 -58.00  106
  2  \w   -117.00 -10.00   1.00    1.00    --  -41.69 -66.00 167.00  107
  3  \w     82.00 178.00   1.00    1.00    --  113.00  66.00 -58.00   96
  4  \w     38.00 144.00   1.00    1.00    --  113.00 -66.00 167.00  106
  5  \w   -124.00 -79.00   1.00    1.00    --  -41.69 -99.00-150.00   45
  6  \w   -124.00 -79.00   1.00    1.00    --  -41.69 -99.00 -90.00   45
  7  \w   -124.00 -79.00   1.00    1.00    --  -41.69 -99.00 -60.00   45
  8  \w     23.00  99.00   1.00    1.00    --   41.69-125.00-180.00   76
  9  \w     23.00  99.00   1.00    1.00    --   41.69-125.00  90.00   76
 10  \w     10.00 117.00   1.00    1.00    --   41.69  66.00 -58.00  107
 11  \w     23.00  99.00   1.00    1.00    --   41.69-125.00 -60.00   76
 12  \w     35.00 116.00   1.00    1.00    --  113.00-111.00 -60.00   81
 13  \w     82.00 178.00   1.00    1.00    --  113.00  30.00-120.00   96
 14  \w     57.00 150.00   1.00    1.00    --  113.00 178.00  90.00   93
 15  \w     57.00 150.00   1.00    1.00    --  113.00 178.00-180.00   93
 16  \w     35.00 116.00   1.00    1.00    --  113.00-111.00 -30.00   81
 17  \w     29.00 109.00   1.00    1.00    --  113.00 -95.00 -30.00   80
 18  \w    117.00 155.00   1.00    1.00    --  113.00  61.00-120.00   38
 19  \w    110.00 147.00   1.00    1.00    --  113.00  77.00   0.00   37
 20  \w     60.00  99.00   1.00    1.00    --  113.00 -45.00 -60.00   39
 21  \w    116.00 141.00   1.00    1.00    --  113.00 -45.00 -60.00   25
 22  \w     84.00 110.00   1.00    1.00    --  113.00  61.00-120.00   26
 23  \w     73.00 109.00   1.00    1.00    --  113.00 -95.00-180.00   36
 24  \w     94.00 142.00   1.00    1.00    --  113.00 -61.00 -60.00   48
 25  \w     35.00  69.00   1.00    1.00    --  113.00 -95.00-180.00   34
 26  \w     30.00  64.00   1.00    1.00    --  113.00 -95.00 120.00   34
 27  \w     70.00 108.00   1.00    1.00    --  113.00 -95.00 120.00   38
 28  \w     33.00  78.00   1.00    1.00    --  113.00 -95.00 150.00   45
 29  \w     81.00 115.00   1.00    1.00    --  113.00-111.00  90.00   34
 30  \w     85.00 170.00   1.00    1.00    --  113.00  61.00 -90.00   85
 31  \w     40.00  67.00   1.00    1.00    --  113.00-111.00   0.00   27
 32  \w    110.00 136.00   1.00    1.00    --  113.00 111.00 -60.00   26
 33  \w     91.00 116.00   1.00    1.00    --  113.00-111.00-180.00   25
 34  \w    105.00 131.00   1.00    1.00    --  113.00 178.00 -90.00   26
 35  \w     87.00 129.00   1.00    1.00    --  113.00  45.00-180.00   42
 36  \w    108.00 176.00   1.00    1.00    --  113.00 111.00-180.00   68
;
_diffrn_measurement_device       'four-circle diffractometer'
_diffrn_measurement_device_type  'SuperNova, Dual, Cu at zero, Atlas'
_diffrn_measurement_method       '\w scans'
_diffrn_orient_matrix_type
'CrysAlisPro convention (1999,Acta A55,543-557)'
_diffrn_orient_matrix_UB_11      0.0578133000
_diffrn_orient_matrix_UB_12      -0.2131162000
_diffrn_orient_matrix_UB_13      0.0719376000
_diffrn_orient_matrix_UB_21      0.2099923000
_diffrn_orient_matrix_UB_22      0.0253068000
_diffrn_orient_matrix_UB_23      0.0974098000
_diffrn_orient_matrix_UB_31      -0.2125243000
_diffrn_orient_matrix_UB_32      0.0642566000
_diffrn_orient_matrix_UB_33      0.1052873000
_diffrn_radiation_monochromator  mirror
_diffrn_radiation_probe          x-ray
_diffrn_radiation_type           CuK\a
_diffrn_radiation_wavelength     1.54184
_diffrn_reflns_av_R_equivalents  0.0329
_diffrn_reflns_av_unetI/netI     0.0273
_diffrn_reflns_Laue_measured_fraction_full 1.000
_diffrn_reflns_Laue_measured_fraction_max 0.992
_diffrn_reflns_limit_h_max       6
_diffrn_reflns_limit_h_min       -6
_diffrn_reflns_limit_k_max       9
_diffrn_reflns_limit_k_min       -9
_diffrn_reflns_limit_l_max       12
_diffrn_reflns_limit_l_min       -9
_diffrn_reflns_number            4325
_diffrn_reflns_point_group_measured_fraction_full 1.000
_diffrn_reflns_point_group_measured_fraction_max 0.992
_diffrn_reflns_theta_full        67.684
_diffrn_reflns_theta_max         76.274
_diffrn_reflns_theta_min         4.606
_diffrn_source_type              'SuperNova (Cu) X-ray Source'
_exptl_absorpt_coefficient_mu    8.045
_exptl_absorpt_correction_T_max  0.298
_exptl_absorpt_correction_T_min  0.034
_exptl_absorpt_correction_type   analytical
_exptl_absorpt_process_details
;
CrysAlisPro 1.171.38.46 (Rigaku Oxford Diffraction, 2015)
Analytical numeric absorption correction using a multifaceted crystal
			model based on expressions derived by R.C. Clark & J.S. Reid.
(Clark, R. C. & Reid, J. S. (1995). Acta Cryst. A51, 887-897)
Empirical absorption correction using spherical harmonics,
 implemented in SCALE3 ABSPACK scaling algorithm.
;
_exptl_crystal_colour            'clear light orange'
_exptl_crystal_colour_lustre     clear
_exptl_crystal_colour_modifier   light
_exptl_crystal_colour_primary    orange
_exptl_crystal_density_diffrn    1.741
_exptl_crystal_description       block
_exptl_crystal_F_000             191
_exptl_crystal_size_max          0.432
_exptl_crystal_size_mid          0.238
_exptl_crystal_size_min          0.122
_refine_diff_density_max         0.675
_refine_diff_density_min         -0.364
_refine_diff_density_rms         0.101
_refine_ls_extinction_coef       .
_refine_ls_extinction_method     none
_refine_ls_goodness_of_fit_ref   1.118
_refine_ls_hydrogen_treatment    mixed
_refine_ls_matrix_type           full
_refine_ls_number_parameters     122
_refine_ls_number_reflns         1486
_refine_ls_number_restraints     0
_refine_ls_restrained_S_all      1.118
_refine_ls_R_factor_all          0.0380
_refine_ls_R_factor_gt           0.0358
_refine_ls_shift/su_max          0.018
_refine_ls_shift/su_mean         0.004
_refine_ls_structure_factor_coef Fsqd
_refine_ls_weighting_details
'w=1/[\s^2^(Fo^2^)+(0.0731P)^2^+0.0114P] where P=(Fo^2^+2Fc^2^)/3'
_refine_ls_weighting_scheme      calc
_refine_ls_wR_factor_gt          0.0953
_refine_ls_wR_factor_ref         0.0966
_reflns_Friedel_coverage         0.000
_reflns_Friedel_fraction_full    .
_reflns_Friedel_fraction_max     .
_reflns_number_gt                1470
_reflns_number_total             1486
_reflns_threshold_expression     'I > 2\s(I)'
_iucr_refine_instructions_details
;
TITL
    exp_2929.res
    created by SHELXL-2018/3 at 08:05:46 on 26-Jul-2018
CELL 1.54184 5.31242 7.314771 9.742069 80.5799 89.6583 72.544
ZERR 1 0.000366 0.000441 0.000652 0.0053 0.0055 0.0058
LATT 1
SFAC C H Mn N O
UNIT 10 14 1 4 8
EQIV $1 1+X,+Y,+Z
EQIV $2 1-X,2-Y,1-Z
EQIV $3 -1-X,2-Y,2-Z

L.S. 1
PLAN  1
TEMP -173.15
HTAB O1W O2W_$1
HTAB O1W N1_$2
HTAB O2W O2
HTAB O2W O2_$3
BOND $H
fmap 2
acta
OMIT 1 -7 4
REM <olex2.extras>
REM <HklSrc "%.\\exp_2929.hkl">
REM </olex2.extras>

WGHT    0.073100    0.011400
FVAR      10.70777
MN1   3    0.000000    1.000000    0.500000    10.50000    0.02207    0.02318 =
         0.01726   -0.00197    0.00314   -0.00559
O1W   5    0.180017    1.192967    0.589559    11.00000    0.02496    0.02932 =
         0.02280   -0.00406    0.00236   -0.00968
O2    5   -0.204466    0.784798    0.895359    11.00000    0.02855    0.02817 =
         0.02103   -0.00310    0.00736   -0.00772
O1    5   -0.208087    0.965909    0.686369    11.00000    0.02525    0.02733 =
         0.01884   -0.00185    0.00424   -0.00582
O2W   5   -0.732289    1.027982    0.865080    11.00000    0.02790    0.03622 =
         0.02534   -0.00857    0.00227   -0.00799
N2    4    0.270057    0.742567    0.639103    11.00000    0.02205    0.02418 =
         0.02030   -0.00559    0.00319   -0.00698
N1    4    0.510742    0.639233    0.606418    11.00000    0.02125    0.02568 =
         0.02396   -0.00785    0.00434   -0.00531
C7    1   -0.105352    0.825090    0.782340    11.00000    0.02493    0.02288 =
         0.02045   -0.00484    0.00411   -0.00832
C6    1    0.637982    0.477668    0.692492    11.00000    0.02304    0.02560 =
         0.02792   -0.00726    0.00199   -0.00597
AFIX  43
H6    2    0.808289    0.404716    0.669175    11.00000   -1.20000
AFIX   0
C4    1    0.291024    0.519092    0.849630    11.00000    0.02712    0.02717 =
         0.02264   -0.00321    0.00335   -0.00847
AFIX  43
H4    2    0.212413    0.481497    0.933072    11.00000   -1.20000
AFIX   0
C3    1    0.163933    0.687799    0.756897    11.00000    0.02305    0.02352 =
         0.02067   -0.00525    0.00235   -0.00759
C5    1    0.534508    0.409082    0.815808    11.00000    0.02863    0.02384 =
         0.02746   -0.00254   -0.00045   -0.00639
AFIX  43
H5    2    0.629045    0.290936    0.873928    11.00000   -1.20000
AFIX   0
H1WA  2    0.245528    1.156331    0.673740    11.00000    0.04084
H1WB  2    0.296806    1.222339    0.548826    11.00000    0.04299

H2WA  2   -0.759874    1.086817    0.937660    11.00000    0.03719
H2WB  2   -0.581484    0.949922    0.871027    11.00000    0.06334
HKLF 4




REM
REM wR2 = 0.0966, GooF = S = 1.118, Restrained GooF = 1.118 for all data
REM R1 = 0.0358 for 1470 Fo > 4sig(Fo) and 0.0380 for all 1486 data
REM 122 parameters refined using 0 restraints

END  
     
WGHT      0.0731      0.0114 

REM Highest difference peak  0.675,  deepest hole -0.364,  1-sigma level  0.101
Q1    1   0.2680  0.9484  0.5261  11.00000  0.05    0.67

  REM The information below was added by Olex2.
  REM
  REM R1 = 0.0358 for 1470 Fo > 4sig(Fo) and 0.0380 for all 4326 data
  REM n/a parameters refined using n/a restraints
  REM Highest difference peak 0.67, deepest hole -0.36
  REM Mean Shift 0.004, Max Shift -0.018.

  REM +++ Tabular Listing of Refinement Information +++
  REM R1_all = 0.0380
  REM R1_gt = 0.0358
  REM wR_ref = 0.0966
  REM GOOF = 1.118
  REM Shift_max = -0.018
  REM Shift_mean = 0.004
  REM Reflections_all = 4326
  REM Reflections_gt = 1470
  REM Parameters = n/a
  REM Hole = -0.36
  REM Peak = 0.67
  REM Flack = n/a

  
;
_cod_data_source_file            ICA-2020-512-119865.cif
_cod_data_source_block           exp_2929
_cod_database_code               1564075
_shelx_space_group_comment
;
The symmetry employed for this shelxl refinement is uniquely defined
by the following loop, which should always be used as a source of
symmetry information in preference to the above space-group names.
They are only intended as comments.
;
_reflns_odcompleteness_completeness 98.28
_reflns_odcompleteness_iscentric 1
_reflns_odcompleteness_theta     76.86
_olex2_refinement_description
;
1. Fixed Uiso
 At 1.2 times of:
  All C(H) groups
2.a Aromatic/amide H refined with riding coordinates:
 C6(H6), C4(H4), C5(H5)
;
loop_
_space_group_symop_operation_xyz
'x, y, z'
'-x, -y, -z'
loop_
_atom_site_label
_atom_site_type_symbol
_atom_site_fract_x
_atom_site_fract_y
_atom_site_fract_z
_atom_site_U_iso_or_equiv
_atom_site_adp_type
_atom_site_occupancy
_atom_site_site_symmetry_order
_atom_site_calc_flag
_atom_site_refinement_flags_posn
_atom_site_refinement_flags_adp
_atom_site_refinement_flags_occupancy
_atom_site_disorder_assembly
_atom_site_disorder_group
Mn1 Mn 0.000000 1.000000 0.500000 0.02130(16) Uani 1 2 d S T P . .
O1W O 0.1800(3) 1.1930(2) 0.58956(14) 0.0254(3) Uani 1 1 d . . . . .
O2 O -0.2045(3) 0.7848(2) 0.89536(14) 0.0263(3) Uani 1 1 d . . . . .
O1 O -0.2081(3) 0.9659(2) 0.68637(13) 0.0245(3) Uani 1 1 d . . . . .
O2W O -0.7323(3) 1.0280(2) 0.86508(15) 0.0298(3) Uani 1 1 d . . . . .
N2 N 0.2701(3) 0.7426(2) 0.63910(15) 0.0220(3) Uani 1 1 d . . . . .
N1 N 0.5107(3) 0.6392(2) 0.60642(16) 0.0236(3) Uani 1 1 d . . . . .
C7 C -0.1054(4) 0.8251(3) 0.78234(18) 0.0224(4) Uani 1 1 d . . . . .
C6 C 0.6380(4) 0.4777(3) 0.69249(19) 0.0255(4) Uani 1 1 d . . . . .
H6 H 0.808289 0.404716 0.669175 0.031 Uiso 1 1 calc R . . . .
C4 C 0.2910(4) 0.5191(3) 0.84963(19) 0.0257(4) Uani 1 1 d . . . . .
H4 H 0.212413 0.481497 0.933072 0.031 Uiso 1 1 calc R . . . .
C3 C 0.1639(4) 0.6878(3) 0.75690(18) 0.0221(4) Uani 1 1 d . . . . .
C5 C 0.5345(4) 0.4091(3) 0.8158(2) 0.0272(4) Uani 1 1 d . . . . .
H5 H 0.629045 0.290936 0.873928 0.033 Uiso 1 1 calc R . . . .
H1WA H 0.246(6) 1.156(5) 0.674(3) 0.041(8) Uiso 1 1 d . . . . .
H1WB H 0.297(7) 1.222(5) 0.549(4) 0.043(8) Uiso 1 1 d . . . . .
H2WA H -0.760(6) 1.087(5) 0.938(3) 0.037(7) Uiso 1 1 d . . . . .
H2WB H -0.581(9) 0.950(6) 0.871(4) 0.063(11) Uiso 1 1 d . . . . .
loop_
_atom_site_aniso_label
_atom_site_aniso_U_11
_atom_site_aniso_U_22
_atom_site_aniso_U_33
_atom_site_aniso_U_23
_atom_site_aniso_U_13
_atom_site_aniso_U_12
Mn1 0.0221(2) 0.0232(2) 0.0173(2) -0.00197(15) 0.00314(14) -0.00559(16)
O1W 0.0250(7) 0.0293(7) 0.0228(7) -0.0041(5) 0.0024(5) -0.0097(5)
O2 0.0285(7) 0.0282(7) 0.0210(6) -0.0031(5) 0.0074(5) -0.0077(5)
O1 0.0252(7) 0.0273(7) 0.0188(6) -0.0018(5) 0.0042(5) -0.0058(5)
O2W 0.0279(8) 0.0362(8) 0.0253(7) -0.0086(6) 0.0023(5) -0.0080(6)
N2 0.0221(7) 0.0242(8) 0.0203(7) -0.0056(6) 0.0032(5) -0.0070(6)
N1 0.0213(7) 0.0257(8) 0.0240(7) -0.0078(6) 0.0043(5) -0.0053(6)
C7 0.0249(9) 0.0229(8) 0.0205(8) -0.0048(7) 0.0041(6) -0.0083(7)
C6 0.0230(9) 0.0256(9) 0.0279(9) -0.0073(7) 0.0020(7) -0.0060(7)
C4 0.0271(9) 0.0272(9) 0.0226(9) -0.0032(7) 0.0034(7) -0.0085(7)
C3 0.0231(9) 0.0235(9) 0.0207(8) -0.0053(7) 0.0024(6) -0.0076(7)
C5 0.0286(9) 0.0238(9) 0.0275(9) -0.0025(7) -0.0005(7) -0.0064(7)
loop_
_atom_type_symbol
_atom_type_description
_atom_type_scat_dispersion_real
_atom_type_scat_dispersion_imag
_atom_type_scat_source
C C 0.0181 0.0091 'International Tables Vol C Tables 4.2.6.8 and 6.1.1.4'
H H 0.0000 0.0000 'International Tables Vol C Tables 4.2.6.8 and 6.1.1.4'
Mn Mn -0.5299 2.8052 'International Tables Vol C Tables 4.2.6.8 and 6.1.1.4'
N N 0.0311 0.0180 'International Tables Vol C Tables 4.2.6.8 and 6.1.1.4'
O O 0.0492 0.0322 'International Tables Vol C Tables 4.2.6.8 and 6.1.1.4'
loop_
_exptl_crystal_face_index_h
_exptl_crystal_face_index_k
_exptl_crystal_face_index_l
_exptl_crystal_face_perp_dist
0 4 3 0.1012
0 -4 -3 0.1012
0 0 -6 0.0608
0 0 6 0.0608
-3 -3 2 0.1811
3 3 3 0.0887
-1 0 -6 0.0807
0 -4 2 0.0937
loop_
_geom_angle_atom_site_label_1
_geom_angle_atom_site_label_2
_geom_angle_atom_site_label_3
_geom_angle
_geom_angle_site_symmetry_1
_geom_angle_site_symmetry_3
O1W Mn1 O1W 180.00(6) . 2_576
O1W Mn1 N2 90.27(5) 2_576 .
O1W Mn1 N2 90.27(5) . 2_576
O1W Mn1 N2 89.73(5) . .
O1W Mn1 N2 89.73(5) 2_576 2_576
O1 Mn1 O1W 90.29(5) . 2_576
O1 Mn1 O1W 89.71(5) 2_576 2_576
O1 Mn1 O1W 89.71(5) . .
O1 Mn1 O1W 90.29(5) 2_576 .
O1 Mn1 O1 180.0 . 2_576
O1 Mn1 N2 74.82(5) 2_576 2_576
O1 Mn1 N2 105.18(5) . 2_576
O1 Mn1 N2 105.18(5) 2_576 .
O1 Mn1 N2 74.82(5) . .
N2 Mn1 N2 180.0 2_576 .
Mn1 O1W H1WA 118(2) . .
Mn1 O1W H1WB 117(2) . .
H1WA O1W H1WB 102(3) . .
C7 O1 Mn1 119.03(11) . .
H2WA O2W H2WB 110(3) . .
N1 N2 Mn1 124.86(12) . .
C3 N2 Mn1 113.95(11) . .
C3 N2 N1 121.01(16) . .
C6 N1 N2 118.40(16) . .
O2 C7 O1 126.29(17) . .
O2 C7 C3 116.73(16) . .
O1 C7 C3 116.97(15) . .
N1 C6 H6 118.3 . .
N1 C6 C5 123.44(17) . .
C5 C6 H6 118.3 . .
C3 C4 H4 121.3 . .
C5 C4 H4 121.3 . .
C5 C4 C3 117.41(17) . .
N2 C3 C7 114.79(16) . .
N2 C3 C4 122.24(16) . .
C4 C3 C7 122.97(16) . .
C6 C5 H5 121.3 . .
C4 C5 C6 117.45(18) . .
C4 C5 H5 121.3 . .
loop_
_geom_bond_atom_site_label_1
_geom_bond_atom_site_label_2
_geom_bond_distance
_geom_bond_site_symmetry_2
Mn1 O1W 2.2116(14) 2_576
Mn1 O1W 2.2116(14) .
Mn1 O1 2.1387(13) .
Mn1 O1 2.1387(13) 2_576
Mn1 N2 2.2378(16) 2_576
Mn1 N2 2.2378(16) .
O1W H1WA 0.86(3) .
O1W H1WB 0.80(4) .
O2 C7 1.248(2) .
O1 C7 1.260(2) .
O2W H2WA 0.88(3) .
O2W H2WB 0.83(5) .
N2 N1 1.342(2) .
N2 C3 1.331(2) .
N1 C6 1.327(3) .
C7 C3 1.527(2) .
C6 H6 0.9500 .
C6 C5 1.399(3) .
C4 H4 0.9500 .
C4 C3 1.392(3) .
C4 C5 1.373(3) .
C5 H5 0.9500 .
loop_
_geom_hbond_atom_site_label_D
_geom_hbond_atom_site_label_H
_geom_hbond_atom_site_label_A
_geom_hbond_distance_DH
_geom_hbond_distance_HA
_geom_hbond_distance_DA
_geom_hbond_angle_DHA
_geom_hbond_site_symmetry_A
_geom_hbond_publ_flag
O1W H1WA O2W 0.86(3) 1.93(3) 2.738(2) 155(3) 1_655 yes
O1W H1WB N1 0.80(4) 2.11(4) 2.873(2) 159(3) 2_676 yes
O2W H2WA O2 0.88(3) 1.99(3) 2.863(2) 176(3) 2_477 yes
O2W H2WB O2 0.83(5) 2.00(5) 2.821(2) 173(4) . yes
loop_
_refln_index_h
_refln_index_k
_refln_index_l
_refln_F_squared_meas
_refln_F_squared_sigma
_refln_scale_group_code
0 0 1 125430 1235.44 6
0 0 1 125722 1046.82 8
0 0 2 26480.6 373.401 5
0 0 2 28248.6 418.325 8
0 0 3 57964.6 885.857 6
0 0 3 58358.9 719.517 8
0 0 3 58812 922.456 7
0 0 4 50404.6 870.886 6
0 0 4 50010 885.338 7
0 0 5 28526 515.339 8
0 0 5 27510.8 778.563 9
0 0 5 28439.8 669.732 6
0 0 6 15009.6 505.216 6
0 0 6 15615.9 615.85 9
0 0 7 4576.01 356.497 9
0 0 8 17501.6 590.422 20
0 0 8 18622.4 723.877 9
0 0 8 17489.5 559.717 15
0 0 8 17964.1 658.193 36
0 0 8 16339.6 535.605 17
0 0 9 3079.67 278.67 36
0 0 9 3305.34 256.587 24
0 0 9 2956.56 241.686 20
0 0 9 3132.95 235.218 15
0 0 10 15981.1 479.374 15
0 0 10 16694.7 515.118 24
0 0 10 15882.5 565.998 36
0 0 11 21766.2 551.555 36
0 0 11 21695.9 497.574 24
0 0 12 2959.1 120.508 24
0 0 12 2971.81 139.187 36
0 -1 11 6449.83 269.348 36
0 -1 11 6215.31 236.711 24
0 -1 10 7583.87 329.175 20
0 -1 10 7781.01 327.427 24
0 -1 10 7591.04 370.639 36
0 -1 9 2903.95 272.481 36
0 -1 9 3131.93 241.238 24
0 -1 9 2880.22 234.292 20
0 -1 8 732.43 143.771 20
0 -1 8 671.739 162.542 36
0 -1 7 32473.9 806.952 20
0 -1 7 32704.8 879.711 36
0 -1 7 34906.6 1013.13 9
0 -1 6 26590.9 694.016 6
0 -1 6 27979.4 853.808 9
0 -1 5 80866.8 1231.91 6
0 -1 4 53110.8 937.859 6
0 -1 4 50550.6 749.848 5
0 -1 3 37936.2 697.43 7
0 -1 3 38390.1 624.755 5
0 -1 3 39249.3 756.897 6
0 -1 2 101741 1279.95 6
0 -1 2 97414.9 1130.67 7
0 -1 1 11903.7 247.431 7
0 1 -1 12822 373.475 10
0 -1 1 12564.4 336.625 6
0 -1 0 68719.9 1099.27 2
0 1 1 307231 2343.09 11
0 1 1 341089 2895.08 10
0 1 1 314108 2499.56 7
0 -1 -1 341432 2839.22 2
0 1 2 91772.2 1042.78 9
0 1 2 89351.3 1151.67 7
0 1 2 92767.8 1122.1 11
0 1 3 27954.3 580.695 8
0 1 3 30000.5 670.672 9
0 1 3 25652.7 590.121 7
0 1 3 25467.6 557.371 6
0 -1 -3 28155.2 469.672 2
0 1 4 1716.48 208.035 9
0 1 4 1215.29 136.766 6
0 1 4 1446.96 144.144 8
0 1 4 1278.23 152.143 7
0 1 5 90485.4 1494.65 9
0 1 5 84987.9 1146.04 8
0 1 6 3837.55 304.5 9
0 1 6 4276.55 232.429 8
0 1 7 1267.95 197.138 9
0 1 8 53773.4 1039.66 20
0 1 8 56526.5 1187.59 36
0 1 8 51691.7 1004.81 15
0 1 8 56738.5 1089.12 24
0 1 8 52550.8 1052.12 17
0 1 8 53518.8 1212.74 9
0 1 9 5738.91 317.563 15
0 1 9 5729.61 338.477 24
0 1 9 6018.81 381.808 36
0 1 10 8102.65 417.39 36
0 1 10 7497.23 337.09 15
0 1 10 8401.37 370.559 24
0 1 11 18446.2 454.315 15
0 1 11 19070.8 478.942 24
0 1 11 18962.4 536.476 36
0 1 12 1165.97 99.2576 36
0 1 12 1085.46 74.964 15
0 1 12 1079.09 78.4837 24
0 -2 11 7223.89 225.313 36
0 -2 11 7195.27 201.469 24
0 -2 10 3232.85 193.714 20
0 -2 10 3154.18 212.026 36
0 -2 10 3050.28 185.942 24
0 -2 9 22835.3 663.625 36
0 -2 9 24032.9 622.922 20
0 -2 9 22458 587.878 24
0 -2 8 6433.06 380.1 36
0 -2 8 6629.17 357.232 20
0 -2 7 15489.1 554.624 20
0 -2 7 16244.2 696.839 9
0 -2 7 14645.9 588.823 36
0 -2 6 78383.1 1293.94 6
0 -2 5 98129.3 1301.62 5
0 -2 5 92510.3 1384.81 6
0 -2 4 58496.5 967.226 5
0 -2 4 57391.8 1004.6 6
0 -2 3 121592 1537.92 6
0 -2 3 120441 1409.97 2
0 -2 2 53627.7 908.644 6
0 -2 2 48353.8 906.622 2
0 -2 1 1773.42 154.172 6
0 2 -1 1789.75 191.652 10
0 -2 1 1438.49 176.897 2
0 -2 0 37985.3 891.96 2
0 2 0 38659.1 341.645 11
0 -2 -1 9005.62 438.461 2
0 2 1 8423.29 411.384 10
0 -2 -2 29419.1 747.669 2
0 2 2 27812.9 507.784 11
0 2 3 2217.89 164.294 9
0 -2 -3 2216.9 198.581 2
0 2 3 1874.12 159.682 7
0 2 3 2419.61 194.632 8
0 -2 -4 9569.35 365.454 2
0 2 4 9013.47 393.634 8
0 2 5 123397 1627.16 8
0 2 5 119738 1764.96 9
0 2 6 194201 2168.18 8
0 2 6 203760 2523.52 9
0 2 7 8961.58 478.725 9
0 2 7 8846.25 379.238 8
0 2 8 9157.71 482.758 9
0 2 8 8695.75 402.854 15
0 2 8 9314.37 421.261 24
0 2 8 9026.4 421.571 26
0 2 8 8722.56 470.213 36
0 2 9 5779.95 327.107 24
0 2 9 5647.05 322.34 15
0 2 9 5548.43 371.943 36
0 2 9 5362.44 311.544 26
0 2 10 4162.34 298.489 36
0 2 10 3700.49 249.454 24
0 2 10 3111.16 209.128 26
0 2 10 3791.9 253.314 15
0 2 11 25186.2 608.842 36
0 2 11 24872.1 540.874 15
0 2 11 24794.1 514.645 24
0 2 12 248.278 55.1098 36
0 2 12 316.747 52.128 15
0 -3 10 2421.87 123.661 24
0 -3 10 2467.68 144.555 36
0 -3 9 12902.3 427.722 36
0 -3 9 12856.8 400.421 20
0 -3 9 13025.9 381.648 24
0 -3 8 32595.1 739.111 20
0 -3 8 33133.6 715.49 24
0 -3 8 31261.9 778.154 36
0 -3 7 5507.61 345.704 36
0 -3 7 5320.27 319.995 20
0 -3 6 13597.8 517.163 20
0 -3 5 9655.2 425.136 5
0 -3 5 8792.36 403.633 6
0 -3 4 13169 477.592 6
0 -3 4 13694.7 508.486 5
0 -3 3 7030.77 344.529 2
0 -3 3 7287.26 332.588 6
0 -3 3 7671.81 376.466 5
0 -3 2 2639.04 246.233 2
0 -3 2 2679.48 190.493 6
0 -3 1 107424 1719.45 2
0 -3 1 109760 1298.01 6
0 -3 0 22847.5 772.943 2
0 -3 0 24197.3 460.078 6
0 -3 -1 2886.25 303.594 2
0 -3 -2 76012.3 1413.67 2
0 -3 -3 9715.46 481.67 2
0 3 3 10366.8 358.063 9
0 3 3 9947.73 432.391 8
0 3 4 33210.4 819.906 8
0 3 4 33025.8 745.397 9
0 -3 -4 34712.7 862.882 2
0 3 5 53555.8 1064.97 9
0 3 5 54518.4 1067.14 8
0 3 6 33109.6 893.901 9
0 3 6 33074 793.32 8
0 3 7 15618.9 601.413 26
0 3 7 16055.8 657.883 36
0 3 7 14748.2 528.903 15
0 3 7 14898.8 620.538 9
0 3 7 15090.9 532.221 8
0 3 8 5053.17 340.295 26
0 3 8 4799.24 305.512 15
0 3 8 5124.41 365.194 36
0 3 9 3682.59 271.668 15
0 3 9 3956.53 309.953 36
0 3 9 3674.78 280.557 26
0 3 10 650.983 135.079 36
0 3 10 426.255 107.642 26
0 3 10 630.702 129.349 15
0 3 11 3834.77 203.362 15
0 3 11 3757.23 219.158 36
0 3 12 12567.6 262.688 15
0 4 -9 5413.96 213.584 19
0 -4 9 4619.5 185.335 20
0 -4 8 16681.5 472.416 36
0 -4 8 16449.7 447.913 20
0 -4 7 385.583 105.669 36
0 -4 7 397.893 104.499 20
0 -4 6 28316.1 731.866 20
0 -4 6 29466.4 853.375 14
0 -4 6 27290.4 755.288 36
0 -4 5 36708.3 867.769 20
0 -4 5 37951.1 988.348 35
0 -4 4 848.21 156.816 35
0 -4 4 796.552 147.179 5
0 -4 3 15987.4 587.7 2
0 -4 3 17045.5 622.283 5
0 -4 2 22561.3 765.807 2
0 -4 1 830.48 185.389 2
0 -4 0 117205 2059.18 2
0 4 1 37049.6 961.774 8
0 -4 -1 33788 1108.78 2
0 4 2 138086 2001.76 8
0 -4 -2 128758 2176.23 2
0 4 3 5264.05 357.614 8
0 -4 -3 4786.63 385.298 2
0 4 4 553.676 142.099 8
0 -4 -4 768.807 169.226 2
0 4 5 114687 1774.67 8
0 4 6 19411.6 732.261 26
0 4 6 19154.2 659.134 8
0 4 7 5068.87 379.668 36
0 4 7 5289.5 335.738 8
0 4 7 4807.6 310.662 28
0 4 7 4884.34 361.614 26
0 4 7 5236.13 316.512 15
0 4 8 2176.02 205.992 15
0 4 8 2038.88 195.672 28
0 4 8 2354.21 248.17 26
0 4 8 2356.38 253.671 36
0 4 9 1711.51 200.198 36
0 4 9 1633.39 175.569 15
0 4 9 1718.19 200.731 26
0 4 10 1851.75 160.042 15
0 4 10 1998.4 183.121 26
0 4 10 1929.25 171.554 29
0 4 11 3154.89 157.242 15
0 4 11 2716.7 148.769 29
0 5 -8 564.608 84.1458 19
0 -5 8 392.463 51.1359 20
0 -5 7 1719.22 130.505 20
0 -5 6 961.949 124.791 20
0 -5 6 954.833 153.378 14
0 -5 5 8574.24 455.165 35
0 -5 5 8157.84 471.587 14
0 -5 4 6658.29 404.435 35
0 -5 3 13158.8 601.882 5
0 -5 3 12547.1 542.996 35
0 -5 2 8485.67 488.427 5
0 -5 2 7757.3 419.406 35
0 5 -2 8978.5 556.003 3
0 -5 2 7793.12 478.755 2
0 -5 1 13292.3 679.748 2
0 -5 0 57632.3 1521.57 2
0 -5 -1 11392.1 697.007 2
0 5 1 12158.2 615.939 8
0 5 2 38990.9 1104.74 8
0 -5 -2 35767.9 1188.55 2
0 -5 -3 36783.9 1173.9 2
0 5 3 39300.4 1090.85 8
0 -5 -4 6817.19 485.118 2
0 5 4 6848.43 361.536 32
0 5 4 7105.46 452.321 8
0 5 4 6369.42 421.047 3
0 5 4 5993.17 449.119 30
0 5 5 473.876 165.629 26
0 5 5 496.269 115.945 32
0 5 5 549.505 151.493 8
0 5 5 285.191 132.54 30
0 5 6 5909.16 317.489 34
0 5 6 5299.96 360.637 30
0 5 6 5681.72 368.967 28
0 5 7 11879.5 424.207 34
0 5 7 12241.9 568.261 26
0 5 7 11663.4 485.529 28
0 5 7 10409.4 452.751 30
0 5 8 6987.43 342.171 28
0 5 8 7132.66 398.81 26
0 5 9 1967.44 203.275 26
0 5 9 2057.45 165.225 28
0 5 10 18966.1 374.159 15
0 5 11 1356.76 90.1204 27
0 6 -7 358.8 64.2949 19
0 6 -6 411.759 94.4974 19
0 -6 6 333.46 76.9605 14
0 -6 5 4610.63 304.565 14
0 -6 4 28846.6 793.505 35
0 -6 3 9580.39 479.147 35
0 -6 2 564.228 159.298 35
0 6 -2 500.918 176.961 3
0 6 -1 6055.01 499.112 3
0 -6 1 6138.07 406.759 35
0 -6 0 32589.4 928.997 35
0 6 0 30203.5 1136.37 3
0 6 1 15569.3 635.716 32
0 -6 -1 14293.1 787.337 2
0 6 1 15407.1 831.203 3
0 6 2 8287.46 547.892 30
0 6 2 8877.45 617.944 3
0 -6 -2 8349.73 591.93 2
0 6 2 8845.52 471.626 32
0 6 3 9183.84 589.059 30
0 6 3 9927.2 533.599 28
0 6 3 10756.7 497.471 32
0 6 3 10103.2 606.771 3
0 6 4 353.989 154.036 3
0 6 4 678.634 186.083 28
0 6 4 438.358 132.112 32
0 6 4 296.034 185.644 30
0 6 5 5065.93 402.151 30
0 6 5 5775.58 385.801 3
0 6 5 5859.52 394.016 28
0 6 5 6361.51 419.058 26
0 6 6 3969.08 305.964 28
0 6 6 3532.31 322.817 26
0 6 6 3231.01 288.22 30
0 6 6 2965.77 225.764 34
0 6 6 3149.6 250.549 25
0 6 7 1509.42 147.81 34
0 6 7 1315.42 196.181 26
0 6 7 1303.86 175.529 28
0 6 7 1216.62 135.573 25
0 6 8 13056 426.611 28
0 6 9 1054.18 105.832 28
0 6 10 3486.61 152.216 27
0 7 -5 118.207 31.6103 19
0 -7 5 489.872 73.974 14
0 -7 4 -40.036 22.6658 13
0 7 -4 2487.48 157.981 19
0 -7 3 21786.4 615.826 35
0 7 -3 19646.5 494.479 32
0 -7 2 6730.52 375.596 35
0 7 -2 7286.18 416.338 3
0 7 -1 1031.16 225.439 3
0 7 -1 1083.4 194.743 32
0 -7 1 1368.25 217.566 35
0 7 0 940.217 195.624 32
0 7 0 837.357 229.846 3
0 -7 0 946.191 200.826 35
0 7 1 9526.6 490.492 32
0 -7 -1 9667.87 495.678 35
0 -7 -2 774.431 188.218 35
0 7 2 782.664 214.992 3
0 7 2 927.179 191.868 32
0 7 3 507.446 182.286 3
0 7 3 548.556 134.336 28
0 7 3 536.594 145.796 32
0 7 4 21581.4 743.612 3
0 7 4 23679.4 729.3 28
0 7 4 23093 651.096 32
0 7 5 9065.34 425.619 28
0 7 5 7969.65 396.351 3
0 7 5 8889.3 402.269 25
0 7 6 7460.9 294.554 34
0 7 6 7243.91 344.503 28
0 7 6 7201.26 308.801 25
0 7 7 13052.3 381.156 27
0 7 7 14286.8 406.023 28
0 7 8 5733.39 216.373 28
0 7 8 4602.63 188.793 27
0 -8 3 5147.57 201.666 14
0 -8 2 342.886 58.817 13
0 -8 2 443.052 81.3706 35
0 -8 2 360.058 81.8428 14
0 -8 1 4395.33 238.593 35
0 8 -1 4108.74 248.191 3
0 8 -1 4003.9 209.166 32
0 -8 0 2343.48 197.716 35
0 8 0 2079.1 216.135 3
0 8 0 1954.89 148.497 25
0 8 0 2172.68 186.845 32
0 8 1 3322.87 221.913 25
0 8 1 3693.84 244.233 32
0 -8 -1 3510.05 242.683 35
0 8 1 3541.98 286.212 3
0 8 2 27004.3 776.327 3
0 8 2 27630.1 635.721 32
0 -8 -2 27001.7 670.162 35
0 8 2 27520.2 665.421 25
0 -8 -3 1165.11 145.999 35
0 8 3 1312.32 173.625 3
0 8 3 1270.18 153.184 25
0 -8 -4 3125.25 211.8 35
0 8 4 3094.81 212.562 3
0 8 4 3302.13 202.177 25
0 8 5 9871.01 258.381 34
0 8 5 9260.03 283.48 28
0 -8 -5 9854.66 331.408 35
0 8 5 10028.7 293.291 25
0 8 6 7264.7 206.282 25
0 8 6 6904.53 215.879 28
0 -8 -6 6608.32 226.893 35
-1 8 5 1511.77 82.8573 25
-1 8 4 7436.13 221.89 25
-1 8 4 7167.32 203.552 34
-1 8 3 3313.31 198.846 4
-1 8 3 3680.75 174.382 25
-1 8 3 3592.8 159.568 34
1 -8 -2 137.611 42.7767 35
-1 8 2 199.96 53.0998 25
-1 8 2 283.312 84.8664 4
1 -8 -1 3776.24 171.255 35
-1 8 1 3833.46 228.018 4
1 -8 0 789.65 78.1929 35
-1 8 0 832.672 97.7284 4
1 -8 1 178.604 46.6847 14
-1 7 7 523.572 55.6625 25
-1 7 7 927.167 76.7356 34
-1 7 7 666.147 71.3209 27
-1 7 7 875.801 94.4643 28
-1 7 6 6062.95 237.206 34
-1 7 6 6045.18 242.825 25
-1 7 6 6308.07 280.397 28
-1 7 5 2233.09 171.762 34
1 -7 -5 2097.14 179.259 35
-1 7 5 2293.58 186.051 25
-1 7 5 1858.45 169.718 3
-1 7 5 2201.14 201.074 28
-1 7 5 1874.67 178.97 4
-1 7 4 3563.55 253.731 28
-1 7 4 3475.56 277.541 3
-1 7 4 3764.81 266.777 25
1 -7 -4 3244.71 243.316 35
-1 7 3 549.226 147.885 25
1 -7 -3 425.934 118.194 35
-1 7 3 422.848 155.414 3
-1 7 2 4206.2 316.133 25
-1 7 2 4150.03 375.639 3
1 -7 -2 3839 280.913 35
-1 7 1 24678.8 876.097 3
-1 7 1 26067 749.385 32
-1 7 1 25006.9 719.619 25
1 -7 -1 25190 706.648 35
-1 7 0 16092.5 566.349 32
-1 7 0 16155.8 510.68 25
1 -7 0 16999.5 564.216 35
-1 7 0 16910 683.07 3
-1 7 -1 4534.06 328.25 3
1 -7 1 4668.42 288.71 35
-1 7 -1 3905.36 248.771 32
1 -7 2 2698.73 209.1 35
-1 7 -2 2275.34 199.058 4
1 -7 3 1237.79 123.097 13
1 -7 4 631.543 59.0842 13
-1 6 9 813.274 88.2033 27
-1 6 9 746.96 75.1509 28
-1 6 8 2500.32 173.133 28
-1 6 8 2210.36 181.713 27
-1 6 7 2632 237.828 27
-1 6 7 2514.1 215.462 28
-1 6 7 2347.62 168.881 25
-1 6 7 2423.05 178.928 34
-1 6 6 13758.4 548.198 28
-1 6 6 13565.9 456.656 34
-1 6 6 14964.5 604.965 27
-1 6 6 13556.3 471.731 25
-1 6 5 6254.71 403.799 27
-1 6 5 6241.06 364.855 25
-1 6 5 6259.69 411.842 28
-1 6 5 5151.47 346.996 3
-1 6 4 7199.34 419.118 27
-1 6 4 6713.99 416.928 25
-1 6 4 5826.29 426.1 3
-1 6 4 6172.03 439.918 28
-1 6 3 17294 716.033 25
-1 6 3 17452.1 797.273 3
-1 6 3 17104.4 652.865 32
-1 6 3 16637.7 672.855 28
-1 6 2 17074.4 864.479 3
-1 6 2 17148.2 683.352 32
1 -6 -2 16020.1 658.116 35
-1 6 1 3785.61 362.607 32
1 -6 -1 3149.26 318.089 35
-1 6 1 3252.53 455.809 3
-1 6 0 81894.6 1910.55 3
-1 6 0 77977.6 1540.04 32
1 -6 0 78838.4 1485.08 35
-1 6 0 79211.5 1566.67 25
-1 6 -1 4892.59 446.533 3
-1 6 -1 4244.97 334.844 32
1 -6 1 4761.69 352.532 35
-1 6 -2 13262.8 548.567 19
-1 6 -2 11020.8 471.518 32
1 -6 2 12030.3 533.629 35
-1 6 -2 14005 649.369 3
1 -6 3 7878.55 418.726 35
-1 6 -3 7854.44 416.876 19
1 -6 4 316.093 93.7102 13
-1 6 -4 432.891 113.835 19
-1 6 -5 4150.74 231.654 19
1 -6 5 4766.78 239.856 14
1 -6 5 4409.35 213.391 13
-1 6 -6 377.784 66.3786 19
-1 5 10 7960.41 262.124 27
-1 5 9 2032.01 157.6 29
-1 5 9 2194.5 159.884 28
-1 5 8 2061.27 202.529 29
-1 5 8 2306.88 173.226 34
-1 5 8 2343.92 199.019 28
-1 5 7 770.372 119.451 25
-1 5 7 733.364 155.133 28
-1 5 7 808.055 165.455 29
-1 5 7 897.732 137.272 34
-1 5 6 6664.29 354.425 34
-1 5 6 6532.54 412.026 29
-1 5 6 6697.59 362.454 25
-1 5 6 6860.99 421.349 28
-1 5 5 30881.9 974.376 28
-1 5 5 31963.9 863.873 25
-1 5 5 31982.9 924.282 29
-1 5 4 12777.5 680.163 28
-1 5 4 12967 539.838 32
-1 5 4 12430.9 612.315 8
-1 5 4 12000.1 620.094 3
1 -5 -4 12772.2 707.388 2
1 -5 -3 34580.2 1234.8 2
-1 5 3 33535.5 1063.41 28
-1 5 3 35767.8 1179.12 3
-1 5 3 38003 1010 27
-1 5 3 36061.9 937.297 32
-1 5 3 33808.6 1075.72 8
1 -5 -2 51066.1 1573.7 2
-1 5 2 54773.4 1206.27 32
-1 5 2 50826.8 1551.78 3
-1 5 2 54623.4 1256.03 28
-1 5 1 1890.32 344.376 3
-1 5 1 2116.58 261.791 32
1 -5 -1 1803.95 318.161 2
1 -5 0 15518.4 615.474 35
1 -5 0 15812.4 860.961 2
-1 5 0 15894.5 874.475 3
-1 5 0 16214.3 681.772 32
1 -5 1 8735.15 615.064 2
-1 5 -1 8666.41 617.518 3
-1 5 -1 7654.31 464.277 32
1 -5 1 8053.93 452.005 35
-1 5 -1 9219.27 475.229 19
-1 5 -2 593.902 217.015 3
1 -5 2 481.04 143.6 35
-1 5 -2 388.291 136.848 32
-1 5 -2 557.519 156.176 19
-1 5 -3 476.369 154.289 19
1 -5 3 462.685 159.908 35
1 -5 4 3497.02 304.493 35
-1 5 -4 2823.5 292.82 19
1 -5 5 25315.3 693.726 13
-1 5 -5 24019.1 729.75 19
1 -5 6 1601.02 144.835 13
-1 5 -6 1610.31 186.334 19
1 -5 6 1571.75 159.497 36
-1 5 -7 549.582 94.3933 19
1 -5 7 -30.0531 15.6846 36
-1 5 -8 11268.7 247.952 19
-1 4 11 308.805 51.8866 29
-1 4 11 270.378 43.0668 15
-1 4 10 6096.47 281.102 29
-1 4 10 6313.15 255.15 15
-1 4 9 55640.7 1079.53 29
-1 4 9 56900.1 974.966 15
-1 4 9 53331.8 864.653 28
-1 4 8 554.604 117.765 28
-1 4 8 732.85 171 26
-1 4 8 830.421 147.481 15
-1 4 8 808.737 181.556 29
-1 4 8 690.505 116.647 34
-1 4 7 476.49 116.671 34
-1 4 7 305.524 114.239 28
-1 4 7 281.703 160.895 26
-1 4 7 507.394 179.58 29
-1 4 7 570.829 136.124 15
-1 4 6 38601.9 1195.99 26
-1 4 6 34970.1 938.86 28
-1 4 6 35995.8 828.785 25
-1 4 6 37121.9 957.42 8
-1 4 6 38545.5 1108.45 29
-1 4 6 34498.2 815.985 34
-1 4 5 6853.32 492.615 26
-1 4 5 7186.27 457.867 29
-1 4 5 6862.81 435.724 28
-1 4 5 7044.18 383.728 25
-1 4 5 7335.1 433.706 8
-1 4 4 20708.2 758.965 8
1 -4 -4 17920.1 767.986 2
-1 4 3 30544 954.654 8
1 -4 -3 25375.2 928.373 2
-1 4 2 15856.4 720.474 8
1 -4 -2 12491.1 690.998 2
-1 4 1 17559.7 663.683 8
1 -4 -1 15928.4 806.151 2
1 -4 0 14284.8 727.771 2
1 -4 1 14887.5 721.413 2
1 -4 2 8007.9 517.51 2
1 -4 3 2214.85 234.318 35
1 -4 4 403.617 141.34 35
1 -4 5 20894.4 697.669 13
1 -4 6 28702.8 739.241 13
-1 4 -7 5515.52 318.292 19
1 -4 7 5181.46 307.63 36
1 -4 7 4591.2 229.823 20
-1 4 -8 4481.65 228.193 19
1 -4 8 4469.05 236.526 36
-1 3 11 4854.79 230.315 29
-1 3 11 5244.8 219.423 15
-1 3 10 1747.12 169.853 15
-1 3 9 9647.67 496.431 36
-1 3 9 9331.5 428.543 26
-1 3 9 9702.91 426.81 15
-1 3 8 22671.6 749.543 26
-1 3 8 23454.8 719.087 15
-1 3 8 21416 596.66 28
-1 3 7 12738.5 671.287 36
-1 3 7 10454.4 447.759 28
-1 3 7 11471.5 450.579 34
-1 3 7 10472.5 414.949 12
-1 3 7 10342.8 473.111 17
-1 3 7 11389.9 529.02 15
-1 3 7 10738.8 474.853 16
-1 3 7 11021.9 476.29 8
-1 3 7 11719.2 625.462 9
-1 3 7 10677.9 555.579 26
-1 3 6 67541 1512.09 26
-1 3 6 69180.6 1279.31 8
-1 3 5 56508.6 1300.85 9
-1 3 5 54911.3 1150.92 8
-1 3 4 39510.7 815.826 11
1 -3 -4 38403.1 983.713 2
-1 3 4 44040 1021.34 9
-1 3 4 45367.8 1069.35 8
-1 3 3 12090 401.143 11
-1 3 3 13379 595.225 8
-1 3 2 21514.9 457.091 11
1 -3 -2 19933.7 805.741 2
-1 3 1 72288.9 863.911 11
1 -3 -1 73579.6 1770.22 2
-1 3 0 12615 437.733 8
-1 3 0 11541.1 291.033 11
1 -3 1 8482.92 506.437 2
1 -3 2 25455.3 795.86 2
1 -3 2 28907 737.964 6
1 -3 3 7985.14 409.098 2
1 -3 3 8566.77 434.961 6
1 -3 4 29548.6 809.802 6
1 -3 4 33754.2 810.884 5
1 -3 5 37216.2 962.61 13
1 -3 5 37580.9 921.595 6
1 -3 6 32104.9 791.272 20
1 -3 6 32980.7 856.267 13
1 -3 7 7463.83 360.68 20
1 -3 7 7296.05 362.148 13
1 -3 8 618.132 136.618 36
-1 3 -8 988.067 140.937 19
1 -3 8 684.672 113.169 20
-1 3 -9 1985.37 137.93 19
1 -3 9 2139.88 172.847 36
1 -3 10 487.639 61.0121 36
-1 2 12 4664.97 170.669 29
-1 2 12 6249.8 175.622 15
-1 2 11 17240 488.365 36
-1 2 11 16597.2 426.333 15
-1 2 10 3403.69 271.956 36
-1 2 10 3496.15 240.883 15
-1 2 9 18261.7 599.476 15
-1 2 9 17638.6 594.115 17
-1 2 9 16142.7 541.821 26
-1 2 9 17258.6 676.022 36
-1 2 8 11684.9 506.897 26
-1 2 8 11976.5 498.423 16
-1 2 8 12315.8 612.711 36
-1 2 8 12517.9 529.234 17
-1 2 8 11512.9 506.93 15
-1 2 7 770.391 147.101 26
-1 2 7 1195.88 212.43 36
-1 2 7 1138.65 225.994 9
-1 2 7 820.119 154.785 15
-1 2 7 1155.49 150.007 12
-1 2 7 1053.84 167.667 17
-1 2 7 1040.93 148.565 8
-1 2 7 1093.28 168.566 16
-1 2 6 36248.9 858.191 8
-1 2 6 40065.5 1167.58 9
-1 2 5 11083.7 446.798 11
-1 2 5 11967.7 486.823 8
-1 2 5 12521.9 584.742 9
-1 2 4 32542.5 702.436 11
-1 2 4 33051.4 854.05 9
-1 2 4 34856.4 846.64 8
-1 2 3 100874 1192.3 11
-1 2 3 103883 1608.03 8
1 -2 -3 102048 1620.02 2
-1 2 3 104050 1443.66 9
-1 2 2 99171.1 1278.77 9
-1 2 2 94715.3 1029.33 11
1 -2 -2 97791.3 1622.63 2
-1 2 1 28248.3 462.23 11
1 -2 -1 29555.4 892.855 2
-1 2 1 29356.1 741.181 8
-1 2 0 143089 1501.25 8
-1 2 0 139643 1301.86 11
1 -2 0 138889 2141.94 2
-1 2 -1 84665.6 820.446 8
1 -2 1 83288.4 1524.19 2
1 -2 2 292656 2691.98 7
1 -2 2 289665 3181.59 2
1 -2 3 5334.18 264.077 7
1 -2 3 5128.78 311.087 6
1 -2 4 880.416 159.997 6
1 -2 4 937.045 119.29 5
1 -2 5 35297.4 881.894 6
1 -2 6 2706.61 229.274 24
1 -2 6 2732.4 245.465 6
1 -2 6 2271.37 217.47 20
1 -2 6 2621.55 241.518 13
1 -2 7 30998 772.806 24
1 -2 7 30592.5 777.55 20
1 -2 8 6693.51 336.365 24
1 -2 8 6430.09 336.909 20
1 -2 8 6765.79 399.38 36
1 -2 9 342.697 86.6028 24
1 -2 9 336.853 121.07 36
1 -2 10 6862.82 284.633 36
1 -2 10 6166.83 222.77 24
-1 1 12 849.927 81.4194 29
-1 1 11 16784.2 391.732 24
-1 1 11 17171.2 494.217 36
-1 1 11 16784.9 428 15
-1 1 10 38760.4 905.331 36
-1 1 10 37362.2 741.012 24
-1 1 10 36085.4 774.95 15
-1 1 9 8021.49 407.501 17
-1 1 9 7124.31 357.138 16
-1 1 9 8016.56 463.043 36
-1 1 9 7537.61 382.816 15
-1 1 9 8400.11 372.976 24
-1 1 8 3080.32 308.223 36
-1 1 8 3191.63 270.46 17
-1 1 8 2945.09 259.698 15
-1 1 8 2969.46 312.833 9
-1 1 8 2948.34 245.546 16
-1 1 8 2752.35 222.088 12
-1 1 7 1805.21 256.562 9
-1 1 7 1963.61 189.956 8
-1 1 6 11097.7 585.602 9
-1 1 6 9807.5 400.985 8
-1 1 5 22376.9 602.053 8
-1 1 5 24581 833.853 9
-1 1 4 7598.9 319.25 11
1 -1 -4 6798.24 281.345 2
-1 1 4 7392.37 403.935 9
-1 1 4 7036.43 333.012 8
-1 1 3 45476.9 689.419 11
-1 1 3 45182.3 749.269 1
-1 1 3 48104 899.46 9
-1 1 3 46051.5 860.879 8
-1 1 2 1411.63 96.3415 11
-1 1 2 1197.11 128.935 1
-1 1 2 1023.34 110.51 9
-1 1 2 1272.42 139.717 8
-1 1 1 76527.5 785.48 11
-1 1 1 77235.9 1115.68 1
-1 1 1 74843 973.024 8
-1 1 0 385998 2913.32 8
-1 1 0 392677 3415.45 1
-1 1 -1 24616.1 571.571 1
-1 1 -1 27544 323.554 8
1 -1 2 185894 1731.58 7
1 -1 2 179694 1919 2
1 -1 3 92907.6 1326.53 7
1 -1 3 90812.2 1180.56 2
1 -1 4 961.54 154.253 6
1 -1 4 1150.48 142.802 7
1 -1 5 12074.4 447.223 7
1 -1 5 10767.9 468.126 6
1 -1 6 1462.14 185.893 6
1 -1 6 1610.86 178.476 7
1 -1 7 2444.53 230.966 6
1 -1 7 2523.86 230.338 24
1 -1 7 2296.51 225.651 20
1 -1 8 971.749 184.69 36
1 -1 8 1088.23 161.865 20
1 -1 8 775.982 140.848 24
1 -1 9 3269 244.3 20
1 -1 9 3573.31 290.935 36
1 -1 9 3331.71 241.975 24
1 -1 10 40694.7 739.069 24
1 -1 10 43069.7 852.624 36
1 -1 11 8179.97 235.976 24
1 -1 11 8848.52 285.431 36
-1 0 11 413.556 79.0178 24
-1 0 11 548.703 106.906 36
-1 0 11 424.401 74.2035 15
-1 0 10 6259.36 297.536 17
-1 0 10 6535.84 288.523 20
-1 0 10 6818.72 324.753 15
-1 0 10 6933.48 328.417 24
-1 0 10 7060.98 384.181 36
-1 0 9 23058.2 619.252 20
-1 0 9 22498 648.194 17
-1 0 9 22990.2 669.921 15
-1 0 9 23658 764.5 36
-1 0 8 653.742 134.707 15
-1 0 8 693.838 167.154 9
-1 0 8 627.534 165.626 36
-1 0 8 708.421 125.316 16
-1 0 8 458.404 121.629 17
-1 0 8 822.546 135.765 20
-1 0 7 4050.17 348.358 9
-1 0 6 2141 179.124 8
-1 0 6 2207.03 264.871 9
-1 0 5 22869.7 794.543 9
-1 0 5 21815.1 563.951 8
-1 0 4 331561 3444.42 9
-1 0 4 324765 2839.43 8
-1 0 3 148388 1845.53 9
-1 0 3 151634 1629.34 8
-1 0 3 150244 1384.24 1
-1 0 2 44142.6 645.686 1
-1 0 2 44972.7 750.01 9
-1 0 2 44525.9 688.576 8
-1 0 1 71162.4 815.203 9
-1 0 1 73800.2 913.956 1
-1 0 0 20590.9 451.705 1
-1 0 0 20070.9 306.479 8
-1 0 -1 12049.7 325.197 1
-1 0 -2 34145.9 561.218 1
1 0 2 36516.9 546.69 10
1 0 3 1306.89 145.678 7
1 0 3 1083.01 80.9106 10
-1 0 -3 1069.68 82.7801 1
1 0 3 1182.05 68.6234 8
1 0 4 2051.82 188.896 6
1 0 4 2014.41 204.278 7
1 0 5 49561.7 950.054 7
1 0 5 50544.8 986.597 6
1 0 6 12513.4 475.535 6
1 0 6 12192.8 463.056 7
1 0 7 53504.2 1055.02 6
1 0 7 50224.6 1037.68 24
1 0 7 49247.8 1023.83 20
1 0 7 50139.6 1100.16 36
1 0 7 51568.3 1210.38 9
1 0 8 40685.9 837.463 15
1 0 8 39022.7 913.226 20
1 0 8 38725.5 914.014 24
1 0 8 39830.6 997.845 36
1 0 8 41075.3 930.108 6
1 0 9 16184.6 552.944 24
1 0 9 16873.5 618.558 36
1 0 9 16217.1 503.641 15
1 0 10 2227.87 222.277 36
1 0 10 1890.78 159.075 15
1 0 10 1901.54 184.936 24
1 0 11 26725.2 521.016 24
1 0 11 27487.9 588.743 36
-1 -1 11 3897.16 204.959 36
-1 -1 11 4071.5 193.111 24
-1 -1 10 2992.12 217.113 24
-1 -1 10 2679.72 227.766 36
-1 -1 10 2883.07 203.006 20
-1 -1 10 2705.08 189.431 15
-1 -1 9 22854.2 636.402 20
-1 -1 9 21374.2 688.026 36
-1 -1 9 22175.3 630.896 15
-1 -1 8 583.599 122.779 17
-1 -1 8 637.031 139.589 15
-1 -1 8 737.231 168.571 36
-1 -1 8 732.964 145.844 20
-1 -1 7 10526 458.34 20
-1 -1 7 11226.3 573.114 9
-1 -1 7 9667.42 405.648 12
-1 -1 7 9651.13 432.548 17
-1 -1 7 10482.4 505.028 36
-1 -1 6 69056 1432.66 9
-1 -1 5 1089.16 205.585 9
-1 -1 4 81660 1069.16 8
-1 -1 4 89042.2 1599.34 9
-1 -1 3 122915 1244.89 1
-1 -1 3 126007 1474.42 5
1 1 -3 124838 1410.54 10
-1 -1 2 41511 566.256 11
1 1 -2 39145.5 705.412 10
-1 -1 2 40284.9 830.52 9
-1 -1 2 38813.8 716.685 5
-1 -1 2 37179.2 626.684 1
1 1 -1 49599 807.042 10
-1 -1 1 51397.1 756.823 2
-1 -1 1 46601.4 649.434 9
-1 -1 1 53304.7 839.501 1
-1 -1 1 47143.2 513.743 11
-1 -1 1 52613 827.305 5
-1 -1 0 143889 1466 5
-1 -1 0 159090 1632.26 2
-1 -1 0 167920 1792.7 1
-1 -1 0 144342 1108.92 9
-1 -1 -1 248179 2389.92 1
-1 -1 -1 245958 2250.23 2
1 1 2 76476 951.537 10
-1 -1 -2 69916.5 939.217 1
-1 -1 -3 56742.6 759.012 1
1 1 3 57929.1 850.682 6
1 1 3 58650.6 803.767 10
1 1 3 58530.2 927.225 7
1 1 4 17339.5 572.541 7
1 1 4 18159.5 519.856 6
1 1 5 12798.1 431.563 6
1 1 5 12007.7 460.597 9
1 1 6 60149.9 1092.03 7
1 1 6 61320.9 1176.59 9
1 1 7 56896.5 1043.13 6
1 1 7 52935.6 1025.27 7
1 1 7 55503.6 1207.13 9
1 1 8 35738.9 882.406 24
1 1 8 34019.1 771.3 15
1 1 8 34703.4 895.947 36
1 1 8 36471.6 978.777 9
1 1 9 17864 626.914 36
1 1 9 18530 611.603 24
1 1 9 17783.3 540.209 15
1 1 10 654.335 141.734 24
1 1 10 682.466 151.238 36
1 1 10 545.594 111.251 15
1 1 11 540.753 93.1198 21
1 1 11 513.57 109.45 36
1 1 11 562.232 97.9674 24
1 1 11 559.007 84.559 15
1 1 12 2140.03 104.498 24
-1 -2 11 -24.6913 12.804 36
-1 -2 11 503.83 62.2633 24
-1 -2 10 2685.09 182.863 20
-1 -2 10 2538.31 181.106 24
-1 -2 10 2477.75 184.789 36
-1 -2 9 32067.4 741.665 20
-1 -2 9 28055.3 731.058 36
-1 -2 8 8119.6 400.993 20
-1 -2 8 6852 392.402 36
-1 -2 7 15569.2 590.43 20
-1 -2 7 13930.6 571.018 36
-1 -2 7 15410.4 671.849 9
-1 -2 7 15453.7 602.142 14
-1 -2 6 97744.4 1798.8 9
-1 -2 5 12317.2 456.059 5
-1 -2 5 13268 603.252 9
-1 -2 4 110673 1466.67 5
-1 -2 4 115750 1796.37 9
-1 -2 3 19834.5 445.429 2
1 2 -3 21315.2 592.802 10
-1 -2 3 20971.5 510.309 1
-1 -2 3 22201.4 607.613 5
-1 -2 3 23606.4 732.108 9
1 2 -2 87308.6 1340.31 10
-1 -2 2 87852.4 1195.07 2
-1 -2 1 26901.6 385.632 11
1 2 -1 25247.9 689.197 10
-1 -2 1 24910.7 642.929 2
-1 -2 0 177752 1279.12 11
-1 -2 0 173863 1349.98 9
-1 -2 -1 132125 1837.26 2
-1 -2 -1 147982 1720.6 5
-1 -2 -2 981321 7286.1 2
1 2 2 999999 7353.29 10
1 2 2 985550 6643.87 6
1 2 3 814.266 117.285 10
-1 -2 -3 569.111 45.7475 5
-1 -2 -3 733.973 103.046 2
1 2 3 822.965 88.9098 9
1 2 3 756.724 120.342 7
-1 -2 -4 8707.53 276.781 2
1 2 4 8983.47 334.292 10
-1 -2 -4 8687.88 305.898 1
1 2 4 8655.78 289.909 6
1 2 4 8294.69 395.527 7
1 2 5 39147.1 764.983 8
1 2 5 38740 699.8 6
1 2 5 36906.3 806.814 7
1 2 6 3222.64 208.188 6
1 2 6 2917.52 239.17 7
1 2 6 3220.35 245.621 9
1 2 6 3866.51 243.555 8
1 2 7 25329.4 688.855 7
1 2 7 25018.9 726.038 9
1 2 8 10440.3 431.17 15
1 2 8 10476.7 449.112 18
1 2 8 10930.4 484.463 36
1 2 8 10738.8 484.453 24
1 2 9 6302.96 326.417 15
1 2 9 6293.94 366.234 24
1 2 9 5856.95 360.549 36
1 2 10 1890.27 190.285 24
1 2 10 1645.35 156.311 26
1 2 10 1843.12 185.247 21
1 2 10 1913.53 177.987 15
1 2 10 2087.22 207.859 36
1 2 11 769.795 108.929 24
1 2 11 792.885 99.9879 21
1 2 11 778.727 102.752 15
1 2 11 766.289 113.084 36
1 2 12 5798.98 170.661 15
-1 -3 10 2648.24 148.086 24
-1 -3 10 2676.44 151.734 20
-1 -3 9 17978.2 498.666 20
-1 -3 9 16257.2 470.072 36
-1 -3 8 18345.4 574.196 20
-1 -3 8 14900.5 521.139 36
-1 -3 7 7928.12 426.597 20
-1 -3 7 7948.94 447.214 14
-1 -3 7 7121.56 383.641 36
-1 -3 6 14101 641.379 9
-1 -3 6 14661.4 619.936 14
-1 -3 5 73673.3 1264.6 5
-1 -3 5 71254 1434.44 9
-1 -3 4 30954.8 809.1 5
-1 -3 4 30433.3 881.474 9
1 3 -3 35903.2 847.102 10
-1 -3 3 38361 783.685 2
1 3 -2 1093.48 201.311 10
-1 -3 2 1079.93 156.376 2
-1 -3 2 1132.09 174.08 5
1 3 -1 12278.2 590.596 10
-1 -3 1 12790.6 543.196 5
-1 -3 1 11332.8 542.674 2
1 3 0 3104.05 347.179 10
-1 -3 0 4046.85 322.214 5
-1 -3 0 3121.46 333.429 2
-1 -3 -1 8166.57 574.454 2
1 3 1 15291.8 743.541 10
1 3 2 165364 1803.68 7
-1 -3 -2 177757 2412.49 2
-1 -3 -3 71471.5 1268.51 2
1 3 3 64275.2 1091.2 7
1 3 4 69212.2 1079.68 7
1 3 4 68183.9 1091.25 10
1 3 5 38151.7 804.568 7
1 3 5 37487.8 830.487 8
1 3 6 9277.51 415.257 8
1 3 6 8647.56 384.738 7
1 3 7 35323.5 906.753 24
1 3 7 34104.1 875.386 21
1 3 7 30716.7 812.315 13
1 3 7 31574.9 847.008 18
1 3 7 33525.8 781.595 15
1 3 8 3660.23 286.625 36
1 3 8 4032.45 289.158 21
1 3 8 3327.04 266.933 18
1 3 8 4129.33 276.154 15
1 3 8 4079.38 304.535 24
1 3 9 875.48 138.243 21
1 3 9 963.269 154.785 24
1 3 9 858.349 153.957 36
1 3 9 888.056 161.136 26
1 3 9 1049.67 156.994 15
1 3 10 12581.1 402.657 21
1 3 10 11891.8 417.925 26
1 3 10 12942.7 438.53 24
1 3 10 12050.5 440.016 36
1 3 10 12771 428.092 15
1 3 11 613.816 85.9131 26
1 3 11 715.757 90.1035 24
1 3 11 647.527 97.3766 15
1 3 11 665.934 91.4083 36
1 3 12 7195.35 190.814 15
-1 -4 9 12709.1 318.28 24
-1 -4 9 13109.5 349.724 20
-1 -4 8 12704.2 423.087 20
-1 -4 8 12995.8 448.536 14
-1 -4 7 17964.3 576.208 20
-1 -4 7 17896 636.645 14
-1 -4 6 18917 705.263 14
-1 -4 5 9022.25 442.814 5
-1 -4 5 9550.14 460.452 35
-1 -4 5 8603.45 499.665 14
-1 -4 4 43719.6 1030.4 5
-1 -4 3 43730.3 1024.6 5
-1 -4 3 38232.5 853.078 2
-1 -4 2 16335.1 634.401 5
-1 -4 2 14937.2 579.781 2
-1 -4 1 85194.3 1666.12 2
1 4 -1 78670.4 1609.01 10
1 4 0 91625.9 1812.83 10
-1 -4 0 90407.1 1659.62 5
-1 -4 0 91773.4 1915.86 2
1 4 1 17366.8 807.763 10
-1 -4 -1 17027 829.552 2
-1 -4 -2 113723 2131.9 2
1 4 2 110010 1891.14 10
-1 -4 -3 22749.9 819.864 2
1 4 3 19068.1 689.115 10
-1 -4 -4 3290.73 276.921 2
1 4 4 2964.17 241.231 10
1 4 5 4062.9 310.06 8
1 4 6 769.365 172.848 13
1 4 6 598.639 145.844 8
1 4 6 678.703 162.517 18
1 4 7 24364.4 758.044 13
1 4 7 24876.3 772.498 18
1 4 8 18062.3 559.374 15
1 4 8 19120.2 644.624 26
1 4 9 419.606 109.125 15
1 4 9 377.709 123.632 26
1 4 10 6628.24 307.773 26
1 4 10 6787.61 285.585 15
1 4 11 1134.47 106.601 26
1 4 11 1136.04 102.713 15
-1 -5 8 1862.88 130.059 20
-1 -5 8 1865.38 130.648 14
-1 -5 7 9878.1 360.479 20
-1 -5 7 10303.1 420.921 14
-1 -5 6 5093.24 302.166 20
-1 -5 6 5305.44 360.407 14
-1 -5 5 5543.75 404.289 14
-1 -5 5 5850.05 365.419 35
-1 -5 4 13753.6 583.921 5
-1 -5 4 16084.1 606.224 35
-1 -5 3 3496.32 282.188 35
-1 -5 3 3184.39 298.398 5
-1 -5 2 19458.6 691.99 2
-1 -5 2 22260.3 791.868 5
-1 -5 1 6803.68 456.948 5
-1 -5 1 5087.18 396.523 2
1 5 0 15797.2 736.316 10
-1 -5 0 17362.9 769.321 2
-1 -5 -1 94317.2 1972.93 2
-1 -5 -1 94888.7 1730.62 5
-1 -5 -2 10839.7 642.675 2
-1 -5 -3 3861.62 370.154 2
-1 -5 -4 1549.06 226.797 2
1 5 4 1600.06 222.165 8
1 5 5 871.693 169.942 8
1 5 5 1043.25 194.445 26
1 5 5 752.013 154.157 30
1 5 6 10739 498.47 30
1 5 6 13035.5 597.289 26
1 5 7 10341.4 448.754 30
1 5 7 11185.8 514.373 26
1 5 8 9991.01 445.525 26
1 5 8 9711.12 403.865 28
1 5 8 9251.78 357.489 15
1 5 9 3650.45 217.083 28
1 5 9 3480.49 203.915 15
1 5 10 6405.5 278.125 26
1 5 10 5924.69 221.963 15
1 5 11 4108.14 165.994 26
-1 -6 7 3712.01 146.187 20
-1 -6 7 4249.92 196.781 14
-1 -6 6 7446.51 270.227 20
-1 -6 6 8461.51 374.211 14
-1 -6 5 559.347 101.102 20
-1 -6 5 547.85 140.369 14
-1 -6 4 51062.8 1056.84 35
-1 -6 4 50535.9 1202.62 14
-1 -6 3 29362.2 843.423 35
1 6 -2 8889.98 548.466 3
-1 -6 2 8102.1 441.927 35
-1 -6 1 9689.6 546.01 5
1 6 -1 10316.7 621.406 3
-1 -6 1 8335.88 491.318 2
-1 -6 0 5480.4 435.341 2
-1 -6 0 6375.65 453.27 5
1 6 0 6662.99 514.063 3
1 6 1 4682.89 377.633 30
1 6 1 4752.6 453.713 3
-1 -6 -1 4195.46 379.183 5
-1 -6 -2 11423.8 643.204 2
1 6 2 13355.8 640.562 30
1 6 2 13645.9 702.939 3
-1 -6 -2 15069.1 687.077 5
1 6 2 12393.3 612.875 8
1 6 3 5804.91 444.574 3
-1 -6 -3 5411.02 431.854 2
1 6 3 5646.23 436.045 30
1 6 3 5525.27 407.33 8
1 6 4 18411.9 723.236 3
-1 -6 -4 17699.1 726.102 2
1 6 4 20346.4 799.263 30
1 6 4 21646.3 631.402 32
1 6 5 1975.09 246.014 30
1 6 5 2042.85 243.652 26
1 6 5 2189.73 245.5 3
1 6 6 3762.75 301.366 30
1 6 6 4627.37 338.904 26
1 6 7 53496.9 1056.47 26
1 6 7 49216.9 986.328 30
1 6 8 12990.8 457.974 26
1 6 8 12425.1 414.973 30
1 6 9 4409.97 214.611 28
1 6 9 4142.19 226.74 26
-1 -7 6 1731.65 109.508 14
1 7 -5 2406.54 151.712 19
-1 -7 5 2780.94 197.355 14
-1 -7 4 9287.76 418.468 14
-1 -7 3 11595.4 533.943 14
-1 -7 3 12117.9 472.38 35
-1 -7 2 1565.8 195.258 35
1 7 -2 1442.01 224.805 3
1 7 -1 3885 371.299 3
-1 -7 1 3778.29 306.558 35
1 7 0 578.346 216.261 3
-1 -7 0 689.31 169.267 35
-1 -7 -1 8056.54 472.336 35
1 7 1 6876.86 523.545 3
1 7 2 12167.7 601.161 30
1 7 2 12508.5 671.539 3
1 7 2 12424.4 514.74 32
1 7 3 917.84 207.008 30
1 7 3 1068.68 183.85 28
1 7 3 1081.41 223.56 3
1 7 3 1205.9 178.452 32
1 7 4 21641.1 707.207 28
1 7 4 22336.4 635.52 32
1 7 4 21328.9 804.948 30
1 7 5 9670.42 435.222 28
1 7 5 9548.54 482.669 30
1 7 5 8520.06 420.17 3
1 7 6 496.687 130.439 28
1 7 6 326.728 124.592 30
1 7 7 3767.52 229.428 28
1 7 8 3687.1 192.206 28
1 7 9 5320.11 172.586 28
1 7 9 4114.75 151.473 27
-1 -8 4 260.076 52.2307 14
-1 -8 3 5081.51 250.277 14
1 8 -3 4379.56 181.149 32
1 8 -2 9320.84 349.407 3
-1 -8 2 10031.5 354.584 35
-1 -8 2 8627.94 372.904 14
1 8 -2 8069.02 299.437 32
1 8 -1 415.121 129.834 3
-1 -8 1 457.734 112.682 14
-1 -8 1 566.395 122.489 35
1 8 -1 472.897 111.497 32
1 8 0 1399.79 176.549 32
1 8 0 1217.5 198.983 3
-1 -8 0 1468.28 181.701 35
-1 -8 -1 4451.32 302.945 35
1 8 1 4028.2 343.397 3
1 8 1 4279.02 275.923 32
-1 -8 -2 21268.4 654.997 35
1 8 2 19325.7 686.935 3
1 8 2 19818.8 553.145 32
1 8 3 3579.32 283.58 3
-1 -8 -3 4266.92 302.661 35
1 8 3 3970.15 244.74 32
1 8 4 11136.8 373.855 28
1 8 4 11420.1 434.192 3
1 8 5 8500.97 311.724 28
1 8 5 9133.31 320.333 25
1 8 5 8276.57 316.49 3
1 8 6 189.353 60.7315 28
1 8 6 294.89 62.2824 25
1 8 7 3627.58 152.698 28
-1 -9 -1 982.49 89.4624 35
1 9 1 960.998 99.7674 3
1 9 2 3791.49 187.08 3
1 9 2 3772.45 156.16 25
-1 -9 -2 4070.35 180.373 35
1 9 3 4602.39 168.417 25
-1 -9 -3 4911.08 193.369 35
1 9 3 4647.7 188.492 3
-2 7 5 2845.38 136.172 34
-2 7 4 6083.91 238.648 25
-2 7 4 5822.52 221.126 34
-2 7 3 10062 316.779 34
-2 7 3 9510.18 390.23 4
-2 7 3 10617.6 344.583 25
-2 7 2 153.556 63.8912 25
-2 7 2 199.987 91.4654 4
-2 7 1 2543.75 229.305 4
-2 7 1 2292.84 138.165 25
2 -7 0 8661.94 320.28 13
-2 7 0 8508.71 356.096 4
2 -7 1 494.647 79.8692 13
-2 7 -1 314.218 63.0242 4
2 -7 2 4742.76 182.496 13
-2 6 8 666.495 71.3868 27
-2 6 7 2716.65 185.716 27
-2 6 7 2875.32 151.727 34
-2 6 6 493.368 94.3003 25
-2 6 6 527.852 121.788 27
-2 6 6 477.257 112.372 28
-2 6 6 448.524 90.2304 34
-2 6 5 1928.98 188.596 25
-2 6 5 1827.14 196.798 27
-2 6 5 1781.6 213.744 28
-2 6 5 1529.88 175.304 4
-2 6 5 1886.51 172.017 34
-2 6 4 9242.13 433.498 25
-2 6 4 8861.35 445.263 28
-2 6 4 8703.94 379.928 34
-2 6 4 8168.69 465.727 4
-2 6 4 8917.93 413.417 27
-2 6 3 5753.2 350.222 28
-2 6 3 6015.61 390.895 25
-2 6 3 6057.81 456.809 4
-2 6 3 5130.49 399.937 3
-2 6 2 23213.3 782.616 25
-2 6 2 20290.6 862.811 3
-2 6 2 22383.7 934.459 4
-2 6 1 12818.6 704.025 3
-2 6 1 14962.7 588.539 25
-2 6 1 15831.8 800.045 4
2 -6 -1 13717.7 517.616 35
-2 6 0 6017.12 488.764 4
-2 6 0 5896.71 326.468 25
2 -6 0 5758.69 335.486 35
-2 6 0 5818.72 450.974 3
-2 6 -1 7116.73 462 4
2 -6 1 6790.31 351.108 35
2 -6 2 1112.19 165.325 13
-2 6 -2 980.777 152.535 4
-2 6 -2 1033.29 140.549 19
2 -6 3 821.738 128.945 13
-2 6 -3 585.64 103.314 19
-2 6 -4 650.913 89.0294 19
2 -6 4 837.65 100.56 13
-2 5 9 11826.5 330.166 27
-2 5 8 404.44 89.8484 28
-2 5 8 423.149 108.785 27
-2 5 8 493.048 99.9996 29
-2 5 7 8722.5 322.846 25
-2 5 7 9221.18 472.178 27
-2 5 7 9335.89 442.215 29
-2 5 7 9185.65 406.244 28
-2 5 7 9026.29 346.428 34
-2 5 6 20195 706.272 29
-2 5 6 19537.9 572.354 25
-2 5 6 19199.2 574.162 34
-2 5 6 21036.9 710.589 28
-2 5 5 7847.41 516.461 27
-2 5 5 6635.12 384.763 25
-2 5 5 6665.47 359.922 34
-2 5 5 7645.65 498.639 28
-2 5 5 6470.7 409.296 4
-2 5 5 7482.24 465.338 29
-2 5 4 31155.6 1048.28 28
-2 5 4 27687.2 927.312 3
-2 5 4 33441.5 1019.92 27
-2 5 4 29593.9 1017.43 4
-2 5 4 30636.3 910.233 25
-2 5 3 6523.78 518.356 3
-2 5 3 7578.56 496.604 28
-2 5 3 7965.12 478.293 27
-2 5 3 7293.71 492.109 25
-2 5 2 1484.06 208.176 27
-2 5 2 1479.9 264.508 25
-2 5 2 1382.18 312.56 3
-2 5 2 1484.88 220.054 28
-2 5 1 1176.72 239.128 25
-2 5 1 979.998 285.613 3
-2 5 0 14902.2 657.485 25
2 -5 0 14264.9 589.469 35
-2 5 0 14031.6 823.715 3
2 -5 1 38645.7 991.844 35
-2 5 -1 40022.4 1307.36 3
-2 5 -2 5462.71 398.708 19
-2 5 -2 5970.98 469.194 4
2 -5 2 4729.18 339.015 35
-2 5 -3 1773.14 237.026 19
2 -5 3 1916.79 239.88 13
-2 5 -4 762.09 157.91 19
2 -5 4 1030.71 164.177 13
2 -5 5 1850.54 171.098 13
-2 5 -5 1620.43 171.843 19
2 -5 6 6920.78 249.847 13
2 -5 6 7406.13 271.572 36
-2 5 -6 6703.38 267.015 19
-2 4 10 1809.07 117.551 27
-2 4 10 1737.9 123.708 29
-2 4 9 5633.76 286.256 27
-2 4 9 5297.12 232.445 15
-2 4 9 5518.52 293.313 29
-2 4 8 455.016 107.42 28
-2 4 8 626.677 157.367 27
-2 4 8 398.737 138.023 29
-2 4 7 7059.38 395.773 28
-2 4 7 7699.45 490.787 27
-2 4 7 6743.94 313.965 25
-2 4 7 8162.25 514.351 29
-2 4 7 7338.68 356.809 34
-2 4 6 18632 722.494 28
-2 4 6 19902 901.503 27
-2 4 6 17421.4 574.478 25
-2 4 6 17810.6 589.881 34
-2 4 6 19400.9 812.566 29
-2 4 5 15064.9 549.97 34
-2 4 5 15176.4 777.899 27
-2 4 5 16294.8 613.065 25
-2 4 5 16347.2 738.233 29
-2 4 5 15722.7 735.6 28
-2 4 4 64900.6 1457.73 29
-2 4 4 62999 1527.2 27
-2 4 4 62705.9 1347.44 25
-2 4 4 59071.9 1597.18 28
2 -4 -4 54557 1441.72 2
-2 4 4 57890.9 1390.26 3
-2 4 4 58915.3 1482.57 8
-2 4 3 4996.55 434.451 28
-2 4 3 5514.01 418.238 27
-2 4 3 5591.95 406.811 29
2 -4 -3 4015.42 415.12 2
-2 4 3 4720.72 417.201 8
-2 4 3 4665.4 449.223 3
-2 4 3 5412.66 434.849 25
-2 4 2 7869.81 494.255 28
-2 4 2 7751.92 558.26 25
-2 4 2 7540.96 450.656 27
-2 4 2 7002.11 612.618 3
-2 4 1 8277.98 607.532 25
2 -4 -1 6674.7 572.952 2
-2 4 1 7550.96 698.165 3
-2 4 1 8086.88 518.251 32
-2 4 0 57435.7 1437.31 25
-2 4 0 58603.8 1171.41 19
2 -4 0 47947.1 1475.99 2
-2 4 0 54333.1 1735.31 3
-2 4 0 49878.9 1310.22 32
2 -4 1 13561.9 566.181 35
2 -4 1 12575.7 741.939 2
-2 4 -1 15306.7 872.041 3
-2 4 -1 15855.4 652.528 19
-2 4 -1 11799.6 600.437 32
2 -4 2 58330.7 1246.57 35
-2 4 -2 66272.5 1509.25 19
2 -4 2 58724.2 1523.46 2
-2 4 -2 70573.7 1648.47 3
2 -4 3 1573.05 210.627 35
-2 4 -3 1479.14 241.034 19
2 -4 4 24819.6 803.502 13
-2 4 -4 19549.9 785.124 19
2 -4 5 14443.9 555.918 13
-2 4 -5 13076.3 568.072 19
2 -4 6 5573.38 304.396 13
-2 4 -6 5117.5 317.456 19
-2 4 -7 5535.08 263.587 19
2 -4 7 5207.67 233.267 13
2 -4 7 5827.04 282.469 36
2 -4 8 873.36 83.4363 36
-2 4 -8 910.242 76.6779 19
-2 3 11 2339.84 124.268 29
-2 3 11 2237.44 105.236 15
-2 3 10 9917.64 370.309 29
-2 3 10 10040.5 330.867 15
-2 3 9 58680.1 1162.72 29
-2 3 9 57148.7 1026.1 15
-2 3 8 18720.3 559.196 28
-2 3 8 19760.6 536.155 12
-2 3 8 20363.2 717.91 27
-2 3 8 21765.6 715.484 15
-2 3 8 22413.8 824.782 29
-2 3 8 19767.9 597.49 16
-2 3 7 6861.96 522.723 29
-2 3 7 5222.1 346.42 28
-2 3 7 6043.05 324.43 12
-2 3 7 5458.85 338.183 16
-2 3 7 5398.93 317.201 17
-2 3 7 5877.17 334.629 34
-2 3 7 5858.04 423.393 15
-2 3 6 762.203 175.928 28
-2 3 6 912.397 149.302 25
-2 3 6 772.968 145.383 34
-2 3 6 672.051 201.14 29
-2 3 6 715.718 137.039 16
-2 3 6 655.779 168.79 15
-2 3 5 3158.13 268.901 25
-2 3 5 3395.74 279.053 11
-2 3 5 3347.4 263.01 34
-2 3 5 3297.1 352.692 29
-2 3 5 3301.43 324.976 8
-2 3 5 3048.34 326.334 28
-2 3 4 15219.5 573.02 11
2 -3 -4 13102 676.886 2
-2 3 4 13474.1 691.469 8
-2 3 3 32319.2 739.845 11
-2 3 3 31766.6 1146.31 8
2 -3 -3 31473.7 1175.72 2
-2 3 2 1727.18 163.75 11
2 -3 -2 1825.67 327.096 2
-2 3 2 1660.94 228.632 8
-2 3 1 46534.4 968.154 8
-2 3 1 45470.1 810.33 11
-2 3 0 24465.9 571.521 11
2 -3 0 27903.1 1180.41 2
2 -3 1 16096.3 907.17 2
2 -3 2 58968.2 1538.67 2
2 -3 3 6480.88 398.651 35
2 -3 3 6563.61 433.315 6
-2 3 -3 6463.58 466.654 19
2 -3 4 5712.77 396.588 13
-2 3 -4 4946.93 414.228 19
2 -3 4 5762.29 423.984 6
2 -3 5 2289.97 254.016 13
-2 3 -5 2142.78 264.469 19
-2 3 -6 11237.8 510.432 19
2 -3 6 11167.5 497.077 13
-2 3 -7 24416.6 661.207 19
2 -3 7 23564.4 643.613 13
2 -3 8 964.178 106.389 13
-2 3 -8 997.325 112.701 19
2 -3 8 1063.27 141.258 36
2 -3 9 423.715 68.9649 36
-2 2 11 688.576 89.267 29
-2 2 11 568.558 76.1283 15
-2 2 10 11230.9 395.075 15
-2 2 10 11001.6 441.016 29
-2 2 9 1023.86 145.133 27
-2 2 9 902.563 144.075 17
-2 2 9 1032.82 154.236 16
-2 2 9 920.607 195.84 36
-2 2 9 984.89 168.983 15
-2 2 8 38455 857.151 14
-2 2 8 37792.5 907.381 16
-2 2 8 37853.4 849.261 12
-2 2 8 37010.8 899.384 17
-2 2 8 38739.9 1155.46 36
-2 2 8 37757.5 1010.3 15
-2 2 7 69495.7 1265.76 12
-2 2 7 66996.3 1250.86 28
-2 2 7 71000.1 1732.33 36
-2 2 7 68255.2 1286.66 17
-2 2 7 69823.7 1334.05 16
-2 2 7 66853.1 1504.97 15
-2 2 7 67006.2 1266.98 14
-2 2 6 7490.48 437.438 28
-2 2 6 6874.18 408.342 12
-2 2 6 6933.7 392.181 17
-2 2 6 6715.06 415.876 11
-2 2 6 7852.81 444.956 16
-2 2 6 7888.93 570.691 9
-2 2 6 6804.14 504.575 15
-2 2 6 7258.1 434.362 8
-2 2 6 7353.48 540.286 36
-2 2 6 7415.84 426.696 14
-2 2 6 7451.95 390.518 34
-2 2 5 924.149 161.053 11
-2 2 5 1129.86 225.975 9
-2 2 5 934.218 175.402 8
-2 2 4 29603.9 723.344 11
2 -2 -4 27849.1 893.585 2
-2 2 4 28145.5 900.183 9
-2 2 3 1145.15 137.475 11
-2 2 3 870.536 179.334 8
-2 2 3 1142.1 184.795 1
2 -2 -3 1100.41 202.971 2
-2 2 2 3515.38 212.374 11
2 -2 -2 3720.82 350.302 2
-2 2 2 3007.65 257.253 8
-2 2 2 3577.66 327.33 1
-2 2 1 77973.7 1057.29 11
2 -2 -1 79082.8 1712.69 2
-2 2 0 67629.6 1456.7 1
-2 2 0 66448.1 977.118 11
2 -2 0 71164.1 1612.2 2
-2 2 0 70982.7 959.745 8
-2 2 -1 48097.7 1140.9 1
-2 2 -1 47716.7 819.028 11
2 -2 2 80871 1653.83 2
-2 2 -2 75812.1 1414.84 1
2 -2 3 25058.1 873.229 2
2 -2 4 8768.51 495.799 6
2 -2 5 436.598 149.565 6
2 -2 5 684.585 161.781 13
-2 2 -5 589.303 154.126 19
2 -2 6 787.909 163.371 13
2 -2 6 478.705 124.43 20
-2 2 -6 705.226 164.097 19
-2 2 -7 15728.8 559.375 19
2 -2 7 16027.9 600.455 13
2 -2 8 5161.08 333.919 36
2 -2 8 4695.73 275.551 13
-2 2 -8 4625.34 251.58 19
2 -2 9 1732.74 168.718 36
2 -2 10 4656.24 182.687 36
-2 1 11 947.095 109.814 29
-2 1 11 875.447 93.2587 15
-2 1 10 6634.54 310.104 17
-2 1 10 6395.46 307.915 15
-2 1 10 6682.56 359.395 36
-2 1 9 3596.04 243.665 12
-2 1 9 4142.61 289.373 17
-2 1 9 3732.81 273.528 16
-2 1 9 3522.44 283.756 15
-2 1 9 3774.63 332.879 36
-2 1 8 1592.51 258.421 36
-2 1 8 1834.83 218.575 16
-2 1 8 1615.71 196.133 12
-2 1 8 1566.61 206.714 17
-2 1 8 1575.96 223.471 15
-2 1 8 1597.43 181.295 14
-2 1 7 10519 483.933 12
-2 1 7 11389.4 539.584 16
-2 1 7 10852.2 510.059 17
-2 1 7 11771.3 681.642 9
-2 1 7 10178 585.089 15
-2 1 7 11421 501.715 8
-2 1 7 10922 642.611 36
-2 1 7 10912.7 494.629 14
-2 1 6 1152.09 179.406 11
-2 1 6 1455.9 261.924 9
-2 1 6 1546.38 192.724 8
-2 1 5 23925.9 709.507 11
-2 1 5 23468.3 898.212 9
-2 1 5 22065 721.01 8
-2 1 4 110972 1486.62 11
2 -1 -4 111040 1604.72 2
2 -1 -4 106282 1507.2 10
-2 1 4 112606 1859.78 9
-2 1 4 105064 1692.37 8
-2 1 3 105444 1525.58 1
-2 1 3 109348 1302.85 11
-2 1 3 108978 1695.62 9
-2 1 2 100680 1180.58 11
-2 1 2 102259 1424.27 9
-2 1 1 10846.2 497.358 1
-2 1 1 11092.8 338.855 11
-2 1 1 10812 369.184 8
-2 1 0 12718.5 540.705 1
-2 1 0 13277.9 363.187 11
-2 1 0 14004.1 362.457 8
-2 1 -1 117661 1694.03 1
-2 1 -2 11933.4 468.435 1
2 -1 3 4886.34 319.302 2
-2 1 -3 4778.44 284.904 1
2 -1 3 4929.64 295.819 7
2 -1 4 795.258 157.877 7
2 -1 5 907.075 179.66 6
2 -1 5 1024.59 162.078 7
2 -1 6 13239.5 575.68 13
2 -1 6 12300.8 554.522 24
2 -1 6 11909.4 522.23 22
2 -1 6 12397 536.373 20
-2 1 -6 12001.9 500.871 19
2 -1 6 12838.5 581.307 6
2 -1 7 25123.2 755.858 24
2 -1 7 25648.6 783.87 13
-2 1 -7 24776.6 675.936 19
2 -1 8 27211.9 723.349 24
2 -1 8 27162.7 738.9 13
2 -1 8 28454.7 829.291 36
2 -1 9 3209.42 204.938 13
2 -1 9 3144.74 210.588 24
2 -1 9 3302.53 260.685 36
2 -1 10 3440.46 177.617 21
2 -1 10 3160.5 158.54 24
2 -1 10 3407.97 201.912 36
-2 0 11 415.833 74.3686 29
-2 0 11 308.637 60.7821 15
-2 0 10 13630.9 389.897 24
-2 0 10 13745.2 441.234 17
-2 0 10 13784.7 441.893 15
-2 0 10 13190.8 480.388 36
-2 0 9 12626.8 459.27 16
-2 0 9 13438.7 524.732 15
-2 0 9 12967.3 559.355 36
-2 0 8 1344.77 175.109 12
-2 0 8 970.972 175.302 17
-2 0 8 1112.66 170.967 16
-2 0 8 951.633 187.351 15
-2 0 8 1426.45 226 36
-2 0 8 1046.42 162.29 14
-2 0 7 24713.7 737.914 12
-2 0 7 23366.2 900.268 36
-2 0 7 27154.3 822.287 17
-2 0 7 25869.6 804.26 16
-2 0 7 26634.3 1003.71 9
-2 0 7 23216 856.913 15
-2 0 7 26106.4 733.836 8
-2 0 7 25219.4 767.231 14
-2 0 6 4329.05 432.513 9
-2 0 6 4798.95 313.563 8
-2 0 5 1516.14 180.937 11
-2 0 5 1749.98 265.502 9
-2 0 5 1782.82 198.908 8
-2 0 4 157279 1734.08 1
-2 0 4 153228 1758.8 11
2 0 -4 152802 1770.19 10
-2 0 4 150835 2227.56 9
-2 0 4 149542 1996.33 8
-2 0 3 37350.7 677.186 11
2 0 -3 37799 820.008 10
-2 0 3 38863.1 898.71 9
-2 0 3 37520.7 771.116 1
-2 0 3 37017.3 854.929 8
-2 0 2 159308 1547.78 11
-2 0 2 154997 1869.02 1
2 0 -2 161039 1970.79 10
-2 0 2 156404 1788.03 8
-2 0 1 61737.5 901.684 9
-2 0 1 59030.5 1115.35 1
-2 0 1 61526.6 890.594 8
-2 0 1 60968.7 796.31 11
-2 0 0 63854 1159.82 1
-2 0 -1 56231.5 1052.25 1
2 0 1 66730.8 1166.61 10
2 0 2 5158.84 293.846 10
-2 0 -2 4600.09 276.678 1
2 0 3 45674.7 854.485 10
-2 0 -3 42909.5 828.661 1
2 0 4 74366.1 1333.31 7
2 0 5 14135.8 579.102 6
2 0 5 14472 618.184 7
2 0 6 10247 503.097 6
2 0 6 10526.7 497.544 7
2 0 7 29105 856.821 24
2 0 7 30869.7 841.454 7
2 0 7 29798.4 835.694 6
2 0 7 28333.4 824.043 13
2 0 7 31985.2 786.704 15
2 0 8 10357 471.798 13
2 0 8 10231.9 473.289 24
2 0 8 11532.9 436.509 15
2 0 8 11392.6 532.666 36
2 0 9 25555.2 649.566 13
2 0 9 24635.2 657.87 24
2 0 9 25663.4 589.719 15
2 0 9 26674.1 750.9 36
2 0 10 7807.91 303.946 24
2 0 10 8040.85 320.4 21
2 0 10 8476.21 353.388 36
2 0 11 1380.81 95.7309 21
2 0 11 1306.72 89.0684 24
2 0 11 1270.55 100.328 36
-2 -1 11 382.043 54.4091 24
-2 -1 10 529.845 96.5289 24
-2 -1 10 476.836 88.9623 17
-2 -1 10 583.629 98.9842 15
-2 -1 10 435.636 99.3879 36
-2 -1 9 27940.6 628.324 20
-2 -1 9 30278.2 728.972 17
-2 -1 9 26685.4 619.835 16
-2 -1 9 29044.3 740.397 15
-2 -1 9 27711.7 765.263 36
-2 -1 8 30739.6 747.849 12
-2 -1 8 34348.7 784.771 20
-2 -1 8 34886.9 880.883 17
-2 -1 8 31726.3 775.186 16
-2 -1 8 32970.1 892.527 15
-2 -1 8 32726.7 951.268 36
-2 -1 8 34896.7 878.414 14
-2 -1 7 13253.7 512.754 12
-2 -1 7 14219.7 522.892 20
-2 -1 7 14797.2 605.943 17
-2 -1 7 13845.3 553.583 16
-2 -1 7 13950 701.631 9
-2 -1 7 12575.1 580.518 15
-2 -1 7 13110.4 643.961 36
-2 -1 7 14219.6 581.352 14
-2 -1 6 14479 740.991 9
-2 -1 5 6786.31 370.575 11
-2 -1 5 7000.77 527.792 9
-2 -1 4 120477 1440.84 1
2 1 -4 121806 1613.61 10
-2 -1 3 44225.5 821.804 1
-2 -1 3 47496 745.815 11
2 1 -3 45935.3 907.14 10
-2 -1 3 45227 995.606 9
-2 -1 2 4259.41 265.008 1
2 1 -2 3875.93 264.526 10
-2 -1 2 4271.69 244.232 9
-2 -1 2 4090.89 181.44 11
-2 -1 1 3349.58 154.268 11
2 1 -1 3230.86 261.722 10
-2 -1 1 4195.57 195.796 9
-2 -1 1 3964.2 285.237 1
2 1 0 99363.6 1547.39 10
-2 -1 0 93533.8 1601.53 1
2 1 1 64287.3 1150.53 10
-2 -1 -1 56654.7 1122.3 1
-2 -1 -2 105587 1510.13 1
2 1 2 111510 1495 10
-2 -1 -3 12973.7 448.95 1
2 1 3 12823.4 426.988 10
2 1 4 131565 1581.04 10
2 1 4 137317 1805.98 7
2 1 5 35348.2 869.363 6
2 1 5 37296.6 980.023 7
2 1 6 16206.8 590.537 6
2 1 6 14454.7 600.167 7
2 1 7 20877.2 695.126 36
2 1 7 19926.6 666.902 13
2 1 7 20255.6 712.808 24
2 1 7 21021.8 743.947 9
2 1 7 21191.4 677.265 15
2 1 7 21782 676.046 6
2 1 7 20587.7 697.021 7
2 1 8 5664.63 347.579 13
2 1 8 5907.24 385.221 24
2 1 8 5369.08 335.634 18
2 1 8 5753.09 330.147 15
2 1 8 5933.4 372.702 36
2 1 9 1376.79 193.763 24
2 1 9 1367.05 166.04 13
2 1 9 1328.99 158.307 15
2 1 9 1493.14 193.449 36
2 1 10 6844.37 313.623 24
2 1 10 7049.26 332.083 36
2 1 10 7019.28 325.414 21
2 1 10 6508.01 270.541 15
2 1 11 3574.16 171.088 24
2 1 11 3765.42 177.303 21
2 1 11 3471.15 173.017 36
-2 -2 11 782.704 62.5536 24
-2 -2 10 7213.32 241.978 20
-2 -2 10 6887.97 222.326 17
-2 -2 9 3269.96 212.871 17
-2 -2 9 3173.92 214.957 20
-2 -2 9 2818.49 219.408 36
-2 -2 9 3238.01 225.333 14
-2 -2 8 30431.1 817.355 14
-2 -2 8 29632.6 749.065 20
-2 -2 8 28683.9 733.746 17
-2 -2 7 23891.5 650.667 12
-2 -2 7 25075.3 794.616 14
-2 -2 7 24299 749.681 17
-2 -2 7 23287.3 659.257 16
-2 -2 6 8288.07 398.448 12
-2 -2 6 8611.86 474.473 17
-2 -2 6 8300.92 537.473 9
-2 -2 6 8271.77 461.166 14
-2 -2 6 9241.49 500.659 31
-2 -2 5 7084.08 507.493 9
-2 -2 4 3205.18 227.855 11
-2 -2 4 2936.26 319.709 9
-2 -2 3 25999 656.908 1
-2 -2 3 24110.8 763.248 9
-2 -2 2 138993 1363.15 11
2 2 -2 135583 1970.63 10
-2 -2 2 140112 1620.99 9
-2 -2 1 21931.1 717.226 5
-2 -2 1 22750.8 403.69 11
2 2 -1 21465.4 701.133 10
-2 -2 1 22084.4 410.219 9
-2 -2 1 22862.3 737.648 1
-2 -2 0 1145.05 146.704 5
-2 -2 0 978.021 187.539 1
-2 -2 0 1026.02 81.9208 11
2 2 0 989.69 171.291 10
2 2 1 79447.6 1400.57 10
-2 -2 -1 67721.3 1387.15 1
2 2 2 40397.3 902.237 10
-2 -2 -2 39674.1 944.482 1
2 2 3 8507.25 391.22 10
-2 -2 -3 8961.45 411.986 1
2 2 4 63214.8 1074.96 10
2 2 4 66230.7 1048.2 6
2 2 4 75103.1 1236.65 7
-2 -2 -4 77893 1170.59 1
2 2 5 9005.79 390.887 6
2 2 5 8281.02 457.878 7
2 2 6 8831.8 459.622 7
2 2 6 10125.9 406.045 6
2 2 7 32096.6 921.193 24
2 2 7 30785.6 821.521 13
2 2 7 31002.3 833.775 18
2 2 7 32543.8 850.359 15
2 2 7 32614.7 871.098 7
2 2 8 939.928 159.907 13
2 2 8 1043.46 189.549 24
2 2 8 1129.92 164.221 36
2 2 8 1067.29 170.162 18
2 2 8 1143.15 168.455 15
2 2 9 18519.3 581.016 13
2 2 9 18576.7 619.476 24
2 2 9 19475.4 636.373 21
2 2 9 18382.1 573.937 18
2 2 9 18790.2 550.238 15
2 2 9 18781.7 603.9 36
2 2 10 2589.27 210.417 24
2 2 10 2596.21 205.738 21
2 2 10 2635.87 191.442 15
2 2 10 2616.55 199.331 36
2 2 11 15665.3 380.24 21
2 2 11 14797.8 343.769 15
2 2 11 15289.4 385.219 24
-2 -3 10 9867.43 267.448 24
-2 -3 10 9284.34 248.539 20
-2 -3 9 9985.77 343.964 20
-2 -3 9 9907.31 352.331 14
-2 -3 8 17365.9 552.147 20
-2 -3 8 17314.6 490.268 17
-2 -3 8 18427.3 609.51 14
-2 -3 7 16727.9 557.236 17
-2 -3 7 17882.6 667.828 14
-2 -3 6 2445.04 251.769 31
-2 -3 6 2451.49 239.248 17
-2 -3 6 2244.62 259.82 14
-2 -3 5 10915.6 555.41 14
-2 -3 4 9560.01 466.807 5
-2 -3 3 846.776 155.605 5
2 3 -3 807.557 176.638 10
-2 -3 3 785.688 139.198 1
-2 -3 2 28141.4 734.18 2
2 3 -2 27370.3 867.473 10
-2 -3 2 28420.6 819.916 1
2 3 -1 29358.8 970.52 10
-2 -3 1 31863.4 906.72 5
-2 -3 1 31119.8 863.636 2
-2 -3 1 30164.9 956.088 1
-2 -3 0 49826.6 1201.42 5
-2 -3 0 49335.9 1221.5 2
2 3 0 51291 1319.31 10
-2 -3 0 46386.3 1327.88 1
-2 -3 -1 52851.9 1067.33 5
2 3 1 54755 1331.16 10
2 3 2 216700 2669.22 10
-2 -3 -2 214037 2870.75 1
-2 -3 -3 126426 1711.27 2
-2 -3 -3 131149 1889.88 1
-2 -3 -4 34727.2 857.63 1
2 3 4 31347.5 808.287 7
2 3 5 5317.45 362.268 7
2 3 6 1969.11 214.789 7
2 3 7 2089.58 225.44 13
2 3 7 2498.13 267.954 24
2 3 7 2812.49 281.045 21
2 3 7 2210.91 229.46 18
2 3 7 2573.66 242.004 7
2 3 7 2651.6 248.502 15
2 3 8 9772.31 457.749 13
2 3 8 10852.4 511.789 24
2 3 8 11418.6 520.722 21
2 3 8 10077 463.971 18
2 3 8 10587.3 447.011 15
2 3 9 14819.2 541.797 21
2 3 9 14708.6 545.946 24
2 3 9 13354.4 489.317 18
2 3 9 14905.1 488.59 15
2 3 9 14460.4 511.938 13
2 3 10 12167.1 402.973 26
2 3 10 12200.6 423.765 24
2 3 10 12746.3 420.235 21
2 3 10 12634.5 393.363 15
2 3 11 3810.51 171.392 21
2 3 11 3311.17 155.704 26
2 3 11 3704.38 174.297 15
-2 -4 9 422.739 75.7672 20
-2 -4 9 335.016 59.887 14
-2 -4 8 4227.11 249.673 20
-2 -4 8 4436.52 270.147 14
-2 -4 7 15379.9 595.132 14
-2 -4 6 2274.85 261.898 14
-2 -4 5 21604 720.347 31
-2 -4 5 19419.5 762.226 14
-2 -4 4 43629 1056.13 5
-2 -4 4 45556.5 1197.65 14
-2 -4 3 3811.27 321.528 5
-2 -4 3 3725.34 263.558 2
2 4 -3 3909.41 367.145 10
-2 -4 3 3754.26 299.048 1
-2 -4 2 116585 1908.59 5
-2 -4 2 106270 1700.23 2
2 4 -2 112658 2060.86 10
-2 -4 2 106539 1872.91 1
-2 -4 1 9247.27 539.292 5
-2 -4 1 8337.4 511.981 2
2 4 -1 8396.92 573.328 10
-2 -4 1 8187.49 570.089 1
-2 -4 0 890.259 202.146 5
2 4 0 973.875 260.027 10
-2 -4 0 817.963 215.483 2
-2 -4 -1 26059.4 936.599 5
-2 -4 -1 25007.9 1018.94 2
2 4 1 27234.1 1035.39 10
-2 -4 -2 13775.9 766.59 1
-2 -4 -2 16040 596.562 5
-2 -4 -2 15065.5 701.597 2
2 4 2 13911.7 670.315 10
-2 -4 -3 95617.8 1665.6 2
2 4 3 78857.8 1534.34 10
-2 -4 -3 97193 1859.43 1
2 4 3 84107.1 1290.47 7
2 4 4 104521 1611.11 7
2 4 4 105998 1776.47 10
-2 -4 -4 121551 1925.74 1
-2 -4 -4 121370 1762.55 2
2 4 5 4286.21 280.802 7
2 4 6 1127.25 165.212 30
2 4 6 1080 175.044 21
2 4 6 1039.18 179.516 13
2 4 6 1081.6 181.473 24
2 4 6 997.105 170.434 18
2 4 6 1006.2 155.464 15
2 4 6 1107.31 165.565 8
2 4 6 1019.09 147.098 7
2 4 7 6254.2 411.88 24
2 4 7 5949.36 381.997 13
2 4 7 6684.71 407.303 21
2 4 7 5876.67 375.072 18
2 4 7 6424.15 345.486 15
2 4 7 5822.47 328.061 30
2 4 8 2343.01 233.191 13
2 4 8 2769.26 262.897 24
2 4 8 2830.11 250.491 21
2 4 8 2276.27 234.702 18
2 4 8 2797.4 223.716 15
2 4 9 7042.34 344.734 13
2 4 9 8086.7 361.567 21
2 4 9 7998.64 343.814 15
2 4 10 11384.4 360.031 15
2 4 10 11317.8 384.631 26
2 4 11 6941.22 225.092 26
2 4 11 7056.93 222.294 15
-2 -5 8 514.63 81.086 20
-2 -5 8 558.709 86.3298 14
-2 -5 7 14027.7 452.259 20
-2 -5 7 13648.1 489.321 14
-2 -5 6 1616.49 215.529 14
-2 -5 5 8337.03 486.957 14
-2 -5 4 39956 1116.69 14
-2 -5 3 68715.7 1419.53 5
-2 -5 3 68472.7 1549.81 14
2 5 -2 47364.1 1331.81 3
-2 -5 2 42583.1 1143.04 5
-2 -5 2 39047.6 1021.57 2
2 5 -2 37446.6 1147.7 10
-2 -5 2 39134.4 1132.47 1
-2 -5 2 45236.5 1292.73 14
-2 -5 1 17215.1 763.958 5
-2 -5 1 16024 726.356 2
2 5 -1 16460.9 818.559 10
-2 -5 1 15268 792.966 1
-2 -5 0 1478.14 278.018 2
-2 -5 0 1431.45 254.595 5
-2 -5 -1 5072.32 491.683 5
-2 -5 -1 5066.95 521.537 2
2 5 1 5998.1 571.052 10
2 5 2 5505.51 485.941 10
-2 -5 -2 5208.52 413.234 5
-2 -5 -2 4843.24 456.536 2
-2 -5 -3 3276.05 349.153 2
2 5 3 3280.33 335.616 10
-2 -5 -3 3249.19 394.312 1
2 5 4 16066.1 643.501 30
-2 -5 -4 15655.8 657.28 2
2 5 4 14839.4 659.979 13
2 5 4 16171.1 658.441 18
-2 -5 -4 15067.9 720.067 1
2 5 5 1990.49 226.036 30
2 5 5 2028.86 256.403 18
2 5 5 1966.43 255.663 13
2 5 6 26013.1 863.621 13
2 5 6 27238.2 748.216 30
2 5 6 26249.9 823.46 18
2 5 7 14648.5 516.657 30
2 5 7 14335 582.498 13
2 5 7 15538.8 476.532 15
2 5 8 15831.1 539.03 26
2 5 8 14641.9 461.095 30
2 5 8 15334.7 449.808 15
2 5 9 15167.6 411.04 28
2 5 9 15658 486.134 26
2 5 9 14937.9 408.645 15
2 5 10 1261.54 128.49 26
2 5 10 1074.16 98.2634 15
-2 -6 7 12299 356.951 14
-2 -6 7 11273.7 296.068 20
-2 -6 6 16905.5 460.77 20
-2 -6 6 17576.9 541.921 14
-2 -6 5 10808.8 495.11 14
-2 -6 4 2528.21 280.509 14
-2 -6 3 283.925 141.062 14
2 6 -2 26784.9 943.064 3
-2 -6 2 26708.5 729.815 35
2 6 -1 11501.6 664.72 3
-2 -6 1 8687.84 516.547 2
-2 -6 1 8189.75 559.822 1
-2 -6 1 11949.4 497.234 35
-2 -6 1 8864.56 527.915 5
-2 -6 0 244.446 147.075 1
-2 -6 0 411.854 142.455 5
2 6 0 507.916 217.991 3
-2 -6 0 326.179 137.098 2
2 6 0 375.604 170.962 10
2 6 1 25887.7 832.171 30
2 6 1 27950.2 1096.83 3
-2 -6 -1 17676 780.549 5
-2 -6 -1 17520.5 832.282 2
2 6 1 22565.7 963.936 10
2 6 2 12251 678.702 3
-2 -6 -2 6994.1 522.103 2
2 6 2 12268.8 599.759 30
2 6 2 9776.09 583.056 10
-2 -6 -2 7150.95 595.171 1
-2 -6 -3 1641.38 249.396 2
2 6 3 1377.85 220.022 10
-2 -6 -3 1531.96 274.081 1
2 6 3 2250.74 288.099 30
2 6 3 1451.16 248.461 3
2 6 4 35614.9 987.022 30
2 6 4 32125.8 927.103 3
2 6 5 3564.91 299.44 30
2 6 6 2938.39 247.236 26
2 6 6 2619.5 242.733 30
2 6 7 6196.88 321.24 30
2 6 7 6852.35 345.514 26
2 6 8 1589.05 154.305 30
2 6 8 1465.25 158.238 26
2 6 9 14241.4 362.213 28
2 6 9 13318.7 380.116 26
2 6 10 1181.25 93.9584 26
-2 -7 6 7290 242.716 14
-2 -7 5 7460.77 241.815 20
-2 -7 5 8573.95 342.982 14
-2 -7 4 1443.65 180.781 14
-2 -7 3 7344.82 326.012 35
-2 -7 3 7452.08 415.614 14
-2 -7 2 1845.46 190.758 35
-2 -7 2 1715.88 230.128 14
2 7 -2 1994.89 267.721 3
-2 -7 1 431.854 152.796 14
2 7 -1 391.165 177.56 3
-2 -7 1 551.59 125.425 35
2 7 0 2169.28 302.415 3
-2 -7 0 1491.68 227.395 14
-2 -7 0 2250.77 232.736 35
2 7 1 749.645 164.128 30
2 7 1 792.441 220.654 3
2 7 2 20072.4 749.308 30
2 7 2 19915.4 800.966 3
2 7 3 37895.2 1018.35 3
2 7 3 40336.9 1048.74 30
2 7 4 14245 617.519 30
2 7 4 12291.1 538.411 3
2 7 5 3848.11 298.449 30
2 7 5 3724.19 276.517 3
2 7 6 555.315 132.718 30
2 7 7 2768.66 203.979 30
2 7 7 2648.54 180.701 26
2 7 8 2778.92 166.144 30
2 7 8 2615.28 150.208 26
2 7 9 1376.38 87.1179 28
-2 -8 4 587.443 75.6032 14
-2 -8 3 387.573 86.8587 14
-2 -8 2 17755 519.649 14
2 8 -2 21175 548.598 3
-2 -8 1 5025.15 258.543 35
2 8 -1 5429.33 338.85 3
-2 -8 0 6094.85 312.767 35
2 8 0 6115.06 380.199 3
-2 -8 -1 5143.16 309.45 35
2 8 1 4608.04 344.183 3
2 8 1 4691.86 275.95 32
2 8 2 589.188 164.697 3
-2 -8 -2 624.158 146.455 35
2 8 2 839.167 136.474 32
2 8 3 7384.62 380.946 30
2 8 3 7343.35 387.281 3
2 8 4 3831.31 268.754 30
2 8 4 4016.92 232.27 28
2 8 4 3721.37 249.514 3
2 8 5 4454.61 268.785 30
2 8 5 4536.79 228.944 28
2 8 5 4140.51 227.23 3
2 8 6 1590.88 145.112 30
2 8 6 1679.87 128.883 28
2 8 7 3119.87 147.342 28
2 9 0 864.677 94.4902 3
2 9 0 1015.9 93.2072 32
2 9 1 2407.65 164.679 3
2 9 1 2667.12 142.094 32
2 9 2 1472.5 131.266 3
2 9 2 1405.17 100.066 32
2 9 3 5331.99 220.774 3
-2 -9 -3 5223.31 203.376 35
2 9 4 660.141 67.7595 25
-3 6 5 5881.54 205.68 23
-3 6 5 4487.72 171.161 33
-3 6 4 7366.18 263.692 23
-3 6 4 6729.12 267.651 4
-3 6 4 7411.22 238.804 34
-3 6 3 1334.08 153.528 4
-3 6 3 1328.29 112.438 34
-3 6 2 9072.04 317.489 23
-3 6 2 9194.86 285.192 34
3 -6 -1 300.197 66.0424 13
-3 6 1 298.116 100.153 4
3 -6 0 296.236 70.0673 13
-3 6 0 69.3739 61.4632 4
3 -6 1 2632.9 159.113 13
-3 6 -1 2532.9 161.218 4
3 -6 2 234.2 50.9744 13
-3 5 8 10378.8 245.428 27
-3 5 7 5085.56 244.854 27
-3 5 7 4406.43 168.832 23
-3 5 6 899.878 151.594 27
-3 5 6 992.286 110.366 23
-3 5 6 1051.85 109.167 34
-3 5 5 1289.79 196.385 27
-3 5 5 1098.84 135.456 4
-3 5 5 1256.33 136.172 34
-3 5 4 13007.5 502.941 25
-3 5 4 11784.3 512.225 4
-3 5 4 12475 433.287 34
-3 5 3 4942.32 345.115 25
-3 5 3 4824.58 387.631 4
-3 5 3 5109.34 293.659 34
-3 5 2 12105.5 556.668 25
-3 5 2 12468 673.473 4
-3 5 2 12171 470.683 34
3 -5 -1 5819.08 384.266 13
-3 5 1 6579.99 379.313 25
-3 5 1 6332.31 504.607 4
3 -5 0 3577.82 302.779 13
-3 5 0 3396.25 356.8 4
3 -5 1 4607.09 326.493 13
-3 5 -1 4542.87 359.063 4
3 -5 2 4753.94 304.929 13
-3 5 -2 4772.75 299.188 4
3 -5 3 710.698 120.639 13
3 -5 4 8948.05 316.074 13
3 -5 5 2445.01 125.659 13
-3 4 9 2600.65 123.424 27
-3 4 8 18399.8 498.07 29
-3 4 8 17367.4 460.939 27
-3 4 7 6545.9 390.954 29
-3 4 7 6453.15 375.716 27
-3 4 7 5433.18 242.804 23
-3 4 6 6099.79 455.054 27
-3 4 6 6650.3 434.273 29
-3 4 6 6040.75 300.111 34
-3 4 5 5319.27 417.829 29
-3 4 5 4955.14 435.265 27
-3 4 5 4717.62 295.194 34
-3 4 5 4831.71 319.169 25
-3 4 5 4148.71 300.609 4
-3 4 4 557.902 167.995 25
-3 4 4 521.302 169.176 4
-3 4 4 771.31 207.921 27
-3 4 4 598.911 133.963 34
-3 4 3 2075.63 282.76 27
-3 4 3 1809.48 267.22 25
-3 4 3 1854.06 316.1 4
-3 4 3 1950.22 213.696 34
-3 4 2 3360.88 337.836 27
-3 4 2 2218.66 377.622 4
-3 4 2 2940.93 361.074 25
-3 4 1 1793.45 268.726 25
-3 4 1 1656.7 360.339 4
-3 4 0 16658.6 661.004 25
-3 4 0 14202.9 867.406 4
3 -4 1 35176.6 1068.01 13
-3 4 -1 35143.7 1013.8 19
-3 4 -1 35036.3 1235.55 4
3 -4 2 14980.1 663.714 13
-3 4 -2 15439.5 694.825 19
-3 4 -2 16779.7 727.955 4
3 -4 3 8769.96 476.454 13
-3 4 -3 7538.88 475.109 19
3 -4 4 4529.07 311.345 13
3 -4 4 4325.49 280.06 22
-3 4 -5 290.259 101.534 19
3 -4 5 423.334 104.105 13
3 -4 6 3058.09 174.577 13
-3 4 -6 2825.35 172.417 19
-3 3 10 4861 172.728 29
-3 3 9 355.368 92.0845 29
-3 3 9 264.43 63.5665 27
-3 3 9 293.913 55.5344 33
-3 3 8 13747.2 496.457 27
-3 3 8 14992.4 580.406 29
-3 3 8 14782.2 482.022 15
-3 3 7 12014.7 589.499 27
-3 3 7 12004.3 397.449 12
-3 3 7 13486 672.477 29
-3 3 7 11029.1 386.882 23
-3 3 7 11388.8 404.474 16
-3 3 7 13808.6 562.779 15
-3 3 6 1111.55 241.684 29
-3 3 6 1045.51 249.691 27
-3 3 6 1076.48 190.134 15
-3 3 6 1145.57 160.062 34
-3 3 5 12565.4 686.906 29
-3 3 5 12474 688.228 28
-3 3 5 11576.8 727.064 27
-3 3 5 12068.4 501.162 34
-3 3 4 9235.56 666.379 28
-3 3 4 8882.68 617.538 27
-3 3 4 8782.68 523.599 25
-3 3 4 9393.23 592.091 29
-3 3 4 8614.52 539.617 4
-3 3 4 8652.38 435.129 34
-3 3 3 9788.11 578.021 29
-3 3 3 9667.78 640.042 28
-3 3 3 9985.29 609.941 27
-3 3 3 9456.65 608.726 25
3 -3 -3 8786.09 665.94 2
-3 3 3 8842.65 657.619 4
-3 3 3 8587.45 440.157 34
-3 3 2 28377.8 956.28 27
-3 3 2 26598.1 1103.48 25
3 -3 -2 24653.8 1166.77 2
-3 3 2 25635.5 1274.91 4
-3 3 1 8722.12 502.461 27
-3 3 1 7709.38 548.478 25
3 -3 -1 7900.74 705.936 2
-3 3 1 7501.98 747.808 4
-3 3 0 670.829 162.787 25
3 -3 0 584.761 239.882 2
-3 3 0 519.501 143.356 19
-3 3 0 536.835 224.231 4
3 -3 1 687.867 249.264 2
-3 3 -1 663.351 174.837 19
-3 3 -1 653.06 208.837 4
3 -3 2 62380 1469.58 13
-3 3 -2 65917.9 1574.81 19
-3 3 -2 65822.9 1571.32 4
3 -3 3 47774.2 1218.29 13
-3 3 -3 44215.2 1275.29 19
3 -3 4 2726.66 278.054 13
-3 3 -4 1728.4 246.772 19
3 -3 5 1260.93 192.335 13
3 -3 5 1134.31 168.595 22
-3 3 -5 821.731 169.882 19
3 -3 6 266.606 106.293 13
3 -3 6 260.529 78.776 22
-3 3 -6 331.065 106.812 19
3 -3 7 689.71 99.4494 13
-3 3 -7 561.542 90.8868 19
3 -3 7 627.075 112.034 36
3 -3 8 2046.84 118.816 36
-3 2 10 6396.91 248.115 29
-3 2 9 2029.32 204.588 29
-3 2 9 1896.86 152.169 16
-3 2 9 1819.89 172.746 15
-3 2 8 7715.6 468.602 29
-3 2 8 6152.41 346.413 27
-3 2 8 7415.37 338.606 12
-3 2 8 6543.96 307.861 17
-3 2 8 7123.7 349.097 16
-3 2 8 7482.71 420.944 15
-3 2 8 6387.42 300.124 33
-3 2 7 1308.92 263.644 29
-3 2 7 914.821 193.133 27
-3 2 7 1103.19 172.345 12
-3 2 7 1048.74 138.998 23
-3 2 7 1012.88 143.521 17
-3 2 7 1008.76 163.806 16
-3 2 7 957.749 214.414 15
-3 2 7 1017.19 171.285 14
-3 2 6 9318.9 637.637 29
-3 2 6 8940.27 632.152 27
-3 2 6 11367.3 544.416 12
-3 2 6 9754.73 446.024 23
-3 2 6 11369.5 523.872 16
-3 2 6 9615.41 600.806 15
-3 2 6 10702.1 547.769 14
-3 2 5 13578.8 739.736 29
-3 2 5 12082.1 660.604 28
-3 2 5 12247.8 767.978 27
-3 2 5 14680.2 602.862 12
-3 2 5 13697.4 595.562 16
-3 2 5 13568.8 670.293 15
-3 2 5 14664.4 695.466 14
-3 2 5 14030.1 561.321 34
-3 2 4 20454 851.152 29
-3 2 4 17851.3 885.531 28
-3 2 4 20132.3 933.256 27
-3 2 4 19343.7 733.537 25
-3 2 4 20915.9 679.368 12
-3 2 4 22903.9 715.698 11
3 -2 -4 18100.1 813.65 2
-3 2 4 19516.8 788.227 4
3 -2 -4 17130.8 731.079 10
-3 2 4 20338.2 749.581 15
-3 2 4 19103 900.744 8
-3 2 4 18793.2 776.851 14
-3 2 4 19796.1 674.827 34
-3 2 3 42672 1164.1 29
-3 2 3 37113 1179.69 28
-3 2 3 44554 1263.35 27
-3 2 3 37697.4 1118.87 25
-3 2 3 41836.8 925.866 11
3 -2 -3 36046.3 1198.24 2
-3 2 3 41612.1 1196.84 1
-3 2 3 39447.8 1263.42 4
-3 2 3 39101.1 1165.82 8
-3 2 3 39792 1104.98 14
-3 2 2 129348 2332.58 1
-3 2 2 131037 1706.42 11
-3 2 2 130088 1972.51 8
-3 2 1 7543.82 565.424 1
-3 2 1 7199.07 350.627 11
3 -2 -1 7470.21 597.708 2
-3 2 0 37729.6 835.226 11
3 -2 0 37865.7 1325.32 2
-3 2 0 34644 1131.23 1
-3 2 -1 6963.47 363.118 11
-3 2 -1 6420.55 470.476 1
3 -2 1 7261.87 573.36 2
3 -2 2 29735 976.232 13
-3 2 -2 29997.9 815.656 11
-3 2 -2 32428.1 1072.3 19
3 -2 2 30311.8 1140.98 2
-3 2 -2 29361 998.24 4
-3 2 -2 28536.6 959.455 1
3 -2 3 27623.8 924.317 13
-3 2 -3 28783.4 860.501 11
-3 2 -3 27083 1019.4 19
3 -2 4 12213.1 590.478 13
-3 2 -4 10104.3 619.835 19
3 -2 5 570.909 163.432 13
3 -2 5 464.766 148.327 22
-3 2 -5 406.564 147.174 19
3 -2 6 10825.5 472.538 22
-3 2 -6 10635.6 482.34 19
3 -2 6 11713.5 528.441 13
3 -2 7 9447.79 408.707 13
-3 2 -7 8872.46 357.078 19
3 -2 8 5312.49 243.167 13
3 -2 8 5848.3 274.599 36
3 -2 9 2606.69 127.684 36
-3 1 10 2147.95 156.529 29
-3 1 10 2212.11 153.446 15
-3 1 9 1468.96 189.515 29
-3 1 9 1416.08 143.406 12
-3 1 9 1341.56 151.444 17
-3 1 9 1491.03 162.444 16
-3 1 9 1464.97 184.445 15
-3 1 9 1552.46 144.387 14
-3 1 8 8617.99 516.846 29
-3 1 8 8857.58 413.027 12
-3 1 8 8965.94 359.161 33
-3 1 8 9384.93 417.532 17
-3 1 8 9543.31 449.07 16
-3 1 8 9403.9 507.605 15
-3 1 8 9071.46 408.961 14
-3 1 7 80059.7 1877.34 29
-3 1 7 78327.9 1570.04 27
-3 1 7 87123.2 1530.47 12
-3 1 7 87220.1 1463.31 17
-3 1 7 96699.2 1641.44 16
-3 1 7 82396.8 1809.56 15
-3 1 7 85498.7 1505.49 14
-3 1 7 88305.8 1401.49 33
-3 1 6 4434 460.383 29
-3 1 6 4696.94 425.343 27
-3 1 6 6234.35 410.939 12
-3 1 6 5596.4 331.489 23
-3 1 6 5709.14 365.778 17
-3 1 6 6013.35 417.17 16
-3 1 6 5463.54 496.714 15
-3 1 6 5550.7 406.775 14
-3 1 5 8290.08 570.394 29
-3 1 5 8190.7 584.33 27
-3 1 5 9740.42 480.355 12
-3 1 5 8470.74 433.805 23
-3 1 5 10765 525.735 11
-3 1 5 8635.41 456.142 17
-3 1 5 9090.22 609.497 9
-3 1 5 9195.52 516.42 16
-3 1 5 9430.1 595.131 15
-3 1 5 9143.87 535.2 8
-3 1 5 9717.97 568.89 14
-3 1 4 17842.8 604.989 11
3 -1 -4 16561.9 692.463 2
3 -1 -4 16543.3 666.93 10
-3 1 4 17833.3 783.876 9
-3 1 4 16130.4 736.272 8
-3 1 4 18480.5 689.955 1
-3 1 3 20688.8 602.348 11
3 -1 -3 17594.9 745.995 10
-3 1 3 19573.4 737.628 1
-3 1 3 18394.7 725.813 8
-3 1 2 64098.4 1429.01 1
3 -1 -2 60900.9 1524.2 10
-3 1 2 64851.3 1247.05 8
-3 1 1 27134.7 966.034 1
-3 1 1 27689 673.561 11
-3 1 0 5959.68 313.886 11
-3 1 0 5447.54 423.429 1
-3 1 -1 29058.2 720.879 11
3 -1 1 29596.2 994.566 10
3 -1 2 623.367 152.258 10
-3 1 -2 337.586 124.811 1
3 -1 3 17052 745.905 2
3 -1 3 16327.8 658.628 10
-3 1 -3 15285.1 614.008 1
3 -1 3 16706.7 616.252 7
3 -1 4 15111.4 650.529 13
3 -1 4 15841.4 689.533 7
3 -1 5 598.352 170.828 6
3 -1 5 571.338 161.124 22
-3 1 -5 487.571 145.492 19
3 -1 5 530.46 156.672 13
3 -1 6 6354.03 416.602 13
3 -1 6 5705.85 386.712 22
-3 1 -6 5322.51 337.738 19
3 -1 7 4014.86 306.252 13
3 -1 7 3644.68 273.527 22
3 -1 7 3958.89 278.675 21
-3 1 -7 3344.85 234.532 19
3 -1 8 25723.4 591.438 21
3 -1 8 27797.5 707.138 36
3 -1 8 26479.5 661.911 13
3 -1 9 16539.2 393.295 13
3 -1 9 17140 431.202 36
-3 0 10 546.384 85.4857 17
-3 0 10 454.195 82.9514 15
-3 0 9 1147.12 166.697 29
-3 0 9 1110.96 140.469 12
-3 0 9 1277.96 161.089 17
-3 0 9 1167.62 146.692 16
-3 0 9 1227.51 170.762 15
-3 0 9 1068.19 130.398 14
-3 0 8 11234 572.96 29
-3 0 8 12191 477.237 12
-3 0 8 12857 520.589 17
-3 0 8 12411.3 583.232 15
-3 0 8 12308 494.664 14
-3 0 7 5129.84 354.24 12
-3 0 7 5019.37 363.272 17
-3 0 7 5356.04 386.691 16
-3 0 7 5040.52 448.903 15
-3 0 7 5031.79 310.211 33
-3 0 7 4180.13 425.013 36
-3 0 7 5210.62 364.115 14
-3 0 6 81155 1530.47 12
-3 0 6 82600.1 1304.25 23
-3 0 6 76603.5 1439.79 11
-3 0 6 84006.3 1431.36 33
-3 0 6 85450.8 1601.5 17
-3 0 6 75931.2 1978.82 9
-3 0 6 88063.5 1687.27 16
-3 0 6 75477.4 1914.25 15
-3 0 6 81887.9 1601.97 14
-3 0 5 73756.5 1343.82 12
-3 0 5 72056.1 1302.52 23
-3 0 5 75669.6 1401.93 11
-3 0 5 74744.5 1519.33 17
-3 0 5 67909.5 1763.56 9
-3 0 5 75054.3 1521.86 16
-3 0 5 67734.6 1648.43 15
-3 0 5 74487.1 1606.66 14
-3 0 5 71835.7 1392.46 33
-3 0 4 1929.7 207.736 1
-3 0 4 2095.99 204.706 11
3 0 -4 1856.4 223.653 10
-3 0 4 1810.66 256.411 9
-3 0 3 14811.6 488.771 11
-3 0 3 14769.3 591.587 1
3 0 -3 13919.1 626.569 10
-3 0 3 14829.9 626.648 9
-3 0 2 36287.1 731.139 11
3 0 -2 34995.4 1066.59 10
-3 0 2 34799.7 979.991 1
-3 0 1 8464.55 340.849 11
3 0 -1 8597.89 561.506 10
-3 0 1 8358.32 517.295 1
-3 0 0 9359.74 369.896 11
-3 0 0 8832.38 525.288 1
-3 0 -1 48970.9 923.134 11
3 0 1 52109.3 1308.27 10
3 0 2 17573.5 701.005 10
-3 0 -2 14435.5 606.328 1
-3 0 -3 27907.4 806.819 1
3 0 3 27933.8 838.155 10
3 0 4 50978.3 1158.21 7
3 0 5 13043.1 609.355 13
3 0 5 12343 587.862 6
3 0 5 13201 623.917 22
3 0 5 11473.6 594.258 7
3 0 6 22902.6 786.152 13
3 0 6 20318.2 800.845 24
3 0 6 21401.8 775.263 22
3 0 7 3322.66 294.571 24
3 0 7 3609.1 307.896 21
3 0 7 3736.36 314.017 13
3 0 7 3833.66 271.075 15
3 0 8 3001.01 253.791 13
3 0 8 2727.48 233.597 21
3 0 8 2909.34 240.13 18
3 0 8 2899.84 252.316 36
3 0 8 2667.93 226.751 24
3 0 9 12918 404.749 13
3 0 9 11679.4 370.061 21
3 0 9 12757.9 410.353 36
3 0 10 278.597 49.0921 21
3 0 10 282.695 50.0799 36
-3 -1 10 -13.6882 8.9978 24
-3 -1 10 5906.48 224.957 17
-3 -1 9 4565.54 267.906 17
-3 -1 9 4204.27 233.499 16
-3 -1 9 4448.2 266.953 15
-3 -1 9 4693.22 257.265 14
-3 -1 8 20459.9 595.503 12
-3 -1 8 22981.4 697.504 17
-3 -1 8 22206.9 663.004 16
-3 -1 8 20295.8 699.386 15
-3 -1 8 19307.9 715.943 36
-3 -1 8 21740.5 668.696 14
-3 -1 7 5380.08 348.27 12
-3 -1 7 6075.94 410.72 17
-3 -1 7 5871.44 390.886 16
-3 -1 7 5162.15 408.146 15
-3 -1 7 4610.38 403.192 36
-3 -1 7 6004.28 394.603 14
-3 -1 6 7103.55 427.738 12
-3 -1 6 8233.21 505.412 17
-3 -1 6 6150.03 553.742 9
-3 -1 6 7570.66 469.858 16
-3 -1 6 5884.97 467.554 15
-3 -1 6 7218.61 456.865 14
-3 -1 6 8241.17 405.962 33
-3 -1 5 12740.2 602.621 31
-3 -1 5 12287 515.178 12
-3 -1 5 12824.1 541.747 11
-3 -1 5 12520.7 528.509 33
-3 -1 5 13454.9 631.617 17
-3 -1 5 12889.4 576.524 16
-3 -1 5 11206.3 604.425 15
-3 -1 5 12746 636.821 14
-3 -1 4 637.157 127.443 11
3 1 -4 552.486 136.651 10
-3 -1 4 780.763 138.33 1
-3 -1 4 925.749 185.402 9
-3 -1 3 36949.3 768.999 11
-3 -1 3 38315.9 946.874 1
-3 -1 3 39532.8 1012.18 9
-3 -1 2 40988.2 751.785 11
-3 -1 2 42576.7 1088.3 1
3 1 -2 40282.2 1136.12 10
-3 -1 2 43247.5 897.812 9
-3 -1 1 36445.8 1095.68 1
-3 -1 1 32696 656.517 11
3 1 -1 35823.7 1122.78 10
-3 -1 0 12174.7 662.53 1
3 1 0 12964.9 701.544 10
-3 -1 -1 7498.04 482.969 1
3 1 1 8547.37 525.181 10
-3 -1 -2 51097.3 1202.52 1
3 1 2 55167.9 1262.56 10
3 1 3 96651.4 1645.03 10
-3 -1 -3 99342 1659.37 1
-3 -1 -4 42015.3 946.454 1
3 1 4 37138.5 910.211 7
3 1 5 6848.14 426.763 13
3 1 5 5853.7 445.819 24
3 1 5 6865.03 416.501 6
3 1 5 6543.51 426.941 22
3 1 5 5860.81 411.649 21
3 1 5 6226.48 439.214 7
3 1 6 307.651 142.917 7
3 1 6 291.398 123.807 6
3 1 6 363.816 167.537 24
3 1 6 506.719 149.802 22
3 1 6 692.038 179.325 21
3 1 6 417.909 150.128 13
3 1 7 3767.74 317.976 13
3 1 7 3443.63 327.938 24
3 1 7 3387.51 311.752 21
3 1 7 3242.61 284.137 15
3 1 7 3996.26 306.238 36
3 1 8 5164.29 344.659 13
3 1 8 5080.38 339.944 24
3 1 8 5111.02 338.212 21
3 1 8 5234.89 342.609 18
3 1 8 4886.6 292.41 15
3 1 8 5494.43 331.283 36
3 1 9 11736.3 433.04 13
3 1 9 10397.6 401.298 24
3 1 9 11189.4 416.781 21
3 1 9 11349 404.665 18
3 1 9 11024.2 396.707 36
3 1 9 11053.6 355.429 15
3 1 10 4185.43 193.534 21
3 1 10 4104.79 186.08 13
-3 -2 10 6322.87 192.881 24
-3 -2 10 6303.9 196.532 17
-3 -2 9 2112.5 165.755 17
-3 -2 9 1939.38 132.772 16
-3 -2 9 2189.96 173.811 14
-3 -2 8 46126 845.661 12
-3 -2 8 48301.6 979.036 17
-3 -2 8 46504.5 889.895 16
-3 -2 8 46433.7 957.517 15
-3 -2 8 49074.5 1012.36 14
-3 -2 7 10151.6 435.974 12
-3 -2 7 10020.9 420.554 20
-3 -2 7 10546.7 514.003 17
-3 -2 7 9977.91 466.308 16
-3 -2 7 9049.23 480.212 15
-3 -2 7 10858.1 522.617 14
-3 -2 6 1489.21 196.778 12
-3 -2 6 2110.34 264.412 31
-3 -2 6 1970.73 255.37 17
-3 -2 6 1668.96 219.247 16
-3 -2 6 1407.58 225.204 15
-3 -2 6 1803.64 242.907 14
-3 -2 5 17911.5 643.121 12
-3 -2 5 17601.2 634.509 11
-3 -2 5 19289.3 741.096 17
-3 -2 5 18419.2 666.64 16
-3 -2 5 16688.5 696.283 15
-3 -2 5 18189.7 759.663 14
-3 -2 5 18959.5 752.984 31
-3 -2 4 5359.17 325.027 11
-3 -2 3 3992.02 309.266 1
-3 -2 3 4658.57 265.203 11
3 2 -3 4184.21 369.339 10
-3 -2 2 66089.3 1398.32 1
-3 -2 2 67315.9 986.318 11
-3 -2 1 11556.1 618.637 1
-3 -2 1 11958.9 374.434 11
3 2 -1 10271.2 579.108 10
3 2 0 130118 2266.13 10
-3 -2 0 130288 2365.2 1
-3 -2 -1 18550 824.708 1
-3 -2 -1 19620.6 506.401 11
3 2 1 20744.4 820.806 10
-3 -2 -2 11575.7 599.1 1
3 2 2 10854.3 555.732 10
-3 -2 -3 76950.6 1485.45 1
3 2 3 70125.2 1422.95 10
-3 -2 -4 3867.87 297.861 1
3 2 4 3090.68 284.496 10
3 2 5 29043.6 876.141 13
3 2 5 25455.3 853.545 24
3 2 5 27327.9 795.734 6
3 2 5 26937.5 839.534 22
3 2 5 26087.4 844.254 21
3 2 5 27872.8 902.536 7
3 2 6 5902.91 398.215 13
3 2 6 4923.86 401.407 24
3 2 6 5389.64 407.776 21
3 2 6 5438.21 360.561 30
3 2 6 4646.28 391.267 7
3 2 7 11180.5 532 13
3 2 7 10183.7 537.979 24
3 2 7 10615.6 537.721 21
3 2 7 11229.3 542.367 18
3 2 7 10415.2 518.89 15
3 2 8 2589.59 259.88 13
3 2 8 2415.41 258.687 24
3 2 8 2638.88 256.988 21
3 2 8 2730.12 266.086 18
3 2 8 2522.93 235.752 15
3 2 9 7340.4 360.288 13
3 2 9 6974.31 353.007 24
3 2 9 6975.95 353.83 21
3 2 9 7581.45 355.876 18
3 2 9 7200.11 313.86 15
3 2 10 2601.91 170.822 21
3 2 10 2554.48 149.714 15
3 2 10 2782.87 173.377 13
-3 -3 10 777.97 58.4283 24
-3 -3 9 172.171 42.3506 20
-3 -3 9 320.78 61.2619 17
-3 -3 9 335.135 73.068 14
-3 -3 8 1829.28 157.376 20
-3 -3 8 1610.71 158.819 17
-3 -3 8 1735.17 185.06 14
-3 -3 7 26207.9 742.695 17
-3 -3 7 25315.6 645.552 16
-3 -3 7 25616.5 785.049 14
-3 -3 6 5389.73 386.063 17
-3 -3 6 4727.04 319.302 16
-3 -3 6 5588.06 403.524 14
-3 -3 6 5483.4 396.534 31
-3 -3 5 5787.92 400.61 17
-3 -3 5 5724.02 354.264 16
-3 -3 5 5449.91 424.541 14
-3 -3 5 5858.31 423.039 31
-3 -3 4 1008.34 170.202 17
-3 -3 4 944.37 147.661 16
-3 -3 4 847.406 188.995 14
3 3 -3 7764.52 530.471 10
-3 -3 3 7970.25 448.169 1
3 3 -2 142706 2437.66 10
-3 -3 2 158316 2389.71 1
3 3 -1 35065.6 1152 10
-3 -3 1 39206.1 1237.21 1
3 3 0 27149.3 1024.16 10
-3 -3 0 27111.9 1099.68 1
-3 -3 -1 3530.04 201.404 11
3 3 1 3316.3 371.505 10
-3 -3 -1 2834.39 361.382 1
3 3 2 5049.53 413.374 10
-3 -3 -2 5604.1 452.859 1
3 3 3 33483.4 1000.43 10
-3 -3 -3 38744.7 1096.39 1
3 3 4 5651.12 376.343 10
3 3 4 6629.19 389.35 7
3 3 5 2942.14 275.394 30
3 3 5 3223.56 305.157 13
3 3 5 2974.71 285.339 21
3 3 5 3202.33 287.783 18
3 3 5 3014.78 316.599 7
3 3 6 17783.3 640.055 30
3 3 6 18066.2 696.019 13
3 3 6 16989.3 706.78 24
3 3 6 17718.3 722.094 21
3 3 6 18816.3 688.009 18
3 3 6 15705.2 703.562 7
3 3 7 3804.34 283.777 30
3 3 7 4048.47 330.807 13
3 3 7 3432.21 325.484 24
3 3 7 3732.93 332.933 21
3 3 7 3838.94 320.825 18
3 3 7 3769.45 320.577 15
3 3 8 9979.09 481.005 13
3 3 8 10066.3 481.11 21
3 3 8 10398.6 482.568 18
3 3 8 10430.1 448.516 15
3 3 9 9096.34 395.568 21
3 3 9 9066.9 403.493 13
3 3 9 9012.98 394.336 18
3 3 9 9142.37 362.352 15
3 3 10 7859.27 289.513 13
3 3 10 8105.7 276.447 15
-3 -4 9 626.785 66.4957 14
-3 -4 9 619.438 58.7312 20
-3 -4 8 2469.51 166.085 20
-3 -4 8 2354.67 138.858 17
-3 -4 8 2425.98 186.5 14
-3 -4 7 2829.76 206.079 17
-3 -4 7 3031.24 257.307 14
-3 -4 6 12131.5 514.11 17
-3 -4 6 12714 577.875 14
-3 -4 6 13009 556.283 31
-3 -4 5 10090.9 531.817 31
-3 -4 5 9585.08 493.987 17
-3 -4 5 10207.2 566.373 14
-3 -4 4 18319.3 672.718 17
-3 -4 4 17948 794.158 14
3 4 -3 10842.2 658.558 10
-3 -4 3 12386.4 697.254 14
-3 -4 3 12550.2 527.668 17
-3 -4 3 12423.2 590.145 1
3 4 -2 6477.29 517.13 10
-3 -4 2 7465.94 509.663 1
3 4 -1 28485.2 1046.07 10
-3 -4 1 36059.1 1237.54 1
3 4 0 43991.3 1301.34 10
-3 -4 0 50029.7 1603.53 1
3 4 1 2768.64 325.663 10
-3 -4 -1 2803.91 404.693 1
3 4 2 1397.5 225.85 10
-3 -4 -2 1072.58 244.797 1
3 4 3 19934.4 777.293 10
-3 -4 -3 27510.8 1013.49 1
3 4 4 661.723 155.312 30
3 4 4 501.903 154.708 13
3 4 4 404.985 130.137 7
3 4 4 613.811 150.604 18
3 4 4 306.292 113.982 10
-3 -4 -4 666.467 161.466 1
3 4 5 1125.18 181.606 30
3 4 5 1086.92 211.056 13
3 4 5 1099.85 187.16 18
3 4 5 936.22 185.076 7
3 4 6 30429.4 931.652 13
3 4 6 28113.4 813.017 30
3 4 6 30425.3 924.658 21
3 4 6 28844.8 850.346 18
3 4 7 5285.43 383.784 13
3 4 7 5288.48 330.988 30
3 4 7 5432.87 387.198 21
3 4 7 5439.36 369.345 18
3 4 7 5640.61 355.969 15
3 4 8 16875.4 606.864 13
3 4 8 15558.9 482.695 30
3 4 8 17318.1 604.165 21
3 4 8 15454.7 567.88 18
3 4 8 16899.7 538.857 15
3 4 9 20516.9 579.255 13
3 4 9 19235.9 558.328 18
3 4 10 2273.39 157.562 26
3 4 10 2020.63 140.755 13
3 4 10 2259.28 144.614 15
-3 -5 8 7116.21 217.653 20
-3 -5 8 7261.69 243.498 14
-3 -5 7 11342.2 370.638 20
-3 -5 7 11163 405.76 14
-3 -5 6 24682.8 654.872 31
-3 -5 6 25208 733.841 14
-3 -5 5 10446.7 458.127 17
-3 -5 5 10010.9 524.928 14
-3 -5 5 10089.5 483.95 31
-3 -5 4 2815.21 259.196 17
-3 -5 4 2880.8 319.228 14
3 5 -3 20816 926.639 3
-3 -5 3 18856.7 657.528 17
3 5 -2 5113.22 524.287 3
-3 -5 2 4244.43 399.336 4
3 5 -2 3962.7 442.665 10
-3 -5 2 3497.72 362.434 1
-3 -5 2 3657.13 408.242 14
-3 -5 1 1217.51 237.659 5
-3 -5 1 1978.93 291.839 4
3 5 -1 1911.44 343.728 3
-3 -5 1 1312.57 278.465 1
3 5 -1 1191.2 267.304 10
-3 -5 1 1453.85 270.422 14
-3 -5 0 1345.67 253.737 5
-3 -5 0 1086.22 278.769 1
3 5 0 1238.3 273.296 3
3 5 0 958.227 237.214 10
-3 -5 0 1233.97 240.222 4
3 5 1 1952.86 261.762 30
-3 -5 -1 1627.86 343.837 1
-3 -5 -1 1716.06 287.915 4
3 5 1 1824.86 320.968 3
3 5 1 1711.43 287.828 10
3 5 2 3578.35 339.521 30
3 5 2 2995.84 365.378 3
-3 -5 -2 3386.65 358.506 4
3 5 2 2636.54 323.04 10
-3 -5 -2 3297.47 436.594 1
3 5 3 13553.2 633.091 13
3 5 3 13792 639.137 30
3 5 3 13046.6 682.005 3
-3 -5 -3 12453.1 612.182 4
-3 -5 -3 13700.9 782.92 1
3 5 4 102345 1877.64 13
3 5 4 102720 1734.14 30
3 5 4 100364 1890.12 3
-3 -5 -4 99866.9 1753.62 4
3 5 4 105712 1785.62 18
3 5 5 24639.7 881.53 13
3 5 5 24391.2 775.664 30
3 5 5 24924.5 822.514 18
3 5 6 3809.6 347.288 13
3 5 6 3440.49 285.094 30
3 5 6 3707.45 315.696 18
3 5 6 3868.1 269.621 15
3 5 7 713.583 140.991 30
3 5 7 644.304 164.866 13
3 5 7 674.454 160.197 18
3 5 7 806.852 132.348 15
3 5 8 5288.42 320.267 13
3 5 8 5273.33 268.424 30
3 5 8 4765.31 302.61 18
3 5 8 5520.96 267.113 15
3 5 9 3277.08 212.494 26
3 5 9 3042.73 174.752 15
3 5 10 2377.04 137.084 26
3 5 10 2267.25 115.247 15
-3 -6 7 627.952 67.8845 20
-3 -6 7 746.595 83.8504 14
-3 -6 6 14884.8 459.072 14
-3 -6 5 5667.48 293.223 31
-3 -6 5 5580.44 336.929 14
-3 -6 4 2367.17 225.341 31
-3 -6 4 2236.88 251.353 14
3 6 -3 33857.1 970.776 3
-3 -6 3 28731.7 950.435 14
3 6 -2 9403.07 597.819 3
-3 -6 2 6748.87 496.775 14
-3 -6 1 317.04 143.256 14
3 6 -1 676.815 234.094 3
3 6 0 20695.5 939.627 3
3 6 1 792.193 170.651 30
3 6 1 419.32 227.285 3
3 6 2 2605.12 344.031 3
3 6 2 3020.31 301.797 30
3 6 3 8709.46 499.559 30
3 6 3 8098.2 510.214 3
3 6 4 2215.17 254.598 30
3 6 4 2117.31 253.76 3
3 6 5 44723.5 996.82 30
3 6 5 43674.6 979.809 3
3 6 6 22801.8 649.316 30
3 6 7 339.316 99.4118 30
3 6 7 422.561 102.819 26
3 6 8 504.281 100.933 26
3 6 8 492.441 93.3466 30
3 6 9 -11.4002 8.55879 28
3 6 9 891.18 95.534 26
-3 -7 5 7229.86 281.757 14
-3 -7 4 3504.23 238.046 14
-3 -7 3 5451.02 335.006 14
3 7 -2 19742.5 695.604 3
-3 -7 2 14988.3 606.354 14
3 7 -1 32122.5 956.177 3
-3 -7 1 20052.9 736.181 14
3 7 0 20422.7 787.59 3
3 7 1 5596.61 429.098 3
3 7 2 9011.53 459.547 30
3 7 2 8755.93 509.984 3
3 7 3 4701.62 331.003 30
3 7 3 4280.78 332.333 3
3 7 4 371.372 139.748 30
3 7 4 283.63 119.805 3
3 7 5 6362.76 341.045 30
3 7 5 6019.72 319.725 3
3 7 6 767.017 135.83 30
3 7 7 273.814 80.3525 30
3 7 8 5912.85 213.772 30
3 7 8 6390.88 219.434 28
-3 -8 3 1371.42 111.827 14
3 8 -2 336.398 85.3973 3
-3 -8 2 -58.4145 32.9867 14
3 8 -1 982.198 153.895 3
3 8 0 17118.3 577.125 3
3 8 1 5620.81 350.115 3
3 8 2 1280.14 155.04 30
3 8 2 1333.48 188.408 3
3 8 2 1653.29 146.943 32
3 8 3 14647.2 503.264 3
3 8 3 13834.9 473.688 30
3 8 4 331.066 101.827 30
3 8 4 484.445 106.518 3
3 8 5 321.106 86.2884 30
3 8 5 -22.4936 20.1704 3
3 8 6 3599.6 187.771 30
3 8 6 3720.38 172.858 28
3 8 7 146.141 40.0869 30
3 8 7 200.985 42.5196 28
3 9 1 194.721 58.9041 3
3 9 2 218.938 61.08 3
3 9 3 211.233 49.6187 3
-4 5 4 563.556 65.5853 23
-4 5 3 291.816 58.9647 23
-4 5 3 361.673 71.8805 4
-4 5 2 1964.87 118.049 23
-4 5 2 2438.89 182.197 4
-4 5 1 8684.01 341.952 4
-4 5 0 2062.7 156.751 4
4 -5 1 278.766 62.8876 22
-4 4 7 2440.27 110.08 33
-4 4 6 332.627 57.7603 23
-4 4 6 134.744 51.6653 33
-4 4 5 2984.85 192.486 23
-4 4 5 2575.15 185.893 33
-4 4 4 283.63 92.431 23
-4 4 4 261.872 87.4127 4
-4 4 3 9209.16 431.496 23
-4 4 3 9418.28 463.37 4
-4 4 3 8283.49 363.035 33
-4 4 2 5656.54 345.91 23
-4 4 2 5717.53 405.128 4
-4 4 1 3906.02 258.193 23
-4 4 1 3472.63 339.659 4
-4 4 0 11229.1 557.93 4
4 -4 1 247.306 89.4891 13
-4 4 -1 278.847 111.226 4
4 -4 2 4221.41 252.566 13
-4 4 -2 4379.94 256.307 4
4 -4 3 6313.42 270.608 13
4 -4 3 6299.08 282.449 22
4 -4 4 435.536 66.1175 13
4 -4 4 377.255 57.5647 22
-4 3 8 572.265 61.3143 33
-4 3 7 7709.7 237.738 23
-4 3 7 8226.57 285.288 33
-4 3 6 3654.69 213.287 23
-4 3 6 3517.79 234.98 33
-4 3 5 3503.15 282.821 33
-4 3 5 4078.26 275.795 23
-4 3 5 3747.01 248.021 4
-4 3 5 4512.45 419.212 27
-4 3 4 442.111 138.772 23
-4 3 4 433.916 135.786 4
-4 3 4 96.9445 205.437 33
-4 3 3 4074.96 372.542 23
-4 3 3 4176.95 387.958 4
-4 3 3 3395.41 329.049 33
-4 3 2 26408.1 985.713 23
-4 3 2 26042.5 1056.72 4
-4 3 1 11163 573.509 23
-4 3 1 9695.22 703.539 4
-4 3 0 33609.4 1208.61 4
4 -3 1 6044.43 432.323 13
-4 3 -1 6200.03 470.777 4
4 -3 2 1106.81 195.922 13
-4 3 -2 1118.98 194.205 4
4 -3 3 6190.52 371.153 13
-4 3 -3 6580.05 338.904 4
4 -3 4 390.29 109.255 13
4 -3 4 424.571 109.955 22
4 -3 5 402.291 78.1658 22
4 -3 5 300.232 81.9565 13
4 -3 6 2462.08 133.234 13
4 -3 6 2414.24 135.637 36
-4 2 8 1842.01 162.608 29
-4 2 8 1668.05 107.423 12
-4 2 8 1988.58 131.735 33
-4 2 7 6792.66 402.729 29
-4 2 7 7015.33 339.837 27
-4 2 7 7039.71 286.446 12
-4 2 7 6761.72 260.13 23
-4 2 7 6631.55 268.765 16
-4 2 7 6841.8 305.932 33
-4 2 6 12768.8 645.635 29
-4 2 6 12436.7 594.49 27
-4 2 6 13143.7 473.879 12
-4 2 6 13670.8 467.24 23
-4 2 6 13429.3 442.674 16
-4 2 6 13707.8 533.915 33
-4 2 5 4876.65 437.736 29
-4 2 5 4539.52 453.252 27
-4 2 5 4990.05 331.41 12
-4 2 5 5687.51 365.882 23
-4 2 5 4637.86 375.172 33
-4 2 4 15084.2 810.706 27
-4 2 4 15385.5 568.877 12
-4 2 4 16260.1 714.781 23
-4 2 4 16250.2 702.113 4
-4 2 4 15057 758.796 33
-4 2 3 12524.4 490.613 12
-4 2 3 11424.5 650.221 23
-4 2 3 13400.9 742.563 4
-4 2 3 12053.3 685.861 33
-4 2 2 5246.38 303.751 12
-4 2 2 4642.88 441.178 23
-4 2 2 4931.97 508.522 4
-4 2 2 4600.35 384.109 33
-4 2 1 5076.09 406.753 23
-4 2 1 4800.07 526.996 4
-4 2 0 3924.15 317.961 23
-4 2 0 2869.12 384.474 4
-4 2 -1 640.21 199.573 4
4 -2 2 6334.37 457.002 13
-4 2 -2 6832.77 462.938 4
4 -2 3 35398.9 1023.78 13
-4 2 -3 36579.6 946.055 4
4 -2 4 2853.67 278.182 13
4 -2 4 2555.53 277.096 22
4 -2 5 2460.22 230.459 13
4 -2 5 2174.29 217.129 22
4 -2 6 2811.11 203.859 13
4 -2 6 2725.66 189.65 22
4 -2 7 259.432 59.5422 13
4 -2 7 220.236 57.001 36
-4 1 9 528.839 63.679 16
-4 1 8 3247.44 234.473 29
-4 1 8 3909.19 207.662 12
-4 1 8 3328.47 175.993 17
-4 1 8 3756.7 209.763 16
-4 1 8 3988.2 195.131 33
-4 1 7 1352.92 219.282 29
-4 1 7 1588.06 180.358 12
-4 1 7 1701.82 150.826 23
-4 1 7 1768.07 158.492 17
-4 1 7 1648.06 176.588 16
-4 1 7 1753.27 195.138 14
-4 1 7 1834.26 197.386 33
-4 1 6 25158.7 975.986 29
-4 1 6 26889.4 878.993 27
-4 1 6 32323.4 884.035 12
-4 1 6 30892.7 753.775 23
-4 1 6 30614.3 825.973 16
-4 1 6 34503.7 962.493 14
-4 1 6 30422.7 835.035 33
-4 1 5 12416.1 696.712 29
-4 1 5 11174.3 687.041 27
-4 1 5 14213.6 574.249 12
-4 1 5 13187 557.89 23
-4 1 5 13799.5 590.085 16
-4 1 5 15650 739.805 14
-4 1 5 13304.2 618.709 33
-4 1 4 4935.84 440.936 29
-4 1 4 5014.52 470.648 27
-4 1 4 5284.54 345.463 12
-4 1 4 4836.99 382.489 23
-4 1 4 5478.64 419.938 4
-4 1 4 5215.03 380.753 16
-4 1 4 4913.3 434.346 14
-4 1 4 3635.56 362.206 33
-4 1 3 28080.8 985.762 29
-4 1 3 24903.2 974.314 27
-4 1 3 25793.7 719.396 12
-4 1 3 23828.1 906.349 23
-4 1 3 25796.1 1018.05 4
-4 1 3 24806.7 933.87 14
-4 1 3 22329.9 909.525 33
-4 1 2 12947.5 671.959 27
-4 1 2 11619.9 468.619 12
-4 1 2 10487.5 638.115 23
4 -1 -2 10856.7 714.036 2
-4 1 2 11772.2 759.47 4
-4 1 2 12038.6 710.409 1
-4 1 2 10237.6 563.218 33
-4 1 1 6724.92 355.88 12
-4 1 1 6190.73 445.246 23
4 -1 -1 6898.61 611.587 2
-4 1 1 6246.05 566.807 4
4 -1 -1 7309.18 683.224 10
-4 1 1 7320.67 576.735 1
-4 1 1 6949.39 410.935 33
-4 1 0 3787.92 272.829 12
-4 1 0 4210.45 332.887 23
-4 1 0 4674.7 333.634 11
4 -1 0 4480.29 500.972 2
-4 1 0 3881.03 434.545 4
4 -1 0 4553.99 521.788 10
-4 1 0 3904.87 404.866 1
4 -1 1 1106.82 281.109 2
-4 1 -1 887.169 209.531 1
-4 1 -1 614.727 197.25 4
4 -1 2 6279.32 467.355 13
-4 1 -2 6429.33 470.223 4
4 -1 3 1346.1 225.3 13
-4 1 -3 1448.78 210.759 4
4 -1 4 70428.9 1462.31 13
4 -1 4 70197.1 1549.52 22
4 -1 5 30920.4 882.435 13
4 -1 5 29395.5 884.387 22
4 -1 6 4194.33 292.25 13
4 -1 6 3800.74 278.266 22
4 -1 7 3702.02 230.772 13
4 -1 7 3443.45 208.981 36
4 -1 8 1416.46 107.547 13
-4 0 9 9371.92 256.607 12
-4 0 9 9552.63 272.367 17
-4 0 9 9985.75 283.247 16
-4 0 8 14869.3 431.008 12
-4 0 8 14583.9 431.126 17
-4 0 8 15483.1 469.129 16
-4 0 8 14559.2 456.252 14
-4 0 7 9322.78 426.976 12
-4 0 7 9149.74 395.959 17
-4 0 7 9806.28 452.643 16
-4 0 7 9575 454.342 14
-4 0 7 9775.17 398.24 33
-4 0 6 34551.2 922.66 12
-4 0 6 33305.8 783.824 23
-4 0 6 34209.4 865.558 17
-4 0 6 35823.6 968.689 16
-4 0 6 35974 1019.33 14
-4 0 6 34151.8 864.217 33
-4 0 5 1144.52 234.53 29
-4 0 5 1295.71 202.189 12
-4 0 5 1259.19 187.442 23
-4 0 5 1254.54 191.451 17
-4 0 5 1030.87 200.302 16
-4 0 5 1180.47 214.892 33
-4 0 5 1303.18 247.64 14
-4 0 4 14090.4 552.258 12
-4 0 4 12378.3 585.246 23
-4 0 4 14623.8 659.649 4
-4 0 4 13161.5 599.869 17
-4 0 4 12998.6 598.359 16
-4 0 4 13034.9 706.907 14
-4 0 4 12610.9 632.722 33
-4 0 3 22846.7 858.367 27
-4 0 3 23699.9 687.884 12
-4 0 3 24181 881.117 23
-4 0 3 27018.9 760.74 11
-4 0 3 25197.6 909.329 1
-4 0 3 26614.9 1008.9 4
4 0 -3 23411.9 973.358 10
-4 0 3 22797.7 764.507 16
-4 0 3 22890.8 901.105 14
-4 0 3 22595 873.561 33
-4 0 2 4643.27 431.599 1
-4 0 2 4249.34 285.622 12
-4 0 2 4488.78 404.402 23
-4 0 2 4358.74 296.453 11
-4 0 2 4271.98 454.133 4
4 0 -2 3889.2 443.624 10
-4 0 2 3310.06 281.149 16
-4 0 2 4183.81 367.199 14
-4 0 2 3937.08 339.901 33
-4 0 1 29650.2 1145.02 1
-4 0 1 25997.5 709.897 12
-4 0 1 26660.2 896.532 23
-4 0 1 29661.8 789.321 11
-4 0 1 28614.6 1197.62 4
4 0 -1 30328.5 1280.68 10
-4 0 1 28445.2 833.082 33
-4 0 0 44474.7 1408.17 1
-4 0 0 45888.3 1091.52 23
-4 0 0 51299.3 1080.89 11
-4 0 0 45431.1 1470.49 4
4 0 0 51986.5 1688.11 10
-4 0 -1 933.58 211.286 1
-4 0 -1 1422.8 197.41 11
4 0 1 1371.85 281.316 10
-4 0 -1 999.782 223.176 4
-4 0 -2 42886.1 1106.87 11
-4 0 -2 39850.2 1184.98 4
4 0 2 41547.6 1310.61 10
4 0 3 4667.67 390.313 13
4 0 3 4282.15 406.974 22
-4 0 -3 4289.58 349.087 4
-4 0 -3 4399.04 365.29 1
4 0 4 445.374 159.039 13
4 0 4 367.948 168.084 22
4 0 5 32141.6 951.02 13
4 0 5 32513 986.529 22
4 0 6 4505.41 332.559 13
4 0 6 4323.9 333.169 22
4 0 7 333.502 111.472 13
4 0 7 245.019 87.9107 36
4 0 8 6700 284.131 13
4 0 8 6230.9 262.977 18
4 0 9 4427.54 158.966 13
-4 -1 9 728.767 86.2087 17
-4 -1 9 689.804 78.4605 16
-4 -1 9 733.373 84.3519 14
-4 -1 8 10900.2 365.844 12
-4 -1 8 11543.5 402.629 17
-4 -1 8 11881.3 412.25 16
-4 -1 8 11396.7 413.381 14
-4 -1 7 2798.96 238.11 12
-4 -1 7 2874.03 254.101 17
-4 -1 7 2795.41 251.597 16
-4 -1 7 3154.52 271.388 14
-4 -1 6 17406.7 642.89 12
-4 -1 6 17846 673.821 17
-4 -1 6 18441.7 710.751 16
-4 -1 6 19612.9 761.879 14
-4 -1 6 19115 627.907 33
-4 -1 5 71453 1370.41 12
-4 -1 5 73437.8 1323.1 23
-4 -1 5 74423.4 1526.09 17
-4 -1 5 73683.9 1491.89 16
-4 -1 5 76033.2 1693.6 14
-4 -1 5 72440.4 1420.71 33
-4 -1 4 6327.62 372.248 12
-4 -1 4 6102.47 405.262 23
-4 -1 4 5599.68 405.626 17
-4 -1 4 6090.45 410.215 16
-4 -1 4 6279.96 516.366 14
-4 -1 4 6312.3 448.508 33
-4 -1 4 5685.04 418.753 31
-4 -1 3 10839.6 461.158 12
-4 -1 3 11525.2 588.189 23
-4 -1 3 11779.3 481.323 11
-4 -1 3 11707.7 648.739 4
4 1 -3 9933.1 629.556 10
-4 -1 3 10935.9 535.884 17
-4 -1 3 11434.8 531.038 16
-4 -1 3 10917.4 646.05 14
-4 -1 3 11826 607.471 1
-4 -1 3 12108.1 621.992 33
-4 -1 3 11389.1 603.835 31
-4 -1 2 7342.23 369.756 12
-4 -1 2 8566.25 533.501 23
-4 -1 2 8131.83 391.001 11
-4 -1 2 8028.67 586.803 4
4 1 -2 7279.3 575.496 10
-4 -1 2 7326.63 411.355 16
-4 -1 2 8360.74 569.075 1
-4 -1 2 6978.16 478.474 14
-4 -1 2 7622.45 464.201 33
-4 -1 1 15402.9 524.348 12
-4 -1 1 16187.6 677.437 23
-4 -1 1 16870.4 564.928 11
-4 -1 1 18337.6 957.053 4
4 1 -1 17111.2 938.442 10
-4 -1 1 17102.7 880.436 1
-4 -1 1 15421.7 582.232 16
-4 -1 1 16206.8 622.823 33
-4 -1 0 50705.6 1039.53 11
-4 -1 0 49322.6 1554.27 4
-4 -1 0 49268.6 1582.59 1
-4 -1 -1 17012.7 611.64 11
-4 -1 -1 15883.8 798.649 4
4 1 1 17781.9 903.1 10
4 1 2 37580.4 1190.03 22
-4 -1 -2 40377.3 1019.49 11
-4 -1 -2 36950.3 1120.56 4
4 1 2 38994.5 1267.24 10
-4 -1 -2 35659.1 1152.82 1
4 1 3 18832.2 782.866 13
4 1 3 19716.6 826.195 22
-4 -1 -3 22198.8 833.16 11
-4 -1 -3 19487 746.699 4
4 1 3 20492.1 856.634 10
-4 -1 -3 20141.2 795.755 1
4 1 4 1666.89 249.212 13
4 1 4 2061.04 278.332 22
4 1 5 18416.2 727.555 13
4 1 5 17998.5 741.771 22
4 1 5 16496.2 703.425 21
4 1 6 895.304 172.182 30
4 1 6 924.766 188.109 13
4 1 6 851.49 189.326 21
4 1 7 809.298 165.307 13
4 1 7 692.86 136.751 21
4 1 7 700.697 132.9 15
4 1 8 609.879 117.787 13
4 1 8 764.772 128.619 18
4 1 8 600.34 88.8547 15
4 1 9 1245.53 110.957 13
4 1 9 1276.63 102.209 18
-4 -2 9 2715.23 140.833 17
-4 -2 9 2303.71 109.357 16
-4 -2 9 2546.03 138.512 14
-4 -2 8 552.155 86.7159 12
-4 -2 8 524.107 98.9499 17
-4 -2 8 508.379 88.8929 16
-4 -2 8 567.717 108.442 14
-4 -2 7 1114.33 147.159 12
-4 -2 7 1310.65 179.776 17
-4 -2 7 1181.13 163.954 16
-4 -2 7 1341.52 186.558 14
-4 -2 6 2539.34 251.561 12
-4 -2 6 2839.62 288.701 17
-4 -2 6 2460.78 264.986 16
-4 -2 6 2981.65 300.846 14
-4 -2 5 3458.75 286.731 12
-4 -2 5 3538.39 336.575 17
-4 -2 5 3573.85 321.699 16
-4 -2 5 3537.39 369.242 14
-4 -2 5 3471 330.14 31
-4 -2 4 33409.9 853.037 12
-4 -2 4 33188.7 986.557 17
-4 -2 4 33614.4 936.766 16
-4 -2 4 33229.6 1183.44 14
-4 -2 4 31730.3 1014.93 31
-4 -2 3 32553.2 796.272 12
-4 -2 3 33467.8 976.935 23
-4 -2 3 34119.4 846.147 11
-4 -2 3 34282.8 1092.28 4
4 2 -3 30480.7 1140.8 10
-4 -2 3 33004.1 954.216 17
-4 -2 3 34345.9 1055.12 1
-4 -2 3 33988 920.158 16
-4 -2 3 29460.7 1115.04 14
-4 -2 3 31926.5 1036.61 31
-4 -2 2 10867.6 587.982 31
-4 -2 2 11046.9 443.217 12
-4 -2 2 12406 621.178 23
-4 -2 2 11463.3 459.318 11
-4 -2 2 12016.4 691.244 4
-4 -2 2 11296.7 655.804 1
4 2 -2 10519.2 704.377 10
-4 -2 2 11765.1 537.765 17
-4 -2 2 12483.3 535.538 16
-4 -2 1 29825.4 921.633 23
-4 -2 1 27471.6 700.674 12
-4 -2 1 29885.2 1155.87 1
-4 -2 1 30347.8 748.176 11
-4 -2 1 32060.9 1200.01 4
4 2 -1 29654.2 1213.02 10
-4 -2 0 48388.1 1593.83 1
-4 -2 0 50173.3 992.52 11
-4 -2 0 53653.8 1607.92 4
4 2 0 52170.3 1678.24 10
-4 -2 -1 2731.64 370.909 1
-4 -2 -1 3552.53 268.06 11
-4 -2 -1 3172.41 357.766 4
4 2 1 3470.03 428.479 10
4 2 2 836.782 179.582 22
-4 -2 -2 597.521 134.438 11
-4 -2 -2 642.445 198.422 1
4 2 2 616.119 190.868 10
-4 -2 -2 698.766 183.038 4
4 2 3 32888.9 1025.86 13
4 2 3 32050.4 1025.21 22
-4 -2 -3 33500.1 994.228 4
4 2 3 35779.1 1179.99 10
-4 -2 -3 37606.2 1170.56 1
4 2 4 1577.68 240.59 13
4 2 4 1324.18 224.535 22
4 2 4 1429.31 216.327 7
4 2 5 6622.43 457.991 30
4 2 5 6992.57 457.028 13
4 2 5 5632.02 417.308 21
4 2 6 4496.68 341.597 30
4 2 6 4726.17 365.87 13
4 2 6 3808.76 337.222 21
4 2 7 1301.82 170.12 30
4 2 7 1463.69 206.65 13
4 2 7 1259.87 183.765 21
4 2 7 1460.96 228.673 18
4 2 7 1057.48 176.133 15
4 2 8 12617.2 473.835 13
4 2 8 12968.1 472.271 18
4 2 8 12292.9 400.396 15
4 2 9 2324.87 166.362 13
4 2 9 2110.45 150.447 18
4 2 9 2088.14 126.804 15
-4 -3 9 840.181 67.4581 14
-4 -3 8 956.875 104.598 17
-4 -3 8 1089.68 122.797 14
-4 -3 7 4560.53 220.882 12
-4 -3 7 4511.42 281.012 17
-4 -3 7 4084.07 240.948 16
-4 -3 7 4633.19 303.842 14
-4 -3 6 7300.11 347.692 12
-4 -3 6 7358.68 424.731 17
-4 -3 6 6831.25 380.353 16
-4 -3 6 7175.2 440.506 14
-4 -3 6 7615.62 432.162 31
-4 -3 5 2322.58 238.989 12
-4 -3 5 2312.01 266.575 17
-4 -3 5 2197.81 238.597 16
-4 -3 5 2178.75 292.952 14
-4 -3 5 2205.51 275.32 31
-4 -3 4 19594.3 659.643 12
-4 -3 4 19161.2 729.194 17
-4 -3 4 17736.1 651.443 16
-4 -3 4 17515.6 841.512 14
-4 -3 4 17760.7 768.851 31
-4 -3 3 8395.74 514.047 31
-4 -3 3 9454.25 434.79 12
-4 -3 3 9745.45 553.549 1
-4 -3 3 8887.83 553.736 4
4 3 -3 8493.93 622.824 10
-4 -3 3 9067.13 497.864 17
-4 -3 3 9111.88 461.582 16
-4 -3 3 7959.44 621.427 14
-4 -3 2 10109.4 624.098 1
-4 -3 2 9803.78 419.907 12
-4 -3 2 10007.3 629.413 4
4 3 -2 8808.12 663.364 10
-4 -3 2 9904.17 472.547 16
-4 -3 2 8223.72 582.883 14
-4 -3 1 52686.5 1577.06 1
-4 -3 1 53041.7 1010.61 12
-4 -3 1 53033.6 1534.62 4
4 3 -1 50302.1 1633.23 10
4 3 0 24040.6 934.357 30
-4 -3 0 25052.3 1180.87 1
-4 -3 0 24348.4 650.935 12
4 3 0 25972.2 1200.96 10
4 3 1 10934.1 662.389 30
-4 -3 -1 9348.68 701.326 1
-4 -3 -1 10548.6 660.637 4
4 3 2 800.808 203.369 30
-4 -3 -2 943.125 235.191 1
4 3 2 1349.58 275.659 10
-4 -3 -2 1004.2 211.227 4
4 3 3 1986.39 254.987 13
4 3 3 2012.21 288.069 30
-4 -3 -3 2099.9 297.875 1
-4 -3 -3 1673.98 241.417 4
-4 -3 -3 1940.76 224.626 11
4 3 3 1834.41 285.581 10
4 3 4 10792.1 598.424 13
4 3 4 9178.86 542.842 30
-4 -3 -4 9900.23 505.916 4
4 3 4 10179 536.545 7
4 3 5 20720.4 796.63 13
4 3 5 18458.5 744.335 30
4 3 5 20582.7 768.956 18
4 3 6 16114.7 673.28 13
4 3 6 15820.4 630.121 30
4 3 6 16167.9 659.539 18
4 3 7 954.068 155.206 30
4 3 7 1052.73 190.954 13
4 3 7 1201.7 206.692 18
4 3 7 916.82 179.758 15
4 3 8 1503.37 186.9 13
4 3 8 1952.05 202.24 18
4 3 8 1674.35 172.494 15
4 3 9 6931.55 287.689 13
4 3 9 6200.28 264.165 18
4 3 9 6611.42 237.566 15
-4 -4 8 1844.43 102.993 17
-4 -4 8 2154.31 134.622 14
-4 -4 7 4533.79 201.738 20
-4 -4 7 4969.91 242.121 17
-4 -4 7 5344.57 278.434 14
-4 -4 6 58280.3 1095.76 17
-4 -4 6 60450.8 1176.52 14
-4 -4 6 58384.9 1119.67 31
-4 -4 5 4363.47 332.88 17
-4 -4 5 4306.31 294.596 16
-4 -4 5 4997.62 389.573 14
-4 -4 5 4197.25 343.851 31
-4 -4 4 2436.61 281.245 31
-4 -4 4 2303.5 257.12 17
-4 -4 4 2545.98 241.916 16
-4 -4 4 2615.8 332.478 14
4 4 -3 18868.8 882.551 3
-4 -4 3 18526.1 778.821 4
-4 -4 3 18545.2 698.103 17
-4 -4 3 18245.1 635.442 16
-4 -4 2 548.741 163.8 1
-4 -4 2 545.007 176.971 4
-4 -4 2 748.423 152.492 16
-4 -4 2 625.769 190.229 14
-4 -4 1 13113.8 805.094 1
-4 -4 1 14702.6 791.883 4
4 4 0 5630.78 536.048 10
-4 -4 0 4764.06 543.041 1
4 4 1 593.519 189.636 30
4 4 1 943.619 250.446 10
-4 -4 -1 540.18 200.508 4
-4 -4 -1 678.682 252.909 1
-4 -4 -2 12829.4 817.355 1
4 4 2 13520.2 692.151 30
-4 -4 -2 12353.3 668.618 4
4 4 2 11743.3 709.076 10
4 4 3 1591.54 240.185 13
4 4 3 1408.91 246.896 30
-4 -4 -3 1726.01 289.288 1
-4 -4 -3 1968.99 258.253 4
4 4 4 18803.2 785.069 13
4 4 4 18100.1 738.839 30
4 4 4 17569.3 765.141 3
-4 -4 -4 16493.4 669.728 4
4 4 4 19303.8 752.655 18
4 4 5 22512.9 784.894 30
4 4 5 24022 882.392 13
4 4 5 23641.4 802.184 18
4 4 6 6035.15 420.319 13
4 4 6 5744.13 374.251 30
4 4 6 5907.45 387.287 18
4 4 7 21067.8 703.365 13
4 4 7 20261.6 612.765 30
4 4 7 20642.1 666.285 18
4 4 7 20801 647.921 15
4 4 8 3077.09 245.465 13
4 4 8 3043.15 228.484 18
4 4 8 3066.32 212.336 15
4 4 9 1237.21 123.092 13
4 4 9 920.363 107.448 18
4 4 9 1250.56 106.388 15
-4 -5 7 793.491 73.7526 20
-4 -5 7 907.158 97.1025 14
-4 -5 6 11659.3 366.154 17
-4 -5 6 12043.1 435.599 14
-4 -5 6 11716.2 398.557 31
-4 -5 5 18926.9 595.684 17
-4 -5 5 18965 653.676 14
-4 -5 5 19265.6 624.27 31
-4 -5 4 2772.45 279.669 31
-4 -5 4 2837.7 265.084 17
-4 -5 4 2760.4 302.345 14
4 5 -3 4775.44 450.095 3
-4 -5 3 4512.19 373.078 4
-4 -5 3 4384.17 334.964 17
-4 -5 3 4412.09 295.446 16
-4 -5 3 3563.58 387.988 14
4 5 -2 3398.67 420.088 3
-4 -5 2 3457.22 365.478 4
-4 -5 2 3601.37 310.408 17
-4 -5 2 3928.81 288.995 16
-4 -5 2 2986.82 384.75 14
4 5 -1 4175.07 461.766 3
-4 -5 1 4416.68 431.796 4
-4 -5 1 4455.98 312.232 16
4 5 0 38999.3 1362.58 3
-4 -5 0 41017.7 1338.24 4
4 5 1 5707.74 427.396 30
4 5 1 5125.32 518.332 3
-4 -5 -1 5539.1 509.409 4
4 5 2 8516.02 533.601 30
4 5 2 6685.95 544.114 3
-4 -5 -2 7407.76 517.642 4
4 5 3 1302.89 223.138 13
4 5 3 1180.6 227.804 30
4 5 3 1005.42 239.314 3
-4 -5 -3 1022.18 201.395 4
4 5 4 4146.64 364.199 13
4 5 4 4353.5 362.369 30
4 5 4 3706.63 365.82 3
-4 -5 -4 3855.94 337.084 4
4 5 4 4495.86 361.406 18
4 5 5 20301.9 780.613 13
4 5 5 20534.8 707.991 30
4 5 5 20644.7 724.024 18
4 5 6 3819.81 326.349 13
4 5 6 3691.71 291.966 30
4 5 6 3493.17 292.627 18
4 5 6 3575.35 265.787 15
4 5 7 6065.25 353.899 13
4 5 7 6187.17 319.974 30
4 5 7 5620.99 318.514 18
4 5 7 6542.13 304.656 15
4 5 8 2891.54 210.51 13
4 5 8 3006.45 173.997 30
4 5 8 2618.08 192.641 18
4 5 8 3191.93 179.339 15
4 5 9 523.754 72.0948 26
4 5 9 545.206 61.3925 15
-4 -6 6 3043.06 144.775 20
-4 -6 6 3313.71 168.999 14
-4 -6 5 2007.09 175.015 14
-4 -6 5 1928.12 159.255 31
-4 -6 4 627.749 129.355 31
-4 -6 4 568.194 104.626 17
-4 -6 4 576.104 128.649 14
4 6 -3 1279.6 195.515 3
-4 -6 3 1771.35 194.455 17
-4 -6 3 1115.89 186.86 14
4 6 -2 3815.73 379.798 3
-4 -6 2 3951.25 301.846 17
4 6 -1 2781.12 372.932 3
4 6 0 6119.9 537.221 3
4 6 1 17319.9 644.74 30
4 6 1 16694.9 845.565 3
4 6 2 32520.8 931.705 30
4 6 2 32162 1112.3 3
4 6 3 3139.19 317.021 30
4 6 3 3050.42 343.119 3
4 6 4 2553.71 262.039 30
4 6 4 2411.72 271.037 3
4 6 5 20812.3 641.743 30
4 6 6 3711.55 254.614 30
4 6 7 2066.98 166.548 30
4 6 7 1974.22 149.869 26
4 6 8 5825.4 203.025 30
4 6 8 5767.39 201.113 26
-4 -7 4 4022.8 192.243 14
-4 -7 4 5114.85 213.321 31
-4 -7 3 1481.43 152.96 31
-4 -7 3 59.8934 29.4234 14
4 7 -2 6182.02 343.824 3
4 7 -1 6945.86 408.62 3
-4 -7 1 8281.77 371.391 17
4 7 0 4826.32 366.008 3
-4 -7 0 5651.05 326.845 17
4 7 1 4310.49 364.292 3
4 7 2 982.984 150.96 30
4 7 2 1163.9 211.922 3
4 7 3 1532.23 191.125 30
4 7 3 1415.2 205.564 3
4 7 4 328.581 120.383 30
4 7 4 334.352 109.221 3
4 7 5 5202.35 276.297 30
4 7 5 11.1619 20.2137 3
4 7 6 22387.7 510.572 30
4 7 7 865.798 90.3312 30
-4 -8 2 555.042 72.5838 31
4 8 -1 30882 622.142 3
4 8 0 2962.6 219.295 3
4 8 1 250.624 104.551 3
4 8 2 2212.59 192.293 3
-4 -8 -2 1972.61 144.489 17
4 8 3 491.602 82.0133 30
4 8 3 530.162 101.516 3
4 8 4 165.143 63.5151 30
4 8 4 226.828 62.4082 3
4 8 5 644.265 82.1759 30
-5 3 5 1734.53 97.6964 23
-5 3 4 7714.39 249.564 23
-5 3 4 -18.8335 20.1292 4
-5 3 3 3157.59 193.705 23
-5 3 3 3138.52 205.975 4
-5 3 2 808.341 104.767 23
5 -3 -2 554.083 96.2943 22
-5 3 2 751.449 125.23 4
5 -3 -1 1843.55 182.275 22
-5 3 1 1911.76 195.738 4
5 -3 0 4213.57 264.447 22
-5 3 0 3977.12 258.273 4
5 -3 1 4743.12 258.603 22
-5 3 -1 4645.74 240.971 4
5 -3 2 188.303 62.2548 22
-5 2 6 32842.6 483.602 23
-5 2 5 2372.88 165.767 23
-5 2 5 2504.75 186.606 33
-5 2 4 3324.16 234.195 23
-5 2 4 3014.1 206.937 4
-5 2 4 3741.38 272.183 33
-5 2 3 3585.99 283.276 23
-5 2 3 3246.22 279.584 4
-5 2 3 3598.34 263.31 33
-5 2 2 1072.67 184.503 23
-5 2 2 739.429 175.947 4
-5 2 1 14152.3 510.359 23
-5 2 1 12096.8 662.433 4
-5 2 0 1499.17 236.135 4
5 -2 1 2534.37 270.389 22
-5 2 -1 2490.95 255.378 4
5 -2 2 1423.61 190.404 22
-5 2 -2 1772.11 179.748 4
5 -2 3 757.969 126.281 22
5 -2 4 21.2236 17.0274 30
5 -2 4 8709.02 302.129 22
-5 1 7 360.831 48.3109 12
-5 1 6 8968.49 295.545 12
-5 1 5 8971.12 359.058 23
-5 1 5 9384.41 421.15 33
-5 1 4 3339.23 241.703 12
-5 1 4 3998.92 309.703 23
-5 1 4 3327.06 259.831 4
-5 1 3 2930.36 235.445 12
-5 1 3 3033.84 296.316 23
-5 1 3 3099.86 331.647 4
-5 1 3 3618.48 338.726 33
-5 1 2 4440.3 285.082 12
-5 1 2 4854.87 374.54 23
-5 1 2 4659.84 448.945 4
-5 1 2 5452.98 363.858 33
-5 1 1 3829.14 266.663 12
-5 1 1 3988.53 321.932 23
-5 1 1 3602.02 402.66 4
-5 1 0 11013 444.226 12
-5 1 0 12413.8 480.189 23
5 -1 0 11384.3 646.097 22
-5 1 0 10040.5 615.431 4
-5 1 -1 5360.85 316.207 12
5 -1 1 6341.04 480.073 22
-5 1 -1 5927.9 430.366 4
5 -1 2 26810.1 880.333 22
-5 1 -2 26030.9 782.876 4
5 -1 3 4048.54 316.869 22
-5 1 -3 4013.42 255.592 4
5 -1 4 2414.59 197.146 13
5 -1 4 2461.78 217.749 22
5 -1 5 5574.86 242.547 13
5 -1 5 6.05579 9.6138 30
5 -1 6 242.514 54.1957 18
-5 0 7 3217.55 164.155 12
-5 0 7 3265.72 163.865 16
-5 0 6 3893.11 232.71 12
-5 0 6 4050.6 232.029 16
-5 0 5 9238.87 403.572 12
-5 0 5 9982.72 407.14 23
-5 0 5 8901.18 395.652 16
-5 0 5 9657.83 487.653 14
-5 0 4 2614.46 239.123 12
-5 0 4 2914.25 299.341 23
-5 0 4 2378.72 244.627 4
-5 0 4 2109.81 220.334 16
-5 0 4 2422.23 281.593 14
-5 0 4 2669.17 310.632 33
-5 0 3 1461.84 191.494 12
-5 0 3 1902.75 286.331 23
-5 0 3 1070.83 175.561 16
-5 0 3 1240.16 217.415 4
-5 0 3 1627.81 274.697 33
-5 0 2 6019.92 345.315 12
-5 0 2 6231.03 448.245 23
-5 0 2 6258.33 519.174 4
-5 0 2 5536.8 370.429 16
-5 0 1 8901.37 428 12
-5 0 1 9068.35 504.511 23
-5 0 1 8456.05 617.042 4
-5 0 0 5879.01 355.658 12
-5 0 0 7026.6 396.573 23
5 0 0 5489.79 463.747 22
-5 0 0 5410.17 482.227 4
-5 0 -1 6596.13 386.555 12
5 0 1 6167.92 470.069 22
-5 0 -1 5984.99 468.245 4
-5 0 -2 8197.52 440.512 12
5 0 2 8783.37 529.188 22
-5 0 -2 8150.24 484.429 4
5 0 3 456.158 161.394 22
-5 0 -3 282.305 103.998 4
5 0 4 14843 547.896 13
5 0 4 15392.3 596.162 22
5 0 5 28654.1 679.093 30
5 0 5 30481.5 711.252 13
5 0 5 31059.4 751.025 22
5 0 6 329.241 78.7024 13
5 0 7 178.93 46.917 18
-5 -1 8 285.327 37.5939 12
-5 -1 8 270.105 41.0027 16
-5 -1 7 535.713 78.3073 12
-5 -1 7 510.143 71.762 17
-5 -1 7 615.441 88.3692 16
-5 -1 7 671.961 100.765 14
-5 -1 6 420.928 95.1283 12
-5 -1 6 669.465 103.724 17
-5 -1 6 687.244 121.419 16
-5 -1 6 630.518 129 14
-5 -1 5 902.438 148.79 12
-5 -1 5 928.32 140.52 17
-5 -1 5 921.53 160.96 16
-5 -1 5 999.417 186.393 14
-5 -1 4 9205.52 442.111 12
-5 -1 4 9052.94 462.428 4
-5 -1 4 8673.65 433.697 17
-5 -1 4 8283.99 452.64 16
-5 -1 4 8014.05 515.448 14
-5 -1 3 5939.82 352.285 12
-5 -1 3 7068.68 465.027 23
-5 -1 3 6010.12 447.601 4
-5 -1 3 5760.8 386.272 16
-5 -1 3 5495.61 422.573 14
-5 -1 2 14913.3 552.395 12
-5 -1 2 15015.1 685.873 23
-5 -1 2 14108.2 764.7 4
-5 -1 2 14202.4 602.189 16
-5 -1 1 27602.5 765.583 12
-5 -1 1 28084.3 880.646 23
-5 -1 1 26022.2 1106.5 4
-5 -1 1 26993.2 840.428 16
-5 -1 0 22961 707.513 12
-5 -1 0 21159.2 961.459 4
-5 -1 0 21271.6 745.656 16
-5 -1 -1 8668.22 445.451 12
5 1 1 8101.59 520.993 22
-5 -1 -1 7934.08 543.964 4
5 1 2 4080.2 367.313 22
-5 -1 -2 3834.84 353.105 4
5 1 3 1047.98 199.106 22
-5 -1 -3 690.471 155.482 4
5 1 4 7054.15 404.26 13
5 1 4 8421.25 464.434 22
5 1 5 1335.73 173.816 13
5 1 5 1297.56 184.015 30
5 1 6 25181.1 616.408 13
5 1 6 23962.7 558.986 30
5 1 6 24732.8 540.095 15
5 1 7 5549.81 233.346 13
5 1 7 6102.6 249.63 18
-5 -2 8 538.791 54.5844 14
-5 -2 7 7499.39 237.225 12
-5 -2 7 7846.2 268.739 17
-5 -2 7 7805.35 271.94 16
-5 -2 7 8377.98 305.909 14
-5 -2 6 5275.07 265.266 12
-5 -2 6 5823.98 294.506 17
-5 -2 6 5642.89 297.804 16
-5 -2 6 6217.53 339.006 14
-5 -2 5 11384.5 452.066 12
-5 -2 5 11348.3 479.906 17
-5 -2 5 11200.7 499.291 16
-5 -2 5 11782.8 562.067 14
-5 -2 4 38678 888.199 12
-5 -2 4 36848.3 936.908 4
-5 -2 4 34864.9 962.729 17
-5 -2 4 36300.7 937.302 16
-5 -2 3 6605.89 373.186 12
-5 -2 3 6673.05 462.798 4
-5 -2 3 6241.39 412.217 17
-5 -2 3 6757.69 422.797 16
-5 -2 3 5447.12 436.355 14
-5 -2 3 6758.79 441.416 31
-5 -2 2 570.635 136.501 12
-5 -2 2 426.967 140.071 17
-5 -2 2 479.443 147.628 16
-5 -2 2 511.212 199.445 4
-5 -2 1 42726.6 951.155 12
-5 -2 1 44430.4 1464.58 4
-5 -2 1 42015.8 1091.78 17
-5 -2 1 43614 1092.75 16
-5 -2 0 5288.84 344.431 12
-5 -2 0 5326.55 510.827 4
-5 -2 0 5220.1 382.815 16
-5 -2 -1 18592.1 646.855 12
-5 -2 -1 16851.1 822.893 4
-5 -2 -1 18429.1 727.351 16
5 2 2 7239.78 474.058 22
-5 -2 -2 6933.77 485.599 4
5 2 3 287.253 191.387 30
-5 -2 -3 390.122 135.27 4
5 2 4 6685.42 415.273 13
5 2 4 7642.02 484.019 30
-5 -2 -4 7010.69 382.247 4
5 2 5 346.016 143.612 30
5 2 5 272.571 118.175 13
5 2 6 1144.92 157.94 13
5 2 6 1211.04 157.586 30
5 2 6 1324.18 175.719 18
5 2 7 12210.4 378.518 13
5 2 7 12785.3 389.606 18
5 2 7 11706.2 317.884 15
5 2 8 1919.48 112.657 13
5 2 8 2105.51 116.797 18
-5 -3 7 872.686 87.6839 17
-5 -3 7 868.604 79.9194 16
-5 -3 7 1048.97 102.143 14
-5 -3 6 14867.5 374.016 12
-5 -3 6 15653.3 461.164 17
-5 -3 6 14357.2 430.776 16
-5 -3 6 16178 511.848 14
-5 -3 5 4520.48 269.474 12
-5 -3 5 4221.64 294.147 17
-5 -3 5 4178.95 281.696 16
-5 -3 5 4493.82 334.371 14
-5 -3 4 40083 1005.59 17
-5 -3 4 40315.6 942.949 16
-5 -3 4 39010.5 999.709 31
-5 -3 3 49932.7 1014.13 12
-5 -3 3 47720.5 1215.63 4
-5 -3 3 46950.6 1125.37 17
-5 -3 3 47407.4 1071.75 16
-5 -3 3 45176.6 1175.32 31
-5 -3 2 4881.6 310.874 12
-5 -3 2 4798.19 440.123 4
-5 -3 2 4894.82 372.607 17
-5 -3 2 4693.58 350.897 16
-5 -3 2 4498.89 399.836 31
-5 -3 1 1828.59 200.847 12
-5 -3 1 1459.2 223.281 17
-5 -3 1 1545.24 219.037 16
-5 -3 1 1603.33 306.055 4
5 3 0 1145.4 244.115 30
-5 -3 0 1659.79 198.379 12
-5 -3 0 1509.25 224.84 16
-5 -3 0 1449.45 308.301 4
5 3 1 4565.73 455.93 30
-5 -3 -1 4743.98 325.875 12
-5 -3 -1 4187.08 435.177 4
5 3 2 4003.76 403.476 30
-5 -3 -2 3735.59 373.763 4
5 3 3 3712.58 378.43 30
-5 -3 -3 3042.63 304.558 4
5 3 4 22820.2 757.822 13
5 3 4 24381.6 840.181 30
-5 -3 -4 22706.5 721.72 4
5 3 5 4507.04 325.322 13
5 3 5 4816.2 353.983 30
5 3 5 4666.65 327.236 18
5 3 6 5094.16 304.515 13
5 3 6 5334.98 309.242 30
5 3 6 5463.76 314.514 18
5 3 7 15083 445.95 13
5 3 7 15015 390.678 30
5 3 7 15204.7 442.465 18
5 3 7 14862.8 404.358 15
5 3 8 749.067 79.9874 13
5 3 8 758.078 78.953 18
5 3 8 686.359 64.6361 15
-5 -4 7 3468.21 129.51 17
-5 -4 7 3763.24 144.921 14
-5 -4 6 2103.93 148.473 17
-5 -4 6 1793.49 118.908 16
-5 -4 6 2187.23 163.179 14
-5 -4 5 2435.38 206.023 17
-5 -4 5 2134.96 177.613 16
-5 -4 5 2408.22 220.008 14
-5 -4 5 2702.47 218.47 31
-5 -4 4 3603.85 287.122 17
-5 -4 4 3525.38 252.251 16
-5 -4 4 3166.63 298.455 14
-5 -4 4 3855.27 302.759 31
5 4 -3 3063.06 331.5 3
-5 -4 3 3325.7 306.492 4
-5 -4 3 3525.45 298.716 17
-5 -4 3 3379.54 269.473 16
-5 -4 3 2283.82 281.715 14
-5 -4 3 3381.63 316.934 31
-5 -4 2 4805.41 416.278 4
-5 -4 2 4720.98 353.385 17
-5 -4 2 4548.23 325.517 16
-5 -4 2 4112.06 369.779 31
-5 -4 1 8429.13 539.471 31
-5 -4 1 10502.6 424.54 12
-5 -4 1 9935.03 646.265 4
-5 -4 1 9540.92 506.574 17
-5 -4 1 9685.61 482.083 16
5 4 0 2315.5 285.948 30
-5 -4 0 2531.86 218.674 12
-5 -4 0 2260.49 366.226 4
-5 -4 0 2127.35 252.398 16
5 4 1 10123.4 587.769 30
-5 -4 -1 10598.1 444.677 12
-5 -4 -1 9554.98 634.5 4
5 4 2 13058.1 676.017 30
-5 -4 -2 12104.8 483.285 12
-5 -4 -2 12104.5 640.145 4
5 4 3 2553.98 307.864 30
-5 -4 -3 2102.1 256.635 4
5 4 4 6993.09 400.371 13
5 4 4 8750.99 496.689 30
5 4 4 7546.65 463.989 3
-5 -4 -4 7404.93 411.547 4
5 4 4 8397.17 436.878 18
5 4 5 23638.1 726.964 30
5 4 5 23276.5 682.104 18
5 4 6 2277.71 206.853 13
5 4 6 2599.31 218.023 30
5 4 6 2512.42 209.058 18
5 4 7 4983.9 245.64 13
5 4 7 5362.73 231.282 30
5 4 7 4850.64 237.731 18
5 4 7 5313.26 235.346 15
5 4 8 198.729 45.2142 13
5 4 8 189.282 42.3447 18
5 4 8 252.947 43.7955 15
-5 -5 6 1602.56 90.4119 17
-5 -5 5 4534.35 221.775 17
-5 -5 5 4250.35 222.915 14
-5 -5 5 4555.98 228.446 31
-5 -5 4 345.552 100.528 31
-5 -5 4 168.362 85.4096 17
-5 -5 4 296.141 75.0906 16
-5 -5 4 190.614 79.5773 14
-5 -5 3 237.632 115.468 31
5 5 -3 288.425 140.513 3
-5 -5 3 295.079 110.53 17
-5 -5 3 345.044 99.1037 16
-5 -5 2 3815.17 327.383 31
5 5 -2 4032.72 386.646 3
-5 -5 2 4443.3 366.938 4
-5 -5 2 4548.02 325.46 17
-5 -5 2 3936.82 278.532 16
5 5 -1 1077.89 275.485 3
-5 -5 1 861.032 180.718 17
-5 -5 1 939.279 220.627 4
-5 -5 1 975.796 161.807 16
5 5 0 7874.15 615.196 3
-5 -5 0 9778.91 622.493 4
-5 -5 0 8801.2 449.179 16
5 5 1 24104.9 796.768 30
5 5 1 24716.4 1026.5 3
-5 -5 -1 24656.8 960.822 4
5 5 2 19856.5 750.537 30
5 5 2 17732.9 833.146 3
-5 -5 -2 18166.9 743.617 4
5 5 3 7297.97 444.812 30
5 5 3 6422.89 463.344 3
-5 -5 -3 6538.76 421.537 4
5 5 4 477.653 158.024 30
5 5 4 476.315 144.099 3
-5 -5 -4 444.679 122.683 4
5 5 5 895.671 140.621 13
5 5 5 698.059 116.983 18
5 5 6 1798.56 165.806 30
5 5 6 1354.51 133.645 18
5 5 6 1627.24 147.125 15
5 5 7 4650.2 193.616 30
5 5 7 4673.02 181.38 15
-5 -6 4 18825.3 416.9 17
-5 -6 4 19021.5 451.609 31
-5 -6 3 238.335 85.2204 31
-5 -6 3 451.325 93.5003 17
-5 -6 2 2618.17 232.436 31
5 6 -2 2445.06 240.54 3
-5 -6 2 2932.99 226.303 17
-5 -6 2 2701.64 181.343 16
5 6 -1 6978.2 461.504 3
-5 -6 1 7042.89 371.812 17
-5 -6 1 6547.44 313.911 16
5 6 0 3879.87 382.904 3
-5 -6 0 3737.35 287.173 17
-5 -6 0 3706.28 257.301 16
5 6 1 18050.6 778.236 3
-5 -6 -1 16932.5 567.65 16
5 6 2 1530.88 186.674 30
5 6 2 1929.55 277.811 3
5 6 3 533.372 142.874 30
5 6 3 466.268 153.192 3
5 6 4 1718.22 188.597 30
5 6 4 1563.66 175.883 3
5 6 5 387.786 97.2005 30
5 6 6 4546.32 206.851 30
-5 -7 3 4807.65 182.436 31
-5 -7 2 4329.22 187.593 17
-5 -7 2 4723.72 229.702 31
-5 -7 1 3758.38 228.833 31
5 7 -1 3537.07 225.401 3
-5 -7 1 4222.59 221.829 17
5 7 0 409.769 121.217 3
-5 -7 0 526.582 99.4637 17
5 7 1 5446.6 322.056 3
-5 -7 -1 5688.23 295.14 17
-5 -7 -1 5436.61 232.307 16
5 7 2 8889.54 383.412 3
-5 -7 -2 8085.83 303.675 16
5 7 3 393.422 80.112 30
5 7 3 470.935 101.881 3
-5 -7 -3 405.73 85.7273 16
5 7 4 223.292 67.1797 30
5 7 4 -13.8136 19.5771 3
5 7 5 198.785 51.9807 30
-6 1 2 3202.28 182.227 4
-6 1 1 1314.02 133.517 4
-6 1 0 1542.72 139.229 4
6 -1 1 3276.55 193.686 30
-6 1 -1 3350.44 169.897 4
-6 0 4 15865.9 351.784 12
-6 0 3 468.48 79.4827 12
-6 0 3 393.016 76.3745 4
-6 0 2 4271.76 223.884 12
-6 0 2 4422.42 289.674 4
-6 0 1 2002.05 164.194 12
-6 0 1 1970.9 209.055 4
-6 0 0 6366.79 284.123 12
-6 0 0 5203.77 316.838 4
-6 0 -1 13516.6 398.066 12
-6 0 -1 14192.8 468.166 4
6 0 2 2015.66 183.345 30
-6 0 -2 1467.61 118.232 12
-6 0 -2 1883.34 143.675 4
6 0 3 2256.28 156.217 30
-6 -1 5 976.795 78.2036 12
-6 -1 4 13705.2 359.701 12
-6 -1 4 450.874 60.7679 16
-6 -1 3 3942.08 221.469 12
-6 -1 3 4054.91 247.612 4
-6 -1 2 9692.41 363.44 12
-6 -1 2 9371.21 451.668 4
-6 -1 1 4318.87 259.157 12
-6 -1 1 3803.29 305.725 4
6 1 0 597.882 150.786 30
-6 -1 0 1149.22 156.642 12
-6 -1 0 927.802 174.08 4
6 1 1 4373.6 318.539 30
-6 -1 -1 4629.53 302.262 4
6 1 2 2034.62 212.894 30
-6 -1 -2 2328.22 197.009 12
-6 -1 -2 1997.61 179.584 4
6 1 3 1654.33 171.12 30
-6 -1 -3 1308.79 136.755 12
-6 -1 -3 1509.89 121.426 4
6 1 3 1306.91 126.68 18
6 1 4 5754.72 237.43 30
-6 -1 -4 2822.89 151.299 12
-6 -2 5 4237.31 154.991 12
-6 -2 5 4756.56 182.701 16
-6 -2 4 11772.3 349.821 12
-6 -2 4 12040.3 371.469 16
-6 -2 3 10166.7 359.753 12
-6 -2 3 9832.15 387.794 4
-6 -2 3 9387.54 383.848 16
-6 -2 2 2595.31 203.839 12
-6 -2 2 2373.99 242.533 4
-6 -2 2 2542.73 215.571 16
-6 -2 1 1596.35 173.395 12
-6 -2 1 1504.49 214.882 4
-6 -2 1 1388.26 175.179 16
-6 -2 0 1669.63 180.329 12
-6 -2 0 1420.73 213.419 4
-6 -2 0 1208.09 159.598 16
6 2 1 2493.77 255.269 30
-6 -2 -1 3071.04 245.017 12
-6 -2 -1 2799.58 258.907 4
6 2 2 158.475 114.13 30
-6 -2 -2 322.129 118.148 12
-6 -2 -2 142.949 86.5477 4
6 2 3 1586.59 177.148 30
-6 -2 -3 1415.86 167.229 12
-6 -2 -3 1471.44 141.736 4
6 2 4 2526.8 187.532 30
-6 -2 -4 1495.73 144.297 12
6 2 5 278.741 55.8765 30
-6 -2 -5 121.529 41.0525 12
-6 -3 5 1703.64 102.501 16
-6 -3 4 1561.67 113.413 12
-6 -3 4 1537.35 117.861 17
-6 -3 4 1762.1 140.69 16
-6 -3 3 676.946 99.5234 12
6 3 -3 616.778 118.971 3
-6 -3 3 698.477 102.404 17
-6 -3 3 750.695 117.346 16
-6 -3 3 371.486 74.6856 4
-6 -3 2 348.719 87.5951 12
-6 -3 2 340.606 114.881 4
-6 -3 2 348.538 109.901 16
-6 -3 1 2100.57 185.256 12
-6 -3 1 1932.64 244.455 4
-6 -3 1 2163.99 213.495 16
6 3 0 4929.52 295.743 30
-6 -3 0 6836.89 328.243 12
-6 -3 0 5669.89 397.523 4
-6 -3 0 6316.36 368.333 16
6 3 1 6922.55 389.235 30
-6 -3 -1 7429.21 417.824 4
-6 -3 -1 7348.08 390.827 16
6 3 2 8790.49 425.496 30
-6 -3 -2 9632.41 413.109 12
-6 -3 -2 8435 401.085 4
6 3 3 3405.71 248.453 30
-6 -3 -3 2706.93 212.976 12
-6 -3 -3 2811.79 200.963 4
6 3 4 4868.43 258.835 30
-6 -3 -4 3094.94 195.929 12
6 3 5 849.755 93.3399 30
6 3 5 619.47 81.219 15
-6 -4 4 845.451 83.6393 17
-6 -4 4 708.458 77.3507 16
-6 -4 3 7103.84 293.736 17
-6 -4 3 7128.1 283.48 16
-6 -4 2 6288.47 326.396 4
-6 -4 2 5850.83 306.814 17
-6 -4 2 6035.83 297.495 16
-6 -4 1 14322.1 399.774 12
-6 -4 1 15958.7 599.794 4
-6 -4 1 15042.7 529.81 17
-6 -4 1 15475.9 511.563 16
-6 -4 0 1322.24 128.49 12
-6 -4 0 1485.22 210.332 4
6 4 0 1160.91 219.446 3
-6 -4 0 1395.46 176.485 17
-6 -4 0 1766.18 196.547 16
6 4 1 21245.4 588.681 30
-6 -4 -1 23291.4 537.221 12
6 4 1 23742.9 801.713 3
-6 -4 -1 23261.8 714.563 4
-6 -4 -1 25526.2 732.447 16
6 4 2 5840.05 325.926 30
6 4 2 6028.97 378.219 3
-6 -4 -2 5641.95 261.273 12
-6 -4 -2 5704.42 322.986 4
-6 -4 -2 5469.58 331.554 16
6 4 3 11729.8 420.011 30
6 4 3 11867.9 446.491 3
-6 -4 -3 11001.5 384.572 4
-6 -4 -4 2550.13 142.003 12
-6 -4 -4 1928.87 143.155 16
6 4 5 725.587 85.3643 30
6 4 5 448.641 68.4919 15
-6 -5 3 1455.44 111.846 17
-6 -5 3 1214.27 90.697 16
-6 -5 2 22910.4 533.556 17
-6 -5 2 22305.3 484.961 16
-6 -5 1 12176.9 424.628 17
-6 -5 1 12941.6 407.716 16
6 5 0 236.46 130.34 3
-6 -5 0 223.267 86.2513 17
-6 -5 0 220.325 99.3507 4
-6 -5 0 263.259 91.5861 16
-6 -5 -1 958.965 151.629 4
6 5 1 825.146 166.508 3
-6 -5 -1 796.616 133.335 17
-6 -5 -1 897.279 137.961 16
6 5 2 1974.37 154.944 30
6 5 2 2339.76 220.351 3
-6 -5 -2 2277.39 193.254 4
-6 -5 -2 1609.87 165.763 17
-6 -5 -2 2233.91 200.185 16
6 5 3 2766.6 178.86 30
6 5 3 2905.65 201.8 3
6 5 4 217.988 60.447 30
-6 -5 -4 114.875 47.0514 16
6 5 4 143.954 45.4918 15
-6 -6 1 3012.41 161.835 17
6 6 0 1975.05 158.041 3
-6 -6 0 2195.95 152.884 17
-6 -6 0 1751.23 118.178 16
6 6 1 5914.13 271.757 3
-6 -6 -1 5215.45 243.048 17
-6 -6 -1 5183.11 218.328 16
6 6 2 562.987 86.2327 3
-6 -6 -2 400.539 70.1726 17
-6 -6 -2 509.209 76.7718 16
-6 -6 -3 1184.43 96.39 16
loop_
_exptl_oxdiff_crystal_face_indexfrac_h
_exptl_oxdiff_crystal_face_indexfrac_k
_exptl_oxdiff_crystal_face_indexfrac_l
_exptl_oxdiff_crystal_face_x
_exptl_oxdiff_crystal_face_y
_exptl_oxdiff_crystal_face_z
-0.0025 3.9877 2.9969 -0.6344 0.3923 0.5723
0.0025 -3.9877 -2.9969 0.6344 -0.3923 -0.5723
-0.0078 -0.0087 -5.9900 -0.4295 -0.5853 -0.6296
0.0078 0.0087 5.9900 0.4295 0.5853 0.6296
-3.0023 -2.9988 2.0027 0.6096 -0.5113 0.6562
3.0087 3.0061 2.9890 -0.2517 0.9990 -0.1316
-1.0110 -0.0134 -5.9876 -0.4863 -0.7959 -0.4164
0.0089 -3.9804 1.9948 0.9923 0.0955 -0.0476
