#------------------------------------------------------------------------------
#$Date: 2021-07-15 10:49:38 +0300 (Thu, 15 Jul 2021) $
#$Revision: 267548 $
#$URL: file:///home/coder/svn-repositories/cod/cif/1/56/41/1564157.cif $
#------------------------------------------------------------------------------
#
# This file is available in the Crystallography Open Database (COD),
# http://www.crystallography.net/
#
# All data on this site have been placed in the public domain by the
# contributors.
#
data_1564157
loop_
_publ_author_name
'Pandey, Souvik'
'Pradeep, Prajisha'
'Venugopal M, Anjali'
'Aswanth, A.A.'
'Andrews, Alex P.'
'Venugopal, Ajay'
_publ_section_title
;
 Incorporation of nitrate ions into halobismuthates
;
_journal_name_full               'Inorganica Chimica Acta'
_journal_page_first              119754
_journal_paper_doi               10.1016/j.ica.2020.119754
_journal_volume                  511
_journal_year                    2020
_chemical_absolute_configuration rm
_chemical_formula_moiety         '	Bi2 Br8 N2 O6, 2(C6 H10 N2), 2(H2 O)'
_chemical_formula_sum            'C12 H24 Bi2 Br8 N6 O8'
_chemical_formula_weight         1437.61
_space_group_crystal_system      triclinic
_space_group_IT_number           2
_space_group_name_Hall           '-P 1'
_space_group_name_H-M_alt        'P -1'
_atom_sites_solution_hydrogens   mixed
_audit_creation_method           SHELXL-2014
_cell_angle_alpha                104.146(2)
_cell_angle_beta                 106.595(2)
_cell_angle_gamma                98.541(2)
_cell_formula_units_Z            1
_cell_length_a                   7.6329(4)
_cell_length_b                   10.6904(6)
_cell_length_c                   10.9544(6)
_cell_measurement_reflns_used    6691
_cell_measurement_temperature    296(2)
_cell_measurement_theta_max      27.87
_cell_measurement_theta_min      2.86
_cell_volume                     807.41(8)
_computing_cell_refinement       'Bruker SAINT'
_computing_data_collection       'Bruker APEX2'
_computing_data_reduction        'Bruker SAINT'
_computing_molecular_graphics    'Bruker SHELXTL'
_computing_publication_material  'Bruker SHELXTL'
_computing_structure_refinement  'SHELXL-2014 (Sheldrick, 2014)'
_computing_structure_solution    'SHELXL-2014 (Sheldrick, 2014)'
_diffrn_ambient_temperature      296(2)
_diffrn_detector_area_resol_mean 0
_diffrn_measured_fraction_theta_full 0.970
_diffrn_measured_fraction_theta_max 0.997
_diffrn_measurement_device_type  'Bruker APEX-II CCD'
_diffrn_measurement_method       '\f and \w scans'
_diffrn_radiation_type           MoK\a
_diffrn_radiation_wavelength     0.71073
_diffrn_reflns_av_R_equivalents  0.0218
_diffrn_reflns_av_unetI/netI     0.0189
_diffrn_reflns_Laue_measured_fraction_full 0.970
_diffrn_reflns_Laue_measured_fraction_max 0.997
_diffrn_reflns_limit_h_max       9
_diffrn_reflns_limit_h_min       -9
_diffrn_reflns_limit_k_max       12
_diffrn_reflns_limit_k_min       -12
_diffrn_reflns_limit_l_max       13
_diffrn_reflns_limit_l_min       -13
_diffrn_reflns_number            12045
_diffrn_reflns_point_group_measured_fraction_full 0.970
_diffrn_reflns_point_group_measured_fraction_max 0.997
_diffrn_reflns_theta_full        25.242
_diffrn_reflns_theta_max         24.998
_diffrn_reflns_theta_min         2.396
_diffrn_source                   'sealed tube'
_exptl_absorpt_coefficient_mu    20.823
_exptl_absorpt_correction_T_max  0.4570
_exptl_absorpt_correction_T_min  0.1671
_exptl_absorpt_correction_type   multi-scan
_exptl_absorpt_process_details   SADABS
_exptl_crystal_colour            COLOURLESS
_exptl_crystal_density_diffrn    2.957
_exptl_crystal_density_meas      2.957
_exptl_crystal_density_method    None
_exptl_crystal_description       needle
_exptl_crystal_F_000             648
_exptl_crystal_size_max          0.150
_exptl_crystal_size_mid          0.100
_exptl_crystal_size_min          0.050
_refine_diff_density_max         1.050
_refine_diff_density_min         -0.857
_refine_diff_density_rms         0.086
_refine_ls_extinction_coef       .
_refine_ls_extinction_method     none
_refine_ls_goodness_of_fit_ref   1.032
_refine_ls_hydrogen_treatment    mixed
_refine_ls_matrix_type           full
_refine_ls_number_parameters     171
_refine_ls_number_reflns         2830
_refine_ls_number_restraints     3
_refine_ls_restrained_S_all      1.032
_refine_ls_R_factor_all          0.0207
_refine_ls_R_factor_gt           0.0165
_refine_ls_shift/su_max          0.002
_refine_ls_shift/su_mean         0.000
_refine_ls_structure_factor_coef Fsqd
_refine_ls_weighting_details
'w=1/[\s^2^(Fo^2^)+(0.0134P)^2^+1.1890P] where P=(Fo^2^+2Fc^2^)/3'
_refine_ls_weighting_scheme      calc
_refine_ls_wR_factor_gt          0.0355
_refine_ls_wR_factor_ref         0.0368
_reflns_Friedel_coverage         0.000
_reflns_Friedel_fraction_full    .
_reflns_Friedel_fraction_max     .
_reflns_number_gt                2583
_reflns_number_total             2830
_reflns_threshold_expression     'I > 2\s(I)'
_cod_data_source_file            ICA-2020-511-119754.cif
_cod_data_source_block           4
_cod_database_code               1564157
_shelx_space_group_comment
;
The symmetry employed for this shelxl refinement is uniquely defined
by the following loop, which should always be used as a source of
symmetry information in preference to the above space-group names.
They are only intended as comments.
;
_shelx_estimated_absorpt_t_min   0.146
_shelx_estimated_absorpt_t_max   0.422
_shelxl_version_number           2014-3
_shelx_res_file
;
TITL P-1 in P-1
CELL  0.71073   7.6329  10.6904  10.9544  104.146  106.595   98.541
ZERR     1.00   0.0004   0.0006   0.0006    0.002    0.002    0.002
LATT   1
SFAC  C    H    N    O    BI   BR
UNIT  12 24 6 8 2 8
MERG   2
OMIT    -3.00  50.00
OMIT     0   0   1
DFIX 0.85 0.015 O1' H1' O1' H1''
DFIX 1.513 0.015 H1' H1''
EQIV $1 -x+1, -y, -z+1
HTAB C1 Br4_$1
HTAB N1 O1'
EQIV $2 x-1, y-1, z-1
HTAB N1 O3_$2
HTAB N1 Br4_$2
EQIV $3 x, y-1, z-1
HTAB N1 O1_$3
EQIV $4 x, y, z-1
HTAB N2 Br1_$4
HTAB N2 Br3_$4
HTAB N2 Br2_$1
EQIV $5 -x, -y, -z+1
HTAB N2 Br1_$5
HTAB O1' N3_$2
HTAB O1' O2_$2
HTAB O1' O3_$2
EQIV $6 -x, -y, -z+2
HTAB O1' Br1_$6
EQIV $7 -x+1, -y, -z+2
HTAB O1' Br3_$7
HTAB C1 Br4_$1
HTAB N1 O1'
HTAB N1 O3_$2
HTAB N1 Br4_$2
HTAB N1 O1_$3
HTAB N2 Br1_$4
HTAB N2 Br3_$4
HTAB N2 Br2_$1
HTAB N2 Br1_$5
HTAB O1' N3_$2
HTAB O1' O2_$2
HTAB O1' O3_$2
HTAB O1' Br1_$6
HTAB O1' Br3_$7
FMAP   2
PLAN   10
SIZE     0.050   0.100   0.150
ACTA
BOND   $H
L.S.  15
TEMP    23.00
WGHT    0.013400    1.189000
FVAR       0.11012
C1    1    0.185274   -0.218843    0.264581    11.00000    0.03882    0.04015 =
         0.03870    0.00570    0.01816    0.00935
AFIX  43
H1    2    0.165563   -0.294611    0.194246    11.00000   -1.20000
AFIX   0
C2    1    0.149710   -0.227593    0.378107    11.00000    0.03860    0.04617 =
         0.04715    0.02079    0.02104    0.01458
C3    1    0.178139   -0.116737    0.482215    11.00000    0.06253    0.06626 =
         0.03562    0.01899    0.02394    0.02791
AFIX  43
H3    2    0.153255   -0.124408    0.558713    11.00000   -1.20000
AFIX   0
C4    1    0.244016    0.006322    0.472439    11.00000    0.07414    0.05034 =
         0.03265    0.00084    0.01423    0.01978
AFIX  43
H4    2    0.263719    0.082156    0.542700    11.00000   -1.20000
AFIX   0
C5    1    0.280633    0.017508    0.359710    11.00000    0.05274    0.03727 =
         0.03685    0.00941    0.00512    0.00812
AFIX  43
H5    2    0.325089    0.100387    0.352698    11.00000   -1.20000
AFIX   0
C6    1    0.250591   -0.095609    0.257438    11.00000    0.02934    0.04102 =
         0.03290    0.01160    0.01212    0.01073
N1    3    0.079275   -0.360314    0.384516    11.00000    0.06755    0.06228 =
         0.06851    0.03008    0.03828    0.01281
AFIX  33
H1A   2    0.061502   -0.353460    0.462500    11.00000   -1.50000
H1B   2   -0.029221   -0.399070    0.318251    11.00000   -1.50000
H1C   2    0.162799   -0.408955    0.376687    11.00000   -1.50000
AFIX   0
N2    3    0.286926   -0.085021    0.135226    11.00000    0.04100    0.04486 =
         0.04188    0.01437    0.01778    0.00824
AFIX  33
H2A   2    0.328626   -0.000042    0.143523    11.00000   -1.50000
H2B   2    0.373188   -0.129481    0.122450    11.00000   -1.50000
H2C   2    0.180972   -0.119127    0.065679    11.00000   -1.50000
AFIX   0
N3    3    0.516328    0.561099    1.367998    11.00000    0.06094    0.03946 =
         0.03706    0.00885    0.01641    0.00764
O1    4    0.348818    0.515826    1.291741    11.00000    0.05365    0.05872 =
         0.04851    0.00669    0.01963    0.01417
O1'   4   -0.048076   -0.363846    0.596301    11.00000    0.06374    0.09239 =
         0.04542    0.00620    0.02211   -0.00739
O2    4    0.555939    0.644843    1.476521    11.00000    0.10203    0.05738 =
         0.04299   -0.00747    0.02190    0.01944
O3    4    0.640209    0.516322    1.329598    11.00000    0.05467    0.08343 =
         0.05070   -0.00457    0.01493    0.01800
BI1   5    0.423269    0.348083    1.085567    11.00000    0.03585    0.03276 =
         0.02887    0.00989    0.01253    0.00889
BR1   6    0.114447    0.198529    1.114155    11.00000    0.03597    0.05050 =
         0.05294    0.01619    0.01695    0.00505
BR2   6    0.316051    0.190116    0.828700    11.00000    0.05668    0.06873 =
         0.03219   -0.00170    0.00632    0.02908
BR3   6    0.625710    0.177056    1.172639    11.00000    0.03644    0.04725 =
         0.05707    0.02843    0.01080    0.01075
BR4   6    0.771699    0.464812    1.045250    11.00000    0.03855    0.04371 =
         0.04812    0.02038    0.02181    0.01371
H1'   2   -0.162139   -0.361907    0.559475    11.00000    0.13701
H1''  2    0.017317   -0.322575    0.676717    11.00000    0.11430
HKLF    4  1.0  1.00  0.00  0.00  0.00  1.00  0.00  0.00  0.00  1.00

REM  P-1 in P-1
REM R1 =  0.0165 for    2583 Fo > 4sig(Fo)  and  0.0207 for all    2830 data
REM    171 parameters refined using      3 restraints

END

WGHT      0.0134      1.1888

REM Highest difference peak  1.050,  deepest hole -0.857,  1-sigma level  0.086
Q1    1   0.6110  0.2252  1.2458  11.00000  0.05    1.05
Q2    1   0.3053  0.1608  0.8944  11.00000  0.05    0.51
Q3    1   0.2119 -0.3231  0.4584  11.00000  0.05    0.42
Q4    1   0.1595  0.1791  1.0378  11.00000  0.05    0.40
Q5    1   0.0593  0.2686  1.0392  11.00000  0.05    0.33
Q6    1   0.8104  0.5011  1.1400  11.00000  0.05    0.32
Q7    1   0.5480  0.1662  1.1227  11.00000  0.05    0.31
Q8    1   0.2507 -0.1637  0.0813  11.00000  0.05    0.30
Q9    1   0.3591  0.3401  1.1371  11.00000  0.05    0.30
Q10   1   0.4133  0.5585  1.2517  11.00000  0.05    0.30
;
_shelx_res_checksum              9921
_shelx_hkl_file
;
  -2   0   0   12.17    0.56
  -2   0   0   12.61    0.62
  -2   0   0   12.23    0.44
  -2   0   0   12.90    0.46
   2   0   0   11.68    0.58
   2   0   0   12.69    0.43
   2   0   0   12.74    0.47
   2   0   0   13.14    0.45
  -3   0   0    3.88    0.31
  -3   0   0    4.69    0.41
  -3   0   0    3.84    0.39
  -3   0   0    4.62    0.34
   3   0   0    4.31    0.33
   3   0   0    4.54    0.31
   3   0   0    4.63    0.32
   3   0   0    5.16    0.40
  -4   0   0   73.50    2.04
  -4   0   0   70.73    2.02
  -4   0   0   69.61    1.90
   4   0   0   71.31    1.93
   4   0   0   71.35    1.98
   4   0   0   69.64    1.97
  -5   0   0   27.54    1.13
  -5   0   0   26.96    0.97
  -5   0   0   23.86    1.14
   5   0   0   25.49    1.22
   5   0   0   25.67    1.02
   5   0   0   24.96    1.17
  -6   0   0   55.93    1.74
  -6   0   0   60.54    1.93
  -6   0   0   54.92    1.90
   6   0   0   51.99    1.72
  -7   0   0    7.57    0.75
   7   0   0    7.87    0.73
  -8   0   0   -0.23    0.65
   8   0   0   -0.10    0.59
  -9   0   0    6.44    0.91
   9   0   0    4.88    0.90
   9  -1   0   26.73    1.49
  -9   1   0   30.63    1.49
   8  -1   0   10.83    0.90
  -8   1   0   11.73    0.93
   7  -1   0    0.88    0.52
  -7   1   0    1.68    0.57
   6  -1   0    6.19    0.61
   6  -1   0    3.02    0.67
   6  -1   0    6.66    0.78
  -6   1   0    4.83    0.56
  -6   1   0    6.06    0.82
   5  -1   0    5.40    0.52
   5  -1   0    6.49    0.61
  -5   1   0    5.21    0.49
  -5   1   0    5.63    0.68
   4  -1   0   27.20    0.90
   4  -1   0   20.97    0.85
   4  -1   0   28.56    0.99
  -4   1   0   27.22    0.88
  -4   1   0   27.35    1.01
   3  -1   0  274.12    6.22
   3  -1   0  277.98    6.70
   3  -1   0  281.37    6.60
   3  -1   0  275.36    6.62
   3  -1   0  273.58    6.70
  -3   1   0  289.51    6.63
  -3   1   0  277.27    6.71
  -3   1   0  272.65    6.60
   2  -1   0  169.72    4.07
   2  -1   0  168.78    4.13
   2  -1   0  168.80    4.13
   2  -1   0  171.83    3.82
   2  -1   0  170.73    4.05
  -2   1   0  162.56    4.05
  -2   1   0  167.87    4.12
  -2   1   0  174.43    4.07
   1  -1   0  232.29    4.96
   1  -1   0  223.99    5.30
   1  -1   0  217.47    5.24
   1  -1   0  223.45    5.25
  -1   1   0  221.87    5.24
  -1  -1   0    0.55    0.12
  -1  -1   0    0.61    0.16
  -1  -1   0    0.80    0.18
   1   1   0    1.39    0.17
   1   1   0    1.02    0.18
  -2  -1   0    0.56    0.25
  -2  -1   0    0.99    0.27
  -2  -1   0    1.06    0.18
  -2  -1   0    0.74    0.17
   2   1   0    0.97    0.19
   2   1   0    0.83    0.17
   2   1   0    1.17    0.26
   2   1   0    1.58    0.28
  -3  -1   0   57.15    1.64
  -3  -1   0   57.85    1.64
  -3  -1   0   58.61    1.56
   3   1   0   60.77    1.64
   3   1   0   58.68    1.58
   3   1   0   61.68    1.56
   3   1   0   58.05    1.66
  -4  -1   0    0.22    0.31
  -4  -1   0    0.56    0.45
  -4  -1   0    0.30    0.40
   4   1   0    0.68    0.41
   4   1   0    0.31    0.28
  -5  -1   0  111.61    2.96
  -5  -1   0  115.58    3.13
  -5  -1   0  113.42    3.09
   5   1   0  113.56    3.11
   5   1   0  112.01    2.99
  -6  -1   0  143.57    3.75
  -6  -1   0  150.29    3.97
  -6  -1   0  146.42    3.90
   6   1   0  137.42    3.77
  -7  -1   0    0.46    0.52
   7   1   0    0.34    0.53
  -8  -1   0   -0.44    0.64
   8   1   0   -0.59    0.60
  -9  -1   0    2.30    0.81
   9   1   0    1.97    0.82
   9  -2   0    4.08    0.87
  -9   2   0    2.30    0.79
   8  -2   0    9.67    0.91
  -8   2   0    9.42    0.86
   7  -2   0    2.59    0.61
  -7   2   0    3.82    0.60
   6  -2   0    4.43    0.58
   6  -2   0    4.44    0.67
   6  -2   0    2.81    0.64
  -6   2   0    4.33    0.80
  -6   2   0    2.65    0.50
   5  -2   0    9.51    0.70
   5  -2   0    8.91    0.64
   5  -2   0    9.68    0.71
  -5   2   0   10.22    0.78
  -5   2   0    8.76    0.62
  -5   2   0    8.96    0.72
   4  -2   0  579.49   14.07
   4  -2   0  595.00   14.23
   4  -2   0  602.65   14.24
   4  -2   0  612.92   13.24
  -4   2   0  592.82   14.22
  -4   2   0  595.34   14.24
  -4   2   0  598.91   14.06
   3  -2   0  292.33    7.17
   3  -2   0  302.74    6.63
   3  -2   0  297.49    7.08
   3  -2   0  291.10    7.16
   3  -2   0  297.24    7.05
  -3   2   0  308.16    7.09
  -3   2   0  295.49    7.06
  -3   2   0  294.85    7.16
  -3   2   0  295.27    7.17
   2  -2   0   91.88    2.34
   2  -2   0   91.91    2.28
   2  -2   0   94.66    2.27
   2  -2   0   92.46    2.11
   2  -2   0   93.10    2.33
  -2   2   0   92.07    2.35
  -2   2   0   91.26    2.27
  -2   2   0   93.47    2.33
  -2   2   0   91.24    2.11
  -2   2   0   96.90    2.29
  -2   2   0   89.48    2.34
   1  -2   0    6.13    0.36
   1  -2   0    6.58    0.25
   1  -2   0    6.42    0.28
   1  -2   0    6.62    0.46
   1  -2   0    6.54    0.30
  -1   2   0    6.42    0.29
  -1   2   0    6.29    0.23
  -1   2   0    6.29    0.28
  -1   2   0    6.90    0.45
  -1   2   0    6.77    0.34
   0  -2   0   90.47    2.13
   0  -2   0   89.61    2.19
   0  -2   0   88.35    2.39
   0  -2   0   88.58    2.16
   0   2   0   90.25    2.14
   0   2   0   91.79    2.17
   0   2   0   90.50    2.15
   0   2   0   89.36    2.38
   0   2   0   91.30    2.14
  -1  -2   0   44.83    1.19
  -1  -2   0   46.09    1.12
  -1  -2   0   43.81    1.13
  -1  -2   0   44.04    1.17
   1   2   0   44.04    1.18
   1   2   0   46.09    1.14
   1   2   0   43.38    1.19
   1   2   0   44.02    1.13
  -2  -2   0  546.29   12.83
  -2  -2   0  539.88   12.87
  -2  -2   0  538.76   12.87
  -2  -2   0  556.32   12.73
   2   2   0  537.15   12.73
   2   2   0  557.38   12.73
   2   2   0  537.02   12.85
   2   2   0  535.57   12.85
  -3  -2   0  145.46    3.58
  -3  -2   0  146.00    3.67
  -3  -2   0  145.83    3.67
   3   2   0  143.76    3.59
   3   2   0  146.48    3.65
   3   2   0  147.35    3.58
  -4  -2   0    1.88    0.51
  -4  -2   0    1.70    0.36
  -4  -2   0    0.80    0.48
   4   2   0    1.25    0.43
   4   2   0    1.72    0.35
  -5  -2   0   36.74    1.43
  -5  -2   0   32.44    1.20
  -5  -2   0   32.55    1.41
   5   2   0   32.03    1.16
  -6  -2   0    3.48    0.73
  -6  -2   0    3.27    0.58
   6   2   0    3.24    0.55
  -7  -2   0   14.34    1.00
   7   2   0   12.10    0.91
  -8  -2   0   11.40    0.96
   8   2   0   12.28    0.98
   9   2   0    1.50    0.77
   9  -3   0    1.11    0.78
  -9   3   0    0.25    0.73
   8  -3   0   10.07    0.91
  -8   3   0   11.32    0.92
   7  -3   0   69.43    2.18
  -7   3   0   71.52    2.17
   6  -3   0   40.54    1.40
   6  -3   0   38.06    1.58
   6  -3   0   42.14    1.65
  -6   3   0   40.59    1.37
  -6   3   0   39.28    1.68
   5  -3   0   48.73    1.52
   5  -3   0   49.35    1.68
   5  -3   0   51.53    1.64
  -5   3   0   50.97    1.71
  -5   3   0   50.37    1.50
   4  -3   0    4.07    0.41
   4  -3   0    3.71    0.31
   4  -3   0    3.55    0.51
   4  -3   0    2.73    0.47
  -4   3   0    4.54    0.54
  -4   3   0    3.96    0.51
  -4   3   0    3.50    0.38
   3  -3   0    2.08    0.23
   3  -3   0    1.78    0.29
   3  -3   0    2.14    0.39
   3  -3   0    1.64    0.39
  -3   3   0    2.11    0.42
  -3   3   0    2.99    0.30
  -3   3   0    1.98    0.32
  -3   3   0    1.87    0.27
  -3   3   0    1.46    0.21
   2  -3   0  108.46    2.62
   2  -3   0  105.61    2.67
   2  -3   0  103.87    2.71
   2  -3   0  103.41    2.71
   2  -3   0  109.57    2.43
   2  -3   0  107.81    2.63
  -2   3   0  106.99    2.64
  -2   3   0  106.95    2.70
  -2   3   0  111.41    2.63
  -2   3   0  106.95    2.43
  -2   3   0  108.74    2.66
   1  -3   0  209.54    5.10
   1  -3   0  207.74    5.04
   1  -3   0  213.01    4.99
   1  -3   0  214.39    4.98
   1  -3   0  215.61    5.48
  -1   3   0  208.78    5.05
  -1   3   0  212.16    5.01
  -1   3   0  214.23    4.70
  -1   3   0  212.56    5.02
  -1   3   0  213.90    5.00
  -1   3   0  206.17    5.02
   0  -3   0   40.24    1.08
   0  -3   0   41.03    1.03
   0  -3   0   39.22    1.00
   0  -3   0   39.53    1.12
   0  -3   0   40.44    1.25
   0   3   0   41.88    1.09
   0   3   0   40.30    1.23
   0   3   0   40.19    1.01
   0   3   0   39.76    1.03
   0   3   0   38.96    1.03
  -1  -3   0    9.21    0.41
  -1  -3   0    7.88    0.44
  -1  -3   0    9.06    0.35
  -1  -3   0    8.12    0.50
   1   3   0    8.13    0.37
   1   3   0    9.11    0.38
   1   3   0    8.51    0.41
  -2  -3   0  383.98    9.04
  -2  -3   0  381.71    9.15
  -2  -3   0  377.70    9.15
  -2  -3   0  393.20    9.03
   2   3   0  394.84    9.05
   2   3   0  379.13    9.04
   2   3   0  373.30    9.11
  -3  -3   0   83.63    2.17
  -3  -3   0   79.42    2.25
  -3  -3   0   82.34    2.26
   3   3   0   87.78    2.18
   3   3   0   84.73    2.18
  -4  -3   0   34.56    1.30
  -4  -3   0   34.49    1.32
  -4  -3   0   32.85    1.13
   4   3   0   33.35    1.11
  -5  -3   0   22.06    0.97
  -5  -3   0   19.87    1.24
  -5  -3   0   20.43    1.12
   5   3   0   20.47    0.96
  -6  -3   0   36.03    1.33
  -6  -3   0   36.07    1.60
   6   3   0   31.63    1.31
  -7  -3   0   21.14    1.16
   7   3   0   21.15    1.10
  -8  -3   0   36.34    1.61
   8   3   0   36.37    1.60
   9  -4   0    0.67    0.70
  -9   4   0   -0.26    0.66
   8  -4   0   22.66    1.27
  -8   4   0   20.65    1.13
   7  -4   0   57.49    1.88
  -7   4   0   59.82    1.91
   6  -4   0  130.07    3.60
   6  -4   0  132.38    3.62
   6  -4   0  134.03    3.49
  -6   4   0  128.48    3.44
   5  -4   0    0.78    0.41
   5  -4   0    1.11    0.53
   5  -4   0   -0.03    0.53
  -5   4   0    1.11    0.61
  -5   4   0    0.06    0.34
   4  -4   0   78.04    2.21
   4  -4   0   76.37    2.08
   4  -4   0   82.54    1.89
   4  -4   0   75.74    2.15
  -4   4   0   76.70    2.19
  -4   4   0   75.85    2.07
   3  -4   0   26.85    0.74
   3  -4   0   26.17    1.00
   3  -4   0   26.74    0.86
   3  -4   0   26.88    0.97
  -3   4   0   25.52    0.72
  -3   4   0   26.76    0.86
  -3   4   0   26.55    0.86
  -3   4   0   25.66    1.02
   2  -4   0  496.71   11.74
   2  -4   0  493.56   11.55
   2  -4   0  488.15   11.56
   2  -4   0  496.59   10.87
   2  -4   0  503.39   11.57
   2  -4   0  493.13   11.68
   2  -4   0  502.21   12.61
  -2   4   0  487.09   11.70
  -2   4   0  459.62   11.57
  -2   4   0  506.15   11.57
  -2   4   0  493.05   10.89
   1  -4   0  179.66    4.53
   1  -4   0  184.90    4.90
   1  -4   0  189.60    4.41
   1  -4   0  188.27    4.41
   1  -4   0  181.31    4.49
  -1   4   0  190.80    4.90
  -1   4   0  192.02    4.46
  -1   4   0  183.76    4.46
   0  -4   0   49.92    1.22
   0  -4   0   48.70    1.38
   0  -4   0   48.47    1.54
   0  -4   0   49.46    1.31
   0   4   0   50.23    1.27
   0   4   0   49.46    1.33
  -1  -4   0   32.16    0.86
  -1  -4   0   31.21    0.94
  -1  -4   0   31.42    0.95
  -1  -4   0   31.57    1.02
   1   4   0   29.27    0.87
   1   4   0   31.05    0.90
  -2  -4   0    0.64    0.36
  -2  -4   0    0.53    0.37
  -2  -4   0    0.59    0.26
   2   4   0    0.27    0.22
   2   4   0    0.31    0.22
  -3  -4   0   21.63    0.97
  -3  -4   0   22.64    0.98
  -3  -4   0   21.41    0.80
   3   4   0   23.91    0.83
  -4  -4   0  140.58    3.68
  -4  -4   0  140.95    3.69
  -4  -4   0  138.92    3.53
   4   4   0  136.06    3.55
  -5  -4   0   58.33    1.89
  -5  -4   0   59.72    1.95
  -5  -4   0   54.49    1.72
   5   4   0   54.65    1.75
  -6  -4   0    0.44    0.53
  -6  -4   0    1.78    0.80
   6   4   0    0.63    0.53
  -7  -4   0    3.11    0.73
   7   4   0    3.26    0.71
   8   4   0    0.94    0.68
   9  -5   0   13.86    1.14
  -9   5   0   12.99    1.09
   8  -5   0    0.19    0.62
  -8   5   0    0.39    0.63
   7  -5   0    2.41    0.63
  -7   5   0    1.86    0.59
   6  -5   0   17.02    1.18
   6  -5   0   16.83    0.95
   6  -5   0   18.19    1.24
  -6   5   0   16.45    0.92
   5  -5   0  162.93    4.17
   5  -5   0  169.29    4.32
   5  -5   0  166.30    4.32
  -5   5   0  162.97    4.17
   4  -5   0    9.98    0.72
   4  -5   0    9.83    0.62
   4  -5   0    9.81    0.76
   4  -5   0   11.15    0.50
  -4   5   0   10.50    0.64
  -4   5   0   11.02    0.48
   3  -5   0    6.40    0.58
   3  -5   0    5.86    0.58
   3  -5   0    5.10    0.51
   3  -5   0    6.07    0.39
   3  -5   0    5.74    0.39
  -3   5   0    7.14    0.49
  -3   5   0    5.67    0.32
  -3   5   0    5.68    0.43
   2  -5   0   51.48    1.39
   2  -5   0   50.54    1.46
   2  -5   0   49.27    1.58
   2  -5   0   51.15    1.35
   2  -5   0   52.01    1.64
  -2   5   0   51.65    1.24
  -2   5   0   49.97    1.41
  -2   5   0   53.58    1.40
   1  -5   0   76.29    1.85
   1  -5   0   76.35    1.85
   1  -5   0   75.77    2.20
   1  -5   0   75.04    1.98
   1  -5   0   73.40    2.01
  -1   5   0   77.25    1.94
  -1   5   0   73.65    1.94
   0  -5   0   69.62    2.11
   0  -5   0   71.01    1.71
   0  -5   0   67.55    1.92
   0  -5   0   69.38    1.84
   0   5   0   71.36    1.85
   0   5   0   71.93    1.78
  -1  -5   0   91.31    2.16
  -1  -5   0   83.41    2.24
  -1  -5   0   85.94    2.34
  -1  -5   0   88.93    2.28
   1   5   0   88.24    2.25
   1   5   0   90.14    2.22
  -2  -5   0   21.54    0.83
  -2  -5   0   23.82    0.97
  -2  -5   0   22.74    0.94
   2   5   0   23.75    0.82
   2   5   0   22.53    0.79
  -3  -5   0   37.84    1.34
  -3  -5   0   36.74    1.34
  -3  -5   0   39.10    1.21
   3   5   0   37.94    1.20
  -4  -5   0  152.18    3.84
  -4  -5   0  156.57    4.01
  -4  -5   0  149.41    4.00
   4   5   0  148.36    3.86
  -5  -5   0   11.06    0.74
  -5  -5   0    9.58    0.88
  -5  -5   0    8.88    0.90
   5   5   0    8.37    0.67
  -6  -5   0    1.12    0.85
  -6  -5   0    0.53    0.57
   6   5   0    0.75    0.51
   7   5   0    0.77    0.65
   8   5   0    5.75    0.90
   9  -6   0    0.32    0.79
  -9   6   0   -1.07    0.66
   8  -6   0    3.94    0.78
  -8   6   0    4.80    0.72
   7  -6   0    1.51    0.60
  -7   6   0    1.06    0.53
   6  -6   0   57.52    2.01
   6  -6   0   57.71    2.03
   6  -6   0   58.40    1.83
  -6   6   0   58.59    1.83
   5  -6   0   78.97    2.18
   5  -6   0   77.45    2.32
   5  -6   0   79.48    1.96
   5  -6   0   80.42    2.43
  -5   6   0   76.54    2.19
   4  -6   0   88.01    2.13
   4  -6   0   88.36    2.54
   4  -6   0   89.36    2.48
   4  -6   0   87.51    2.33
  -4   6   0   88.56    2.37
  -4   6   0   87.22    2.10
   3  -6   0   31.41    1.29
   3  -6   0   31.08    1.16
   3  -6   0   32.93    1.32
   3  -6   0   31.39    0.99
  -3   6   0   31.70    1.07
  -3   6   0   32.69    0.86
  -3   6   0   34.98    1.07
   2  -6   0    3.22    0.58
   2  -6   0    3.21    0.49
   2  -6   0    2.99    0.27
   2  -6   0    3.91    0.47
   2  -6   0    3.38    0.31
  -2   6   0    3.65    0.34
  -2   6   0    3.31    0.38
  -2   6   0    3.31    0.26
   1  -6   0    0.03    0.04
   1  -6   0   -0.17    0.38
   1  -6   0    0.03    0.39
   1  -6   0    0.71    0.43
   1  -6   0    0.32    0.15
  -1   6   0    0.14    0.26
  -1   6   0    0.64    0.28
   0  -6   0  293.03    7.20
   0  -6   0  292.77    7.12
   0  -6   0  300.00    6.91
   0   6   0  299.16    7.09
   0   6   0  292.69    7.03
  -1  -6   0  349.19    8.24
  -1  -6   0  355.52    8.52
  -1  -6   0  339.03    8.44
   1   6   0  360.83    8.39
   1   6   0  352.45    8.34
  -2  -6   0   12.33    0.88
  -2  -6   0   12.17    0.79
  -2  -6   0   12.29    0.66
   2   6   0   13.58    0.66
   2   6   0   11.93    0.61
  -3  -6   0    0.55    0.57
  -3  -6   0   -0.04    0.58
  -3  -6   0    0.79    0.41
   3   6   0    0.57    0.36
  -4  -6   0    4.48    0.71
  -4  -6   0    4.99    0.57
  -4  -6   0    4.82    0.70
   4   6   0    4.08    0.53
  -5  -6   0    1.01    0.77
   5   6   0    0.12    0.47
  -6  -6   0    3.17    0.88
   6   6   0    2.49    0.60
   7   6   0    8.00    0.90
  -9   7   0   18.67    1.31
   8  -7   0   21.36    1.27
  -8   7   0   19.97    1.22
   7  -7   0    6.50    0.74
  -7   7   0    5.49    0.68
   6  -7   0    3.74    0.58
   6  -7   0    2.77    0.71
   6  -7   0    2.85    0.77
  -6   7   0    2.83    0.57
   5  -7   0    4.58    0.74
   5  -7   0    5.80    0.78
   5  -7   0    5.92    0.46
   5  -7   0    4.69    0.52
  -5   7   0    4.58    0.58
   4  -7   0   36.73    1.18
   4  -7   0   36.62    1.56
   4  -7   0   35.70    1.51
   4  -7   0   38.47    1.44
   4  -7   0   40.22    1.59
  -4   7   0   37.79    1.01
  -4   7   0   36.66    1.27
   3  -7   0   23.34    1.17
   3  -7   0   23.14    1.05
   3  -7   0   23.06    1.23
   3  -7   0   23.57    0.80
  -3   7   0   23.49    0.69
  -3   7   0   25.28    0.97
  -3   7   0   22.53    0.92
   2  -7   0   21.64    1.12
   2  -7   0   21.78    0.70
   2  -7   0   21.69    1.01
   2  -7   0   21.88    1.10
  -2   7   0   22.31    0.83
  -2   7   0   19.63    0.84
  -2   7   0   21.83    0.70
   1  -7   0   43.45    1.49
   1  -7   0   45.01    1.11
   1  -7   0   44.37    1.65
   1  -7   0   43.69    1.47
  -1   7   0   46.67    1.39
  -1   7   0   46.96    1.35
   0  -7   0  180.27    4.63
   0  -7   0  177.01    4.54
   0   7   0  180.12    4.44
   0   7   0  190.28    4.53
  -1  -7   0   21.30    1.10
  -1  -7   0   20.75    0.62
  -1  -7   0   18.31    0.64
  -1  -7   0   21.11    0.99
   1   7   0   20.86    0.83
   1   7   0   21.22    0.80
  -2  -7   0   10.63    0.61
  -2  -7   0   12.68    0.88
  -2  -7   0   12.05    0.80
   2   7   0   12.31    0.65
  -3  -7   0    4.97    0.67
  -3  -7   0    6.57    0.77
  -3  -7   0    5.45    0.54
   3   7   0    5.32    0.52
  -4  -7   0   10.56    0.89
  -4  -7   0   10.69    0.94
   4   7   0   10.99    0.78
  -5  -7   0    4.43    0.90
   5   7   0    4.86    0.65
   6   7   0   40.88    1.60
   7   7   0    7.80    0.92
  -9   8   0    6.32    0.89
  -8   8   0   17.48    1.19
  -7   8   0    5.85    0.76
   6  -8   0    0.30    0.50
   6  -8   0    0.35    0.78
  -6   8   0    1.11    0.52
   5  -8   0    3.14    0.69
   5  -8   0    3.33    0.49
   5  -8   0    2.74    0.77
   5  -8   0    2.46    0.71
  -5   8   0    3.28    0.57
   4  -8   0   52.32    1.77
   4  -8   0   51.57    1.94
   4  -8   0   56.47    1.93
   4  -8   0   52.52    1.89
   4  -8   0   48.49    1.48
  -4   8   0   52.94    1.32
  -4   8   0   53.34    1.65
   3  -8   0  212.08    5.79
   3  -8   0  211.36    5.33
   3  -8   0  204.48    5.05
   3  -8   0  214.31    5.48
  -3   8   0  215.78    4.75
  -3   8   0  209.94    5.24
   2  -8   0  105.38    3.03
   2  -8   0  103.56    2.54
   2  -8   0  109.45    3.20
   2  -8   0  107.30    2.91
  -2   8   0  104.92    2.82
  -2   8   0  103.60    2.52
  -2   8   0  111.61    2.82
   1  -8   0    3.06    0.68
   1  -8   0    4.16    0.67
   1  -8   0    2.72    0.61
  -1   8   0    4.39    0.48
  -1   8   0    3.72    0.47
   0  -8   0   15.06    0.99
   0  -8   0   15.42    0.98
   0   8   0   16.05    0.84
   0   8   0   15.19    0.73
  -1  -8   0    0.95    0.59
  -1  -8   0    0.41    0.68
   1   8   0    1.18    0.38
   1   8   0    1.71    0.42
  -2  -8   0   20.73    1.12
  -2  -8   0   20.91    1.05
   2   8   0   21.46    0.89
  -3  -8   0   61.47    2.06
  -3  -8   0   60.51    2.01
   3   8   0   61.08    1.84
  -4  -8   0    2.03    0.73
  -4  -8   0    2.33    0.83
   4   8   0    2.21    0.55
  -5  -8   0    4.70    0.97
   5   8   0    4.08    0.67
   6   8   0    3.44    0.76
  -8   9   0    1.39    0.74
   7  -9   0    6.06    1.08
  -7   9   0    3.87    0.74
   6  -9   0   11.50    1.06
   6  -9   0    9.16    1.01
  -6   9   0   11.33    0.87
   5  -9   0   23.86    1.31
   5  -9   0   22.86    1.42
   5  -9   0   24.87    1.42
  -5   9   0   22.81    1.09
   4  -9   0   16.86    1.09
   4  -9   0   16.46    1.18
   4  -9   0   17.54    1.27
  -4   9   0   16.85    0.96
  -4   9   0   16.77    0.58
   3  -9   0    5.05    0.87
   3  -9   0    5.07    0.75
   3  -9   0    5.18    0.76
  -3   9   0    6.26    0.36
  -3   9   0    5.17    0.60
   2  -9   0   27.41    1.29
   2  -9   0   29.74    1.46
   2  -9   0   27.80    1.42
  -2   9   0   28.04    1.13
  -2   9   0   27.91    1.14
  -2   9   0   28.26    0.91
   1  -9   0   10.07    0.89
   1  -9   0   10.34    0.96
   1  -9   0   10.52    0.92
  -1   9   0   10.79    0.74
  -1   9   0   12.82    0.79
   0  -9   0   20.61    1.25
   0  -9   0   22.93    1.14
   0   9   0   22.22    0.94
  -1  -9   0    2.01    0.63
  -1  -9   0    1.92    0.73
   1   9   0    1.69    0.45
  -2  -9   0   53.37    1.81
  -2  -9   0   48.75    1.79
   2   9   0   49.91    1.59
  -3  -9   0   35.41    1.57
  -3  -9   0   36.33    1.60
   3   9   0   37.76    1.35
  -4  -9   0   10.59    1.09
   4   9   0   10.30    0.81
  -5  -9   0    0.68    1.00
   5   9   0    0.31    0.61
   8 -10   0    3.59    1.07
  -8  10   0    2.14    0.82
   7 -10   0   21.40    1.64
  -7  10   0   19.60    1.23
   6 -10   0   55.01    2.09
   6 -10   0   56.04    2.26
  -6  10   0   50.77    1.84
   5 -10   0   22.38    1.42
   5 -10   0   20.30    1.35
   5 -10   0   22.30    1.52
  -5  10   0   21.74    1.12
   4 -10   0    5.74    0.93
   4 -10   0    4.58    0.83
   4 -10   0    4.52    0.80
  -4  10   0    4.58    0.66
   3 -10   0    5.21    0.89
   3 -10   0    4.94    0.82
   3 -10   0    4.43    0.80
  -3  10   0    3.96    0.61
   2 -10   0   32.62    1.57
   2 -10   0   35.27    1.66
   2 -10   0   32.51    1.48
  -2  10   0   32.34    1.02
  -2  10   0   32.97    1.29
   1 -10   0   62.28    2.12
   1 -10   0   60.70    2.05
  -1  10   0   60.41    1.87
   0 -10   0   12.70    1.05
   0 -10   0   12.63    0.95
   0  10   0   13.91    0.83
  -1 -10   0    9.36    0.98
  -1 -10   0    8.99    0.88
   1  10   0    9.37    0.69
  -2 -10   0    1.54    0.82
  -2 -10   0    0.35    0.72
   2  10   0    1.46    0.53
  -3 -10   0    0.82    0.80
  -3 -10   0   -0.76    0.80
   3  10   0   -0.19    0.51
  -4 -10   0   -0.36    0.95
   4  10   0    0.43    0.61
   7 -11   0    0.61    0.95
  -7  11   0    0.86    0.73
   6 -11   0    8.96    1.14
   6 -11   0    6.95    1.03
  -6  11   0    7.01    0.85
   5 -11   0    6.72    1.02
   5 -11   0    5.07    0.94
  -5  11   0    5.26    0.74
   4 -11   0   21.70    1.42
   4 -11   0   17.68    1.35
   4 -11   0   21.08    1.42
  -4  11   0   19.24    1.09
   3 -11   0    3.22    0.87
   3 -11   0    3.06    0.93
   3 -11   0    2.04    0.85
  -3  11   0    1.16    0.56
   2 -11   0    9.52    1.06
   2 -11   0    9.56    1.06
   2 -11   0    9.77    1.06
  -2  11   0   10.58    0.81
   1 -11   0   18.71    1.32
   1 -11   0   17.88    1.26
  -1  11   0   17.34    1.01
  -1  11   0   19.63    1.04
  -1  11   0   19.47    0.87
   0 -11   0   34.47    1.56
   0 -11   0   35.93    1.71
   0  11   0   32.73    1.32
  -1 -11   0    1.20    0.78
  -1 -11   0    1.10    0.86
   1  11   0    1.41    0.53
  -2 -11   0    6.85    0.97
  -2 -11   0    8.52    1.05
   2  11   0    7.08    0.74
  -3 -11   0    3.67    1.03
   3  11   0    3.30    0.66
   4  11   0   13.53    1.01
   6 -12   0    8.48    1.16
   6 -12   0    5.99    1.19
  -6  12   0    8.07    0.93
   5 -12   0   13.31    1.24
   5 -12   0   15.31    1.28
  -5  12   0   12.86    1.02
   4 -12   0   16.75    1.29
   4 -12   0   18.27    1.43
   4 -12   0   17.54    1.34
  -4  12   0   19.18    1.19
   3 -12   0   15.31    1.25
   3 -12   0   16.32    1.32
   3 -12   0   16.23    1.32
  -3  12   0   15.58    1.06
   2 -12   0   -0.72    0.85
   2 -12   0   -1.07    0.89
   2 -12   0    0.77    0.89
  -2  12   0    0.20    0.59
   1 -12   0    0.68    0.94
   1 -12   0   -0.06    0.83
  -1  12   0    0.11    0.57
  -1  12   0   -0.54    0.57
   0 -12   0    1.12    0.94
   0 -12   0    0.35    0.82
   0  12   0    0.21    0.59
  -1 -12   0   21.85    1.53
  -1 -12   0   21.72    1.46
   1  12   0   21.22    1.16
  -2 -12   0    6.19    1.11
   2  12   0    5.32    0.76
   5 -13   0    3.04    1.12
   5 -13   0    0.05    0.98
  -5  13   0    0.48    0.72
   4 -13   0   11.25    1.29
   4 -13   0   11.70    1.31
  -4  13   0   11.59    1.02
   3 -13   0    2.51    1.07
   3 -13   0    2.42    1.04
   3 -13   0    2.30    1.10
  -3  13   0    2.10    0.73
   2 -13   0    1.91    1.09
   2 -13   0    2.57    1.04
  -2  13   0    3.19    0.73
   1 -13   0    2.87    1.00
   1 -13   0    1.76    1.06
  -1  13   0    4.42    0.75
  -1  13   0    2.82    0.73
   0 -13   0   11.08    1.20
   0 -13   0   10.91    1.29
   0  13   0   10.63    0.94
  -1 -13   0   12.80    1.35
   1  13   0   13.33    1.00
  -2  14  -1   12.22    1.04
   2 -14   1   11.89    1.43
  -3  14  -1    5.98    0.88
   1  13  -1    3.91    0.76
  -1 -13   1    2.94    1.14
   0  13  -1    5.31    0.80
   0 -13   1    7.37    1.22
  -1  13  -1    3.14    0.74
   1 -13   1    3.78    1.15
  -2  13  -1    5.78    0.83
   2 -13   1    7.29    1.23
  -3  13  -1    2.49    0.72
   3 -13   1    2.54    1.16
   3 -13   1    1.16    0.89
  -4  13  -1   -0.20    0.70
   4 -13   1   -0.14    1.08
   4 -13   1    0.39    0.85
  -5  13  -1    0.03    0.73
   5 -13   1    1.16    1.11
   5 -13   1    1.80    0.95
   3  12  -1    2.89    0.76
  -3 -12   1    3.11    1.14
   2  12  -1    8.47    0.87
  -2 -12   1   11.24    1.20
   1  12  -1   26.56    1.30
  -1 -12   1   27.41    1.64
  -1 -12   1   25.36    1.59
   0  12  -1    8.20    0.83
   0 -12   1    8.92    1.04
   0 -12   1    8.61    1.16
  -1  12  -1    2.83    0.68
  -1  12  -1    2.78    0.64
   1 -12   1    2.49    1.02
   1 -12   1    2.90    0.96
  -2  12  -1    6.41    0.78
   2 -12   1    4.90    0.96
   2 -12   1    6.56    1.10
   2 -12   1    5.80    1.07
  -3  12  -1   11.81    0.96
   3 -12   1   12.44    1.25
   3 -12   1   11.71    1.22
   3 -12   1   12.18    1.13
  -4  12  -1   24.82    1.33
   4 -12   1   28.44    1.74
   4 -12   1   28.63    1.61
  -5  12  -1   12.40    1.05
   5 -12   1   12.00    1.15
   5 -12   1   12.94    1.28
  -6  12  -1    6.84    0.91
   6 -12   1    5.35    1.01
   4  11  -1    9.05    0.90
  -4 -11   1    8.99    1.26
   3  11  -1    2.06    0.67
  -3 -11   1    1.71    0.98
   2  11  -1   10.53    0.82
  -2 -11   1   10.99    1.06
  -2 -11   1    9.11    1.14
   1  11  -1    4.01    0.62
  -1 -11   1    4.99    1.01
  -1 -11   1    4.67    0.90
   0  11  -1    5.62    0.69
   0 -11   1    6.16    1.02
   0 -11   1    4.26    0.87
  -1  11  -1   -0.50    0.50
  -1  11  -1    0.12    0.44
  -1  11  -1    0.55    0.54
   1 -11   1    0.80    0.84
   1 -11   1   -0.04    0.89
  -2  11  -1    0.47    0.41
  -2  11  -1    1.92    0.58
   2 -11   1    0.07    0.69
   2 -11   1    0.60    0.89
   2 -11   1    0.43    0.85
  -3  11  -1   14.83    0.99
   3 -11   1   15.93    1.16
   3 -11   1   15.97    1.20
   3 -11   1   18.63    1.32
  -4  11  -1   28.66    1.33
   4 -11   1   26.78    1.59
   4 -11   1   29.47    1.59
   4 -11   1   28.92    1.82
  -5  11  -1   26.23    1.34
   5 -11   1   31.72    1.68
   5 -11   1   29.94    1.73
  -6  11  -1   -0.54    0.68
   6 -11   1    0.35    0.80
   6 -11   1   -0.42    0.94
  -7  11  -1    0.29    0.76
   7 -11   1    0.06    0.90
   5  10  -1   23.09    1.27
   4  10  -1    6.39    0.77
  -4 -10   1    9.26    1.10
   3  10  -1    1.55    0.59
  -3 -10   1    2.63    0.94
   2  10  -1    7.21    0.70
  -2 -10   1    9.03    0.96
  -2 -10   1    6.45    0.98
   1  10  -1    4.16    0.59
  -1 -10   1    5.09    0.92
  -1 -10   1    5.04    0.83
   0  10  -1   26.11    1.13
   0 -10   1   22.66    1.29
   0 -10   1   26.61    1.43
  -1  10  -1   65.71    2.04
  -1  10  -1   69.55    1.84
  -1  10  -1   67.43    2.05
   1 -10   1   67.15    2.31
   1 -10   1   66.73    2.29
  -2  10  -1   42.44    1.53
  -2  10  -1   46.09    1.33
   2 -10   1   44.62    1.81
   2 -10   1   47.45    1.92
   2 -10   1   44.72    1.75
  -3  10  -1   14.38    0.68
  -3  10  -1   13.69    0.90
   3 -10   1   14.62    1.06
   3 -10   1   14.91    1.15
   3 -10   1   16.02    1.19
  -4  10  -1    8.83    0.79
  -4  10  -1    8.18    0.49
   4 -10   1    9.15    0.97
   4 -10   1    9.49    1.07
   4 -10   1    8.68    0.88
  -5  10  -1   24.04    1.20
   5 -10   1   25.69    1.57
   5 -10   1   23.21    1.39
  -6  10  -1   30.45    1.41
   6 -10   1   31.70    1.72
   6 -10   1   31.92    1.67
  -7  10  -1    1.94    0.76
   7 -10   1    1.22    0.89
  -8  10  -1    0.72    0.81
   8 -10   1   -0.09    0.99
   6   9  -1    5.56    0.86
   5   9  -1    3.10    0.70
  -5  -9   1    1.75    0.99
   4   9  -1    6.10    0.70
  -4  -9   1    4.91    0.93
   3   9  -1    4.12    0.60
  -3  -9   1    3.49    0.77
  -3  -9   1    3.89    0.89
   2   9  -1   11.22    0.77
  -2  -9   1   12.37    0.92
  -2  -9   1   11.57    0.99
   1   9  -1    1.56    0.44
  -1  -9   1    0.10    0.75
  -1  -9   1    1.06    0.64
   0   9  -1   30.03    1.13
   0  -9   1   29.58    1.41
   0  -9   1   30.16    1.43
  -1   9  -1   93.80    2.66
  -1   9  -1   98.25    2.46
  -1   9  -1   96.18    2.68
   1  -9   1  100.15    2.91
   1  -9   1  100.03    2.89
   1  -9   1  101.26    3.04
  -2   9  -1    1.16    0.48
  -2   9  -1    1.35    0.37
   2  -9   1    1.93    0.80
   2  -9   1    1.14    0.31
   2  -9   1    0.88    0.56
   2  -9   1    1.00    0.72
  -3   9  -1    2.61    0.37
  -3   9  -1    2.81    0.55
   3  -9   1    3.08    0.43
   3  -9   1    3.14    0.74
   3  -9   1    2.37    0.64
   3  -9   1    3.21    0.83
  -4   9  -1    0.25    0.50
  -4   9  -1    0.93    0.33
   4  -9   1    1.46    0.79
   4  -9   1   -0.08    0.39
   4  -9   1    0.65    0.71
   4  -9   1   -0.28    0.57
   4  -9   1    0.36    0.81
  -5   9  -1   18.58    1.00
  -5   9  -1   18.37    0.76
   5  -9   1   19.12    1.26
   5  -9   1   19.94    0.99
   5  -9   1   23.78    1.36
   5  -9   1   20.54    1.41
  -6   9  -1   23.11    1.15
   6  -9   1   24.43    1.51
   6  -9   1   24.68    1.52
  -7   9  -1   20.26    1.16
  -8   9  -1    3.42    0.78
   6   8  -1    2.08    0.70
   5   8  -1    1.08    0.57
  -5  -8   1    0.48    0.86
   4   8  -1    2.28    0.54
  -4  -8   1    2.02    0.79
  -4  -8   1    2.65    0.78
   3   8  -1   83.10    2.37
  -3  -8   1   83.57    2.52
  -3  -8   1   83.88    2.55
   2   8  -1   88.19    2.34
  -2  -8   1   88.47    2.53
  -2  -8   1   77.64    2.31
  -2  -8   1   86.80    2.55
   1   8  -1   18.63    0.81
  -1  -8   1   19.46    1.14
  -1  -8   1   15.58    0.76
  -1  -8   1   19.84    1.19
   0   8  -1   45.57    1.43
   0   8  -1   42.19    1.32
   0  -8   1   41.76    1.67
   0  -8   1   38.57    1.20
   0  -8   1   41.22    1.51
  -1   8  -1   29.69    1.10
  -1   8  -1   31.93    1.14
   1  -8   1   28.33    1.28
   1  -8   1   25.96    0.90
   1  -8   1   27.97    1.39
   1  -8   1   27.26    1.37
  -2   8  -1  120.22    2.80
  -2   8  -1  116.29    3.08
   2  -8   1  112.85    2.94
   2  -8   1  116.44    3.22
   2  -8   1  117.94    3.33
   2  -8   1  116.42    3.36
  -3   8  -1   81.66    2.30
  -3   8  -1   81.93    1.98
   3  -8   1   78.19    2.16
   3  -8   1   79.00    2.50
   3  -8   1   83.39    2.57
   3  -8   1   80.60    2.42
  -4   8  -1   24.77    1.07
  -4   8  -1   22.28    0.81
   4  -8   1   22.33    1.45
   4  -8   1   24.45    1.24
   4  -8   1   24.06    1.28
   4  -8   1   23.11    1.28
   4  -8   1   24.23    1.02
  -5   8  -1   -0.35    0.49
  -5   8  -1    0.35    0.35
   5  -8   1    0.49    0.49
   5  -8   1    0.41    0.72
   5  -8   1    0.49    0.75
  -6   8  -1   12.77    0.91
   6  -8   1   13.16    0.90
   6  -8   1   12.92    1.04
  -7   8  -1    2.20    0.63
   7  -8   1    2.32    0.72
  -8   8  -1    6.24    0.85
   7   7  -1    2.30    0.75
   6   7  -1   21.00    1.09
   5   7  -1    0.88    0.53
  -5  -7   1    2.07    0.84
   4   7  -1    7.20    0.62
  -4  -7   1    6.76    0.68
  -4  -7   1    6.82    0.86
  -4  -7   1    7.53    0.83
   3   7  -1   67.19    1.96
  -3  -7   1   69.55    2.16
  -3  -7   1   66.21    1.99
  -3  -7   1   69.81    2.12
   2   7  -1   -0.14    0.33
  -2  -7   1    0.45    0.57
  -2  -7   1    1.01    0.64
  -2  -7   1    0.35    0.41
   1   7  -1    5.05    0.44
   1   7  -1    6.59    0.53
  -1  -7   1    4.56    0.47
  -1  -7   1    5.15    0.71
  -1  -7   1    5.73    0.63
   0   7  -1   14.56    0.70
   0   7  -1   15.79    0.83
   0  -7   1   16.06    0.99
   0  -7   1   17.38    1.05
   0  -7   1   15.17    0.69
  -1   7  -1   39.21    1.26
  -1   7  -1   36.88    1.20
   1  -7   1   37.99    1.38
   1  -7   1   38.59    1.47
   1  -7   1   36.31    1.38
   1  -7   1   37.14    1.12
  -2   7  -1   18.53    0.86
  -2   7  -1   20.29    0.86
  -2   7  -1   20.23    0.72
   2  -7   1   21.09    1.02
   2  -7   1   17.69    1.01
   2  -7   1   18.37    1.16
   2  -7   1   20.11    0.77
  -3   7  -1  124.49    2.86
  -3   7  -1  118.94    3.18
   3  -7   1  120.64    3.39
   3  -7   1  122.03    3.27
   3  -7   1  123.11    3.47
   3  -7   1  121.71    3.11
  -4   7  -1   10.61    0.55
  -4   7  -1   11.58    0.72
   4  -7   1   12.09    0.79
   4  -7   1   10.93    0.87
   4  -7   1   11.75    0.66
   4  -7   1   13.07    1.01
   4  -7   1    9.77    0.94
  -5   7  -1    7.97    0.69
  -5   7  -1    8.33    0.53
   5  -7   1    9.77    0.95
   5  -7   1    8.80    0.88
   5  -7   1    8.57    0.69
  -6   7  -1   13.53    0.87
   6  -7   1   14.84    0.96
   6  -7   1   13.55    1.06
  -7   7  -1   22.23    1.19
   7  -7   1   21.55    1.22
  -8   7  -1   39.07    1.60
   8  -7   1   39.57    1.70
  -9   7  -1   19.44    1.34
   7   6  -1   16.66    1.13
   6   6  -1   26.26    1.23
   5   6  -1   13.37    0.88
  -5  -6   1   15.74    0.91
  -5  -6   1   16.37    1.09
   4   6  -1   36.55    1.29
  -4  -6   1   37.20    1.30
  -4  -6   1   36.06    1.50
  -4  -6   1   38.10    1.51
   3   6  -1    0.34    0.36
  -3  -6   1    0.36    0.57
  -3  -6   1    0.70    0.42
  -3  -6   1   -0.53    0.58
   2   6  -1   57.01    1.65
   2   6  -1   60.08    1.70
  -2  -6   1   60.52    1.83
  -2  -6   1   60.54    1.82
  -2  -6   1   58.13    1.72
   1   6  -1  334.86    7.77
   1   6  -1  315.27    7.70
  -1  -6   1  327.23    7.83
  -1  -6   1  311.15    7.75
  -1  -6   1  326.25    7.89
   0   6  -1  228.39    5.50
   0   6  -1  231.80    5.56
   0  -6   1  221.83    5.50
   0  -6   1  229.02    5.67
   0  -6   1  227.78    5.60
  -1   6  -1    1.58    0.34
  -1   6  -1    1.34    0.32
  -1   6  -1    0.72    0.27
  -1   6  -1    0.24    0.30
   1  -6   1    1.25    0.29
   1  -6   1    0.90    0.47
   1  -6   1    1.22    0.50
   1  -6   1    1.43    0.37
  -2   6  -1   34.77    0.96
  -2   6  -1   32.33    1.11
  -2   6  -1   35.21    1.11
   2  -6   1   33.72    1.34
   2  -6   1   35.08    1.22
   2  -6   1   33.92    1.05
   2  -6   1   34.23    1.21
  -3   6  -1   11.84    0.71
  -3   6  -1   13.34    0.54
   3  -6   1   13.25    0.86
   3  -6   1   14.00    0.62
   3  -6   1   13.64    0.89
   3  -6   1   13.52    0.87
   3  -6   1   12.95    0.67
  -4   6  -1   42.39    1.22
  -4   6  -1   45.28    1.44
   4  -6   1   46.81    1.27
   4  -6   1   46.80    1.68
   4  -6   1   45.69    1.43
   4  -6   1   44.31    1.61
  -5   6  -1   21.81    0.85
  -5   6  -1   24.75    1.06
   5  -6   1   24.43    1.08
   5  -6   1   25.84    1.35
   5  -6   1   24.11    1.25
  -6   6  -1   31.46    1.24
   6  -6   1   31.82    1.31
   6  -6   1   32.83    1.54
  -7   6  -1    6.16    0.71
   7  -6   1    5.80    0.73
  -8   6  -1    1.65    0.69
   8  -6   1    2.42    0.77
  -9   6  -1    1.81    0.77
   9  -6   1    2.76    0.89
   8   5  -1    2.47    0.78
   7   5  -1    7.92    0.82
  -7  -5   1    9.91    0.92
   6   5  -1   -0.23    0.48
  -6  -5   1    0.49    0.57
  -6  -5   1    1.03    0.80
   5   5  -1    0.33    0.45
  -5  -5   1    0.97    0.47
  -5  -5   1    0.40    0.69
  -5  -5   1    0.78    0.65
   4   5  -1   75.87    2.16
  -4  -5   1   78.40    2.17
  -4  -5   1   78.95    2.33
  -4  -5   1   75.23    2.31
   3   5  -1   26.50    0.95
  -3  -5   1   26.13    1.06
  -3  -5   1   25.79    1.14
  -3  -5   1   27.19    0.99
   2   5  -1    1.02    0.29
   2   5  -1    1.51    0.31
  -2  -5   1    1.75    0.44
  -2  -5   1    1.08    0.34
  -2  -5   1    1.19    0.47
   1   5  -1  176.52    4.32
   1   5  -1  185.10    4.38
  -1  -5   1  180.31    4.48
  -1  -5   1  174.40    4.39
  -1  -5   1  177.15    4.29
  -1  -5   1  176.99    4.41
   0   5  -1   32.79    1.03
   0   5  -1   31.97    0.96
   0  -5   1   32.22    1.10
   0  -5   1   31.01    1.16
   0  -5   1   32.30    0.92
   0  -5   1   30.05    1.14
   0  -5   1   32.66    1.00
  -1   5  -1    6.35    0.46
  -1   5  -1    5.64    0.41
  -1   5  -1    6.41    0.42
  -1   5  -1    5.61    0.35
   1  -5   1    6.19    0.45
   1  -5   1    6.28    0.39
   1  -5   1    5.18    0.54
   1  -5   1    5.69    0.39
   1  -5   1    6.03    0.50
  -2   5  -1   71.08    1.82
  -2   5  -1   66.97    1.82
  -2   5  -1   66.75    1.63
   2  -5   1   67.88    1.98
   2  -5   1   64.28    1.86
   2  -5   1   68.21    1.98
   2  -5   1   65.35    1.78
  -3   5  -1   13.41    0.90
  -3   5  -1   11.99    0.50
  -3   5  -1   11.69    0.63
   3  -5   1   12.07    0.80
   3  -5   1    9.77    0.74
   3  -5   1   10.94    0.62
   3  -5   1   10.77    0.53
   3  -5   1   11.48    0.75
  -4   5  -1   93.20    2.26
  -4   5  -1   94.18    2.50
  -4   5  -1   91.36    2.64
   4  -5   1   93.50    2.50
   4  -5   1   92.93    2.59
   4  -5   1   94.69    2.27
   4  -5   1   93.06    2.66
  -5   5  -1  250.85    6.17
  -5   5  -1  246.41    6.01
  -5   5  -1  234.58    5.57
   5  -5   1  244.60    6.14
   5  -5   1  242.49    6.15
   5  -5   1  240.40    6.02
  -6   5  -1   39.74    1.43
   6  -5   1   40.75    1.51
   6  -5   1   44.89    1.71
  -7   5  -1    0.59    0.55
   7  -5   1    0.13    0.55
  -8   5  -1    0.12    0.66
   8  -5   1   -0.16    0.63
  -9   5  -1    5.60    0.89
   9  -5   1    6.18    0.97
   8   4  -1    6.52    0.86
  -8  -4   1    5.59    0.87
   7   4  -1    0.18    0.59
  -7  -4   1   -0.42    0.62
   6   4  -1    0.33    0.46
  -6  -4   1   -0.85    0.66
  -6  -4   1   -0.32    0.51
   5   4  -1   97.14    2.71
  -5  -4   1  101.22    2.87
  -5  -4   1  101.28    2.90
  -5  -4   1  100.99    2.73
   4   4  -1  250.84    6.22
  -4  -4   1  258.36    6.22
  -4  -4   1  256.56    6.35
  -4  -4   1  253.09    6.33
   3   4  -1   26.80    0.91
  -3  -4   1   26.31    1.06
  -3  -4   1   25.55    1.04
  -3  -4   1   27.16    0.93
   2   4  -1   57.68    1.63
   2   4  -1   61.60    1.61
   2   4  -1   60.59    1.60
  -2  -4   1   58.08    1.68
  -2  -4   1   60.14    1.68
  -2  -4   1   59.12    1.61
   1   4  -1    0.27    0.22
   1   4  -1   -0.06    0.33
   1   4  -1    0.04    0.19
   1   4  -1    0.17    0.28
  -1  -4   1    0.25    0.31
  -1  -4   1    0.21    0.19
  -1  -4   1    0.33    0.39
  -1  -4   1    0.27    0.30
   0   4  -1   14.39    0.59
   0   4  -1   14.11    0.61
   0   4  -1   13.95    0.52
   0   4  -1   13.10    0.63
   0  -4   1   13.27    0.66
   0  -4   1   14.03    0.77
   0  -4   1   13.29    0.59
   0  -4   1   12.50    0.64
   0  -4   1   13.44    0.49
  -1   4  -1  114.40    2.88
  -1   4  -1  113.38    2.88
  -1   4  -1  115.72    2.93
  -1   4  -1  115.18    2.68
  -1   4  -1  120.01    2.87
   1  -4   1  117.16    2.86
   1  -4   1  113.93    2.92
   1  -4   1  115.27    2.98
   1  -4   1  116.15    2.86
   1  -4   1  117.09    3.09
  -2   4  -1  301.54    6.89
  -2   4  -1  289.03    6.88
  -2   4  -1  281.40    6.93
  -2   4  -1  284.63    6.43
  -2   4  -1  288.92    7.00
   2  -4   1  295.24    6.45
   2  -4   1  283.74    6.87
   2  -4   1  280.69    6.95
   2  -4   1  292.80    6.88
   2  -4   1  286.57    7.01
  -3   4  -1   32.88    0.94
  -3   4  -1   34.48    1.26
  -3   4  -1   36.63    1.08
  -3   4  -1   35.41    1.08
   3  -4   1   33.63    1.19
   3  -4   1   36.31    0.97
   3  -4   1   31.91    1.21
   3  -4   1   33.60    1.09
  -4   4  -1   27.01    0.87
  -4   4  -1   28.13    0.97
  -4   4  -1   28.40    1.22
   4  -4   1   29.10    1.18
   4  -4   1   29.21    0.89
   4  -4   1   28.11    1.17
   4  -4   1   28.07    1.03
  -5   4  -1   21.03    1.30
  -5   4  -1   22.66    0.94
   5  -4   1   22.77    1.13
   5  -4   1   23.09    1.20
   5  -4   1   24.52    1.03
  -6   4  -1   58.48    1.84
   6  -4   1   59.28    1.87
   6  -4   1   62.75    2.09
  -7   4  -1    9.01    0.78
   7  -4   1    9.90    0.85
  -8   4  -1   -0.54    0.63
   8  -4   1   -0.92    0.59
  -9   4  -1    0.84    0.78
   9  -4   1    1.38    0.81
   9   3  -1    0.65    0.78
   8   3  -1   24.81    1.26
  -8  -3   1   22.66    1.23
   7   3  -1   18.84    1.05
  -7  -3   1   20.21    1.06
   6   3  -1    1.92    0.50
  -6  -3   1    1.53    0.53
  -6  -3   1    1.39    0.72
   5   3  -1   61.52    1.88
  -5  -3   1   64.52    1.91
  -5  -3   1   68.49    2.10
  -5  -3   1   66.59    2.10
   4   3  -1    1.22    0.49
   4   3  -1    1.07    0.35
  -4  -3   1    1.20    0.48
  -4  -3   1    0.89    0.52
  -4  -3   1    0.92    0.36
   3   3  -1    0.09    0.26
   3   3  -1    0.40    0.38
  -3  -3   1    0.38    0.27
  -3  -3   1   -0.07    0.35
  -3  -3   1    0.25    0.35
   2   3  -1    1.68    0.33
   2   3  -1    1.56    0.31
   2   3  -1    1.31    0.24
   2   3  -1    1.60    0.22
  -2  -3   1    1.45    0.27
  -2  -3   1    1.51    0.31
  -2  -3   1    1.30    0.36
  -2  -3   1    1.55    0.25
   1   3  -1    5.97    0.38
   1   3  -1    5.72    0.42
   1   3  -1    5.76    0.33
   1   3  -1    5.04    0.32
  -1  -3   1    5.60    0.38
  -1  -3   1    6.80    0.33
  -1  -3   1    6.10    0.38
  -1  -3   1    5.16    0.41
   0   3  -1   18.23    0.63
   0   3  -1   18.19    0.62
   0   3  -1   17.23    0.78
   0   3  -1   16.69    0.56
   0   3  -1   17.33    0.68
   0  -3   1   17.85    0.55
   0  -3   1   16.21    0.61
   0  -3   1   15.82    0.78
   0  -3   1   16.52    0.71
   0  -3   1   17.67    0.62
  -1   3  -1  870.09   21.13
  -1   3  -1  889.05   21.12
  -1   3  -1  913.17   21.07
  -1   3  -1  923.01   19.94
  -1   3  -1  919.43   21.05
   1  -3   1  917.75   22.91
   1  -3   1  875.95   21.23
   1  -3   1  887.62   21.01
   1  -3   1  872.78   21.18
   1  -3   1  908.89   20.97
   1  -3   1  899.97   19.85
   1  -3   1  873.68   21.12
  -2   3  -1  420.69   10.37
  -2   3  -1  435.06   10.24
  -2   3  -1  444.65   10.25
  -2   3  -1  434.90   10.35
  -2   3  -1  431.90    9.63
   2  -3   1  443.25    9.63
   2  -3   1  431.47   10.25
   2  -3   1  427.38   10.37
   2  -3   1  439.00   10.23
   2  -3   1  435.73   10.39
   2  -3   1  441.00   10.36
  -3   3  -1    4.49    0.48
  -3   3  -1    4.92    0.44
  -3   3  -1    4.79    0.35
  -3   3  -1    4.47    0.31
  -3   3  -1    6.14    0.42
   3  -3   1    4.40    0.48
   3  -3   1    4.74    0.39
   3  -3   1    4.88    0.31
   3  -3   1    4.32    0.48
  -4   3  -1    2.58    0.36
  -4   3  -1    2.59    0.49
  -4   3  -1    2.82    0.53
  -4   3  -1    3.37    0.49
  -4   3  -1    2.44    0.31
   4  -3   1    2.93    0.51
   4  -3   1    3.00    0.39
   4  -3   1    1.86    0.46
  -5   3  -1   37.36    1.46
  -5   3  -1   34.75    1.22
  -5   3  -1   36.52    1.46
   5  -3   1   33.80    1.35
   5  -3   1   33.99    1.34
   5  -3   1   33.72    1.21
  -6   3  -1   24.46    1.04
   6  -3   1   24.93    1.08
   6  -3   1   24.28    1.26
  -7   3  -1   44.40    1.58
   7  -3   1   46.52    1.68
  -8   3  -1   25.76    1.30
   8  -3   1   26.07    1.29
  -9   3  -1    0.14    0.70
   9  -3   1    0.64    0.79
   9   2  -1    5.14    0.86
  -9  -2   1    4.32    0.84
   8   2  -1   36.93    1.55
  -8  -2   1   40.25    1.55
   7   2  -1   29.19    1.28
  -7  -2   1   27.65    1.20
   6   2  -1   19.65    0.96
  -6  -2   1   22.60    1.20
  -6  -2   1   19.24    0.94
   5   2  -1    1.53    0.43
   5   2  -1    0.14    0.58
  -5  -2   1    1.44    0.57
  -5  -2   1    1.80    0.42
  -5  -2   1    1.47    0.58
   4   2  -1    0.56    0.45
   4   2  -1    1.05    0.31
  -4  -2   1    1.03    0.34
  -4  -2   1    1.11    0.43
  -4  -2   1    1.33    0.44
   3   2  -1   18.68    0.74
   3   2  -1   19.54    0.70
   3   2  -1   19.50    0.78
   3   2  -1   18.24    0.67
  -3  -2   1   18.65    0.71
  -3  -2   1   19.56    0.79
  -3  -2   1   18.43    0.83
   2   2  -1  717.54   16.85
   2   2  -1  707.03   16.86
   2   2  -1  715.52   16.84
   2   2  -1  727.18   16.68
  -2  -2   1  708.24   16.85
  -2  -2   1  729.48   16.68
  -2  -2   1  715.30   16.96
  -2  -2   1  687.85   16.86
   1   2  -1  170.49    4.04
   1   2  -1  169.08    4.11
   1   2  -1  164.98    4.10
   1   2  -1  173.76    4.05
  -1  -2   1  169.42    4.11
  -1  -2   1  167.70    4.05
  -1  -2   1  175.07    4.04
  -1  -2   1  169.23    4.12
   0   2  -1  208.66    5.05
   0   2  -1  209.87    5.33
   0   2  -1  212.53    4.99
   0   2  -1  211.10    5.03
   0   2  -1  209.02    4.96
   0  -2   1  212.47    5.00
   0  -2   1  210.87    5.06
   0  -2   1  216.63    4.96
   0  -2   1  207.96    5.03
   0  -2   1  202.21    5.33
  -1   2  -1   80.27    2.05
  -1   2  -1   68.21    2.08
  -1   2  -1   84.42    1.88
  -1   2  -1   81.86    2.01
  -1   2  -1   84.01    2.02
   1  -2   1   81.44    2.07
   1  -2   1   83.21    2.01
   1  -2   1   82.71    2.09
   1  -2   1   84.75    1.88
   1  -2   1   82.98    2.02
  -2   2  -1  359.79    8.17
  -2   2  -1  365.06    8.79
  -2   2  -1  388.39    8.71
  -2   2  -1  360.42    8.67
   2  -2   1  362.83    8.79
   2  -2   1  359.77    8.69
   2  -2   1  379.42    8.68
   2  -2   1  379.13    8.18
   2  -2   1  361.96    8.78
  -3   2  -1  117.87    2.78
  -3   2  -1  117.03    3.03
  -3   2  -1  116.81    2.95
   3  -2   1  118.73    2.98
   3  -2   1  119.28    3.05
   3  -2   1  123.57    2.78
   3  -2   1  117.74    3.02
  -4   2  -1   35.42    1.26
  -4   2  -1   34.89    1.11
   4  -2   1   30.66    1.11
   4  -2   1   34.50    1.11
   4  -2   1   36.11    1.25
  -5   2  -1    1.04    0.60
  -5   2  -1    0.02    0.12
  -5   2  -1    0.86    0.40
   5  -2   1    0.74    0.54
   5  -2   1    0.25    0.13
   5  -2   1    0.55    0.38
  -6   2  -1    1.80    0.51
   6  -2   1    1.82    0.50
   6  -2   1    1.01    0.59
  -7   2  -1   43.87    1.52
   7  -2   1   41.72    1.55
  -8   2  -1    1.17    0.67
   8  -2   1    1.39    0.70
  -9   2  -1   -0.15    0.69
   9  -2   1   -0.22    0.71
   9   1  -1    5.15    0.85
  -9  -1   1    5.74    0.88
   8   1  -1   -0.76    0.62
  -8  -1   1   -0.63    0.63
   7   1  -1    0.11    0.54
  -7  -1   1   -0.14    0.53
   6   1  -1   20.54    1.02
  -6  -1   1   22.08    0.98
  -6  -1   1   21.04    1.27
  -6  -1   1   23.07    1.33
   5   1  -1   10.82    0.78
   5   1  -1   11.44    0.77
   5   1  -1   10.15    0.71
  -5  -1   1   10.38    0.66
  -5  -1   1   11.46    0.81
  -5  -1   1   10.83    0.77
   4   1  -1   26.55    1.00
   4   1  -1   25.90    0.90
   4   1  -1   26.23    1.04
  -4  -1   1   26.78    0.90
  -4  -1   1   26.67    1.00
  -4  -1   1   25.41    1.06
   3   1  -1  221.27    5.38
   3   1  -1  216.86    5.31
   3   1  -1  230.38    5.30
  -3  -1   1  221.81    5.30
  -3  -1   1  215.60    5.30
  -3  -1   1  220.27    5.38
  -3  -1   1  220.29    5.38
   2   1  -1  473.84   11.46
   2   1  -1  486.27   11.58
   2   1  -1  501.63   11.45
  -2  -1   1  489.43   11.58
  -2  -1   1  493.70   11.46
  -2  -1   1  500.40   11.59
  -2  -1   1  479.98   11.45
   1   1  -1   70.73    1.81
   1   1  -1   73.17    1.79
   1   1  -1   74.18    1.79
  -1  -1   1   74.14    1.79
  -1  -1   1   74.05    1.83
   0   1  -1    0.24    0.08
   0   1  -1   -0.05    0.07
   0   1  -1   -0.07    0.05
   0   1  -1    0.01    0.07
   0   1  -1    0.14    0.09
   0   1  -1   -0.08    0.02
   0  -1   1   -0.06    0.06
   0  -1   1    0.01    0.06
   0  -1   1    0.30    0.10
   0  -1   1   -0.06    0.02
  -1   1  -1   80.05    2.01
  -1   1  -1   80.35    1.96
  -1   1  -1   78.58    1.85
  -1   1  -1   83.27    1.98
   1  -1   1   80.91    1.98
   1  -1   1   81.94    1.96
   1  -1   1   82.77    1.85
   1  -1   1   79.80    2.00
  -2   1  -1   11.64    0.42
  -2   1  -1   11.00    0.47
  -2   1  -1   12.14    0.56
  -2   1  -1   12.75    0.60
  -2   1  -1   10.05    0.42
   2  -1   1   11.01    0.58
   2  -1   1   10.55    0.45
   2  -1   1   12.03    0.44
   2  -1   1   11.11    0.45
  -3   1  -1  346.52    8.43
  -3   1  -1  362.01    8.56
  -3   1  -1  352.68    7.97
  -3   1  -1  358.56    8.56
   3  -1   1  364.66    7.96
   3  -1   1  361.37    8.43
   3  -1   1  354.58    8.55
   3  -1   1  347.03    8.45
  -4   1  -1  233.63    5.70
  -4   1  -1  240.47    5.84
  -4   1  -1  236.38    5.82
   4  -1   1  226.41    5.73
   4  -1   1  234.08    5.82
   4  -1   1  242.14    5.81
  -5   1  -1    0.23    0.36
  -5   1  -1    1.09    0.60
  -5   1  -1    0.74    0.58
   5  -1   1    1.08    0.59
   5  -1   1    0.09    0.51
   5  -1   1    0.82    0.39
  -6   1  -1   17.80    0.95
  -6   1  -1   19.62    1.17
   6  -1   1   16.19    0.90
  -7   1  -1    0.33    0.56
   7  -1   1   -0.01    0.52
  -8   1  -1   27.77    1.28
   8  -1   1   26.33    1.31
  -9   1  -1   15.02    1.16
   9  -1   1   13.71    1.12
   9   0  -1    1.37    0.77
  -9   0   1    1.36    0.69
   8   0  -1    1.42    0.63
  -8   0   1    0.78    0.66
   7   0  -1    3.09    0.62
  -7   0   1    1.41    0.53
   6   0  -1  153.58    4.08
   6   0  -1  165.43    4.21
  -6   0   1  159.68    4.22
  -6   0   1  156.76    4.06
   5   0  -1  109.99    2.91
   5   0  -1  101.95    2.79
  -5   0   1  103.26    2.77
  -5   0   1  111.28    2.94
   4   0  -1  130.32    3.28
   4   0  -1  127.14    3.22
  -4   0   1  125.36    3.28
  -4   0   1  128.52    3.20
   3   0  -1   50.42    1.44
   3   0  -1   53.81    1.39
   3   0  -1   51.47    1.45
   3   0  -1   52.91    1.42
  -3   0   1   51.03    1.46
  -3   0   1   51.31    1.39
   2   0  -1   64.26    1.65
   2   0  -1   61.82    1.58
   2   0  -1   63.13    1.64
   2   0  -1   62.99    1.57
  -2   0   1   63.68    1.64
  -2   0   1   65.33    1.58
  -2   0   1   59.42    1.57
   1   0  -1  117.82    2.73
   1   0  -1  119.82    2.70
   1   0  -1   97.62    2.68
  -1   0   1  120.26    2.69
   0   0  -1   -0.06    0.01
   0   0  -1   -0.06    0.04
   0   0   1   -0.10    0.02
   0   0   1   -0.05    0.04
   0   0   1   -0.02    0.04
   0   0   1   -0.06    0.03
   0   0   1   -0.04    0.03
  -1   0  -1  155.76    3.77
  -1   0  -1  160.82    3.73
  -1   0  -1  159.01    3.72
  -1   0  -1  158.01    3.77
   1   0   1  156.98    3.76
   1   0   1  154.57    3.77
   1   0   1  151.80    3.73
   1   0   1  159.12    3.52
   1   0   1  160.75    3.72
  -2   0  -1   81.24    2.14
  -2   0  -1   82.98    2.16
  -2   0  -1   81.08    2.08
  -2   0  -1   86.83    2.00
  -2   0  -1   88.64    2.12
   2   0   1   85.42    1.99
   2   0   1   82.69    2.14
   2   0   1   82.89    2.11
   2   0   1   84.03    2.09
   2   0   1   85.39    2.15
  -3   0  -1   58.65    1.66
  -3   0  -1   59.00    1.68
  -3   0  -1   57.06    1.56
   3   0   1   58.30    1.67
   3   0   1   61.34    1.58
   3   0   1   59.32    1.50
   3   0   1   59.00    1.64
   3   0   1   58.13    1.60
  -4   0  -1    1.71    0.34
  -4   0  -1    1.69    0.44
  -4   0  -1    0.74    0.48
   4   0   1    2.07    0.45
   4   0   1    1.37    0.33
  -5   0  -1   -1.12    0.53
  -5   0  -1    0.29    0.53
  -5   0  -1   -0.26    0.36
   5   0   1    0.05    0.54
   5   0   1   -0.67    0.38
  -6   0  -1    8.35    0.70
  -6   0  -1    8.59    0.86
   6   0   1    7.52    0.68
  -7   0  -1   18.85    1.07
   7   0   1   18.21    1.02
  -8   0  -1    4.25    0.77
   8   0   1    5.30    0.78
  -9   0  -1   14.48    1.13
   9   0   1   12.00    1.09
   9  -1  -1   12.59    1.07
  -9   1   1   13.17    1.07
   8  -1  -1   -0.54    0.61
  -8   1   1    0.05    0.56
   7  -1  -1   14.34    0.89
  -7   1   1   13.57    0.92
   6  -1  -1   26.22    1.15
   6  -1  -1   25.39    1.05
   6  -1  -1   23.54    1.18
  -6   1   1   24.70    1.22
  -6   1   1   22.39    1.00
   5  -1  -1   81.67    2.32
   5  -1  -1   82.98    2.26
   5  -1  -1   82.57    2.33
  -5   1   1   81.13    2.23
  -5   1   1   84.58    2.38
  -5   1   1   85.90    2.40
   4  -1  -1    0.32    0.41
   4  -1  -1    0.16    0.26
   4  -1  -1    0.31    0.24
   4  -1  -1    0.92    0.39
  -4   1   1    0.06    0.37
  -4   1   1    0.15    0.37
  -4   1   1    0.54    0.29
   3  -1  -1  117.02    2.94
   3  -1  -1  119.60    2.86
   3  -1  -1  117.02    2.88
   3  -1  -1  113.99    2.93
  -3   1   1  116.72    2.87
  -3   1   1  117.64    2.92
  -3   1   1  115.46    2.94
  -3   1   1  114.84    2.87
   2  -1  -1    5.17    0.35
   2  -1  -1    5.18    0.29
   2  -1  -1    4.75    0.27
   2  -1  -1    4.55    0.36
  -2   1   1    5.33    0.40
  -2   1   1    5.23    0.28
  -2   1   1    6.25    0.47
  -2   1   1    5.19    0.30
   1  -1  -1  270.57    6.56
   1  -1  -1  280.62    6.51
   1  -1  -1  282.38    6.49
  -1   1   1  275.24    6.49
  -1   1   1  269.59    6.49
   0  -1  -1  226.60    5.92
   0  -1  -1  241.34    5.18
   0   1   1  225.71    5.91
  -1  -1  -1    3.79    0.21
  -1  -1  -1    4.26    0.23
  -1  -1  -1    3.50    0.28
  -1  -1  -1    3.73    0.27
   1   1   1    4.25    0.28
   1   1   1    4.31    0.29
   1   1   1    3.72    0.24
   1   1   1    3.74    0.23
   1   1   1    4.72    0.22
  -2  -1  -1   94.14    2.39
  -2  -1  -1   93.94    2.39
  -2  -1  -1   94.12    2.34
  -2  -1  -1   93.69    2.32
   2   1   1   96.58    2.32
   2   1   1   93.72    2.34
   2   1   1   91.77    2.37
   2   1   1   94.61    2.36
   2   1   1   96.46    2.23
  -3  -1  -1    5.13    0.46
  -3  -1  -1    5.73    0.49
  -3  -1  -1    5.93    0.40
   3   1   1    5.59    0.49
   3   1   1    6.24    0.44
   3   1   1    5.02    0.39
  -4  -1  -1   35.81    1.31
  -4  -1  -1   36.37    1.15
  -4  -1  -1   34.55    1.31
   4   1   1   36.21    1.15
   4   1   1   38.30    1.30
  -5  -1  -1  141.10    3.64
  -5  -1  -1  145.38    3.82
  -5  -1  -1  146.65    3.83
   5   1   1  138.34    3.68
  -6  -1  -1  184.01    4.76
  -6  -1  -1  175.16    4.53
   6   1   1  175.81    4.58
  -7  -1  -1    1.08    0.59
   7   1   1    0.36    0.59
  -8  -1  -1   -0.32    0.61
   8   1   1   -0.50    0.65
   9   1   1   -0.35    0.72
   9  -2  -1   12.70    1.04
  -9   2   1   14.85    1.09
   8  -2  -1   45.43    1.63
  -8   2   1   40.02    1.56
   7  -2  -1   10.25    0.81
  -7   2   1   12.82    0.82
   6  -2  -1    0.97    0.67
   6  -2  -1    0.23    0.44
   6  -2  -1    0.56    0.62
  -6   2   1    0.19    0.42
  -6   2   1   -0.06    0.61
   5  -2  -1    7.31    0.66
   5  -2  -1    8.41    0.60
   5  -2  -1    8.54    0.71
  -5   2   1    8.09    0.72
  -5   2   1    8.77    0.57
   4  -2  -1  634.04   15.13
   4  -2  -1  634.39   14.95
   4  -2  -1  648.92   14.06
   4  -2  -1  627.28   15.11
  -4   2   1  628.84   15.10
  -4   2   1  630.31   14.94
  -4   2   1  644.57   15.12
   3  -2  -1  294.71    6.99
   3  -2  -1  300.43    6.57
   3  -2  -1  293.04    7.11
   3  -2  -1  297.52    7.01
   3  -2  -1  294.12    7.10
  -3   2   1  295.97    7.10
  -3   2   1  304.69    7.02
  -3   2   1  291.42    7.08
  -3   2   1  288.74    7.00
   2  -2  -1    5.35    0.36
   2  -2  -1    5.50    0.35
   2  -2  -1    6.34    0.29
   2  -2  -1    6.50    0.31
   2  -2  -1    6.23    0.23
  -2   2   1    6.84    0.31
  -2   2   1    6.66    0.42
  -2   2   1    6.40    0.37
  -2   2   1    6.99    0.32
   1  -2  -1    2.49    0.21
   1  -2  -1    2.20    0.27
   1  -2  -1    2.33    0.16
  -1   2   1    2.26    0.14
  -1   2   1    2.19    0.14
   0  -2  -1    5.56    0.43
   0   2   1    5.85    0.25
   0   2   1    6.34    0.47
  -1  -2  -1    0.84    0.13
  -1  -2  -1    0.80    0.21
  -1  -2  -1    0.86    0.14
  -1  -2  -1    0.60    0.21
   1   2   1    0.84    0.20
   1   2   1    0.67    0.15
   1   2   1    0.75    0.19
   1   2   1    0.55    0.16
   1   2   1    0.89    0.14
  -2  -2  -1  101.75    2.52
  -2  -2  -1  107.49    2.55
  -2  -2  -1  100.18    2.59
  -2  -2  -1  105.98    2.61
   2   2   1   99.97    2.57
   2   2   1  103.18    2.53
   2   2   1  104.49    2.43
   2   2   1  100.11    2.54
  -3  -2  -1  102.49    2.58
  -3  -2  -1   98.72    2.67
  -3  -2  -1  102.36    2.66
   3   2   1  107.06    2.59
   3   2   1  101.51    2.61
  -4  -2  -1    3.55    0.59
  -4  -2  -1    4.40    0.59
  -4  -2  -1    4.00    0.44
   4   2   1    2.85    0.42
  -5  -2  -1   65.44    2.10
  -5  -2  -1   69.33    2.14
  -5  -2  -1   69.28    1.95
   5   2   1   64.20    1.96
  -6  -2  -1    7.15    0.90
  -6  -2  -1    6.33    0.65
   6   2   1    6.49    0.67
  -7  -2  -1    1.88    0.63
   7   2   1    0.08    0.55
  -8  -2  -1   -0.63    0.68
   8   2   1    0.27    0.64
   9  -3  -1   10.00    1.00
  -9   3   1    8.42    0.93
   8  -3  -1    0.43    0.65
  -8   3   1   -0.35    0.60
   7  -3  -1   37.39    1.43
  -7   3   1   37.42    1.37
   6  -3  -1    1.86    0.65
   6  -3  -1    2.53    0.49
   6  -3  -1    2.30    0.61
  -6   3   1    1.78    0.45
  -6   3   1    2.84    0.72
   5  -3  -1   39.58    1.44
   5  -3  -1   40.33    1.30
   5  -3  -1   40.07    1.45
  -5   3   1   39.49    1.44
  -5   3   1   40.41    1.28
   4  -3  -1   74.07    2.03
   4  -3  -1   71.53    2.03
   4  -3  -1   71.44    1.94
   4  -3  -1   76.53    1.76
  -4   3   1   71.15    2.03
  -4   3   1   73.96    1.93
  -4   3   1   71.43    2.03
   3  -3  -1   54.61    1.49
   3  -3  -1   53.46    1.40
   3  -3  -1   54.90    1.27
   3  -3  -1   52.31    1.41
   3  -3  -1   51.25    1.49
  -3   3   1   51.30    1.51
  -3   3   1   52.11    1.41
  -3   3   1   55.52    1.43
   2  -3  -1   66.88    1.66
   2  -3  -1   67.67    1.65
   2  -3  -1   64.62    1.75
   2  -3  -1   67.08    1.51
   2  -3  -1   68.01    1.71
  -2   3   1   67.20    1.68
  -2   3   1   65.83    1.72
  -2   3   1   68.76    1.67
   1  -3  -1   24.81    0.68
   1  -3  -1   23.76    0.88
   1  -3  -1   25.16    0.65
  -1   3   1   24.83    0.67
  -1   3   1   24.97    0.89
  -1   3   1   25.91    0.65
   0  -3  -1   13.22    0.40
   0  -3  -1   12.96    0.38
   0   3   1   13.70    0.37
   0   3   1   12.85    0.64
   0   3   1   13.31    0.42
  -1  -3  -1  192.15    4.64
  -1  -3  -1  197.66    4.56
  -1  -3  -1  187.86    4.66
   1   3   1  194.21    4.59
   1   3   1  197.52    4.60
  -2  -3  -1  705.56   16.85
  -2  -3  -1  729.34   16.65
  -2  -3  -1  701.43   16.65
  -2  -3  -1  704.41   16.84
   2   3   1  732.81   16.67
   2   3   1  704.94   16.67
   2   3   1  709.99   15.78
  -3  -3  -1   86.73    2.33
  -3  -3  -1   84.65    2.20
  -3  -3  -1   87.07    2.32
   3   3   1   88.20    2.23
   3   3   1   81.86    2.23
  -4  -3  -1    2.06    0.60
  -4  -3  -1    1.61    0.38
  -4  -3  -1    1.22    0.56
   4   3   1    1.21    0.39
  -5  -3  -1    2.30    0.67
  -5  -3  -1    1.78    0.71
  -5  -3  -1    1.58    0.48
   5   3   1    2.13    0.49
  -6  -3  -1   21.96    1.06
  -6  -3  -1   23.48    1.39
   6   3   1   21.08    1.07
  -7  -3  -1    8.18    0.83
   7   3   1   10.12    0.87
   8   3   1   14.14    1.10
   9  -4  -1    0.50    0.73
  -9   4   1    0.32    0.69
   8  -4  -1   49.17    1.76
  -8   4   1   44.63    1.66
   7  -4  -1   85.92    2.62
   7  -4  -1   87.53    2.48
  -7   4   1   81.00    2.42
   6  -4  -1   46.15    1.65
   6  -4  -1   47.52    1.72
   6  -4  -1   48.00    1.53
  -6   4   1   44.39    1.47
   5  -4  -1    2.32    0.42
   5  -4  -1    2.68    0.32
   5  -4  -1    2.52    0.60
   5  -4  -1    1.81    0.60
  -5   4   1    2.40    0.40
   4  -4  -1   19.72    0.92
   4  -4  -1   19.91    0.91
   4  -4  -1   20.70    0.64
   4  -4  -1   20.68    0.76
  -4   4   1   20.29    0.78
  -4   4   1   21.21    0.79
   3  -4  -1   13.33    0.73
   3  -4  -1   14.26    0.54
   3  -4  -1   13.70    0.66
   3  -4  -1   14.84    0.45
   3  -4  -1   13.31    0.57
  -3   4   1   14.83    0.59
  -3   4   1   14.59    0.57
   2  -4  -1  108.53    2.71
   2  -4  -1  106.89    3.06
   2  -4  -1  110.70    2.77
   2  -4  -1  108.59    2.64
  -2   4   1  113.00    2.67
  -2   4   1  111.24    2.69
   1  -4  -1  282.70    6.67
   1  -4  -1  275.37    7.32
   1  -4  -1  285.15    6.65
  -1   4   1  279.86    6.61
  -1   4   1  283.99    6.60
   0  -4  -1   31.84    0.90
   0  -4  -1   30.69    1.16
   0  -4  -1   30.82    0.84
   0   4   1   32.14    0.88
   0   4   1   31.19    0.82
  -1  -4  -1  167.79    4.07
  -1  -4  -1  165.94    4.04
  -1  -4  -1  170.95    3.92
   1   4   1  159.57    3.98
   1   4   1  169.61    4.00
  -2  -4  -1    2.47    0.40
  -2  -4  -1    2.93    0.27
  -2  -4  -1    3.25    0.42
  -2  -4  -1    1.83    0.28
   2   4   1    2.25    0.28
   2   4   1    2.84    0.29
  -3  -4  -1    3.96    0.38
  -3  -4  -1    2.75    0.53
  -3  -4  -1    3.71    0.54
   3   4   1    3.07    0.37
   3   4   1    3.89    0.37
  -4  -4  -1   16.51    0.79
  -4  -4  -1   18.50    1.07
  -4  -4  -1   16.69    1.04
   4   4   1   16.38    0.81
  -5  -4  -1   14.34    0.96
  -5  -4  -1   12.73    0.97
  -5  -4  -1   11.95    0.84
   5   4   1   11.76    0.81
  -6  -4  -1    0.89    0.83
  -6  -4  -1    1.32    0.55
   6   4   1    1.15    0.52
   7   4   1   15.92    1.08
   8   4   1   13.31    1.06
   9  -5  -1    7.50    0.95
  -9   5   1    8.26    0.94
   8  -5  -1    0.89    0.67
  -8   5   1    1.65    0.65
   7  -5  -1    7.15    0.71
   7  -5  -1    7.51    0.92
  -7   5   1    6.74    0.67
   6  -5  -1    3.24    0.72
   6  -5  -1    3.40    0.52
   6  -5  -1    2.54    0.69
  -6   5   1    2.72    0.52
   5  -5  -1   17.20    1.03
   5  -5  -1   15.92    0.78
   5  -5  -1   16.75    0.64
   5  -5  -1   15.70    1.01
  -5   5   1   17.83    0.81
   4  -5  -1   23.60    1.06
   4  -5  -1   23.99    0.72
   4  -5  -1   24.89    1.02
   4  -5  -1   25.70    0.86
  -4   5   1   25.21    0.88
  -4   5   1   24.76    0.89
   3  -5  -1    2.64    0.30
   3  -5  -1    1.94    0.40
   3  -5  -1    1.70    0.46
   3  -5  -1    2.06    0.47
   3  -5  -1    1.92    0.46
   3  -5  -1    2.34    0.31
   3  -5  -1    1.73    0.24
  -3   5   1    1.99    0.28
  -3   5   1    2.28    0.30
   2  -5  -1  433.88   10.19
   2  -5  -1  429.59   10.46
   2  -5  -1  430.36   11.32
   2  -5  -1  443.00   10.40
  -2   5   1  437.20    9.63
  -2   5   1  453.55   10.30
  -2   5   1  441.86   10.32
   1  -5  -1  327.23    8.50
   1  -5  -1  322.64    7.74
   1  -5  -1  320.92    7.72
  -1   5   1  332.14    7.67
  -1   5   1  324.39    7.66
   0  -5  -1  108.31    2.65
   0  -5  -1  108.94    2.73
   0  -5  -1  103.55    3.13
   0   5   1  108.70    2.62
   0   5   1  109.29    2.67
  -1  -5  -1   17.55    0.69
  -1  -5  -1   16.80    0.74
   1   5   1   16.70    0.62
   1   5   1   16.22    0.58
  -2  -5  -1   50.42    1.52
  -2  -5  -1   50.41    1.39
  -2  -5  -1   52.96    1.35
  -2  -5  -1   50.62    1.53
   2   5   1   50.83    1.42
   2   5   1   52.54    1.43
  -3  -5  -1   17.02    0.98
  -3  -5  -1   16.15    0.74
  -3  -5  -1   17.87    0.93
   3   5   1   17.26    0.74
  -4  -5  -1  132.87    3.48
  -4  -5  -1  130.76    3.48
  -4  -5  -1  126.72    3.28
   4   5   1  122.62    3.31
  -5  -5  -1   22.35    1.28
  -5  -5  -1   22.88    1.25
  -5  -5  -1   22.32    1.06
   5   5   1   21.52    1.02
  -6  -5  -1    1.55    0.81
   6   5   1    0.38    0.52
   7   5   1    1.24    0.69
  -9   6   1    2.87    0.78
   8  -6  -1    4.02    0.74
  -8   6   1    5.18    0.74
   7  -6  -1    0.11    0.50
   7  -6  -1    1.06    0.78
  -7   6   1    0.86    0.54
   6  -6  -1   22.55    1.24
   6  -6  -1   22.86    0.99
   6  -6  -1   23.37    1.17
  -6   6   1   20.76    1.02
   5  -6  -1   96.04    2.24
   5  -6  -1   95.84    2.66
   5  -6  -1   97.54    2.72
   5  -6  -1   89.66    2.47
  -5   6   1   90.17    2.51
   4  -6  -1   66.97    2.00
   4  -6  -1   65.55    1.76
   4  -6  -1   65.39    2.22
   4  -6  -1   63.13    1.93
   4  -6  -1   66.39    1.60
  -4   6   1   69.10    1.85
  -4   6   1   66.61    1.84
   3  -6  -1   57.91    1.65
   3  -6  -1   57.41    1.49
   3  -6  -1   46.89    1.41
   3  -6  -1   57.09    1.89
   3  -6  -1   57.96    1.76
  -3   6   1   56.71    1.28
  -3   6   1   60.79    1.57
  -3   6   1   57.85    1.56
   2  -6  -1    0.46    0.49
   2  -6  -1    0.03    0.35
   2  -6  -1    0.73    0.46
  -2   6   1    0.84    0.24
  -2   6   1    0.51    0.30
  -2   6   1    0.68    0.16
   1  -6  -1    0.33    0.35
   1  -6  -1   -0.16    0.36
   1  -6  -1   -0.08    0.44
  -1   6   1    0.78    0.25
  -1   6   1    0.88    0.25
   0  -6  -1   43.76    1.38
   0  -6  -1   43.69    1.25
   0   6   1   43.79    1.26
   0   6   1   42.23    1.17
  -1  -6  -1   95.79    2.54
  -1  -6  -1   94.27    2.46
   1   6   1   96.99    2.43
   1   6   1   91.87    2.38
  -2  -6  -1    1.35    0.49
  -2  -6  -1    1.08    0.22
  -2  -6  -1    1.36    0.53
  -2  -6  -1    0.58    0.25
   2   6   1    1.66    0.32
   2   6   1    1.56    0.33
  -3  -6  -1   21.58    0.86
  -3  -6  -1   24.28    1.09
  -3  -6  -1   24.36    1.15
   3   6   1   23.57    0.90
  -4  -6  -1   26.95    1.30
  -4  -6  -1   25.40    1.26
   4   6   1   24.23    1.03
  -5  -6  -1    3.16    0.85
   5   6   1    3.78    0.60
  -6  -6  -1    0.51    0.91
   6   6   1    2.37    0.65
   7   6   1    3.51    0.74
  -9   7   1    5.39    0.88
  -8   7   1    1.10    0.64
   7  -7  -1    0.79    0.80
   7  -7  -1    1.32    0.58
  -7   7   1    2.19    0.60
   6  -7  -1   21.80    1.24
   6  -7  -1   20.34    0.95
   6  -7  -1   21.27    1.24
  -6   7   1   20.68    1.01
   5  -7  -1   69.53    2.19
   5  -7  -1   67.33    1.88
   5  -7  -1   69.97    2.48
   5  -7  -1   69.88    2.12
  -5   7   1   68.32    1.98
   4  -7  -1  103.57    3.10
   4  -7  -1   97.23    2.71
   4  -7  -1   96.29    2.48
   4  -7  -1  102.00    2.82
   4  -7  -1   96.86    2.82
  -4   7   1  100.38    2.64
   3  -7  -1    7.26    0.33
   3  -7  -1    7.62    0.72
   3  -7  -1    8.44    0.77
   3  -7  -1    7.42    0.62
  -3   7   1    7.09    0.53
  -3   7   1    9.09    0.60
   2  -7  -1   22.82    0.97
   2  -7  -1   26.21    1.18
   2  -7  -1   24.18    1.15
  -2   7   1   23.25    0.67
  -2   7   1   24.25    0.89
  -2   7   1   24.97    0.86
   1  -7  -1    7.08    0.73
   1  -7  -1    8.15    0.60
   1  -7  -1    7.65    0.61
  -1   7   1    7.14    0.50
  -1   7   1    8.07    0.58
   0  -7  -1  161.78    4.11
   0  -7  -1  163.81    4.21
   0   7   1  165.15    4.03
   0   7   1  171.12    4.10
  -1  -7  -1   83.48    2.29
  -1  -7  -1   84.09    2.38
   1   7   1   85.94    2.24
   1   7   1   83.59    2.19
  -2  -7  -1    8.40    0.73
  -2  -7  -1    8.66    0.69
   2   7   1    9.70    0.58
   2   7   1    7.69    0.54
  -3  -7  -1    4.44    0.64
  -3  -7  -1    5.09    0.72
   3   7   1    4.20    0.49
  -4  -7  -1    1.62    0.67
  -4  -7  -1    0.38    0.71
   4   7   1    1.51    0.50
  -5  -7  -1    3.43    0.88
   5   7   1    2.51    0.61
   6   7   1   22.61    1.22
  -9   8   1    8.37    0.99
  -8   8   1   22.21    1.19
   7  -8  -1   24.86    1.47
  -7   8   1   22.57    1.18
   6  -8  -1    1.10    0.75
   6  -8  -1    0.73    0.70
   6  -8  -1   -0.34    0.76
  -6   8   1    0.13    0.50
   5  -8  -1    1.99    0.70
   5  -8  -1    2.83    0.66
   5  -8  -1    2.55    0.75
  -5   8   1    3.12    0.53
   4  -8  -1   36.37    1.48
   4  -8  -1   33.68    1.52
   4  -8  -1   34.63    1.44
   4  -8  -1   34.76    1.32
  -4   8   1   31.97    1.18
   3  -8  -1  145.79    3.99
   3  -8  -1  150.15    4.34
   3  -8  -1  151.86    3.87
  -3   8   1  146.14    3.80
  -3   8   1  155.95    3.80
   2  -8  -1   26.36    1.30
   2  -8  -1   25.48    1.13
   2  -8  -1   26.90    1.40
  -2   8   1   27.36    1.00
  -2   8   1   25.54    1.00
  -2   8   1   25.88    0.77
   1  -8  -1    4.77    0.79
   1  -8  -1    5.10    0.67
   1  -8  -1    4.80    0.65
  -1   8   1    5.44    0.49
  -1   8   1    5.08    0.46
   0  -8  -1   -0.16    0.66
   0  -8  -1    1.05    0.53
   0   8   1    1.17    0.38
   0   8   1    0.87    0.34
  -1  -8  -1   12.65    0.85
  -1  -8  -1   13.81    0.90
   1   8   1   15.24    0.69
   1   8   1   14.29    0.76
  -2  -8  -1    9.85    0.81
  -2  -8  -1    8.57    0.74
   2   8   1   10.01    0.68
  -3  -8  -1   14.56    1.01
  -3  -8  -1   16.24    1.09
   3   8   1   13.99    0.81
  -4  -8  -1    4.69    0.88
  -4  -8  -1    4.35    0.82
   4   8   1    3.96    0.61
  -5  -8  -1    6.38    1.06
   5   8   1    6.36    0.75
   6   8   1   11.99    1.00
  -8   9   1   20.44    1.17
   7  -9  -1    0.66    0.87
   7  -9  -1    1.49    0.91
  -7   9   1   -0.07    0.54
   6  -9  -1    5.62    0.94
   6  -9  -1    5.29    0.91
   6  -9  -1    6.07    0.90
  -6   9   1    6.32    0.70
   5  -9  -1    9.82    1.01
   5  -9  -1    6.67    0.83
   5  -9  -1    6.62    0.92
  -5   9   1    6.88    0.66
   4  -9  -1   52.49    2.07
   4  -9  -1   53.46    1.78
   4  -9  -1   52.07    1.89
  -4   9   1   52.00    1.64
   3  -9  -1   41.30    1.65
   3  -9  -1   41.72    1.78
   3  -9  -1   40.59    1.47
  -3   9   1   39.78    1.36
   2  -9  -1   31.43    1.30
   2  -9  -1   29.51    1.41
   2  -9  -1   33.32    1.52
  -2   9   1   31.63    1.15
  -2   9   1   32.11    0.91
   1  -9  -1    5.28    0.76
   1  -9  -1    5.03    0.67
   1  -9  -1    4.67    0.82
  -1   9   1    4.07    0.50
   0  -9  -1    0.50    0.57
   0  -9  -1    0.62    0.69
   0   9   1    0.87    0.37
  -1  -9  -1    0.67    0.57
  -1  -9  -1    1.25    0.66
   1   9   1    1.09    0.40
  -2  -9  -1   58.26    1.91
  -2  -9  -1   58.77    1.97
   2   9   1   57.99    1.73
  -3  -9  -1   36.51    1.63
  -3  -9  -1   37.77    1.54
   3   9   1   40.70    1.41
  -4  -9  -1    2.40    0.90
   4   9   1    2.12    0.59
  -5  -9  -1   -0.32    0.94
   5   9   1    0.72    0.64
   8 -10  -1    1.98    1.06
  -8  10   1    2.60    0.77
   7 -10  -1   25.09    1.74
   7 -10  -1   27.15    1.61
  -7  10   1   23.47    1.26
   6 -10  -1   30.07    1.60
   6 -10  -1   32.35    1.77
  -6  10   1   31.06    1.33
   5 -10  -1   11.80    1.14
   5 -10  -1   12.21    1.11
   5 -10  -1   10.09    0.99
  -5  10   1   10.44    0.82
   4 -10  -1    2.53    0.81
   4 -10  -1    3.86    0.87
   4 -10  -1    3.24    0.77
  -4  10   1    2.53    0.58
   3 -10  -1    5.15    0.83
   3 -10  -1    4.17    0.76
   3 -10  -1    4.71    0.86
  -3  10   1    4.10    0.59
   2 -10  -1    4.12    0.90
   2 -10  -1    4.60    0.79
   2 -10  -1    5.52    0.84
  -2  10   1    6.09    0.62
   1 -10  -1   26.12    1.39
   1 -10  -1   26.54    1.29
  -1  10   1   27.25    1.09
   0 -10  -1    8.70    0.94
   0 -10  -1    8.49    0.83
   0  10   1    7.64    0.62
  -1 -10  -1    8.08    0.81
  -1 -10  -1    9.63    0.92
   1  10   1    8.88    0.66
  -2 -10  -1   11.50    0.95
  -2 -10  -1   11.41    1.01
   2  10   1   10.89    0.76
  -3 -10  -1    1.83    0.86
  -3 -10  -1    2.61    0.85
   3  10   1    2.12    0.59
  -4 -10  -1    1.89    0.96
   4  10   1    0.26    0.64
   7 -11  -1    2.49    1.02
   7 -11  -1    5.24    1.06
  -7  11   1    4.33    0.81
   6 -11  -1   13.67    1.30
   6 -11  -1   13.37    1.21
  -6  11   1   12.45    0.96
   5 -11  -1    1.84    0.93
   5 -11  -1    3.73    0.91
   5 -11  -1    2.84    0.97
   5 -11  -1    2.39    0.91
  -5  11   1    1.78    0.65
   4 -11  -1    0.90    0.78
   4 -11  -1    0.90    0.84
   4 -11  -1    0.51    0.85
  -4  11   1    0.65    0.58
   3 -11  -1    1.03    0.79
   3 -11  -1   -0.11    0.81
   3 -11  -1   -0.49    0.79
  -3  11   1    0.33    0.53
   2 -11  -1   17.31    1.27
   2 -11  -1   20.90    1.55
   2 -11  -1   18.81    1.22
  -2  11   1   16.88    0.99
   1 -11  -1   45.52    1.82
   1 -11  -1   41.41    1.72
  -1  11   1   44.60    1.55
   0 -11  -1   27.65    1.40
   0 -11  -1   29.58    1.47
   0  11   1   27.19    1.15
  -1 -11  -1    3.23    0.78
  -1 -11  -1    4.01    0.88
   1  11   1    3.86    0.59
  -2 -11  -1    2.65    0.85
  -2 -11  -1    5.11    0.94
   2  11   1    4.82    0.67
  -3 -11  -1    1.01    0.92
   3  11   1    0.61    0.62
   6 -12  -1    0.88    0.98
   6 -12  -1    0.27    1.00
  -6  12   1    0.55    0.68
   5 -12  -1    5.30    1.03
   5 -12  -1    5.15    1.08
  -5  12   1    5.90    0.81
   4 -12  -1    6.27    1.00
   4 -12  -1    6.18    1.08
   4 -12  -1    5.96    1.08
  -4  12   1    6.55    0.79
   3 -12  -1   12.06    1.10
   3 -12  -1   10.79    1.14
   3 -12  -1   12.20    1.27
  -3  12   1    9.90    0.85
   2 -12  -1    4.91    1.02
   2 -12  -1    4.75    1.00
  -2  12   1    4.49    0.72
   1 -12  -1    3.11    0.89
   1 -12  -1    1.13    0.95
  -1  12   1    2.76    0.61
  -1  12   1    1.67    0.60
   0 -12  -1    2.32    0.92
   0 -12  -1    1.57    0.81
   0  12   1    3.38    0.64
  -1 -12  -1    4.49    0.97
  -1 -12  -1    2.50    0.98
   1  12   1    4.33    0.68
  -2 -12  -1    5.10    1.04
   2  12   1    4.15    0.72
   5 -13  -1    8.82    1.27
   5 -13  -1    8.89    1.21
  -5  13   1    8.38    0.93
   4 -13  -1   21.59    1.57
   4 -13  -1   22.05    1.67
  -4  13   1   20.15    1.25
   3 -13  -1    7.90    1.23
   3 -13  -1    6.80    1.18
   3 -13  -1    5.45    1.17
  -3  13   1    6.65    0.82
   2 -13  -1    1.25    1.04
   2 -13  -1    1.55    1.03
  -2  13   1    1.67    0.67
   1 -13  -1    2.10    0.94
   1 -13  -1    0.33    0.97
  -1  13   1   -0.59    0.62
  -1  13   1    1.41    0.65
   0 -13  -1    6.09    1.13
   0 -13  -1    6.35    1.03
   0  13   1    7.35    0.82
  -1  14  -2    6.39    0.93
   1 -14   2    5.70    1.26
  -2  14  -2    8.64    0.99
   2 -14   2    7.79    1.33
  -3  14  -2    3.88    0.85
   3 -14   2    5.62    1.30
   2  13  -2    0.34    0.71
  -2 -13   2   -0.20    1.08
   1  13  -2    1.12    0.69
  -1 -13   2    2.09    1.11
   0  13  -2    0.61    0.68
   0  13  -2    0.63    0.67
   0 -13   2    0.77    1.07
  -1  13  -2    9.30    0.90
   1 -13   2   11.05    1.36
  -2  13  -2   14.94    1.09
   2 -13   2   15.60    1.46
  -3  13  -2   18.72    1.23
   3 -13   2   21.36    1.58
   3 -13   2   21.01    1.57
  -4  13  -2    4.35    0.86
   4 -13   2    3.87    0.95
   4 -13   2    5.53    1.22
  -5  13  -2    2.64    0.83
   5 -13   2    1.34    0.88
   3  12  -2    2.74    0.74
  -3 -12   2    2.43    1.17
   2  12  -2   14.04    1.04
  -2 -12   2   17.15    1.44
   1  12  -2   15.97    1.07
  -1 -12   2   14.18    1.36
   0  12  -2    9.53    0.86
   0 -12   2    9.82    1.21
   0 -12   2    8.79    1.10
  -1  12  -2    7.01    0.68
  -1  12  -2    7.26    0.80
   1 -12   2    7.52    1.08
   1 -12   2    7.10    1.17
  -2  12  -2   16.29    1.08
   2 -12   2   17.17    1.39
   2 -12   2   16.32    1.38
  -3  12  -2    0.26    0.64
   3 -12   2    0.56    1.03
   3 -12   2    0.49    0.75
  -4  12  -2   11.33    1.00
   4 -12   2   13.39    1.12
   4 -12   2   12.57    1.31
  -5  12  -2    2.14    0.77
   5 -12   2    1.90    0.82
  -6  12  -2    4.01    0.88
   6 -12   2    3.83    0.90
   4  11  -2    3.96    0.77
   3  11  -2    0.78    0.63
  -3 -11   2    2.73    1.01
   2  11  -2   13.17    0.92
  -2 -11   2   16.02    1.28
   1  11  -2   35.13    1.41
  -1 -11   2   38.24    1.86
  -1 -11   2   35.07    1.76
   0  11  -2    2.99    0.64
   0 -11   2    2.36    0.91
   0 -11   2    2.35    0.95
  -1  11  -2   11.84    0.88
  -1  11  -2   11.04    0.86
  -1  11  -2   12.27    0.76
   1 -11   2   12.02    1.14
   1 -11   2   12.68    1.18
  -2  11  -2    0.75    0.46
  -2  11  -2    0.12    0.56
   2 -11   2    0.35    0.68
   2 -11   2    0.90    0.93
   2 -11   2   -1.09    0.93
  -3  11  -2   39.15    1.54
  -3  11  -2   39.79    1.27
   3 -11   2   40.84    1.75
   3 -11   2   36.43    1.97
   3 -11   2   43.77    1.86
  -4  11  -2   40.10    1.64
   4 -11   2   42.11    1.75
   4 -11   2   42.97    1.90
  -5  11  -2   17.45    1.18
   5 -11   2   19.15    1.41
   5 -11   2   17.67    1.36
  -6  11  -2    4.01    0.83
   6 -11   2    3.61    0.91
  -7  11  -2    0.54    0.81
   7 -11   2    0.14    0.85
   5  10  -2   19.84    1.21
   4  10  -2   19.52    1.12
  -4 -10   2   18.05    1.37
   3  10  -2    4.78    0.67
  -3 -10   2    3.91    0.96
   2  10  -2   29.04    1.24
  -2 -10   2   32.09    1.61
  -2 -10   2   31.66    1.61
   1  10  -2    0.73    0.50
  -1 -10   2    0.66    0.74
  -1 -10   2    0.95    0.83
   0  10  -2   34.82    1.35
   0 -10   2   35.47    1.61
   0 -10   2   38.41    1.76
  -1  10  -2   34.58    1.34
  -1  10  -2   34.53    1.34
  -1  10  -2   34.75    1.16
   1 -10   2   33.02    1.63
   1 -10   2   34.24    1.64
  -2  10  -2   28.44    1.25
  -2  10  -2   30.77    1.10
   2 -10   2   29.68    1.54
   2 -10   2   34.12    1.48
   2 -10   2   29.70    1.72
  -3  10  -2    2.42    0.45
  -3  10  -2    1.32    0.53
   3 -10   2    2.45    0.61
   3 -10   2    2.50    0.83
   3 -10   2    1.56    0.87
  -4  10  -2   11.60    0.73
  -4  10  -2   13.74    0.95
   4 -10   2   13.38    1.14
   4 -10   2   12.58    0.94
   4 -10   2   12.60    1.20
  -5  10  -2   -0.05    0.56
  -5  10  -2   -0.18    0.42
   5 -10   2    0.31    0.90
   5 -10   2    0.20    0.66
  -6  10  -2    2.31    0.74
   6 -10   2    4.10    0.85
  -7  10  -2    1.98    0.74
   7 -10   2    1.86    0.92
   6   9  -2    2.86    0.76
   5   9  -2   15.86    1.06
   4   9  -2    0.85    0.56
  -4  -9   2    2.38    0.90
   3   9  -2    5.11    0.61
  -3  -9   2    6.93    0.89
  -3  -9   2    6.23    0.93
   2   9  -2    2.08    0.51
  -2  -9   2    2.66    0.73
  -2  -9   2    1.65    0.80
  -2  -9   2    1.81    0.54
   1   9  -2   15.73    0.86
  -1  -9   2   14.07    1.00
  -1  -9   2   16.01    1.11
  -1  -9   2   12.09    0.86
   0   9  -2   72.21    2.13
   0  -9   2   76.37    2.42
   0  -9   2   79.53    2.43
   0  -9   2   67.08    2.05
  -1   9  -2  139.76    3.37
  -1   9  -2  138.55    3.65
  -1   9  -2  138.98    3.64
   1  -9   2  130.26    3.53
   1  -9   2  139.24    3.86
   1  -9   2  141.68    3.97
   1  -9   2  142.31    3.88
  -2   9  -2    6.94    0.68
  -2   9  -2    7.81    0.56
   2  -9   2    8.15    0.97
   2  -9   2    8.10    0.64
   2  -9   2    7.26    0.92
   2  -9   2    7.18    0.71
  -3   9  -2    2.19    0.57
  -3   9  -2    2.12    0.42
   3  -9   2    2.27    0.51
   3  -9   2    2.91    0.79
   3  -9   2    1.59    0.83
   3  -9   2    1.68    0.56
  -4   9  -2    6.08    0.71
  -4   9  -2    7.82    0.53
   4  -9   2    6.97    0.69
   4  -9   2    7.22    0.92
   4  -9   2    6.42    0.72
   4  -9   2    8.19    0.94
   4  -9   2    6.35    0.96
  -5   9  -2   18.73    0.84
  -5   9  -2   16.47    0.99
   5  -9   2   17.73    1.20
   5  -9   2   17.16    1.24
   5  -9   2   16.98    1.04
  -6   9  -2   29.71    1.38
  -6   9  -2   30.04    1.11
   6  -9   2   28.96    1.39
  -7   9  -2   21.09    1.30
  -8   9  -2    6.96    1.00
   7   8  -2    2.81    0.76
   6   8  -2   13.18    1.01
   5   8  -2    0.45    0.53
  -5  -8   2   -0.12    0.88
   4   8  -2    5.40    0.61
  -4  -8   2    5.72    0.90
  -4  -8   2    7.01    0.88
  -4  -8   2    4.99    0.68
   3   8  -2   59.45    1.88
  -3  -8   2   65.70    2.11
  -3  -8   2   65.05    2.13
  -3  -8   2   61.63    1.94
   2   8  -2  105.28    2.83
  -2  -8   2  104.07    2.99
  -2  -8   2  108.21    3.06
  -2  -8   2  103.10    2.89
   1   8  -2    7.39    0.58
  -1  -8   2    7.49    0.65
  -1  -8   2    7.78    0.91
  -1  -8   2    8.46    0.84
   0   8  -2   38.89    1.29
   0  -8   2   35.09    1.29
   0  -8   2   37.00    1.59
   0  -8   2   40.93    1.55
  -1   8  -2    0.05    0.41
  -1   8  -2    0.08    0.41
  -1   8  -2    0.33    0.35
   1  -8   2   -0.20    0.69
   1  -8   2    0.93    0.73
   1  -8   2    0.17    0.46
   1  -8   2    0.17    0.43
  -2   8  -2   53.35    1.46
  -2   8  -2   50.93    1.63
   2  -8   2   52.34    1.83
   2  -8   2   53.16    1.61
   2  -8   2   50.89    1.95
   2  -8   2   52.62    1.75
  -3   8  -2    0.87    0.49
  -3   8  -2    0.28    0.36
   3  -8   2   -1.01    0.76
   3  -8   2    0.15    0.73
   3  -8   2    0.60    0.45
   3  -8   2    0.49    0.48
  -4   8  -2    4.78    0.62
  -4   8  -2    5.29    0.47
   4  -8   2    4.09    0.82
   4  -8   2    5.18    0.85
   4  -8   2    4.93    0.61
   4  -8   2    5.29    0.85
   4  -8   2    3.80    0.63
  -5   8  -2   11.43    0.84
  -5   8  -2   11.77    0.70
   5  -8   2   10.87    0.84
   5  -8   2   11.18    0.98
  -6   8  -2   33.60    1.20
  -6   8  -2   33.73    1.39
   6  -8   2   36.84    1.49
  -7   8  -2   15.70    1.15
   7  -8   2   17.41    1.24
  -8   8  -2    0.13    0.76
   8  -8   2    1.28    0.86
   7   7  -2    0.45    0.68
   6   7  -2    3.24    0.68
   5   7  -2    0.42    0.52
  -5  -7   2   -0.14    0.58
  -5  -7   2    1.10    0.73
   4   7  -2   11.41    0.81
  -4  -7   2   11.00    0.92
  -4  -7   2   10.14    0.90
  -4  -7   2   11.57    0.82
   3   7  -2  130.64    3.49
  -3  -7   2  136.77    3.67
  -3  -7   2  134.93    3.55
  -3  -7   2  137.53    3.69
   2   7  -2   20.88    0.89
  -2  -7   2   20.77    1.19
  -2  -7   2   20.22    1.15
  -2  -7   2   21.07    0.96
   1   7  -2    5.32    0.48
  -1  -7   2    6.06    0.69
  -1  -7   2    4.38    0.76
  -1  -7   2    5.53    0.59
   0   7  -2   28.37    1.08
   0   7  -2   26.55    0.99
   0  -7   2   26.73    1.22
   0  -7   2   26.25    1.30
   0  -7   2   26.08    1.06
  -1   7  -2   10.14    0.68
  -1   7  -2    9.98    0.62
  -1   7  -2    8.65    0.61
   1  -7   2   10.86    0.67
   1  -7   2   10.21    0.86
   1  -7   2    9.54    0.74
   1  -7   2    9.74    0.82
  -2   7  -2   82.99    2.38
  -2   7  -2   87.48    2.17
   2  -7   2   87.62    2.64
   2  -7   2   87.59    2.51
   2  -7   2   87.00    2.35
   2  -7   2   87.56    2.52
  -3   7  -2  200.13    4.63
  -3   7  -2  202.05    5.04
   3  -7   2  199.74    5.01
   3  -7   2  200.27    5.39
   3  -7   2  203.50    5.16
   3  -7   2  199.20    5.22
  -4   7  -2   88.66    2.22
  -4   7  -2   85.43    2.46
   4  -7   2   88.96    2.67
   4  -7   2   91.36    2.73
   4  -7   2   87.12    2.48
  -5   7  -2   10.21    0.65
  -5   7  -2   10.87    0.80
   5  -7   2   11.02    1.01
   5  -7   2   11.58    0.98
   5  -7   2   11.44    0.82
  -6   7  -2    6.02    0.57
  -6   7  -2    5.58    0.69
   6  -7   2    6.28    0.77
  -7   7  -2   28.87    1.32
   7  -7   2   27.38    1.43
  -8   7  -2   28.86    1.49
   8  -7   2   28.24    1.54
   8   6  -2   -0.14    0.74
   7   6  -2   17.69    1.16
   6   6  -2   70.56    2.20
  -6  -6   2   69.76    2.22
   5   6  -2    9.55    0.74
  -5  -6   2    9.06    0.93
  -5  -6   2   10.52    0.79
   4   6  -2   40.04    1.36
  -4  -6   2   41.93    1.42
  -4  -6   2   40.73    1.61
  -4  -6   2   41.56    1.55
   3   6  -2   -0.43    0.36
  -3  -6   2    0.38    0.42
  -3  -6   2    0.97    0.59
  -3  -6   2   -0.19    0.59
   2   6  -2   45.08    1.35
  -2  -6   2   47.99    1.55
  -2  -6   2   44.39    1.43
  -2  -6   2   44.53    1.56
   1   6  -2   64.04    1.80
   1   6  -2   60.20    1.72
  -1  -6   2   64.23    1.95
  -1  -6   2   61.47    1.81
  -1  -6   2   61.57    1.85
   0   6  -2   65.39    1.81
   0   6  -2   70.91    1.89
   0  -6   2   62.21    1.86
   0  -6   2   63.40    1.94
   0  -6   2   66.05    2.01
  -1   6  -2    7.26    0.49
  -1   6  -2    6.58    0.52
  -1   6  -2    8.56    0.56
  -1   6  -2    8.05    0.54
   1  -6   2    8.39    0.58
   1  -6   2    7.66    0.54
   1  -6   2    6.81    0.69
   1  -6   2    9.16    0.70
  -2   6  -2   87.01    2.08
  -2   6  -2   84.50    2.28
   2  -6   2   84.34    2.38
   2  -6   2   81.84    2.43
   2  -6   2   84.15    2.28
   2  -6   2   84.08    2.38
  -3   6  -2  178.77    4.06
  -3   6  -2  171.89    4.39
   3  -6   2  174.82    4.49
   3  -6   2  173.27    4.58
   3  -6   2  172.77    4.39
   3  -6   2  176.60    4.58
   3  -6   2  176.68    4.08
  -4   6  -2    4.83    0.43
  -4   6  -2    4.28    0.54
   4  -6   2    4.44    0.57
   4  -6   2    3.68    0.72
   4  -6   2    5.97    0.79
  -5   6  -2    4.16    0.46
  -5   6  -2    4.69    0.61
   5  -6   2    3.32    0.81
   5  -6   2    4.63    0.78
   5  -6   2    4.56    0.65
  -6   6  -2    7.61    0.75
  -6   6  -2    5.88    0.58
   6  -6   2    6.28    0.75
  -7   6  -2   15.06    1.07
   7  -6   2   15.38    1.06
  -8   6  -2    8.12    0.94
   8  -6   2    8.30    0.94
  -9   6  -2    7.97    1.04
   9  -6   2    8.82    1.11
   8   5  -2    0.72    0.73
   7   5  -2   31.00    1.41
  -7  -5   2   31.19    1.44
   6   5  -2   10.36    0.78
  -6  -5   2    9.76    0.82
  -6  -5   2    8.44    0.94
   5   5  -2    4.37    0.57
  -5  -5   2    4.96    0.61
  -5  -5   2    3.18    0.69
  -5  -5   2    3.54    0.72
   4   5  -2    0.70    0.40
  -4  -5   2    0.14    0.42
  -4  -5   2    0.78    0.63
  -4  -5   2   -0.25    0.60
   3   5  -2    8.49    0.54
  -3  -5   2    7.82    0.68
  -3  -5   2    7.87    0.56
  -3  -5   2    7.28    0.66
   2   5  -2    2.13    0.33
  -2  -5   2    1.97    0.47
  -2  -5   2    1.70    0.46
  -2  -5   2    1.94    0.38
   1   5  -2  237.68    5.79
   1   5  -2  237.27    5.85
   1   5  -2  249.41    5.85
  -1  -5   2  238.07    5.87
  -1  -5   2  241.97    5.90
  -1  -5   2  238.75    5.96
   0   5  -2  187.48    4.90
   0   5  -2  188.40    4.60
   0   5  -2  199.19    4.66
   0   5  -2  187.09    4.65
   0  -5   2  176.97    4.65
   0  -5   2  192.94    4.77
   0  -5   2  187.11    4.70
  -1   5  -2   93.30    2.58
  -1   5  -2   98.65    2.51
  -1   5  -2   98.45    2.31
  -1   5  -2   94.42    2.48
   1  -5   2   96.24    2.58
   1  -5   2   92.71    2.57
   1  -5   2   94.84    2.50
   1  -5   2   92.75    2.63
  -2   5  -2   94.36    2.60
  -2   5  -2   94.22    2.47
  -2   5  -2   95.03    2.46
  -2   5  -2   93.33    2.27
   2  -5   2   90.13    2.58
   2  -5   2   96.93    2.48
   2  -5   2   90.02    2.54
   2  -5   2   96.01    2.28
  -3   5  -2   51.33    1.36
  -3   5  -2   50.86    1.69
  -3   5  -2   50.52    1.52
   3  -5   2   49.46    1.66
   3  -5   2   51.85    1.70
   3  -5   2   51.06    1.61
   3  -5   2   52.29    1.54
   3  -5   2   52.11    1.38
  -4   5  -2  202.56    5.22
  -4   5  -2  202.28    4.72
  -4   5  -2  202.74    5.07
   4  -5   2  206.33    5.11
   4  -5   2  204.66    5.22
   4  -5   2  205.51    5.21
  -5   5  -2  136.00    3.70
  -5   5  -2  128.13    3.51
  -5   5  -2  133.92    3.27
   5  -5   2  137.21    3.73
   5  -5   2  138.33    3.59
   5  -5   2  134.61    3.67
  -6   5  -2   24.41    1.15
   6  -5   2   25.52    1.22
  -7   5  -2    1.12    0.63
   7  -5   2    0.72    0.66
  -8   5  -2    6.29    0.82
   8  -5   2    7.50    0.94
  -9   5  -2    0.02    0.80
   9  -5   2   -0.52    0.81
   8   4  -2   15.03    1.09
  -8  -4   2   13.94    1.09
   7   4  -2    1.87    0.60
  -7  -4   2    1.55    0.61
   6   4  -2    0.45    0.47
  -6  -4   2    0.89    0.73
  -6  -4   2    0.86    0.53
   5   4  -2   48.86    1.57
  -5  -4   2   51.15    1.64
  -5  -4   2   52.04    1.84
  -5  -4   2   49.97    1.76
   4   4  -2  217.30    5.46
   4   4  -2  217.53    5.38
  -4  -4   2  216.44    5.50
  -4  -4   2  223.74    5.51
  -4  -4   2  215.75    5.38
   3   4  -2    1.58    0.31
   3   4  -2    2.01    0.45
  -3  -4   2    1.59    0.44
  -3  -4   2    1.75    0.47
  -3  -4   2    1.77    0.33
   2   4  -2   54.19    1.58
   2   4  -2   54.26    1.50
   2   4  -2   55.13    1.50
  -2  -4   2   54.71    1.53
  -2  -4   2   53.57    1.61
  -2  -4   2   55.04    1.58
   1   4  -2  174.83    4.49
   1   4  -2  179.73    4.43
   1   4  -2  175.62    4.37
   1   4  -2  186.23    4.42
  -1  -4   2  180.28    4.46
  -1  -4   2  182.33    4.43
  -1  -4   2  181.50    4.36
  -1  -4   2  183.07    4.50
   0   4  -2   54.69    1.49
   0   4  -2   56.67    1.52
   0   4  -2   52.12    1.56
   0   4  -2   52.21    1.59
   0   4  -2   51.75    1.47
   0  -4   2   52.44    1.54
   0  -4   2   56.38    1.46
   0  -4   2   54.04    1.59
   0  -4   2   54.24    1.64
  -1   4  -2   64.01    1.70
  -1   4  -2   61.74    1.58
  -1   4  -2   61.74    1.82
  -1   4  -2   63.99    1.78
  -1   4  -2   67.23    1.72
   1  -4   2   64.01    1.73
   1  -4   2   63.65    1.71
   1  -4   2   63.35    1.85
   1  -4   2   60.56    1.79
   1  -4   2   61.83    1.73
  -2   4  -2  161.34    3.93
  -2   4  -2  154.80    3.90
  -2   4  -2  153.89    4.00
  -2   4  -2  158.94    3.98
  -2   4  -2  160.46    3.65
   2  -4   2  155.73    4.01
   2  -4   2  159.57    3.94
   2  -4   2  161.26    3.65
   2  -4   2  160.02    4.00
  -3   4  -2   14.48    0.86
  -3   4  -2   11.66    0.75
  -3   4  -2   13.54    0.64
  -3   4  -2   12.71    0.58
   3  -4   2   13.59    0.79
   3  -4   2   13.42    0.60
   3  -4   2   15.08    0.72
   3  -4   2   14.32    0.81
  -4   4  -2   12.66    0.68
  -4   4  -2   13.60    0.86
  -4   4  -2   11.56    0.58
  -4   4  -2   12.81    0.83
   4  -4   2   14.10    0.98
   4  -4   2   12.20    0.71
   4  -4   2   13.45    0.85
  -5   4  -2   87.08    2.61
  -5   4  -2   82.69    2.18
  -5   4  -2   80.60    2.34
   5  -4   2   89.89    2.57
   5  -4   2   81.75    2.38
   5  -4   2   85.84    2.56
  -6   4  -2    6.53    0.68
   6  -4   2    6.10    0.70
  -7   4  -2    3.07    0.66
   7  -4   2    1.55    0.62
  -8   4  -2    3.03    0.76
   8  -4   2    1.96    0.73
  -9   4  -2    9.56    1.06
   9  -4   2    7.44    1.04
   9   3  -2    2.67    0.79
  -9  -3   2    3.10    0.87
   8   3  -2    3.16    0.76
  -8  -3   2    2.66    0.76
   7   3  -2    1.91    0.62
  -7  -3   2    1.78    0.62
   6   3  -2    3.39    0.54
  -6  -3   2    3.18    0.72
  -6  -3   2    4.17    0.60
   5   3  -2   66.84    2.07
   5   3  -2   66.07    1.93
  -5  -3   2   64.97    2.05
  -5  -3   2   67.18    2.10
  -5  -3   2   64.78    1.91
   4   3  -2  143.94    3.68
   4   3  -2  136.51    3.58
  -4  -3   2  146.02    3.71
  -4  -3   2  141.61    3.59
  -4  -3   2  143.01    3.69
   3   3  -2   76.37    2.04
   3   3  -2   78.67    2.13
   3   3  -2   77.35    2.11
  -3  -3   2   77.98    2.13
  -3  -3   2   77.14    2.05
  -3  -3   2   77.88    2.11
   2   3  -2  105.25    2.68
   2   3  -2  102.65    2.61
   2   3  -2  107.60    2.62
   2   3  -2  105.95    2.69
  -2  -3   2  109.34    2.62
  -2  -3   2  104.51    2.64
  -2  -3   2   98.44    2.69
  -2  -3   2  104.04    2.68
   1   3  -2   36.30    1.04
   1   3  -2   33.76    0.99
   1   3  -2   35.81    1.10
   1   3  -2   33.47    1.12
  -1  -3   2   33.58    1.02
  -1  -3   2   35.59    0.98
  -1  -3   2   35.17    1.11
  -1  -3   2   35.76    1.14
   0   3  -2  221.53    5.30
   0   3  -2  219.59    5.41
   0   3  -2  225.32    5.34
   0   3  -2  226.20    5.61
   0   3  -2  221.16    5.40
   0  -3   2  223.98    5.29
   0  -3   2  216.77    5.35
   0  -3   2  215.26    5.42
   0  -3   2  221.46    5.40
  -1   3  -2  905.40   22.33
  -1   3  -2 1000.00   22.48
  -1   3  -2  914.94   22.30
  -1   3  -2  968.52   21.19
  -1   3  -2  943.20   22.32
   1  -3   2  959.17   21.06
   1  -3   2  925.86   22.46
   1  -3   2  955.72   22.69
   1  -3   2  933.85   22.34
   1  -3   2  960.12   22.28
   1  -3   2  943.07   22.16
  -2   3  -2  473.37   10.74
  -2   3  -2  443.26   10.84
  -2   3  -2  463.32   10.09
  -2   3  -2  449.44   10.71
   2  -3   2  454.96   10.86
   2  -3   2  450.33   10.85
   2  -3   2  453.49   10.86
   2  -3   2  439.93   10.73
   2  -3   2  450.70   10.69
   2  -3   2  461.34   10.09
  -3   3  -2    6.36    0.42
  -3   3  -2    6.25    0.46
  -3   3  -2    6.59    0.54
   3  -3   2    6.62    0.54
   3  -3   2    7.60    0.42
   3  -3   2    7.15    0.57
   3  -3   2    6.83    0.47
  -4   3  -2   32.79    1.25
  -4   3  -2   29.20    0.96
  -4   3  -2   28.49    1.00
   4  -3   2   25.32    1.04
   4  -3   2   30.68    1.22
   4  -3   2   29.97    1.06
  -5   3  -2    1.47    0.67
  -5   3  -2    1.67    0.43
  -5   3  -2    1.87    0.41
   5  -3   2    2.06    0.48
   5  -3   2    1.90    0.64
  -6   3  -2   28.22    1.19
   6  -3   2   29.53    1.21
  -7   3  -2   10.58    0.85
   7  -3   2    8.27    0.84
  -8   3  -2   17.22    1.16
   8  -3   2   15.66    1.14
  -9   3  -2    0.70    0.74
   9  -3   2    2.89    0.89
   9   2  -2    4.10    0.81
  -9  -2   2    2.91    0.83
   8   2  -2   58.27    1.95
  -8  -2   2   53.83    1.90
   7   2  -2    8.25    0.74
  -7  -2   2    8.31    0.76
   6   2  -2   18.69    0.92
  -6  -2   2   16.80    1.12
  -6  -2   2   19.94    1.19
  -6  -2   2   19.00    0.96
   5   2  -2   19.93    0.88
   5   2  -2   20.62    1.15
  -5  -2   2   20.87    0.92
  -5  -2   2   21.66    1.14
  -5  -2   2   19.50    1.07
   4   2  -2    3.56    0.49
   4   2  -2    3.48    0.51
   4   2  -2    2.18    0.35
  -4  -2   2    2.83    0.50
  -4  -2   2    3.11    0.40
  -4  -2   2    3.05    0.51
   3   2  -2   14.26    0.70
   3   2  -2   12.34    0.58
  -3  -2   2   13.37    0.59
  -3  -2   2   12.20    0.67
  -3  -2   2   13.14    0.65
   2   2  -2  484.00   11.08
   2   2  -2  467.18   11.19
   2   2  -2  458.02   11.07
  -2  -2   2  475.58   11.07
  -2  -2   2  477.79   11.21
  -2  -2   2  470.76   11.08
  -2  -2   2  468.24   11.20
   1   2  -2  211.71    5.05
   1   2  -2  210.84    5.12
   1   2  -2  215.97    5.06
  -1  -2   2  206.90    5.12
  -1  -2   2  212.92    5.04
  -1  -2   2  212.63    5.14
  -1  -2   2  214.71    5.06
   0   2  -2   48.78    1.31
   0   2  -2   50.06    1.35
   0   2  -2   49.04    1.42
   0   2  -2   48.68    1.30
   0  -2   2   48.56    1.33
   0  -2   2   49.28    1.46
   0  -2   2   50.92    1.30
  -1   2  -2  276.15    6.61
  -1   2  -2  282.20    6.72
  -1   2  -2  275.89    6.24
  -1   2  -2  284.70    6.64
   1  -2   2  283.36    6.61
   1  -2   2  270.69    6.71
   1  -2   2  282.01    6.24
  -2   2  -2    2.69    0.26
  -2   2  -2    2.51    0.33
  -2   2  -2    2.48    0.28
  -2   2  -2    2.96    0.38
  -2   2  -2    1.79    0.25
  -2   2  -2    1.96    0.30
   2  -2   2    1.88    0.28
   2  -2   2    3.02    0.27
   2  -2   2    2.41    0.35
   2  -2   2    2.04    0.24
  -3   2  -2    7.95    0.55
  -3   2  -2    8.66    0.59
  -3   2  -2    7.54    0.47
  -3   2  -2    7.82    0.49
   3  -2   2    8.72    0.47
   3  -2   2    7.68    0.51
   3  -2   2    7.43    0.56
  -4   2  -2    4.43    0.56
  -4   2  -2    4.47    0.45
  -4   2  -2    3.75    0.55
  -4   2  -2    4.51    0.41
   4  -2   2    3.80    0.56
   4  -2   2    6.14    0.62
   4  -2   2    5.09    0.47
  -5   2  -2    1.45    0.60
  -5   2  -2    0.62    0.42
  -5   2  -2    0.54    0.56
   5  -2   2    0.71    0.42
   5  -2   2    0.33    0.63
  -6   2  -2   27.77    1.38
  -6   2  -2   28.63    1.14
   6  -2   2   29.93    1.25
  -7   2  -2  106.52    2.97
   7  -2   2  102.74    3.01
  -8   2  -2    8.59    0.91
   8  -2   2   10.60    0.97
  -9   2  -2    0.83    0.80
   9  -2   2    1.69    0.84
   9   1  -2    4.26    0.80
  -9  -1   2    5.06    0.84
   8   1  -2    5.08    0.74
  -8  -1   2    4.97    0.73
   7   1  -2   18.07    1.05
  -7  -1   2   19.45    1.06
   6   1  -2    8.43    0.79
   6   1  -2   11.67    0.82
   6   1  -2   12.11    0.88
  -6  -1   2    7.26    0.61
  -6  -1   2   11.37    0.75
  -6  -1   2   13.23    0.95
   5   1  -2    0.16    0.46
   5   1  -2   -0.40    0.34
   5   1  -2    0.07    0.18
  -5  -1   2    0.04    0.25
  -5  -1   2    0.46    0.36
  -5  -1   2    0.11    0.49
   4   1  -2    4.61    0.49
   4   1  -2    4.61    0.40
  -4  -1   2    4.51    0.50
  -4  -1   2    5.55    0.43
   3   1  -2  494.35   11.93
   3   1  -2  506.36   12.06
   3   1  -2  520.79   11.92
   3   1  -2  487.65   12.06
  -3  -1   2  502.46   11.93
  -3  -1   2  516.22   12.08
  -3  -1   2  523.13   11.94
   2   1  -2  958.24   21.85
   2   1  -2  895.45   21.90
   2   1  -2  917.06   21.76
   2   1  -2  931.57   22.06
  -2  -1   2  928.66   22.02
  -2  -1   2  915.35   21.91
   1   1  -2   62.89    1.58
   1   1  -2   64.30    1.67
   1   1  -2   62.11    1.61
   1   1  -2   63.83    1.57
  -1  -1   2   63.83    1.58
  -1  -1   2   64.09    1.66
  -1  -1   2   63.36    1.58
   0   1  -2   69.37    1.79
   0   1  -2   68.88    1.74
   0   1  -2   70.45    1.78
   0   1  -2   69.85    1.63
   0  -1   2   70.93    1.63
   0  -1   2   67.54    1.79
   0  -1   2   69.68    1.75
   0  -1   2   73.07    1.72
   0  -1   2   68.56    1.75
   0  -1   2   65.56    1.78
  -1   1  -2   10.87    0.44
  -1   1  -2    8.59    0.59
  -1   1  -2   10.43    0.62
  -1   1  -2    9.94    0.58
  -1   1  -2    9.24    0.40
  -1   1  -2    9.71    0.39
   1  -1   2   10.15    0.40
   1  -1   2   10.58    0.56
   1  -1   2   10.53    0.67
   1  -1   2   10.36    0.44
   1  -1   2   10.28    0.40
  -2   1  -2   50.25    1.43
  -2   1  -2   48.40    1.27
  -2   1  -2   49.24    1.32
  -2   1  -2   53.05    1.37
  -2   1  -2   51.20    1.43
   2  -1   2   48.04    1.41
   2  -1   2   48.97    1.35
   2  -1   2   48.94    1.40
   2  -1   2   51.47    1.28
   2  -1   2   50.24    1.33
  -3   1  -2  107.87    2.56
  -3   1  -2  106.56    2.68
  -3   1  -2  105.23    2.77
  -3   1  -2  107.16    2.80
   3  -1   2  104.71    2.73
   3  -1   2  107.45    2.75
   3  -1   2  105.64    2.80
  -4   1  -2  348.64    8.36
  -4   1  -2  344.91    8.50
  -4   1  -2  357.53    8.53
   4  -1   2  355.56    8.51
   4  -1   2  339.44    8.39
  -5   1  -2   16.74    0.81
  -5   1  -2   17.50    1.16
  -5   1  -2   15.67    1.06
   5  -1   2   17.17    0.84
   5  -1   2   16.54    1.15
  -6   1  -2    8.92    0.70
  -6   1  -2    8.99    0.91
   6  -1   2    9.44    0.73
  -7   1  -2    0.25    0.59
   7  -1   2    0.63    0.62
  -8   1  -2   18.28    1.18
   8  -1   2   17.04    1.12
  -9   1  -2    1.04    0.84
   9  -1   2    2.11    0.80
   9   0  -2    2.61    0.74
  -9   0   2    0.67    0.74
   8   0  -2    0.70    0.65
  -8   0   2    1.27    0.65
   7   0  -2    0.55    0.51
  -7   0   2    0.77    0.50
   6   0  -2  190.31    4.79
   6   0  -2  181.79    4.69
   6   0  -2  184.39    4.78
  -6   0   2  186.12    4.82
  -6   0   2  189.35    4.83
  -6   0   2  179.80    4.66
   5   0  -2  100.76    2.77
   5   0  -2  103.61    2.69
   5   0  -2  101.86    2.76
  -5   0   2  102.74    2.78
  -5   0   2  102.76    2.82
  -5   0   2  101.32    2.67
   4   0  -2   49.42    1.38
   4   0  -2   48.55    1.44
   4   0  -2   44.93    1.41
  -4   0   2   47.66    1.48
  -4   0   2   46.98    1.43
  -4   0   2   46.29    1.34
   3   0  -2   41.88    1.23
   3   0  -2   42.45    1.25
   3   0  -2   43.75    1.19
   3   0  -2   43.03    1.16
  -3   0   2   42.43    1.27
  -3   0   2   43.93    1.18
  -3   0   2   41.61    1.18
  -3   0   2   43.27    1.26
   2   0  -2    6.81    0.34
   2   0  -2    6.54    0.45
   2   0  -2    6.82    0.33
   2   0  -2    5.64    0.38
  -2   0   2    6.86    0.34
  -2   0   2    6.94    0.31
  -2   0   2    7.40    0.47
  -2   0   2    6.76    0.41
   1   0  -2   13.78    0.41
   1   0  -2   13.54    0.44
   1   0  -2   13.10    0.45
   1   0  -2   13.39    0.55
  -1   0   2   14.51    0.53
  -1   0   2   13.73    0.42
  -1   0   2   13.43    0.45
  -1   0   2   14.15    0.44
   0   0  -2   44.02    1.06
   0   0  -2   42.38    1.06
   0   0  -2   43.41    1.11
   0   0  -2   42.19    1.23
   0   0  -2   42.78    1.13
   0   0  -2   45.13    1.09
   0   0   2   43.82    1.08
   0   0   2   41.97    1.22
   0   0   2   45.04    1.05
   0   0   2   43.98    1.09
   0   0   2   43.70    1.09
   0   0   2   43.35    1.11
  -1   0  -2    9.60    0.35
  -1   0  -2    9.49    0.47
  -1   0  -2   10.42    0.42
  -1   0  -2    9.04    0.55
   1   0   2   10.41    0.62
   1   0   2   10.16    0.42
   1   0   2   10.10    0.37
   1   0   2   10.53    0.49
   1   0   2    9.78    0.40
  -2   0  -2   11.75    0.61
  -2   0  -2   12.71    0.61
  -2   0  -2   12.38    0.49
  -2   0  -2   12.45    0.53
   2   0   2   12.54    0.57
   2   0   2   11.76    0.49
   2   0   2   12.12    0.63
   2   0   2   13.41    0.50
  -3   0  -2  454.09   10.99
  -3   0  -2  452.39   10.99
  -3   0  -2  460.89   10.83
  -3   0  -2  467.02   10.28
   3   0   2  473.23   10.84
   3   0   2  460.42   10.99
   3   0   2  446.10   10.87
  -4   0  -2  151.06    3.74
  -4   0  -2  152.12    3.88
  -4   0  -2  150.68    3.87
   4   0   2  149.42    3.78
   4   0   2  144.87    3.85
  -5   0  -2    0.59    0.57
  -5   0  -2   -0.16    0.39
  -5   0  -2   -0.15    0.65
   5   0   2    0.49    0.44
  -6   0  -2   -1.11    0.64
  -6   0  -2   -0.15    0.44
   6   0   2    0.07    0.47
  -7   0  -2   15.57    0.96
   7   0   2   14.38    1.03
  -8   0  -2    7.88    0.88
   8   0   2    7.01    0.85
  10  -1  -2    1.15    0.84
 -10   1   2    0.31    0.81
   9  -1  -2    2.20    0.78
  -9   1   2    1.11    0.69
   8  -1  -2    4.27    0.70
  -8   1   2    4.02    0.67
   7  -1  -2   31.79    1.26
  -7   1   2   33.74    1.30
   6  -1  -2  180.15    4.65
   6  -1  -2  179.43    4.53
   6  -1  -2  179.90    4.63
  -6   1   2  170.42    4.49
  -6   1   2  182.72    4.66
   5  -1  -2   76.45    2.18
   5  -1  -2   79.52    2.12
   5  -1  -2   77.01    2.22
  -5   1   2   76.61    2.10
  -5   1   2   75.26    2.18
   4  -1  -2   36.92    1.23
   4  -1  -2   36.11    1.22
   4  -1  -2   39.93    1.14
  -4   1   2   38.06    1.12
  -4   1   2   38.04    1.25
  -4   1   2   38.80    1.22
   3  -1  -2   85.45    2.17
   3  -1  -2   84.58    2.24
   3  -1  -2   87.35    2.23
   3  -1  -2   87.56    2.16
  -3   1   2   85.46    2.22
  -3   1   2   90.69    2.18
  -3   1   2   83.56    2.16
  -3   1   2   86.11    2.23
   2  -1  -2    1.10    0.15
   2  -1  -2    1.20    0.26
   2  -1  -2    0.94    0.16
   2  -1  -2    0.99    0.23
  -2   1   2    1.34    0.24
  -2   1   2    1.34    0.16
  -2   1   2    0.95    0.26
  -2   1   2    1.36    0.17
   1  -1  -2  129.69    3.50
   1  -1  -2  133.51    3.16
   1  -1  -2  135.41    2.97
   1  -1  -2  131.98    3.14
  -1   1   2  132.69    3.12
  -1   1   2  135.33    3.13
   0  -1  -2  830.95   18.35
   0  -1  -2  795.43   20.93
   0   1   2  794.83   20.82
   0   1   2  831.34   19.25
   0   1   2  850.35   19.22
   0   1   2  843.21   18.41
  -1  -1  -2  111.70    2.56
  -1  -1  -2  109.71    2.71
  -1  -1  -2  110.26    2.63
  -1  -1  -2  113.68    2.67
  -1  -1  -2  110.77    2.69
   1   1   2  108.76    2.65
   1   1   2  105.24    2.70
   1   1   2  109.52    2.67
   1   1   2  112.93    2.55
   1   1   2  112.31    2.65
  -2  -1  -2  186.91    4.43
  -2  -1  -2  183.85    4.48
  -2  -1  -2  181.49    4.39
  -2  -1  -2  182.60    4.21
  -2  -1  -2  181.55    4.48
   2   1   2  186.20    4.40
   2   1   2  187.56    4.20
   2   1   2  184.99    4.43
   2   1   2  177.61    4.47
  -3  -1  -2   25.91    0.98
  -3  -1  -2   25.35    0.83
  -3  -1  -2   24.31    0.97
   3   1   2   24.41    0.86
   3   1   2   24.52    0.81
  -4  -1  -2   57.01    1.60
  -4  -1  -2   55.58    1.77
  -4  -1  -2   56.44    1.73
   4   1   2   54.50    1.62
  -5  -1  -2   62.66    1.96
  -5  -1  -2   58.84    1.96
  -5  -1  -2   60.97    1.81
   5   1   2   60.21    1.84
  -6  -1  -2   50.31    1.64
  -6  -1  -2   51.64    1.92
   6   1   2   47.11    1.64
  -7  -1  -2   -0.91    0.57
   7   1   2    0.15    0.56
  -8  -1  -2    0.14    0.69
   8   1   2   -0.13    0.64
  10  -2  -2   10.09    1.06
 -10   2   2   10.99    1.08
   9  -2  -2   24.15    1.36
  -9   2   2   24.62    1.33
   8  -2  -2   33.00    1.38
  -8   2   2   34.18    1.42
   7  -2  -2   15.39    0.96
   7  -2  -2   16.21    1.08
  -7   2   2   14.98    0.93
   6  -2  -2    0.49    0.59
   6  -2  -2    0.65    0.47
   6  -2  -2   -0.08    0.59
  -6   2   2   -0.41    0.40
  -6   2   2    0.61    0.66
   5  -2  -2    1.58    0.39
   5  -2  -2    2.01    0.52
   5  -2  -2    2.26    0.48
  -5   2   2    2.46    0.39
  -5   2   2    2.72    0.56
   4  -2  -2  224.75    4.98
   4  -2  -2  214.46    5.41
   4  -2  -2  220.67    5.33
   4  -2  -2  217.96    5.43
  -4   2   2  224.89    5.35
  -4   2   2  223.44    5.42
  -4   2   2  219.84    5.33
   3  -2  -2   75.12    1.90
   3  -2  -2   74.70    1.97
   3  -2  -2   74.81    1.89
   3  -2  -2   75.60    1.97
  -3   2   2   76.66    1.91
  -3   2   2   75.84    1.91
  -3   2   2   75.66    1.96
   2  -2  -2   48.92    1.25
   2  -2  -2   48.03    1.18
   2  -2  -2   47.73    1.25
   2  -2  -2   40.05    1.17
  -2   2   2   50.46    1.20
  -2   2   2   48.79    1.20
  -2   2   2   47.98    1.20
   1  -2  -2  245.11    5.37
   1  -2  -2  236.75    6.31
  -1   2   2  241.44    6.31
  -1   2   2  251.16    5.38
   0  -2  -2  281.79    6.16
   0  -2  -2  272.46    7.19
   0   2   2  266.85    7.18
   0   2   2  288.01    6.16
  -1  -2  -2   78.62    1.91
  -1  -2  -2   79.07    1.96
  -1  -2  -2   76.39    1.96
   1   2   2   76.97    1.93
   1   2   2   79.80    1.92
   1   2   2   81.87    1.89
  -2  -2  -2    7.60    0.53
  -2  -2  -2    8.44    0.41
  -2  -2  -2    8.56    0.57
  -2  -2  -2    8.57    0.46
   2   2   2    7.92    0.43
   2   2   2    8.91    0.46
   2   2   2    8.02    0.41
  -3  -2  -2   58.23    1.70
  -3  -2  -2   58.70    1.71
  -3  -2  -2   57.77    1.58
   3   2   2   57.18    1.62
   3   2   2   61.09    1.60
  -4  -2  -2    5.05    0.66
  -4  -2  -2    5.08    0.48
  -4  -2  -2    4.59    0.60
   4   2   2    5.65    0.50
  -5  -2  -2   72.49    2.27
  -5  -2  -2   75.11    2.09
  -5  -2  -2   72.99    2.30
   5   2   2   72.34    2.13
  -6  -2  -2   44.44    1.80
  -6  -2  -2   45.16    1.55
   6   2   2   40.59    1.50
  -7  -2  -2    0.34    0.62
   7   2   2    0.09    0.56
   8   2   2    1.67    0.77
  10  -3  -2    5.59    0.93
 -10   3   2    5.11    0.94
   9  -3  -2   19.89    1.27
  -9   3   2   19.07    1.15
   8  -3  -2   13.06    0.94
  -8   3   2   12.19    0.91
   7  -3  -2   13.42    0.91
   7  -3  -2   13.52    1.01
  -7   3   2   13.20    0.82
   6  -3  -2   -0.66    0.59
   6  -3  -2    0.04    0.55
   6  -3  -2   -0.78    0.43
  -6   3   2   -0.13    0.39
   5  -3  -2    9.62    0.74
   5  -3  -2   10.38    0.75
   5  -3  -2   10.95    0.64
   5  -3  -2   10.56    0.54
  -5   3   2    8.88    0.57
   4  -3  -2  264.19    6.50
   4  -3  -2  265.14    6.38
   4  -3  -2  272.63    5.96
   4  -3  -2  264.81    6.49
  -4   3   2  268.67    6.40
  -4   3   2  264.78    6.39
   3  -3  -2  186.81    4.49
   3  -3  -2  184.89    4.60
   3  -3  -2  190.69    4.19
   3  -3  -2  184.33    4.58
   3  -3  -2  190.58    4.49
  -3   3   2  188.00    4.52
  -3   3   2  194.64    4.52
   2  -3  -2  383.63    9.08
   2  -3  -2  381.78    9.10
   2  -3  -2  386.39    9.94
  -2   3   2  379.80    9.00
  -2   3   2  393.08    8.99
   1  -3  -2   16.81    0.78
  -1   3   2   17.87    0.46
   0  -3  -2   66.91    2.06
   0   3   2   70.50    1.63
  -1  -3  -2  141.36    3.43
  -1  -3  -2  138.78    3.43
   1   3   2  142.89    3.39
   1   3   2  142.76    3.27
   1   3   2  143.33    3.39
  -2  -3  -2  504.85   11.73
  -2  -3  -2  498.05   11.72
  -2  -3  -2  498.08   11.89
  -2  -3  -2  502.08   11.90
   2   3   2  493.54   11.77
   2   3   2  507.56   11.76
  -3  -3  -2   12.92    0.61
  -3  -3  -2   13.58    0.78
  -3  -3  -2   13.78    0.80
   3   3   2   14.56    0.64
   3   3   2   12.65    0.63
  -4  -3  -2    0.25    0.60
  -4  -3  -2    0.04    0.35
  -4  -3  -2   -0.96    0.54
   4   3   2    0.13    0.38
  -5  -3  -2    7.89    0.85
  -5  -3  -2    9.61    0.66
  -5  -3  -2   10.00    0.85
   5   3   2    7.11    0.64
  -6  -3  -2    0.14    0.51
  -6  -3  -2    0.82    0.76
   6   3   2    0.69    0.54
   7   3   2    1.99    0.68
   8   3   2    4.39    0.85
 -10   4   2    0.01    0.72
   9  -4  -2    0.45    0.72
  -9   4   2   -0.81    0.61
   8  -4  -2   37.49    1.50
  -8   4   2   37.20    1.49
   7  -4  -2   48.16    1.73
   7  -4  -2   47.95    1.60
  -7   4   2   43.82    1.56
   6  -4  -2    2.66    0.68
   6  -4  -2    2.89    0.49
   6  -4  -2    1.78    0.70
  -6   4   2    2.60    0.46
   5  -4  -2   15.49    0.94
   5  -4  -2   17.07    0.88
   5  -4  -2   15.44    0.76
   5  -4  -2   16.14    0.60
  -5   4   2   14.83    0.74
   4  -4  -2   55.00    1.64
   4  -4  -2   56.68    1.34
   4  -4  -2   56.56    1.65
   4  -4  -2   55.82    1.51
  -4   4   2   57.30    1.55
  -4   4   2   55.31    1.54
   3  -4  -2   74.01    1.96
   3  -4  -2   75.64    1.87
   3  -4  -2   73.15    1.99
   3  -4  -2   74.17    2.35
   3  -4  -2   75.09    1.84
  -3   4   2   76.67    1.91
  -3   4   2   76.66    1.91
   2  -4  -2   13.36    0.51
   2  -4  -2   14.22    0.61
   2  -4  -2   14.07    0.86
  -2   4   2   12.92    0.46
  -2   4   2   14.40    0.44
   1  -4  -2  158.17    4.36
  -1   4   2  161.89    3.56
   0  -4  -2    5.43    0.57
   0   4   2    6.73    0.36
   0   4   2    6.54    0.31
   0   4   2    6.55    0.25
  -1  -4  -2  125.41    3.14
  -1  -4  -2  129.23    3.12
   1   4   2  127.76    3.09
   1   4   2  129.56    3.08
   1   4   2  126.58    2.98
  -2  -4  -2  111.90    2.70
  -2  -4  -2  111.27    2.84
  -2  -4  -2  110.99    2.85
   2   4   2  108.75    2.77
   2   4   2  112.42    2.76
  -3  -4  -2    2.98    0.54
  -3  -4  -2    4.70    0.39
  -3  -4  -2    4.31    0.58
   3   4   2    4.10    0.40
   3   4   2    3.91    0.41
  -4  -4  -2    8.26    0.57
  -4  -4  -2    9.10    0.76
  -4  -4  -2    8.57    0.80
   4   4   2    7.67    0.60
  -5  -4  -2    4.21    0.56
  -5  -4  -2    4.43    0.81
  -5  -4  -2    3.80    0.75
   5   4   2    4.48    0.58
  -6  -4  -2    1.76    0.90
   6   4   2    2.38    0.61
   7   4   2   17.38    1.16
   9  -5  -2    1.21    0.73
  -9   5   2    0.71    0.65
   8  -5  -2   12.19    0.92
  -8   5   2   11.21    0.86
   7  -5  -2   33.03    1.41
   7  -5  -2   31.87    1.25
  -7   5   2   30.07    1.25
   6  -5  -2   97.00    2.77
   6  -5  -2   99.29    2.78
   6  -5  -2   95.97    2.60
   6  -5  -2   99.99    2.36
  -6   5   2   92.33    2.61
   5  -5  -2    2.79    0.40
   5  -5  -2    3.46    0.29
   5  -5  -2    3.51    0.64
   5  -5  -2    2.02    0.58
  -5   5   2    3.32    0.44
   4  -5  -2    3.76    0.53
   4  -5  -2    3.84    0.32
   4  -5  -2    3.63    0.50
   4  -5  -2    4.26    0.28
  -4   5   2    4.42    0.38
  -4   5   2    3.42    0.37
   3  -5  -2   15.49    0.66
   3  -5  -2   13.83    0.89
   3  -5  -2   14.86    0.77
  -3   5   2   14.57    0.58
  -3   5   2   14.37    0.58
   2  -5  -2  561.55   13.26
   2  -5  -2  551.59   13.27
   2  -5  -2  551.01   14.43
  -2   5   2  562.45   13.12
  -2   5   2  577.44   13.10
   1  -5  -2  259.07    6.80
   1  -5  -2  250.22    6.01
  -1   5   2  246.43    5.98
  -1   5   2  255.81    5.66
  -1   5   2  264.67    5.99
   0  -5  -2   16.90    0.67
   0  -5  -2   17.91    0.58
   0  -5  -2   17.58    1.03
   0   5   2   18.85    0.54
   0   5   2   18.51    0.60
   0   5   2   18.49    0.62
  -1  -5  -2    0.38    0.35
  -1  -5  -2    0.16    0.32
   1   5   2    0.19    0.20
   1   5   2    0.20    0.27
   1   5   2    0.01    0.20
  -2  -5  -2   10.73    0.74
  -2  -5  -2   11.47    0.76
   2   5   2   11.91    0.59
   2   5   2   11.63    0.57
  -3  -5  -2    2.12    0.54
  -3  -5  -2    2.29    0.58
  -3  -5  -2    1.83    0.30
   3   5   2    2.60    0.41
  -4  -5  -2   36.72    1.48
  -4  -5  -2   38.36    1.43
   4   5   2   34.64    1.25
  -5  -5  -2   18.35    1.22
  -5  -5  -2   17.86    1.26
   5   5   2   18.59    0.98
  -6  -5  -2    4.22    0.97
   6   5   2    2.51    0.64
   7   5   2    7.25    0.88
  -9   6   2    2.92    0.77
  -8   6   2   -0.39    0.57
   7  -6  -2   17.98    1.01
   7  -6  -2   18.24    1.24
  -7   6   2   18.41    1.00
   6  -6  -2    0.42    0.64
   6  -6  -2    0.58    0.42
   6  -6  -2    0.66    0.63
  -6   6   2   -0.02    0.43
   5  -6  -2   64.79    1.99
   5  -6  -2   61.75    1.74
   5  -6  -2   62.20    2.02
   5  -6  -2   67.12    1.55
  -5   6   2   62.98    1.82
   4  -6  -2   24.98    1.13
   4  -6  -2   26.81    1.07
   4  -6  -2   27.45    1.41
  -4   6   2   27.26    0.94
  -4   6   2   26.17    0.93
   3  -6  -2   71.63    2.02
   3  -6  -2   71.44    2.31
   3  -6  -2   68.54    1.92
  -3   6   2   72.39    1.88
  -3   6   2   72.95    1.86
   2  -6  -2   23.73    1.22
   2  -6  -2   23.05    0.95
   2  -6  -2   24.49    0.81
  -2   6   2   23.79    0.80
  -2   6   2   24.73    0.75
   1  -6  -2   10.16    0.51
   1  -6  -2    9.98    0.80
   1  -6  -2   10.29    0.53
  -1   6   2    9.84    0.42
  -1   6   2   11.11    0.47
  -1   6   2   10.62    0.44
   0  -6  -2    2.15    0.33
   0  -6  -2    2.23    0.47
   0   6   2    2.79    0.30
   0   6   2    2.00    0.28
   0   6   2    2.10    0.23
  -1  -6  -2   12.53    0.70
  -1  -6  -2   11.78    0.76
   1   6   2   12.25    0.58
   1   6   2   12.76    0.54
  -2  -6  -2    2.18    0.51
  -2  -6  -2    2.74    0.57
   2   6   2    2.05    0.34
   2   6   2    2.73    0.37
  -3  -6  -2   39.38    1.43
  -3  -6  -2   40.09    1.41
   3   6   2   38.59    1.28
  -4  -6  -2  132.88    3.61
  -4  -6  -2  131.23    3.60
   4   6   2  131.20    3.46
  -5  -6  -2    8.25    0.98
   5   6   2    7.97    0.73
  -6  -6  -2    2.14    1.02
   6   6   2    1.21    0.64
  -9   7   2    0.68    0.72
  -8   7   2    1.70    0.60
   7  -7  -2   -0.41    0.75
  -7   7   2    0.38    0.53
   6  -7  -2   80.94    2.44
   6  -7  -2   80.58    2.50
  -6   7   2   82.14    2.31
   5  -7  -2  118.95    3.01
   5  -7  -2  120.38    3.74
   5  -7  -2  123.47    3.37
   5  -7  -2  123.69    3.29
  -5   7   2  125.16    3.18
   4  -7  -2   78.38    2.32
   4  -7  -2   74.98    2.20
   4  -7  -2   75.73    2.30
   4  -7  -2   81.30    2.66
  -4   7   2   78.12    2.12
  -4   7   2   84.22    2.15
   3  -7  -2    1.35    0.46
   3  -7  -2    0.66    0.59
   3  -7  -2    1.02    0.59
  -3   7   2    1.89    0.35
  -3   7   2    1.82    0.31
   2  -7  -2   16.58    0.75
   2  -7  -2   16.40    1.17
   2  -7  -2   16.47    0.91
  -2   7   2   15.44    0.67
  -2   7   2   16.82    0.66
   1  -7  -2    0.51    0.63
   1  -7  -2   -0.23    0.40
   1  -7  -2   -0.08    0.40
  -1   7   2    0.01    0.24
  -1   7   2    0.02    0.21
  -1   7   2   -0.15    0.28
   0  -7  -2   80.56    2.12
   0  -7  -2   77.46    2.22
   0   7   2   79.76    2.04
   0   7   2   81.64    2.11
   0   7   2   82.92    2.00
  -1  -7  -2   79.28    2.27
  -1  -7  -2   83.31    2.21
   1   7   2   82.55    2.15
   1   7   2   83.07    2.13
  -2  -7  -2   25.70    1.07
  -2  -7  -2   26.51    1.11
   2   7   2   26.51    0.94
  -3  -7  -2   11.28    0.86
  -3  -7  -2   12.05    0.86
   3   7   2   11.96    0.70
  -4  -7  -2    0.95    0.67
  -4  -7  -2    0.38    0.75
   4   7   2    0.34    0.47
  -5  -7  -2   -0.83    0.80
   5   7   2    0.43    0.58
   6   7   2    3.10    0.72
  -9   8   2    5.80    0.89
  -8   8   2   15.44    1.08
   7  -8  -2   20.67    1.35
   7  -8  -2   20.47    1.50
  -7   8   2   18.11    1.03
   6  -8  -2    2.04    0.74
   6  -8  -2    2.70    0.88
   6  -8  -2    2.22    0.74
  -6   8   2    1.41    0.51
   5  -8  -2    6.32    0.76
   5  -8  -2    5.07    0.89
   5  -8  -2    5.71    0.72
  -5   8   2    4.59    0.56
   4  -8  -2   -0.14    0.62
   4  -8  -2    0.13    0.52
   4  -8  -2    0.57    0.62
   4  -8  -2    0.54    0.62
  -4   8   2   -0.08    0.39
   3  -8  -2   35.04    1.26
   3  -8  -2   35.47    1.45
   3  -8  -2   35.40    1.66
  -3   8   2   38.57    1.17
  -3   8   2   35.10    1.16
   2  -8  -2    1.12    0.48
   2  -8  -2    0.66    0.62
   2  -8  -2    0.98    0.60
  -2   8   2    0.65    0.20
  -2   8   2    0.71    0.32
  -2   8   2    1.00    0.37
   1  -8  -2   12.88    1.10
   1  -8  -2   13.31    0.79
   1  -8  -2   12.71    0.85
  -1   8   2   14.26    0.64
  -1   8   2   13.11    0.73
  -1   8   2   12.94    0.58
   0  -8  -2   92.90    2.53
   0  -8  -2   96.52    2.65
   0   8   2  101.07    2.52
   0   8   2   94.68    2.46
  -1  -8  -2   38.76    1.39
  -1  -8  -2   39.11    1.33
   1   8   2   40.61    1.23
  -2  -8  -2   17.39    1.01
  -2  -8  -2   17.79    1.02
   2   8   2   17.44    0.80
  -3  -8  -2    2.99    0.75
  -3  -8  -2    3.27    0.70
   3   8   2    3.18    0.53
  -4  -8  -2    4.78    0.86
  -4  -8  -2    5.84    0.82
   4   8   2    4.95    0.63
  -5  -8  -2    5.71    1.02
   5   8   2    7.13    0.77
   8  -9  -2   31.91    1.99
  -8   9   2   30.88    1.44
   7  -9  -2    1.89    0.83
   7  -9  -2    1.14    0.93
  -7   9   2    1.53    0.61
   6  -9  -2    3.26    0.86
   6  -9  -2    4.34    0.80
   6  -9  -2    4.20    0.97
  -6   9   2    3.57    0.61
   5  -9  -2   -0.10    0.71
   5  -9  -2    0.67    0.67
   5  -9  -2    0.10    0.76
  -5   9   2    0.09    0.47
   4  -9  -2   24.75    1.29
   4  -9  -2   25.67    1.43
   4  -9  -2   23.28    1.16
  -4   9   2   23.54    1.00
   3  -9  -2   55.72    1.90
   3  -9  -2   56.59    1.75
   3  -9  -2   58.82    2.26
  -3   9   2   56.34    1.69
   2  -9  -2   46.68    1.67
   2  -9  -2   48.22    1.58
   2  -9  -2   51.12    2.10
  -2   9   2   51.04    1.21
  -2   9   2   48.23    1.49
   1  -9  -2   19.63    1.05
   1  -9  -2   17.30    1.35
   1  -9  -2   18.33    0.97
  -1   9   2   17.70    0.79
   0  -9  -2   -0.24    0.52
   0  -9  -2   -0.36    0.62
   0   9   2    0.10    0.34
  -1  -9  -2   -0.71    0.60
  -1  -9  -2    0.31    0.54
   1   9   2   -0.12    0.38
  -2  -9  -2   23.59    1.17
  -2  -9  -2   23.65    1.27
   2   9   2   24.46    1.03
  -3  -9  -2   28.52    1.40
  -3  -9  -2   27.43    1.37
   3   9   2   26.16    1.16
  -4  -9  -2    2.25    0.89
   4   9   2    0.72    0.59
   8 -10  -2    0.20    0.95
  -8  10   2    0.24    0.68
   7 -10  -2   13.66    1.19
   7 -10  -2   10.91    1.25
  -7  10   2   11.82    0.93
   6 -10  -2    3.55    0.83
   6 -10  -2    4.67    1.02
   6 -10  -2    3.73    0.95
  -6  10   2    4.18    0.67
   5 -10  -2    2.75    0.90
   5 -10  -2    2.23    0.76
   5 -10  -2    3.19    0.85
  -5  10   2    3.48    0.60
   4 -10  -2    6.63    0.78
   4 -10  -2    6.20    0.88
   4 -10  -2    7.07    1.02
  -4  10   2    6.46    0.64
   3 -10  -2   24.66    1.20
   3 -10  -2   22.81    1.35
   3 -10  -2   23.67    1.58
  -3  10   2   25.01    1.03
   2 -10  -2   33.51    1.40
   2 -10  -2   34.69    1.84
   2 -10  -2   30.22    1.44
  -2  10   2   33.73    1.22
   1 -10  -2    3.89    0.69
   1 -10  -2    3.27    0.79
  -1  10   2    4.09    0.52
   0 -10  -2    9.12    0.88
   0 -10  -2    7.73    0.74
   0  10   2    8.44    0.60
  -1 -10  -2    6.69    0.76
  -1 -10  -2    7.45    0.85
   1  10   2    7.02    0.61
  -2 -10  -2   30.06    1.41
  -2 -10  -2   30.91    1.41
   2  10   2   29.01    1.17
  -3 -10  -2    8.77    1.01
  -3 -10  -2    8.85    0.98
   3  10   2   10.65    0.80
   7 -11  -2    6.72    1.08
   7 -11  -2    5.58    1.16
  -7  11   2    6.39    0.83
   6 -11  -2   22.55    1.60
   6 -11  -2   23.57    1.50
  -6  11   2   21.51    1.21
   5 -11  -2   14.20    1.07
   5 -11  -2    9.94    1.11
   5 -11  -2   13.94    1.32
  -5  11   2   12.32    0.88
   4 -11  -2   -0.43    0.74
   4 -11  -2    0.43    0.80
   4 -11  -2   -0.34    0.86
  -4  11   2    0.00    0.53
   3 -11  -2    0.26    0.89
   3 -11  -2    0.62    0.68
   3 -11  -2    0.27    0.80
  -3  11   2    0.64    0.53
   2 -11  -2   16.25    1.14
   2 -11  -2   20.27    1.50
   2 -11  -2   15.54    1.11
  -2  11   2   17.70    0.98
   1 -11  -2   41.27    1.73
   1 -11  -2   38.14    1.57
  -1  11   2   42.27    1.46
   0 -11  -2   10.98    0.94
   0 -11  -2   11.66    1.01
   0  11   2   13.22    0.84
  -1 -11  -2    5.70    0.91
  -1 -11  -2    4.32    0.81
   1  11   2    5.28    0.63
  -2 -11  -2   -0.71    0.78
  -2 -11  -2    0.99    0.81
   2  11   2   -0.16    0.52
   6 -12  -2    8.94    1.30
   6 -12  -2    6.77    1.11
  -6  12   2    8.76    0.89
   5 -12  -2    1.13    0.90
   5 -12  -2    0.45    0.99
   5 -12  -2    1.29    1.01
   5 -12  -2    1.73    1.01
  -5  12   2    0.96    0.65
   4 -12  -2    4.03    1.03
   4 -12  -2    4.21    0.90
   4 -12  -2    4.46    1.11
  -4  12   2    4.18    0.69
   3 -12  -2    7.33    0.98
   3 -12  -2    6.08    1.00
   3 -12  -2    7.03    1.13
  -3  12   2    7.78    0.75
   2 -12  -2   13.42    1.14
   2 -12  -2   16.43    1.22
  -2  12   2   16.30    1.02
   1 -12  -2    9.39    1.01
   1 -12  -2   11.13    1.08
  -1  12   2   10.64    0.82
  -1  12   2   10.62    0.82
   0 -12  -2    9.00    1.06
   0 -12  -2    9.15    1.00
   0  12   2    9.58    0.79
  -1 -12  -2    0.54    0.82
  -1 -12  -2   -0.60    0.80
   1  12   2    0.57    0.58
   4 -13  -2   21.30    1.73
   4 -13  -2   22.22    1.57
   4 -13  -2   20.62    1.52
  -4  13   2   18.62    1.18
   3 -13  -2   10.34    1.41
   3 -13  -2    7.61    1.14
   3 -13  -2    6.75    1.13
  -3  13   2    6.79    0.82
   2 -13  -2    0.03    0.94
   2 -13  -2    1.17    0.96
  -2  13   2   -0.24    0.63
   1 -13  -2    1.23    0.90
   1 -13  -2   -0.66    0.95
  -1  13   2    0.50    0.63
  -1  13   2   -0.34    0.63
   0  14  -3    5.44    0.87
   0  14  -3    4.30    0.90
   0 -14   3    7.32    1.40
  -1  14  -3    0.43    0.77
   1 -14   3   -0.64    1.13
  -2  14  -3    0.63    0.73
  -3  14  -3    0.76    0.77
   2  13  -3    2.51    0.79
   1  13  -3    7.64    0.93
  -1 -13   3    7.88    1.30
   0  13  -3    2.52    0.76
   0  13  -3    2.21    0.72
   0  13  -3    1.40    0.63
   0 -13   3    1.59    1.11
  -1  13  -3   15.74    1.13
   1 -13   3   16.76    1.47
  -2  13  -3   17.78    1.21
   2 -13   3   19.30    1.56
  -3  13  -3   18.89    1.26
   3 -13   3   21.43    1.64
  -4  13  -3    7.88    0.97
  -5  13  -3    1.41    0.84
   3  12  -3    0.44    0.70
   2  12  -3    2.47    0.71
  -2 -12   3    2.49    1.14
   1  12  -3    0.74    0.65
  -1 -12   3   -0.51    1.00
   0  12  -3    6.71    0.80
   0  12  -3    5.60    0.67
   0  12  -3    4.50    0.75
   0 -12   3    6.32    1.15
  -1  12  -3    8.86    0.87
  -1  12  -3    8.89    0.74
   1 -12   3    9.94    1.23
  -2  12  -3   21.85    1.04
  -2  12  -3   22.45    1.25
   2 -12   3   24.43    1.70
  -3  12  -3    3.34    0.71
   3 -12   3    2.36    0.77
   3 -12   3    2.82    1.11
  -4  12  -3    0.16    0.71
   4 -12   3   -0.50    0.68
   4 -12   3    0.23    1.04
  -5  12  -3    2.34    0.82
   5 -12   3    2.55    0.82
  -6  12  -3    2.73    0.87
   4  11  -3    1.37    0.71
   3  11  -3    2.38    0.69
  -3 -11   3    2.72    1.03
   2  11  -3   19.28    1.06
  -2 -11   3   19.87    1.43
   1  11  -3   61.74    2.07
  -1 -11   3   64.12    2.42
  -1 -11   3   67.77    2.46
   0  11  -3   17.37    0.94
   0  11  -3   15.06    1.03
   0 -11   3   15.89    1.29
   0 -11   3   15.11    1.25
  -1  11  -3   13.25    0.88
  -1  11  -3   14.62    0.99
   1 -11   3   13.67    1.27
   1 -11   3   13.83    1.23
  -2  11  -3    2.37    0.67
  -2  11  -3    2.80    0.53
   2 -11   3    3.30    0.71
   2 -11   3    1.58    0.94
   2 -11   3    3.73    1.02
  -3  11  -3   33.77    1.25
  -3  11  -3   33.56    1.48
   3 -11   3   37.39    1.84
   3 -11   3   35.58    1.53
  -4  11  -3   18.72    0.99
  -4  11  -3   21.50    1.24
   4 -11   3   21.94    1.29
   4 -11   3   19.10    1.45
  -5  11  -3    7.32    0.90
   5 -11   3    7.59    0.88
  -6  11  -3    5.11    0.90
   6 -11   3    6.33    0.94
  -7  11  -3    4.76    0.98
   7 -11   3    3.71    0.93
   5  10  -3    5.80    0.79
   4  10  -3    9.69    0.85
  -4 -10   3   10.13    1.21
   3  10  -3    3.21    0.65
  -3 -10   3    3.70    0.97
   2  10  -3   31.68    1.28
  -2 -10   3   32.12    1.66
  -2 -10   3   33.28    1.65
   1  10  -3    7.53    0.73
  -1 -10   3    7.93    0.97
  -1 -10   3    8.13    1.04
  -1 -10   3    5.75    0.68
   0  10  -3   11.91    0.85
   0 -10   3   11.56    1.08
   0 -10   3   11.51    1.13
   0 -10   3    8.74    0.75
  -1  10  -3    0.14    0.53
  -1  10  -3    0.51    0.44
   1 -10   3    0.28    0.86
   1 -10   3    0.67    0.81
   1 -10   3   -0.32    0.50
  -2  10  -3    1.92    0.61
  -2  10  -3    2.17    0.47
   2 -10   3    1.61    0.56
   2 -10   3    1.21    0.88
   2 -10   3    1.69    0.88
   2 -10   3    1.79    0.56
  -3  10  -3   10.20    0.85
  -3  10  -3   11.46    0.75
   3 -10   3   11.43    1.11
   3 -10   3   10.17    0.80
   3 -10   3   10.57    1.14
   3 -10   3   10.18    0.83
  -4  10  -3   25.91    1.32
  -4  10  -3   29.52    1.10
   4 -10   3   30.16    1.66
   4 -10   3   29.27    1.35
   4 -10   3   27.81    1.36
  -5  10  -3   29.99    1.14
  -5  10  -3   29.44    1.36
   5 -10   3   28.31    1.42
   5 -10   3   31.18    1.44
  -6  10  -3    4.10    0.81
  -6  10  -3    5.19    0.64
   6 -10   3    4.32    0.87
  -7  10  -3    3.13    0.82
   6   9  -3    2.89    0.77
   5   9  -3   38.02    1.49
   4   9  -3   10.62    0.83
  -4  -9   3   13.95    1.21
   3   9  -3   21.41    1.09
  -3  -9   3   21.45    1.38
  -3  -9   3   22.64    1.21
  -3  -9   3   24.46    1.43
   2   9  -3   17.29    0.95
  -2  -9   3   17.72    1.06
  -2  -9   3   16.41    1.18
  -2  -9   3   16.56    1.13
   1   9  -3   22.05    1.05
  -1  -9   3   21.43    1.14
  -1  -9   3   24.24    1.37
  -1  -9   3   20.80    1.41
   0   9  -3   57.62    1.84
   0  -9   3   57.24    1.91
   0  -9   3   62.68    2.19
   0  -9   3   61.94    2.16
  -1   9  -3   98.10    2.49
  -1   9  -3   95.22    2.69
   1  -9   3   98.56    2.99
   1  -9   3   92.36    2.70
   1  -9   3   96.40    2.98
  -2   9  -3   22.53    0.94
  -2   9  -3   23.78    1.07
   2  -9   3   23.54    1.14
   2  -9   3   23.93    1.44
   2  -9   3   24.96    1.61
   2  -9   3   23.42    1.10
  -3   9  -3   13.70    0.77
  -3   9  -3   12.67    0.86
   3  -9   3   12.89    1.14
   3  -9   3   11.14    0.78
   3  -9   3   12.71    0.89
   3  -9   3   12.74    1.09
  -4   9  -3   34.66    1.16
  -4   9  -3   30.82    1.36
   4  -9   3   32.74    1.39
   4  -9   3   32.41    1.64
   4  -9   3   30.51    1.37
  -5   9  -3    7.44    0.77
  -5   9  -3    6.78    0.62
   5  -9   3    8.08    1.06
   5  -9   3    6.49    0.84
   5  -9   3    6.61    0.81
  -6   9  -3   19.78    0.96
  -6   9  -3   21.34    1.25
   6  -9   3   18.51    1.31
  -7   9  -3    5.70    0.91
   7  -9   3    7.39    1.00
  -8   9  -3    5.00    0.97
   7   8  -3    0.88    0.76
   6   8  -3   16.45    1.12
   5   8  -3    6.30    0.74
  -5  -8   3    6.24    1.02
  -5  -8   3    5.36    0.82
   4   8  -3    5.04    0.64
  -4  -8   3    5.12    0.92
  -4  -8   3    6.07    0.75
   3   8  -3   13.10    0.79
  -3  -8   3   13.81    1.06
  -3  -8   3   13.37    0.91
  -3  -8   3   12.24    0.99
   2   8  -3   21.35    0.98
  -2  -8   3   19.01    1.27
  -2  -8   3   18.92    1.21
  -2  -8   3   20.93    1.13
   1   8  -3    0.47    0.43
  -1  -8   3   -0.33    0.70
  -1  -8   3    0.65    0.55
  -1  -8   3    0.97    0.81
   0   8  -3   38.25    1.37
   0  -8   3   41.12    1.69
   0  -8   3   36.70    1.64
   0  -8   3   39.36    1.42
  -1   8  -3   77.82    2.23
  -1   8  -3   76.39    2.03
   1  -8   3   77.54    2.47
   1  -8   3   75.19    2.24
   1  -8   3   77.43    2.51
   1  -8   3   76.66    2.27
  -2   8  -3    3.70    0.47
  -2   8  -3    3.13    0.53
   2  -8   3    3.33    0.86
   2  -8   3    4.29    0.86
   2  -8   3    3.40    0.47
   2  -8   3    3.41    0.59
  -3   8  -3   41.68    1.52
  -3   8  -3   45.16    1.33
   3  -8   3   42.75    1.53
   3  -8   3   40.19    1.48
   3  -8   3   41.94    1.78
   3  -8   3   42.77    1.92
  -4   8  -3    1.67    0.43
  -4   8  -3    0.78    0.55
   4  -8   3    1.39    0.56
   4  -8   3    1.98    0.76
   4  -8   3    1.12    0.58
   4  -8   3    2.08    0.86
   4  -8   3    1.46    0.79
  -5   8  -3   60.29    1.99
  -5   8  -3   59.21    1.75
   5  -8   3   60.71    2.03
   5  -8   3   61.65    2.22
  -6   8  -3   47.59    1.56
  -6   8  -3   47.56    1.75
   6  -8   3   48.17    1.85
  -7   8  -3   19.55    1.20
   7  -8   3   20.51    1.39
  -8   8  -3   -0.24    0.74
   8  -8   3   -0.16    0.86
   7   7  -3    8.91    0.93
   6   7  -3    3.98    0.74
  -6  -7   3    4.54    0.82
   5   7  -3    0.97    0.54
  -5  -7   3    0.80    0.60
  -5  -7   3    1.25    0.82
   4   7  -3   12.57    0.79
  -4  -7   3   12.82    1.01
  -4  -7   3   13.65    1.01
  -4  -7   3   13.62    0.93
   3   7  -3  187.81    4.87
  -3  -7   3  198.94    4.94
  -3  -7   3  200.31    5.07
  -3  -7   3  190.08    5.05
   2   7  -3   47.14    1.51
  -2  -7   3   51.30    1.78
  -2  -7   3   51.49    1.82
  -2  -7   3   49.58    1.63
   1   7  -3   16.88    0.84
  -1  -7   3   19.00    0.99
  -1  -7   3   17.75    1.22
  -1  -7   3   20.47    1.18
   0   7  -3  103.08    2.76
   0  -7   3   99.46    2.83
   0  -7   3  105.78    2.95
   0  -7   3  105.26    2.94
  -1   7  -3    0.87    0.36
  -1   7  -3    0.46    0.37
   1  -7   3    0.06    0.45
   1  -7   3    0.97    0.69
   1  -7   3   -0.26    0.32
   1  -7   3    0.18    0.70
  -2   7  -3   69.44    2.03
  -2   7  -3   69.41    1.83
   2  -7   3   68.20    2.05
   2  -7   3   66.91    2.20
   2  -7   3   69.89    2.24
   2  -7   3   68.91    2.02
  -3   7  -3  138.58    3.70
  -3   7  -3  138.19    3.39
   3  -7   3  142.07    3.93
   3  -7   3  142.23    3.72
   3  -7   3  143.73    3.88
   3  -7   3  140.90    3.84
  -4   7  -3   53.14    1.51
  -4   7  -3   50.03    1.67
   4  -7   3   52.13    1.97
   4  -7   3   53.39    2.02
   4  -7   3   51.21    1.72
  -5   7  -3    1.81    0.58
  -5   7  -3    1.90    0.46
   5  -7   3    1.21    0.61
   5  -7   3    0.30    0.78
  -6   7  -3    7.05    0.68
  -6   7  -3    5.84    0.78
   6  -7   3    7.50    0.82
  -7   7  -3   -0.18    0.69
   7  -7   3   -0.44    0.75
  -8   7  -3    2.32    0.80
   8  -7   3    2.74    0.90
   8   6  -3    0.75    0.72
   7   6  -3    5.90    0.82
  -7  -6   3    6.16    0.86
   6   6  -3   37.02    1.48
  -6  -6   3   38.55    1.53
   5   6  -3    0.44    0.50
  -5  -6   3    1.18    0.55
  -5  -6   3    1.46    0.74
   4   6  -3   21.11    0.94
  -4  -6   3   22.07    1.29
  -4  -6   3   22.63    1.05
  -4  -6   3   20.24    1.31
   3   6  -3   59.59    1.77
  -3  -6   3   59.96    1.83
  -3  -6   3   59.13    1.97
  -3  -6   3   61.80    1.98
   2   6  -3    0.76    0.36
  -2  -6   3    1.27    0.44
  -2  -6   3    0.35    0.55
  -2  -6   3    0.74    0.57
   1   6  -3   29.86    1.18
   1   6  -3   31.15    1.04
  -1  -6   3   29.58    1.26
  -1  -6   3   29.28    1.32
  -1  -6   3   30.80    1.17
   0   6  -3    0.38    0.49
   0   6  -3   -0.50    0.31
   0   6  -3    0.54    0.28
   0  -6   3    0.44    0.41
   0  -6   3    0.17    0.53
   0  -6   3    0.29    0.55
  -1   6  -3   28.79    1.06
  -1   6  -3   27.18    0.90
  -1   6  -3   28.27    1.27
   1  -6   3   25.40    1.25
   1  -6   3   27.96    1.11
   1  -6   3   27.98    1.24
   1  -6   3   27.65    0.93
  -2   6  -3  121.64    3.13
  -2   6  -3  115.53    3.27
  -2   6  -3  120.13    2.90
   2  -6   3  120.19    3.29
   2  -6   3  117.93    3.25
   2  -6   3  120.22    3.23
   2  -6   3  119.70    3.15
  -3   6  -3  219.36    5.59
  -3   6  -3  221.92    5.08
  -3   6  -3  219.71    5.46
   3  -6   3  214.52    5.48
   3  -6   3  222.25    5.60
   3  -6   3  220.89    5.63
   3  -6   3  216.10    5.61
  -4   6  -3    5.35    0.84
  -4   6  -3    4.44    0.54
  -4   6  -3    4.48    0.48
   4  -6   3    3.13    0.73
   4  -6   3    3.11    0.56
   4  -6   3    5.69    0.79
  -5   6  -3    3.58    0.61
  -5   6  -3    4.00    0.51
   5  -6   3    4.52    0.65
   5  -6   3    3.57    0.83
  -6   6  -3    4.76    0.60
  -6   6  -3    4.49    0.66
   6  -6   3    4.51    0.71
  -7   6  -3   13.79    1.01
   7  -6   3   12.35    1.07
  -8   6  -3   16.10    1.16
   8  -6   3   16.97    1.26
   8   5  -3    0.27    0.67
  -8  -5   3    1.34    0.77
   7   5  -3   47.71    1.76
  -7  -5   3   51.73    1.86
   6   5  -3   36.77    1.43
  -6  -5   3   35.99    1.45
   5   5  -3   17.70    0.94
  -5  -5   3   18.11    1.11
  -5  -5   3   17.59    0.96
  -5  -5   3   17.13    1.12
   4   5  -3   60.35    1.75
   4   5  -3   57.51    1.92
  -4  -5   3   58.70    1.76
  -4  -5   3   59.97    1.98
  -4  -5   3   56.79    1.87
   3   5  -3    8.38    0.68
   3   5  -3    6.31    0.49
  -3  -5   3    8.09    0.72
  -3  -5   3    6.90    0.65
  -3  -5   3    6.01    0.52
   2   5  -3   11.18    0.63
   2   5  -3   11.82    0.81
  -2  -5   3   10.52    0.78
  -2  -5   3   10.77    0.69
  -2  -5   3   10.97    0.78
   1   5  -3  429.18   10.37
   1   5  -3  434.23   11.12
   1   5  -3  435.07   10.50
  -1  -5   3  436.53   10.57
  -1  -5   3  447.35   10.54
  -1  -5   3  438.91   10.45
   0   5  -3  363.05    8.37
   0   5  -3  342.74    8.45
   0   5  -3  349.50    8.44
   0   5  -3  353.75    8.81
   0   5  -3  340.64    8.31
   0  -5   3  342.42    8.49
   0  -5   3  342.75    8.45
   0  -5   3  340.96    8.37
  -1   5  -3   24.51    1.21
  -1   5  -3   25.40    1.12
  -1   5  -3   25.56    0.93
  -1   5  -3   26.70    0.89
   1  -5   3   26.69    0.83
   1  -5   3   25.54    0.99
   1  -5   3   23.93    1.19
   1  -5   3   25.84    1.17
  -2   5  -3   89.31    2.41
  -2   5  -3   90.22    2.54
  -2   5  -3   91.65    2.52
  -2   5  -3   88.71    2.23
   2  -5   3   89.29    2.59
   2  -5   3   92.61    2.25
   2  -5   3   87.80    2.51
   2  -5   3   93.22    2.45
  -3   5  -3   15.92    0.67
  -3   5  -3   16.64    0.81
  -3   5  -3   14.38    1.02
  -3   5  -3   17.75    1.00
   3  -5   3   14.60    0.84
   3  -5   3   16.03    1.06
   3  -5   3   14.95    1.04
  -4   5  -3   74.71    1.99
  -4   5  -3   76.64    2.43
  -4   5  -3   74.54    2.16
   4  -5   3   77.10    2.38
   4  -5   3   78.54    2.35
   4  -5   3   78.79    2.25
  -5   5  -3    2.91    0.55
  -5   5  -3    3.06    0.50
   5  -5   3    3.88    0.63
   5  -5   3    2.28    0.77
   5  -5   3    3.58    0.80
  -6   5  -3    2.01    0.49
  -6   5  -3    2.45    0.57
   6  -5   3    1.34    0.59
  -7   5  -3    1.71    0.64
   7  -5   3    0.75    0.71
  -8   5  -3   12.64    1.07
   8  -5   3   10.76    1.09
   9   4  -3    3.38    0.89
  -9  -4   3    2.94    0.91
   8   4  -3    7.27    0.85
  -8  -4   3    7.65    0.90
   7   4  -3    6.63    0.74
  -7  -4   3    6.29    0.78
   6   4  -3   -0.30    0.44
  -6  -4   3    0.14    0.71
  -6  -4   3   -0.06    0.51
   5   4  -3   -0.35    0.39
   5   4  -3    0.03    0.59
  -5  -4   3    0.03    0.62
  -5  -4   3   -0.05    0.43
  -5  -4   3   -0.76    0.58
   4   4  -3   15.37    0.79
   4   4  -3   17.23    1.05
  -4  -4   3   15.22    0.98
  -4  -4   3   15.58    0.78
  -4  -4   3   17.63    1.04
   3   4  -3    0.36    0.28
   3   4  -3    0.88    0.44
   3   4  -3    0.55    0.47
  -3  -4   3    0.12    0.41
  -3  -4   3    0.66    0.43
  -3  -4   3    0.52    0.34
   2   4  -3   41.41    1.38
   2   4  -3   43.65    1.37
   2   4  -3   42.86    1.26
  -2  -4   3   41.12    1.39
  -2  -4   3   40.87    1.27
  -2  -4   3   44.29    1.41
   1   4  -3  680.25   15.63
   1   4  -3  649.10   15.58
   1   4  -3  658.97   15.76
   1   4  -3  668.16   15.80
  -1  -4   3  667.28   15.80
  -1  -4   3  654.87   15.63
  -1  -4   3  663.77   15.78
   0   4  -3   51.52    1.63
   0   4  -3   50.48    1.38
   0   4  -3   56.75    1.55
   0   4  -3   51.96    1.63
   0   4  -3   53.67    1.48
   0   4  -3   51.25    1.47
   0  -4   3   51.16    1.59
   0  -4   3   51.49    1.66
   0  -4   3   50.44    1.57
   0  -4   3   51.98    1.48
  -1   4  -3    3.40    0.37
  -1   4  -3    2.56    0.46
  -1   4  -3    2.64    0.36
  -1   4  -3    2.25    0.53
  -1   4  -3    1.83    0.29
   1  -4   3    1.81    0.33
   1  -4   3    1.95    0.45
   1  -4   3    2.27    0.51
   1  -4   3    2.13    0.39
  -2   4  -3    2.21    0.47
  -2   4  -3    3.78    0.54
  -2   4  -3    4.39    0.43
  -2   4  -3    3.47    0.35
   2  -4   3    4.57    0.37
   2  -4   3    4.16    0.43
   2  -4   3    3.57    0.51
   2  -4   3    3.94    0.53
   2  -4   3    3.41    0.51
  -3   4  -3    9.75    0.58
  -3   4  -3    9.22    0.72
  -3   4  -3    9.62    0.59
   3  -4   3   10.56    0.72
   3  -4   3   10.71    0.76
   3  -4   3    9.61    0.64
  -4   4  -3   23.88    0.89
  -4   4  -3   22.15    0.92
  -4   4  -3   23.64    1.15
   4  -4   3   17.89    0.91
   4  -4   3   22.48    1.22
   4  -4   3   24.50    0.99
  -5   4  -3  132.62    3.36
  -5   4  -3  136.40    3.73
  -5   4  -3  136.54    3.57
   5  -4   3  134.84    3.72
   5  -4   3  140.23    3.65
  -6   4  -3   32.17    1.28
   6  -4   3   32.40    1.40
  -7   4  -3    7.89    0.81
   7  -4   3    9.28    0.92
  -8   4  -3    2.00    0.72
   8  -4   3    0.77    0.71
   9   3  -3    6.99    0.91
  -9  -3   3    6.83    0.92
   8   3  -3    3.69    0.77
  -8  -3   3    3.80    0.73
   7   3  -3    0.10    0.52
  -7  -3   3   -0.20    0.57
   6   3  -3    9.23    0.74
  -6  -3   3    9.00    0.74
  -6  -3   3   10.36    0.92
   5   3  -3  138.38    3.69
   5   3  -3  135.55    3.59
  -5  -3   3  145.12    3.74
  -5  -3   3  140.70    3.61
  -5  -3   3  134.97    3.69
   4   3  -3  264.56    6.49
   4   3  -3  272.26    6.58
   4   3  -3  259.89    6.57
  -4  -3   3  268.21    6.60
  -4  -3   3  267.56    6.49
  -4  -3   3  269.74    6.62
   3   3  -3  119.93    3.13
   3   3  -3  118.51    3.06
  -3  -3   3  121.00    3.07
  -3  -3   3  125.18    3.17
  -3  -3   3  120.93    3.14
   2   3  -3  173.27    4.22
   2   3  -3  168.52    4.28
   2   3  -3  177.94    4.23
  -2  -3   3  173.98    4.32
  -2  -3   3  177.54    4.22
  -2  -3   3  170.54    4.28
  -2  -3   3  168.77    4.22
   1   3  -3    2.20    0.30
   1   3  -3    2.32    0.40
   1   3  -3    2.09    0.28
  -1  -3   3    1.87    0.29
  -1  -3   3    2.13    0.27
  -1  -3   3    2.01    0.42
  -1  -3   3    2.02    0.37
   0   3  -3  111.16    2.67
   0   3  -3  117.95    2.88
   0   3  -3  113.14    2.82
   0   3  -3  112.76    2.83
   0   3  -3  109.12    2.94
   0  -3   3  113.34    2.89
   0  -3   3  108.32    2.92
   0  -3   3  112.50    2.82
  -1   3  -3  132.43    3.40
  -1   3  -3  136.85    3.22
  -1   3  -3  141.16    3.53
  -1   3  -3  142.94    3.47
   1  -3   3  138.26    3.51
   1  -3   3  139.90    3.41
   1  -3   3  134.60    3.47
   1  -3   3  139.67    3.22
  -2   3  -3  101.60    2.65
  -2   3  -3  103.27    2.50
  -2   3  -3  106.85    2.78
  -2   3  -3  105.27    2.75
   2  -3   3  106.58    2.75
   2  -3   3  106.00    2.50
   2  -3   3  100.84    2.70
  -3   3  -3    3.98    0.52
  -3   3  -3    4.25    0.38
  -3   3  -3    4.49    0.41
  -3   3  -3    4.80    0.54
   3  -3   3    3.52    0.42
   3  -3   3    3.95    0.51
  -4   3  -3   49.82    1.48
  -4   3  -3   53.75    1.74
  -4   3  -3   51.63    1.81
  -4   3  -3   51.75    1.57
  -4   3  -3   55.31    1.79
   4  -3   3   54.41    1.71
   4  -3   3   53.74    1.64
   4  -3   3   54.82    1.74
  -5   3  -3   55.58    1.78
  -5   3  -3   61.66    1.74
  -5   3  -3   61.06    2.07
  -5   3  -3   60.88    2.08
  -5   3  -3   63.99    2.06
   5  -3   3   58.72    1.89
   5  -3   3   58.42    2.08
  -6   3  -3   11.73    0.83
   6  -3   3   12.38    0.90
  -7   3  -3    2.51    0.68
   7  -3   3    2.53    0.68
  -8   3  -3    2.05    0.76
   8  -3   3    3.10    0.80
   9   2  -3    0.86    0.76
  -9  -2   3    0.79    0.74
   8   2  -3   30.56    1.43
  -8  -2   3   32.36    1.38
   7   2  -3    2.10    0.57
  -7  -2   3    2.67    0.62
   6   2  -3    7.35    0.83
   6   2  -3    7.15    0.63
  -6  -2   3    7.98    0.87
  -6  -2   3    6.62    0.64
  -6  -2   3    4.43    0.52
   5   2  -3  136.51    3.51
   5   2  -3  139.59    3.63
  -5  -2   3  133.99    3.51
  -5  -2   3  135.76    3.64
   4   2  -3   22.93    0.89
   4   2  -3   23.79    0.95
  -4  -2   3   22.88    0.85
  -4  -2   3   23.84    1.07
   3   2  -3   10.20    0.59
   3   2  -3    9.60    0.51
   3   2  -3   10.98    0.66
  -3  -2   3   10.32    0.74
  -3  -2   3   10.57    0.52
   2   2  -3   34.80    1.06
   2   2  -3   33.45    1.09
   2   2  -3   35.20    1.02
   2   2  -3   36.83    1.02
  -2  -2   3   34.09    1.03
  -2  -2   3   34.25    1.11
  -2  -2   3   36.19    1.03
   1   2  -3   10.96    0.61
   1   2  -3   11.35    0.68
   1   2  -3   10.43    0.46
   1   2  -3   10.66    0.47
  -1  -2   3   10.51    0.65
  -1  -2   3   10.50    0.47
  -1  -2   3   10.90    0.47
   0   2  -3   15.09    0.80
   0   2  -3   13.25    0.54
   0   2  -3   14.60    0.62
   0   2  -3   12.93    0.74
   0   2  -3   12.87    0.53
   0  -2   3   12.91    0.59
   0  -2   3   14.31    0.80
   0  -2   3   15.28    0.55
   0  -2   3   13.86    0.41
   0  -2   3   13.98    0.59
   0  -2   3   14.57    0.73
  -1   2  -3  356.89    8.55
  -1   2  -3  375.77    8.62
  -1   2  -3  354.82    8.67
  -1   2  -3  366.14    8.72
  -1   2  -3  352.82    8.09
   1  -2   3  353.32    8.66
   1  -2   3  364.81    8.62
   1  -2   3  362.24    8.72
   1  -2   3  360.40    8.68
   1  -2   3  362.29    8.55
   1  -2   3  372.42    8.09
  -2   2  -3  162.37    3.78
  -2   2  -3  163.12    4.10
  -2   2  -3  165.69    4.11
  -2   2  -3  163.45    4.10
  -2   2  -3  160.82    3.98
   2  -2   3  160.88    4.04
   2  -2   3  167.85    3.99
   2  -2   3  162.93    4.11
   2  -2   3  160.69    4.08
   2  -2   3  169.70    3.79
  -3   2  -3   89.35    2.41
  -3   2  -3   88.05    2.20
  -3   2  -3   86.60    2.29
  -3   2  -3   90.22    2.44
   3  -2   3   87.42    2.36
   3  -2   3   89.04    2.40
   3  -2   3   86.83    2.44
  -4   2  -3   60.20    1.71
  -4   2  -3   59.63    1.86
  -4   2  -3   58.62    1.63
  -4   2  -3   59.30    1.86
   4  -2   3   56.43    1.76
   4  -2   3   58.59    1.91
  -5   2  -3   31.01    1.41
  -5   2  -3   31.90    1.48
  -5   2  -3   29.83    1.13
  -5   2  -3   29.58    1.13
   5  -2   3   30.56    1.24
   5  -2   3   33.04    1.51
  -6   2  -3   60.99    1.91
   6  -2   3   60.33    1.94
  -7   2  -3   62.06    2.07
   7  -2   3   65.39    2.15
  -8   2  -3    9.00    0.94
   8  -2   3    8.94    0.95
   9   1  -3    8.22    0.94
  -9  -1   3    7.57    0.89
   8   1  -3   45.72    1.73
  -8  -1   3   45.63    1.70
   7   1  -3   54.26    1.81
  -7  -1   3   53.51    1.75
   6   1  -3   97.44    2.70
   6   1  -3   95.68    2.79
   6   1  -3   93.37    2.65
  -6  -1   3   96.01    2.65
  -6  -1   3   98.01    2.81
  -6  -1   3   94.68    2.79
   5   1  -3    0.21    0.46
   5   1  -3    0.94    0.37
   5   1  -3    0.57    0.54
  -5  -1   3    0.95    0.52
  -5  -1   3    1.12    0.53
  -5  -1   3    0.79    0.36
   4   1  -3    6.62    0.54
   4   1  -3    6.98    0.49
   4   1  -3    6.34    0.58
  -4  -1   3    6.88    0.58
  -4  -1   3    7.23    0.54
  -4  -1   3    7.31    0.49
   3   1  -3  311.56    7.39
   3   1  -3  299.48    7.39
   3   1  -3  298.56    7.29
  -3  -1   3  309.97    7.29
  -3  -1   3  311.58    7.40
  -3  -1   3  306.39    7.38
  -3  -1   3  308.28    7.29
   2   1  -3  475.06   11.54
   2   1  -3  471.74   11.40
   2   1  -3  487.16   11.52
   2   1  -3  494.88   11.39
  -2  -1   3  484.45   11.54
  -2  -1   3  491.65   11.40
  -2  -1   3  489.50   11.52
  -2  -1   3  492.93   11.41
   1   1  -3   15.53    0.51
   1   1  -3   14.61    0.56
   1   1  -3   14.84    0.61
   1   1  -3   14.52    0.77
  -1  -1   3   14.58    0.51
  -1  -1   3   14.83    0.60
  -1  -1   3   16.09    0.77
  -1  -1   3   15.02    0.53
   0   1  -3   16.38    0.72
   0   1  -3   15.96    0.73
   0   1  -3   15.40    0.59
   0   1  -3   15.23    0.52
   0   1  -3   15.38    0.56
   0  -1   3   15.92    0.54
   0  -1   3   15.75    0.67
   0  -1   3   13.98    0.70
   0  -1   3   16.05    0.55
   0  -1   3   16.18    0.53
   0  -1   3   15.56    0.59
  -1   1  -3  114.09    2.89
  -1   1  -3  114.72    2.80
  -1   1  -3  111.52    2.68
  -1   1  -3  113.50    2.93
  -1   1  -3  123.04    2.89
  -1   1  -3  113.33    2.89
   1  -1   3  115.32    2.87
   1  -1   3  119.86    2.69
   1  -1   3  112.14    2.94
   1  -1   3  116.86    2.81
   1  -1   3  112.93    2.86
  -2   1  -3   -0.25    0.37
  -2   1  -3   -0.18    0.22
  -2   1  -3   -0.31    0.21
  -2   1  -3    0.54    0.35
   2  -1   3    0.00    0.21
   2  -1   3   -0.02    0.29
   2  -1   3    0.05    0.20
   2  -1   3    0.25    0.42
   2  -1   3    0.13    0.25
  -3   1  -3   24.42    0.97
  -3   1  -3   24.51    1.04
  -3   1  -3   24.80    0.86
  -3   1  -3   23.49    0.82
   3  -1   3   24.82    0.91
   3  -1   3   23.97    1.06
  -4   1  -3   89.82    2.49
  -4   1  -3   88.47    2.26
  -4   1  -3   86.51    2.35
  -4   1  -3   88.19    2.50
   4  -1   3   86.56    2.48
   4  -1   3   86.87    2.39
  -5   1  -3   12.68    0.76
  -5   1  -3   14.09    0.99
  -5   1  -3   13.47    0.93
   5  -1   3   15.43    0.89
  -6   1  -3    6.29    0.94
  -6   1  -3    6.26    0.67
   6  -1   3    6.90    0.69
  -7   1  -3   17.01    1.09
   7  -1   3   17.21    1.11
  -8   1  -3    0.55    0.70
   8  -1   3   -0.45    0.64
  10   0  -3    1.27    0.86
 -10   0   3    2.06    0.88
   9   0  -3    8.15    0.93
  -9   0   3    7.27    0.90
   8   0  -3   10.80    0.91
  -8   0   3   10.66    0.88
   7   0  -3   12.24    0.84
  -7   0   3   12.78    0.90
   6   0  -3   51.71    1.80
   6   0  -3   54.54    1.85
   6   0  -3   52.55    1.66
  -6   0   3   52.13    1.61
  -6   0   3   49.43    1.74
   5   0  -3   29.39    1.08
   5   0  -3   31.38    1.28
   5   0  -3   29.78    1.21
  -5   0   3   32.22    1.17
  -5   0   3   29.38    1.03
   4   0  -3    7.71    0.48
   4   0  -3    7.07    0.53
   4   0  -3    7.29    0.59
  -4   0   3    7.11    0.56
  -4   0   3    7.45    0.51
  -4   0   3    7.66    0.58
   3   0  -3  235.76    5.68
   3   0  -3  237.28    5.71
   3   0  -3  235.55    5.59
   3   0  -3  229.84    5.60
  -3   0   3  230.34    5.60
  -3   0   3  235.51    5.68
  -3   0   3  231.28    5.69
  -3   0   3  240.28    5.61
   2   0  -3   44.43    1.10
   2   0  -3   42.57    1.16
   2   0  -3   40.96    1.13
   2   0  -3   41.55    1.22
  -2   0   3   42.71    1.22
  -2   0   3   41.98    1.12
  -2   0   3   42.47    1.13
  -2   0   3   42.35    1.15
   1   0  -3  156.08    3.65
   1   0  -3  161.80    3.79
   1   0  -3  160.88    4.18
   1   0  -3  162.35    3.92
   1   0  -3  159.67    3.85
   1   0  -3  160.56    3.82
  -1   0   3  159.70    3.86
  -1   0   3  160.75    3.81
  -1   0   3  162.71    3.84
  -1   0   3  161.76    3.83
   0   0  -3  105.13    2.84
   0   0  -3  105.66    2.52
   0   0  -3  106.20    2.63
   0   0  -3  107.67    2.56
   0   0  -3  107.06    2.60
   0   0  -3  104.16    2.59
   0   0  -3  103.97    2.45
   0   0   3  105.90    2.60
   0   0   3  107.88    2.56
   0   0   3  105.62    2.55
   0   0   3  103.61    2.56
   0   0   3  109.99    2.46
   0   0   3  105.69    2.83
  -1   0  -3    3.70    0.28
  -1   0  -3    4.07    0.32
  -1   0  -3    3.36    0.22
  -1   0  -3    3.16    0.38
  -1   0  -3    3.74    0.34
   1   0   3    3.47    0.24
   1   0   3    2.75    0.25
   1   0   3    3.57    0.29
   1   0   3    3.60    0.41
  -2   0  -3   46.57    1.28
  -2   0  -3   47.93    1.28
  -2   0  -3   48.49    1.40
  -2   0  -3   46.74    1.39
  -2   0  -3   50.18    1.36
   2   0   3   45.47    1.32
   2   0   3   48.90    1.28
   2   0   3   48.93    1.27
   2   0   3   45.80    1.41
  -3   0  -3  450.85   10.92
  -3   0  -3  456.27   10.93
  -3   0  -3  453.76   10.74
  -3   0  -3  459.06   10.22
   3   0   3  453.99   10.80
  -4   0  -3  120.99    3.20
  -4   0  -3  114.22    3.20
  -4   0  -3  121.79    3.04
   4   0   3  116.31    3.09
  -5   0  -3    0.40    0.45
  -5   0  -3   -0.21    0.58
  -5   0  -3    0.31    0.64
   5   0   3    0.29    0.45
  -6   0  -3    7.03    0.94
  -6   0  -3    4.95    0.60
   6   0   3    6.53    0.70
  -7   0  -3   -0.03    0.60
   7   0   3    0.79    0.63
  -8   0  -3    6.65    0.89
   8   0   3    7.74    0.93
  10  -1  -3   10.93    1.05
 -10   1   3    8.64    1.01
   9  -1  -3    0.89    0.71
  -9   1   3   -0.21    0.68
   8  -1  -3    4.36    0.72
  -8   1   3    4.06    0.69
   7  -1  -3   20.69    1.06
   7  -1  -3   23.24    1.32
  -7   1   3   19.87    1.02
   6  -1  -3  199.26    5.08
   6  -1  -3  199.99    5.10
   6  -1  -3  190.84    4.95
  -6   1   3  192.34    4.93
  -6   1   3  207.42    5.09
   5  -1  -3   62.28    1.87
   5  -1  -3   59.51    1.71
   5  -1  -3   58.88    1.80
  -5   1   3   62.59    1.73
  -5   1   3   60.62    1.84
   4  -1  -3   48.39    1.46
   4  -1  -3   49.84    1.44
   4  -1  -3   48.14    1.37
  -4   1   3   50.92    1.37
  -4   1   3   48.26    1.45
  -4   1   3   47.30    1.37
   3  -1  -3   64.46    1.73
   3  -1  -3   61.33    1.68
   3  -1  -3   64.47    1.62
   3  -1  -3   61.99    1.63
  -3   1   3   61.93    1.63
  -3   1   3   63.42    1.69
  -3   1   3   65.33    1.64
   2  -1  -3   11.59    0.41
   2  -1  -3   11.03    0.58
   2  -1  -3   11.48    0.38
   2  -1  -3   11.18    0.46
  -2   1   3   11.50    0.40
  -2   1   3   10.96    0.43
  -2   1   3   11.68    0.40
   1  -1  -3   32.73    1.07
   1  -1  -3   32.54    0.86
   1  -1  -3   33.79    0.84
   1  -1  -3   32.95    0.83
  -1   1   3   33.01    0.83
  -1   1   3   32.69    0.85
  -1   1   3   33.15    0.85
  -1   1   3   34.20    1.10
  -1   1   3   34.44    0.86
   0  -1  -3  841.28   19.90
   0  -1  -3  866.43   19.89
   0  -1  -3  828.46   21.33
   0  -1  -3  855.44   18.91
   0   1   3  816.07   21.32
   0   1   3  862.39   19.72
   0   1   3  845.30   18.73
   0   1   3  825.85   19.74
  -1  -1  -3   77.00    1.84
  -1  -1  -3   78.27    1.93
  -1  -1  -3   76.03    1.96
  -1  -1  -3   74.92    1.84
  -1  -1  -3   75.14    1.92
   1   1   3   76.97    1.87
   1   1   3   75.71    1.84
   1   1   3   73.57    1.90
  -2  -1  -3    9.60    0.51
  -2  -1  -3    9.76    0.45
  -2  -1  -3    9.76    0.59
  -2  -1  -3   10.54    0.65
  -2  -1  -3    9.75    0.55
   2   1   3   10.25    0.46
   2   1   3    9.55    0.49
  -3  -1  -3   44.18    1.27
  -3  -1  -3   44.72    1.43
  -3  -1  -3   44.37    1.43
   3   1   3   44.97    1.34
  -4  -1  -3    8.09    0.74
  -4  -1  -3    8.28    0.77
  -4  -1  -3    8.57    0.62
   4   1   3    7.90    0.59
  -5  -1  -3    0.71    0.62
  -5  -1  -3    0.40    0.68
  -5  -1  -3    0.21    0.42
   5   1   3   -0.29    0.41
  -6  -1  -3    0.30    0.52
  -6  -1  -3   -0.07    0.78
   6   1   3   -0.21    0.52
  -7  -1  -3    0.09    0.59
   7   1   3   -0.20    0.62
   8   1   3    2.18    0.80
  10  -2  -3    7.71    1.03
 -10   2   3    6.28    0.97
   9  -2  -3    9.72    0.96
  -9   2   3   10.14    0.92
   8  -2  -3    2.20    0.64
  -8   2   3    1.49    0.58
   7  -2  -3   13.37    0.90
   7  -2  -3   14.48    1.06
  -7   2   3   13.82    0.83
   6  -2  -3    3.41    0.49
   6  -2  -3    3.99    0.67
   6  -2  -3    4.27    0.73
  -6   2   3    3.66    0.47
   5  -2  -3   53.57    1.66
   5  -2  -3   51.97    1.69
   5  -2  -3   53.28    1.54
  -5   2   3   53.20    1.54
   4  -2  -3   23.68    0.92
   4  -2  -3   22.33    0.88
   4  -2  -3   22.87    0.77
  -4   2   3   23.12    0.80
  -4   2   3   21.78    0.75
   3  -2  -3    2.97    0.38
   3  -2  -3    3.40    0.24
   3  -2  -3    2.87    0.34
   3  -2  -3    3.25    0.25
  -3   2   3    3.48    0.27
  -3   2   3    3.33    0.26
   2  -2  -3    4.26    0.48
   2  -2  -3    5.05    0.32
   2  -2  -3    5.85    0.40
   2  -2  -3    6.26    0.29
  -2   2   3    5.36    0.26
  -2   2   3    5.37    0.27
   1  -2  -3  567.80   12.47
   1  -2  -3  548.92   14.29
  -1   2   3  564.33   12.39
   0  -2  -3  608.94   15.86
   0  -2  -3  629.05   13.86
   0   2   3  618.11   13.70
   0   2   3  632.14   14.45
   0   2   3  616.98   14.44
  -1  -2  -3   71.16    1.83
  -1  -2  -3   72.67    1.76
  -1  -2  -3   72.09    1.81
   1   2   3   71.75    1.76
   1   2   3   69.84    1.74
   1   2   3   70.62    1.79
  -2  -2  -3   12.00    0.56
  -2  -2  -3   11.28    0.46
  -2  -2  -3   11.65    0.63
  -2  -2  -3   11.07    0.61
   2   2   3   11.82    0.50
   2   2   3   10.93    0.52
  -3  -2  -3   29.19    1.14
  -3  -2  -3   30.04    1.16
  -3  -2  -3   30.51    0.95
   3   2   3   28.54    1.00
   3   2   3   30.26    0.97
  -4  -2  -3    8.12    0.75
  -4  -2  -3    7.75    0.55
  -4  -2  -3    8.08    0.78
   4   2   3    6.51    0.58
  -5  -2  -3   40.73    1.38
  -5  -2  -3   39.96    1.58
  -5  -2  -3   41.58    1.55
   5   2   3   38.27    1.37
  -6  -2  -3   49.28    2.01
  -6  -2  -3   51.74    1.72
   6   2   3   51.45    1.77
   7   2   3    1.06    0.67
   8   2   3    3.67    0.84
  10  -3  -3   16.72    1.24
 -10   3   3   15.33    1.20
   9  -3  -3   24.44    1.31
  -9   3   3   21.77    1.21
   8  -3  -3   18.92    1.10
  -8   3   3   18.51    1.01
   7  -3  -3    0.19    0.49
   7  -3  -3    0.75    0.69
  -7   3   3   -0.05    0.43
   6  -3  -3   12.91    0.78
   6  -3  -3   13.25    0.96
   6  -3  -3   11.17    0.86
  -6   3   3   12.14    0.76
   5  -3  -3    1.43    0.51
   5  -3  -3    1.71    0.29
   5  -3  -3    0.76    0.36
   5  -3  -3    0.61    0.54
  -5   3   3    1.51    0.37
   4  -3  -3  263.49    6.33
   4  -3  -3  270.88    5.92
   4  -3  -3  267.18    6.46
   4  -3  -3  262.57    6.47
  -4   3   3  270.13    6.37
  -4   3   3  261.04    6.36
   3  -3  -3  163.66    3.93
   3  -3  -3  163.66    4.05
   3  -3  -3  164.06    4.06
  -3   3   3  168.47    3.99
  -3   3   3  171.03    3.99
   2  -3  -3  106.98    3.07
   2  -3  -3  107.76    2.62
   2  -3  -3  108.55    2.62
   2  -3  -3  108.32    2.41
  -2   3   3  108.00    2.59
  -2   3   3  112.77    2.59
   1  -3  -3  148.49    3.31
   1  -3  -3  143.44    4.03
  -1   3   3  149.95    3.32
   0  -3  -3    6.54    0.59
   0   3   3    6.39    0.35
  -1  -3  -3   24.60    0.78
  -1  -3  -3   25.05    0.77
   1   3   3   26.04    0.72
   1   3   3   26.03    0.79
   1   3   3   23.00    0.72
  -2  -3  -3   61.63    1.75
  -2  -3  -3   63.02    1.63
  -2  -3  -3   62.98    1.77
   2   3   3   62.81    1.68
   2   3   3   65.88    1.67
  -3  -3  -3    2.61    0.58
  -3  -3  -3    2.56    0.52
  -3  -3  -3    1.99    0.33
   3   3   3    2.55    0.40
   3   3   3    3.02    0.36
  -4  -3  -3    0.60    0.37
  -4  -3  -3    0.22    0.61
  -4  -3  -3    0.32    0.56
   4   3   3    0.28    0.39
  -5  -3  -3   72.45    2.04
  -5  -3  -3   70.60    2.30
  -5  -3  -3   69.83    2.25
   5   3   3   70.98    2.12
  -6  -3  -3   12.14    1.08
   6   3   3   11.53    0.89
   7   3   3    0.49    0.68
 -10   4   3   -0.30    0.70
   9  -4  -3    7.09    0.86
  -9   4   3    6.79    0.85
   8  -4  -3   -0.01    0.60
  -8   4   3    0.32    0.57
   7  -4  -3    5.73    0.64
   7  -4  -3    6.65    0.84
   7  -4  -3    5.70    0.74
  -7   4   3    6.81    0.68
   6  -4  -3    4.31    0.73
   6  -4  -3    5.50    0.72
   6  -4  -3    5.80    0.42
   6  -4  -3    5.35    0.53
  -6   4   3    4.50    0.52
   5  -4  -3   58.22    1.80
   5  -4  -3   59.42    1.82
   5  -4  -3   58.20    1.63
   5  -4  -3   60.41    1.45
  -5   4   3   58.54    1.67
   4  -4  -3  154.73    3.93
   4  -4  -3  154.40    3.91
   4  -4  -3  156.71    3.77
   4  -4  -3  159.52    3.50
  -4   4   3  155.26    3.83
  -4   4   3  158.59    3.84
   3  -4  -3  173.52    4.88
   3  -4  -3  178.97    4.31
   3  -4  -3  175.20    4.28
  -3   4   3  174.26    4.22
  -3   4   3  180.03    4.22
   2  -4  -3    4.98    0.55
  -2   4   3    6.11    0.25
  -2   4   3    5.41    0.28
   1  -4  -3   39.47    1.49
  -1   4   3   39.49    0.97
   0  -4  -3    7.88    0.71
   0   4   3    7.53    0.29
   0   4   3    7.29    0.27
   0   4   3    7.49    0.42
  -1  -4  -3   42.88    1.21
  -1  -4  -3   43.82    1.22
   1   4   3   44.14    1.15
   1   4   3   43.41    1.16
  -2  -4  -3  218.92    5.35
  -2  -4  -3  215.32    5.34
   2   4   3  216.25    5.26
   2   4   3  222.59    5.25
  -3  -4  -3   48.36    1.56
  -3  -4  -3   46.24    1.55
   3   4   3   49.15    1.44
  -4  -4  -3   32.69    1.38
  -4  -4  -3   34.75    1.38
  -4  -4  -3   34.79    1.13
   4   4   3   32.89    1.20
  -5  -4  -3   -0.53    0.67
  -5  -4  -3    0.39    0.75
   5   4   3   -0.04    0.49
  -6  -4  -3   13.52    1.18
   6   4   3   12.43    0.91
   7   4   3    6.71    0.87
  -9   5   3    1.21    0.69
   8  -5  -3   28.25    1.30
  -8   5   3   27.03    1.21
   7  -5  -3   61.76    2.01
   7  -5  -3   58.71    2.00
   7  -5  -3   61.67    1.85
  -7   5   3   58.22    1.86
   6  -5  -3  102.40    2.82
   6  -5  -3  100.55    2.61
   6  -5  -3   97.89    2.82
  -6   5   3   95.11    2.66
   5  -5  -3   29.38    0.76
   5  -5  -3   27.34    1.16
   5  -5  -3   27.87    1.15
   5  -5  -3   27.38    0.91
  -5   5   3   27.23    0.98
   4  -5  -3    4.65    0.26
   4  -5  -3    4.88    0.71
   4  -5  -3    4.99    0.29
   4  -5  -3    4.98    0.55
   4  -5  -3    4.94    0.52
  -4   5   3    4.41    0.38
  -4   5   3    5.26    0.39
   3  -5  -3   11.40    0.59
   3  -5  -3   10.34    0.68
   3  -5  -3    9.48    0.79
   3  -5  -3   10.98    0.66
  -3   5   3   10.84    0.48
  -3   5   3   11.65    0.47
   2  -5  -3  196.54    4.72
   2  -5  -3  195.37    5.43
  -2   5   3  204.84    4.67
  -2   5   3  196.97    4.69
   1  -5  -3   20.65    1.10
  -1   5   3   21.17    0.61
   0   5   3    1.63    0.26
   0   5   3    1.58    0.19
   0   5   3    1.42    0.17
  -1  -5  -3   52.50    1.48
  -1  -5  -3   54.09    1.51
   1   5   3   54.21    1.43
   1   5   3   57.32    1.43
  -2  -5  -3   36.95    1.26
  -2  -5  -3   36.91    1.25
   2   5   3   36.36    1.12
   2   5   3   38.91    1.14
  -3  -5  -3   12.44    0.83
  -3  -5  -3   12.86    0.86
   3   5   3   13.06    0.69
  -4  -5  -3    3.72    0.72
  -4  -5  -3    4.36    0.76
   4   5   3    4.37    0.55
  -5  -5  -3    8.56    0.97
   5   5   3    8.36    0.74
  -6  -5  -3    1.27    0.99
   6   5   3    0.76    0.64
  -9   6   3    2.52    0.70
   8  -6  -3    8.63    1.04
  -8   6   3    8.81    0.81
   7  -6  -3   55.11    1.94
   7  -6  -3   54.55    1.92
  -7   6   3   50.29    1.71
   6  -6  -3    9.72    0.83
   6  -6  -3    9.43    0.64
   6  -6  -3   10.19    0.85
  -6   6   3   10.28    0.72
   5  -6  -3   38.13    1.40
   5  -6  -3   39.50    1.36
   5  -6  -3   38.20    1.73
  -5   6   3   39.64    1.24
   4  -6  -3    1.34    0.64
   4  -6  -3    1.02    0.46
   4  -6  -3    0.94    0.51
  -4   6   3    0.77    0.30
  -4   6   3    0.78    0.28
   3  -6  -3   24.00    1.23
   3  -6  -3   22.94    0.99
   3  -6  -3   23.56    0.84
  -3   6   3   23.01    0.77
  -3   6   3   25.03    0.76
   2  -6  -3  118.61    3.47
   2  -6  -3  111.99    2.77
   2  -6  -3  113.37    2.83
  -2   6   3  117.45    2.76
  -2   6   3  111.92    2.79
   1  -6  -3   62.51    2.21
  -1   6   3   65.16    1.61
  -1   6   3   64.18    1.57
  -1   6   3   64.73    1.55
   0  -6  -3   79.05    2.07
   0  -6  -3   79.11    1.99
   0   6   3   78.42    1.96
   0   6   3   80.46    1.96
   0   6   3   81.98    2.00
  -1  -6  -3    1.12    0.44
  -1  -6  -3    2.39    0.42
   1   6   3    2.72    0.30
   1   6   3    2.79    0.31
  -2  -6  -3    0.66    0.45
  -2  -6  -3    1.11    0.49
   2   6   3    0.80    0.31
   2   6   3    0.38    0.31
  -3  -6  -3   20.78    1.08
  -3  -6  -3   20.81    1.05
   3   6   3   20.86    0.89
  -4  -6  -3   74.86    2.33
  -4  -6  -3   72.64    2.26
   4   6   3   71.85    2.12
  -5  -6  -3    8.00    1.00
   5   6   3    8.48    0.76
   6   6   3    0.87    0.64
  -9   7   3    4.70    0.82
   8  -7  -3    2.43    0.88
  -8   7   3    1.21    0.64
   7  -7  -3   -1.09    0.70
  -7   7   3   -0.28    0.50
   6  -7  -3   63.94    1.96
   6  -7  -3   56.43    2.41
   6  -7  -3   62.72    2.00
  -6   7   3   58.49    1.81
   5  -7  -3   70.19    2.15
   5  -7  -3   68.20    2.51
   5  -7  -3   70.05    2.08
  -5   7   3   73.57    1.99
   4  -7  -3   19.09    1.22
   4  -7  -3   17.10    0.90
   4  -7  -3   17.44    1.00
  -4   7   3   18.07    0.75
  -4   7   3   20.07    0.80
   3  -7  -3   14.98    0.72
   3  -7  -3   14.90    1.10
   3  -7  -3   15.14    0.92
  -3   7   3   12.53    0.61
  -3   7   3   15.32    0.61
   2  -7  -3    8.34    0.54
   2  -7  -3    8.26    0.86
   2  -7  -3    7.00    0.55
  -2   7   3    7.84    0.44
  -2   7   3    7.57    0.44
   1  -7  -3   33.39    0.99
   1  -7  -3   34.38    1.62
   1  -7  -3   33.28    1.03
  -1   7   3   33.56    0.94
  -1   7   3   35.94    1.03
  -1   7   3   33.58    0.94
   0  -7  -3   14.04    0.66
   0  -7  -3   13.94    0.84
   0   7   3   14.38    0.56
   0   7   3   14.99    0.61
  -1  -7  -3   36.95    1.24
  -1  -7  -3   36.10    1.19
   1   7   3   37.61    1.10
  -2  -7  -3    2.27    0.55
  -2  -7  -3    2.95    0.58
   2   7   3    2.29    0.39
  -3  -7  -3   23.31    1.15
  -3  -7  -3   22.77    1.18
   3   7   3   23.28    0.97
  -4  -7  -3    4.01    0.77
  -4  -7  -3    5.05    0.86
   4   7   3    5.91    0.65
  -5  -7  -3    1.08    0.92
   5   7   3    0.95    0.58
  -9   8   3    4.30    0.82
   8  -8  -3    2.67    1.07
   8  -8  -3    2.59    0.94
  -8   8   3    1.59    0.65
   7  -8  -3    4.45    0.97
   7  -8  -3    5.69    0.88
  -7   8   3    5.38    0.66
   6  -8  -3    7.44    0.84
   6  -8  -3    8.28    0.85
   6  -8  -3    7.80    1.08
  -6   8   3    8.28    0.67
   5  -8  -3   27.35    1.19
   5  -8  -3   28.72    1.30
   5  -8  -3   26.55    1.62
  -5   8   3   27.09    1.02
   4  -8  -3   54.10    2.13
   4  -8  -3   50.09    1.58
   4  -8  -3   48.99    1.68
   4  -8  -3   50.01    1.69
  -4   8   3   52.63    1.51
   3  -8  -3    4.47    0.50
   3  -8  -3    4.41    0.64
   3  -8  -3    3.81    0.76
  -3   8   3    4.04    0.43
   2  -8  -3    2.77    0.43
   2  -8  -3    1.93    0.51
   2  -8  -3    1.57    0.77
  -2   8   3    1.66    0.37
  -2   8   3    1.93    0.36
  -2   8   3    2.07    0.33
   1  -8  -3    8.52    0.62
   1  -8  -3    8.71    1.06
   1  -8  -3    9.02    0.62
  -1   8   3    9.76    0.61
  -1   8   3    9.47    0.50
   0  -8  -3  139.21    3.56
   0  -8  -3  138.15    3.48
   0   8   3  139.04    3.41
  -1  -8  -3   46.47    1.49
  -1  -8  -3   46.09    1.45
   1   8   3   47.72    1.36
  -2  -8  -3    7.46    0.71
  -2  -8  -3    7.05    0.70
   2   8   3    7.04    0.56
  -3  -8  -3    0.05    0.63
  -3  -8  -3   -0.06    0.67
   3   8   3   -0.22    0.44
  -4  -8  -3    2.44    0.77
  -4  -8  -3    1.85    0.82
   4   8   3    0.89    0.56
  -5  -8  -3    1.03    0.98
   5   8   3    0.02    0.59
   8  -9  -3   20.26    1.38
   8  -9  -3   17.83    1.61
  -8   9   3   19.11    1.16
   7  -9  -3    0.80    0.98
   7  -9  -3    1.91    0.81
  -7   9   3    1.83    0.59
   6  -9  -3    0.64    0.72
   6  -9  -3   -0.41    0.73
   6  -9  -3    0.03    0.87
  -6   9   3   -0.52    0.50
   5  -9  -3   17.07    1.03
   5  -9  -3   15.06    1.26
   5  -9  -3   15.35    1.12
  -5   9   3   15.88    0.86
   4  -9  -3    1.06    0.66
   4  -9  -3    2.43    0.87
   4  -9  -3    1.70    0.58
  -4   9   3    1.64    0.45
   3  -9  -3   29.22    1.34
   3  -9  -3   33.88    1.78
   3  -9  -3   30.54    1.16
  -3   9   3   34.56    1.12
   2  -9  -3   17.91    1.00
   2  -9  -3   19.44    1.41
   2  -9  -3   18.86    0.91
  -2   9   3   20.06    0.84
   1  -9  -3   21.42    1.00
   1  -9  -3   25.33    1.13
  -1   9   3   26.20    0.90
   0  -9  -3    4.84    0.68
   0  -9  -3    5.04    0.57
   0   9   3    5.11    0.44
  -1  -9  -3    3.29    0.59
  -1  -9  -3    4.30    0.65
   1   9   3    3.31    0.46
  -2  -9  -3    1.05    0.67
  -2  -9  -3    0.59    0.60
   2   9   3   -0.08    0.45
  -3  -9  -3    5.31    0.85
  -3  -9  -3    4.30    0.80
   3   9   3    4.80    0.62
  -4  -9  -3    0.21    0.86
   4   9   3    0.48    0.59
   8 -10  -3    7.81    1.31
   8 -10  -3    5.77    1.08
  -8  10   3    5.67    0.83
   7 -10  -3    0.03    1.00
   7 -10  -3    0.10    0.81
  -7  10   3    0.03    0.62
   6 -10  -3    1.31    0.81
   6 -10  -3    0.79    0.72
   6 -10  -3    0.39    0.87
  -6  10   3    0.32    0.54
   5 -10  -3   -0.21    0.78
   5 -10  -3    1.19    0.75
   5 -10  -3   -0.64    0.66
  -5  10   3    0.50    0.50
   4 -10  -3   27.51    1.22
   4 -10  -3   24.91    1.35
   4 -10  -3   27.37    1.76
  -4  10   3   26.61    1.08
   3 -10  -3   46.71    2.08
   3 -10  -3   41.10    1.67
   3 -10  -3   46.31    1.57
  -3  10   3   48.56    1.47
   2 -10  -3   33.06    1.39
   2 -10  -3   39.12    2.01
   2 -10  -3   35.88    1.39
  -2  10   3   34.69    1.23
   1 -10  -3    0.52    0.68
   1 -10  -3    0.02    0.56
  -1  10   3    0.62    0.41
   0 -10  -3    1.89    0.68
   0 -10  -3    1.78    0.59
   0  10   3    2.00    0.44
  -1 -10  -3   -0.22    0.61
  -1 -10  -3    0.40    0.64
   1  10   3    0.62    0.43
  -2 -10  -3   16.41    1.15
  -2 -10  -3   13.03    0.97
   2  10   3   16.41    0.93
  -3 -10  -3   10.51    1.00
  -3 -10  -3    9.06    1.02
   3  10   3   10.41    0.82
   7 -11  -3    7.30    1.07
   7 -11  -3    7.48    1.29
  -7  11   3    6.20    0.82
   6 -11  -3   18.52    1.34
   6 -11  -3   20.59    1.40
   6 -11  -3   16.15    1.47
  -6  11   3   18.56    1.11
   5 -11  -3   17.73    1.17
   5 -11  -3   18.11    1.49
   5 -11  -3   15.20    1.17
  -5  11   3   15.99    1.00
   4 -11  -3    1.23    0.71
   4 -11  -3    2.51    1.02
   4 -11  -3    1.79    0.80
  -4  11   3    1.63    0.54
   3 -11  -3    3.90    0.85
   3 -11  -3    1.52    0.95
   3 -11  -3    3.16    0.74
  -3  11   3    2.49    0.56
   2 -11  -3    2.43    0.78
   2 -11  -3    0.86    0.73
   2 -11  -3    0.42    1.02
  -2  11   3    2.10    0.54
   1 -11  -3    9.33    0.86
   1 -11  -3   10.58    0.98
  -1  11   3    9.22    0.71
   0 -11  -3    0.74    0.73
   0 -11  -3    1.57    0.69
   0  11   3    0.14    0.47
  -1 -11  -3    4.27    0.77
  -1 -11  -3    3.48    0.80
   1  11   3    3.03    0.56
  -2 -11  -3    8.09    0.94
  -2 -11  -3    7.21    0.94
   2  11   3    6.14    0.68
   5 -12  -3    1.03    0.88
   5 -12  -3    1.50    0.97
   5 -12  -3    2.37    1.11
  -5  12   3    0.41    0.59
   4 -12  -3    2.44    0.84
   4 -12  -3    1.17    1.01
   4 -12  -3    2.65    0.93
  -4  12   3    1.46    0.60
   3 -12  -3    1.24    0.80
   3 -12  -3    0.70    0.84
   3 -12  -3   -0.25    0.95
  -3  12   3   -0.01    0.55
   2 -12  -3    8.33    1.01
   2 -12  -3    6.99    0.97
  -2  12   3    9.17    0.76
   1 -12  -3   12.29    1.10
   1 -12  -3   11.90    1.02
  -1  12   3   12.45    0.85
  -1  12   3   12.40    0.85
   0 -12  -3   10.52    1.03
   0 -12  -3   10.26    0.99
   0  14  -4   12.33    1.10
  -1  14  -4    5.38    0.91
  -2  14  -4    3.26    0.84
  -3  14  -4    3.03    0.86
   2  13  -4    6.36    0.93
   1  13  -4    9.95    1.01
   0  13  -4    3.86    0.71
   0  13  -4    3.49    0.79
   0  13  -4    3.14    0.79
   0 -13   4    3.41    1.19
  -1  13  -4    9.81    0.84
  -1  13  -4   11.83    1.03
   1 -13   4    9.94    1.37
  -2  13  -4    8.75    0.94
  -3  13  -4    3.94    0.85
  -4  13  -4    4.16    0.90
  -5  13  -4    2.00    0.89
   4  12  -4   10.07    1.04
   3  12  -4    4.07    0.81
   2  12  -4   -0.19    0.67
  -2 -12   4    0.66    1.07
   1  12  -4    7.98    0.86
  -1 -12   4    8.83    1.25
   0  12  -4    1.38    0.59
   0  12  -4    0.82    0.67
   0  12  -4    1.21    0.68
   0 -12   4    3.97    1.13
  -1  12  -4   18.61    1.18
  -1  12  -4   16.48    1.01
   1 -12   4   17.84    1.47
  -2  12  -4   26.32    1.17
  -2  12  -4   22.84    1.24
   2 -12   4   27.73    1.81
  -3  12  -4   13.59    0.87
  -3  12  -4   14.91    1.08
  -4  12  -4    3.92    0.86
  -5  12  -4    8.79    1.00
  -6  12  -4    1.35    0.87
   5  11  -4    9.95    1.04
   4  11  -4    9.29    0.90
   3  11  -4    2.98    0.72
   2  11  -4   20.97    1.20
  -2 -11   4   19.31    1.47
   1  11  -4   37.59    1.53
  -1 -11   4   35.92    1.91
   0  11  -4   14.59    1.03
   0  11  -4   17.72    0.98
   0  11  -4   14.87    1.06
   0 -11   4   15.25    1.33
  -1  11  -4    6.43    0.66
  -1  11  -4    6.99    0.82
   1 -11   4    6.41    1.10
  -2  11  -4   10.34    0.92
  -2  11  -4   11.82    0.80
   2 -11   4   13.27    0.90
   2 -11   4   13.32    1.30
  -3  11  -4    3.55    0.71
  -3  11  -4    3.87    0.60
   3 -11   4    4.38    1.12
   3 -11   4    4.65    0.67
  -4  11  -4    0.55    0.70
  -4  11  -4    1.36    0.56
   4 -11   4    1.53    0.62
  -5  11  -4    0.10    0.57
  -5  11  -4    1.57    0.76
   5 -11   4   -0.25    0.60
  -6  11  -4    7.62    1.02
   6  10  -4   -0.80    0.71
   5  10  -4    0.32    0.64
   4  10  -4    0.35    0.64
   3  10  -4    3.64    0.67
  -3 -10   4    1.45    0.96
   2  10  -4   37.03    1.51
  -2 -10   4   42.33    1.89
  -2 -10   4   39.37    1.61
   1  10  -4   31.15    1.30
  -1 -10   4   30.35    1.60
  -1 -10   4   35.28    1.73
  -1 -10   4   32.89    1.44
   0  10  -4    3.12    0.63
   0  10  -4    4.01    0.60
   0  10  -4    2.85    0.59
   0 -10   4    3.47    0.90
   0 -10   4    3.23    0.71
   0 -10   4    4.51    0.99
  -1  10  -4   31.73    1.32
  -1  10  -4   32.41    1.21
   1 -10   4   37.14    1.82
   1 -10   4   29.81    1.37
   1 -10   4   34.92    1.76
  -2  10  -4    3.88    0.69
  -2  10  -4    3.97    0.59
   2 -10   4    3.76    0.57
   2 -10   4    3.88    0.98
   2 -10   4    3.83    0.72
   2 -10   4    3.49    0.97
  -3  10  -4   27.51    1.12
  -3  10  -4   26.64    1.25
   3 -10   4   28.20    1.23
   3 -10   4   26.73    1.39
   3 -10   4   27.08    1.54
  -4  10  -4   46.88    1.51
  -4  10  -4   47.37    1.76
   4 -10   4   47.96    1.83
   4 -10   4   47.22    1.69
  -5  10  -4   44.93    1.52
  -5  10  -4   41.31    1.75
   5 -10   4   45.98    1.75
   5 -10   4   44.10    1.84
  -6  10  -4    7.25    0.91
  -6  10  -4    5.26    0.71
   6 -10   4    6.90    1.02
   6 -10   4    8.14    0.98
  -7  10  -4    0.35    0.79
   6   9  -4    4.74    0.85
   5   9  -4   47.23    1.73
   4   9  -4   17.90    1.01
  -4  -9   4   17.41    1.34
  -4  -9   4   16.95    1.16
   3   9  -4    8.88    0.78
  -3  -9   4    8.28    0.99
  -3  -9   4   10.45    0.89
   2   9  -4   38.33    1.43
  -2  -9   4   41.72    1.63
  -2  -9   4   41.90    1.78
  -2  -9   4   40.02    1.71
   1   9  -4    5.60    0.64
  -1  -9   4    7.02    0.88
  -1  -9   4    6.44    0.75
  -1  -9   4    5.63    0.97
   0   9  -4   17.93    1.02
   0   9  -4   17.08    1.03
   0   9  -4   18.45    0.93
   0  -9   4   19.33    1.18
   0  -9   4   20.57    1.48
   0  -9   4   17.44    1.19
  -1   9  -4    9.12    0.78
  -1   9  -4    8.19    0.65
   1  -9   4    8.71    1.08
   1  -9   4    8.02    1.05
   1  -9   4    7.52    0.80
  -2   9  -4   18.81    1.06
  -2   9  -4   17.52    0.90
   2  -9   4   16.96    0.89
   2  -9   4   16.92    1.22
   2  -9   4   19.00    1.11
   2  -9   4   19.31    1.31
  -3   9  -4   19.68    0.98
  -3   9  -4   20.23    1.08
   3  -9   4   22.61    1.61
   3  -9   4   21.12    1.19
   3  -9   4   22.37    1.03
   3  -9   4   19.74    1.34
  -4   9  -4   39.56    1.54
  -4   9  -4   42.38    1.37
   4  -9   4   41.51    1.79
   4  -9   4   38.95    1.65
   4  -9   4   40.92    1.55
  -5   9  -4    0.21    0.49
  -5   9  -4    0.12    0.61
   5  -9   4   -0.06    0.71
  -6   9  -4    3.37    0.66
  -6   9  -4    4.75    0.86
   6  -9   4    4.87    0.95
  -7   9  -4    1.02    0.64
  -7   9  -4    0.70    0.81
   7  -9   4   -0.16    0.86
   7   8  -4    0.85    0.74
   6   8  -4   11.77    0.98
   5   8  -4   22.87    1.13
  -5  -8   4   24.01    1.30
   4   8  -4    0.18    0.52
  -4  -8   4    0.35    0.81
  -4  -8   4    0.61    0.60
   3   8  -4   11.89    0.87
  -3  -8   4   13.77    0.99
  -3  -8   4   11.35    1.02
  -3  -8   4   14.59    1.11
   2   8  -4    2.71    0.51
  -2  -8   4    3.30    0.67
  -2  -8   4    2.81    0.88
  -2  -8   4    2.60    0.81
   1   8  -4    0.27    0.47
  -1  -8   4    0.09    0.76
  -1  -8   4    0.91    0.77
  -1  -8   4    0.22    0.56
   0   8  -4   61.97    1.96
   0   8  -4   63.34    1.95
   0   8  -4   61.30    1.81
   0  -8   4   64.43    2.19
   0  -8   4   68.31    2.28
   0  -8   4   64.53    2.06
  -1   8  -4  194.96    4.95
  -1   8  -4  195.38    4.62
   1  -8   4  199.68    5.20
   1  -8   4  195.81    5.18
   1  -8   4  186.15    5.01
   1  -8   4  192.31    5.10
  -2   8  -4   38.54    1.42
  -2   8  -4   39.13    1.31
   2  -8   4   40.05    1.54
   2  -8   4   42.42    1.91
   2  -8   4   38.46    1.67
   2  -8   4   39.41    1.31
  -3   8  -4   27.94    1.06
  -3   8  -4   26.43    1.24
   3  -8   4   27.28    1.71
   3  -8   4   27.53    1.12
   3  -8   4   27.73    1.31
   3  -8   4   29.35    1.60
  -4   8  -4    0.66    0.53
  -4   8  -4    1.06    0.47
   4  -8   4    0.88    0.83
   4  -8   4    1.96    0.67
  -5   8  -4   53.63    1.89
  -5   8  -4   52.82    1.65
   5  -8   4   55.38    1.99
  -6   8  -4   32.20    1.46
  -6   8  -4   32.44    1.33
   6  -8   4   35.92    1.65
  -7   8  -4    8.98    0.83
  -7   8  -4    8.13    0.94
   7  -8   4    8.83    1.08
  -8   8  -4    2.06    0.85
   8  -8   4    3.44    0.96
   7   7  -4    8.43    0.88
  -7  -7   4    9.16    1.00
   6   7  -4   23.06    1.16
  -6  -7   4   22.91    1.30
   5   7  -4   -0.02    0.53
  -5  -7   4   -0.20    0.80
  -5  -7   4    0.38    0.60
   4   7  -4    9.44    0.74
  -4  -7   4   13.33    0.98
  -4  -7   4   11.79    0.98
  -4  -7   4   10.77    0.84
   3   7  -4   64.57    1.93
  -3  -7   4   62.54    2.00
  -3  -7   4   64.37    2.14
  -3  -7   4   65.58    2.13
   2   7  -4   45.84    1.47
  -2  -7   4   47.05    1.79
  -2  -7   4   46.51    1.56
  -2  -7   4   43.87    1.77
   1   7  -4    4.69    0.53
  -1  -7   4    9.26    0.89
  -1  -7   4    5.16    0.79
  -1  -7   4    5.71    0.67
   0   7  -4  141.92    3.44
   0   7  -4  138.41    3.65
   0   7  -4  138.78    3.78
   0   7  -4  137.06    3.64
   0  -7   4  145.19    3.84
   0  -7   4  143.32    3.75
   0  -7   4  139.22    3.84
  -1   7  -4   -0.27    0.40
  -1   7  -4    0.35    0.40
  -1   7  -4    1.20    0.73
   1  -7   4   -0.02    0.75
   1  -7   4    1.07    0.54
   1  -7   4   -0.13    0.73
   1  -7   4    0.44    0.29
  -2   7  -4   40.38    1.76
  -2   7  -4   41.93    1.29
  -2   7  -4   42.01    1.43
   2  -7   4   41.66    1.73
   2  -7   4   38.47    1.82
   2  -7   4   43.23    1.32
   2  -7   4   42.41    1.50
  -3   7  -4    4.22    0.59
  -3   7  -4    5.67    0.89
  -3   7  -4    4.27    0.52
   3  -7   4    4.57    0.65
   3  -7   4    4.81    0.88
   3  -7   4    5.16    0.83
   3  -7   4    4.38    0.84
  -4   7  -4   10.30    0.78
  -4   7  -4   10.54    0.70
   4  -7   4   10.79    0.85
   4  -7   4   10.00    0.99
   4  -7   4    8.83    0.96
  -5   7  -4    1.89    0.62
  -5   7  -4    2.23    0.53
   5  -7   4    1.71    0.69
  -6   7  -4   16.77    1.08
  -6   7  -4   17.35    0.98
   6  -7   4   17.74    1.18
  -7   7  -4   16.40    1.16
  -7   7  -4   14.39    0.98
   7  -7   4   13.89    1.18
  -8   7  -4    0.61    0.78
   8  -7   4    1.63    0.94
   8   6  -4    0.90    0.77
  -8  -6   4   -0.18    0.74
   7   6  -4    0.12    0.66
  -7  -6   4   -0.46    0.69
   6   6  -4    0.84    0.55
  -6  -6   4    0.85    0.64
   5   6  -4    5.61    0.65
  -5  -6   4    6.50    0.88
  -5  -6   4    5.61    0.66
   4   6  -4   13.45    0.80
  -4  -6   4   14.51    0.86
  -4  -6   4   14.74    1.00
  -4  -6   4   12.98    0.98
   3   6  -4  188.41    4.83
   3   6  -4  186.02    4.72
  -3  -6   4  183.71    4.76
  -3  -6   4  190.42    4.90
  -3  -6   4  191.97    4.90
   2   6  -4   50.79    1.58
   2   6  -4   51.59    1.71
  -2  -6   4   52.13    1.83
  -2  -6   4   54.89    1.80
  -2  -6   4   55.83    1.70
   1   6  -4   53.30    1.61
   1   6  -4   55.12    1.81
   1   6  -4   52.48    1.55
  -1  -6   4   54.50    1.73
  -1  -6   4   54.07    1.81
  -1  -6   4   54.42    1.77
   0   6  -4   19.68    0.85
   0   6  -4   17.26    1.16
   0   6  -4   19.36    0.84
   0   6  -4   19.33    0.89
   0  -6   4   16.68    1.21
   0  -6   4   18.41    1.20
   0  -6   4   19.80    1.00
  -1   6  -4   80.90    2.11
  -1   6  -4   78.90    2.38
  -1   6  -4   82.57    2.27
   1  -6   4   76.74    2.46
   1  -6   4   82.60    2.43
   1  -6   4   79.91    2.15
   1  -6   4   80.86    2.35
  -2   6  -4  149.79    3.97
  -2   6  -4  148.04    3.58
  -2   6  -4  147.96    3.83
   2  -6   4  150.01    3.89
   2  -6   4  145.04    4.03
   2  -6   4  149.25    3.97
  -3   6  -4  153.66    3.74
  -3   6  -4  160.18    4.23
  -3   6  -4  149.78    4.01
   3  -6   4  154.04    4.08
   3  -6   4  155.67    4.19
   3  -6   4  160.15    4.20
   3  -6   4  153.22    4.15
  -4   6  -4   11.17    0.74
  -4   6  -4    7.93    0.70
  -4   6  -4   10.33    1.00
   4  -6   4   11.07    0.99
   4  -6   4    9.99    0.97
   4  -6   4    9.36    0.83
  -5   6  -4   12.44    0.75
  -5   6  -4   11.83    0.87
   5  -6   4   12.22    0.95
  -6   6  -4   21.29    1.06
  -6   6  -4   23.12    1.23
   6  -6   4   22.69    1.31
  -7   6  -4    7.16    0.85
   7  -6   4    8.11    0.98
  -8   6  -4   12.23    1.09
   8  -6   4   12.38    1.16
   8   5  -4    0.08    0.73
  -8  -5   4    0.95    0.76
   7   5  -4   35.03    1.45
  -7  -5   4   34.73    1.47
   6   5  -4   41.58    1.50
  -6  -5   4   39.82    1.54
   5   5  -4    8.32    0.71
  -5  -5   4    8.18    0.84
  -5  -5   4    8.09    0.72
  -5  -5   4    8.24    0.90
   4   5  -4  111.43    3.06
   4   5  -4  106.69    2.91
  -4  -5   4  107.17    3.07
  -4  -5   4  112.69    3.12
  -4  -5   4  105.84    2.92
   3   5  -4   12.06    0.83
   3   5  -4   12.48    0.74
  -3  -5   4   12.38    0.72
  -3  -5   4   11.58    0.81
  -3  -5   4   12.85    0.85
   2   5  -4   32.81    1.32
   2   5  -4   34.08    1.13
   2   5  -4   34.27    1.26
  -2  -5   4   34.16    1.33
  -2  -5   4   32.56    1.19
  -2  -5   4   31.79    1.27
   1   5  -4  133.00    3.51
   1   5  -4  132.94    3.48
   1   5  -4  133.56    3.53
  -1  -5   4  134.96    3.47
  -1  -5   4  136.73    3.56
  -1  -5   4  131.41    3.55
   0   5  -4  160.83    4.07
   0   5  -4  163.43    4.09
   0   5  -4  162.27    4.22
   0   5  -4  161.63    3.85
   0   5  -4  162.04    4.22
   0  -5   4  165.68    4.24
   0  -5   4  158.75    4.15
   0  -5   4  162.73    4.21
  -1   5  -4    0.93    0.58
  -1   5  -4    1.23    0.35
  -1   5  -4    1.03    0.37
  -1   5  -4    1.27    0.53
   1  -5   4    1.02    0.56
   1  -5   4    1.51    0.43
   1  -5   4    1.49    0.19
   1  -5   4    0.18    0.51
  -2   5  -4   39.02    1.31
  -2   5  -4   39.88    1.44
  -2   5  -4   39.58    1.19
  -2   5  -4   35.11    1.51
   2  -5   4   40.39    1.39
   2  -5   4   38.33    1.51
   2  -5   4   39.48    1.57
  -3   5  -4   39.02    1.56
  -3   5  -4   36.52    1.32
  -3   5  -4   37.32    1.18
   3  -5   4   40.70    1.59
   3  -5   4   37.06    1.50
   3  -5   4   40.22    1.41
  -4   5  -4    0.00    0.42
  -4   5  -4    0.74    0.66
  -4   5  -4    0.41    0.59
  -4   5  -4    0.70    0.42
   4  -5   4    2.22    0.73
   4  -5   4   -0.32    0.48
   4  -5   4    0.27    0.31
  -5   5  -4   19.32    0.99
  -5   5  -4   20.75    0.96
   5  -5   4   19.52    1.07
  -6   5  -4    0.74    0.59
  -6   5  -4    0.82    0.54
   6  -5   4   -0.72    0.63
  -7   5  -4   17.25    1.10
   7  -5   4   16.99    1.17
  -8   5  -4   16.45    1.20
   8  -5   4   20.87    1.44
   9   4  -4    0.34    0.79
  -9  -4   4   -0.07    0.81
   8   4  -4    1.61    0.72
  -8  -4   4    0.72    0.72
   7   4  -4   28.03    1.32
  -7  -4   4   28.09    1.35
   6   4  -4   11.52    0.83
  -6  -4   4   10.82    0.80
   5   4  -4   38.36    1.32
   5   4  -4   36.17    1.49
  -5  -4   4   37.97    1.38
  -5  -4   4   38.64    1.49
  -5  -4   4   33.91    1.62
   4   4  -4    5.62    0.51
   4   4  -4    7.10    0.64
   4   4  -4    5.38    0.71
  -4  -4   4    5.70    0.68
  -4  -4   4    5.34    0.64
  -4  -4   4    6.83    0.59
   3   4  -4    0.56    0.46
   3   4  -4    0.54    0.49
   3   4  -4    0.39    0.32
  -3  -4   4    0.00    0.43
  -3  -4   4    0.50    0.47
  -3  -4   4    0.84    0.37
   2   4  -4  102.88    2.73
   2   4  -4   98.20    2.61
  -2  -4   4   99.87    2.65
  -2  -4   4  102.42    2.72
  -2  -4   4  102.24    2.74
   1   4  -4  526.21   12.65
   1   4  -4  526.57   12.48
  -1  -4   4  524.31   12.65
  -1  -4   4  527.84   12.53
  -1  -4   4  531.08   12.67
   0   4  -4   94.60    2.49
   0   4  -4   96.42    2.61
   0   4  -4   95.56    2.36
   0  -4   4   96.24    2.62
   0  -4   4   97.51    2.59
   0  -4   4   88.82    2.57
  -1   4  -4   14.88    0.71
  -1   4  -4   16.33    0.99
  -1   4  -4   16.05    0.71
   1  -4   4   15.02    0.92
   1  -4   4   16.03    0.69
   1  -4   4   15.27    0.84
  -2   4  -4   96.24    2.53
  -2   4  -4   94.21    2.65
  -2   4  -4   97.68    2.39
  -2   4  -4   93.77    2.60
   2  -4   4   97.14    2.70
   2  -4   4   94.71    2.61
   2  -4   4   97.87    2.69
  -3   4  -4    9.75    0.70
  -3   4  -4    6.93    0.55
  -3   4  -4    7.06    0.52
  -3   4  -4    8.55    0.73
   3  -4   4    7.53    0.64
   3  -4   4    8.65    0.75
  -4   4  -4   62.75    1.75
  -4   4  -4   61.83    1.87
  -4   4  -4   61.59    2.03
  -4   4  -4   63.31    2.04
   4  -4   4   60.77    2.05
   4  -4   4   61.68    2.04
   4  -4   4   60.56    1.90
  -5   4  -4  117.92    3.35
  -5   4  -4  112.77    2.93
  -5   4  -4  111.67    3.11
   5  -4   4  114.60    3.17
  -6   4  -4   39.80    1.43
  -6   4  -4   41.29    1.53
   6  -4   4   36.98    1.58
  -7   4  -4    0.18    0.67
   7  -4   4    0.09    0.65
  -8   4  -4    2.02    0.83
   8  -4   4    2.46    0.87
   9   3  -4    4.15    0.84
  -9  -3   4    4.90    0.91
   8   3  -4   21.42    1.28
  -8  -3   4   22.22    1.20
   7   3  -4    6.30    0.76
  -7  -3   4    5.57    0.70
   6   3  -4    3.17    0.57
  -6  -3   4    1.63    0.51
   5   3  -4   85.42    2.39
   5   3  -4   85.13    2.50
  -5  -3   4   84.49    2.57
  -5  -3   4   84.70    2.38
   4   3  -4  278.28    6.80
   4   3  -4  278.18    6.90
  -4  -3   4  277.98    6.81
  -4  -3   4  287.30    6.94
   3   3  -4    2.38    0.42
   3   3  -4    1.76    0.33
   3   3  -4    1.93    0.33
  -3  -3   4    1.97    0.46
  -3  -3   4    2.09    0.33
   2   3  -4   68.68    1.89
   2   3  -4   69.20    1.95
   2   3  -4   69.43    1.85
  -2  -3   4   68.55    1.98
  -2  -3   4   65.62    1.83
   1   3  -4    8.33    0.63
   1   3  -4    8.53    0.59
   1   3  -4    9.50    0.59
   1   3  -4    8.01    0.55
  -1  -3   4    9.21    0.53
  -1  -3   4    7.75    0.50
  -1  -3   4    9.64    0.65
   0   3  -4    4.30    0.56
   0   3  -4    3.80    0.40
   0   3  -4    4.60    0.50
   0   3  -4    3.20    0.40
   0   3  -4    2.86    0.36
   0  -3   4    2.45    0.38
   0  -3   4    3.09    0.53
   0  -3   4    3.51    0.37
   0  -3   4    3.43    0.51
  -1   3  -4    2.44    0.47
  -1   3  -4    1.84    0.30
  -1   3  -4    1.64    0.32
  -1   3  -4    1.66    0.45
   1  -3   4    1.62    0.55
   1  -3   4    1.71    0.46
   1  -3   4    2.98    0.32
   1  -3   4    1.44    0.29
   1  -3   4    1.30    0.38
  -2   3  -4    3.57    0.54
  -2   3  -4    4.17    0.38
  -2   3  -4    3.48    0.39
  -2   3  -4    4.52    0.57
   2  -3   4    3.95    0.53
   2  -3   4    2.74    0.41
   2  -3   4    3.10    0.57
  -3   3  -4   13.69    0.85
  -3   3  -4   13.48    0.71
  -3   3  -4   11.86    0.70
  -3   3  -4   12.99    0.89
   3  -3   4   12.39    0.71
   3  -3   4   13.31    0.84
   3  -3   4   13.96    0.88
  -4   3  -4  122.51    3.17
  -4   3  -4  120.01    3.02
  -4   3  -4  121.75    3.36
  -4   3  -4  122.79    3.36
  -4   3  -4  124.17    3.39
   4  -3   4  123.23    3.40
   4  -3   4  117.43    3.24
  -5   3  -4  111.29    2.91
  -5   3  -4  113.24    3.06
  -5   3  -4  118.50    3.34
  -5   3  -4  115.72    3.30
   5  -3   4  107.66    3.10
  -6   3  -4    0.52    0.57
   6  -3   4   -0.13    0.59
  -7   3  -4    1.10    0.66
   7  -3   4    0.79    0.65
  -8   3  -4   -0.74    0.67
   8  -3   4    0.41    0.72
   9   2  -4    5.89    0.86
  -9  -2   4    4.76    0.83
   8   2  -4    0.47    0.65
  -8  -2   4   -0.03    0.59
   7   2  -4   -0.23    0.50
  -7  -2   4   -0.38    0.50
   6   2  -4    0.61    0.41
   6   2  -4    1.03    0.59
   6   2  -4    0.66    0.49
  -6  -2   4    0.68    0.63
  -6  -2   4    1.17    0.46
   5   2  -4  218.43    5.41
   5   2  -4  220.54    5.51
   5   2  -4  218.32    5.52
  -5  -2   4  219.07    5.52
  -5  -2   4  220.47    5.53
  -5  -2   4  212.51    5.39
   4   2  -4   66.52    1.96
   4   2  -4   67.38    1.87
   4   2  -4   64.65    1.94
  -4  -2   4   68.56    1.93
  -4  -2   4   66.87    2.00
  -4  -2   4   65.71    1.84
   3   2  -4   21.52    0.93
   3   2  -4   23.08    0.91
   3   2  -4   20.66    0.77
  -3  -2   4   21.13    0.99
  -3  -2   4   21.94    0.78
  -3  -2   4   21.71    0.87
   2   2  -4   71.30    1.90
   2   2  -4   71.83    1.94
   2   2  -4   72.59    2.04
   2   2  -4   72.36    1.87
  -2  -2   4   71.51    1.89
  -2  -2   4   73.58    1.99
  -2  -2   4   74.24    1.90
  -2  -2   4   68.69    1.94
   1   2  -4    0.09    0.26
   1   2  -4   -0.04    0.21
   1   2  -4    0.24    0.18
   1   2  -4   -0.13    0.32
   1   2  -4   -0.07    0.40
   1   2  -4    0.27    0.27
  -1  -2   4    0.28    0.24
  -1  -2   4    0.72    0.42
  -1  -2   4    0.13    0.21
  -1  -2   4    0.05    0.33
   0   2  -4    2.84    0.32
   0   2  -4    3.38    0.37
   0   2  -4    2.90    0.48
   0   2  -4    4.86    0.48
   0   2  -4    3.31    0.34
   0  -2   4    3.62    0.32
   0  -2   4    3.67    0.32
   0  -2   4    3.42    0.32
   0  -2   4    3.26    0.38
   0  -2   4    3.89    0.50
   0  -2   4    3.48    0.23
   0  -2   4    4.01    0.42
  -1   2  -4  603.79   14.37
  -1   2  -4  600.27   13.38
  -1   2  -4  597.88   14.32
  -1   2  -4  592.67   14.13
   1  -2   4  620.29   14.14
   1  -2   4  583.92   14.22
   1  -2   4  601.08   14.39
   1  -2   4  609.63   13.37
   1  -2   4  608.78   14.30
  -2   2  -4  390.92    9.38
  -2   2  -4  391.23    8.71
  -2   2  -4  383.11    9.34
  -2   2  -4  376.22    9.17
   2  -2   4  391.70    9.38
   2  -2   4  389.70    9.27
  -3   2  -4   43.59    1.54
  -3   2  -4   42.48    1.50
  -3   2  -4   42.68    1.44
  -3   2  -4   41.12    1.26
  -3   2  -4   40.99    1.25
   3  -2   4   40.94    1.36
   3  -2   4   42.87    1.53
  -4   2  -4   37.21    1.52
  -4   2  -4   38.54    1.26
  -4   2  -4   36.97    1.51
  -4   2  -4   35.57    1.23
   4  -2   4   34.15    1.27
   4  -2   4   37.39    1.56
  -5   2  -4   15.67    0.92
  -5   2  -4   15.38    1.09
  -5   2  -4   17.57    0.87
  -5   2  -4   17.32    1.15
   5  -2   4   13.35    0.88
  -6   2  -4   35.12    1.35
   6  -2   4   30.85    1.40
  -7   2  -4    6.14    0.76
   7  -2   4    5.60    0.82
  -8   2  -4    2.71    0.81
   8  -2   4    4.10    0.88
   9   1  -4    6.08    0.88
  -9  -1   4    6.08    0.88
   8   1  -4   69.67    2.25
  -8  -1   4   68.74    2.22
   7   1  -4   21.73    1.11
  -7  -1   4   21.53    1.03
   6   1  -4   35.72    1.56
   6   1  -4   37.18    1.52
   6   1  -4   36.62    1.28
  -6  -1   4   35.75    1.45
  -6  -1   4   35.26    1.27
   5   1  -4    8.00    0.78
   5   1  -4    9.51    0.64
   5   1  -4    9.82    0.72
  -5  -1   4    8.70    0.69
  -5  -1   4    9.78    0.68
   4   1  -4    2.65    0.38
   4   1  -4    1.92    0.53
   4   1  -4    2.84    0.46
  -4  -1   4    2.78    0.42
  -4  -1   4    2.63    0.50
  -4  -1   4    2.58    0.34
   3   1  -4   27.74    1.03
   3   1  -4   28.08    0.92
   3   1  -4   27.71    0.94
  -3  -1   4   26.27    1.04
  -3  -1   4   29.11    0.89
  -3  -1   4   27.43    0.87
  -3  -1   4   27.81    0.98
   2   1  -4  151.50    3.74
   2   1  -4  148.72    3.70
   2   1  -4  150.74    3.81
   2   1  -4  155.75    3.66
  -2  -1   4  144.88    3.78
  -2  -1   4  154.98    3.68
  -2  -1   4  153.43    3.70
  -2  -1   4  151.79    3.72
   1   1  -4   10.70    0.73
   1   1  -4   12.10    0.52
   1   1  -4   12.31    0.48
   1   1  -4   11.20    0.56
   1   1  -4   12.64    0.53
   1   1  -4   11.88    0.53
  -1  -1   4   11.36    0.53
  -1  -1   4   12.26    0.50
  -1  -1   4   12.59    0.51
  -1  -1   4   10.66    0.65
   0   1  -4  151.09    3.53
   0   1  -4  148.39    3.81
   0   1  -4  153.60    3.68
   0   1  -4  148.51    3.78
   0   1  -4  157.89    3.74
   0  -1   4  155.89    3.75
   0  -1   4  146.60    3.98
   0  -1   4  150.19    3.73
   0  -1   4  150.16    3.77
   0  -1   4  159.04    3.54
   0  -1   4  158.04    3.71
   0  -1   4  153.27    3.77
  -1   1  -4  416.81    9.99
  -1   1  -4  434.62    9.90
  -1   1  -4  416.43    9.94
  -1   1  -4  416.90    9.30
  -1   1  -4  408.00    9.93
  -1   1  -4  407.50    9.78
   1  -1   4  395.39    9.98
   1  -1   4  415.77    9.88
   1  -1   4  424.17    9.30
   1  -1   4  423.06    9.80
  -2   1  -4    7.31    0.42
  -2   1  -4    6.32    0.56
  -2   1  -4    6.71    0.55
  -2   1  -4    6.04    0.42
   2  -1   4    6.98    0.49
   2  -1   4    6.09    0.61
   2  -1   4    5.42    0.44
  -3   1  -4    0.40    0.51
  -3   1  -4    0.32    0.32
  -3   1  -4    0.33    0.31
  -3   1  -4    0.18    0.48
   3  -1   4    0.40    0.35
  -4   1  -4    3.75    0.67
  -4   1  -4    4.09    0.52
  -4   1  -4    1.91    0.65
  -4   1  -4    3.42    0.47
   4  -1   4    2.63    0.49
  -5   1  -4    5.19    0.84
  -5   1  -4    3.89    0.70
  -5   1  -4    4.79    0.57
   5  -1   4    3.78    0.57
  -6   1  -4   10.50    0.79
   6  -1   4    9.77    0.84
  -7   1  -4   33.45    1.45
   7  -1   4   34.80    1.47
   8  -1   4    5.88    0.93
  10   0  -4   -0.11    0.80
 -10   0   4   -0.01    0.79
   9   0  -4   14.33    1.10
  -9   0   4   16.42    1.18
   8   0  -4   18.25    1.12
  -8   0   4   15.93    1.01
   7   0  -4   26.26    1.16
  -7   0   4   23.98    1.07
   6   0  -4    0.41    0.45
   6   0  -4    0.07    0.54
   6   0  -4   -0.68    0.67
  -6   0   4    0.29    0.43
  -6   0   4    1.34    0.63
   5   0  -4    0.78    0.54
   5   0  -4   -0.22    0.47
   5   0  -4    0.51    0.38
  -5   0   4    0.72    0.33
  -5   0   4    0.16    0.49
   4   0  -4   31.46    1.03
   4   0  -4   34.24    1.20
   4   0  -4   31.91    1.09
  -4   0   4   32.08    1.01
  -4   0   4   32.46    1.12
   3   0  -4  223.73    5.53
   3   0  -4  221.50    5.42
   3   0  -4  224.57    5.49
  -3   0   4  228.88    5.47
  -3   0   4  227.67    5.42
  -3   0   4  230.31    5.43
   2   0  -4  670.90   15.62
   2   0  -4  654.04   15.47
   2   0  -4  669.95   15.63
   2   0  -4  671.38   15.67
  -2   0   4  677.41   15.58
  -2   0   4  655.93   15.58
  -2   0   4  633.35   15.54
   1   0  -4  183.63    4.45
   1   0  -4  184.09    4.36
   1   0  -4  181.18    4.37
   1   0  -4  181.57    4.21
   1   0  -4  183.32    4.83
   1   0  -4  186.57    4.51
  -1   0   4  187.87    4.22
  -1   0   4  186.93    4.43
  -1   0   4  188.84    4.84
  -1   0   4  183.63    4.41
   0   0  -4  234.86    5.33
   0   0  -4  245.38    5.59
   0   0  -4  237.34    5.70
   0   0  -4  236.66    5.66
   0   0  -4  234.17    5.55
   0   0  -4  230.29    6.15
   0   0   4  240.44    5.59
   0   0   4  233.01    5.65
   0   0   4  226.41    6.12
   0   0   4  241.11    5.34
  -1   0  -4   18.38    0.75
  -1   0  -4   18.08    0.76
  -1   0  -4   18.27    0.79
  -1   0  -4   18.22    0.59
  -1   0  -4   18.27    0.69
   1   0   4   18.71    0.62
   1   0   4   18.71    0.68
   1   0   4   18.58    0.69
  -2   0  -4   84.29    2.29
  -2   0  -4   83.78    2.27
  -2   0  -4   83.87    2.12
  -2   0  -4   84.63    2.14
   2   0   4   87.72    2.17
   2   0   4   81.35    2.21
  -3   0  -4  172.73    4.36
  -3   0  -4  170.44    4.35
  -3   0  -4  174.21    4.19
   3   0   4  165.97    4.27
  -4   0  -4   70.82    2.11
  -4   0  -4   63.82    1.84
  -4   0  -4   65.14    2.09
  -4   0  -4   63.64    1.84
   4   0   4   65.54    1.94
  -5   0  -4    2.85    0.51
  -5   0  -4    2.42    0.66
  -5   0  -4    3.56    0.79
   5   0   4    2.05    0.55
  -6   0  -4   15.56    1.02
   6   0   4   14.86    0.94
  -7   0  -4    4.79    0.75
   7   0   4    4.32    0.73
   8   0   4    1.70    0.81
  10  -1  -4   14.58    1.18
 -10   1   4   14.25    1.18
   9  -1  -4    0.59    0.66
  -9   1   4    1.41    0.65
   8  -1  -4    1.55    0.63
  -8   1   4    2.03    0.63
   7  -1  -4    9.85    0.93
   7  -1  -4    7.84    0.71
  -7   1   4    8.69    0.71
   6  -1  -4   97.72    2.77
   6  -1  -4  100.30    2.78
   6  -1  -4   96.20    2.64
  -6   1   4   95.12    2.63
   5  -1  -4    2.69    0.49
   5  -1  -4    2.66    0.57
   5  -1  -4    2.43    0.40
  -5   1   4    2.73    0.37
   4  -1  -4   48.51    1.40
   4  -1  -4   50.62    1.49
   4  -1  -4   50.89    1.55
  -4   1   4   53.66    1.43
  -4   1   4   48.93    1.39
   3  -1  -4  204.92    5.01
   3  -1  -4  209.27    4.90
   3  -1  -4  205.43    4.93
   3  -1  -4  206.32    5.04
  -3   1   4  201.32    4.93
  -3   1   4  209.61    4.95
   2  -1  -4   65.95    1.64
   2  -1  -4   65.33    1.69
   2  -1  -4   67.22    1.98
   2  -1  -4   67.85    1.61
   2  -1  -4   67.80    1.78
  -2   1   4   65.40    1.65
  -2   1   4   65.33    1.68
   1  -1  -4    1.37    0.23
   1  -1  -4    1.81    0.20
   1  -1  -4    1.66    0.25
   1  -1  -4    1.61    0.37
  -1   1   4    1.84    0.25
  -1   1   4    1.95    0.19
  -1   1   4    1.48    0.17
   0  -1  -4  122.57    2.89
   0  -1  -4  124.52    3.07
   0  -1  -4  127.71    3.03
   0  -1  -4  122.12    3.46
   0   1   4  127.65    2.91
   0   1   4  120.95    3.05
   0   1   4  128.77    2.99
  -1  -1  -4   27.61    0.88
  -1  -1  -4   28.76    0.89
  -1  -1  -4   29.62    1.00
  -1  -1  -4   30.50    0.93
   1   1   4   30.76    0.85
   1   1   4   31.77    0.89
   1   1   4   29.30    0.91
  -2  -1  -4    0.68    0.22
  -2  -1  -4    0.72    0.42
  -2  -1  -4    0.65    0.30
  -2  -1  -4    0.56    0.39
   2   1   4    0.67    0.24
   2   1   4    0.72    0.28
  -3  -1  -4   94.76    2.49
  -3  -1  -4   98.50    2.70
  -3  -1  -4  100.40    2.70
  -3  -1  -4  100.45    2.53
   3   1   4   99.95    2.62
  -4  -1  -4   23.27    1.21
  -4  -1  -4   25.51    1.25
  -4  -1  -4   27.33    0.97
   4   1   4   24.37    1.00
  -5  -1  -4   21.79    0.96
  -5  -1  -4   18.78    1.20
  -5  -1  -4   21.73    1.27
   5   1   4   18.27    1.00
  -6  -1  -4    5.84    0.99
  -6  -1  -4    6.47    0.72
   6   1   4    5.02    0.72
   7   1   4    6.87    0.83
  10  -2  -4    0.20    0.81
 -10   2   4    0.90    0.74
   9  -2  -4    2.86    0.76
  -9   2   4    2.75    0.74
   8  -2  -4    9.30    0.83
  -8   2   4   10.98    0.85
   7  -2  -4   20.07    1.01
   7  -2  -4   21.52    1.18
  -7   2   4   21.39    1.02
   6  -2  -4  100.08    2.83
   6  -2  -4   97.51    2.64
   6  -2  -4  101.67    2.79
  -6   2   4   94.35    2.62
   5  -2  -4  146.38    3.73
   5  -2  -4  144.16    3.76
   5  -2  -4  144.25    3.62
  -5   2   4  145.27    3.64
   4  -2  -4  112.55    2.95
   4  -2  -4  112.49    2.84
   4  -2  -4  113.69    2.93
  -4   2   4  114.67    2.86
  -4   2   4  118.11    2.88
   3  -2  -4    0.34    0.29
   3  -2  -4    0.23    0.34
   3  -2  -4    0.09    0.13
   3  -2  -4    0.31    0.16
  -3   2   4    0.18    0.18
  -3   2   4    0.05    0.19
   2  -2  -4    4.68    0.32
   2  -2  -4    4.68    0.36
   2  -2  -4    4.24    0.27
   2  -2  -4    5.73    0.55
  -2   2   4    4.57    0.25
  -2   2   4    4.87    0.29
   1  -2  -4  395.24    8.97
   1  -2  -4  400.80   10.47
  -1   2   4  407.05    9.42
  -1   2   4  409.23    9.43
  -1   2   4  413.67    9.00
   0  -2  -4  356.62    8.45
   0  -2  -4  358.99    8.43
   0  -2  -4  351.33    9.34
   0  -2  -4  359.78    7.99
   0   2   4  365.48    7.99
   0   2   4  357.48    8.41
   0   2   4  356.47    8.36
  -1  -2  -4    1.04    0.30
  -1  -2  -4    0.91    0.34
  -1  -2  -4    0.83    0.29
   1   2   4    1.03    0.24
   1   2   4    0.53    0.24
   1   2   4    0.88    0.18
  -2  -2  -4   33.40    1.15
  -2  -2  -4   33.91    1.14
  -2  -2  -4   33.52    1.05
  -2  -2  -4   33.78    0.91
  -2  -2  -4   32.78    1.05
   2   2   4   34.57    1.00
   2   2   4   32.83    1.05
  -3  -2  -4   15.86    0.68
  -3  -2  -4   15.56    0.92
  -3  -2  -4   16.24    0.98
   3   2   4   17.36    0.79
  -4  -2  -4    3.61    0.45
  -4  -2  -4    3.50    0.66
  -4  -2  -4    3.55    0.70
   4   2   4    2.73    0.49
  -5  -2  -4   13.21    1.05
  -5  -2  -4   12.60    0.98
  -5  -2  -4   12.65    0.85
   5   2   4   14.07    0.89
  -6  -2  -4   31.48    1.66
   6   2   4   29.08    1.32
   7   2   4    1.97    0.74
 -10   3   4   11.73    1.06
   9  -3  -4    9.75    0.95
  -9   3   4    9.28    0.87
   8  -3  -4   19.72    1.14
  -8   3   4   17.62    0.98
   7  -3  -4   17.61    1.19
   7  -3  -4   16.26    0.92
   7  -3  -4   17.25    1.15
  -7   3   4   16.45    0.92
   6  -3  -4   24.74    1.25
   6  -3  -4   26.43    1.20
   6  -3  -4   25.45    1.03
  -6   3   4   23.74    0.99
   5  -3  -4   10.67    0.73
   5  -3  -4   12.35    0.64
   5  -3  -4   12.59    0.88
  -5   3   4   12.68    0.65
   4  -3  -4  188.99    4.49
   4  -3  -4  185.32    4.63
   4  -3  -4  187.71    4.64
  -4   3   4  185.25    4.53
  -4   3   4  189.51    4.54
   3  -3  -4   76.26    2.39
   3  -3  -4   75.59    1.77
   3  -3  -4   76.56    1.97
   3  -3  -4   76.85    1.96
  -3   3   4   77.15    1.91
  -3   3   4   74.97    1.90
   2  -3  -4    5.06    0.27
   2  -3  -4    4.70    0.58
  -2   3   4    4.37    0.23
  -2   3   4    4.48    0.25
   1  -3  -4   43.36    1.57
   1  -3  -4   45.14    1.12
  -1   3   4   46.38    1.15
   0  -3  -4   22.20    0.72
   0  -3  -4   20.71    1.16
   0   3   4   21.51    0.58
   0   3   4   21.27    0.71
   0   3   4   21.45    0.62
  -1  -3  -4   32.87    1.01
  -1  -3  -4   33.72    1.05
   1   3   4   34.52    0.93
   1   3   4   33.63    0.96
  -2  -3  -4    5.13    0.53
  -2  -3  -4    4.33    0.53
   2   3   4    4.55    0.41
   2   3   4    5.29    0.38
  -3  -3  -4    1.91    0.28
  -3  -3  -4    0.44    0.59
  -3  -3  -4    2.12    0.58
   3   3   4    1.45    0.38
  -4  -3  -4    9.67    0.65
  -4  -3  -4   10.93    0.87
  -4  -3  -4    9.71    0.80
   4   3   4   10.58    0.73
  -5  -3  -4   88.58    2.65
  -5  -3  -4   84.81    2.60
   5   3   4   78.96    2.42
  -6  -3  -4   23.66    1.56
   6   3   4   22.32    1.19
   7   3   4    0.24    0.69
 -10   4   4    1.90    0.80
  -9   4   4   18.88    1.18
   8  -4  -4   21.92    1.18
   8  -4  -4   24.01    1.34
  -8   4   4   20.56    1.11
   7  -4  -4    0.55    0.62
   7  -4  -4    0.65    0.48
   7  -4  -4    0.61    0.70
  -7   4   4    0.52    0.48
   6  -4  -4    8.04    0.74
   6  -4  -4    8.63    0.56
   6  -4  -4    6.62    0.55
   6  -4  -4    8.52    0.80
  -6   4   4    7.48    0.59
   5  -4  -4   85.63    2.21
   5  -4  -4   85.21    2.40
   5  -4  -4   88.04    2.02
   5  -4  -4   87.39    2.42
  -5   4   4   85.62    2.29
   4  -4  -4  305.63    7.34
   4  -4  -4  294.74    7.34
   4  -4  -4  296.04    8.18
   4  -4  -4  311.57    6.70
   4  -4  -4  303.88    6.72
  -4   4   4  301.60    7.23
  -4   4   4  314.00    7.24
   3  -4  -4   46.94    1.76
   3  -4  -4   46.08    1.28
   3  -4  -4   45.38    1.29
  -3   4   4   46.24    1.21
  -3   4   4   46.85    1.21
   2  -4  -4   37.41    1.46
  -2   4   4   37.10    0.94
  -2   4   4   39.31    0.94
   1  -4  -4    0.80    0.54
  -1   4   4    0.50    0.20
   0   4   4    4.36    0.24
   0   4   4    4.03    0.34
   0   4   4    4.37    0.25
  -1  -4  -4   23.39    0.85
  -1  -4  -4   24.03    0.83
   1   4   4   25.57    0.75
   1   4   4   25.25    0.78
  -2  -4  -4  170.42    4.31
  -2  -4  -4  171.61    4.32
   2   4   4  170.32    4.24
   2   4   4  179.92    4.22
  -3  -4  -4   27.06    1.16
  -3  -4  -4   27.59    1.17
   3   4   4   27.27    0.99
  -4  -4  -4   16.00    1.08
  -4  -4  -4   13.46    0.99
   4   4   4   12.57    0.79
  -5  -4  -4    4.12    0.88
   5   4   4    4.94    0.65
  -6  -4  -4    1.30    1.01
   6   4   4    1.30    0.64
  -9   5   4    6.44    0.83
   8  -5  -4   20.62    1.29
  -8   5   4   19.91    1.09
   7  -5  -4   43.79    1.68
   7  -5  -4   46.43    1.69
  -7   5   4   40.86    1.44
   6  -5  -4   24.82    1.17
   6  -5  -4   24.86    1.16
   6  -5  -4   25.19    0.92
  -6   5   4   23.43    0.98
   5  -5  -4   16.36    0.88
   5  -5  -4   14.65    0.88
   5  -5  -4   15.28    1.18
  -5   5   4   16.57    0.72
  -5   5   4   16.01    0.77
   4  -5  -4    2.58    0.67
   4  -5  -4    1.57    0.47
   4  -5  -4    1.60    0.47
  -4   5   4    3.13    0.33
  -4   5   4    2.14    0.32
   3  -5  -4   19.53    1.12
   3  -5  -4   17.88    0.70
   3  -5  -4   17.37    0.73
   3  -5  -4   18.83    0.74
  -3   5   4   18.65    0.61
  -3   5   4   19.22    0.60
   2  -5  -4    1.61    0.57
   1  -5  -4    6.09    0.78
  -1   5   4    5.51    0.33
   0   5   4    0.27    0.28
   0   5   4    0.63    0.17
   0   5   4    0.65    0.17
  -1  -5  -4  162.16    4.01
  -1  -5  -4  160.56    4.01
   1   5   4  167.87    3.94
   1   5   4  163.38    3.95
  -2  -5  -4   85.45    2.35
  -2  -5  -4   85.48    2.33
   2   5   4   89.20    2.25
   2   5   4   85.74    2.26
  -3  -5  -4   11.32    0.80
  -3  -5  -4   10.41    0.77
   3   5   4   10.87    0.66
  -4  -5  -4   -0.17    0.72
  -4  -5  -4   -0.68    0.62
   4   5   4   -0.24    0.45
  -5  -5  -4    4.94    0.96
   5   5   4    4.96    0.68
   6   5   4    0.64    0.64
  -9   6   4    3.14    0.76
   8  -6  -4   28.85    1.52
  -8   6   4   26.23    1.25
   7  -6  -4   41.45    1.64
   7  -6  -4   43.18    1.70
  -7   6   4   38.88    1.42
   6  -6  -4   22.07    1.10
   6  -6  -4   19.51    1.55
   6  -6  -4   21.59    1.12
  -6   6   4   21.82    0.92
   5  -6  -4    1.90    0.73
   5  -6  -4    0.84    0.54
   5  -6  -4    1.01    0.54
  -5   6   4    1.45    0.38
  -5   6   4    1.61    0.36
   4  -6  -4   10.43    0.69
   4  -6  -4   10.35    0.71
   4  -6  -4    9.64    0.96
  -4   6   4   11.01    0.57
  -4   6   4   10.73    0.54
   3  -6  -4    0.35    0.33
   3  -6  -4    0.58    0.64
   3  -6  -4    0.35    0.41
  -3   6   4    0.15    0.20
  -3   6   4    0.41    0.24
   2  -6  -4  165.35    4.76
  -2   6   4  169.11    3.89
  -2   6   4  160.95    3.92
   1  -6  -4  113.20    3.48
  -1   6   4  106.19    2.55
   0  -6  -4   66.35    1.72
   0  -6  -4   69.80    1.78
   0   6   4   69.03    1.71
   0   6   4   68.56    1.70
  -1  -6  -4    8.17    0.55
  -1  -6  -4    8.13    0.53
   1   6   4    9.02    0.49
   1   6   4    8.16    0.51
  -2  -6  -4    5.15    0.56
  -2  -6  -4    3.45    0.56
   2   6   4    4.63    0.44
  -3  -6  -4    7.79    0.78
  -3  -6  -4    8.31    0.76
   3   6   4    7.97    0.61
  -4  -6  -4   21.64    1.20
  -4  -6  -4   22.69    1.25
   4   6   4   21.60    1.04
  -5  -6  -4    2.07    0.91
   5   6   4    1.74    0.63
  -9   7   4    4.56    0.80
   8  -7  -4    0.92    0.84
  -8   7   4    0.24    0.57
   7  -7  -4    4.60    0.85
   7  -7  -4    4.07    1.05
   7  -7  -4    4.98    0.81
  -7   7   4    3.80    0.60
   6  -7  -4    7.32    1.09
   6  -7  -4    7.09    0.79
   6  -7  -4    8.28    0.79
  -6   7   4    9.02    0.64
   5  -7  -4    6.61    0.95
   5  -7  -4    8.18    0.73
   5  -7  -4    7.52    0.66
  -5   7   4    7.47    0.55
   4  -7  -4    0.29    0.43
   4  -7  -4    1.13    0.52
   4  -7  -4    1.48    0.76
  -4   7   4    0.91    0.32
   3  -7  -4   33.21    1.04
   3  -7  -4   34.24    1.17
   3  -7  -4   33.72    1.71
  -3   7   4   34.73    1.01
  -3   7   4   35.13    1.00
   2  -7  -4   66.78    1.78
   2  -7  -4   71.56    2.51
  -2   7   4   69.44    1.77
  -2   7   4   70.57    1.79
  -2   7   4   73.98    1.76
   1  -7  -4   50.81    2.05
  -1   7   4   46.99    1.23
  -1   7   4   47.99    1.29
  -1   7   4   48.42    1.27
   0  -7  -4    0.32    0.32
   0  -7  -4    1.04    0.40
   0   7   4    0.68    0.25
   0   7   4    0.30    0.24
  -1  -7  -4   22.06    0.91
  -1  -7  -4   20.99    0.88
   1   7   4   22.58    0.79
  -2  -7  -4    1.49    0.56
  -2  -7  -4    1.05    0.53
   2   7   4    0.76    0.36
  -3  -7  -4   20.72    1.10
  -3  -7  -4   19.52    1.12
   3   7   4   17.86    0.90
  -4  -7  -4   25.44    1.35
  -4  -7  -4   24.09    1.37
   4   7   4   26.15    1.16
  -5  -7  -4    3.78    1.04
   5   7   4    2.38    0.68
   9  -8  -4   -0.03    0.96
  -9   8   4    0.21    0.69
   8  -8  -4    0.18    0.85
   8  -8  -4   -0.58    0.87
  -8   8   4    0.18    0.58
   7  -8  -4   -0.51    0.82
   7  -8  -4    1.33    0.78
   7  -8  -4    0.85    0.78
  -7   8   4   -0.35    0.49
   6  -8  -4   13.15    1.26
   6  -8  -4   14.81    1.04
   6  -8  -4   14.27    0.99
  -6   8   4   12.86    0.78
   5  -8  -4   46.22    1.64
   5  -8  -4   48.48    2.15
   5  -8  -4   48.49    1.58
  -5   8   4   45.69    1.45
   4  -8  -4   73.49    2.13
   4  -8  -4   72.86    2.10
   4  -8  -4   76.22    2.74
   4  -8  -4   72.44    2.04
  -4   8   4   73.12    1.96
   3  -8  -4    6.19    0.93
   3  -8  -4    6.32    0.62
   3  -8  -4    7.04    0.49
  -3   8   4    6.53    0.45
   2  -8  -4    0.01    0.33
   2  -8  -4    0.37    0.40
   2  -8  -4   -0.38    0.70
  -2   8   4    0.53    0.30
   1  -8  -4    6.72    1.03
   1  -8  -4    7.10    0.54
   1  -8  -4    6.92    0.44
  -1   8   4    7.62    0.42
   0  -8  -4   75.04    2.01
   0  -8  -4   68.99    1.92
   0   8   4   73.97    1.88
  -1  -8  -4   19.38    0.93
  -1  -8  -4   19.15    0.89
   1   8   4   19.11    0.78
  -2  -8  -4    1.71    0.59
  -2  -8  -4    2.29    0.63
   2   8   4    2.39    0.46
  -3  -8  -4    4.90    0.80
  -3  -8  -4    5.70    0.78
   3   8   4    6.65    0.64
  -4  -8  -4    2.34    0.90
   4   8   4    1.53    0.60
   8  -9  -4    2.08    1.12
   8  -9  -4    3.41    0.97
  -8   9   4    2.92    0.69
   7  -9  -4    7.28    1.21
   7  -9  -4    6.26    0.89
  -7   9   4    6.71    0.73
   6  -9  -4    5.47    1.05
   6  -9  -4    6.97    0.83
   6  -9  -4    4.94    0.81
  -6   9   4    7.15    0.66
   5  -9  -4   25.69    1.73
   5  -9  -4   25.63    1.18
   5  -9  -4   22.42    1.25
  -5   9   4   26.30    1.04
   4  -9  -4    0.41    0.88
   4  -9  -4    0.45    0.62
   4  -9  -4    0.93    0.51
   4  -9  -4    1.31    0.59
  -4   9   4    0.48    0.38
   3  -9  -4   28.55    1.74
   3  -9  -4   24.58    1.16
   3  -9  -4   25.23    1.00
  -3   9   4   25.78    0.93
   2  -9  -4    3.86    0.57
   2  -9  -4    3.60    0.50
   2  -9  -4    3.77    0.93
  -2   9   4    4.41    0.45
   1  -9  -4   12.84    0.86
   1  -9  -4   11.24    0.70
  -1   9   4   11.76    0.59
   0  -9  -4   16.08    0.89
   0  -9  -4   17.18    0.84
   0   9   4   16.55    0.70
  -1  -9  -4   13.80    0.87
  -1  -9  -4   15.32    0.92
   1   9   4   14.15    0.72
  -2  -9  -4   10.00    0.87
  -2  -9  -4   11.23    0.84
   2   9   4   10.68    0.72
  -3  -9  -4    0.15    0.71
  -3  -9  -4   -1.06    0.76
   3   9   4   -0.04    0.53
   7 -10  -4    2.58    1.13
   7 -10  -4    5.48    0.94
  -7  10   4    3.92    0.68
   6 -10  -4    1.04    1.02
   6 -10  -4    1.23    0.77
   6 -10  -4    2.03    0.78
  -6  10   4    0.33    0.53
   5 -10  -4    1.42    0.65
   5 -10  -4    0.97    0.99
   5 -10  -4    1.10    0.70
  -5  10   4    0.03    0.44
   4 -10  -4   38.49    1.53
   4 -10  -4   40.70    1.41
   4 -10  -4   40.74    2.12
  -4  10   4   37.27    1.27
   3 -10  -4   31.56    1.39
   3 -10  -4   34.89    1.98
   3 -10  -4   30.54    1.22
  -3  10   4   35.35    1.15
   2 -10  -4   14.00    1.37
   2 -10  -4   13.40    0.95
   2 -10  -4   13.11    0.91
  -2  10   4   12.49    0.79
   1 -10  -4    2.84    0.57
   1 -10  -4    2.32    0.66
  -1  10   4    3.01    0.45
   0 -10  -4    0.48    0.60
   0 -10  -4    1.93    0.56
   0  10   4    0.94    0.39
  -1 -10  -4    1.26    0.66
  -1 -10  -4    1.43    0.63
   1  10   4    0.42    0.46
  -2 -10  -4    4.15    0.79
  -2 -10  -4    4.10    0.80
   2  10   4    5.88    0.64
   6 -11  -4    7.00    0.92
   6 -11  -4    5.45    1.20
   6 -11  -4    7.43    1.01
  -6  11   4    7.66    0.74
   5 -11  -4    7.56    0.87
   5 -11  -4    9.60    1.35
   5 -11  -4    8.15    0.97
  -5  11   4    8.53    0.70
   4 -11  -4    3.44    0.73
   4 -11  -4    4.85    0.84
   4 -11  -4    4.90    1.15
  -4  11   4    4.24    0.58
   3 -11  -4    8.94    1.30
   3 -11  -4    8.52    0.92
   3 -11  -4    7.68    0.81
  -3  11   4    9.36    0.68
   2 -11  -4    7.20    0.84
   2 -11  -4    6.35    0.85
   1 -11  -4    0.70    0.66
   1 -11  -4    0.83    0.71
   0 -11  -4    1.54    0.70
   0 -11  -4   -0.20    0.65
  -1 -11  -4    3.30    0.77
  -1 -11  -4    3.28    0.77
   5 -12  -4    0.99    1.14
   5 -12  -4    1.65    0.83
  -5  12   4    2.02    0.62
   4 -12  -4    1.00    0.83
   4 -12  -4    0.74    0.78
   4 -12  -4    0.09    1.10
   3 -12  -4    1.90    1.20
   3 -12  -4    0.07    0.81
   3 -12  -4    1.35    0.80
   2 -12  -4    2.85    0.87
   2 -12  -4    3.08    0.85
   1 -12  -4    7.74    0.93
   1 -12  -4    9.43    0.95
   0  14  -5   10.57    1.07
  -1  14  -5   14.88    1.20
  -2  14  -5    5.75    0.95
   2  13  -5    3.92    0.89
   1  13  -5    5.96    0.91
   1  13  -5    7.22    0.95
   1  13  -5    7.21    0.85
   0  13  -5    7.34    0.82
   0  13  -5    8.42    0.95
  -1  13  -5    1.35    0.74
  -1  13  -5    1.32    0.67
  -2  13  -5   -0.82    0.66
  -2  13  -5   -0.45    0.58
  -3  13  -5    1.36    0.80
  -4  13  -5    4.95    0.95
   4  12  -5   11.21    1.10
   3  12  -5   15.71    1.19
   2  12  -5    6.61    0.90
   1  12  -5   18.46    1.23
   1  12  -5   18.28    1.13
   0  12  -5   -0.31    0.60
   0  12  -5   -0.70    0.60
   0  12  -5    0.01    0.67
  -1  12  -5   15.31    1.12
  -1  12  -5   17.75    1.03
  -2  12  -5   16.95    1.21
  -2  12  -5   19.71    1.06
  -3  12  -5   21.63    1.15
  -3  12  -5   23.29    1.35
  -4  12  -5   10.37    1.06
  -4  12  -5    8.56    0.81
  -5  12  -5    6.60    0.94
   5  11  -5    5.10    0.89
   4  11  -5   12.82    1.03
   3  11  -5    0.96    0.70
   2  11  -5    1.73    0.66
  -2 -11   5    1.14    1.04
   1  11  -5    0.91    0.66
  -1 -11   5    1.37    0.74
  -1 -11   5   -0.69    1.02
   0  11  -5    3.17    0.72
   0  11  -5    4.03    0.66
   0  11  -5    3.67    0.68
   0 -11   5    4.46    1.09
   0 -11   5    4.67    0.81
  -1  11  -5    8.22    0.88
  -1  11  -5    8.27    0.75
   1 -11   5   11.95    1.28
   1 -11   5    9.20    0.94
  -2  11  -5   31.35    1.44
  -2  11  -5   30.00    1.29
   2 -11   5   33.28    1.90
   2 -11   5   28.48    1.50
  -3  11  -5    9.62    0.94
  -3  11  -5    9.28    0.78
   3 -11   5    9.21    1.02
  -4  11  -5    4.09    0.85
  -4  11  -5    3.67    0.65
   4 -11   5    3.79    0.89
  -5  11  -5    3.87    0.72
  -5  11  -5    3.10    0.86
  -6  11  -5    4.26    0.96
   6  10  -5    0.94    0.79
   5  10  -5   13.01    1.08
   4  10  -5    1.53    0.63
   3  10  -5    4.35    0.74
  -3 -10   5    4.19    0.86
   2  10  -5   35.21    1.51
  -2 -10   5   37.56    1.65
  -2 -10   5   39.18    1.89
   1  10  -5   59.16    2.03
  -1 -10   5   65.87    2.38
  -1 -10   5   57.71    2.06
   0  10  -5   11.49    0.82
   0  10  -5   10.43    0.89
   0  10  -5   11.69    0.88
   0 -10   5    9.06    1.15
   0 -10   5   12.35    0.99
  -1  10  -5   55.64    1.76
  -1  10  -5   54.75    1.94
   1 -10   5   61.11    2.30
   1 -10   5   59.21    2.06
  -2  10  -5   10.49    0.88
  -2  10  -5   12.37    0.83
   2 -10   5   14.40    1.27
   2 -10   5   11.64    1.02
   2 -10   5   12.18    0.81
  -3  10  -5   36.96    1.34
  -3  10  -5   32.61    1.46
   3 -10   5   38.88    1.38
   3 -10   5   34.91    1.63
  -4  10  -5   27.35    1.41
  -4  10  -5   28.80    1.20
   4 -10   5   25.93    1.51
   4 -10   5   28.68    1.27
  -5  10  -5   11.76    0.88
  -5  10  -5   12.12    1.03
   5 -10   5   15.10    1.25
  -6  10  -5    4.45    0.73
  -6  10  -5    3.90    0.86
   6 -10   5    4.38    1.05
  -7  10  -5    1.22    0.74
  -7  10  -5    2.33    0.94
   6   9  -5   -0.09    0.66
   5   9  -5   15.59    1.13
  -5  -9   5   17.13    1.19
   4   9  -5    7.73    0.79
  -4  -9   5   10.54    0.97
   3   9  -5    1.18    0.59
  -3  -9   5    1.91    0.86
  -3  -9   5    2.20    0.70
   2   9  -5   42.71    1.61
  -2  -9   5   47.60    1.78
  -2  -9   5   52.35    2.03
   1   9  -5    8.81    0.80
  -1  -9   5    6.98    0.97
  -1  -9   5    7.30    0.83
  -1  -9   5    7.07    0.94
   0   9  -5   -0.26    0.49
   0   9  -5    0.42    0.55
   0   9  -5    0.48    0.46
   0  -9   5    0.52    0.64
   0  -9   5   -0.39    0.83
   0  -9   5   -0.58    0.89
  -1   9  -5    9.19    0.81
  -1   9  -5    9.21    0.73
   1  -9   5   11.60    1.14
   1  -9   5    9.54    0.92
   1  -9   5    8.71    1.05
  -2   9  -5    5.62    0.64
  -2   9  -5    6.70    0.75
   2  -9   5    6.44    0.50
   2  -9   5    6.64    0.98
   2  -9   5    6.06    0.78
  -3   9  -5   25.26    1.27
  -3   9  -5   26.30    1.15
   3  -9   5   25.67    1.38
   3  -9   5   26.36    1.63
   3  -9   5   25.72    1.06
  -4   9  -5   40.76    1.44
  -4   9  -5   39.37    1.65
   4  -9   5   41.09    1.52
   4  -9   5   44.32    1.80
  -5   9  -5   15.07    1.11
  -5   9  -5   15.26    0.97
   5  -9   5   13.35    1.20
  -6   9  -5    1.38    0.79
  -6   9  -5    1.67    0.64
   6  -9   5    1.99    0.92
  -7   9  -5    9.72    0.93
  -7   9  -5    7.54    1.06
   7  -9   5    8.10    1.19
   7   8  -5    0.62    0.75
   6   8  -5   10.70    0.94
  -6  -8   5   10.21    1.05
   5   8  -5   47.78    1.76
  -5  -8   5   48.14    1.84
   4   8  -5   10.80    0.85
  -4  -8   5    9.92    1.04
  -4  -8   5   11.57    0.93
   3   8  -5   65.64    2.07
  -3  -8   5   66.37    2.16
  -3  -8   5   66.97    2.33
   2   8  -5   40.50    1.49
  -2  -8   5   43.42    1.79
  -2  -8   5   44.99    1.62
  -2  -8   5   44.87    1.89
   1   8  -5   20.14    1.03
   1   8  -5   21.86    0.89
  -1  -8   5   20.33    1.50
  -1  -8   5   21.55    1.32
  -1  -8   5   22.22    1.23
   0   8  -5   86.90    2.54
   0   8  -5   86.24    2.37
   0   8  -5   90.29    2.58
   0  -8   5   92.49    2.69
   0  -8   5   88.76    2.87
   0  -8   5   89.54    2.87
  -1   8  -5  169.35    4.07
  -1   8  -5  165.74    4.33
   1  -8   5  161.27    4.59
   1  -8   5  169.29    4.60
   1  -8   5  164.40    4.42
  -2   8  -5   23.86    1.11
  -2   8  -5   22.81    1.05
   2  -8   5   22.08    1.48
   2  -8   5   24.10    0.90
   2  -8   5   23.25    1.28
   2  -8   5   23.91    1.58
  -3   8  -5   10.85    0.85
  -3   8  -5   11.99    0.78
   3  -8   5   12.09    0.99
   3  -8   5   12.48    0.76
   3  -8   5   14.49    1.11
  -4   8  -5    7.50    0.81
  -4   8  -5    7.11    0.69
   4  -8   5    7.19    0.88
  -5   8  -5    9.09    0.88
  -5   8  -5    9.45    0.77
   5  -8   5    9.64    0.97
  -6   8  -5    0.32    0.74
  -6   8  -5    0.09    0.60
   6  -8   5    1.68    0.79
  -7   8  -5    1.30    0.79
  -7   8  -5   -0.41    0.66
   7  -8   5   -0.03    0.89
   8   7  -5    4.60    0.92
   7   7  -5    0.70    0.67
  -7  -7   5    0.84    0.79
   6   7  -5   23.59    1.20
  -6  -7   5   23.61    1.25
   5   7  -5    6.35    0.74
  -5  -7   5    6.00    0.75
   4   7  -5    1.25    0.50
  -4  -7   5    0.21    0.54
  -4  -7   5    0.23    0.79
   3   7  -5    0.58    0.45
  -3  -7   5    0.30    0.81
  -3  -7   5    0.61    0.56
  -3  -7   5   -0.55    0.74
   2   7  -5   11.32    0.77
   2   7  -5   11.53    0.98
  -2  -7   5   11.62    1.01
  -2  -7   5   12.53    0.87
  -2  -7   5   11.27    1.02
   1   7  -5   17.15    0.70
   1   7  -5   15.10    0.88
   1   7  -5   16.78    1.10
  -1  -7   5   16.36    1.00
  -1  -7   5   18.30    1.16
  -1  -7   5   18.69    1.23
   0   7  -5  142.40    3.48
   0   7  -5  145.53    3.93
   0   7  -5  141.43    3.72
   0   7  -5  138.31    3.70
   0  -7   5  140.71    3.95
   0  -7   5  140.98    3.91
   0  -7   5  138.40    3.81
  -1   7  -5   66.15    1.87
  -1   7  -5   67.65    2.32
  -1   7  -5   64.00    2.00
   1  -7   5   64.81    2.10
   1  -7   5   70.88    2.39
   1  -7   5   66.72    2.26
  -2   7  -5    1.29    0.82
  -2   7  -5    0.78    0.53
  -2   7  -5    0.82    0.44
   2  -7   5    0.88    0.75
   2  -7   5    1.45    0.83
   2  -7   5    1.55    0.31
   2  -7   5    0.59    0.60
  -3   7  -5   36.55    1.26
  -3   7  -5   34.43    1.43
   3  -7   5   37.46    1.80
   3  -7   5   37.73    1.74
   3  -7   5   40.95    1.81
   3  -7   5   35.33    1.49
  -4   7  -5    4.92    0.67
  -4   7  -5    5.07    0.60
   4  -7   5    5.03    0.76
  -5   7  -5   13.61    0.85
  -5   7  -5   11.54    0.91
   5  -7   5   13.40    1.04
  -6   7  -5   32.85    1.31
  -6   7  -5   32.42    1.47
   6  -7   5   33.94    1.57
  -7   7  -5   28.66    1.53
  -7   7  -5   27.16    1.26
   7  -7   5   25.77    1.62
   8   6  -5    3.00    0.79
  -8  -6   5    1.89    0.80
   7   6  -5   12.04    1.01
  -7  -6   5   14.93    1.09
   6   6  -5    7.72    0.80
  -6  -6   5    6.35    0.82
   5   6  -5    5.76    0.69
  -5  -6   5    5.52    0.72
   4   6  -5   19.28    1.01
  -4  -6   5   20.70    1.07
  -4  -6   5   19.22    1.37
  -4  -6   5   18.96    1.35
   3   6  -5  294.94    7.22
   3   6  -5  294.62    7.35
  -3  -6   5  303.76    7.41
  -3  -6   5  289.58    7.36
  -3  -6   5  286.55    7.24
   2   6  -5   90.63    2.68
   2   6  -5   87.80    2.46
  -2  -6   5   94.05    2.72
  -2  -6   5   89.61    2.65
  -2  -6   5   86.29    2.53
   1   6  -5   88.56    2.64
   1   6  -5   86.56    2.30
   1   6  -5   83.05    2.42
   1   6  -5   90.62    2.63
  -1  -6   5   89.32    2.62
  -1  -6   5   89.83    2.54
  -1  -6   5   86.62    2.66
   0   6  -5   67.07    2.06
   0   6  -5   57.68    1.84
   0   6  -5   63.00    2.13
   0   6  -5   63.22    1.78
   0  -6   5   64.80    2.00
   0  -6   5   62.12    2.07
   0  -6   5   61.00    2.16
  -1   6  -5   25.06    1.09
  -1   6  -5   24.90    1.28
  -1   6  -5   26.76    1.43
  -1   6  -5   26.07    1.02
   1  -6   5   27.20    1.35
   1  -6   5   26.41    1.49
   1  -6   5   22.97    1.12
  -2   6  -5   33.13    1.25
  -2   6  -5   36.53    1.59
  -2   6  -5   33.99    1.20
  -2   6  -5   32.45    1.52
   2  -6   5   32.71    1.34
   2  -6   5   35.34    1.59
   2  -6   5   33.74    1.55
  -3   6  -5   30.81    1.28
  -3   6  -5   30.79    1.65
  -3   6  -5   31.80    1.63
  -3   6  -5   32.13    1.13
   3  -6   5   30.78    1.38
   3  -6   5   29.45    1.32
   3  -6   5   35.61    1.63
  -4   6  -5   18.03    0.89
  -4   6  -5   18.84    1.07
   4  -6   5   18.25    1.13
  -5   6  -5   10.70    0.80
  -5   6  -5   11.27    0.87
   5  -6   5   10.36    0.95
  -6   6  -5   23.95    1.18
  -6   6  -5   24.72    1.34
   6  -6   5   25.26    1.42
  -7   6  -5    1.12    0.72
  -7   6  -5    1.26    0.69
   7  -6   5    0.92    0.79
  -8   6  -5    1.19    0.84
   8  -6   5    1.76    0.92
   8   5  -5    0.27    0.68
  -8  -5   5    1.95    0.79
   7   5  -5    5.78    0.80
  -7  -5   5    6.63    0.84
   6   5  -5   26.03    1.23
  -6  -5   5   26.56    1.19
   5   5  -5    1.38    0.49
  -5  -5   5    0.56    0.64
  -5  -5   5    0.68    0.53
   4   5  -5   88.50    2.65
   4   5  -5   91.13    2.52
  -4  -5   5   93.19    2.68
  -4  -5   5   86.51    2.52
  -4  -5   5   90.53    2.63
   3   5  -5   64.89    1.88
   3   5  -5   66.82    2.10
   3   5  -5   62.83    2.02
  -3  -5   5   63.69    1.90
  -3  -5   5   64.14    2.06
  -3  -5   5   62.84    1.99
   2   5  -5    1.01    0.55
   2   5  -5    0.61    0.56
   2   5  -5    0.99    0.40
  -2  -5   5    0.80    0.53
  -2  -5   5    1.08    0.40
  -2  -5   5    1.18    0.56
   1   5  -5   14.43    1.01
   1   5  -5   13.37    0.75
  -1  -5   5   14.03    0.99
  -1  -5   5   15.25    0.86
  -1  -5   5   13.54    0.89
   0   5  -5   15.95    1.08
   0   5  -5   13.97    0.76
   0   5  -5   13.82    0.73
   0  -5   5   15.38    0.96
   0  -5   5   13.02    0.82
   0  -5   5   13.43    0.80
  -1   5  -5    2.89    0.48
  -1   5  -5    4.42    0.67
  -1   5  -5    3.98    0.45
   1  -5   5    3.50    0.65
   1  -5   5    4.09    0.55
  -2   5  -5   98.61    2.73
  -2   5  -5  103.18    2.90
  -2   5  -5   99.76    2.57
   2  -5   5  103.29    2.91
   2  -5   5  100.59    2.83
   2  -5   5  102.04    2.90
  -3   5  -5  221.98    5.56
  -3   5  -5  221.37    5.70
  -3   5  -5  223.30    5.25
  -3   5  -5  224.61    5.75
   3  -5   5  217.25    5.66
   3  -5   5  229.00    5.78
  -4   5  -5   30.49    1.23
  -4   5  -5   32.75    1.16
  -4   5  -5   32.61    1.52
  -4   5  -5   33.79    1.64
   4  -5   5   31.07    1.37
  -5   5  -5   24.45    1.21
  -5   5  -5   25.12    1.07
   5  -5   5   26.17    1.31
  -6   5  -5   -0.52    0.56
  -6   5  -5   -0.46    0.63
   6  -5   5    0.16    0.68
  -7   5  -5   28.98    1.47
   7  -5   5   28.32    1.56
  -8   5  -5   11.08    1.07
   8  -5   5   12.45    1.24
   9   4  -5    3.15    0.91
  -9  -4   5    4.30    0.94
   8   4  -5   -0.48    0.69
  -8  -4   5   -0.73    0.63
   7   4  -5   86.58    2.63
  -7  -4   5   86.96    2.64
   6   4  -5   42.20    1.52
  -6  -4   5   43.80    1.54
   5   4  -5   58.14    1.95
   5   4  -5   55.48    1.76
  -5  -4   5   58.17    1.79
  -5  -4   5   56.51    1.98
   4   4  -5   55.53    1.70
   4   4  -5   54.17    1.82
  -4  -4   5   56.59    1.86
  -4  -4   5   54.21    1.71
   3   4  -5    1.57    0.32
   3   4  -5    2.46    0.49
   3   4  -5    3.12    0.42
  -3  -4   5    2.22    0.40
  -3  -4   5    2.27    0.57
   2   4  -5   12.95    0.79
   2   4  -5   13.83    0.81
   2   4  -5   11.69    0.67
  -2  -4   5   12.26    0.68
  -2  -4   5   13.45    0.83
   1   4  -5  237.06    5.42
   1   4  -5  236.93    5.72
   1   4  -5  231.73    5.86
   1   4  -5  223.01    5.81
  -1  -4   5  233.23    5.85
  -1  -4   5  234.79    5.76
   0   4  -5   47.74    1.38
   0   4  -5   48.79    1.65
   0   4  -5   46.17    1.45
   0   4  -5   48.79    1.67
   0  -4   5   47.69    1.53
   0  -4   5   42.11    1.63
   0  -4   5   49.99    1.70
  -1   4  -5   28.30    0.98
  -1   4  -5   28.47    1.01
  -1   4  -5   28.68    1.31
  -1   4  -5   27.33    1.20
   1  -4   5   26.70    1.10
   1  -4   5   26.83    1.18
   1  -4   5   28.92    1.36
  -2   4  -5  194.93    5.04
  -2   4  -5  191.90    4.87
  -2   4  -5  197.90    5.03
  -2   4  -5  193.55    4.62
   2  -4   5  195.50    4.98
   2  -4   5  197.04    5.03
   2  -4   5  202.86    5.09
  -3   4  -5    3.46    0.76
  -3   4  -5    2.58    0.47
  -3   4  -5    2.29    0.45
  -3   4  -5    3.17    0.73
   3  -4   5    3.79    0.77
   3  -4   5    2.77    0.56
  -4   4  -5   38.01    1.68
  -4   4  -5   36.83    1.36
  -4   4  -5   34.88    1.26
  -4   4  -5   38.03    1.77
   4  -4   5   40.36    1.77
   4  -4   5   36.73    1.45
  -5   4  -5   16.68    0.94
  -5   4  -5   16.15    0.89
   5  -4   5   18.16    1.10
  -6   4  -5    8.14    0.83
  -6   4  -5    9.15    0.82
   6  -4   5    8.63    0.88
  -7   4  -5    0.51    0.72
   7  -4   5   -0.03    0.69
  -8   4  -5    4.79    0.93
   8  -4   5    3.48    0.94
   9   3  -5    3.34    0.86
  -9  -3   5    1.65    0.77
   8   3  -5   16.52    1.09
  -8  -3   5   14.52    1.05
   7   3  -5   27.04    1.29
  -7  -3   5   26.87    1.22
   6   3  -5    3.57    0.60
  -6  -3   5    3.33    0.59
   5   3  -5    4.43    0.57
   5   3  -5    4.26    0.68
   5   3  -5    3.27    0.69
  -5  -3   5    4.16    0.53
  -5  -3   5    4.68    0.67
  -5  -3   5    4.50    0.73
   4   3  -5   46.67    1.62
   4   3  -5   48.19    1.54
   4   3  -5   46.56    1.46
  -4  -3   5   47.03    1.60
  -4  -3   5   48.05    1.64
  -4  -3   5   47.84    1.47
   3   3  -5   13.50    0.98
   3   3  -5   13.17    0.75
   3   3  -5   12.72    0.66
  -3  -3   5   12.57    0.65
  -3  -3   5   13.43    0.97
  -3  -3   5   12.34    0.76
   2   3  -5   21.36    0.94
   2   3  -5   20.85    0.81
   2   3  -5   20.36    1.02
  -2  -3   5   20.59    1.08
  -2  -3   5   19.69    0.79
  -2  -3   5   21.34    0.90
   1   3  -5  244.09    6.05
   1   3  -5  259.59    6.07
   1   3  -5  245.62    6.20
   1   3  -5  243.09    5.74
   1   3  -5  251.96    6.17
   1   3  -5  256.06    6.33
  -1  -3   5  239.71    6.08
  -1  -3   5  254.78    6.17
  -1  -3   5  250.99    6.19
   0   3  -5   40.81    1.43
   0   3  -5   42.59    1.48
   0   3  -5   42.75    1.25
   0   3  -5   41.84    1.28
   0  -3   5   39.32    1.51
   0  -3   5   44.64    1.49
   0  -3   5   45.43    1.38
  -1   3  -5  190.73    4.61
  -1   3  -5  188.99    4.73
  -1   3  -5  189.32    4.38
  -1   3  -5  183.80    4.76
   1  -3   5  182.30    4.78
   1  -3   5  190.85    4.73
   1  -3   5  182.31    4.70
   1  -3   5  186.46    4.70
  -2   3  -5    8.78    0.75
  -2   3  -5    8.88    0.59
  -2   3  -5    7.86    0.73
  -2   3  -5    7.80    0.54
   2  -3   5    7.21    0.77
   2  -3   5    8.04    0.64
  -3   3  -5   34.59    1.18
  -3   3  -5   33.43    1.45
  -3   3  -5   32.91    1.16
  -3   3  -5   33.38    1.42
   3  -3   5   30.57    1.22
   3  -3   5   34.39    1.51
  -4   3  -5   85.18    2.63
  -4   3  -5   81.87    2.55
  -4   3  -5   80.26    2.32
  -4   3  -5   78.52    2.21
   4  -3   5   83.70    2.42
   4  -3   5   83.46    2.62
  -5   3  -5   98.51    2.96
  -5   3  -5   93.09    2.63
  -5   3  -5   94.65    2.84
  -5   3  -5   87.63    2.51
   5  -3   5   91.71    2.71
  -6   3  -5    4.27    0.70
  -6   3  -5    4.77    0.68
   6  -3   5    4.54    0.74
  -7   3  -5    3.80    0.73
   7  -3   5    3.36    0.78
  -8   3  -5    1.60    0.83
   8  -3   5    2.70    0.90
   9   2  -5   21.36    1.29
  -9  -2   5   21.75    1.34
   8   2  -5   10.09    0.93
  -8  -2   5    7.97    0.86
   7   2  -5    2.38    0.59
  -7  -2   5    2.52    0.60
   6   2  -5    1.33    0.68
   6   2  -5    0.31    0.51
   6   2  -5   -1.10    0.58
  -6  -2   5    0.33    0.43
   5   2  -5  175.20    4.68
   5   2  -5  187.92    4.67
   5   2  -5  180.69    4.56
  -5  -2   5  178.63    4.56
  -5  -2   5  184.81    4.68
   4   2  -5  127.85    3.34
   4   2  -5  131.90    3.42
   4   2  -5  132.48    3.49
  -4  -2   5  129.72    3.40
  -4  -2   5  132.26    3.35
   3   2  -5   27.21    1.11
   3   2  -5   27.22    1.03
   3   2  -5   28.68    0.98
  -3  -2   5   28.56    0.94
  -3  -2   5   26.29    1.03
   2   2  -5  282.76    6.95
   2   2  -5  275.01    6.86
   2   2  -5  286.11    6.80
  -2  -2   5  279.20    6.93
  -2  -2   5  292.42    6.80
  -2  -2   5  282.50    6.79
  -2  -2   5  280.99    6.85
   1   2  -5   54.71    1.53
   1   2  -5   54.17    1.60
   1   2  -5   54.09    1.53
   1   2  -5   52.64    1.72
   1   2  -5   54.54    1.50
  -1  -2   5   54.02    1.53
  -1  -2   5   55.55    1.53
  -1  -2   5   55.48    1.58
  -1  -2   5   52.71    1.63
   0   2  -5   58.73    1.58
   0   2  -5   57.74    1.80
   0   2  -5   58.43    1.62
   0   2  -5   58.63    1.79
   0  -2   5   56.85    1.75
   0  -2   5   60.24    1.64
   0  -2   5   57.57    1.70
   0  -2   5   59.59    1.64
   0  -2   5   60.88    1.58
   0  -2   5   60.61    1.62
  -1   2  -5  257.19    5.79
  -1   2  -5  252.64    6.26
  -1   2  -5  249.66    6.19
  -1   2  -5  253.68    6.05
   1  -2   5  248.67    6.26
   1  -2   5  240.04    6.54
   1  -2   5  265.10    6.09
   1  -2   5  248.87    6.18
  -2   2  -5  126.25    3.21
  -2   2  -5  128.23    3.37
  -2   2  -5  129.18    3.40
   2  -2   5  126.08    3.32
   2  -2   5  130.12    3.45
  -3   2  -5    0.87    0.39
  -3   2  -5    0.67    0.63
  -3   2  -5    1.29    0.60
  -3   2  -5    1.39    0.39
  -3   2  -5    1.94    0.60
   3  -2   5    0.67    0.39
  -4   2  -5   19.24    1.19
  -4   2  -5   20.38    1.28
  -4   2  -5   18.85    1.16
  -4   2  -5   20.37    0.89
  -4   2  -5   21.65    0.93
   4  -2   5   19.45    0.96
  -5   2  -5    2.02    0.75
  -5   2  -5    3.61    0.81
  -5   2  -5    3.01    0.53
  -5   2  -5    3.19    0.56
   5  -2   5    2.46    0.58
  -6   2  -5   -0.46    0.57
   6  -2   5    0.03    0.57
  -7   2  -5    3.02    0.75
   7  -2   5    4.42    0.83
   8  -2   5   -0.17    0.74
   9   1  -5    1.12    0.71
  -9  -1   5    0.43    0.71
   8   1  -5   37.67    1.53
  -8  -1   5   34.40    1.43
   7   1  -5    0.76    0.55
  -7  -1   5    0.91    0.50
   6   1  -5    4.07    0.81
   6   1  -5    3.78    0.55
   6   1  -5    4.13    0.70
  -6  -1   5    4.06    0.53
   5   1  -5   58.93    1.89
   5   1  -5   59.35    1.75
   5   1  -5   60.18    1.87
  -5  -1   5   58.64    1.88
  -5  -1   5   61.14    1.76
   4   1  -5   84.35    2.27
   4   1  -5   79.54    2.18
   4   1  -5   77.69    2.32
  -4  -1   5   83.58    2.24
  -4  -1   5   80.38    2.16
   3   1  -5  131.13    3.43
   3   1  -5  133.35    3.37
   3   1  -5  133.00    3.32
  -3  -1   5  135.03    3.32
  -3  -1   5  129.89    3.34
  -3  -1   5  134.38    3.32
   2   1  -5    1.26    0.24
   2   1  -5    1.65    0.52
   2   1  -5    1.26    0.33
   2   1  -5    1.45    0.35
   2   1  -5    1.22    0.33
   2   1  -5    1.98    0.38
  -2  -1   5    1.66    0.27
  -2  -1   5    1.36    0.27
  -2  -1   5    1.06    0.31
   1   1  -5   15.30    0.58
   1   1  -5   13.33    0.61
   1   1  -5   15.37    0.86
   1   1  -5   14.36    0.68
   1   1  -5   14.30    0.68
   1   1  -5   13.96    0.59
  -1  -1   5   13.58    0.60
  -1  -1   5   14.85    0.63
  -1  -1   5   14.79    0.63
   0   1  -5  101.60    2.47
   0   1  -5  101.11    2.66
   0   1  -5   99.66    2.52
   0   1  -5  101.94    2.70
   0   1  -5  102.78    2.59
   0  -1   5   98.02    2.64
   0  -1   5  101.03    2.77
   0  -1   5  106.73    2.48
   0  -1   5  102.74    2.56
  -1   1  -5  476.79   11.43
  -1   1  -5  471.92   11.48
  -1   1  -5  480.13   10.70
  -1   1  -5  464.27   11.23
   1  -1   5  478.09   11.36
   1  -1   5  494.95   11.27
  -2   1  -5   19.58    0.93
  -2   1  -5   18.06    0.74
  -2   1  -5   18.88    0.93
  -2   1  -5   18.70    0.96
  -2   1  -5   19.04    0.77
   2  -1   5   19.30    0.80
  -3   1  -5    7.13    0.57
  -3   1  -5    5.41    0.72
  -3   1  -5    6.57    0.50
  -3   1  -5    5.76    0.67
   3  -1   5    5.56    0.54
  -4   1  -5   20.38    1.29
  -4   1  -5   21.04    1.01
  -4   1  -5   19.65    1.25
  -4   1  -5   22.12    0.94
   4  -1   5   23.10    1.04
  -5   1  -5    0.06    0.76
  -5   1  -5    1.27    0.50
  -5   1  -5    0.71    0.54
   5  -1   5    0.55    0.54
  -6   1  -5   12.43    0.89
   6  -1   5   10.06    0.88
   7  -1   5   35.79    1.60
  10   0  -5    1.57    0.89
 -10   0   5    2.84    0.87
   9   0  -5   19.42    1.26
  -9   0   5   17.35    1.12
   8   0  -5   25.41    1.27
  -8   0   5   24.83    1.23
   7   0  -5   25.85    1.30
   7   0  -5   24.53    1.14
  -7   0   5   22.85    1.05
   6   0  -5   57.94    2.00
   6   0  -5   65.69    2.02
   6   0  -5   62.72    1.85
  -6   0   5   60.84    1.85
   5   0  -5   36.61    1.36
   5   0  -5   35.69    1.44
   5   0  -5   38.93    1.21
  -5   0   5   36.55    1.22
   4   0  -5   14.92    0.76
   4   0  -5   15.96    0.95
   4   0  -5   17.66    0.72
  -4   0   5   16.34    0.70
   3   0  -5  225.42    5.46
   3   0  -5  218.58    5.32
   3   0  -5  219.07    5.39
  -3   0   5  223.70    5.33
  -3   0   5  218.33    5.31
   2   0  -5  414.94    9.41
   2   0  -5  421.18    9.84
   2   0  -5  418.49   10.79
   2   0  -5  423.56    9.89
   2   0  -5  420.11    9.99
   2   0  -5  414.71   10.08
  -2   0   5  428.46    9.93
  -2   0   5  420.45    9.90
   1   0  -5   86.80    2.15
   1   0  -5   88.00    2.14
   1   0  -5   86.29    2.32
   1   0  -5   87.68    2.50
   1   0  -5   86.57    2.14
   1   0  -5   85.74    2.24
  -1   0   5   88.94    2.23
  -1   0   5   89.34    2.15
  -1   0   5   91.07    2.23
  -1   0   5   87.46    2.22
   0   0  -5   90.88    2.21
   0   0  -5   93.20    2.26
   0   0  -5   90.49    2.41
   0   0  -5   91.19    2.23
   0   0  -5   90.30    2.36
   0   0   5   89.09    2.36
   0   0   5   92.11    2.23
   0   0   5   92.59    2.28
  -1   0  -5    4.92    0.42
  -1   0  -5    5.81    0.55
  -1   0  -5    4.67    0.40
  -1   0  -5    5.16    0.37
  -1   0  -5    4.17    0.46
   1   0   5    5.18    0.43
   1   0   5    4.96    0.35
  -2   0  -5   18.87    0.96
  -2   0  -5   19.09    0.79
  -2   0  -5   19.47    0.94
  -2   0  -5   19.65    0.71
   2   0   5   20.94    0.77
   2   0   5   18.40    0.81
  -3   0  -5    0.23    0.40
  -3   0  -5    0.57    0.57
  -3   0  -5   -0.32    0.57
  -3   0  -5    0.11    0.32
   3   0   5    0.69    0.39
  -4   0  -5    9.50    0.73
  -4   0  -5   11.97    0.75
  -4   0  -5   10.08    0.86
  -4   0  -5   11.23    0.93
   4   0   5    9.56    0.72
  -5   0  -5    1.83    0.51
  -5   0  -5    1.30    0.80
   5   0   5    1.40    0.56
  -6   0  -5   20.65    1.16
   6   0   5   20.65    1.16
   7   0   5   18.59    1.24
  10  -1  -5    3.97    0.92
 -10   1   5    4.58    0.86
   9  -1  -5    5.16    0.82
  -9   1   5    3.38    0.73
   8  -1  -5    9.32    0.84
  -8   1   5    6.96    0.76
   7  -1  -5   13.21    0.90
   7  -1  -5   15.41    1.07
  -7   1   5   13.85    0.83
   6  -1  -5   16.23    1.17
   6  -1  -5   17.02    1.09
   6  -1  -5   19.75    0.94
  -6   1   5   19.14    0.91
   5  -1  -5    7.09    0.71
   5  -1  -5    5.39    0.60
   5  -1  -5    5.77    0.50
  -5   1   5    5.56    0.48
   4  -1  -5    7.34    0.47
   4  -1  -5    6.83    0.53
   4  -1  -5    7.22    0.62
  -4   1   5    7.30    0.50
  -4   1   5    7.45    0.51
   3  -1  -5  375.33    8.91
   3  -1  -5  381.09    8.96
   3  -1  -5  377.62    9.07
   3  -1  -5  380.40    9.92
   3  -1  -5  376.16    9.12
  -3   1   5  382.51    8.97
  -3   1   5  385.96    8.98
   2  -1  -5  103.95    2.57
   2  -1  -5  101.23    2.45
   2  -1  -5  104.61    2.44
   2  -1  -5  103.16    2.44
   2  -1  -5  102.26    2.92
   2  -1  -5  100.80    2.66
  -2   1   5  103.54    2.56
  -2   1   5  106.04    2.53
   1  -1  -5   46.96    1.27
   1  -1  -5   46.08    1.33
   1  -1  -5   46.92    1.59
   1  -1  -5   48.19    1.26
  -1   1   5   49.27    1.27
  -1   1   5   50.27    1.29
  -1   1   5   49.04    1.27
   0  -1  -5    4.40    0.37
   0  -1  -5    4.85    0.46
   0  -1  -5    6.73    0.48
   0   1   5    5.19    0.38
   0   1   5    4.63    0.33
   0   1   5    4.80    0.39
  -1  -1  -5    8.42    0.44
  -1  -1  -5    9.01    0.61
  -1  -1  -5    8.26    0.55
  -1  -1  -5    7.79    0.58
   1   1   5    8.17    0.46
   1   1   5    8.57    0.53
  -2  -1  -5    3.86    0.54
  -2  -1  -5    3.21    0.42
  -2  -1  -5    3.57    0.57
  -2  -1  -5    4.63    0.32
   2   1   5    4.84    0.38
   2   1   5    3.82    0.41
  -3  -1  -5  198.22    5.00
  -3  -1  -5  191.65    4.67
  -3  -1  -5  199.55    5.01
  -3  -1  -5  199.61    4.78
   3   1   5  194.11    4.90
  -4  -1  -5   87.34    2.35
  -4  -1  -5   88.35    2.61
  -4  -1  -5   87.27    2.59
   4   1   5   86.86    2.47
  -5  -1  -5   15.95    0.91
  -5  -1  -5   15.14    1.09
   5   1   5   13.61    0.88
   6   1   5    8.15    0.84
   7   1   5    3.02    0.79
 -10   2   5    3.81    0.87
   9  -2  -5    1.03    0.71
  -9   2   5    1.13    0.65
   8  -2  -5   18.42    1.07
  -8   2   5   16.76    0.97
   7  -2  -5   16.77    1.22
   7  -2  -5   17.44    1.13
   7  -2  -5   15.73    0.92
  -7   2   5   13.88    0.83
   6  -2  -5  184.10    4.71
   6  -2  -5  184.58    4.56
   6  -2  -5  184.71    4.72
  -6   2   5  176.40    4.57
   5  -2  -5   98.99    2.67
   5  -2  -5   95.35    2.69
   5  -2  -5  101.85    2.55
  -5   2   5   96.22    2.56
   4  -2  -5   88.84    2.35
   4  -2  -5   88.93    2.25
   4  -2  -5   87.19    2.39
  -4   2   5   87.02    2.27
  -4   2   5   92.51    2.30
   3  -2  -5    0.61    0.28
   3  -2  -5    0.75    0.46
   3  -2  -5    0.30    0.39
   3  -2  -5    0.38    0.29
  -3   2   5    0.40    0.21
  -3   2   5    0.35    0.21
   2  -2  -5    2.15    0.25
   2  -2  -5    2.71    0.28
   2  -2  -5    2.67    0.38
   2  -2  -5    2.43    0.50
  -2   2   5    2.18    0.20
  -2   2   5    2.44    0.24
   1  -2  -5   16.55    0.59
   1  -2  -5   17.11    0.53
   1  -2  -5   17.66    0.55
   1  -2  -5   17.61    0.91
  -1   2   5   18.09    0.53
  -1   2   5   17.70    0.54
  -1   2   5   17.99    0.64
   0  -2  -5   76.11    1.91
   0  -2  -5   78.65    1.95
   0  -2  -5   79.89    2.02
   0   2   5   80.18    1.91
   0   2   5   70.47    1.97
   0   2   5   80.41    1.94
  -1  -2  -5    0.40    0.36
  -1  -2  -5   -0.08    0.42
  -1  -2  -5    0.65    0.31
   1   2   5    0.70    0.28
   1   2   5    0.70    0.21
  -2  -2  -5   65.24    1.87
  -2  -2  -5   65.48    1.89
  -2  -2  -5   55.28    1.65
  -2  -2  -5   65.92    1.76
   2   2   5   67.15    1.78
   2   2   5   68.11    1.74
  -3  -2  -5  101.22    2.85
  -3  -2  -5  103.29    2.84
  -3  -2  -5  104.07    2.58
   3   2   5  102.13    2.73
  -4  -2  -5    3.29    0.71
  -4  -2  -5    2.81    0.67
   4   2   5    2.80    0.52
  -5  -2  -5   -0.29    0.77
   5   2   5   -0.04    0.52
   6   2   5    2.96    0.70
   7   2   5    1.75    0.76
 -10   3   5    2.94    0.80
  -9   3   5    0.80    0.67
   8  -3  -5    3.59    0.66
   8  -3  -5    4.32    0.91
  -8   3   5    3.22    0.65
   7  -3  -5   48.53    1.61
   7  -3  -5   50.77    1.73
   7  -3  -5   48.55    1.80
  -7   3   5   48.76    1.61
   6  -3  -5   38.01    1.25
   6  -3  -5   39.49    1.49
   6  -3  -5   37.92    1.44
  -6   3   5   37.21    1.28
   5  -3  -5   25.55    1.11
   5  -3  -5   24.77    1.09
   5  -3  -5   26.38    0.91
  -5   3   5   25.52    0.91
   4  -3  -5   20.10    1.31
   4  -3  -5   18.73    0.86
   4  -3  -5   19.90    0.92
   4  -3  -5   19.92    0.58
   4  -3  -5   19.77    0.71
  -4   3   5   21.45    0.75
  -4   3   5   20.60    0.72
   3  -3  -5    2.19    0.55
   3  -3  -5    0.98    0.21
   3  -3  -5    1.41    0.32
   3  -3  -5    1.53    0.38
  -3   3   5    1.02    0.21
  -3   3   5    0.99    0.21
   2  -3  -5   26.96    0.76
   2  -3  -5   27.25    0.73
   2  -3  -5   28.69    1.23
  -2   3   5   26.76    0.73
  -2   3   5   29.17    0.77
   1  -3  -5  170.75    3.86
   1  -3  -5  166.34    4.70
  -1   3   5  168.99    3.88
  -1   3   5  170.63    3.96
  -1   3   5  168.78    3.97
   0  -3  -5  157.60    3.84
   0  -3  -5  162.81    3.72
   0  -3  -5  155.61    3.88
   0   3   5  160.13    3.73
   0   3   5  160.25    3.85
   0   3   5  165.31    3.80
  -1  -3  -5  125.94    3.03
  -1  -3  -5  122.81    3.16
  -1  -3  -5  122.75    3.13
   1   3   5  130.02    3.07
   1   3   5  125.43    3.10
  -2  -3  -5   61.09    1.82
  -2  -3  -5   62.09    1.85
   2   3   5   63.73    1.75
   2   3   5   64.10    1.71
  -3  -3  -5    1.54    0.58
  -3  -3  -5    1.69    0.56
   3   3   5    1.37    0.44
  -4  -3  -5   12.07    0.99
  -4  -3  -5   16.03    1.04
   4   3   5   11.38    0.80
  -5  -3  -5   41.39    1.72
   5   3   5   34.50    1.41
   6   3   5   13.80    1.01
 -10   4   5   10.48    1.04
  -9   4   5   27.68    1.35
   8  -4  -5   36.53    1.68
  -8   4   5   32.51    1.36
   7  -4  -5    2.48    0.75
   7  -4  -5    1.95    0.66
  -7   4   5    2.30    0.50
   6  -4  -5    2.05    0.40
   6  -4  -5    2.02    0.64
   6  -4  -5    1.29    0.57
  -6   4   5    1.89    0.44
   5  -4  -5   18.89    1.36
   5  -4  -5   21.84    1.02
   5  -4  -5   22.99    1.02
  -5   4   5   21.28    0.85
  -5   4   5   22.75    0.88
   4  -4  -5  154.27    3.91
   4  -4  -5  156.57    3.93
   4  -4  -5  156.73    3.50
   4  -4  -5  153.27    4.53
  -4   4   5  157.79    3.82
  -4   4   5  161.02    3.83
   3  -4  -5   19.75    0.52
   3  -4  -5   18.91    0.70
   3  -4  -5   20.19    1.24
   3  -4  -5   19.91    0.77
  -3   4   5   19.10    0.62
  -3   4   5   19.42    0.62
   2  -4  -5   42.59    1.05
   2  -4  -5   40.73    1.64
  -2   4   5   41.79    1.11
   1  -4  -5   97.05    2.30
   1  -4  -5   98.57    3.03
  -1   4   5   97.06    2.33
   0  -4  -5   22.22    0.76
   0   4   5   24.66    0.67
   0   4   5   23.76    0.71
  -1  -4  -5   -0.31    0.38
  -1  -4  -5   -0.09    0.40
   1   4   5    0.10    0.22
   1   4   5    0.48    0.27
  -2  -4  -5   56.65    1.73
  -2  -4  -5   57.76    1.75
   2   4   5   58.63    1.65
   2   4   5   61.94    1.64
  -3  -4  -5    2.61    0.61
  -3  -4  -5    2.77    0.61
   3   4   5    3.58    0.47
  -4  -4  -5    2.55    0.73
  -4  -4  -5    1.68    0.76
   4   4   5    2.21    0.52
  -5  -4  -5   15.59    1.22
   5   4   5   15.02    0.98
   6   4   5    2.27    0.71
  -9   5   5   16.00    1.11
   8  -5  -5    7.12    0.95
  -8   5   5    5.13    0.69
   7  -5  -5    8.33    0.85
   7  -5  -5    9.47    0.91
  -7   5   5    7.26    0.67
   6  -5  -5    1.64    0.60
   6  -5  -5    1.29    0.56
   6  -5  -5    0.00    0.75
  -6   5   5    1.43    0.43
   5  -5  -5   20.41    0.98
   5  -5  -5   20.45    0.98
   5  -5  -5   17.07    1.32
  -5   5   5   21.69    0.83
  -5   5   5   19.07    0.80
   4  -5  -5   59.37    1.71
   4  -5  -5   60.91    2.24
   4  -5  -5   59.03    1.71
  -4   5   5   61.24    1.62
  -4   5   5   63.73    1.63
   3  -5  -5  131.01    3.31
   3  -5  -5  137.84    3.32
   3  -5  -5  135.06    4.03
  -3   5   5  135.50    3.25
  -3   5   5  139.18    3.26
   2  -5  -5   73.69    2.54
  -2   5   5   73.25    1.76
   1  -5  -5    0.20    0.69
  -1   5   5   -0.22    0.26
   0  -5  -5    4.03    0.34
   0   5   5    4.27    0.30
   0   5   5    4.13    0.27
  -1  -5  -5  106.10    2.73
  -1  -5  -5  106.06    2.73
   1   5   5  108.69    2.66
   1   5   5  107.94    2.68
  -2  -5  -5   81.77    2.23
  -2  -5  -5   78.46    2.21
   2   5   5   78.56    2.12
  -3  -5  -5    1.94    0.66
  -3  -5  -5    3.19    0.64
   3   5   5    2.48    0.47
  -4  -5  -5    6.19    0.80
  -4  -5  -5    7.09    0.91
   4   5   5    6.57    0.68
  -5  -5  -5   -1.08    0.88
   5   5   5   -0.06    0.55
  -9   6   5    0.81    0.67
   8  -6  -5   24.36    1.43
  -8   6   5   21.70    1.12
   7  -6  -5   16.15    1.47
   7  -6  -5   18.02    1.14
   7  -6  -5   18.02    1.16
  -7   6   5   18.42    0.94
   6  -6  -5   25.68    1.19
   6  -6  -5   24.92    1.19
   6  -6  -5   20.23    1.63
  -6   6   5   26.09    0.99
   5  -6  -5   15.70    0.86
   5  -6  -5   13.79    1.18
   5  -6  -5   16.98    0.92
  -5   6   5   15.45    0.72
   4  -6  -5   42.40    1.34
   4  -6  -5   46.49    1.92
   4  -6  -5   43.36    1.37
  -4   6   5   46.29    1.27
  -4   6   5   46.02    1.27
   3  -6  -5    5.16    0.84
   3  -6  -5    6.52    0.48
   3  -6  -5    6.35    0.44
  -3   6   5    6.40    0.37
  -3   6   5    6.20    0.37
   2  -6  -5  108.96    3.46
  -2   6   5  111.21    2.55
   1  -6  -5   51.60    2.16
  -1   6   5   48.65    1.33
   0  -6  -5   13.76    0.57
   0  -6  -5   12.14    0.54
   0   6   5   14.17    0.50
   0   6   5   13.99    0.50
  -1  -6  -5   19.23    0.80
  -1  -6  -5   17.04    0.79
   1   6   5   18.25    0.69
  -2  -6  -5    1.93    0.52
  -2  -6  -5    1.37    0.54
   2   6   5    0.99    0.39
  -3  -6  -5    3.81    0.74
  -3  -6  -5    2.75    0.68
   3   6   5    4.39    0.54
  -4  -6  -5    0.91    0.80
  -4  -6  -5   -0.20    0.71
   4   6   5   -0.17    0.51
  -5  -6  -5    1.23    0.97
   5   6   5    0.13    0.62
   9  -7  -5   -0.01    1.06
  -9   7   5    2.23    0.75
   8  -7  -5    2.48    1.05
   8  -7  -5    2.14    0.90
  -8   7   5    2.51    0.63
   7  -7  -5   23.31    1.80
   7  -7  -5   31.12    1.39
   7  -7  -5   30.35    1.44
  -7   7   5   28.76    1.17
   6  -7  -5   14.90    1.01
   6  -7  -5   16.41    1.04
   6  -7  -5   14.98    1.38
  -6   7   5   14.80    0.83
   5  -7  -5    0.26    0.52
   5  -7  -5    0.17    0.75
   5  -7  -5    0.88    0.54
  -5   7   5   -0.07    0.35
   4  -7  -5    0.57    0.74
   4  -7  -5    1.53    0.44
   4  -7  -5    0.71    0.48
  -4   7   5    1.34    0.32
   3  -7  -5   45.77    1.33
   3  -7  -5   44.96    1.99
   3  -7  -5   46.55    1.25
  -3   7   5   45.74    1.22
   2  -7  -5   98.08    3.32
   1  -7  -5   43.87    2.10
   0  -7  -5    9.90    0.58
   0  -7  -5    9.04    0.53
   0   7   5    9.82    0.46
  -1  -7  -5   -0.07    0.46
  -1  -7  -5   -0.37    0.41
   1   7   5   -0.09    0.30
  -2  -7  -5    1.06    0.60
  -2  -7  -5    1.28    0.56
   2   7   5    0.69    0.40
  -3  -7  -5    6.70    0.77
  -3  -7  -5    4.90    0.79
   3   7   5    5.61    0.60
  -4  -7  -5   24.87    1.45
   4   7   5   23.33    1.14
   8  -8  -5    3.53    0.96
   8  -8  -5    3.56    1.15
  -8   8   5    4.60    0.72
   7  -8  -5    4.96    0.83
   7  -8  -5    5.72    1.11
   7  -8  -5    5.20    0.86
  -7   8   5    4.93    0.65
   6  -8  -5   20.88    1.12
   6  -8  -5   18.16    1.47
   6  -8  -5   20.61    1.18
  -6   8   5   21.22    0.96
   5  -8  -5   36.71    1.34
   5  -8  -5   36.65    1.98
   5  -8  -5   36.89    1.37
  -5   8   5   36.65    1.20
   4  -8  -5   38.56    1.25
   4  -8  -5   38.51    1.32
   4  -8  -5   40.38    1.94
  -4   8   5   40.08    1.18
   3  -8  -5   14.33    1.25
   3  -8  -5   12.50    0.78
   3  -8  -5   14.02    0.63
  -3   8   5   14.08    0.59
   2  -8  -5    0.94    0.84
  -2   8   5    0.84    0.28
  -1   8   5    4.51    0.30
   0  -8  -5    3.29    0.43
   0  -8  -5    3.27    0.47
   0   8   5    3.97    0.35
  -1  -8  -5    0.44    0.50
  -1  -8  -5    0.97    0.49
   1   8   5    1.12    0.36
  -2  -8  -5    0.89    0.59
  -2  -8  -5    1.08    0.64
   2   8   5    0.80    0.44
  -3  -8  -5   15.26    1.07
  -3  -8  -5   14.46    1.03
   3   8   5   15.39    0.89
   8  -9  -5   -1.38    1.03
   8  -9  -5    0.28    0.87
  -8   9   5    0.11    0.63
   7  -9  -5    5.08    0.89
   7  -9  -5    3.33    0.84
   7  -9  -5    4.34    1.16
  -7   9   5    4.75    0.66
   6  -9  -5   23.93    1.26
   6  -9  -5   26.17    1.26
   6  -9  -5   23.56    1.83
  -6   9   5   26.08    1.08
   5  -9  -5   34.44    1.41
   5  -9  -5   35.36    1.33
   5  -9  -5   36.46    2.05
  -5   9   5   35.71    1.20
   4  -9  -5    7.35    0.62
   4  -9  -5    8.07    0.72
   4  -9  -5    7.41    0.68
   4  -9  -5    7.73    1.20
  -4   9   5    7.52    0.51
   3  -9  -5    1.58    0.56
   3  -9  -5    1.57    1.00
   3  -9  -5    1.41    0.43
  -3   9   5    1.42    0.34
   2  -9  -5    3.06    1.08
   2  -9  -5    2.35    0.43
   2  -9  -5    2.19    0.47
  -2   9   5    3.04    0.39
   1  -9  -5    0.89    0.51
   1  -9  -5    0.79    0.40
  -1   9   5    1.11    0.30
   0  -9  -5   26.68    1.04
   0  -9  -5   27.70    1.01
   0   9   5   27.30    0.92
  -1  -9  -5   14.83    0.90
  -1  -9  -5   16.12    0.92
   1   9   5   15.04    0.77
  -2  -9  -5   12.18    0.92
  -2  -9  -5   12.43    0.91
   2   9   5   12.76    0.82
   7 -10  -5    6.88    0.95
   7 -10  -5    5.72    1.29
  -7  10   5    6.56    0.73
   6 -10  -5    0.84    0.70
   6 -10  -5    0.85    0.76
   6 -10  -5    0.83    1.09
  -6  10   5    0.07    0.51
   5 -10  -5    1.97    0.70
   5 -10  -5    1.41    0.65
   5 -10  -5    0.79    1.06
  -5  10   5    1.83    0.49
   4 -10  -5    4.96    0.64
   4 -10  -5    5.30    1.18
   4 -10  -5    5.03    0.74
   4 -10  -5    5.47    0.71
  -4  10   5    5.90    0.52
   3 -10  -5    4.86    0.71
   3 -10  -5    4.27    1.10
   3 -10  -5    6.82    0.61
   2 -10  -5    1.94    0.59
   2 -10  -5    2.15    1.07
   2 -10  -5    2.78    0.61
   1 -10  -5    8.83    0.65
   1 -10  -5    8.82    0.71
   0 -10  -5    8.16    0.69
   0 -10  -5    7.99    0.70
  -1 -10  -5    7.77    0.78
  -1 -10  -5    6.96    0.76
   6 -11  -5    0.36    1.13
   6 -11  -5    0.67    0.81
   6 -11  -5    1.16    0.79
  -6  11   5    0.08    0.55
   5 -11  -5    0.38    0.69
   5 -11  -5   -0.22    1.12
   5 -11  -5   -0.52    0.76
  -5  11   5    1.08    0.50
   4 -11  -5    5.94    0.79
   4 -11  -5    4.50    1.27
   4 -11  -5    6.26    0.85
   4 -11  -5    5.78    0.74
   3 -11  -5   14.51    1.52
   3 -11  -5   13.59    0.89
   3 -11  -5   14.64    0.99
   2 -11  -5   16.97    1.11
   2 -11  -5   16.28    1.11
   1 -11  -5    1.96    0.65
   1 -11  -5    3.19    0.68
   0 -11  -5    0.27    0.64
   0 -11  -5    0.37    0.63
   0  14  -6    5.17    0.92
   0  14  -6    5.20    0.85
  -1  14  -6    6.30    0.98
  -1  14  -6    6.83    0.85
   2  13  -6    1.55    0.73
   2  13  -6    1.39    0.84
   1  13  -6    4.83    0.91
   1  13  -6    6.29    0.96
   1  13  -6    6.97    0.86
   0  13  -6   15.70    1.21
   0  13  -6   17.20    1.12
  -1  13  -6    5.98    0.82
  -1  13  -6    6.35    0.89
  -2  13  -6   10.56    1.05
  -2  13  -6    8.81    0.89
  -3  13  -6    7.87    1.03
  -3  13  -6    8.03    0.85
  -4  13  -6    3.27    0.95
   4  12  -6   11.26    1.12
   3  12  -6   17.89    1.28
   2  12  -6    5.57    0.91
   1  12  -6   18.00    1.15
   1  12  -6   16.12    1.14
   1  12  -6   18.81    1.24
   0  12  -6    4.04    0.81
   0  12  -6    3.73    0.72
  -1  12  -6    6.53    0.77
  -1  12  -6    7.77    0.89
  -2  12  -6    0.98    0.68
  -2  12  -6    2.91    0.68
  -3  12  -6    5.17    0.75
  -3  12  -6    5.43    0.92
  -4  12  -6   10.80    0.93
  -4  12  -6   11.18    1.14
  -5  12  -6    3.59    0.89
   5  11  -6    1.66    0.82
   4  11  -6   20.04    1.33
   3  11  -6    2.02    0.72
   2  11  -6    3.30    0.78
  -2 -11   6    3.97    0.87
   1  11  -6   25.10    1.18
   1  11  -6   25.85    1.34
   1  11  -6   23.62    1.25
  -1 -11   6   24.16    1.43
   0  11  -6   -0.18    0.59
   0  11  -6   -0.42    0.58
   0 -11   6   -0.05    0.75
  -1  11  -6   17.76    1.19
  -1  11  -6   16.52    1.05
   1 -11   6   20.11    1.43
  -2  11  -6   45.26    1.74
  -2  11  -6   46.34    1.63
   2 -11   6   46.85    1.94
  -3  11  -6   22.35    1.15
  -3  11  -6   22.11    1.26
   3 -11   6   23.25    1.49
  -4  11  -6    5.78    0.79
  -4  11  -6    5.46    0.93
   4 -11   6    7.62    1.08
  -5  11  -6    5.69    0.83
  -5  11  -6    5.40    0.98
   5 -11   6    5.17    1.10
  -6  11  -6    2.35    0.94
  -6  11  -6    3.27    0.79
   6  10  -6    4.91    0.92
   5  10  -6   18.98    1.29
   4  10  -6   11.21    0.96
  -4 -10   6   12.46    1.14
   3  10  -6    3.52    0.75
  -3 -10   6    4.31    0.87
   2  10  -6   11.53    0.94
  -2 -10   6   13.55    1.08
   1  10  -6   31.22    1.45
   1  10  -6   34.86    1.38
   1  10  -6   31.96    1.45
  -1 -10   6   34.45    1.75
  -1 -10   6   33.98    1.56
   0  10  -6   13.42    0.96
   0  10  -6   14.23    0.97
   0 -10   6   16.33    1.14
   0 -10   6   13.41    1.28
  -1  10  -6   21.27    1.09
  -1  10  -6   19.84    1.11
   1 -10   6   22.17    1.37
   1 -10   6   19.34    1.40
  -2  10  -6   13.31    0.90
  -2  10  -6   13.95    1.03
   2 -10   6   12.99    1.10
  -3  10  -6   11.77    0.86
  -3  10  -6    9.87    0.97
   3 -10   6    9.85    1.06
  -4  10  -6    0.09    0.60
  -4  10  -6    0.20    0.69
   4 -10   6    0.72    0.86
  -5  10  -6    0.26    0.72
  -5  10  -6   -0.19    0.62
   5 -10   6    0.92    0.90
  -6  10  -6    2.01    0.74
  -6  10  -6    2.65    0.93
   6 -10   6    2.60    1.06
   6   9  -6    0.47    0.70
  -6  -9   6   -0.03    0.84
   5   9  -6    2.24    0.68
  -5  -9   6    2.51    0.82
   4   9  -6    0.41    0.59
  -4  -9   6    0.07    0.71
   3   9  -6    0.42    0.57
  -3  -9   6    0.61    0.64
   2   9  -6   64.12    2.14
  -2  -9   6   66.42    2.43
  -2  -9   6   67.37    2.25
   1   9  -6   46.33    1.61
   1   9  -6   46.43    1.72
   1   9  -6   46.34    1.72
  -1  -9   6   49.47    1.83
  -1  -9   6   46.33    1.94
   0   9  -6   12.79    0.93
   0   9  -6   12.37    0.85
   0  -9   6   14.11    1.05
   0  -9   6   12.17    1.14
  -1   9  -6   37.28    1.48
  -1   9  -6   38.09    1.40
   1  -9   6   39.06    1.69
   1  -9   6   40.40    1.89
  -2   9  -6    1.44    0.56
  -2   9  -6    1.08    0.63
   2  -9   6   -0.39    0.70
  -3   9  -6   28.23    1.39
  -3   9  -6   29.14    1.23
   3  -9   6   29.46    1.56
  -4   9  -6   22.82    1.25
  -4   9  -6   22.70    1.15
   4  -9   6   23.60    1.48
  -5   9  -6   20.74    1.16
  -5   9  -6   20.61    1.27
   5  -9   6   23.96    1.53
  -6   9  -6    9.60    1.10
  -6   9  -6    9.04    0.91
   6  -9   6   10.15    1.19
  -7   9  -6    6.51    1.09
   7   8  -6    0.47    0.78
  -7  -8   6    0.63    0.88
   6   8  -6    3.42    0.81
  -6  -8   6    2.64    0.86
   5   8  -6   45.12    1.75
  -5  -8   6   48.01    1.85
   4   8  -6   12.33    0.93
  -4  -8   6   12.74    1.01
   3   8  -6   44.03    1.59
  -3  -8   6   45.18    1.84
  -3  -8   6   44.08    1.66
   2   8  -6   62.78    1.97
  -2  -8   6   60.28    2.27
  -2  -8   6   58.08    2.01
  -2  -8   6   63.03    2.30
   1   8  -6   18.30    1.09
   1   8  -6   18.81    1.03
   1   8  -6   20.75    1.04
  -1  -8   6   21.09    1.23
  -1  -8   6   19.57    1.33
  -1  -8   6   17.40    1.26
   0   8  -6   28.90    1.20
   0   8  -6   28.43    1.22
   0  -8   6   27.66    1.39
   0  -8   6   27.43    1.76
   0  -8   6   28.53    1.58
  -1   8  -6   12.70    0.81
  -1   8  -6   12.97    0.90
   1  -8   6   12.38    1.16
   1  -8   6   12.50    1.11
   1  -8   6   11.49    0.99
  -2   8  -6    3.78    0.62
  -2   8  -6    4.24    0.71
   2  -8   6    3.84    0.97
   2  -8   6    2.94    0.70
  -3   8  -6    4.33    0.72
  -3   8  -6    4.03    0.59
   3  -8   6    4.21    0.78
   3  -8   6    4.24    0.45
  -4   8  -6   35.88    1.34
  -4   8  -6   36.19    1.55
   4  -8   6   35.40    1.66
  -5   8  -6    3.86    0.69
  -5   8  -6    3.17    0.78
   5  -8   6    3.06    0.91
  -6   8  -6    0.87    0.76
  -6   8  -6    0.76    0.67
   6  -8   6    0.33    0.81
  -7   8  -6    1.30    0.92
  -7   8  -6    2.10    0.79
   7  -8   6    0.84    1.01
   8   7  -6    0.61    0.79
  -8  -7   6    0.73    0.83
   7   7  -6    1.56    0.76
  -7  -7   6   -0.54    0.75
   6   7  -6   26.01    1.35
  -6  -7   6   27.06    1.42
   5   7  -6   29.49    1.30
  -5  -7   6   29.38    1.34
   4   7  -6    7.26    0.75
  -4  -7   6    6.72    0.76
   3   7  -6   23.03    1.11
  -3  -7   6   26.51    1.57
  -3  -7   6   27.21    1.41
  -3  -7   6   23.85    1.16
   2   7  -6    3.01    0.89
   2   7  -6    2.43    0.37
   2   7  -6    2.91    0.55
  -2  -7   6    1.19    0.79
  -2  -7   6    2.65    0.61
  -2  -7   6    1.90    0.78
   1   7  -6    4.47    0.60
   1   7  -6    4.74    0.64
   1   7  -6    3.51    0.54
   1   7  -6    4.80    0.92
  -1  -7   6    5.52    0.95
  -1  -7   6    4.58    0.93
  -1  -7   6    4.75    0.69
   0   7  -6  102.68    3.06
   0   7  -6   99.88    2.60
   0   7  -6   95.99    2.76
   0  -7   6   94.58    2.98
   0  -7   6   97.21    2.88
   0  -7   6   98.73    3.08
  -1   7  -6   89.18    2.57
  -1   7  -6   88.86    2.86
  -1   7  -6   88.12    2.40
   1  -7   6   87.75    2.71
   1  -7   6   86.97    2.90
   1  -7   6   95.46    2.83
  -2   7  -6   23.00    1.47
  -2   7  -6   20.98    1.03
  -2   7  -6   19.25    1.04
   2  -7   6   20.66    0.72
   2  -7   6   18.83    1.16
   2  -7   6   22.81    1.37
   2  -7   6   22.15    1.37
  -3   7  -6   72.51    2.22
  -3   7  -6   70.18    2.05
   3  -7   6   66.98    2.27
  -4   7  -6    5.81    0.65
  -4   7  -6    6.85    0.79
   4  -7   6    8.07    0.87
  -5   7  -6   32.26    1.49
  -5   7  -6   33.12    1.30
   5  -7   6   29.94    1.52
  -6   7  -6   28.94    1.32
  -6   7  -6   26.07    1.45
   6  -7   6   23.09    1.44
  -7   7  -6   16.58    1.15
  -7   7  -6   14.49    1.19
   7  -7   6   16.13    1.37
   8   6  -6    6.50    0.94
  -8  -6   6    6.85    1.00
   7   6  -6   20.75    1.26
  -7  -6   6   19.12    1.29
   6   6  -6   32.36    1.40
  -6  -6   6   35.23    1.45
   5   6  -6    0.60    0.52
  -5  -6   6   -0.11    0.57
   4   6  -6    6.56    0.68
  -4  -6   6    6.68    0.84
  -4  -6   6    5.90    0.71
   3   6  -6  115.30    3.17
   3   6  -6  117.70    3.40
  -3  -6   6  117.09    3.36
  -3  -6   6  121.27    3.43
  -3  -6   6  116.98    3.22
   2   6  -6   24.86    1.15
   2   6  -6   26.51    1.38
   2   6  -6   27.52    1.31
  -2  -6   6   27.49    1.53
  -2  -6   6   27.29    1.21
  -2  -6   6   25.23    1.39
   1   6  -6    0.68    0.69
   1   6  -6    0.98    0.49
   1   6  -6    1.42    0.67
   1   6  -6    2.04    0.46
   1   6  -6    1.45    0.47
  -1  -6   6    1.45    0.53
  -1  -6   6    1.77    0.73
  -1  -6   6    1.46    0.65
   0   6  -6   83.98    2.44
   0   6  -6   88.66    2.63
   0   6  -6   85.14    2.31
   0  -6   6   85.78    2.55
   0  -6   6   89.58    2.74
  -1   6  -6    0.54    0.45
  -1   6  -6    1.15    0.51
  -1   6  -6    1.90    0.77
   1  -6   6    0.27    0.53
   1  -6   6    0.12    0.14
   1  -6   6    1.48    0.73
  -2   6  -6    0.15    0.52
  -2   6  -6    0.22    0.76
  -2   6  -6    0.04    0.18
  -2   6  -6    0.28    0.43
   2  -6   6    0.44    0.52
   2  -6   6   -0.07    0.56
   2  -6   6   -0.49    0.79
   2  -6   6   -0.31    0.76
  -3   6  -6    1.66    0.58
  -3   6  -6    2.68    0.54
  -3   6  -6    0.46    0.34
   3  -6   6    1.61    0.66
  -4   6  -6   13.72    0.95
  -4   6  -6   12.07    0.83
   4  -6   6   12.42    0.97
  -5   6  -6   21.00    1.23
  -5   6  -6   22.37    1.14
   5  -6   6   19.41    1.30
  -6   6  -6   22.32    1.18
  -6   6  -6   25.94    1.40
   6  -6   6   25.53    1.49
  -7   6  -6    1.91    0.72
  -7   6  -6    2.52    0.88
   7  -6   6    2.05    0.94
   8   5  -6    2.41    0.74
  -8  -5   6    2.36    0.76
   7   5  -6    1.20    0.64
  -7  -5   6    1.10    0.70
   6   5  -6    0.32    0.55
  -6  -5   6    0.65    0.60
   5   5  -6    1.04    0.55
  -5  -5   6    1.11    0.51
   4   5  -6   65.45    2.03
   4   5  -6   66.60    2.12
  -4  -5   6   64.23    2.01
  -4  -5   6   71.13    2.25
   3   5  -6  109.13    2.98
   3   5  -6  114.04    3.12
  -3  -5   6  107.87    3.18
  -3  -5   6  109.47    3.01
   2   5  -6    5.90    0.60
   2   5  -6    6.18    0.73
   2   5  -6    3.90    0.53
  -2  -5   6    3.69    0.53
  -2  -5   6    4.35    0.77
   1   5  -6  118.14    2.92
   1   5  -6  112.65    3.22
   1   5  -6  111.71    3.04
   1   5  -6  113.67    3.04
   1   5  -6  112.97    3.20
  -1  -5   6  118.45    3.23
  -1  -5   6  113.62    3.11
   0   5  -6   64.31    1.80
   0   5  -6   63.30    1.89
   0   5  -6   64.32    2.07
   0   5  -6   64.86    2.12
   0  -5   6   62.81    2.07
   0  -5   6   59.49    2.15
   0  -5   6   63.69    2.01
  -1   5  -6    6.24    0.58
  -1   5  -6    4.46    0.55
  -1   5  -6    5.99    0.79
  -1   5  -6    4.71    0.80
   1  -5   6    6.28    0.87
   1  -5   6    6.20    0.78
   1  -5   6    6.01    0.69
  -2   5  -6  131.87    3.72
  -2   5  -6  130.72    3.35
  -2   5  -6  139.61    3.75
  -2   5  -6  135.06    3.54
   2  -5   6  141.15    3.84
   2  -5   6  130.26    3.65
  -3   5  -6  223.78    5.69
  -3   5  -6  226.97    5.90
  -3   5  -6  226.44    5.40
  -3   5  -6  235.24    5.95
   3  -5   6  227.22    5.83
   3  -5   6  222.79    5.92
  -4   5  -6   20.02    0.98
  -4   5  -6   22.52    1.06
   4  -5   6   20.36    1.13
  -5   5  -6    5.56    0.75
  -5   5  -6    5.60    0.70
   5  -5   6    4.68    0.77
  -6   5  -6    1.11    0.68
  -6   5  -6    1.47    0.72
   6  -5   6    2.01    0.75
  -7   5  -6    7.87    0.93
  -7   5  -6    7.50    0.90
   7  -5   6    6.48    1.03
   9   4  -6    3.20    0.85
  -9  -4   6    3.89    0.88
   8   4  -6    1.57    0.71
  -8  -4   6    2.03    0.77
   7   4  -6   75.27    2.31
  -7  -4   6   68.06    2.25
   6   4  -6   46.41    1.66
  -6  -4   6   47.68    1.68
   5   4  -6    4.20    0.72
   5   4  -6    3.56    0.59
   5   4  -6    3.96    0.69
  -5  -4   6    3.89    0.56
  -5  -4   6    3.89    0.74
   4   4  -6   67.52    2.04
   4   4  -6   69.55    2.13
   4   4  -6   71.94    2.27
  -4  -4   6   71.20    2.20
  -4  -4   6   68.25    2.29
  -4  -4   6   70.84    2.07
   3   4  -6    3.41    0.67
   3   4  -6    3.54    0.57
   3   4  -6    2.95    0.47
  -3  -4   6    3.01    0.47
  -3  -4   6    4.20    0.67
  -3  -4   6    4.61    0.66
   2   4  -6    0.76    0.49
   2   4  -6    0.18    0.64
   2   4  -6    0.01    0.37
  -2  -4   6    0.59    0.58
  -2  -4   6    0.04    0.37
  -2  -4   6    0.55    0.51
   1   4  -6   18.99    0.86
   1   4  -6   18.85    1.00
   1   4  -6   18.85    1.24
   1   4  -6   17.01    0.88
   1   4  -6   19.36    0.89
  -1  -4   6   16.55    1.12
  -1  -4   6   18.64    1.23
  -1  -4   6   18.93    0.94
   0   4  -6   58.59    1.66
   0   4  -6   57.53    1.93
   0   4  -6   56.50    2.00
   0   4  -6   58.78    1.72
   0  -4   6   59.09    1.82
   0  -4   6   60.14    1.97
   0  -4   6   58.19    1.96
  -1   4  -6   24.89    0.97
  -1   4  -6   27.09    1.39
  -1   4  -6   24.67    1.20
  -1   4  -6   24.52    0.97
   1  -4   6   27.03    1.40
   1  -4   6   23.20    1.06
   1  -4   6   22.78    0.80
  -2   4  -6  147.85    3.96
  -2   4  -6  141.21    3.59
  -2   4  -6  146.61    3.76
  -2   4  -6  151.12    4.02
   2  -4   6  145.40    4.05
   2  -4   6  148.10    3.92
  -3   4  -6    9.11    0.68
  -3   4  -6    9.16    0.97
  -3   4  -6   10.42    0.72
  -3   4  -6   11.18    0.97
   3  -4   6    8.22    0.76
   3  -4   6   10.24    1.02
  -4   4  -6    1.16    0.54
  -4   4  -6    0.31    0.74
  -4   4  -6    1.90    0.54
   4  -4   6    0.56    0.54
  -5   4  -6    8.35    0.79
  -5   4  -6    6.77    0.74
   5  -4   6    7.33    0.82
  -6   4  -6    0.68    0.66
  -6   4  -6    0.18    0.65
   6  -4   6    0.27    0.71
  -7   4  -6    3.17    0.82
   7  -4   6    2.08    0.86
   9   3  -6    0.26    0.78
  -9  -3   6    0.67    0.73
   8   3  -6    9.07    0.94
  -8  -3   6    7.85    0.84
   7   3  -6   20.35    1.18
  -7  -3   6   21.86    1.15
   6   3  -6    7.19    0.68
  -6  -3   6    7.93    0.70
   5   3  -6   32.37    1.23
   5   3  -6   34.97    1.42
   5   3  -6   30.73    1.55
  -5  -3   6   31.43    1.20
  -5  -3   6   34.95    1.49
   4   3  -6   23.86    1.27
   4   3  -6   27.91    1.10
   4   3  -6   26.50    1.14
  -4  -3   6   27.87    1.08
  -4  -3   6   28.60    1.19
   3   3  -6   20.40    1.00
   3   3  -6   19.58    1.20
   3   3  -6   21.35    0.92
  -3  -3   6   19.10    1.01
  -3  -3   6   20.42    0.85
   2   3  -6   77.42    2.13
   2   3  -6   75.61    2.35
   2   3  -6   77.35    2.21
  -2  -3   6   77.79    2.19
  -2  -3   6   77.96    2.13
   1   3  -6  595.83   14.08
   1   3  -6  585.45   13.12
   1   3  -6  588.88   14.76
   1   3  -6  576.19   14.02
   1   3  -6  596.21   13.86
  -1  -3   6  583.61   14.00
  -1  -3   6  566.68   13.89
   0   3  -6  115.81    3.14
   0   3  -6  112.37    2.85
   0   3  -6  115.81    2.97
   0   3  -6  115.95    3.15
   0  -3   6  113.55    3.07
   0  -3   6  111.21    3.12
   0  -3   6  116.70    3.00
  -1   3  -6   57.68    1.83
  -1   3  -6   60.56    1.87
  -1   3  -6   57.63    1.65
  -1   3  -6   56.74    1.66
   1  -3   6   58.29    1.94
   1  -3   6   55.06    1.66
   1  -3   6   54.81    1.76
  -2   3  -6   29.81    1.44
  -2   3  -6   31.77    1.13
  -2   3  -6   31.03    1.10
  -2   3  -6   32.71    1.41
   2  -3   6   32.12    1.23
   2  -3   6   34.86    1.54
  -3   3  -6   40.50    1.65
  -3   3  -6   39.18    1.31
  -3   3  -6   37.66    1.33
  -3   3  -6   39.76    1.73
   3  -3   6   36.09    1.39
  -4   3  -6   22.57    1.03
  -4   3  -6   25.41    1.08
  -4   3  -6   23.01    1.38
  -4   3  -6   24.39    1.31
   4  -3   6   21.55    1.09
  -5   3  -6   20.87    1.11
  -5   3  -6   22.10    1.07
   5  -3   6   22.06    1.22
  -6   3  -6    5.20    0.72
  -6   3  -6    4.93    0.74
   6  -3   6    3.97    0.77
  -7   3  -6    5.39    0.87
   7  -3   6    5.39    0.88
   9   2  -6    6.43    0.88
  -9  -2   6    4.71    0.82
   8   2  -6   21.53    1.17
  -8  -2   6   18.93    1.19
   7   2  -6    4.02    0.65
  -7  -2   6    2.90    0.63
   6   2  -6    3.50    0.82
   6   2  -6    4.08    0.58
  -6  -2   6    5.08    0.61
   5   2  -6   58.67    1.95
   5   2  -6   57.01    1.76
   5   2  -6   58.67    1.84
  -5  -2   6   58.99    1.85
  -5  -2   6   57.94    1.78
   4   2  -6   65.18    1.86
   4   2  -6   60.01    1.80
   4   2  -6   57.23    2.02
  -4  -2   6   60.92    1.77
  -4  -2   6   64.66    1.89
   3   2  -6   11.10    0.69
   3   2  -6    9.57    0.65
   3   2  -6   10.88    0.81
  -3  -2   6   10.52    0.75
  -3  -2   6    9.04    0.57
   2   2  -6  197.95    4.86
   2   2  -6  199.20    4.86
   2   2  -6  192.21    4.91
   2   2  -6  197.22    5.02
   2   2  -6  200.91    5.16
   2   2  -6  197.09    4.65
  -2  -2   6  199.02    4.86
  -2  -2   6  194.45    4.87
   1   2  -6   87.66    2.40
   1   2  -6   87.50    2.23
   1   2  -6   87.62    2.28
   1   2  -6   86.37    2.36
   1   2  -6   83.13    2.48
  -1  -2   6   89.65    2.32
  -1  -2   6   85.39    2.33
  -1  -2   6   83.46    2.33
   0   2  -6   -0.05    0.52
   0   2  -6    1.31    0.53
   0   2  -6    0.41    0.31
   0   2  -6    0.85    0.35
   0  -2   6    1.09    0.32
   0  -2   6    1.43    0.39
   0  -2   6    0.31    0.25
   0  -2   6    1.28    0.30
  -1   2  -6   11.28    0.60
  -1   2  -6   10.87    0.82
  -1   2  -6   11.83    0.79
  -1   2  -6   11.64    0.67
   1  -2   6   10.67    0.72
  -2   2  -6    6.33    0.50
  -2   2  -6    7.08    0.58
  -2   2  -6    7.69    0.78
  -2   2  -6    6.36    0.72
   2  -2   6    7.24    0.63
  -3   2  -6    3.37    0.51
  -3   2  -6    3.34    0.73
  -3   2  -6    3.63    0.48
  -3   2  -6    4.81    0.74
   3  -2   6    2.91    0.52
  -4   2  -6   30.39    1.59
  -4   2  -6   31.23    1.41
  -4   2  -6   28.81    1.16
  -4   2  -6   31.26    1.17
  -4   2  -6   31.05    1.50
   4  -2   6   29.01    1.23
  -5   2  -6   56.79    2.15
  -5   2  -6   57.65    2.10
  -5   2  -6   57.20    1.83
  -5   2  -6   58.38    1.86
   5  -2   6   54.86    1.95
  -6   2  -6    5.45    0.76
   6  -2   6    5.88    0.81
   7  -2   6    5.69    0.88
   9   1  -6    2.69    0.81
  -9  -1   6    3.24    0.78
   8   1  -6    2.43    0.67
  -8  -1   6    3.81    0.72
   7   1  -6   11.27    0.85
  -7  -1   6   10.95    0.79
   6   1  -6    1.28    0.69
   6   1  -6    0.20    0.48
   6   1  -6    0.38    0.62
  -6  -1   6    0.16    0.41
   5   1  -6  176.81    4.50
   5   1  -6  173.80    4.41
   5   1  -6  182.07    4.60
  -5  -1   6  168.86    4.39
   4   1  -6   96.54    2.59
   4   1  -6   97.45    2.77
   4   1  -6  100.34    2.66
  -4  -1   6   98.04    2.58
   3   1  -6  163.27    4.20
   3   1  -6  164.18    4.30
   3   1  -6  167.72    4.15
  -3  -1   6  166.96    4.14
  -3  -1   6  174.45    4.17
   2   1  -6   48.11    1.68
   2   1  -6   52.74    1.47
   2   1  -6   52.00    1.63
   2   1  -6   52.77    1.50
   2   1  -6   52.28    1.52
  -2  -1   6   53.49    1.50
  -2  -1   6   51.93    1.47
   1   1  -6   10.35    0.54
   1   1  -6   10.79    0.65
   1   1  -6   11.29    0.68
   1   1  -6   11.39    0.71
   1   1  -6   10.37    0.73
  -1  -1   6   11.30    0.62
  -1  -1   6   10.81    0.60
   0   1  -6   48.00    1.52
   0   1  -6   46.98    1.38
   0   1  -6   49.42    1.57
   0   1  -6   46.96    1.30
   0  -1   6   47.01    1.48
   0  -1   6   48.50    1.38
  -1   1  -6  170.96    4.46
  -1   1  -6  172.90    4.11
  -1   1  -6  172.86    4.40
  -1   1  -6  171.21    4.21
   1  -1   6  181.48    4.28
   1  -1   6  170.75    4.38
  -2   1  -6   34.35    1.37
  -2   1  -6   31.67    1.03
  -2   1  -6   32.30    1.33
  -2   1  -6   31.18    1.14
  -2   1  -6   33.93    1.37
   2  -1   6   32.67    1.20
  -3   1  -6   20.30    0.97
  -3   1  -6   22.72    0.92
  -3   1  -6   21.16    1.15
  -3   1  -6   21.40    1.24
  -3   1  -6   20.89    1.34
   3  -1   6   19.31    0.98
  -4   1  -6   62.83    2.09
  -4   1  -6   63.43    2.16
  -4   1  -6   66.21    1.87
  -4   1  -6   63.25    1.90
   4  -1   6   62.37    2.00
  -5   1  -6    0.27    0.82
  -5   1  -6   -0.11    0.53
  -5   1  -6    0.11    0.53
   5  -1   6    1.03    0.56
   6  -1   6    9.45    0.90
   7  -1   6    8.60    1.01
  10   0  -6    4.67    0.97
 -10   0   6    4.34    0.91
   9   0  -6    8.28    0.94
  -9   0   6    8.45    0.92
   8   0  -6   30.89    1.40
  -8   0   6   31.84    1.31
   7   0  -6   10.27    0.76
   7   0  -6    9.57    0.94
  -7   0   6    9.40    0.76
   6   0  -6   82.10    2.56
   6   0  -6   86.72    2.50
   6   0  -6   81.23    2.35
  -6   0   6   85.18    2.36
   5   0  -6   45.21    1.43
   5   0  -6   45.98    1.55
   5   0  -6   45.11    1.66
  -5   0   6   45.15    1.42
   4   0  -6    4.57    0.46
   4   0  -6    5.19    0.54
   4   0  -6    4.68    0.66
  -4   0   6    4.03    0.41
   3   0  -6   90.53    2.41
   3   0  -6   92.57    2.52
   3   0  -6   90.92    2.36
   3   0  -6   91.94    2.70
   3   0  -6   87.77    2.28
  -3   0   6   92.25    2.36
  -3   0   6   90.07    2.34
   2   0  -6  105.13    2.70
   2   0  -6  105.51    2.83
   2   0  -6  103.12    2.96
   2   0  -6  104.16    2.59
   2   0  -6  107.72    2.61
   2   0  -6  107.32    2.57
  -2   0   6  102.26    2.68
  -2   0   6  106.38    2.66
   1   0  -6   38.06    1.01
   1   0  -6   39.18    1.38
   1   0  -6   37.95    1.13
   1   0  -6   38.61    1.21
   1   0  -6   37.25    1.02
   1   0  -6   37.86    1.30
  -1   0   6   38.74    1.15
  -1   0   6   39.24    1.17
  -1   0   6   40.16    1.18
  -1   0   6   39.97    1.16
   0   0  -6   20.03    0.68
   0   0  -6   19.63    0.75
   0   0  -6   19.49    0.92
   0   0  -6   20.92    0.98
   0   0  -6   19.97    0.61
   0   0   6   20.36    0.74
   0   0   6   19.38    0.81
  -1   0  -6   91.49    2.36
  -1   0  -6   95.18    2.33
  -1   0  -6   91.86    2.54
  -1   0  -6   94.56    2.60
  -1   0  -6   94.55    2.56
   1   0   6   91.86    2.50
   1   0   6   97.08    2.43
  -2   0  -6   36.35    1.22
  -2   0  -6   35.74    1.08
  -2   0  -6   34.43    1.37
  -2   0  -6   35.13    1.36
   2   0   6   34.81    1.22
  -3   0  -6   32.90    1.40
  -3   0  -6   31.91    1.09
  -3   0  -6   33.22    1.21
  -3   0  -6   33.78    1.43
   3   0   6   31.08    1.21
  -4   0  -6   -0.32    0.66
  -4   0  -6   -0.26    0.42
  -4   0  -6    0.51    0.52
  -4   0  -6    0.80    0.72
   4   0   6   -0.16    0.50
  -5   0  -6   11.98    1.10
   5   0   6    9.26    0.84
   6   0   6   21.96    1.23
   7   0   6   17.50    1.19
 -10   1   6   -0.67    0.70
   9  -1  -6   11.12    0.99
  -9   1   6    9.51    0.93
   8  -1  -6   29.61    1.32
  -8   1   6   27.04    1.27
   7  -1  -6   60.23    2.10
   7  -1  -6   61.47    1.87
  -7   1   6   56.78    1.83
   6  -1  -6    6.63    0.74
   6  -1  -6    6.78    0.61
   6  -1  -6    5.93    0.83
  -6   1   6    6.55    0.59
   5  -1  -6    0.42    0.38
   5  -1  -6    0.72    0.62
   5  -1  -6   -0.42    0.49
  -5   1   6    0.36    0.33
   4  -1  -6    0.41    0.42
   4  -1  -6    1.05    0.35
   4  -1  -6    0.87    0.57
  -4   1   6    0.76    0.29
  -4   1   6    1.16    0.31
   3  -1  -6  264.82    6.24
   3  -1  -6  280.23    7.29
   3  -1  -6  271.43    6.61
   3  -1  -6  278.38    6.44
   3  -1  -6  275.41    6.70
  -3   1   6  270.14    6.53
  -3   1   6  275.88    6.55
   2  -1  -6   66.80    1.95
   2  -1  -6   71.33    1.82
   2  -1  -6   67.56    2.12
   2  -1  -6   66.45    1.75
  -2   1   6   70.36    1.78
  -2   1   6   68.99    1.82
   1  -1  -6   21.28    0.77
   1  -1  -6   20.94    1.01
   1  -1  -6   22.59    0.79
   1  -1  -6   20.52    0.86
  -1   1   6   21.82    0.81
  -1   1   6   22.91    0.75
  -1   1   6   21.75    0.76
   0  -1  -6  115.78    3.00
   0  -1  -6  113.72    2.91
   0  -1  -6  114.39    2.77
   0  -1  -6  112.46    2.92
   0   1   6  118.63    2.84
   0   1   6  112.76    2.93
  -1  -1  -6    7.63    0.68
  -1  -1  -6    8.45    0.33
  -1  -1  -6    7.89    0.62
  -1  -1  -6    7.65    0.38
  -1  -1  -6    9.20    0.59
   1   1   6    9.05    0.58
   1   1   6    8.38    0.53
  -2  -1  -6    2.15    0.62
  -2  -1  -6    0.95    0.56
  -2  -1  -6    1.84    0.46
  -2  -1  -6    1.98    0.27
   2   1   6    2.22    0.37
   2   1   6    1.77    0.42
  -3  -1  -6  101.14    2.69
  -3  -1  -6  103.85    2.62
  -3  -1  -6  104.09    2.90
  -3  -1  -6  101.91    2.89
   3   1   6  102.91    2.79
  -4  -1  -6   50.55    1.87
  -4  -1  -6   52.80    1.87
   4   1   6   51.49    1.70
  -5  -1  -6    1.24    0.86
   5   1   6    0.81    0.59
   6   1   6    4.71    0.79
 -10   2   6    8.94    0.97
  -9   2   6    4.49    0.77
   8  -2  -6   18.33    1.14
  -8   2   6   19.92    1.03
   7  -2  -6    7.35    0.80
   7  -2  -6    7.07    0.64
   7  -2  -6    6.09    0.87
  -7   2   6    5.81    0.61
   6  -2  -6  105.17    2.71
   6  -2  -6  103.58    2.90
   6  -2  -6  103.01    2.85
  -6   2   6   96.09    2.71
   5  -2  -6   13.09    0.97
   5  -2  -6   15.93    0.74
   5  -2  -6   13.34    0.91
  -5   2   6   14.25    0.71
   4  -2  -6   17.01    0.79
   4  -2  -6   17.70    0.79
   4  -2  -6   17.27    0.98
   4  -2  -6   15.97    1.12
   4  -2  -6   17.10    0.58
  -4   2   6   17.12    0.68
  -4   2   6   19.82    0.71
   3  -2  -6   30.67    0.99
   3  -2  -6   31.67    1.34
   3  -2  -6   31.13    1.16
   3  -2  -6   30.23    0.95
  -3   2   6   30.44    0.91
  -3   2   6   31.47    0.95
   2  -2  -6   19.46    0.69
   2  -2  -6   18.51    0.88
   2  -2  -6   18.95    0.68
   2  -2  -6   18.45    1.10
  -2   2   6   18.14    0.62
  -2   2   6   19.38    0.68
   1  -2  -6   28.23    0.90
   1  -2  -6   27.02    0.86
   1  -2  -6   26.64    1.32
   1  -2  -6   26.55    0.88
  -1   2   6   27.93    0.91
  -1   2   6   28.85    0.85
  -1   2   6   28.57    0.82
   0  -2  -6    5.89    0.46
   0  -2  -6    5.49    0.45
   0  -2  -6    5.43    0.57
   0   2   6    5.54    0.44
   0   2   6    5.69    0.34
  -1  -2  -6    1.41    0.47
  -1  -2  -6    1.52    0.52
  -1  -2  -6    1.05    0.37
   1   2   6    1.45    0.34
   1   2   6    1.56    0.28
  -2  -2  -6   49.04    1.62
  -2  -2  -6   47.94    1.59
  -2  -2  -6   49.57    1.48
   2   2   6   50.71    1.44
   2   2   6   48.95    1.49
  -3  -2  -6   99.07    2.78
  -3  -2  -6   96.51    2.75
   3   2   6   97.74    2.68
  -4  -2  -6    3.34    0.82
  -4  -2  -6    4.91    0.77
   4   2   6    3.55    0.59
  -5  -2  -6    2.52    0.91
   5   2   6    2.65    0.64
   6   2   6    1.15    0.67
 -10   3   6    0.35    0.74
  -9   3   6    1.02    0.67
   8  -3  -6    1.63    0.87
  -8   3   6    0.55    0.56
   7  -3  -6   49.08    1.76
   7  -3  -6   51.77    1.84
  -7   3   6   47.40    1.60
   6  -3  -6   40.26    1.50
   6  -3  -6   39.30    1.44
   6  -3  -6   38.56    1.26
  -6   3   6   38.11    1.31
   5  -3  -6   32.49    1.22
   5  -3  -6   30.71    1.07
   5  -3  -6   30.12    1.25
   5  -3  -6   27.89    1.60
  -5   3   6   34.65    1.08
  -5   3   6   32.78    1.06
   4  -3  -6   50.13    1.49
   4  -3  -6   48.94    1.92
   4  -3  -6   49.52    1.32
   4  -3  -6   47.97    1.57
  -4   3   6   52.30    1.42
  -4   3   6   49.71    1.38
   3  -3  -6   32.72    1.44
   3  -3  -6   30.14    0.98
   3  -3  -6   32.72    1.13
   3  -3  -6   32.40    0.91
  -3   3   6   31.82    0.92
  -3   3   6   33.46    0.95
   2  -3  -6   17.80    0.63
   2  -3  -6   16.09    0.58
   2  -3  -6   16.37    1.09
   2  -3  -6   17.58    0.73
  -2   3   6   18.05    0.56
  -2   3   6   18.07    0.61
   1  -3  -6  170.93    4.77
   1  -3  -6  165.43    3.97
   1  -3  -6  165.69    3.84
   1  -3  -6  163.09    3.97
  -1   3   6  166.11    3.95
  -1   3   6  166.97    3.88
  -1   3   6  166.29    3.98
   0  -3  -6  252.50    5.89
   0  -3  -6  264.08    6.19
   0  -3  -6  250.64    6.25
   0   3   6  258.87    6.17
   0   3   6  265.01    6.11
  -1  -3  -6   29.82    1.06
  -1  -3  -6   28.25    1.05
  -1  -3  -6   29.34    1.11
   1   3   6   30.42    1.00
   1   3   6   32.29    0.95
  -2  -3  -6   20.09    0.97
  -2  -3  -6   18.14    0.94
   2   3   6   16.95    0.80
  -3  -3  -6    1.68    0.64
  -3  -3  -6    1.68    0.60
   3   3   6    1.09    0.46
  -4  -3  -6    3.58    0.82
  -4  -3  -6    1.92    0.75
   4   3   6    2.14    0.54
  -5  -3  -6    4.45    0.95
   5   3   6    2.36    0.67
   6   3   6    2.18    0.74
  -9   4   6   16.33    1.12
   8  -4  -6    9.97    1.04
  -8   4   6    9.17    0.77
   7  -4  -6    0.87    0.65
   7  -4  -6    1.15    0.73
  -7   4   6    0.60    0.47
   6  -4  -6   20.23    1.07
   6  -4  -6   16.92    1.33
   6  -4  -6   19.10    1.12
  -6   4   6   19.38    0.86
   5  -4  -6   12.16    1.15
   5  -4  -6   10.38    0.72
   5  -4  -6   13.23    0.58
   5  -4  -6   12.77    0.87
  -5   4   6   13.10    0.69
  -5   4   6   12.73    0.67
   4  -4  -6   12.78    0.73
   4  -4  -6   11.74    1.05
   4  -4  -6   14.07    0.49
   4  -4  -6   13.39    0.82
  -4   4   6   13.23    0.59
  -4   4   6   14.56    0.62
   3  -4  -6    0.56    0.41
   3  -4  -6    0.12    0.32
   3  -4  -6    0.14    0.21
   3  -4  -6    1.32    0.69
  -3   4   6    0.41    0.21
  -3   4   6    0.10    0.21
   2  -4  -6   32.46    1.64
   2  -4  -6   35.20    0.96
  -2   4   6   34.06    0.93
  -2   4   6   34.75    0.89
  -2   4   6   35.23    1.05
   1  -4  -6  152.61    4.49
   1  -4  -6  154.22    3.57
  -1   4   6  151.97    3.65
  -1   4   6  153.97    3.60
  -1   4   6  153.71    3.62
   0  -4  -6   25.93    0.82
   0  -4  -6   23.37    0.91
   0  -4  -6   26.25    0.95
   0   4   6   25.67    0.81
   0   4   6   26.21    0.76
  -1  -4  -6    1.64    0.46
  -1  -4  -6    1.61    0.45
   1   4   6    2.38    0.31
   1   4   6    2.38    0.35
  -2  -4  -6    1.85    0.54
  -2  -4  -6    1.91    0.55
   2   4   6    1.99    0.40
  -3  -4  -6    0.99    0.61
  -3  -4  -6    1.56    0.66
   3   4   6    0.85    0.44
  -4  -4  -6    1.00    0.80
  -4  -4  -6    0.26    0.68
   4   4   6    0.46    0.50
  -5  -4  -6   30.19    1.67
   5   4   6   23.65    1.25
  -9   5   6   13.24    1.00
   8  -5  -6    5.33    0.95
  -8   5   6    3.40    0.65
   7  -5  -6    0.91    0.69
   7  -5  -6    0.77    0.95
   7  -5  -6    0.06    0.62
  -7   5   6    0.41    0.48
   6  -5  -6   24.86    1.11
   6  -5  -6   21.77    1.12
   6  -5  -6   18.54    1.47
  -6   5   6   23.13    0.95
   5  -5  -6   14.58    1.26
   5  -5  -6   15.21    0.84
   5  -5  -6   15.92    0.91
  -5   5   6   14.69    0.70
   4  -5  -6   99.75    2.66
   4  -5  -6  103.65    2.65
   4  -5  -6  102.25    3.35
  -4   5   6  101.20    2.56
  -4   5   6  105.41    2.57
   3  -5  -6   93.19    2.32
   3  -5  -6   89.15    2.28
  -3   5   6   91.46    2.24
  -3   5   6   93.06    2.25
   2  -5  -6   51.43    2.06
  -2   5   6   53.06    1.40
   1  -5  -6    1.40    0.77
  -1   5   6    0.44    0.32
   0  -5  -6    1.05    0.37
   0  -5  -6    1.28    0.31
   0   5   6    1.09    0.22
   0   5   6    1.02    0.25
  -1  -5  -6   31.71    1.08
  -1  -5  -6   31.53    1.08
   1   5   6   31.33    1.00
  -2  -5  -6   30.83    1.23
  -2  -5  -6   31.84    1.21
   2   5   6   32.29    1.08
  -3  -5  -6    2.95    0.71
  -3  -5  -6    1.11    0.63
   3   5   6    1.53    0.48
  -4  -5  -6   11.89    1.07
  -4  -5  -6   13.37    1.03
   4   5   6   11.99    0.85
  -5  -5  -6    7.72    1.13
   5   5   6    6.36    0.80
  -9   6   6   -0.06    0.67
   8  -6  -6    7.93    1.19
   8  -6  -6   10.30    1.07
  -8   6   6    8.89    0.82
   7  -6  -6    2.19    0.78
   7  -6  -6    1.65    0.92
   7  -6  -6    2.92    0.75
  -7   6   6    2.70    0.56
   6  -6  -6    8.66    0.78
   6  -6  -6    8.64    1.12
   6  -6  -6    7.35    0.77
  -6   6   6    9.28    0.64
   5  -6  -6   35.86    1.26
   5  -6  -6   32.73    1.76
   5  -6  -6   34.62    1.25
  -5   6   6   35.48    1.12
   4  -6  -6   27.36    1.55
   4  -6  -6   24.76    0.94
   4  -6  -6   25.96    0.96
  -4   6   6   25.07    0.83
   3  -6  -6   10.13    0.51
   3  -6  -6   10.53    1.12
   3  -6  -6   10.43    0.51
  -3   6   6   11.13    0.43
  -3   6   6   10.47    0.43
   2  -6  -6   25.51    1.52
   1  -6  -6    3.92    0.99
   0  -6  -6    1.02    0.32
   0  -6  -6    0.71    0.33
   0   6   6    1.40    0.27
  -1  -6  -6   27.55    1.01
  -1  -6  -6   26.94    1.01
   1   6   6   27.41    0.91
  -2  -6  -6   28.77    1.19
  -2  -6  -6   28.40    1.17
   2   6   6   27.54    1.02
  -3  -6  -6   18.23    1.14
  -3  -6  -6   17.67    1.08
   3   6   6   17.02    0.90
  -4  -6  -6    3.26    0.93
   4   6   6    3.46    0.65
   9  -7  -6   -1.09    1.02
  -9   7   6    0.30    0.70
   8  -7  -6    7.41    1.29
   8  -7  -6   11.00    1.05
  -8   7   6   10.84    0.85
   7  -7  -6   48.58    1.78
   7  -7  -6   40.94    2.18
   7  -7  -6   48.27    1.77
  -7   7   6   47.76    1.59
   6  -7  -6   34.64    1.40
   6  -7  -6   37.85    1.40
   6  -7  -6   37.77    2.07
  -6   7   6   35.05    1.25
   5  -7  -6   -0.40    0.50
   5  -7  -6    0.54    0.51
   5  -7  -6   -0.66    0.80
  -5   7   6   -0.16    0.36
   4  -7  -6   -0.75    0.82
   4  -7  -6    0.16    0.42
   4  -7  -6    0.48    0.42
  -4   7   6    0.02    0.28
   3  -7  -6   25.15    1.57
   3  -7  -6   24.12    0.81
  -3   7   6   25.39    0.73
   2  -7  -6   46.94    2.13
   0  -7  -6   17.27    0.71
   0  -7  -6   17.38    0.73
   0   7   6   19.40    0.65
  -1  -7  -6   10.13    0.74
  -1  -7  -6    9.16    0.64
   1   7   6   10.91    0.60
  -2  -7  -6    3.27    0.62
  -2  -7  -6    4.47    0.68
   2   7   6    3.00    0.48
  -3  -7  -6    0.16    0.77
  -3  -7  -6    0.89    0.72
   3   7   6    0.02    0.49
   8  -8  -6    8.97    1.38
   8  -8  -6   11.14    1.10
  -8   8   6    9.25    0.85
   7  -8  -6   10.10    1.33
   7  -8  -6   11.73    0.99
   7  -8  -6   10.56    0.96
  -7   8   6   10.62    0.78
   6  -8  -6   10.62    0.85
   6  -8  -6   10.95    1.35
   6  -8  -6   10.51    0.84
  -6   8   6   11.79    0.75
   5  -8  -6   15.33    1.47
   5  -8  -6   18.51    0.95
   5  -8  -6   18.72    0.94
  -5   8   6   18.16    0.81
   4  -8  -6    1.31    0.48
   4  -8  -6    0.76    0.96
   4  -8  -6    1.24    0.44
  -4   8   6    0.96    0.33
   3  -8  -6    8.66    0.48
   3  -8  -6    7.98    0.53
   3  -8  -6    6.95    1.11
  -3   8   6    8.62    0.44
   2  -8  -6   12.07    1.29
   0  -8  -6    3.79    0.46
   0  -8  -6    3.82    0.46
   0   8   6    4.09    0.36
  -1  -8  -6    0.48    0.53
  -1  -8  -6    0.39    0.50
   1   8   6    0.39    0.37
  -2  -8  -6   -0.46    0.64
  -2  -8  -6   -0.34    0.62
   2   8   6    0.44    0.47
  -3  -8  -6   16.25    1.10
   7  -9  -6    2.44    0.80
   7  -9  -6    2.12    0.81
   7  -9  -6    2.27    1.08
  -7   9   6    1.50    0.57
   6  -9  -6   13.91    0.99
   6  -9  -6   15.14    1.05
   6  -9  -6   12.96    1.43
  -6   9   6   15.45    0.86
   5  -9  -6   16.56    1.50
   5  -9  -6   17.92    0.96
   5  -9  -6   18.15    1.01
  -5   9   6   19.53    0.83
   4  -9  -6   17.78    1.57
   4  -9  -6   15.22    0.89
   4  -9  -6   15.78    0.80
  -4   9   6   15.17    0.69
   3  -9  -6    2.14    1.01
   3  -9  -6    2.30    0.39
   3  -9  -6    2.10    0.51
   2  -9  -6    7.53    1.24
   1  -9  -6    0.18    0.40
   1  -9  -6   -0.14    0.36
   0  -9  -6   20.31    0.91
   0  -9  -6   22.74    0.92
  -1  -9  -6   10.99    0.79
  -1  -9  -6   12.17    0.82
   6 -10  -6    0.91    0.73
   6 -10  -6    2.10    1.19
   6 -10  -6    1.28    0.71
  -6  10   6    0.95    0.54
   5 -10  -6    8.62    0.82
   5 -10  -6   10.14    0.78
   5 -10  -6    8.76    1.35
   4 -10  -6    2.63    0.55
   4 -10  -6    1.53    0.60
   4 -10  -6    2.76    1.09
   3 -10  -6   -0.59    0.46
   3 -10  -6   -0.20    0.57
   3 -10  -6    0.19    1.13
   2 -10  -6    0.24    0.55
   2 -10  -6    0.62    0.53
   1 -10  -6   11.98    0.76
   1 -10  -6   13.76    0.77
   0 -10  -6   13.81    0.86
   0 -10  -6   13.99    0.85
   4 -11  -6    5.77    0.70
   4 -11  -6    5.77    1.31
   4 -11  -6    5.95    0.77
   3 -11  -6   14.22    1.59
   3 -11  -6   11.49    0.87
   3 -11  -6   12.71    0.85
   2 -11  -6   14.51    0.96
   2 -11  -6   11.54    0.87
   2  13  -7    0.40    0.77
   2  13  -7   -1.24    0.79
   2  13  -7    1.00    0.79
   1  13  -7    5.04    0.94
   1  13  -7    4.75    0.89
   1  13  -7    4.72    0.86
   0  13  -7   16.16    1.10
   0  13  -7   15.02    1.17
  -1  13  -7   17.20    1.12
  -1  13  -7   16.86    1.21
  -2  13  -7   11.88    1.10
  -2  13  -7   12.67    1.02
  -3  13  -7    7.05    0.87
  -3  13  -7    6.78    0.99
   4  12  -7    0.78    0.85
   3  12  -7    4.42    0.96
   2  12  -7    2.64    0.86
   2  12  -7    3.89    0.82
   1  12  -7   13.88    1.04
   1  12  -7   12.91    1.10
   1  12  -7   11.23    1.03
   0  12  -7   10.97    0.93
   0  12  -7   10.90    1.05
  -1  12  -7    0.53    0.65
  -1  12  -7    0.01    0.74
   1 -12   7    1.24    0.90
  -2  12  -7    2.31    0.77
  -2  12  -7    2.08    0.72
   2 -12   7    3.13    0.94
  -3  12  -7    0.76    0.66
  -3  12  -7    0.90    0.77
   3 -12   7    2.55    0.96
  -4  12  -7    7.42    1.00
  -4  12  -7    5.34    0.85
   5  11  -7    0.63    0.83
   4  11  -7   15.69    1.19
   3  11  -7   14.73    1.13
  -3 -11   7   16.67    1.27
   2  11  -7   14.44    1.06
   2  11  -7   14.15    1.14
  -2 -11   7   15.73    1.23
   1  11  -7   40.13    1.53
   1  11  -7   39.08    1.63
   1  11  -7   38.29    1.68
  -1 -11   7   42.30    1.82
   0  11  -7    0.46    0.62
   0  11  -7    0.36    0.65
   0 -11   7   -0.35    0.80
  -1  11  -7   20.63    1.17
  -1  11  -7   24.55    1.28
   1 -11   7   25.99    1.56
  -2  11  -7   22.81    1.37
  -2  11  -7   25.15    1.24
   2 -11   7   24.40    1.56
  -3  11  -7   18.20    1.12
  -3  11  -7   19.55    1.32
   3 -11   7   15.73    1.34
  -4  11  -7    6.28    0.83
  -4  11  -7    4.01    0.93
   4 -11   7    5.01    1.08
  -5  11  -7    5.44    0.86
  -5  11  -7    7.13    1.01
   5 -11   7    7.45    1.22
   6  10  -7    0.08    0.81
   5  10  -7   13.34    1.17
  -5 -10   7   14.14    1.26
   4  10  -7   17.73    1.27
  -4 -10   7   20.19    1.40
   3  10  -7    0.42    0.66
  -3 -10   7    1.08    0.81
   2  10  -7   -0.36    0.67
  -2 -10   7    0.78    0.77
   1  10  -7    1.46    0.60
   1  10  -7   -0.29    0.63
   1  10  -7    1.63    0.65
  -1 -10   7    1.34    0.70
   0  10  -7    6.54    0.81
   0  10  -7    7.76    0.79
   0 -10   7    8.60    0.98
  -1  10  -7   12.59    0.88
  -1  10  -7   12.57    0.98
   1 -10   7   13.23    1.16
  -2  10  -7   23.40    1.33
  -2  10  -7   22.42    1.12
   2 -10   7   22.56    1.47
  -3  10  -7    3.46    0.71
  -3  10  -7    2.98    0.82
   3 -10   7    4.61    1.01
  -4  10  -7    9.57    1.01
  -4  10  -7   12.20    0.96
   4 -10   7    9.62    1.17
  -5  10  -7   12.67    1.14
  -5  10  -7   10.47    0.98
   5 -10   7   10.56    1.20
  -6  10  -7    1.68    0.96
  -6  10  -7    4.30    0.87
   6 -10   7    1.49    1.08
   6   9  -7    2.97    0.79
  -6  -9   7    2.77    0.94
   5   9  -7   28.22    1.46
  -5  -9   7   27.34    1.56
   4   9  -7    3.97    0.78
  -4  -9   7    4.77    0.87
   3   9  -7    4.16    0.76
  -3  -9   7    3.56    0.82
   2   9  -7   61.01    2.05
  -2  -9   7   61.05    2.17
   1   9  -7   68.55    2.06
   1   9  -7   70.06    2.21
   1   9  -7   66.93    2.22
  -1  -9   7   67.94    2.33
   0   9  -7   17.57    1.05
   0   9  -7   19.79    1.11
   0  -9   7   22.88    1.35
  -1   9  -7   50.78    1.82
  -1   9  -7   55.22    1.76
   1  -9   7   50.96    2.01
  -2   9  -7    1.92    0.70
  -2   9  -7    1.41    0.58
   2  -9   7    2.83    0.81
  -3   9  -7   13.89    1.07
  -3   9  -7   14.06    0.95
   3  -9   7   11.48    1.14
  -4   9  -7    2.56    0.66
  -4   9  -7    4.36    0.86
   4  -9   7    5.26    0.99
  -5   9  -7   10.27    1.08
  -5   9  -7    8.52    0.91
   5  -9   7   10.35    1.19
  -6   9  -7    6.54    1.08
  -6   9  -7    7.66    0.95
   6  -9   7    8.20    1.23
   7   8  -7    0.02    0.73
  -7  -8   7   -0.67    0.79
   6   8  -7    0.17    0.73
  -6  -8   7   -0.21    0.79
   5   8  -7   11.67    1.00
  -5  -8   7   13.57    1.11
   4   8  -7    2.95    0.66
  -4  -8   7    3.42    0.78
   3   8  -7   11.26    0.89
  -3  -8   7   12.17    1.01
   2   8  -7   76.69    2.38
  -2  -8   7   73.89    2.40
   1   8  -7    1.07    0.61
   1   8  -7    0.51    0.56
   1   8  -7    0.08    0.53
  -1  -8   7    1.64    0.94
  -1  -8   7    1.27    0.66
   0   8  -7    1.18    0.53
   0   8  -7    1.62    0.59
   0  -8   7    1.21    0.81
   0  -8   7    1.58    0.69
  -1   8  -7   33.50    1.41
  -1   8  -7   32.14    1.26
   1  -8   7   30.22    1.45
  -2   8  -7    0.20    0.57
  -2   8  -7   -0.06    0.55
   2  -8   7   -0.58    0.71
  -3   8  -7   21.19    1.07
  -3   8  -7   21.25    1.16
   3  -8   7   20.07    1.28
  -4   8  -7   55.98    1.99
  -4   8  -7   57.65    1.89
   4  -8   7   56.72    2.19
  -5   8  -7   24.93    1.28
  -5   8  -7   22.96    1.41
   5  -8   7   24.41    1.47
  -6   8  -7    3.54    0.94
  -6   8  -7    3.70    0.83
   6  -8   7    3.50    1.05
   8   7  -7    1.31    0.88
  -8  -7   7    1.38    0.93
   7   7  -7    2.29    0.81
  -7  -7   7    1.10    0.78
   6   7  -7   21.56    1.32
  -6  -7   7   25.54    1.41
   5   7  -7   67.10    2.21
  -5  -7   7   68.03    2.24
   4   7  -7   15.78    1.00
  -4  -7   7   16.82    1.05
   3   7  -7   67.82    2.13
  -3  -7   7   68.30    2.21
   2   7  -7    9.92    0.83
   2   7  -7   10.24    1.06
  -2  -7   7   11.15    0.91
  -2  -7   7   11.15    1.07
  -2  -7   7   11.15    0.99
   1   7  -7    0.03    0.89
   1   7  -7    0.53    0.52
   1   7  -7    0.62    0.56
   1   7  -7    1.80    0.57
  -1  -7   7    2.06    0.87
  -1  -7   7    0.33    0.56
  -1  -7   7    1.37    0.61
   0   7  -7   23.88    1.54
   0   7  -7   21.63    1.15
   0   7  -7   23.14    1.04
   0  -7   7   22.57    1.27
   0  -7   7   20.58    1.50
  -1   7  -7   95.14    2.59
  -1   7  -7   96.67    2.76
   1  -7   7   97.93    2.90
   1  -7   7   91.42    2.98
  -2   7  -7   32.23    1.32
  -2   7  -7   33.58    1.37
   2  -7   7   34.18    1.51
  -3   7  -7   52.96    1.73
  -3   7  -7   53.80    1.84
   3  -7   7   55.62    2.04
  -4   7  -7    7.12    0.82
  -4   7  -7    7.73    0.80
   4  -7   7    6.86    0.90
  -5   7  -7   15.61    1.16
  -5   7  -7   17.89    1.06
   5  -7   7   16.19    1.25
  -6   7  -7    2.00    0.84
  -6   7  -7    1.31    0.76
   6  -7   7    1.95    0.91
   8   6  -7    3.48    0.85
  -8  -6   7    3.24    0.91
   7   6  -7    7.60    0.91
  -7  -6   7    6.73    0.94
   6   6  -7   48.31    1.82
  -6  -6   7   49.17    1.85
   5   6  -7    1.72    0.63
  -5  -6   7    0.98    0.59
   4   6  -7    4.23    0.68
  -4  -6   7    4.14    0.70
   3   6  -7    4.05    0.81
   3   6  -7    3.21    0.59
  -3  -6   7    2.60    0.60
  -3  -6   7    2.96    0.81
   2   6  -7    1.75    0.72
   2   6  -7    0.17    0.28
   2   6  -7    1.81    0.58
   2   6  -7    1.78    0.52
  -2  -6   7    1.18    0.55
  -2  -6   7    0.58    0.74
  -2  -6   7    2.04    0.56
   1   6  -7    2.80    0.59
   1   6  -7    2.82    0.63
   1   6  -7    2.59    0.53
   1   6  -7    2.07    0.55
   1   6  -7    2.78    0.75
  -1  -6   7    2.06    0.80
  -1  -6   7    1.53    0.57
  -1  -6   7    1.44    0.77
   0   6  -7  153.79    4.23
   0   6  -7  154.40    4.20
   0   6  -7  151.58    4.02
   0   6  -7  155.44    3.84
   0  -6   7  155.91    4.29
   0  -6   7  148.24    4.11
   0  -6   7  154.09    4.22
  -1   6  -7   63.32    1.97
  -1   6  -7   69.69    2.44
  -1   6  -7   70.57    2.33
  -1   6  -7   66.60    2.08
   1  -6   7   69.19    2.22
   1  -6   7   72.74    2.47
  -2   6  -7   15.91    1.16
  -2   6  -7   16.11    0.93
  -2   6  -7   18.07    1.22
  -2   6  -7   16.69    1.04
   2  -6   7   17.02    0.71
   2  -6   7   16.78    1.18
  -3   6  -7   29.42    1.31
  -3   6  -7   29.58    1.25
   3  -6   7   27.21    1.35
  -4   6  -7    2.56    0.60
  -4   6  -7    2.78    0.64
   4  -6   7    0.92    0.67
  -5   6  -7   14.26    1.07
  -5   6  -7   13.58    1.01
   5  -6   7   13.35    1.15
  -6   6  -7   19.46    1.24
  -6   6  -7   18.69    1.31
   6  -6   7   16.46    1.29
  -7   6  -7   10.28    1.07
  -7   6  -7   10.11    1.03
   7  -6   7    9.06    1.17
   8   5  -7    7.43    0.96
  -8  -5   7    6.31    0.91
   7   5  -7   18.76    1.23
  -7  -5   7   19.22    1.17
   6   5  -7    8.18    0.85
  -6  -5   7    8.52    0.82
   5   5  -7   10.41    0.81
  -5  -5   7   11.27    0.87
   4   5  -7   28.03    1.34
   4   5  -7   27.21    1.18
   4   5  -7   26.23    1.53
  -4  -5   7   26.46    1.38
  -4  -5   7   29.08    1.19
   3   5  -7  209.58    5.23
   3   5  -7  194.11    5.06
   3   5  -7  194.02    5.24
  -3  -5   7  204.40    5.22
  -3  -5   7  196.81    5.11
   2   5  -7   34.06    1.26
   2   5  -7   38.77    1.49
   2   5  -7   33.91    1.59
   2   5  -7   33.83    1.35
   2   5  -7   36.89    1.07
  -2  -5   7   34.46    1.37
  -2  -5   7   35.95    1.52
   1   5  -7  119.22    3.19
   1   5  -7  117.75    3.06
   1   5  -7  121.37    3.48
   1   5  -7  114.68    3.38
  -1  -5   7  121.19    3.30
  -1  -5   7  120.04    3.38
   0   5  -7   92.61    2.84
   0   5  -7   96.37    2.91
   0   5  -7   91.53    2.59
   0   5  -7   91.44    2.48
   0  -5   7   94.10    2.88
   0  -5   7   93.35    2.73
  -1   5  -7   20.91    1.00
  -1   5  -7   20.86    1.38
  -1   5  -7   20.41    1.38
  -1   5  -7   21.80    0.98
   1  -5   7   20.84    1.11
   1  -5   7   22.41    1.37
  -2   5  -7   35.09    1.30
  -2   5  -7   37.45    1.36
  -2   5  -7   38.47    1.87
  -2   5  -7   38.08    1.65
   2  -5   7   38.53    1.87
   2  -5   7   37.03    1.24
   2  -5   7   35.19    1.48
  -3   5  -7   34.76    1.69
  -3   5  -7   36.12    1.36
  -3   5  -7   37.89    1.39
   3  -5   7   35.78    1.54
  -4   5  -7    4.14    0.65
  -4   5  -7    3.79    0.63
   4  -5   7    4.56    0.77
  -5   5  -7    2.72    0.74
  -5   5  -7    2.26    0.69
   5  -5   7    0.98    0.70
  -6   5  -7   11.06    0.98
  -6   5  -7   11.40    1.02
   6  -5   7   11.47    1.14
  -7   5  -7   -0.61    0.81
  -7   5  -7    1.38    0.78
   7  -5   7    1.23    0.87
   9   4  -7    1.64    0.87
  -9  -4   7    2.95    0.87
   8   4  -7    1.57    0.73
  -8  -4   7    0.82    0.70
   7   4  -7    8.91    0.87
  -7  -4   7    9.15    0.90
   6   4  -7    6.82    0.74
  -6  -4   7    6.73    0.74
   5   4  -7    0.14    0.80
   5   4  -7    0.02    0.52
  -5  -4   7    0.03    0.47
   4   4  -7   83.77    2.37
   4   4  -7   82.61    2.46
   4   4  -7   81.34    2.58
  -4  -4   7   85.42    2.48
  -4  -4   7   79.96    2.36
   3   4  -7   71.62    2.39
   3   4  -7   71.80    2.18
   3   4  -7   72.05    2.12
  -3  -4   7   68.33    2.08
  -3  -4   7   72.36    2.24
   2   4  -7   22.31    0.98
   2   4  -7   22.03    0.99
   2   4  -7   23.60    0.82
   2   4  -7   22.38    0.98
   2   4  -7   20.62    1.20
   2   4  -7   25.23    1.49
  -2  -4   7   21.62    0.98
  -2  -4   7   23.66    1.24
   1   4  -7   28.87    1.14
   1   4  -7   26.88    1.40
   1   4  -7   28.75    1.36
   1   4  -7   27.02    1.07
  -1  -4   7   28.56    1.38
  -1  -4   7   27.66    1.14
   0   4  -7    1.84    0.46
   0   4  -7    1.47    0.74
   0   4  -7    2.30    0.47
   0   4  -7    1.91    0.71
   0  -4   7    1.85    0.53
   0  -4   7    0.20    0.64
  -1   4  -7   13.68    0.99
  -1   4  -7   13.80    0.82
  -1   4  -7   14.06    0.87
  -1   4  -7   14.50    1.05
   1  -4   7   14.78    0.64
   1  -4   7   15.32    1.10
   1  -4   7   13.32    0.91
  -2   4  -7   87.75    2.75
  -2   4  -7   90.19    2.68
  -2   4  -7   87.00    2.41
  -2   4  -7   83.38    2.34
   2  -4   7   82.93    2.55
  -3   4  -7   42.12    1.46
  -3   4  -7   39.29    1.41
  -3   4  -7   41.39    1.79
  -3   4  -7   44.46    1.78
   3  -4   7   37.92    1.57
  -4   4  -7    1.81    0.84
  -4   4  -7    5.14    0.67
  -4   4  -7    4.24    0.64
   4  -4   7    3.10    0.71
  -5   4  -7   40.14    1.54
  -5   4  -7   42.03    1.62
   5  -4   7   42.89    1.75
  -6   4  -7    2.56    0.74
  -6   4  -7    2.69    0.78
   6  -4   7    1.44    0.76
   7  -4   7    8.08    1.12
   9   3  -7    6.69    0.98
  -9  -3   7    4.01    0.91
   8   3  -7    1.23    0.73
  -8  -3   7    2.38    0.70
   7   3  -7   59.35    2.00
  -7  -3   7   56.89    1.97
   6   3  -7   12.46    0.88
  -6  -3   7   10.19    0.79
   5   3  -7   99.44    2.82
   5   3  -7   97.70    2.89
   5   3  -7   96.66    2.71
  -5  -3   7   91.43    2.67
   4   3  -7  113.24    3.15
   4   3  -7  116.46    3.29
   4   3  -7  113.53    3.06
  -4  -3   7  114.98    3.14
  -4  -3   7  111.46    3.04
   3   3  -7   11.19    0.95
   3   3  -7   12.62    0.84
   3   3  -7   13.10    0.85
  -3  -3   7   13.55    0.73
  -3  -3   7   13.27    0.97
   2   3  -7   60.34    1.79
   2   3  -7   64.24    2.17
   2   3  -7   64.15    1.99
   2   3  -7   62.84    1.87
   2   3  -7   64.40    1.82
   2   3  -7   62.06    1.83
  -2  -3   7   62.75    1.86
  -2  -3   7   63.45    1.92
   1   3  -7  326.28    7.72
   1   3  -7  334.46    8.29
   1   3  -7  339.27    8.57
   1   3  -7  338.25    8.34
   1   3  -7  336.78    8.11
  -1  -3   7  339.47    8.20
   0   3  -7   52.73    1.60
   0   3  -7   50.94    1.58
   0   3  -7   55.26    1.86
   0   3  -7   54.49    1.85
   0  -3   7   51.87    1.73
   0  -3   7   53.75    1.54
  -1   3  -7    2.85    0.50
  -1   3  -7    4.03    0.77
  -1   3  -7    4.31    0.79
  -1   3  -7    4.09    0.47
   1  -3   7    2.88    0.54
  -2   3  -7   36.14    1.50
  -2   3  -7   33.76    1.21
  -2   3  -7   32.75    1.19
  -2   3  -7   33.99    1.64
   2  -3   7   32.56    1.38
  -3   3  -7    0.69    0.69
  -3   3  -7    0.96    0.49
  -3   3  -7    0.28    0.46
  -3   3  -7    0.82    0.75
   3  -3   7    0.65    0.52
  -4   3  -7   -0.31    0.50
  -4   3  -7   -1.59    0.79
  -4   3  -7   -0.46    0.50
   4  -3   7   -0.61    0.55
  -5   3  -7    0.85    0.58
  -5   3  -7    0.12    0.57
   5  -3   7    0.73    0.64
  -6   3  -7    6.30    0.82
  -6   3  -7    5.42    0.81
   6  -3   7    5.16    0.89
   7  -3   7    5.64    0.96
   9   2  -7    0.09    0.76
  -9  -2   7   -0.50    0.71
   8   2  -7   14.48    1.05
  -8  -2   7   12.68    1.01
   7   2  -7   18.40    1.13
  -7  -2   7   20.76    1.11
   6   2  -7   19.45    1.05
   6   2  -7   17.75    1.21
  -6  -2   7   16.60    0.96
   5   2  -7    1.45    0.59
   5   2  -7    1.93    0.53
   5   2  -7    1.18    0.80
  -5  -2   7    1.82    0.49
   4   2  -7   13.33    0.84
   4   2  -7   13.16    0.87
   4   2  -7   13.84    1.01
  -4  -2   7   14.60    0.80
   3   2  -7    1.81    0.49
   3   2  -7    0.74    0.43
   3   2  -7    1.05    0.51
   3   2  -7    0.37    0.70
   3   2  -7    1.12    0.46
  -3  -2   7    0.92    0.36
   2   2  -7  152.52    3.98
   2   2  -7  147.58    3.82
   2   2  -7  147.60    3.73
   2   2  -7  143.70    3.59
   2   2  -7  147.95    3.95
  -2  -2   7  143.84    3.74
   1   2  -7   94.35    2.50
   1   2  -7   95.38    2.68
   1   2  -7   96.83    2.67
   1   2  -7   97.94    2.78
   1   2  -7   93.06    2.48
  -1  -2   7   97.01    2.62
   0   2  -7    8.46    0.81
   0   2  -7    7.05    0.51
   0   2  -7    5.55    0.68
   0   2  -7    8.19    0.63
   0  -2   7    8.25    0.67
  -1   2  -7   83.99    2.28
  -1   2  -7   84.13    2.56
  -1   2  -7   87.30    2.28
  -1   2  -7   90.29    2.57
   1  -2   7   80.72    2.42
  -2   2  -7   22.11    0.97
  -2   2  -7   21.91    0.89
  -2   2  -7   22.26    1.31
  -2   2  -7   22.39    1.39
   2  -2   7   19.89    1.00
  -3   2  -7    0.95    0.76
  -3   2  -7    1.55    0.45
  -3   2  -7    1.54    0.53
  -3   2  -7    2.47    0.75
   3  -2   7    1.06    0.52
  -4   2  -7   55.53    1.73
  -4   2  -7   59.17    2.16
  -4   2  -7   54.17    1.79
   4  -2   7   51.74    1.83
  -5   2  -7   70.60    2.19
  -5   2  -7   73.97    2.22
   5  -2   7   68.35    2.33
   6  -2   7    8.55    0.93
   9   1  -7   16.59    1.17
  -9  -1   7   17.65    1.23
   8   1  -7   10.87    0.94
  -8  -1   7    9.81    0.85
   7   1  -7   17.89    1.07
  -7  -1   7   18.43    1.03
   6   1  -7    0.51    0.60
   6   1  -7    0.30    0.76
   6   1  -7    0.25    0.49
  -6  -1   7    0.21    0.43
   5   1  -7  212.82    5.47
   5   1  -7  209.79    5.37
   5   1  -7  210.35    5.27
  -5  -1   7  210.89    5.27
   4   1  -7   93.30    2.54
   4   1  -7   92.75    2.61
   4   1  -7   96.89    2.77
  -4  -1   7   95.09    2.54
   3   1  -7   31.79    1.17
   3   1  -7   31.51    1.18
   3   1  -7   32.92    1.32
   3   1  -7   30.62    1.12
   3   1  -7   34.41    1.43
   3   1  -7   32.91    1.11
  -3  -1   7   31.23    1.08
   2   1  -7   78.87    2.39
   2   1  -7   76.56    2.28
   2   1  -7   77.03    2.09
   2   1  -7   78.81    2.08
   2   1  -7   78.61    2.17
  -2  -1   7   80.14    2.15
  -2  -1   7   76.17    2.11
   1   1  -7    1.64    0.41
   1   1  -7    1.97    0.52
   1   1  -7    2.02    0.47
   1   1  -7    3.11    0.34
   1   1  -7    2.12    0.65
  -1  -1   7    2.54    0.39
  -1  -1   7    2.41    0.42
   0   1  -7   -0.56    0.57
   0   1  -7   -0.08    0.38
   0   1  -7    0.03    0.57
   0   1  -7   -0.20    0.26
   0  -1   7   -0.04    0.30
   0  -1   7   -0.08    0.39
  -1   1  -7   35.68    1.47
  -1   1  -7   32.70    1.15
  -1   1  -7   32.63    1.47
  -1   1  -7   32.78    1.04
   1  -1   7   34.07    1.26
  -2   1  -7   30.39    1.14
  -2   1  -7   32.59    1.47
  -2   1  -7   29.76    1.04
  -2   1  -7   29.88    1.42
   2  -1   7   31.05    1.18
  -3   1  -7   23.64    1.30
  -3   1  -7   23.62    1.32
  -3   1  -7   23.19    1.08
  -3   1  -7   23.68    1.41
  -3   1  -7   23.77    0.94
   3  -1   7   23.08    1.10
  -4   1  -7   62.20    2.27
  -4   1  -7   60.70    1.82
  -4   1  -7   59.59    1.93
  -4   1  -7   59.57    2.19
   4  -1   7   63.53    2.02
  -5   1  -7    2.50    1.00
  -5   1  -7    2.94    1.00
  -5   1  -7    3.67    0.69
   5  -1   7    1.93    0.67
   6  -1   7    1.17    0.70
   9   0  -7    0.77    0.74
  -9   0   7    0.41    0.69
   8   0  -7   11.15    0.93
  -8   0   7   11.68    0.88
   7   0  -7   -0.11    0.53
   7   0  -7   -1.00    0.72
  -7   0   7    0.33    0.50
   6   0  -7   41.79    1.41
   6   0  -7   38.51    1.63
   6   0  -7   40.00    1.53
  -6   0   7   38.05    1.37
   5   0  -7   65.33    2.16
   5   0  -7   67.46    1.93
   5   0  -7   67.30    2.05
  -5   0   7   66.42    1.92
   4   0  -7    4.33    0.57
   4   0  -7    4.30    0.73
   4   0  -7    4.95    0.51
  -4   0   7    5.13    0.47
   3   0  -7   11.62    0.80
   3   0  -7   11.68    0.86
   3   0  -7   10.03    0.60
   3   0  -7   10.08    0.72
   3   0  -7   11.08    0.69
  -3   0   7   10.85    0.65
  -3   0   7   10.94    0.60
   2   0  -7    2.53    0.45
   2   0  -7    2.35    0.26
   2   0  -7    2.96    0.47
   2   0  -7    2.44    0.50
   2   0  -7    3.04    0.67
  -2   0   7    2.94    0.38
  -2   0   7    2.65    0.37
   1   0  -7   47.28    1.68
   1   0  -7   48.98    1.26
   1   0  -7   48.16    1.53
   1   0  -7   50.51    1.41
   1   0  -7   48.91    1.63
  -1   0   7   48.51    1.47
  -1   0   7   48.41    1.42
  -1   0   7   49.94    1.43
   0   0  -7   40.33    1.52
   0   0  -7   42.19    1.47
   0   0  -7   41.38    1.26
   0   0   7   41.53    1.38
   0   0   7   42.47    1.28
  -1   0  -7  309.14    7.63
  -1   0  -7  312.58    7.70
  -1   0  -7  305.73    7.15
  -1   0  -7  309.33    7.34
   1   0   7  322.49    7.47
   1   0   7  305.65    7.57
  -2   0  -7   67.47    1.95
  -2   0  -7   70.32    2.18
  -2   0  -7   69.28    1.84
  -2   0  -7   68.79    2.18
  -2   0  -7   69.22    2.18
   2   0   7   71.02    2.05
  -3   0  -7   42.37    1.66
  -3   0  -7   46.91    1.75
  -3   0  -7   44.57    1.37
   3   0   7   44.79    1.55
  -4   0  -7    1.21    0.56
  -4   0  -7    1.74    0.76
  -4   0  -7    1.26    0.79
   4   0   7    1.04    0.57
  -5   0  -7    6.96    1.05
   5   0   7    6.93    0.78
   6   0   7    6.20    0.87
  -9   1   7   21.01    1.25
   8  -1  -7   34.35    1.44
  -8   1   7   34.74    1.38
   7  -1  -7   44.98    1.56
   7  -1  -7   44.48    1.79
  -7   1   7   40.24    1.46
   6  -1  -7   20.25    1.09
   6  -1  -7   18.50    0.96
   6  -1  -7   19.16    1.20
  -6   1   7   17.96    0.90
   5  -1  -7    3.36    0.48
   5  -1  -7    3.78    0.75
   5  -1  -7    2.10    0.56
  -5   1   7    2.37    0.43
   4  -1  -7    4.18    0.41
   4  -1  -7    2.84    0.68
   4  -1  -7    3.51    0.52
   4  -1  -7    3.59    0.52
   4  -1  -7    3.73    0.75
   4  -1  -7    3.44    0.38
  -4   1   7    4.10    0.41
  -4   1   7    3.55    0.40
   3  -1  -7   56.89    1.79
   3  -1  -7   52.88    1.92
   3  -1  -7   53.96    1.59
   3  -1  -7   53.74    1.34
   3  -1  -7   54.40    1.36
   3  -1  -7   54.38    1.54
  -3   1   7   54.12    1.52
  -3   1   7   55.99    1.56
   2  -1  -7  100.00    2.61
   2  -1  -7  101.30    2.50
   2  -1  -7  102.37    3.01
   2  -1  -7   98.15    2.75
  -2   1   7  102.42    2.58
  -2   1   7  101.97    2.61
   1  -1  -7   38.86    1.35
   1  -1  -7   39.32    1.58
   1  -1  -7   38.01    1.18
   1  -1  -7   38.73    1.27
  -1   1   7   37.04    1.19
  -1   1   7   38.55    1.16
   0  -1  -7  169.48    4.23
   0  -1  -7  170.63    4.30
   0  -1  -7  164.60    3.97
   0   1   7  169.66    4.10
   0   1   7  162.15    4.20
  -1  -1  -7   31.90    1.13
  -1  -1  -7   32.09    1.29
  -1  -1  -7   31.36    1.32
  -1  -1  -7   31.01    1.23
   1   1   7   31.49    1.06
   1   1   7   31.59    1.15
  -2  -1  -7    2.61    0.53
  -2  -1  -7    2.05    0.65
  -2  -1  -7    2.18    0.65
   2   1   7    1.47    0.46
  -3  -1  -7    7.98    0.70
  -3  -1  -7    6.72    0.83
  -3  -1  -7    7.25    0.85
   3   1   7    6.87    0.66
  -4  -1  -7    6.33    0.87
  -4  -1  -7    5.80    0.90
   4   1   7    4.91    0.68
  -5  -1  -7    0.33    0.89
   5   1   7   -0.27    0.61
   6   1   7    9.02    0.96
  -9   2   7    8.20    0.88
   8  -2  -7    9.65    1.04
  -8   2   7    9.96    0.84
   7  -2  -7   -0.13    0.74
   7  -2  -7    1.07    0.66
  -7   2   7    1.37    0.51
   6  -2  -7   12.59    0.94
   6  -2  -7   11.36    0.82
   6  -2  -7   11.80    0.79
  -6   2   7   10.75    0.72
   5  -2  -7   23.03    0.85
   5  -2  -7   21.45    1.38
   5  -2  -7   22.03    0.96
   5  -2  -7   22.31    1.01
   5  -2  -7   22.90    1.15
  -5   2   7   19.79    0.88
   4  -2  -7    9.08    0.62
   4  -2  -7    9.23    0.76
   4  -2  -7   10.92    0.99
   4  -2  -7    8.98    0.60
  -4   2   7    8.87    0.54
  -4   2   7    9.58    0.61
   3  -2  -7  165.77    3.87
   3  -2  -7  166.43    4.10
   3  -2  -7  162.40    4.66
   3  -2  -7  164.86    4.23
  -3   2   7  165.44    4.03
  -3   2   7  167.77    4.06
   2  -2  -7  107.42    2.83
   2  -2  -7  104.70    2.57
   2  -2  -7  108.37    3.24
   2  -2  -7  104.76    2.70
  -2   2   7  107.33    2.67
  -2   2   7  107.73    2.70
   1  -2  -7  104.74    2.59
   1  -2  -7  109.03    3.29
   1  -2  -7  103.00    2.74
   1  -2  -7  105.28    2.75
  -1   2   7  108.95    2.72
  -1   2   7  108.35    2.67
   0  -2  -7    9.73    0.65
   0  -2  -7    8.74    0.63
   0  -2  -7   10.49    0.75
   0   2   7   10.08    0.54
   0   2   7    8.74    0.63
  -1  -2  -7    3.02    0.63
  -1  -2  -7    4.72    0.62
  -1  -2  -7    3.40    0.52
   1   2   7    3.69    0.47
   1   2   7    5.11    0.42
  -2  -2  -7   16.99    0.86
  -2  -2  -7   17.58    1.04
  -2  -2  -7   19.03    1.03
   2   2   7   17.04    0.86
  -3  -2  -7   58.96    1.98
  -3  -2  -7   61.13    2.02
   3   2   7   60.98    1.86
  -4  -2  -7    6.63    0.97
  -4  -2  -7    7.16    0.90
   4   2   7    8.81    0.77
  -5  -2  -7    5.76    1.05
   5   2   7    5.71    0.77
  -9   3   7    0.33    0.65
   8  -3  -7   10.73    1.09
  -8   3   7    9.51    0.81
   7  -3  -7   17.97    1.14
   7  -3  -7   17.65    1.16
  -7   3   7   18.41    0.95
   6  -3  -7   54.20    2.38
   6  -3  -7   57.25    1.84
   6  -3  -7   54.89    1.89
  -6   3   7   57.07    1.71
   5  -3  -7   24.62    1.51
   5  -3  -7   29.93    1.24
   5  -3  -7   27.16    1.12
   5  -3  -7   27.61    0.99
  -5   3   7   29.71    1.03
  -5   3   7   27.56    1.00
   4  -3  -7   79.78    2.25
   4  -3  -7   76.27    2.71
   4  -3  -7   76.64    2.13
   4  -3  -7   79.44    1.96
  -4   3   7   82.86    2.09
  -4   3   7   76.33    2.05
   3  -3  -7   69.41    2.04
   3  -3  -7   68.97    1.87
   3  -3  -7   70.62    1.76
   3  -3  -7   70.51    2.41
  -3   3   7   69.78    1.82
  -3   3   7   72.86    1.85
   2  -3  -7   13.61    0.59
   2  -3  -7   13.55    0.81
   2  -3  -7   13.64    1.06
   2  -3  -7   13.52    0.62
  -2   3   7   14.33    0.61
  -2   3   7   13.62    0.54
  -2   3   7   12.21    0.74
   1  -3  -7   70.19    2.48
   1  -3  -7   70.74    1.78
   1  -3  -7   66.32    1.81
   1  -3  -7   67.23    1.80
   1  -3  -7   68.56    1.80
  -1   3   7   63.64    1.80
  -1   3   7   68.19    1.74
   0  -3  -7   86.28    2.25
   0  -3  -7   83.79    2.34
   0  -3  -7   84.24    2.19
   0   3   7   86.89    2.25
   0   3   7   85.74    2.17
  -1  -3  -7    0.48    0.48
  -1  -3  -7    0.42    0.52
  -1  -3  -7    0.50    0.44
   1   3   7    1.28    0.39
  -2  -3  -7    9.93    0.77
  -2  -3  -7    9.59    0.77
   2   3   7    9.42    0.65
  -3  -3  -7   11.18    0.91
  -3  -3  -7   11.61    0.92
   3   3   7   12.47    0.84
  -4  -3  -7    3.71    0.84
  -4  -3  -7    3.32    0.90
   4   3   7    3.94    0.64
  -5  -3  -7    5.32    1.11
   5   3   7    4.80    0.75
  -9   4   7    0.81    0.67
   8  -4  -7    0.86    0.84
  -8   4   7    1.99    0.61
   7  -4  -7   10.81    0.95
   7  -4  -7    6.74    1.19
   7  -4  -7   10.36    0.88
  -7   4   7   10.00    0.76
   6  -4  -7   26.94    1.18
   6  -4  -7   26.26    1.66
   6  -4  -7   28.87    1.30
  -6   4   7   28.46    1.07
   5  -4  -7   90.21    2.13
   5  -4  -7   84.42    3.03
   5  -4  -7   90.50    2.45
   5  -4  -7   91.27    2.51
  -5   4   7   89.13    2.35
   4  -4  -7    1.61    0.52
   4  -4  -7    2.96    0.83
   4  -4  -7    1.54    0.27
   4  -4  -7    1.37    0.44
  -4   4   7    2.11    0.33
  -4   4   7    1.52    0.31
   3  -4  -7    0.16    0.27
   3  -4  -7    0.93    0.69
   3  -4  -7    0.58    0.34
   3  -4  -7    0.72    0.49
  -3   4   7    0.73    0.25
  -3   4   7    0.51    0.24
   2  -4  -7   14.77    0.55
   2  -4  -7   13.06    1.10
   2  -4  -7   15.43    0.65
   2  -4  -7   15.32    0.67
  -2   4   7   15.53    0.55
  -2   4   7   16.44    0.78
  -2   4   7   15.23    0.59
   1  -4  -7  118.54    2.79
   1  -4  -7  113.66    3.62
   1  -4  -7  114.30    2.84
   1  -4  -7  114.01    2.82
  -1   4   7  114.67    2.86
  -1   4   7  114.46    2.79
   0  -4  -7   25.07    0.97
   0  -4  -7   23.59    0.87
   0  -4  -7   24.45    0.96
   0   4   7   24.99    0.85
  -1  -4  -7   15.44    0.88
  -1  -4  -7   15.53    0.85
   1   4   7   15.86    0.74
  -2  -4  -7   21.10    1.05
  -2  -4  -7   22.24    1.10
   2   4   7   22.29    0.93
  -3  -4  -7    3.32    0.79
  -3  -4  -7    4.79    0.74
   3   4   7    4.08    0.59
  -4  -4  -7    0.50    0.81
   4   4   7    1.16    0.58
  -5  -4  -7   14.34    1.36
   5   4   7   17.13    1.14
  -9   5   7    9.53    0.90
   8  -5  -7   14.07    1.13
   8  -5  -7    9.77    1.32
  -8   5   7   12.95    0.91
   7  -5  -7   21.59    1.19
   7  -5  -7   18.34    1.56
   7  -5  -7   23.52    1.30
  -7   5   7   20.96    1.04
   6  -5  -7   25.28    1.20
   6  -5  -7   22.87    1.62
   6  -5  -7   27.82    1.19
  -6   5   7   24.90    1.01
   5  -5  -7   19.07    1.44
   5  -5  -7   21.14    0.96
   5  -5  -7   21.50    1.00
  -5   5   7   19.54    0.80
   4  -5  -7  119.31    3.08
   4  -5  -7  121.16    3.06
   4  -5  -7  120.15    3.87
  -4   5   7  120.69    2.98
   3  -5  -7   24.40    1.45
   3  -5  -7   20.76    0.83
   3  -5  -7   20.24    0.72
   3  -5  -7   22.55    0.67
  -3   5   7   21.18    0.68
  -3   5   7   20.86    0.68
   2  -5  -7   19.17    1.39
  -2   5   7   20.50    0.61
   1  -5  -7    6.30    1.01
  -1   5   7    6.78    0.43
   0  -5  -7   12.61    0.70
   0  -5  -7   11.71    0.64
   0   5   7   13.62    0.57
  -1  -5  -7    4.76    0.57
  -1  -5  -7    4.73    0.56
   1   5   7    6.21    0.49
  -2  -5  -7    4.21    0.69
  -2  -5  -7    3.12    0.64
   2   5   7    4.16    0.52
  -3  -5  -7   -0.24    0.71
  -3  -5  -7    1.11    0.70
   3   5   7    1.43    0.51
  -4  -5  -7    7.70    1.05
   4   5   7    8.66    0.77
   9  -6  -7    9.82    1.39
  -9   6   7   14.43    1.02
   8  -6  -7    1.33    0.83
   8  -6  -7   -0.02    0.93
  -8   6   7   -0.93    0.53
   7  -6  -7    1.02    0.69
   7  -6  -7    0.30    0.90
   7  -6  -7    0.25    0.71
  -7   6   7    0.74    0.49
   6  -6  -7    1.56    0.95
   6  -6  -7    3.10    0.69
   6  -6  -7    2.10    0.61
  -6   6   7    1.80    0.48
   5  -6  -7   40.55    1.37
   5  -6  -7   40.70    2.10
   5  -6  -7   41.81    1.39
  -5   6   7   40.20    1.24
   4  -6  -7   29.44    1.04
   4  -6  -7   29.76    1.82
   4  -6  -7   29.18    1.02
  -4   6   7   30.45    0.92
   3  -6  -7   21.80    1.52
   3  -6  -7   20.51    0.69
  -3   6   7   22.43    0.66
   2  -6  -7   10.61    1.23
   0  -6  -7    2.62    0.42
   0  -6  -7    2.30    0.42
   0   6   7    3.76    0.34
  -1  -6  -7   29.03    1.11
  -1  -6  -7   27.98    1.07
   1   6   7   27.14    0.96
  -2  -6  -7   32.58    1.36
  -2  -6  -7   31.31    1.30
   2   6   7   31.85    1.15
  -3  -6  -7   10.81    0.91
  -3  -6  -7   11.15    0.99
   3   6   7   11.02    0.80
   8  -7  -7   12.74    1.44
   8  -7  -7   17.53    1.22
  -8   7   7   14.56    0.98
   7  -7  -7   26.61    1.38
   7  -7  -7   27.30    1.34
   7  -7  -7   22.18    1.75
  -7   7   7   28.24    1.15
   6  -7  -7   21.36    1.07
   6  -7  -7   20.54    1.08
   6  -7  -7   18.08    1.59
  -6   7   7   21.15    0.94
   5  -7  -7    2.40    0.96
   5  -7  -7    2.44    0.56
   5  -7  -7    1.89    0.55
  -5   7   7    3.33    0.43
   4  -7  -7    6.81    0.53
   4  -7  -7    7.70    0.55
   4  -7  -7    6.70    1.11
  -4   7   7    7.77    0.50
   3  -7  -7   -0.03    0.93
  -3   7   7    1.09    0.22
   2  -7  -7   10.47    1.25
   0  -7  -7   13.62    0.68
   0  -7  -7   13.42    0.70
   0   7   7   14.75    0.60
  -1  -7  -7   27.87    1.09
  -1  -7  -7   27.67    1.12
   1   7   7   28.33    0.99
  -2  -7  -7    5.23    0.78
  -2  -7  -7    3.77    0.70
   2   7   7    4.33    0.56
  -3  -7  -7   -0.55    0.75
   3   7   7    0.52    0.54
   8  -8  -7    6.50    1.02
   8  -8  -7    5.76    1.34
  -8   8   7    9.02    0.83
   7  -8  -7   12.45    1.00
   7  -8  -7    6.83    1.27
   7  -8  -7   12.41    1.00
  -7   8   7   12.69    0.86
   6  -8  -7    0.14    1.07
   6  -8  -7   -0.27    0.61
   6  -8  -7   -0.26    0.62
  -6   8   7   -0.13    0.44
   5  -8  -7    0.45    0.52
   5  -8  -7    0.59    1.01
   5  -8  -7    0.99    0.51
  -5   8   7   -0.12    0.37
   4  -8  -7    5.69    1.12
   4  -8  -7    5.73    0.50
   4  -8  -7    5.16    0.53
  -4   8   7    5.99    0.41
   3  -8  -7    5.02    1.11
   2  -8  -7   33.37    2.09
   0  -8  -7   12.57    0.71
   0  -8  -7   13.13    0.71
  -1  -8  -7   -0.12    0.57
  -1  -8  -7    0.22    0.54
  -2  -8  -7    0.14    0.70
  -2  -8  -7   -0.63    0.65
   7  -9  -7    0.67    0.77
   7  -9  -7    0.25    0.78
   7  -9  -7   -1.68    1.12
  -7   9   7   -0.34    0.54
   6  -9  -7    5.16    0.78
   6  -9  -7    3.07    0.73
   6  -9  -7    2.90    1.24
  -6   9   7    3.93    0.55
   5  -9  -7    2.48    0.61
   5  -9  -7    3.04    0.61
   5  -9  -7    3.12    1.21
   4  -9  -7   11.51    0.69
   4  -9  -7   11.90    1.45
   4  -9  -7   11.24    0.76
   3  -9  -7   13.13    1.47
   0  -9  -7    4.58    0.56
   0  -9  -7    5.70    0.58
   5 -10  -7   18.31    1.00
   5 -10  -7   17.26    1.03
   5 -10  -7   16.09    1.64
   4 -10  -7   10.27    0.72
   4 -10  -7    8.58    1.41
   4 -10  -7   11.88    0.74
   3 -10  -7    0.96    1.23
   1 -10  -7    4.47    0.52
   2  13  -8   -0.14    0.77
   2  13  -8   -0.59    0.78
   2  13  -8    0.26    0.86
   1  13  -8    3.76    0.87
   1  13  -8    2.39    0.77
   0  13  -8    4.13    0.83
   0  13  -8    2.86    0.87
  -1  13  -8    7.65    1.04
  -1  13  -8    7.99    0.93
  -2  13  -8    5.54    0.89
  -2  13  -8    5.36    0.95
   3  12  -8    2.37    0.86
   3  12  -8    0.47    0.87
   2  12  -8    1.75    0.79
   2  12  -8    0.56    0.82
   2  12  -8    0.85    0.75
   1  12  -8    8.58    0.90
   1  12  -8    8.00    1.01
  -1 -12   8    9.62    1.12
   0  12  -8   18.13    1.25
   0  12  -8   20.43    1.26
   0 -12   8   19.94    1.42
  -1  12  -8    7.57    1.00
  -1  12  -8    6.22    0.86
   1 -12   8    7.01    1.08
  -2  12  -8   11.57    0.97
  -2  12  -8   13.94    1.20
   2 -12   8   14.74    1.32
  -3  12  -8    7.33    1.06
  -3  12  -8    5.41    0.85
   3 -12   8    6.57    1.15
  -4  12  -8    3.77    1.00
   5  11  -8   -0.24    0.81
   4  11  -8   11.23    1.11
  -4 -11   8   11.98    1.25
   3  11  -8   13.98    1.17
  -3 -11   8   16.77    1.32
   2  11  -8   13.11    1.13
   2  11  -8   11.55    1.04
   2  11  -8   13.09    1.04
  -2 -11   8   12.62    1.18
   1  11  -8   29.45    1.50
   1  11  -8   28.54    1.40
  -1 -11   8   30.19    1.65
   0  11  -8    0.35    0.61
   0  11  -8    0.53    0.69
   0 -11   8   -1.31    0.80
  -1  11  -8    8.28    0.87
  -1  11  -8    9.02    0.99
   1 -11   8    8.08    1.11
  -2  11  -8    0.09    0.72
  -2  11  -8   -0.73    0.65
   2 -11   8    1.02    0.83
  -3  11  -8    0.92    0.70
  -3  11  -8    1.08    0.77
   3 -11   8    1.64    0.99
  -4  11  -8    3.52    0.91
  -4  11  -8    2.72    0.80
   4 -11   8    3.98    1.09
   5  10  -8    3.53    0.90
  -5 -10   8    1.36    0.96
   4  10  -8   28.96    1.47
  -4 -10   8   30.32    1.67
   3  10  -8    2.58    0.82
  -3 -10   8    2.20    0.88
   2  10  -8   10.45    0.90
   2  10  -8   11.38    1.03
   2  10  -8   11.34    0.99
  -2 -10   8   11.95    1.14
   1  10  -8   14.88    1.10
   1  10  -8   17.69    1.13
  -1 -10   8   19.73    1.35
   0  10  -8    0.28    0.59
   0  10  -8    0.99    0.71
   0 -10   8    0.73    0.80
  -1  10  -8    7.79    0.80
  -1  10  -8    7.23    0.87
   1 -10   8   10.44    1.07
  -2  10  -8   23.73    1.26
  -2  10  -8   25.56    1.43
   2 -10   8   25.68    1.57
  -3  10  -8   23.67    1.28
  -3  10  -8   24.44    1.37
   3 -10   8   23.59    1.50
  -4  10  -8   19.86    1.28
  -4  10  -8   22.58    1.45
   4 -10   8   21.77    1.50
  -5  10  -8    7.58    0.92
  -5  10  -8    8.52    1.07
   5 -10   8    8.41    1.26
   6   9  -8    7.07    1.01
  -6  -9   8    5.04    1.03
   5   9  -8   36.82    1.72
  -5  -9   8   39.95    1.75
   4   9  -8    7.34    0.88
  -4  -9   8   10.06    1.08
   3   9  -8    7.87    0.88
  -3  -9   8    5.94    0.89
   2   9  -8    9.92    0.95
   2   9  -8   10.42    0.86
   2   9  -8   10.21    0.92
  -2  -9   8   10.35    1.01
   1   9  -8   12.74    1.00
   1   9  -8   12.00    0.92
  -1  -9   8   12.63    1.05
   0   9  -8    2.01    0.65
   0   9  -8    2.64    0.67
   0  -9   8    2.02    0.75
  -1   9  -8   36.45    1.42
  -1   9  -8   35.54    1.56
   1  -9   8   37.91    1.75
  -2   9  -8   22.83    1.24
  -2   9  -8   21.05    1.12
   2  -9   8   19.47    1.33
  -3   9  -8    2.86    0.77
  -3   9  -8    2.07    0.66
   3  -9   8    2.95    0.93
  -4   9  -8   -0.56    0.62
  -4   9  -8    0.60    0.79
   4  -9   8    1.04    0.86
  -5   9  -8   -0.35    0.75
  -5   9  -8    1.35    0.77
   5  -9   8    0.72    0.89
   7   8  -8    2.39    0.88
  -7  -8   8    0.21    0.85
   6   8  -8    2.08    0.75
  -6  -8   8    2.37    0.91
   5   8  -8    2.79    0.77
  -5  -8   8    2.41    0.79
   4   8  -8    0.88    0.65
  -4  -8   8    1.34    0.69
   3   8  -8   -0.02    0.65
  -3  -8   8    0.31    0.64
   2   8  -8   47.99    1.66
   2   8  -8   48.86    1.76
   2   8  -8   48.49    1.80
  -2  -8   8   49.96    1.86
   1   8  -8   31.49    1.34
   1   8  -8   29.80    1.26
  -1  -8   8   29.88    1.43
   0   8  -8   37.65    1.47
   0   8  -8   40.08    1.52
   0  -8   8   36.82    1.60
  -1   8  -8   54.76    1.81
  -1   8  -8   58.91    1.99
   1  -8   8   55.34    2.05
  -2   8  -8    0.99    0.64
  -2   8  -8    0.02    0.55
   2  -8   8    0.58    0.78
  -3   8  -8   24.60    1.35
  -3   8  -8   22.24    1.17
   3  -8   8   24.44    1.51
  -4   8  -8   39.23    1.57
  -4   8  -8   36.85    1.60
   4  -8   8   34.82    1.71
  -5   8  -8   14.20    1.10
  -5   8  -8   15.82    1.23
   5  -8   8   15.03    1.30
  -6   8  -8    4.28    0.91
  -6   8  -8    3.44    0.98
   6  -8   8    2.08    1.07
   7   7  -8    0.98    0.82
  -7  -7   8    2.02    0.88
   6   7  -8    9.43    0.98
  -6  -7   8    9.09    1.04
   5   7  -8   39.82    1.65
  -5  -7   8   38.83    1.64
   4   7  -8    3.91    0.70
  -4  -7   8    4.59    0.78
   3   7  -8   57.42    1.97
  -3  -7   8   54.58    1.95
   2   7  -8   47.31    1.66
   2   7  -8   46.14    1.58
   2   7  -8   48.30    1.68
  -2  -7   8   43.84    1.72
   1   7  -8   11.59    0.88
   1   7  -8   10.97    0.85
  -1  -7   8   10.14    0.95
   0   7  -8    1.17    0.57
   0   7  -8   -0.24    0.51
   0  -7   8    0.16    0.59
  -1   7  -8    6.45    0.74
  -1   7  -8    5.99    0.73
   1  -7   8    6.23    0.82
  -2   7  -8   13.25    0.94
  -2   7  -8   14.31    0.99
   2  -7   8   13.44    1.13
  -3   7  -8   18.09    1.11
  -3   7  -8   17.64    1.09
   3  -7   8   15.03    1.21
  -4   7  -8   13.73    1.03
  -4   7  -8   12.98    0.97
   4  -7   8   14.27    1.20
  -5   7  -8   -0.07    0.66
  -5   7  -8   -0.27    0.77
   5  -7   8   -0.56    0.77
  -6   7  -8    4.47    0.90
  -6   7  -8    4.04    0.98
   6  -7   8    3.58    1.02
   8   6  -8    0.55    0.84
  -8  -6   8   -0.10    0.83
   7   6  -8    0.25    0.75
  -7  -6   8    0.69    0.72
   6   6  -8   36.39    1.59
  -6  -6   8   34.93    1.59
   5   6  -8   14.64    1.03
  -5  -6   8   15.22    1.07
   4   6  -8   12.69    0.91
  -4  -6   8   10.75    0.90
   3   6  -8   44.96    1.96
   3   6  -8   44.97    1.68
  -3  -6   8   43.51    1.67
   2   6  -8   22.24    1.43
   2   6  -8   21.82    1.11
   2   6  -8   18.65    1.37
   2   6  -8   20.76    1.09
   2   6  -8   21.85    1.15
  -2  -6   8   20.40    1.18
   1   6  -8    6.63    1.09
   1   6  -8    6.08    0.69
   1   6  -8    5.91    0.86
  -1  -6   8    6.54    1.04
  -1  -6   8    4.65    0.72
   0   6  -8  157.81    4.00
   0   6  -8  166.46    4.52
   0   6  -8  165.94    4.46
   0   6  -8  156.89    4.19
   0  -6   8  152.87    4.30
  -1   6  -8  103.81    3.23
  -1   6  -8   98.91    2.76
  -1   6  -8  101.72    2.86
   1  -6   8   99.93    3.03
  -2   6  -8    9.35    0.80
  -2   6  -8    9.69    0.82
   2  -6   8    9.96    0.98
  -3   6  -8   27.15    1.31
  -3   6  -8   26.76    1.25
   3  -6   8   23.68    1.32
  -4   6  -8    0.22    0.60
  -4   6  -8   -0.08    0.68
   4  -6   8   -0.05    0.68
  -5   6  -8    4.33    0.82
  -5   6  -8    4.33    0.80
   5  -6   8    3.73    0.88
  -6   6  -8    3.83    0.90
  -6   6  -8    2.27    0.88
   6  -6   8    3.06    0.93
   8   5  -8    2.42    0.85
  -8  -5   8    1.58    0.84
   7   5  -8   22.96    1.36
  -7  -5   8   21.88    1.25
   6   5  -8   27.36    1.35
  -6  -5   8   25.74    1.33
   5   5  -8    3.47    0.66
  -5  -5   8    3.15    0.62
   4   5  -8   -0.16    0.77
   4   5  -8   -0.27    0.51
  -4  -5   8    0.13    0.51
   3   5  -8   68.60    2.23
   3   5  -8   66.85    2.09
   3   5  -8   67.67    2.47
  -3  -5   8   66.26    2.10
   2   5  -8   32.38    1.33
   2   5  -8   33.84    1.49
   2   5  -8   32.18    1.25
   2   5  -8   33.36    1.39
   2   5  -8   33.36    1.68
  -2  -5   8   31.11    1.37
  -2  -5   8   32.17    1.51
   1   5  -8   55.15    2.04
   1   5  -8   52.42    1.78
   1   5  -8   57.79    2.22
  -1  -5   8   51.97    1.97
  -1  -5   8   53.42    1.87
   0   5  -8   62.49    1.93
   0   5  -8   66.45    2.00
   0   5  -8   65.07    2.22
   0   5  -8   66.92    2.41
   0  -5   8   64.97    2.32
   0  -5   8   64.68    2.11
  -1   5  -8    3.87    0.61
  -1   5  -8    6.11    0.88
  -1   5  -8    5.71    1.05
  -1   5  -8    4.93    0.63
   1  -5   8    5.68    0.41
   1  -5   8    3.41    0.67
  -2   5  -8    0.14    0.55
  -2   5  -8    1.03    0.56
  -2   5  -8   -0.33    0.86
   2  -5   8   -0.52    0.56
  -3   5  -8    8.72    0.78
  -3   5  -8    8.98    0.80
   3  -5   8    9.92    0.93
  -4   5  -8   -0.10    0.62
  -4   5  -8   -0.05    0.63
   4  -5   8    1.55    0.69
  -5   5  -8    7.81    0.89
  -5   5  -8    8.30    0.86
   5  -5   8    5.15    0.93
  -6   5  -8   24.90    1.44
  -6   5  -8   22.45    1.35
   6  -5   8   22.75    1.47
   9   4  -8    2.64    0.88
  -9  -4   8    2.20    0.91
   8   4  -8    2.79    0.78
  -8  -4   8    1.55    0.72
   7   4  -8    3.89    0.80
  -7  -4   8    3.54    0.76
   6   4  -8    6.25    0.77
  -6  -4   8    5.71    0.73
   5   4  -8    9.11    0.78
   5   4  -8    8.12    0.97
  -5  -4   8    8.01    0.73
   4   4  -8  104.75    3.00
   4   4  -8  103.68    3.11
   4   4  -8  100.22    2.85
  -4  -4   8  100.98    2.88
   3   4  -8  123.67    3.28
   3   4  -8  120.39    3.33
   3   4  -8  116.63    3.45
   3   4  -8  116.48    3.11
   3   4  -8  116.34    3.22
  -3  -4   8  119.28    3.26
   2   4  -8   31.50    1.74
   2   4  -8   32.94    1.39
   2   4  -8   31.56    1.04
   2   4  -8   30.05    1.20
   2   4  -8   31.00    1.22
  -2  -4   8   31.68    1.29
   1   4  -8   84.39    2.57
   1   4  -8   81.63    2.66
   1   4  -8   79.44    2.30
   1   4  -8   81.03    2.28
  -1  -4   8   78.58    2.42
   0   4  -8   11.23    1.10
   0   4  -8   10.74    0.76
   0   4  -8   12.55    0.80
   0   4  -8   10.71    0.97
   0  -4   8   10.86    0.83
  -1   4  -8    1.97    0.75
  -1   4  -8    1.61    0.55
  -1   4  -8    2.10    0.92
  -1   4  -8    1.73    0.54
   1  -4   8    1.22    0.60
   1  -4   8    1.98    0.36
  -2   4  -8   33.85    1.63
  -2   4  -8   30.30    1.24
  -2   4  -8   34.43    1.73
  -2   4  -8   32.42    1.27
   2  -4   8   29.86    1.37
  -3   4  -8   59.20    1.89
  -3   4  -8   64.23    2.35
  -3   4  -8   60.12    1.92
   3  -4   8   58.12    2.07
  -4   4  -8   18.27    1.10
  -4   4  -8   18.63    1.14
   4  -4   8   15.49    1.14
  -5   4  -8   24.80    1.33
  -5   4  -8   25.64    1.33
   5  -4   8   25.47    1.46
  -6   4  -8    1.99    0.79
   6  -4   8    2.53    0.83
   9   3  -8    5.14    0.93
  -9  -3   8    6.25    0.97
   8   3  -8    0.28    0.74
  -8  -3   8    0.98    0.68
   7   3  -8   51.81    1.84
  -7  -3   8   44.95    1.72
   6   3  -8   18.59    1.02
  -6  -3   8   16.24    1.03
   5   3  -8   27.91    1.30
   5   3  -8   29.37    1.61
   5   3  -8   31.57    1.23
  -5  -3   8   28.34    1.23
   4   3  -8  108.93    2.92
   4   3  -8  106.10    3.04
   4   3  -8  106.85    3.22
  -4  -3   8  104.19    2.92
   3   3  -8    1.45    0.85
   3   3  -8    0.04    0.48
   3   3  -8    0.67    0.44
   3   3  -8    0.47    0.62
   3   3  -8    0.08    0.51
   3   3  -8    1.14    0.51
  -3  -3   8    0.81    0.46
   2   3  -8    1.72    0.51
   2   3  -8    0.71    0.85
   2   3  -8    2.99    0.68
   2   3  -8    1.93    0.39
   2   3  -8    2.95    0.52
  -2  -3   8    2.01    0.47
   1   3  -8   10.63    1.03
   1   3  -8   11.89    0.81
   1   3  -8   11.84    0.78
   1   3  -8   10.84    0.89
  -1  -3   8   13.42    0.83
   0   3  -8    2.09    0.70
   0   3  -8    1.12    0.49
   0   3  -8    1.85    0.47
   0   3  -8    2.88    0.78
   0  -3   8    2.40    0.38
   0  -3   8    2.29    0.53
  -1   3  -8    1.44    0.54
  -1   3  -8    1.35    0.77
  -1   3  -8    1.16    0.78
  -1   3  -8    0.12    0.44
   1  -3   8    1.31    0.58
  -2   3  -8   96.39    2.65
  -2   3  -8   98.19    2.95
  -2   3  -8   98.21    2.68
  -2   3  -8  100.42    3.04
   2  -3   8   99.14    2.90
  -3   3  -8   32.56    1.26
  -3   3  -8   31.06    1.61
  -3   3  -8   29.94    1.26
   3  -3   8   34.13    1.45
  -4   3  -8    9.08    0.83
  -4   3  -8   11.87    1.20
  -4   3  -8    8.66    0.80
   4  -3   8    8.93    0.92
  -5   3  -8    2.25    0.74
   5  -3   8    2.69    0.79
  -6   3  -8    2.35    0.78
   6  -3   8    0.79    0.82
   9   2  -8    2.99    0.88
  -9  -2   8    2.95    0.78
   8   2  -8   10.14    1.00
  -8  -2   8   11.21    0.93
   7   2  -8   44.21    1.68
  -7  -2   8   42.27    1.57
   6   2  -8   29.83    1.61
   6   2  -8   27.63    1.19
  -6  -2   8   26.93    1.16
   5   2  -8   24.38    1.24
   5   2  -8   24.12    1.37
   5   2  -8   23.71    1.13
  -5  -2   8   24.44    1.05
   4   2  -8    2.33    0.86
   4   2  -8    1.96    0.54
   4   2  -8    3.58    0.66
  -4  -2   8    1.42    0.44
   3   2  -8    6.64    0.92
   3   2  -8    5.11    0.58
   3   2  -8    5.62    0.58
   3   2  -8    5.46    0.61
   3   2  -8    5.05    0.68
   3   2  -8    5.56    0.60
  -3  -2   8    5.65    0.56
   2   2  -8   19.77    1.36
   2   2  -8   19.36    0.97
   2   2  -8   18.90    1.09
   2   2  -8   17.97    0.94
   2   2  -8   19.47    0.92
  -2  -2   8   19.36    0.93
   1   2  -8  120.08    3.37
   1   2  -8  124.14    3.41
   1   2  -8  123.67    3.46
   1   2  -8  122.08    3.12
   1   2  -8  124.87    3.14
  -1  -2   8  118.34    3.28
   0   2  -8   25.23    1.44
   0   2  -8   24.04    1.09
   0   2  -8   27.50    1.35
   0   2  -8   25.16    0.96
   0  -2   8   26.24    1.15
  -1   2  -8  140.50    3.54
  -1   2  -8  138.75    3.52
  -1   2  -8  143.29    3.89
  -1   2  -8  143.81    3.87
   1  -2   8  135.78    3.76
  -2   2  -8   54.59    2.01
  -2   2  -8   51.35    1.57
  -2   2  -8   52.88    1.96
  -2   2  -8   51.63    1.69
   2  -2   8   52.01    1.80
  -3   2  -8    8.35    0.67
  -3   2  -8    8.47    1.01
  -3   2  -8    8.35    0.96
  -3   2  -8    6.88    0.72
   3  -2   8    8.88    0.84
  -4   2  -8   22.24    1.14
  -4   2  -8   24.08    1.16
  -4   2  -8   23.78    1.69
   4  -2   8   22.80    1.19
  -5   2  -8   22.43    1.24
   5  -2   8   23.05    1.36
   6  -2   8    2.66    0.86
  -9  -1   8   14.58    1.12
   8   1  -8   32.41    1.49
  -8  -1   8   29.41    1.39
   7   1  -8   11.23    0.89
  -7  -1   8   10.52    0.84
   6   1  -8    0.78    0.74
   6   1  -8    0.10    0.51
   6   1  -8    0.04    0.60
  -6  -1   8    0.53    0.48
   5   1  -8   72.18    2.21
   5   1  -8   74.30    2.40
   5   1  -8   71.84    2.11
  -5  -1   8   68.43    2.08
   4   1  -8   16.37    0.94
   4   1  -8   14.53    1.09
   4   1  -8   16.30    1.00
   4   1  -8   14.37    0.96
   4   1  -8   17.97    1.16
  -4  -1   8   16.01    0.78
   3   1  -8    0.78    0.50
   3   1  -8    1.00    0.81
   3   1  -8    0.81    0.56
   3   1  -8    0.65    0.41
   3   1  -8    0.77    0.48
  -3  -1   8    0.80    0.39
   2   1  -8   96.07    2.46
   2   1  -8   93.79    2.51
   2   1  -8   96.81    2.81
   2   1  -8   95.53    2.81
   2   1  -8   94.11    2.64
  -2  -1   8   94.24    2.58
   1   1  -8   51.30    1.71
   1   1  -8   50.86    1.84
   1   1  -8   48.11    1.70
   1   1  -8   51.48    1.57
   1   1  -8   51.55    1.41
  -1  -1   8   49.20    1.60
   0   1  -8   13.32    0.64
   0   1  -8   13.01    0.96
   0   1  -8   13.07    0.96
   0   1  -8   14.71    0.82
   0  -1   8   16.13    0.90
  -1   1  -8    1.82    0.75
  -1   1  -8    2.65    0.77
  -1   1  -8    2.25    0.38
  -1   1  -8    2.48    0.55
   1  -1   8    2.02    0.55
  -2   1  -8    2.93    0.80
  -2   1  -8    2.31    0.53
  -2   1  -8    3.20    0.76
  -2   1  -8    2.99    0.43
   2  -1   8    2.84    0.60
  -3   1  -8    3.13    0.64
  -3   1  -8    4.51    0.90
  -3   1  -8    4.92    0.86
   3  -1   8    3.71    0.65
  -4   1  -8   30.57    1.68
  -4   1  -8   31.02    1.34
  -4   1  -8   35.91    1.84
   4  -1   8   30.57    1.42
  -5   1  -8    8.86    0.91
   5  -1   8    8.00    0.93
   6  -1   8    1.95    0.82
  -9   0   8    3.16    0.78
  -8   0   8    0.12    0.60
   7   0  -8   10.03    1.02
   7   0  -8   11.22    0.84
  -7   0   8   10.43    0.81
   6   0  -8    6.46    0.91
   6   0  -8    7.20    0.68
   6   0  -8    8.23    0.79
  -6   0   8    5.79    0.60
   5   0  -8   83.50    2.54
   5   0  -8   81.87    2.31
   5   0  -8   82.17    2.39
  -5   0   8   79.24    2.28
   4   0  -8   41.64    1.30
   4   0  -8   39.48    1.67
   4   0  -8   40.27    1.32
   4   0  -8   38.69    1.63
   4   0  -8   39.29    1.39
   4   0  -8   40.77    1.43
  -4   0   8   40.10    1.31
   3   0  -8  103.70    2.61
   3   0  -8  102.40    2.68
   3   0  -8  103.64    3.12
   3   0  -8  102.95    3.03
   3   0  -8  105.29    2.81
  -3   0   8  101.47    2.72
  -3   0   8  107.87    2.77
   2   0  -8   69.45    2.23
   2   0  -8   71.22    2.05
   2   0  -8   70.54    2.26
   2   0  -8   70.78    1.93
  -2   0   8   71.98    2.01
  -2   0   8   69.28    1.99
   1   0  -8    6.39    0.73
   1   0  -8    5.94    0.36
   1   0  -8    6.46    0.56
   1   0  -8    6.73    0.78
   1   0  -8    5.88    0.71
   1   0  -8    6.39    0.32
  -1   0   8    7.18    0.52
  -1   0   8    7.94    0.56
  -1   0   8    5.68    0.56
   0   0  -8   23.30    1.26
   0   0  -8   22.71    0.99
   0   0  -8   22.47    1.21
   0   0   8   22.70    1.06
   0   0   8   23.78    0.97
  -1   0  -8  174.35    4.36
  -1   0  -8  181.33    4.71
  -1   0  -8  184.77    4.77
   1   0   8  184.23    4.66
  -2   0  -8   24.45    1.25
  -2   0  -8   25.84    1.35
  -2   0  -8   21.99    1.02
  -2   0  -8   22.33    1.33
   2   0   8   24.13    1.10
  -3   0  -8    2.36    0.77
  -3   0  -8    2.55    0.59
  -3   0  -8    1.94    0.80
  -3   0  -8    2.74    0.82
   3   0   8    2.40    0.60
  -4   0  -8    5.31    0.74
  -4   0  -8    6.14    1.06
  -4   0  -8    7.17    1.02
   4   0   8    6.03    0.76
   5   0   8   -0.12    0.66
  -9   1   8   13.78    1.05
  -8   1   8   18.27    1.09
   7  -1  -8    3.15    0.87
  -7   1   8    3.76    0.60
   6  -1  -8   31.16    1.45
   6  -1  -8   31.23    1.35
   6  -1  -8   32.89    1.22
  -6   1   8   31.21    1.19
   5  -1  -8   27.58    1.05
   5  -1  -8   28.44    1.36
   5  -1  -8   25.71    1.15
   5  -1  -8   29.54    1.25
   5  -1  -8   30.91    1.61
  -5   1   8   26.90    1.05
   4  -1  -8   39.77    1.36
   4  -1  -8   39.71    1.54
   4  -1  -8   37.91    1.35
   4  -1  -8   41.50    1.75
  -4   1   8   38.78    1.24
   3  -1  -8    0.93    0.72
   3  -1  -8    0.77    0.48
   3  -1  -8    0.11    0.56
   3  -1  -8   -0.02    0.45
  -3   1   8   -0.11    0.34
  -3   1   8   -0.03    0.31
   2  -1  -8    8.79    0.85
   2  -1  -8    8.30    0.64
   2  -1  -8    8.89    0.62
   2  -1  -8    8.13    0.81
  -2   1   8    9.58    0.60
  -2   1   8    8.45    0.57
   1  -1  -8   19.24    1.04
   1  -1  -8   20.03    1.13
   1  -1  -8   20.50    0.89
   1  -1  -8   19.19    1.28
  -1   1   8   18.69    0.91
  -1   1   8   19.77    0.82
  -1   1   8   19.10    0.83
   0  -1  -8  100.01    2.74
   0  -1  -8   95.80    2.52
   0  -1  -8   94.63    2.76
   0   1   8  100.00    2.56
   0   1   8   97.56    2.66
  -1  -1  -8   15.77    0.89
  -1  -1  -8   17.00    1.02
  -1  -1  -8   16.98    1.11
  -1  -1  -8   17.50    1.12
   1   1   8   16.39    0.91
  -2  -1  -8    0.88    0.69
  -2  -1  -8    0.21    0.47
  -2  -1  -8    1.36    0.71
  -2  -1  -8    0.20    0.67
   2   1   8    0.39    0.51
  -3  -1  -8    5.60    0.69
  -3  -1  -8    7.07    0.89
  -3  -1  -8    7.52    0.92
   3   1   8    6.27    0.70
  -4  -1  -8    1.73    0.91
   4   1   8    2.75    0.67
   5   1   8   -1.00    0.63
  -9   2   8    6.59    0.85
   8  -2  -8    6.76    1.05
  -8   2   8    7.97    0.79
   7  -2  -8   22.89    1.25
   7  -2  -8   20.50    1.33
  -7   2   8   20.83    1.04
   6  -2  -8    9.32    0.71
   6  -2  -8    9.22    0.90
   6  -2  -8    9.13    0.78
   6  -2  -8    8.99    1.07
  -6   2   8    8.71    0.66
   5  -2  -8   53.91    1.71
   5  -2  -8   54.74    2.20
   5  -2  -8   53.18    1.62
   5  -2  -8   55.15    1.85
  -5   2   8   52.41    1.60
   4  -2  -8    3.44    0.75
   4  -2  -8    2.75    0.53
   4  -2  -8    2.48    0.69
   4  -2  -8    3.96    0.49
  -4   2   8    3.85    0.43
  -4   2   8    3.11    0.42
   3  -2  -8  230.96    5.77
   3  -2  -8  235.71    5.45
   3  -2  -8  238.02    6.51
   3  -2  -8  238.52    5.93
  -3   2   8  239.14    5.74
  -3   2   8  234.42    5.71
   2  -2  -8   98.40    2.75
   2  -2  -8   98.71    2.47
   2  -2  -8   97.15    2.58
   2  -2  -8   98.56    3.12
  -2   2   8   99.09    2.57
  -2   2   8   98.28    2.54
   1  -2  -8   24.82    1.54
   1  -2  -8   24.86    1.09
   1  -2  -8   25.22    1.13
   1  -2  -8   24.47    0.95
  -1   2   8   26.41    1.00
  -1   2   8   25.39    0.92
   0  -2  -8    9.57    0.65
   0  -2  -8    9.80    0.80
   0  -2  -8    9.75    0.72
   0   2   8   10.20    0.74
  -1  -2  -8   -0.03    0.42
  -1  -2  -8   -0.42    0.58
  -1  -2  -8    0.76    0.58
   1   2   8    0.03    0.41
  -2  -2  -8   -0.56    0.51
  -2  -2  -8   -0.07    0.64
  -2  -2  -8    1.03    0.66
   2   2   8    0.49    0.47
  -3  -2  -8   14.45    1.05
  -3  -2  -8   14.33    0.95
  -3  -2  -8   15.62    1.11
   3   2   8   13.56    0.90
  -4  -2  -8    7.87    1.08
   4   2   8    8.85    0.82
  -5  -2  -8    4.47    1.16
   5   2   8    6.13    0.83
  -9   3   8    2.82    0.72
   8  -3  -8   16.01    1.23
  -8   3   8   15.03    0.99
   7  -3  -8    0.16    0.79
   7  -3  -8   -1.09    0.67
   7  -3  -8   -1.00    0.88
  -7   3   8   -0.36    0.48
   6  -3  -8   12.17    0.74
   6  -3  -8   13.89    0.99
   6  -3  -8   14.79    1.01
   6  -3  -8   13.67    1.31
  -6   3   8   14.57    0.83
   5  -3  -8    9.02    0.79
   5  -3  -8   10.63    1.13
   5  -3  -8   10.43    0.61
   5  -3  -8    9.96    0.72
  -5   3   8    9.89    0.62
   4  -3  -8   56.53    2.19
   4  -3  -8   58.49    1.69
   4  -3  -8   58.62    1.55
   4  -3  -8   56.75    1.83
  -4   3   8   58.65    1.62
   3  -3  -8   18.94    1.28
   3  -3  -8   18.15    1.07
   3  -3  -8   19.97    0.82
   3  -3  -8   17.75    0.77
  -3   3   8   18.88    0.73
  -3   3   8   20.19    0.79
   2  -3  -8    4.54    0.47
   2  -3  -8    5.18    0.62
   2  -3  -8    4.99    0.46
   2  -3  -8    4.90    0.84
  -2   3   8    5.11    0.44
  -2   3   8    5.88    0.43
   1  -3  -8    1.46    0.50
   1  -3  -8    1.58    0.83
   1  -3  -8    1.66    0.41
   1  -3  -8    1.04    0.46
  -1   3   8    1.35    0.41
   0  -3  -8   -0.05    0.40
   0  -3  -8    0.03    0.48
   0  -3  -8    0.58    0.56
   0   3   8    0.03    0.39
  -1  -3  -8    5.18    0.61
  -1  -3  -8    5.87    0.69
  -1  -3  -8    5.43    0.66
   1   3   8    4.68    0.52
  -2  -3  -8   15.11    1.01
  -2  -3  -8   15.13    1.10
   2   3   8   14.74    0.85
  -3  -3  -8   44.27    1.73
  -3  -3  -8   41.99    1.75
   3   3   8   43.32    1.54
  -4  -3  -8    9.11    1.08
   4   3   8    9.54    0.84
  -9   4   8    5.11    0.80
   8  -4  -8    3.41    0.91
   8  -4  -8    0.80    0.97
  -8   4   8    2.68    0.63
   7  -4  -8   36.94    1.61
   7  -4  -8   36.60    1.49
   7  -4  -8   33.50    2.05
  -7   4   8   34.58    1.31
   6  -4  -8   41.23    2.08
   6  -4  -8   46.15    1.58
   6  -4  -8   46.31    1.64
  -6   4   8   43.85    1.42
   5  -4  -8   31.68    1.29
   5  -4  -8   31.61    1.82
   5  -4  -8   31.93    1.18
  -5   4   8   32.84    1.11
   4  -4  -8   10.83    0.54
   4  -4  -8    9.62    0.72
   4  -4  -8   11.02    0.70
   4  -4  -8    8.10    1.07
  -4   4   8    9.90    0.57
   3  -4  -8    0.46    0.31
   3  -4  -8    0.81    0.80
   3  -4  -8    1.21    0.37
   3  -4  -8    0.91    0.54
  -3   4   8    0.90    0.29
   2  -4  -8    2.22    0.87
   2  -4  -8    1.04    0.46
   2  -4  -8    1.51    0.37
   2  -4  -8    0.85    0.34
  -2   4   8    1.28    0.32
   1  -4  -8   31.72    1.12
   1  -4  -8   32.53    1.07
   1  -4  -8   30.80    1.05
   1  -4  -8   34.20    1.11
  -1   4   8   32.17    1.07
   0  -4  -8   15.49    0.82
   0  -4  -8   16.24    0.91
   0  -4  -8   16.97    0.88
   0   4   8   16.01    0.73
  -1  -4  -8   13.25    0.90
  -1  -4  -8   14.30    0.91
   1   4   8   14.73    0.76
  -2  -4  -8   34.92    1.45
  -2  -4  -8   33.70    1.40
   2   4   8   35.86    1.29
  -3  -4  -8    4.51    0.88
  -3  -4  -8    4.91    0.82
   3   4   8    5.67    0.67
  -4  -4  -8   -0.43    0.91
   4   4   8    0.04    0.60
   9  -5  -8    5.07    1.24
  -9   5   8    5.59    0.81
   8  -5  -8   11.73    1.39
   8  -5  -8   16.09    1.18
  -8   5   8   12.88    0.94
   7  -5  -8    8.71    1.34
   7  -5  -8   12.66    0.95
   7  -5  -8   14.18    1.04
  -7   5   8   14.22    0.90
   6  -5  -8   15.05    0.99
   6  -5  -8   15.47    1.49
   6  -5  -8   17.68    1.05
  -6   5   8   17.54    0.89
   5  -5  -8    1.22    0.96
   5  -5  -8    1.33    0.58
   5  -5  -8    1.37    0.51
  -5   5   8    1.47    0.40
   4  -5  -8   23.70    1.69
   4  -5  -8   20.99    0.99
   4  -5  -8   24.23    0.91
  -4   5   8   24.56    0.84
   3  -5  -8    1.19    0.90
   3  -5  -8    1.08    0.34
   3  -5  -8    1.70    0.50
  -3   5   8    1.84    0.29
   2  -5  -8    1.46    0.93
   2  -5  -8    0.67    0.36
   2  -5  -8    0.93    0.37
   2  -5  -8    0.51    0.30
  -2   5   8    0.98    0.30
   1  -5  -8   28.26    0.93
   1  -5  -8   27.89    1.05
  -1   5   8   30.76    0.94
   0  -5  -8   21.44    0.96
   0  -5  -8   22.51    0.92
   0   5   8   22.61    0.82
  -1  -5  -8   22.60    1.07
  -1  -5  -8   23.78    1.07
   1   5   8   24.55    0.95
  -2  -5  -8    0.83    0.64
  -2  -5  -8    0.45    0.68
   2   5   8    0.36    0.47
  -3  -5  -8    1.90    0.76
  -3  -5  -8    1.72    0.82
   3   5   8    1.09    0.55
   8  -6  -8    4.12    1.16
   8  -6  -8    2.58    0.93
  -8   6   8    3.35    0.67
   7  -6  -8    1.21    0.75
   7  -6  -8    0.41    0.69
   7  -6  -8    0.71    1.07
  -7   6   8   -0.69    0.49
   6  -6  -8    1.83    0.67
   6  -6  -8    1.22    0.61
   6  -6  -8   -0.68    1.00
  -6   6   8    1.26    0.47
   5  -6  -8   14.17    0.86
   5  -6  -8   14.60    1.39
   5  -6  -8   14.93    0.89
  -5   6   8   14.31    0.70
   4  -6  -8   16.71    0.84
   4  -6  -8   16.87    0.79
   4  -6  -8   16.32    1.49
  -4   6   8   17.54    0.68
   3  -6  -8   17.11    0.78
   3  -6  -8   20.10    1.55
   3  -6  -8   16.22    0.65
  -3   6   8   18.18    0.62
   2  -6  -8   31.71    1.87
   1  -6  -8   14.33    0.62
   1  -6  -8   13.25    0.70
  -1   6   8   14.13    0.57
   0  -6  -8    1.12    0.46
   0  -6  -8    1.25    0.47
   0   6   8    1.76    0.35
  -1  -6  -8   16.43    0.95
  -1  -6  -8   15.80    0.91
   1   6   8   17.90    0.83
  -2  -6  -8   14.83    1.09
  -2  -6  -8   16.43    1.07
   2   6   8   14.87    0.88
   8  -7  -8    6.75    1.29
   8  -7  -8    7.44    1.02
  -8   7   8    6.43    0.76
   7  -7  -8    0.23    1.10
   7  -7  -8    2.83    0.78
   7  -7  -8    2.66    0.78
  -7   7   8    2.07    0.56
   6  -7  -8    1.65    0.62
   6  -7  -8    1.37    1.03
   6  -7  -8    2.51    0.65
  -6   7   8    1.64    0.48
   5  -7  -8    4.09    0.59
   5  -7  -8    5.77    0.61
   5  -7  -8    6.40    1.26
  -5   7   8    5.66    0.48
   4  -7  -8   18.12    1.55
   4  -7  -8   18.30    0.81
   4  -7  -8   19.91    0.84
  -4   7   8   20.56    0.73
   3  -7  -8   17.55    1.53
   2  -7  -8   -1.18    0.95
   0  -7  -8    5.62    0.57
   0  -7  -8    6.21    0.55
  -1  -7  -8   19.06    1.07
  -1  -7  -8   18.08    0.97
  -2  -7  -8    3.30    0.73
   7  -8  -8    7.84    0.87
   7  -8  -8    7.74    1.45
   7  -8  -8    6.22    0.90
  -7   8   8    9.36    0.74
   6  -8  -8    8.70    0.81
   6  -8  -8    7.20    0.78
   6  -8  -8    7.08    1.32
  -6   8   8    7.89    0.64
   5  -8  -8    8.38    0.69
   5  -8  -8    8.15    1.36
   5  -8  -8    7.56    0.67
   4  -8  -8   12.39    0.70
   4  -8  -8   13.81    1.46
   4  -8  -8   12.19    0.69
   3  -8  -8    5.91    1.24
   0  -8  -8    5.68    0.55
   0  -8  -8    5.46    0.60
   6  -9  -8    0.26    0.65
   6  -9  -8   -1.25    0.64
   6  -9  -8    0.57    1.22
   5  -9  -8   -0.06    0.55
   5  -9  -8    0.26    1.18
   5  -9  -8    0.12    0.55
   4  -9  -8    4.68    0.52
   4  -9  -8    4.17    0.48
   4  -9  -8    4.80    1.34
   3  -9  -8   15.30    1.68
   0  13  -9    1.38    0.84
   0  13  -9    1.22    0.79
   3  12  -9   14.66    1.24
   3  12  -9   12.95    1.25
   3  12  -9   11.55    1.10
   2  12  -9    1.28    0.87
   2  12  -9    0.77    0.85
   2  12  -9    0.71    0.81
  -2 -12   9    0.55    0.91
   1  12  -9   10.30    1.12
   1  12  -9    7.82    0.92
  -1 -12   9    6.80    1.13
   0  12  -9   13.39    1.09
   0  12  -9   13.13    1.19
   0 -12   9   15.85    1.34
  -1  12  -9   12.22    1.14
  -1  12  -9    9.63    1.00
   1 -12   9   12.71    1.31
  -2  12  -9   12.81    1.16
  -2  12  -9   13.65    1.10
   2 -12   9   13.11    1.29
  -3  12  -9    8.83    1.02
  -3  12  -9    8.83    1.15
   3 -12   9    9.10    1.30
   4  11  -9    0.79    0.85
  -4 -11   9    1.51    0.99
   3  11  -9    4.88    0.97
   3  11  -9    1.79    0.84
   3  11  -9    3.29    0.82
  -3 -11   9    5.41    1.06
   2  11  -9    2.15    0.87
   2  11  -9    2.57    0.81
   2  11  -9    1.43    0.77
  -2 -11   9    1.94    0.91
   1  11  -9   14.48    1.08
   1  11  -9   16.79    1.20
  -1 -11   9   14.88    1.29
   0  11  -9    7.56    0.94
   0  11  -9    6.25    0.87
   0 -11   9    5.83    0.99
  -1  11  -9   -0.16    0.71
  -1  11  -9    1.69    0.70
   1 -11   9    1.48    0.93
  -2  11  -9   11.58    1.09
  -2  11  -9   11.16    0.98
   2 -11   9   11.43    1.25
  -3  11  -9   -0.11    0.75
  -3  11  -9    0.84    0.82
   3 -11   9    0.35    1.01
  -4  11  -9    4.79    0.93
  -4  11  -9    5.66    1.01
   4 -11   9    6.50    1.16
   5  10  -9    0.58    0.82
  -5 -10   9    1.29    0.89
   4  10  -9   18.76    1.33
  -4 -10   9   21.78    1.53
   3  10  -9   11.44    1.00
   3  10  -9   11.02    1.06
   3  10  -9   11.88    1.13
  -3 -10   9   13.25    1.23
   2  10  -9   21.72    1.37
   2  10  -9   21.08    1.29
   2  10  -9   21.84    1.22
  -2 -10   9   22.29    1.51
   1  10  -9   44.76    1.72
   1  10  -9   43.98    1.84
  -1 -10   9   47.27    1.90
   0  10  -9   -0.53    0.65
   0  10  -9    0.26    0.73
   0 -10   9    0.00    0.84
  -1  10  -9    8.61    0.95
  -1  10  -9    8.90    0.91
   1 -10   9    9.21    1.14
  -2  10  -9   18.32    1.23
  -2  10  -9   16.85    1.14
   2 -10   9   15.62    1.33
  -3  10  -9   17.63    1.29
  -3  10  -9   14.48    1.08
   3 -10   9   15.14    1.33
  -4  10  -9    8.56    0.96
  -4  10  -9    7.48    1.08
   4 -10   9   10.24    1.27
   6   9  -9    1.92    0.92
  -6  -9   9    1.55    0.89
   5   9  -9   23.91    1.40
  -5  -9   9   21.25    1.53
   4   9  -9   11.47    1.10
  -4  -9   9   13.79    1.20
   3   9  -9    0.58    0.75
   3   9  -9    0.97    0.71
  -3  -9   9    0.18    0.75
   2   9  -9    4.80    0.83
   2   9  -9    2.46    0.68
   2   9  -9    2.91    0.75
  -2  -9   9    2.42    0.82
   1   9  -9    0.59    0.71
   1   9  -9    0.63    0.60
  -1  -9   9    0.71    0.79
   0   9  -9    0.65    0.60
   0   9  -9    1.90    0.74
   0  -9   9    1.61    0.82
  -1   9  -9   17.31    1.15
  -1   9  -9   16.98    1.13
   1  -9   9   16.53    1.30
  -2   9  -9   36.51    1.48
  -2   9  -9   32.07    1.54
   2  -9   9   34.63    1.78
  -3   9  -9    6.69    0.91
  -3   9  -9    8.33    0.97
   3  -9   9    7.25    1.13
  -4   9  -9    6.38    1.00
  -4   9  -9    6.93    0.95
   4  -9   9    6.28    1.05
  -5   9  -9    2.15    0.97
  -5   9  -9    2.48    0.82
   5  -9   9    3.11    1.11
   7   8  -9    3.61    0.99
  -7  -8   9    4.54    1.07
   6   8  -9    8.43    1.04
  -6  -8   9    7.07    1.07
   5   8  -9   27.95    1.53
  -5  -8   9   28.21    1.47
   4   8  -9    5.37    0.86
  -4  -8   9    4.43    0.85
   3   8  -9    0.76    0.65
   3   8  -9    1.66    0.63
  -3  -8   9   -0.07    0.66
   2   8  -9   40.79    1.61
   2   8  -9   39.53    1.65
   2   8  -9   38.81    1.53
  -2  -8   9   40.73    1.77
   1   8  -9   40.42    1.51
   1   8  -9   39.78    1.58
  -1  -8   9   40.09    1.70
   0   8  -9   40.15    1.56
   0   8  -9   35.37    1.44
   0  -8   9   37.58    1.71
  -1   8  -9   62.93    2.17
  -1   8  -9   59.83    2.01
   1  -8   9   68.39    2.35
  -2   8  -9    0.87    0.62
  -2   8  -9    1.69    0.71
   2  -8   9    1.09    0.85
  -3   8  -9   14.10    1.12
  -3   8  -9   12.45    1.00
   3  -8   9   12.71    1.18
  -4   8  -9    1.32    0.76
  -4   8  -9    1.09    0.82
   4  -8   9    1.46    0.86
  -5   8  -9    1.32    0.77
  -5   8  -9    3.50    0.96
   5  -8   9    2.57    0.98
   7   7  -9   -0.57    0.80
  -7  -7   9    0.79    0.81
   6   7  -9   -0.62    0.74
  -6  -7   9   -0.11    0.74
   5   7  -9    5.33    0.87
  -5  -7   9    3.38    0.79
   4   7  -9   -0.36    0.68
  -4  -7   9   -0.11    0.67
   3   7  -9   22.70    1.21
   3   7  -9   21.85    1.19
   3   7  -9   20.30    1.13
  -3  -7   9   19.53    1.22
   2   7  -9   75.38    2.35
   2   7  -9   72.76    2.24
  -2  -7   9   78.18    2.51
   1   7  -9    4.97    0.75
   1   7  -9    4.41    0.67
  -1  -7   9    4.61    0.79
   0   7  -9    3.72    0.71
   0   7  -9    2.88    0.64
   0  -7   9    3.45    0.74
  -1   7  -9    8.08    0.80
  -1   7  -9    8.01    0.86
   1  -7   9    8.62    0.94
  -2   7  -9    0.33    0.67
  -2   7  -9   -0.82    0.54
   2  -7   9    1.32    0.76
  -3   7  -9    4.88    0.77
  -3   7  -9    5.58    0.86
   3  -7   9    4.39    0.89
  -4   7  -9   22.18    1.33
  -4   7  -9   20.65    1.35
   4  -7   9   20.97    1.49
  -5   7  -9   10.06    1.08
  -5   7  -9   10.61    1.10
   5  -7   9   11.28    1.24
   8   6  -9    1.84    0.85
  -8  -6   9    2.91    0.89
   7   6  -9    4.46    0.90
  -7  -6   9    4.56    0.87
   6   6  -9   27.06    1.47
  -6  -6   9   27.13    1.40
   5   6  -9   32.38    1.45
  -5  -6   9   32.98    1.47
   4   6  -9   28.59    1.42
  -4  -6   9   30.03    1.37
   3   6  -9  115.53    3.18
   3   6  -9  107.35    3.01
   3   6  -9  113.20    3.20
  -3  -6   9  111.66    3.23
   2   6  -9    8.04    1.11
   2   6  -9    7.03    0.74
   2   6  -9    8.14    0.82
  -2  -6   9    6.82    0.80
   1   6  -9    7.04    0.74
   1   6  -9    9.79    1.14
   1   6  -9    7.35    0.79
  -1  -6   9    9.66    0.89
   0   6  -9   38.85    1.43
   0   6  -9   36.79    1.44
   0   6  -9   36.15    1.79
   0  -6   9   37.04    1.56
  -1   6  -9   28.44    1.25
  -1   6  -9   29.66    1.35
   1  -6   9   28.37    1.40
  -2   6  -9    4.80    0.75
  -2   6  -9    3.10    0.66
   2  -6   9    4.11    0.80
  -3   6  -9   23.96    1.23
  -3   6  -9   25.20    1.26
   3  -6   9   24.92    1.47
  -4   6  -9    9.29    0.91
  -4   6  -9    8.98    0.96
   4  -6   9    6.93    1.01
  -5   6  -9    0.36    0.78
  -5   6  -9    0.05    0.81
   5  -6   9    0.18    0.89
   8   5  -9    1.05    0.84
  -8  -5   9   -0.23    0.74
   7   5  -9    6.62    0.90
  -7  -5   9    7.43    0.91
   6   5  -9   47.56    1.84
  -6  -5   9   46.56    1.77
   5   5  -9    6.15    0.78
  -5  -5   9    7.06    0.83
   4   5  -9    2.88    0.70
   4   5  -9    0.59    0.94
  -4  -5   9    3.07    0.67
   3   5  -9    0.18    0.59
   3   5  -9    0.12    0.37
   3   5  -9   -0.02    0.58
   3   5  -9    0.04    0.52
   3   5  -9    0.39    0.85
  -3  -5   9    1.08    0.54
   2   5  -9    0.10    0.52
   2   5  -9    0.68    0.75
   2   5  -9   -1.31    0.84
   2   5  -9   -0.77    0.55
  -2  -5   9    0.37    0.53
   1   5  -9    6.27    1.06
   1   5  -9    2.79    0.61
   1   5  -9    4.24    0.82
   1   5  -9    4.43    0.68
  -1  -5   9    3.83    0.69
   0   5  -9   60.52    2.21
   0   5  -9   65.29    2.35
   0   5  -9   58.13    1.93
   0   5  -9   55.48    1.85
   0  -5   9   61.48    2.09
  -1   5  -9   12.20    0.88
  -1   5  -9   14.46    1.18
  -1   5  -9   11.30    0.86
   1  -5   9   12.90    0.99
  -2   5  -9   30.56    1.31
  -2   5  -9   35.93    1.91
  -2   5  -9   30.88    1.35
   2  -5   9   28.58    1.50
  -3   5  -9   41.30    1.59
  -3   5  -9   39.30    1.52
   3  -5   9   40.26    1.76
  -4   5  -9   -0.12    0.66
  -4   5  -9   -0.07    0.69
   4  -5   9   -0.53    0.68
  -5   5  -9   14.55    1.16
  -5   5  -9   14.09    1.10
   5  -5   9   12.66    1.18
   8   4  -9    7.09    0.93
  -8  -4   9    6.51    0.91
   7   4  -9   33.08    1.48
  -7  -4   9   31.66    1.46
   6   4  -9   18.76    1.21
  -6  -4   9   16.21    1.05
   5   4  -9    3.62    0.94
   5   4  -9    3.99    0.67
  -5  -4   9    3.95    0.64
   4   4  -9   48.71    2.07
   4   4  -9   48.24    1.66
   4   4  -9   48.82    1.74
  -4  -4   9   49.51    1.73
   3   4  -9   93.14    2.61
   3   4  -9   91.53    2.66
   3   4  -9   95.00    3.02
   3   4  -9   94.17    2.78
   3   4  -9   88.98    2.55
   3   4  -9   92.75    2.64
  -3  -4   9   90.70    2.69
   2   4  -9    4.00    0.77
   2   4  -9    4.35    0.98
   2   4  -9    3.92    0.64
   2   4  -9    5.17    0.66
   2   4  -9    5.41    0.47
  -2  -4   9    3.42    0.63
   1   4  -9   76.08    2.62
   1   4  -9   73.48    2.49
   1   4  -9   77.18    2.19
   1   4  -9   70.96    2.19
  -1  -4   9   74.99    2.32
   0   4  -9   42.15    1.50
   0   4  -9   41.07    1.50
   0   4  -9   41.44    1.98
   0   4  -9   45.13    1.84
   0  -4   9   42.65    1.61
  -1   4  -9   -0.32    0.52
  -1   4  -9   -0.33    0.86
  -1   4  -9    0.54    0.77
  -1   4  -9    0.59    0.54
   1  -4   9    0.13    0.60
  -2   4  -9    3.49    0.62
  -2   4  -9    3.32    0.63
  -2   4  -9    2.22    0.96
   2  -4   9    2.37    0.75
  -3   4  -9   23.29    1.18
  -3   4  -9   21.98    1.23
   3  -4   9   23.27    1.26
  -4   4  -9   12.19    0.96
  -4   4  -9    8.35    0.89
   4  -4   9    8.73    1.00
  -5   4  -9    8.71    0.95
   5  -4   9    8.82    1.03
   9   3  -9    8.16    1.08
  -9  -3   9    6.94    1.03
   8   3  -9    2.96    0.84
  -8  -3   9    2.27    0.79
   7   3  -9    8.13    0.87
  -7  -3   9    6.91    0.83
   6   3  -9    2.33    0.69
  -6  -3   9    2.30    0.64
   5   3  -9    0.16    0.59
   5   3  -9    1.60    0.91
  -5  -3   9    1.33    0.56
   4   3  -9   62.81    2.08
   4   3  -9   65.14    2.05
   4   3  -9   61.09    1.97
   4   3  -9   59.25    1.90
   4   3  -9   60.76    2.21
  -4  -3   9   59.52    1.94
   3   3  -9   14.64    0.93
   3   3  -9   13.83    1.23
   3   3  -9   15.36    0.94
   3   3  -9   15.86    0.96
   3   3  -9   17.07    1.17
  -3  -3   9   14.06    0.87
   2   3  -9   12.13    0.87
   2   3  -9   11.43    0.78
   2   3  -9   11.23    0.81
   2   3  -9   11.72    0.97
   2   3  -9   11.97    1.20
  -2  -3   9   10.14    0.81
   1   3  -9   46.66    1.88
   1   3  -9   45.95    1.78
   1   3  -9   43.67    1.55
   1   3  -9   49.27    1.58
  -1  -3   9   47.84    1.70
   0   3  -9    5.11    0.66
   0   3  -9    6.08    0.99
   0   3  -9    7.12    0.64
   0   3  -9    6.94    0.93
   0  -3   9    6.20    0.76
  -1   3  -9    4.39    0.64
  -1   3  -9    4.53    0.87
  -1   3  -9    3.71    0.57
  -1   3  -9    5.79    0.94
   1  -3   9    3.97    0.71
  -2   3  -9  108.93    2.90
  -2   3  -9  102.23    2.88
  -2   3  -9  118.43    3.36
  -2   3  -9  105.24    3.26
   2  -3   9  100.56    3.11
  -3   3  -9   44.77    1.66
  -3   3  -9   48.37    2.15
  -3   3  -9   44.93    1.56
   3  -3   9   44.63    1.80
  -4   3  -9    8.33    0.89
   4  -3   9    5.85    0.89
  -5   3  -9    7.41    0.97
   5  -3   9    7.69    1.03
  -9  -2   9   10.33    1.07
   8   2  -9    6.34    0.89
  -8  -2   9    6.11    0.81
   7   2  -9   40.67    1.62
  -7  -2   9   37.14    1.50
   6   2  -9   13.94    0.94
   6   2  -9   13.67    1.21
  -6  -2   9   12.25    0.87
   5   2  -9   50.15    1.82
   5   2  -9   51.81    1.94
   5   2  -9   53.38    1.78
  -5  -2   9   48.29    1.66
   4   2  -9   33.25    1.58
   4   2  -9   32.82    1.29
   4   2  -9   33.22    1.43
   4   2  -9   32.46    1.30
   4   2  -9   35.49    1.47
   4   2  -9   33.52    1.28
  -4  -2   9   31.60    1.23
   3   2  -9    9.77    1.08
   3   2  -9   11.78    0.79
   3   2  -9    8.65    0.85
   3   2  -9   10.99    0.83
   3   2  -9   11.67    0.76
  -3  -2   9   11.45    0.81
   2   2  -9    5.62    0.58
   2   2  -9    6.21    0.70
   2   2  -9    4.75    0.97
   2   2  -9    7.42    0.83
   2   2  -9    5.92    0.62
  -2  -2   9    5.47    0.60
   1   2  -9   83.07    2.21
   1   2  -9   80.62    2.30
   1   2  -9   78.57    2.64
   1   2  -9   82.14    2.54
  -1  -2   9   78.87    2.41
   0   2  -9   37.03    1.73
   0   2  -9   37.84    1.25
   0   2  -9   40.07    1.67
   0   2  -9   35.63    1.38
   0  -2   9   34.89    1.45
  -1   2  -9   62.92    2.19
  -1   2  -9   63.57    2.17
  -1   2  -9   61.20    1.77
  -1   2  -9   61.68    1.87
   1  -2   9   58.77    2.02
  -2   2  -9   44.14    1.84
  -2   2  -9   43.98    1.41
  -2   2  -9   45.72    1.93
  -2   2  -9   39.99    1.54
   2  -2   9   42.09    1.65
  -3   2  -9    3.66    0.70
  -3   2  -9    4.68    1.01
   3  -2   9    4.13    0.77
  -4   2  -9    1.31    0.71
   4  -2   9    1.08    0.72
  -5   2  -9    0.06    0.73
   5  -2   9    1.23    0.76
  -9  -1   9    0.59    0.75
  -8  -1   9   20.65    1.14
   7   1  -9   10.54    0.92
  -7  -1   9    9.91    0.86
   6   1  -9    4.98    0.95
   6   1  -9    5.25    0.68
  -6  -1   9    5.22    0.67
   5   1  -9    0.30    0.69
   5   1  -9   -0.04    0.79
   5   1  -9    0.36    0.51
   5   1  -9   -0.15    0.59
   5   1  -9    1.18    0.59
  -5  -1   9    0.60    0.48
   4   1  -9    6.84    0.62
   4   1  -9    4.89    0.91
   4   1  -9    5.96    0.76
   4   1  -9    6.36    0.71
   4   1  -9    6.34    0.72
  -4  -1   9    6.11    0.61
   3   1  -9    5.96    0.70
   3   1  -9    5.24    0.54
   3   1  -9    6.43    0.73
   3   1  -9    5.91    0.71
   3   1  -9    4.93    0.97
  -3  -1   9    5.57    0.58
   2   1  -9  126.52    3.65
   2   1  -9  130.60    3.50
   2   1  -9  130.20    3.22
   2   1  -9  130.40    3.68
   2   1  -9  125.47    3.28
  -2  -1   9  127.23    3.40
   1   1  -9  135.01    3.33
   1   1  -9  134.99    3.80
   1   1  -9  137.37    3.71
   1   1  -9  135.44    3.42
  -1  -1   9  131.20    3.60
   0   1  -9   35.00    1.62
   0   1  -9   35.56    1.29
   0   1  -9   37.05    1.59
   0   1  -9   35.73    1.08
   0  -1   9   33.13    1.37
  -1   1  -9   13.06    1.07
  -1   1  -9   14.54    0.94
  -1   1  -9   14.18    1.05
   1  -1   9   13.58    0.96
  -2   1  -9   -0.27    0.74
  -2   1  -9   -0.45    0.54
  -2   1  -9   -0.23    0.79
   2  -1   9    0.14    0.56
  -3   1  -9    0.25    0.62
  -3   1  -9   -0.60    0.87
   3  -1   9    0.21    0.59
  -4   1  -9   10.21    1.21
  -4   1  -9    7.77    0.88
   4  -1   9    8.78    0.94
  -5   1  -9   16.82    1.20
   5  -1   9   17.05    1.24
  -9   0   9   10.58    0.98
  -8   0   9    3.14    0.69
   7   0  -9   18.78    1.29
  -7   0   9   15.21    1.00
   6   0  -9    0.32    0.80
   6   0  -9    1.73    0.67
  -6   0   9    1.28    0.51
   5   0  -9   61.85    1.89
   5   0  -9   65.61    2.35
   5   0  -9   64.68    2.18
   5   0  -9   65.30    1.89
   5   0  -9   62.57    1.93
   5   0  -9   60.98    2.00
  -5   0   9   62.46    1.90
   4   0  -9   32.87    1.12
   4   0  -9   33.38    1.34
   4   0  -9   36.17    1.39
   4   0  -9   36.18    1.66
   4   0  -9   35.24    1.58
  -4   0   9   33.80    1.25
   3   0  -9  101.78    2.75
   3   0  -9  104.63    3.07
   3   0  -9  107.50    3.19
   3   0  -9  108.42    2.92
  -3   0   9  104.11    2.81
   2   0  -9   94.35    2.36
   2   0  -9  100.24    2.94
   2   0  -9  101.26    3.04
   2   0  -9   99.33    2.79
   2   0  -9   99.48    2.59
  -2   0   9  101.92    2.70
  -2   0   9   99.57    2.71
   1   0  -9   -1.65    0.72
   1   0  -9    0.44    0.46
   1   0  -9    1.65    0.70
  -1   0   9    0.52    0.41
  -1   0   9    0.35    0.49
   0   0  -9   13.80    0.97
   0   0  -9   17.13    1.19
   0   0  -9   14.42    0.90
   0   0   9   13.14    0.93
  -1   0  -9   12.85    1.02
  -1   0  -9   12.40    1.02
  -1   0  -9   13.44    0.83
   1   0   9   13.80    0.92
  -2   0  -9    1.35    0.83
  -2   0  -9    2.21    0.77
  -2   0  -9    0.53    0.58
   2   0   9    1.42    0.61
  -3   0  -9    3.43    0.92
  -3   0  -9    5.01    0.72
   3   0   9    2.33    0.67
  -4   0  -9   21.53    1.57
  -4   0  -9   21.49    1.22
  -4   0  -9   25.11    1.76
   4   0   9   22.33    1.27
   5   0   9    4.73    0.88
  -9   1   9    0.61    0.71
  -8   1   9   -0.12    0.60
   7  -1  -9    2.26    0.89
  -7   1   9    3.44    0.64
   6  -1  -9   28.12    1.75
   6  -1  -9   29.59    1.34
   6  -1  -9   30.16    1.50
   6  -1  -9   29.75    1.28
  -6   1   9   28.64    1.17
   5  -1  -9   62.08    1.90
   5  -1  -9   57.58    2.23
   5  -1  -9   65.37    2.11
   5  -1  -9   56.67    1.79
  -5   1   9   57.18    1.77
   4  -1  -9   40.21    1.44
   4  -1  -9   40.60    1.70
   4  -1  -9   39.00    1.35
   4  -1  -9   40.12    1.67
  -4   1   9   42.75    1.35
   3  -1  -9    8.06    0.68
   3  -1  -9    8.78    0.90
   3  -1  -9    8.07    0.67
   3  -1  -9    8.90    0.95
  -3   1   9    8.49    0.60
   2  -1  -9    3.13    0.74
   2  -1  -9    2.16    0.77
   2  -1  -9    1.63    0.49
   2  -1  -9    2.35    0.59
  -2   1   9    2.12    0.46
  -2   1   9    1.98    0.45
   1  -1  -9    4.75    0.75
   1  -1  -9    7.73    0.78
   1  -1  -9    6.59    0.61
  -1   1   9    6.83    0.65
   0  -1  -9   33.66    1.41
   0  -1  -9   31.91    1.46
   0  -1  -9   31.62    1.19
   0   1   9   30.59    1.25
  -1  -1  -9   52.23    1.85
  -1  -1  -9   53.41    1.88
  -1  -1  -9   51.27    1.65
   1   1   9   48.56    1.70
  -2  -1  -9   11.99    1.03
  -2  -1  -9   12.55    1.06
  -2  -1  -9   12.72    0.90
   2   1   9   12.40    0.87
  -3  -1  -9   34.96    1.78
  -3  -1  -9   29.25    1.32
  -3  -1  -9   30.57    1.62
  -3  -1  -9   33.33    1.59
   3   1   9   29.27    1.33
  -4  -1  -9   10.06    1.24
  -4  -1  -9   10.20    1.25
   4   1   9    8.23    0.91
  -9   2   9    8.06    0.90
   8  -2  -9   13.25    1.23
  -8   2   9   13.86    1.00
   7  -2  -9   29.62    1.29
   7  -2  -9   29.80    1.94
   7  -2  -9   31.42    1.55
  -7   2   9   30.85    1.26
   6  -2  -9   38.70    1.45
   6  -2  -9   43.03    2.07
   6  -2  -9   44.15    1.74
   6  -2  -9   40.76    1.56
  -6   2   9   41.05    1.41
   5  -2  -9   12.18    0.96
   5  -2  -9   12.77    0.84
   5  -2  -9   11.03    1.14
   5  -2  -9   11.77    0.80
  -5   2   9   11.35    0.76
   4  -2  -9    0.53    0.49
   4  -2  -9    0.82    0.69
   4  -2  -9    1.17    0.77
   4  -2  -9    0.90    0.46
  -4   2   9    1.22    0.41
   3  -2  -9   73.58    1.97
   3  -2  -9   72.40    2.26
   3  -2  -9   75.82    2.61
   3  -2  -9   72.13    2.07
  -3   2   9   71.75    2.00
   2  -2  -9   26.52    1.31
   2  -2  -9   29.47    1.07
   2  -2  -9   28.24    1.15
   2  -2  -9   25.90    1.47
  -2   2   9   28.30    1.05
   1  -2  -9    5.63    0.71
   1  -2  -9    5.43    0.71
   1  -2  -9    5.13    0.55
  -1   2   9    4.63    0.59
   0  -2  -9   29.17    1.35
   0  -2  -9   30.03    1.33
   0  -2  -9   30.51    1.15
   0   2   9   29.58    1.18
  -1  -2  -9   13.74    1.00
  -1  -2  -9   13.37    0.95
  -1  -2  -9   12.65    0.94
  -1  -2  -9   13.86    0.90
   1   2   9   15.40    0.88
  -2  -2  -9   11.71    0.88
  -2  -2  -9   11.00    0.97
  -2  -2  -9   11.94    1.03
  -2  -2  -9   11.04    1.00
   2   2   9   11.25    0.82
  -3  -2  -9    0.18    0.81
  -3  -2  -9    0.25    0.84
  -3  -2  -9   -0.23    0.74
   3   2   9   -0.43    0.55
  -4  -2  -9    4.01    1.08
  -4  -2  -9    2.40    1.00
   4   2   9    2.61    0.75
   9  -3  -9    4.59    1.21
  -9   3   9    7.25    0.87
   8  -3  -9   26.96    1.54
   8  -3  -9   22.06    1.75
  -8   3   9   22.71    1.18
   7  -3  -9    5.20    0.92
   7  -3  -9    3.82    0.76
   7  -3  -9    3.36    1.10
  -7   3   9    3.65    0.60
   6  -3  -9    4.49    0.71
   6  -3  -9    5.32    0.81
   6  -3  -9    4.15    1.09
  -6   3   9    3.40    0.55
   5  -3  -9    0.74    0.44
   5  -3  -9    0.15    0.53
   5  -3  -9   -0.27    0.77
   5  -3  -9    0.50    0.67
  -5   3   9   -0.27    0.39
   4  -3  -9   22.89    1.02
   4  -3  -9   23.20    1.63
   4  -3  -9   24.24    1.22
   4  -3  -9   25.04    0.93
  -4   3   9   25.17    0.94
   3  -3  -9   44.35    2.02
   3  -3  -9   43.66    1.63
   3  -3  -9   42.51    1.38
   3  -3  -9   45.91    1.31
  -3   3   9   44.39    1.34
   2  -3  -9    7.96    0.75
   2  -3  -9    8.10    0.58
   2  -3  -9   10.92    1.15
   2  -3  -9    7.89    0.64
  -2   3   9    8.38    0.59
   1  -3  -9   40.38    1.42
   1  -3  -9   38.46    1.43
   1  -3  -9   39.55    1.31
  -1   3   9   39.10    1.32
   0  -3  -9   24.54    1.19
   0  -3  -9   26.37    1.24
   0  -3  -9   25.47    1.05
   0   3   9   24.92    1.04
  -1  -3  -9    6.20    0.79
  -1  -3  -9    5.94    0.77
  -1  -3  -9    5.60    0.78
  -1  -3  -9    6.04    0.69
   1   3   9    6.94    0.65
  -2  -3  -9    8.81    0.90
  -2  -3  -9    8.73    0.91
   2   3   9    8.92    0.74
  -3  -3  -9   38.77    1.71
  -3  -3  -9   36.57    1.72
   3   3   9   37.23    1.48
   9  -4  -9    6.42    1.33
  -9   4   9    7.88    0.88
   8  -4  -9    5.50    1.04
   8  -4  -9    4.28    1.13
  -8   4   9    4.55    0.73
   7  -4  -9   19.31    1.61
   7  -4  -9   22.63    1.36
   7  -4  -9   24.50    1.31
  -7   4   9   22.85    1.10
   6  -4  -9   32.92    1.91
   6  -4  -9   35.07    1.38
   6  -4  -9   34.86    1.48
  -6   4   9   34.33    1.24
   5  -4  -9   14.61    0.91
   5  -4  -9   16.13    1.42
   5  -4  -9   14.92    1.04
  -5   4   9   14.28    0.75
   4  -4  -9   14.64    0.82
   4  -4  -9   14.23    1.25
   4  -4  -9   15.81    1.01
  -4   4   9   14.54    0.72
   3  -4  -9   17.37    0.83
   3  -4  -9   17.36    1.06
   3  -4  -9   16.29    1.32
   3  -4  -9   17.89    0.75
  -3   4   9   19.18    0.77
   2  -4  -9   17.21    0.86
   2  -4  -9   19.93    1.07
   2  -4  -9   19.74    0.86
   2  -4  -9   17.59    1.39
  -2   4   9   20.11    0.84
   1  -4  -9    0.75    0.49
   1  -4  -9    0.89    0.54
   1  -4  -9    0.77    0.61
  -1   4   9    0.66    0.43
   0  -4  -9   12.74    0.88
   0  -4  -9   12.37    0.83
   0  -4  -9   12.51    0.85
   0  -4  -9   14.74    0.96
   0   4   9   11.72    0.73
  -1  -4  -9    7.35    0.77
  -1  -4  -9    8.14    0.79
   1   4   9    8.20    0.65
  -2  -4  -9   23.25    1.28
  -2  -4  -9   23.62    1.33
   2   4   9   23.01    1.10
  -3  -4  -9    3.02    0.87
  -3  -4  -9    3.60    0.94
   3   4   9    4.08    0.67
   8  -5  -9    4.46    0.94
   8  -5  -9    4.19    1.26
  -8   5   9    5.16    0.71
   7  -5  -9    7.34    1.33
   7  -5  -9    8.16    0.88
   7  -5  -9    9.43    0.95
  -7   5   9    8.73    0.74
   6  -5  -9   10.56    0.82
   6  -5  -9    9.26    1.34
   6  -5  -9   11.59    0.90
  -6   5   9   10.80    0.72
   5  -5  -9   13.68    1.43
   5  -5  -9   15.08    0.95
   5  -5  -9   13.16    0.85
  -5   5   9   13.05    0.73
   4  -5  -9    3.95    0.52
   4  -5  -9    4.46    1.06
   4  -5  -9    4.09    0.62
  -4   5   9    4.22    0.44
   3  -5  -9   16.74    0.98
   3  -5  -9   18.16    1.46
   3  -5  -9   17.14    0.77
  -3   5   9   17.96    0.74
   2  -5  -9    2.15    1.00
   2  -5  -9    1.38    0.45
   2  -5  -9    0.83    0.52
  -2   5   9    1.28    0.41
   1  -5  -9   58.89    1.84
   1  -5  -9   60.45    1.78
  -1   5   9   64.44    1.72
   0  -5  -9   33.00    1.24
   0  -5  -9   32.46    1.22
   0   5   9   33.33    1.11
  -1  -5  -9   11.43    0.83
  -1  -5  -9   10.00    0.86
   1   5   9   10.52    0.76
  -2  -5  -9    1.99    0.82
  -2  -5  -9    2.25    0.75
   2   5   9    1.89    0.56
   8  -6  -9    4.49    0.95
   8  -6  -9    3.52    1.22
  -8   6   9    4.57    0.71
   7  -6  -9    2.03    0.75
   7  -6  -9    2.61    1.13
   7  -6  -9    2.63    0.81
  -7   6   9    2.38    0.57
   6  -6  -9   11.58    0.89
   6  -6  -9   11.98    1.42
   6  -6  -9   12.06    0.86
  -6   6   9   11.98    0.79
   5  -6  -9   -0.14    0.56
   5  -6  -9   -0.16    0.50
   5  -6  -9   -0.77    1.04
  -5   6   9    0.17    0.39
   4  -6  -9    7.64    0.63
   4  -6  -9    6.84    0.56
   4  -6  -9    7.33    1.28
  -4   6   9    7.19    0.49
   3  -6  -9   13.35    0.64
   3  -6  -9   14.07    1.50
   3  -6  -9   13.05    0.84
   2  -6  -9   36.62    1.18
   2  -6  -9   43.30    2.31
   2  -6  -9   38.12    1.22
   1  -6  -9   13.53    0.80
   1  -6  -9   16.45    0.83
   1  -6  -9   13.51    0.77
   0  -6  -9    1.89    0.58
   0  -6  -9    1.88    0.54
  -1  -6  -9    0.90    0.64
  -1  -6  -9    0.27    0.67
   7  -7  -9    4.44    1.33
   7  -7  -9    3.57    0.81
   7  -7  -9    2.95    0.83
  -7   7   9    3.34    0.63
   6  -7  -9    0.17    0.66
   6  -7  -9    0.70    1.11
   6  -7  -9    0.41    0.64
  -6   7   9    0.51    0.48
   5  -7  -9   15.43    0.88
   5  -7  -9   15.05    1.57
   5  -7  -9   14.32    0.89
   4  -7  -9   26.15    1.00
   4  -7  -9   28.18    2.05
   4  -7  -9   27.11    0.98
   3  -7  -9   28.18    2.06
   1  -7  -9    0.32    0.43
   1  -7  -9    0.37    0.46
   0  -7  -9    0.61    0.50
   0  -7  -9   -0.78    0.55
   6  -8  -9   14.02    1.02
   6  -8  -9   12.93    1.60
   6  -8  -9   16.42    1.01
   5  -8  -9    9.35    0.72
   5  -8  -9    9.51    1.52
   5  -8  -9    8.63    0.70
   4  -8  -9    5.13    0.51
   4  -8  -9    4.66    0.49
   4  -8  -9    3.92    1.34
   3  -8  -9    2.48    1.21
   2  12 -10    0.47    0.78
   2  12 -10    0.46    0.89
  -2 -12  10   -0.07    0.95
   1  12 -10    1.58    0.78
   1  12 -10    0.23    0.86
  -1 -12  10    1.40    0.99
   0  12 -10    1.63    0.77
   0  12 -10    1.92    0.91
   0 -12  10    2.55    1.03
  -1  12 -10    6.13    0.94
  -1  12 -10    4.63    0.95
   1 -12  10    5.06    1.13
   4  11 -10    8.04    1.08
   4  11 -10    6.74    0.97
  -4 -11  10    6.97    1.21
   3  11 -10    1.65    0.81
   3  11 -10    2.03    0.91
   3  11 -10    2.71    0.89
  -3 -11  10    1.60    0.99
   2  11 -10   -0.56    0.71
   2  11 -10   -0.45    0.77
  -2 -11  10   -0.17    0.88
   1  11 -10    4.71    0.88
   1  11 -10    4.38    0.88
  -1 -11  10    5.55    1.00
   0  11 -10   15.33    1.24
   0  11 -10   16.41    1.17
   0 -11  10   15.89    1.37
  -1  11 -10    9.99    1.10
  -1  11 -10    9.70    0.99
   1 -11  10   11.72    1.23
  -2  11 -10   20.65    1.30
  -2  11 -10   25.47    1.56
   2 -11  10   22.75    1.56
  -3  11 -10    3.11    0.98
  -3  11 -10    3.10    0.85
   3 -11  10    3.47    1.07
   5  10 -10    0.96    0.93
  -5 -10  10    1.47    0.95
   4  10 -10    8.08    1.04
   4  10 -10    9.69    1.12
  -4 -10  10    8.73    1.14
   3  10 -10    7.15    0.97
   3  10 -10    7.60    0.96
   3  10 -10    8.69    1.05
  -3 -10  10    6.40    1.10
   2  10 -10    9.34    0.96
   2  10 -10   11.53    1.06
  -2 -10  10   12.13    1.21
   1  10 -10   33.50    1.64
   1  10 -10   32.71    1.48
  -1 -10  10   34.59    1.76
   0  10 -10    0.90    0.73
   0  10 -10    1.00    0.73
   0 -10  10    1.47    0.92
  -1  10 -10    2.17    0.73
  -1  10 -10    1.87    0.83
   1 -10  10    2.64    0.92
  -2  10 -10   -0.12    0.83
  -2  10 -10   -0.34    0.75
   2 -10  10    0.67    0.93
  -3  10 -10    2.69    0.82
  -3  10 -10    2.68    0.96
   3 -10  10    3.68    1.09
   6   9 -10    0.30    0.91
  -6  -9  10    0.82    0.98
   5   9 -10    4.07    0.97
  -5  -9  10    7.00    1.11
   4   9 -10   19.97    1.34
   4   9 -10   20.80    1.27
  -4  -9  10   20.93    1.52
   3   9 -10    5.01    0.85
   3   9 -10    4.69    0.88
   3   9 -10    4.34    0.90
  -3  -9  10    3.25    0.94
   2   9 -10   23.91    1.36
   2   9 -10   25.37    1.29
  -2  -9  10   27.79    1.60
   1   9 -10   17.54    1.21
   1   9 -10   19.34    1.30
  -1  -9  10   17.47    1.31
   0   9 -10    1.41    0.72
   0   9 -10    1.22    0.68
   0  -9  10    1.01    0.79
  -1   9 -10   15.02    1.11
  -1   9 -10   13.34    1.09
   1  -9  10   15.39    1.29
  -2   9 -10   22.63    1.40
  -2   9 -10   15.27    1.12
   2  -9  10   18.41    1.37
  -3   9 -10    8.77    1.06
  -3   9 -10    8.40    1.02
   3  -9  10    8.11    1.18
  -4   9 -10   14.39    1.28
  -4   9 -10   12.08    1.16
   4  -9  10   15.33    1.43
   6   8 -10    6.29    1.00
  -6  -8  10    6.87    1.03
   5   8 -10   47.60    2.00
  -5  -8  10   45.96    2.01
   4   8 -10    9.72    1.00
   4   8 -10    8.29    0.90
  -4  -8  10    8.19    1.07
   3   8 -10    2.28    0.79
   3   8 -10    0.56    0.69
   3   8 -10    0.41    0.70
  -3  -8  10    0.47    0.79
   2   8 -10    8.36    0.91
   2   8 -10    8.99    0.86
  -2  -8  10    7.37    1.01
   1   8 -10   17.16    1.22
   1   8 -10   16.93    1.16
  -1  -8  10   17.59    1.28
   0   8 -10    6.29    0.83
   0   8 -10    6.14    0.79
   0  -8  10    6.19    0.97
  -1   8 -10   22.01    1.27
  -1   8 -10   20.10    1.31
   1  -8  10   18.55    1.33
  -2   8 -10    2.93    0.78
  -2   8 -10    3.49    0.76
   2  -8  10    2.79    0.88
  -3   8 -10    0.62    0.76
  -3   8 -10   -0.58    0.70
   3  -8  10    0.53    0.89
  -4   8 -10    5.44    0.99
  -4   8 -10    6.47    1.02
   4  -8  10    4.68    1.03
   7   7 -10    1.32    0.90
  -7  -7  10   -0.11    0.83
   6   7 -10    7.88    1.03
  -6  -7  10    7.56    1.04
   5   7 -10    7.49    0.99
  -5  -7  10    8.28    1.02
   4   7 -10    4.43    0.86
   4   7 -10    3.16    0.72
  -4  -7  10    2.34    0.75
   3   7 -10    9.71    0.95
   3   7 -10    7.33    0.82
   3   7 -10    7.55    0.88
  -3  -7  10    8.20    0.92
   2   7 -10   57.01    1.92
   2   7 -10   60.14    2.01
  -2  -7  10   59.19    2.18
   1   7 -10   12.16    0.98
   1   7 -10   14.49    1.03
  -1  -7  10   14.45    1.15
   0   7 -10   27.80    1.33
   0   7 -10   27.84    1.29
   0  -7  10   30.13    1.54
  -1   7 -10   37.24    1.52
  -1   7 -10   34.82    1.55
   1  -7  10   31.01    1.58
  -2   7 -10    0.51    0.72
  -2   7 -10    0.36    0.64
   2  -7  10    0.63    0.77
  -3   7 -10    3.69    0.86
  -3   7 -10    4.26    0.84
   3  -7  10    6.07    0.97
  -4   7 -10   17.80    1.28
  -4   7 -10   15.36    1.20
   4  -7  10   16.04    1.32
   7   6 -10    2.55    0.89
  -7  -6  10    1.36    0.87
   6   6 -10    7.85    0.99
  -6  -6  10    6.85    0.92
   5   6 -10   26.61    1.39
  -5  -6  10   27.25    1.47
   4   6 -10    5.45    0.85
   4   6 -10    4.29    0.75
  -4  -6  10    5.46    0.79
   3   6 -10   56.70    1.97
   3   6 -10   53.53    1.86
   3   6 -10   55.25    1.91
  -3  -6  10   56.38    2.05
   2   6 -10   16.38    1.03
   2   6 -10   17.47    1.14
  -2  -6  10   17.40    1.14
   1   6 -10    1.54    0.60
   1   6 -10    1.94    0.66
  -1  -6  10    1.54    0.68
   0   6 -10    2.11    0.67
   0   6 -10    1.76    0.63
   0  -6  10    1.51    0.69
  -1   6 -10   -0.10    0.63
  -1   6 -10   -0.48    0.60
   1  -6  10    1.35    0.76
  -2   6 -10    1.33    0.68
  -2   6 -10    1.87    0.72
   2  -6  10    0.30    0.79
  -3   6 -10   22.03    1.31
  -3   6 -10   23.27    1.24
   3  -6  10   18.73    1.33
  -4   6 -10   18.44    1.27
  -4   6 -10   19.17    1.24
   4  -6  10   18.56    1.40
  -5   6 -10    0.61    0.88
   5  -6  10    0.69    0.98
   8   5 -10    2.25    0.96
  -8  -5  10    2.33    0.90
   7   5 -10    2.03    0.84
  -7  -5  10    0.06    0.72
   6   5 -10   38.57    1.65
  -6  -5  10   38.17    1.68
   5   5 -10    9.29    0.91
  -5  -5  10   10.56    0.96
   4   5 -10   11.71    0.75
   4   5 -10   11.92    0.92
   4   5 -10   12.93    0.94
   4   5 -10   13.36    0.99
  -4  -5  10   12.40    0.96
   3   5 -10   35.61    1.48
   3   5 -10   37.06    1.49
   3   5 -10   35.11    1.81
  -3  -5  10   34.76    1.49
   2   5 -10   11.04    1.24
   2   5 -10   10.86    0.88
   2   5 -10   10.46    0.86
  -2  -5  10   10.33    0.93
   1   5 -10   -0.01    0.57
   1   5 -10   -0.34    0.56
   1   5 -10    0.19    0.95
  -1  -5  10    0.80    0.62
   0   5 -10   49.68    2.15
   0   5 -10   44.65    1.70
   0   5 -10   48.02    1.71
   0  -5  10   47.53    1.84
  -1   5 -10   43.25    2.14
  -1   5 -10   40.29    1.57
  -1   5 -10   44.81    1.62
   1  -5  10   41.46    1.72
  -2   5 -10   37.94    1.53
  -2   5 -10   40.81    1.57
   2  -5  10   36.31    1.66
  -3   5 -10   41.27    1.64
  -3   5 -10   38.89    1.60
   3  -5  10   35.51    1.76
  -4   5 -10    0.49    0.74
   4  -5  10   -0.57    0.81
  -5   5 -10    6.19    1.01
   5  -5  10    6.72    1.11
   8   4 -10    5.45    0.99
  -8  -4  10    4.27    0.92
   7   4 -10   32.24    1.61
  -7  -4  10   31.83    1.49
   6   4 -10   22.49    1.35
  -6  -4  10   20.84    1.25
   5   4 -10    0.37    0.64
   5   4 -10    0.72    0.68
  -5  -4  10    1.66    0.62
   4   4 -10    3.22    0.70
   4   4 -10    5.63    1.07
   4   4 -10    3.82    0.69
   4   4 -10    4.55    0.76
   4   4 -10    4.41    0.62
  -4  -4  10    2.89    0.65
   3   4 -10   17.41    1.31
   3   4 -10   16.29    1.05
   3   4 -10   16.24    1.03
   3   4 -10   18.71    0.94
  -3  -4  10   18.48    1.04
   2   4 -10    0.20    0.62
   2   4 -10    0.52    0.70
   2   4 -10    0.32    0.55
   2   4 -10   -0.08    0.93
  -2  -4  10    0.52    0.60
   1   4 -10   33.64    1.35
   1   4 -10   35.75    1.84
   1   4 -10   32.25    1.66
   1   4 -10   33.70    1.34
  -1  -4  10   32.61    1.50
   0   4 -10   84.34    2.75
   0   4 -10   82.27    2.43
   0   4 -10   84.23    2.43
   0   4 -10   85.15    2.88
   0  -4  10   82.22    2.63
  -1   4 -10    5.92    1.07
  -1   4 -10    5.46    0.78
  -1   4 -10    4.72    0.66
   1  -4  10    5.24    0.83
  -2   4 -10    2.69    0.68
  -2   4 -10    2.02    1.06
  -2   4 -10    3.18    0.71
   2  -4  10    2.45    0.80
  -3   4 -10    0.17    0.65
   3  -4  10   -0.90    0.72
  -4   4 -10    0.26    0.77
   4  -4  10    1.12    0.79
  -5   4 -10    1.18    0.87
   5  -4  10    2.15    0.93
  -8  -3  10    5.60    0.90
   7   3 -10    2.24    0.78
  -7  -3  10    2.02    0.69
   6   3 -10    7.11    0.86
  -6  -3  10    5.29    0.73
   5   3 -10    2.80    0.68
   5   3 -10    3.21    0.74
   5   3 -10    2.23    1.00
   5   3 -10    2.05    0.72
  -5  -3  10    3.69    0.67
   4   3 -10   37.49    1.50
   4   3 -10   40.70    1.63
   4   3 -10   40.70    1.53
   4   3 -10   41.50    1.56
   4   3 -10   41.35    1.56
   4   3 -10   42.24    1.97
  -4  -3  10   37.76    1.52
   3   3 -10   43.63    1.61
   3   3 -10   44.60    1.54
   3   3 -10   43.93    1.56
   3   3 -10   42.57    1.75
   3   3 -10   41.09    2.00
  -3  -3  10   42.25    1.60
   2   3 -10   60.90    1.88
   2   3 -10   58.67    2.28
   2   3 -10   60.73    2.06
   2   3 -10   60.29    1.90
   2   3 -10   58.78    1.88
  -2  -3  10   55.85    1.98
   1   3 -10  102.51    2.79
   1   3 -10  100.00    3.09
   1   3 -10  102.66    2.81
   1   3 -10  103.01    3.11
  -1  -3  10  100.99    3.00
   0   3 -10    7.93    0.79
   0   3 -10    8.82    1.11
   0   3 -10    9.16    0.99
   0   3 -10    8.17    0.67
   0  -3  10    6.00    0.80
  -1   3 -10   11.16    1.15
  -1   3 -10    9.43    1.06
  -1   3 -10    6.61    0.77
  -1   3 -10    8.19    0.68
   1  -3  10    8.48    0.87
  -2   3 -10   30.10    1.81
  -2   3 -10   27.82    1.29
   2  -3  10   27.53    1.35
  -3   3 -10   12.79    1.02
   3  -3  10   12.55    1.11
  -4   3 -10    1.05    0.72
   4  -3  10    0.59    0.81
  -5   3 -10   10.79    1.08
   5  -3  10   10.20    1.12
  -8  -2  10   -0.15    0.70
  -7  -2  10   23.39    1.26
   6   2 -10    0.65    0.64
   6   2 -10    0.09    0.93
  -6  -2  10    0.61    0.59
   5   2 -10   32.92    1.40
   5   2 -10   32.31    1.37
   5   2 -10   32.05    1.53
   5   2 -10   32.62    1.77
   5   2 -10   32.12    1.42
  -5  -2  10   30.71    1.32
   4   2 -10   89.35    2.62
   4   2 -10   93.55    2.84
   4   2 -10   92.53    2.77
   4   2 -10   95.23    2.63
   4   2 -10   92.81    2.98
  -4  -2  10   91.03    2.67
   3   2 -10   18.38    1.20
   3   2 -10   18.69    0.97
   3   2 -10   20.20    1.14
   3   2 -10   21.03    1.16
   3   2 -10   20.31    1.36
  -3  -2  10   20.51    1.06
   2   2 -10    1.48    0.63
   2   2 -10    0.54    0.71
   2   2 -10    0.71    0.55
   2   2 -10    1.00    0.45
   2   2 -10    1.49    0.88
  -2  -2  10    0.76    0.55
   1   2 -10   12.74    1.07
   1   2 -10   12.77    1.13
   1   2 -10   15.35    0.77
   1   2 -10   11.67    0.87
  -1  -2  10   12.86    0.95
   0   2 -10    2.44    0.90
   0   2 -10    3.09    0.83
   0   2 -10    1.97    0.45
   0   2 -10    2.44    0.65
   0  -2  10    2.56    0.65
  -1   2 -10    4.35    0.73
  -1   2 -10    4.29    0.91
  -1   2 -10    5.00    0.97
   1  -2  10    4.07    0.75
  -2   2 -10   15.47    1.02
  -2   2 -10   15.83    1.29
   2  -2  10   14.96    1.08
  -3   2 -10    5.52    1.11
  -3   2 -10    2.97    0.73
   3  -2  10    4.21    0.82
  -4   2 -10    7.70    0.97
   4  -2  10    7.95    0.95
  -9  -1  10    1.31    0.75
  -8  -1  10    6.83    0.87
  -7  -1  10   15.34    1.07
   6   1 -10   23.99    1.58
   6   1 -10   23.43    1.25
   6   1 -10   23.15    1.57
  -6  -1  10   20.42    1.11
   5   1 -10   49.70    2.05
   5   1 -10   51.24    1.84
   5   1 -10   51.56    1.77
   5   1 -10   52.70    2.04
  -5  -1  10   49.25    1.70
   4   1 -10   23.22    1.51
   4   1 -10   22.68    1.20
   4   1 -10   23.46    1.31
   4   1 -10   23.98    1.24
  -4  -1  10   24.87    1.10
   3   1 -10    6.10    0.98
   3   1 -10    5.66    0.73
   3   1 -10    5.30    0.72
   3   1 -10    6.04    0.76
  -3  -1  10    6.12    0.66
   2   1 -10   67.05    2.00
   2   1 -10   68.41    2.17
   2   1 -10   70.42    2.29
   2   1 -10   64.16    2.30
  -2  -1  10   62.82    2.06
   1   1 -10   73.09    2.38
   1   1 -10   69.11    2.08
   1   1 -10   67.93    2.30
  -1  -1  10   68.26    2.19
   0   1 -10    6.15    0.93
   0   1 -10    6.35    0.73
   0   1 -10    7.49    0.94
   0  -1  10    6.23    0.76
  -1   1 -10   36.21    1.80
  -1   1 -10   32.56    1.69
  -1   1 -10   33.97    1.34
   1  -1  10   31.03    1.47
  -2   1 -10    6.73    1.07
  -2   1 -10    7.38    0.79
  -2   1 -10   10.09    1.09
   2  -1  10    7.40    0.84
  -3   1 -10   -0.05    0.96
  -3   1 -10   -0.32    0.68
   3  -1  10   -0.28    0.66
  -4   1 -10   -0.67    0.76
   4  -1  10    0.27    0.76
  -9   0  10    6.45    0.87
  -8   0  10   16.26    1.12
   7   0 -10   17.13    1.49
   7   0 -10   19.75    1.41
   7   0 -10   19.92    1.21
  -7   0  10   19.40    1.10
   6   0 -10    7.43    1.06
   6   0 -10    6.48    0.83
   6   0 -10    8.14    1.05
  -6   0  10    7.72    0.75
   5   0 -10   15.65    1.05
   5   0 -10   18.00    1.39
   5   0 -10   18.81    1.18
   5   0 -10   16.92    1.23
  -5   0  10   19.51    0.97
   4   0 -10    9.78    0.81
   4   0 -10    7.99    0.93
   4   0 -10    7.20    0.75
   4   0 -10    8.46    1.04
  -4   0  10    8.54    0.70
   3   0 -10   12.54    0.85
   3   0 -10   13.94    1.04
   3   0 -10   11.53    1.11
   3   0 -10   12.31    0.91
  -3   0  10   12.76    0.82
   2   0 -10   51.24    1.75
   2   0 -10   51.20    2.03
   2   0 -10   51.32    1.66
   2   0 -10   48.87    1.96
  -2   0  10   48.50    1.66
   1   0 -10    5.28    0.84
   1   0 -10    4.83    0.87
   1   0 -10    4.04    0.60
  -1   0  10    4.20    0.68
   0   0 -10    3.50    0.81
   0   0 -10    5.95    0.85
   0   0 -10    4.89    0.67
   0   0  10    4.88    0.69
  -1   0 -10    2.53    0.84
  -1   0 -10    5.12    0.92
  -1   0 -10    2.89    0.61
   1   0  10    4.28    0.74
  -2   0 -10    5.68    0.98
  -2   0 -10    3.86    1.00
  -2   0 -10    4.10    0.71
   2   0  10    4.30    0.75
  -3   0 -10    0.28    0.99
  -3   0 -10    1.20    0.69
   3   0  10    1.95    0.71
  -4   0 -10   27.19    1.49
   4   0  10   27.40    1.46
  -9   1  10    3.08    0.81
   8  -1 -10    1.70    1.17
  -8   1  10    2.55    0.71
   7  -1 -10   10.42    1.14
   7  -1 -10    9.76    0.89
   7  -1 -10   11.49    1.33
  -7   1  10   12.12    0.87
   6  -1 -10   12.52    1.23
   6  -1 -10   15.80    1.17
   6  -1 -10   14.97    1.08
   6  -1 -10   12.48    0.93
  -6   1  10   12.73    0.93
   5  -1 -10   55.33    1.83
   5  -1 -10   62.84    1.97
   5  -1 -10   63.40    2.37
   5  -1 -10   62.15    2.13
  -5   1  10   59.17    1.85
   4  -1 -10   12.98    0.88
   4  -1 -10   15.55    1.17
   4  -1 -10   13.18    1.10
   4  -1 -10   14.77    0.99
  -4   1  10   12.53    0.82
   3  -1 -10   29.06    1.57
   3  -1 -10   26.83    1.22
   3  -1 -10   30.79    1.17
   3  -1 -10   26.64    1.50
  -3   1  10   27.45    1.13
   2  -1 -10   13.24    1.08
   2  -1 -10   13.69    0.94
   2  -1 -10   13.34    1.12
   2  -1 -10   13.52    0.86
  -2   1  10   11.42    0.81
   1  -1 -10    9.27    0.91
   1  -1 -10    9.24    0.94
   1  -1 -10   10.48    0.74
  -1   1  10    8.85    0.77
   0  -1 -10    1.74    0.79
   0  -1 -10    0.22    0.74
   0  -1 -10    1.35    0.57
   0   1  10   -0.42    0.54
  -1  -1 -10   30.81    1.63
  -1  -1 -10   31.54    1.33
  -1  -1 -10   33.18    1.58
   1   1  10   31.22    1.35
  -2  -1 -10   16.30    1.18
  -2  -1 -10   15.13    1.03
  -2  -1 -10   16.56    1.21
   2   1  10   18.81    1.11
  -3  -1 -10   20.72    1.21
  -3  -1 -10   22.53    1.50
   3   1  10   22.51    1.28
  -4  -1 -10    3.96    1.16
   8  -2 -10    7.36    1.11
   8  -2 -10    5.47    1.27
  -8   2  10    5.64    0.80
   7  -2 -10   11.19    1.36
   7  -2 -10   12.53    1.18
  -7   2  10   14.86    0.94
   6  -2 -10   21.15    1.12
   6  -2 -10   25.82    1.33
   6  -2 -10   24.19    1.65
   6  -2 -10   27.01    1.50
  -6   2  10   24.47    1.08
   5  -2 -10    7.91    0.95
   5  -2 -10    8.48    1.12
   5  -2 -10    9.81    0.73
   5  -2 -10   11.05    0.83
  -5   2  10   10.23    0.74
   4  -2 -10    2.74    0.82
   4  -2 -10    2.93    0.82
   4  -2 -10    2.60    0.55
   4  -2 -10    1.61    0.61
  -4   2  10    1.87    0.50
   3  -2 -10    1.20    0.50
   3  -2 -10    0.74    0.80
   3  -2 -10    1.25    0.82
   3  -2 -10    1.02    0.59
  -3   2  10    1.29    0.45
   2  -2 -10    3.34    0.83
   2  -2 -10    4.43    0.69
   2  -2 -10    4.45    0.95
   2  -2 -10    3.69    0.55
  -2   2  10    4.72    0.61
   1  -2 -10    1.16    0.54
   1  -2 -10    0.95    0.71
   1  -2 -10    1.73    0.74
  -1   2  10    0.98    0.54
   0  -2 -10   44.49    1.52
   0  -2 -10   45.35    1.71
   0  -2 -10   44.88    1.71
   0   2  10   43.48    1.58
  -1  -2 -10   35.28    1.64
  -1  -2 -10   33.84    1.54
  -1  -2 -10   32.75    1.30
   1   2  10   32.55    1.34
  -2  -2 -10    8.68    1.05
  -2  -2 -10    6.57    0.79
  -2  -2 -10    9.18    1.01
   2   2  10    8.07    0.80
  -3  -2 -10    2.23    1.01
  -3  -2 -10    2.74    1.05
   3   2  10    2.36    0.72
   8  -3 -10   11.18    1.46
   8  -3 -10   15.10    1.26
  -8   3  10   12.82    0.97
   7  -3 -10   12.31    1.09
   7  -3 -10   11.89    1.45
  -7   3  10   10.33    0.83
   6  -3 -10    1.06    0.75
   6  -3 -10    1.21    0.96
   6  -3 -10    1.38    0.67
  -6   3  10    1.44    0.53
   5  -3 -10   13.74    1.35
   5  -3 -10   12.71    0.86
   5  -3 -10   13.72    1.00
  -5   3  10   13.02    0.80
   4  -3 -10    0.80    0.43
   4  -3 -10    0.84    0.55
   4  -3 -10   -0.82    0.71
   4  -3 -10    0.83    0.93
  -4   3  10    0.46    0.41
   3  -3 -10   23.00    0.94
   3  -3 -10   22.14    1.06
   3  -3 -10   21.72    1.34
   3  -3 -10   24.73    1.57
  -3   3  10   23.02    0.97
   2  -3 -10   19.15    0.88
   2  -3 -10   20.29    1.51
   2  -3 -10   20.25    1.27
   2  -3 -10   20.75    1.08
  -2   3  10   18.64    0.98
   1  -3 -10   43.78    1.66
   1  -3 -10   44.18    1.45
   1  -3 -10   46.67    1.68
  -1   3  10   44.78    1.51
   0  -3 -10   29.32    1.41
   0  -3 -10   30.26    1.41
   0  -3 -10   29.60    1.22
   0   3  10   30.24    1.22
  -1  -3 -10    0.05    0.73
  -1  -3 -10    1.46    0.75
  -1  -3 -10    0.45    0.60
   1   3  10    0.03    0.53
  -2  -3 -10    2.58    0.84
  -2  -3 -10    3.54    0.95
  -2  -3 -10    3.53    0.95
   2   3  10    3.75    0.67
  -3  -3 -10    7.42    1.16
   8  -4 -10    6.13    1.02
   8  -4 -10    4.14    1.29
  -8   4  10    4.88    0.74
   7  -4 -10    3.35    1.23
   7  -4 -10    3.78    0.81
   7  -4 -10    3.32    0.88
  -7   4  10    3.73    0.62
   6  -4 -10    0.54    1.07
   6  -4 -10    2.44    0.66
   6  -4 -10    1.23    0.76
  -6   4  10    1.17    0.51
   5  -4 -10   -0.51    0.93
   5  -4 -10    0.74    0.57
   5  -4 -10    0.06    0.68
  -5   4  10   -0.05    0.44
   4  -4 -10   16.23    1.42
   4  -4 -10   17.01    1.12
   4  -4 -10   16.41    0.92
  -4   4  10   15.71    0.81
   3  -4 -10   34.35    1.26
   3  -4 -10   33.84    1.49
   3  -4 -10   37.86    2.07
  -3   4  10   35.85    1.21
   2  -4 -10   28.64    1.10
   2  -4 -10   26.76    1.33
   2  -4 -10   25.60    1.16
   2  -4 -10   30.94    2.00
  -2   4  10   28.58    1.12
   1  -4 -10    0.81    0.65
   1  -4 -10    0.44    0.52
   1  -4 -10    0.38    0.68
  -1   4  10    1.36    0.50
   0  -4 -10    2.75    0.72
   0  -4 -10    1.92    0.70
   0  -4 -10    1.65    0.59
   0   4  10    2.55    0.53
  -1  -4 -10    0.44    0.76
  -1  -4 -10    0.09    0.69
  -1  -4 -10    0.47    0.77
   1   4  10    0.51    0.51
  -2  -4 -10    6.07    0.91
  -2  -4 -10    5.33    1.00
  -2  -4 -10    5.40    1.01
   2   4  10    5.69    0.72
   7  -5 -10    4.06    0.85
   7  -5 -10    4.85    0.90
   7  -5 -10    3.99    1.30
  -7   5  10    5.12    0.68
   6  -5 -10    7.63    0.88
   6  -5 -10    5.87    1.33
   6  -5 -10    7.88    0.81
  -6   5  10    9.08    0.69
   5  -5 -10   30.14    2.07
   5  -5 -10   28.37    1.33
   5  -5 -10   31.57    1.26
  -5   5  10   33.04    1.15
   4  -5 -10   21.66    1.13
   4  -5 -10   24.88    1.90
   4  -5 -10   22.04    0.99
  -4   5  10   22.29    0.92
   3  -5 -10    6.73    0.81
   3  -5 -10    8.46    1.25
   3  -5 -10    7.61    0.62
  -3   5  10    9.12    0.61
   2  -5 -10   -0.34    1.00
   2  -5 -10   -0.03    0.66
   2  -5 -10    0.55    0.58
   1  -5 -10   30.36    1.27
   1  -5 -10   27.12    1.23
   0  -5 -10    7.77    0.82
   0  -5 -10    7.87    0.77
   0   5  10    7.43    0.61
  -1  -5 -10    3.50    0.75
  -1  -5 -10    2.84    0.83
  -1  -5 -10    3.66    0.83
   1   5  10    3.26    0.58
   7  -6 -10    8.48    1.53
   7  -6 -10    8.83    0.95
   7  -6 -10    8.63    0.91
  -7   6  10    9.14    0.78
   6  -6 -10   19.74    1.15
   6  -6 -10   19.51    1.74
   6  -6 -10   21.56    1.16
  -6   6  10   17.80    0.97
   5  -6 -10    1.65    0.66
   5  -6 -10    1.96    1.23
   5  -6 -10    1.04    0.58
  -5   6  10    1.42    0.45
   4  -6 -10    3.03    0.63
   4  -6 -10    2.52    0.53
   4  -6 -10    2.65    1.15
   3  -6 -10    1.42    1.22
   3  -6 -10    1.69    0.49
   3  -6 -10    1.07    0.64
   2  -6 -10   11.26    0.82
   2  -6 -10    9.22    0.75
   1  -6 -10    8.81    0.73
   1  -6 -10    8.86    0.76
   0  -6 -10    4.02    0.66
   0  -6 -10    3.41    0.72
   0  -6 -10    2.72    0.70
   6  -7 -10    1.81    0.67
   6  -7 -10    1.76    0.72
   6  -7 -10    0.96    1.29
   5  -7 -10   10.86    1.58
   5  -7 -10   10.95    0.79
   5  -7 -10   10.65    0.76
   4  -7 -10   17.64    1.79
   4  -7 -10   16.04    0.84
   4  -7 -10   16.65    0.90
   3  -7 -10    7.74    0.64
   3  -7 -10    9.21    1.52
   2  -7 -10    3.90    0.56
   2  -7 -10    3.94    0.67
   1  -7 -10    1.69    0.51
   1  -7 -10    1.91    0.61
   3  11 -11   11.78    1.19
   3  11 -11   13.23    1.16
  -3 -11  11   12.72    1.37
   2  11 -11    1.74    0.91
   2  11 -11    0.09    0.74
  -2 -11  11    1.60    0.98
   1  11 -11    3.33    0.83
   1  11 -11    4.40    0.97
  -1 -11  11    5.80    1.12
   0  11 -11   13.81    1.19
   0  11 -11   13.02    1.11
   0 -11  11   11.53    1.31
  -1  11 -11   10.64    1.16
  -1  11 -11   11.43    1.12
   1 -11  11   11.78    1.34
   4  10 -11   -0.41    0.81
   4  10 -11    0.49    0.80
   4  10 -11    0.39    0.91
  -4 -10  11    0.22    0.99
   3  10 -11    0.80    0.86
   3  10 -11    1.51    0.79
  -3 -10  11    1.87    0.94
   2  10 -11    3.46    0.83
   2  10 -11    4.42    0.89
  -2 -10  11    3.49    1.02
   1  10 -11   16.15    1.21
   1  10 -11   16.06    1.19
  -1 -10  11   17.03    1.38
   0  10 -11    5.89    0.89
   0  10 -11    4.39    0.87
   0 -10  11    4.61    0.99
  -1  10 -11    0.42    0.84
  -1  10 -11    0.67    0.75
   1 -10  11    1.53    0.92
  -2  10 -11    9.10    1.07
  -2  10 -11    8.85    1.11
   2 -10  11    9.15    1.25
   5   9 -11    1.05    0.81
   5   9 -11    0.22    0.92
  -5  -9  11    1.88    1.02
   4   9 -11   19.90    1.41
   4   9 -11   19.26    1.28
   4   9 -11   22.85    1.37
  -4  -9  11   20.51    1.47
   3   9 -11   11.59    1.12
   3   9 -11   11.04    1.05
  -3  -9  11    8.52    1.10
   2   9 -11   27.04    1.40
   2   9 -11   31.57    1.57
  -2  -9  11   31.58    1.72
   1   9 -11   26.76    1.34
   1   9 -11   25.38    1.47
  -1  -9  11   26.72    1.53
   0   9 -11   -0.60    0.68
   0   9 -11    1.55    0.82
   0  -9  11   -0.06    0.86
  -1   9 -11    2.55    0.88
  -1   9 -11    2.84    0.83
   1  -9  11    3.35    0.92
  -2   9 -11    5.02    0.95
  -2   9 -11    3.55    0.85
   2  -9  11    3.58    1.03
  -3   9 -11    5.24    0.99
  -3   9 -11    5.66    1.01
   3  -9  11    4.16    1.11
   6   8 -11    0.82    0.88
  -6  -8  11    1.48    0.95
   5   8 -11   25.58    1.51
   5   8 -11   23.64    1.60
  -5  -8  11   24.97    1.52
   4   8 -11    9.33    0.97
   4   8 -11   10.07    1.09
   4   8 -11   11.64    1.09
  -4  -8  11   10.79    1.17
   3   8 -11   -0.28    0.68
   3   8 -11    0.41    0.74
  -3  -8  11    0.89    0.79
   2   8 -11    3.94    0.81
   2   8 -11    3.13    0.75
  -2  -8  11    4.40    0.96
   1   8 -11    0.15    0.69
   1   8 -11    1.39    0.74
  -1  -8  11    2.35    0.82
   0   8 -11    0.11    0.67
   0   8 -11    0.56    0.70
   0  -8  11    0.52    0.76
  -1   8 -11    9.07    0.97
  -1   8 -11    9.66    1.00
   1  -8  11    8.67    1.09
  -2   8 -11   12.81    1.09
  -2   8 -11   15.49    1.19
   2  -8  11   14.80    1.33
  -3   8 -11    8.72    1.03
  -3   8 -11    7.47    1.03
   3  -8  11    8.53    1.20
   7   7 -11    2.74    1.03
   6   7 -11   16.50    1.28
  -6  -7  11   17.03    1.32
   5   7 -11   32.35    1.60
   5   7 -11   35.27    1.73
  -5  -7  11   30.25    1.67
   4   7 -11    3.95    0.83
   4   7 -11    2.46    0.75
   4   7 -11    2.82    0.81
  -4  -7  11    2.55    0.87
   3   7 -11    0.57    0.75
   3   7 -11    0.37    0.65
  -3  -7  11    1.16    0.74
   2   7 -11   20.97    1.21
   2   7 -11   24.34    1.35
  -2  -7  11   21.34    1.35
   1   7 -11   11.20    0.97
   1   7 -11   11.95    0.97
  -1  -7  11   12.04    1.13
   0   7 -11   18.26    1.20
   0   7 -11   21.46    1.30
   0  -7  11   18.64    1.35
  -1   7 -11   41.47    1.74
  -1   7 -11   46.53    1.81
   1  -7  11   42.85    1.95
  -2   7 -11    0.80    0.72
  -2   7 -11    0.06    0.75
   2  -7  11    0.20    0.82
  -3   7 -11    1.48    0.83
  -3   7 -11    1.27    0.85
   3  -7  11    2.05    0.91
  -4   7 -11    2.80    0.95
   4  -7  11    4.82    1.03
   7   6 -11    1.39    0.94
  -7  -6  11    1.25    0.91
   6   6 -11    0.62    0.85
  -6  -6  11    0.03    0.76
   5   6 -11    0.94    0.79
   5   6 -11    2.51    0.76
  -5  -6  11    1.42    0.74
   4   6 -11   -0.80    0.68
   4   6 -11   -0.49    0.64
   4   6 -11    0.63    0.75
  -4  -6  11    0.93    0.70
   3   6 -11   12.83    1.00
   3   6 -11   14.31    1.05
  -3  -6  11   13.29    1.09
   2   6 -11   25.25    1.30
   2   6 -11   22.69    1.31
  -2  -6  11   23.25    1.33
   1   6 -11    4.71    0.79
   1   6 -11    3.49    0.73
  -1  -6  11    3.49    0.84
   0   6 -11   30.85    1.46
   0   6 -11   29.67    1.38
   0  -6  11   30.08    1.57
  -1   6 -11   12.75    1.03
  -1   6 -11   11.56    0.98
   1  -6  11   12.26    1.14
  -2   6 -11    3.53    0.83
  -2   6 -11    2.57    0.78
   2  -6  11    3.90    0.89
  -3   6 -11   11.20    1.05
   3  -6  11   12.49    1.24
  -4   6 -11   12.28    1.15
   4  -6  11   11.97    1.23
   7   5 -11    0.11    0.87
  -7  -5  11    1.71    0.84
   6   5 -11   24.64    1.50
  -6  -5  11   21.05    1.37
   5   5 -11    9.73    0.96
   5   5 -11   10.72    1.00
   5   5 -11    9.05    0.97
  -5  -5  11    9.07    0.95
   4   5 -11   17.78    1.20
   4   5 -11   16.04    1.10
  -4  -5  11   16.81    1.20
   3   5 -11   70.96    2.23
   3   5 -11   66.43    2.16
  -3  -5  11   67.36    2.34
   2   5 -11   19.17    1.16
   2   5 -11   18.64    1.49
   2   5 -11   19.42    1.20
  -2  -5  11   17.22    1.25
   1   5 -11   -0.07    0.66
   1   5 -11   -0.20    1.01
   1   5 -11    0.65    0.62
  -1  -5  11   -0.33    0.63
   0   5 -11   25.37    1.25
   0   5 -11   24.54    1.66
   0   5 -11   21.75    1.30
   0  -5  11   21.71    1.36
  -1   5 -11   21.29    1.26
  -1   5 -11   28.07    1.37
   1  -5  11   24.95    1.46
  -2   5 -11    7.45    0.93
   2  -5  11    6.48    0.99
  -3   5 -11   12.80    1.13
   3  -5  11   12.56    1.17
  -4   5 -11    0.71    0.83
   4  -5  11    0.01    0.88
  -8  -4  11   -0.95    0.72
  -7  -4  11   11.39    1.07
   6   4 -11   23.97    1.42
   6   4 -11   24.45    1.43
   6   4 -11   23.27    1.55
  -6  -4  11   22.01    1.34
   5   4 -11    4.35    0.76
   5   4 -11    4.04    0.81
   5   4 -11    3.50    0.80
   5   4 -11    3.87    0.79
  -5  -4  11    3.05    0.75
   4   4 -11   11.64    0.96
   4   4 -11   11.84    0.81
   4   4 -11   11.17    1.33
   4   4 -11   12.15    0.96
  -4  -4  11   10.18    0.95
   3   4 -11    5.40    1.08
   3   4 -11    3.86    0.70
   3   4 -11    4.68    0.81
  -3  -4  11    5.16    0.79
   2   4 -11    0.59    0.61
   2   4 -11    0.48    0.66
   2   4 -11   -0.97    0.99
  -2  -4  11    0.39    0.64
   1   4 -11   20.20    1.09
   1   4 -11   17.36    1.21
   1   4 -11   21.84    1.50
  -1  -4  11   21.38    1.29
   0   4 -11   54.18    2.30
   0   4 -11   49.47    1.80
   0   4 -11   53.50    1.78
   0  -4  11   48.67    1.95
  -1   4 -11    8.69    1.25
  -1   4 -11    5.62    0.82
   1  -4  11    6.40    0.92
  -2   4 -11    9.25    0.97
   2  -4  11    9.19    1.04
  -3   4 -11    8.56    1.00
   3  -4  11    8.70    1.10
  -4   4 -11   -0.57    0.83
   4  -4  11    0.83    0.90
  -8  -3  11    4.83    0.87
  -7  -3  11   20.02    1.21
   6   3 -11   20.01    1.29
   6   3 -11   16.86    1.26
  -6  -3  11   18.01    1.19
   5   3 -11   14.17    0.99
   5   3 -11   14.14    1.06
   5   3 -11   14.38    1.39
   5   3 -11   15.18    1.04
   5   3 -11   14.54    1.05
  -5  -3  11   13.22    1.01
   4   3 -11   25.51    1.25
   4   3 -11   24.83    1.24
   4   3 -11   26.66    1.78
   4   3 -11   25.03    1.26
  -4  -3  11   22.70    1.26
   3   3 -11   41.33    1.52
   3   3 -11   39.36    1.62
   3   3 -11   44.72    1.61
   3   3 -11   44.37    2.10
  -3  -3  11   39.74    1.63
   2   3 -11   23.95    1.71
   2   3 -11   23.95    1.28
   2   3 -11   22.84    1.11
   2   3 -11   25.92    1.52
  -2  -3  11   23.41    1.27
   1   3 -11   69.44    2.42
   1   3 -11   62.34    2.08
   1   3 -11   71.38    2.53
  -1  -3  11   66.18    2.25
   0   3 -11    4.57    0.80
   0   3 -11    4.74    1.10
   0  -3  11    4.91    0.81
  -1   3 -11    3.53    0.77
  -1   3 -11    2.40    1.09
   1  -3  11    2.38    0.72
  -2   3 -11    0.54    1.05
  -2   3 -11    0.02    0.71
   2  -3  11   -0.54    0.70
  -3   3 -11    1.51    0.77
   3  -3  11    0.76    0.82
  -4   3 -11    1.15    0.88
   4  -3  11   -0.24    0.82
  -8  -2  11    0.91    0.71
   7   2 -11   -1.40    0.96
   7   2 -11    1.03    0.79
  -7  -2  11   -0.28    0.66
   6   2 -11    0.52    0.74
   6   2 -11    0.77    0.86
   6   2 -11    2.00    1.09
  -6  -2  11    0.85    0.60
   5   2 -11    3.67    0.81
   5   2 -11    3.18    1.06
   5   2 -11    3.37    0.80
  -5  -2  11    3.27    0.69
   4   2 -11   69.12    2.32
   4   2 -11   68.92    2.19
   4   2 -11   70.12    2.54
   4   2 -11   69.81    2.33
  -4  -2  11   63.48    2.17
   3   2 -11   14.55    1.31
   3   2 -11   14.38    1.02
   3   2 -11   14.61    1.13
   3   2 -11   13.04    1.07
  -3  -2  11   14.07    1.00
   2   2 -11    9.15    0.84
   2   2 -11    9.18    1.00
   2   2 -11    8.99    1.13
  -2  -2  11    8.76    0.84
   1   2 -11    6.45    0.94
   1   2 -11    5.71    1.09
   1   2 -11    5.14    0.78
  -1  -2  11    5.08    0.78
   0   2 -11    1.26    0.96
   0   2 -11    2.87    0.90
   0   2 -11    1.79    0.66
   0  -2  11    3.04    0.72
  -1   2 -11   -0.24    0.95
  -1   2 -11   -0.34    0.65
   1  -2  11   -0.32    0.67
  -2   2 -11   20.37    1.20
  -2   2 -11   25.53    1.76
   2  -2  11   19.29    1.21
  -3   2 -11   14.47    1.11
   3  -2  11   13.96    1.16
  -8  -1  11    3.99    0.82
   7   1 -11   19.16    1.26
   7   1 -11   17.16    1.44
  -7  -1  11   20.27    1.18
   6   1 -11   14.87    1.34
   6   1 -11   13.59    1.22
   6   1 -11   14.65    1.06
  -6  -1  11   13.82    0.99
   5   1 -11   46.84    2.01
   5   1 -11   47.44    2.08
   5   1 -11   45.38    1.71
  -5  -1  11   45.10    1.65
   4   1 -11   17.99    1.15
   4   1 -11   16.52    1.12
   4   1 -11   18.75    1.40
   4   1 -11   19.19    1.36
  -4  -1  11   17.47    1.02
   3   1 -11    0.39    0.94
   3   1 -11    1.54    0.77
   3   1 -11   -0.19    0.68
   3   1 -11    0.81    0.65
  -3  -1  11   -0.12    0.54
   2   1 -11    5.88    0.89
   2   1 -11    6.36    0.75
   2   1 -11    5.60    1.02
   2   1 -11    6.81    0.87
  -2  -1  11    5.03    0.72
   1   1 -11   13.41    1.12
   1   1 -11   13.63    1.23
   1   1 -11   15.14    1.00
  -1  -1  11   13.44    1.00
   0   1 -11    0.45    0.65
   0   1 -11    1.16    0.85
   0   1 -11    1.78    0.97
   0  -1  11    0.37    0.62
  -1   1 -11   26.45    1.27
  -1   1 -11   28.63    1.76
  -1   1 -11   25.45    1.57
   1  -1  11   26.76    1.38
  -2   1 -11   35.07    1.50
  -2   1 -11   36.45    2.07
   2  -1  11   33.91    1.57
  -3   1 -11    1.83    0.83
  -3   1 -11    1.53    1.19
   3  -1  11    3.02    0.83
   8   0 -11   17.06    1.56
  -8   0  11   15.62    1.14
   7   0 -11   15.71    1.35
   7   0 -11   16.14    1.12
   7   0 -11   14.83    1.39
  -7   0  11   14.08    1.03
   6   0 -11    5.00    0.81
   6   0 -11    7.22    1.09
   6   0 -11    6.77    1.10
  -6   0  11    5.99    0.74
   5   0 -11    1.43    0.72
   5   0 -11    2.02    0.86
   5   0 -11    0.44    0.65
   5   0 -11    1.33    0.94
  -5   0  11    1.62    0.57
   4   0 -11   -0.26    0.61
   4   0 -11    0.10    0.95
   4   0 -11   -0.03    0.76
   4   0 -11    0.54    0.71
  -4   0  11    0.18    0.50
   3   0 -11    0.50    0.60
   3   0 -11    1.28    0.80
   3   0 -11    0.15    0.93
   3   0 -11    2.52    0.71
  -3   0  11    1.44    0.55
   2   0 -11   23.80    1.39
   2   0 -11   24.90    1.20
   2   0 -11   26.95    1.56
   2   0 -11   22.01    1.57
  -2   0  11   24.12    1.22
   1   0 -11   18.27    1.10
   1   0 -11   18.05    1.28
   1   0 -11   19.56    1.32
  -1   0  11   18.84    1.15
   0   0 -11   31.92    1.39
   0   0 -11   34.03    1.62
   0   0 -11   31.90    1.73
   0   0  11   31.46    1.45
  -1   0 -11   43.08    2.00
  -1   0 -11   37.17    1.57
  -1   0 -11   44.07    1.91
   1   0  11   40.42    1.63
  -2   0 -11    1.47    0.71
  -2   0 -11    1.31    1.05
   2   0  11    0.16    0.69
  -3   0 -11    1.39    1.09
  -3   0 -11    2.01    0.87
   3   0  11    2.02    0.78
   8  -1 -11    8.30    1.36
  -8   1  11    6.46    0.85
   7  -1 -11   11.16    1.33
   7  -1 -11   10.15    1.20
  -7   1  11    9.87    0.88
   6  -1 -11    4.69    0.76
   6  -1 -11    5.05    1.04
   6  -1 -11    4.00    1.03
  -6   1  11    4.37    0.68
   5  -1 -11   26.48    1.27
   5  -1 -11   27.54    1.72
   5  -1 -11   27.22    1.62
   5  -1 -11   26.66    1.30
  -5   1  11   25.88    1.19
   4  -1 -11    5.68    1.02
   4  -1 -11    4.95    0.72
   4  -1 -11    4.94    0.96
   4  -1 -11    5.32    0.78
  -4   1  11    4.05    0.61
   3  -1 -11   22.93    1.22
   3  -1 -11   21.83    1.54
   3  -1 -11   19.85    1.12
   3  -1 -11   20.26    1.36
  -3   1  11   18.88    1.04
   2  -1 -11   46.36    2.08
   2  -1 -11   44.99    1.75
   2  -1 -11   45.11    1.56
   2  -1 -11   45.84    1.91
  -2   1  11   44.59    1.63
   1  -1 -11   17.32    1.05
   1  -1 -11   17.27    1.22
   1  -1 -11   17.60    1.28
  -1   1  11   16.50    1.07
   0  -1 -11    0.03    0.60
   0  -1 -11    0.83    0.82
   0  -1 -11    0.34    0.83
   0   1  11    0.05    0.60
  -1  -1 -11    8.56    0.84
  -1  -1 -11    8.87    1.06
  -1  -1 -11    8.07    1.08
   1   1  11    9.49    0.89
  -2  -1 -11    5.26    1.06
  -2  -1 -11    4.48    0.84
   2   1  11    5.04    0.80
  -3  -1 -11    3.70    1.19
   8  -2 -11    0.48    1.00
   8  -2 -11   -0.26    1.16
  -8   2  11    0.16    0.64
   7  -2 -11    0.70    1.08
   7  -2 -11   -0.38    0.88
  -7   2  11    0.84    0.63
   6  -2 -11   13.77    1.19
   6  -2 -11   15.06    1.43
   6  -2 -11   15.39    1.08
  -6   2  11   14.82    0.99
   5  -2 -11   11.52    1.29
   5  -2 -11   10.33    1.07
   5  -2 -11   10.56    0.79
   5  -2 -11   10.59    0.89
  -5   2  11   10.11    0.78
   4  -2 -11   24.70    1.21
   4  -2 -11   22.43    1.10
   4  -2 -11   22.37    1.45
   4  -2 -11   22.93    1.72
  -4   2  11   24.49    1.08
   3  -2 -11   21.65    1.04
   3  -2 -11   23.16    1.72
   3  -2 -11   25.68    1.25
   3  -2 -11   22.97    1.53
  -3   2  11   22.35    1.09
   2  -2 -11    9.98    1.06
   2  -2 -11    9.14    0.76
   2  -2 -11    9.36    1.23
   2  -2 -11    9.91    0.90
  -2   2  11    8.62    0.79
   1  -2 -11   -0.08    0.55
   1  -2 -11   -0.44    0.83
   1  -2 -11    1.25    0.79
  -1   2  11   -0.30    0.56
   0  -2 -11   34.62    1.64
   0  -2 -11   32.19    1.35
   0  -2 -11   33.78    1.61
   0   2  11   32.67    1.42
  -1  -2 -11   19.05    1.38
  -1  -2 -11   22.52    1.53
  -1  -2 -11   23.58    1.23
   1   2  11   20.61    1.20
  -2  -2 -11    3.71    1.05
  -2  -2 -11    2.17    0.78
   2   2  11    3.05    0.73
   8  -3 -11    2.14    1.27
   8  -3 -11    5.73    1.12
  -8   3  11    3.67    0.77
   7  -3 -11    8.33    1.10
   7  -3 -11    9.47    1.40
  -7   3  11    7.71    0.79
   6  -3 -11   13.56    1.00
   6  -3 -11   14.43    1.50
   6  -3 -11   14.30    1.14
  -6   3  11   13.92    0.94
   5  -3 -11   28.34    1.28
   5  -3 -11   27.90    1.91
   5  -3 -11   26.05    1.43
  -5   3  11   27.34    1.18
   4  -3 -11    5.83    0.74
   4  -3 -11    6.54    0.95
   4  -3 -11    8.00    1.20
  -4   3  11    6.87    0.66
   3  -3 -11   17.68    0.95
   3  -3 -11   17.76    1.24
   3  -3 -11   19.36    1.54
   3  -3 -11   21.35    1.10
  -3   3  11   18.57    1.01
   2  -3 -11   14.41    0.89
   2  -3 -11   15.56    1.16
   2  -3 -11   14.28    1.04
  -2   3  11   16.27    1.00
   1  -3 -11   17.74    1.05
   1  -3 -11   18.14    1.21
   1  -3 -11   17.60    1.16
  -1   3  11   16.93    1.02
   0  -3 -11   13.84    1.11
   0  -3 -11   14.60    1.12
   0  -3 -11   15.37    1.03
   0   3  11   14.79    0.98
  -1  -3 -11    1.10    0.80
  -1  -3 -11    1.15    0.92
  -1  -3 -11    1.17    0.71
   1   3  11    2.30    0.63
   7  -4 -11    3.82    1.22
   7  -4 -11    2.25    0.91
  -7   4  11    3.07    0.67
   6  -4 -11    1.95    0.72
   6  -4 -11    2.28    0.83
   6  -4 -11    1.17    1.18
  -6   4  11    2.14    0.58
   5  -4 -11    3.82    0.83
   5  -4 -11    3.93    0.72
   5  -4 -11    4.79    1.26
  -5   4  11    5.00    0.61
   4  -4 -11   13.81    1.06
   4  -4 -11   15.98    1.00
   4  -4 -11   15.11    1.44
  -4   4  11   13.56    0.87
   3  -4 -11   30.95    1.51
   3  -4 -11   28.92    1.26
   3  -4 -11   29.49    2.07
  -3   4  11   29.99    1.23
   2  -4 -11   16.08    1.15
   2  -4 -11   17.22    1.15
  -2   4  11   14.87    0.96
   1  -4 -11    8.24    0.92
   1  -4 -11    8.21    0.90
  -1   4  11    8.67    0.73
   0  -4 -11    0.82    0.74
   0  -4 -11    1.30    0.67
   0  -4 -11    0.72    0.83
   0   4  11    0.86    0.56
  -1  -4 -11    1.06    0.80
  -1  -4 -11    1.44    0.92
   6  -5 -11    9.28    0.95
   6  -5 -11    7.42    0.85
   6  -5 -11    9.79    1.49
  -6   5  11    9.37    0.76
   5  -5 -11   14.68    1.01
   5  -5 -11   12.58    0.98
   5  -5 -11   15.17    1.57
  -5   5  11   13.26    0.88
   4  -5 -11   19.74    1.24
   4  -5 -11   20.17    1.05
   4  -5 -11   19.48    1.75
   3  -5 -11    4.79    1.35
   3  -5 -11    6.08    0.73
   3  -5 -11    4.14    0.86
   2  -5 -11   -0.67    0.79
   2  -5 -11    0.60    0.71
   1  -5 -11    1.48    0.73
   1  -5 -11    1.36    0.78
   0  -5 -11   -1.51    0.78
   0  -5 -11    0.80    0.72
   5  -6 -11    3.94    0.75
   5  -6 -11    3.86    0.68
   5  -6 -11    3.40    1.37
   4  -6 -11   -0.41    0.65
   4  -6 -11    0.24    1.27
   4  -6 -11   -0.46    0.56
   3  -6 -11    1.20    1.33
   3  -6 -11    1.03    0.75
   3  -6 -11    1.44    0.63
   2  -6 -11    0.01    0.65
   2  -6 -11   -0.94    0.78
   3  10 -12    0.98    0.82
   3  10 -12    2.41    0.89
  -3 -10  12    1.94    0.99
   2  10 -12   -0.19    0.76
   2  10 -12    1.24    0.88
  -2 -10  12    0.79    0.99
   1  10 -12    5.89    1.01
   1  10 -12    7.35    0.97
  -1 -10  12    8.17    1.13
   0  10 -12    7.60    1.08
   0  10 -12    6.95    1.01
   0 -10  12    7.42    1.18
  -1  10 -12    8.00    1.11
  -1  10 -12    5.99    0.97
   1 -10  12    9.89    1.24
   4   9 -12    5.57    0.94
   4   9 -12    6.24    1.05
  -4  -9  12    6.62    1.16
   3   9 -12    4.77    0.89
   3   9 -12    6.92    1.01
  -3  -9  12    7.23    1.17
   2   9 -12    9.87    1.06
   2   9 -12    9.34    1.03
  -2  -9  12   11.63    1.24
   1   9 -12   17.24    1.27
   1   9 -12   18.20    1.23
  -1  -9  12   16.77    1.35
   0   9 -12   -0.11    0.74
   0   9 -12    1.66    0.80
   0  -9  12    1.02    0.90
  -1   9 -12    0.59    0.85
  -1   9 -12    0.89    0.85
   1  -9  12    0.84    0.99
  -2   9 -12    0.79    0.83
  -2   9 -12   -0.82    0.88
   2  -9  12    0.75    0.93
   5   8 -12    9.02    1.09
   5   8 -12    8.89    1.13
   5   8 -12    9.51    1.13
  -5  -8  12    9.58    1.24
   4   8 -12   10.10    1.04
   4   8 -12    8.41    1.04
  -4  -8  12    6.91    1.07
   3   8 -12    2.49    0.84
   3   8 -12    3.12    0.87
  -3  -8  12    2.53    0.97
   2   8 -12   28.27    1.52
   2   8 -12   30.14    1.53
  -2  -8  12   29.42    1.71
   1   8 -12   15.26    1.18
   1   8 -12   16.56    1.19
  -1  -8  12   16.16    1.35
   0   8 -12    0.25    0.74
   0   8 -12   -0.19    0.70
   0  -8  12   -0.22    0.85
  -1   8 -12    6.56    0.99
  -1   8 -12    6.52    0.99
   1  -8  12    6.56    1.13
  -2   8 -12   20.36    1.36
  -2   8 -12   18.51    1.34
   2  -8  12   18.66    1.46
   6   7 -12    7.83    1.06
   6   7 -12    5.56    0.99
  -6  -7  12    5.40    1.02
   5   7 -12   33.40    1.73
   5   7 -12   28.23    1.53
   5   7 -12   30.65    1.54
  -5  -7  12   32.60    1.76
   4   7 -12    5.55    0.90
   4   7 -12    5.54    0.92
  -4  -7  12    4.73    0.94
   3   7 -12   -0.28    0.74
   3   7 -12   -0.06    0.69
  -3  -7  12    0.27    0.80
   2   7 -12    1.13    0.76
   2   7 -12    1.43    0.76
  -2  -7  12    0.28    0.85
   1   7 -12    3.72    0.84
   1   7 -12    3.22    0.78
  -1  -7  12    3.36    0.94
   0   7 -12    8.66    0.99
   0   7 -12    9.48    1.02
   0  -7  12   10.62    1.14
  -1   7 -12   30.54    1.56
  -1   7 -12   31.37    1.56
   1  -7  12   26.97    1.68
  -2   7 -12    2.32    0.82
   2  -7  12    2.81    0.99
   6   6 -12    7.31    1.06
   6   6 -12    9.04    1.10
   6   6 -12    8.24    1.07
  -6  -6  12    7.45    1.04
   5   6 -12    5.30    0.92
   5   6 -12    5.32    0.94
   5   6 -12    4.90    0.95
  -5  -6  12    4.93    0.91
   4   6 -12    5.50    0.87
   4   6 -12    5.68    0.91
  -4  -6  12    3.63    0.86
   3   6 -12    4.14    0.86
   3   6 -12    3.72    0.85
  -3  -6  12    3.49    0.88
   2   6 -12   32.70    1.52
   2   6 -12   31.30    1.53
  -2  -6  12   31.89    1.67
   1   6 -12   18.54    1.25
   1   6 -12   18.55    1.21
  -1  -6  12   16.87    1.30
   0   6 -12   35.23    1.57
   0   6 -12   33.31    1.52
   0  -6  12   32.43    1.62
  -1   6 -12   16.06    1.20
   1  -6  12   19.91    1.43
  -2   6 -12    0.56    0.77
   2  -6  12    0.17    0.88
  -3   6 -12    0.68    0.87
   3  -6  12    2.19    0.95
   7   5 -12    0.99    0.93
  -7  -5  12    1.38    0.89
   6   5 -12    3.23    0.90
  -6  -5  12    4.16    0.88
   5   5 -12    4.23    0.86
   5   5 -12    4.65    0.91
  -5  -5  12    3.90    0.87
   4   5 -12    8.11    0.94
   4   5 -12    5.33    0.89
  -4  -5  12    6.13    0.93
   3   5 -12   64.50    2.17
   3   5 -12   66.99    2.20
  -3  -5  12   66.46    2.32
   2   5 -12   17.78    1.24
   2   5 -12   15.74    1.16
  -2  -5  12   14.22    1.20
   1   5 -12   -0.22    0.73
  -1  -5  12    0.77    0.76
   0   5 -12    0.50    0.76
   0  -5  12   -0.20    0.75
  -1   5 -12   -0.77    0.76
   1  -5  12    0.07    0.75
  -2   5 -12    0.56    0.76
   2  -5  12    0.79    0.85
  -3   5 -12    4.51    0.98
   3  -5  12    4.77    1.06
   7   4 -12   -0.79    0.84
  -7  -4  12    0.39    0.76
   6   4 -12   23.22    1.35
  -6  -4  12   20.38    1.37
   5   4 -12   11.66    1.03
  -5  -4  12    9.85    1.02
   4   4 -12   29.13    1.49
  -4  -4  12   28.46    1.41
   3   4 -12   25.84    1.41
   3   4 -12   24.88    1.77
  -3  -4  12   25.80    1.41
   2   4 -12    3.41    0.83
   2   4 -12    1.08    1.14
  -2  -4  12    4.50    0.86
   1   4 -12    3.82    0.83
   1   4 -12    2.09    1.14
  -1  -4  12    4.66    0.87
   0   4 -12   21.33    1.62
   0   4 -12   21.60    1.26
   0  -4  12   20.66    1.37
  -1   4 -12    5.01    0.88
   1  -4  12    5.53    0.97
  -2   4 -12   12.74    1.11
   2  -4  12   13.02    1.22
  -3   4 -12   21.28    1.37
   3  -4  12   18.24    1.43
   7   3 -12   28.80    1.58
   7   3 -12   29.42    1.88
  -7  -3  12   27.12    1.51
   6   3 -12   22.58    1.43
   6   3 -12   24.95    1.59
  -6  -3  12   24.09    1.38
   5   3 -12    5.07    0.85
   5   3 -12    5.18    0.88
  -5  -3  12    5.28    0.85
   4   3 -12   -1.31    1.06
   4   3 -12    0.48    0.70
  -4  -3  12    0.89    0.68
   3   3 -12   11.87    1.37
   3   3 -12   10.97    1.02
  -3  -3  12   10.21    0.99
   2   3 -12    1.34    1.09
   2   3 -12    0.24    0.74
  -2  -3  12    1.01    0.71
   1   3 -12   15.59    1.40
   1   3 -12   14.20    1.06
  -1  -3  12   15.19    1.15
   0   3 -12   13.58    1.05
   0   3 -12   13.61    1.36
   0  -3  12   11.73    1.09
  -1   3 -12    3.10    1.15
  -1   3 -12    3.78    0.85
   1  -3  12    3.76    0.89
  -2   3 -12    9.74    1.02
   2  -3  12   10.19    1.12
  -3   3 -12    2.11    0.93
   3  -3  12    1.96    0.93
   7   2 -12    5.44    0.94
   7   2 -12    4.32    1.10
  -7  -2  12    5.21    0.88
   6   2 -12    7.94    1.07
   6   2 -12    6.91    0.90
  -6  -2  12    8.92    0.89
   5   2 -12    0.14    0.75
   5   2 -12   -0.25    0.76
   5   2 -12    0.39    1.07
  -5  -2  12   -0.79    0.62
   4   2 -12   32.05    1.91
   4   2 -12   31.78    1.66
   4   2 -12   30.75    1.49
  -4  -2  12   30.02    1.42
   3   2 -12    8.98    0.96
   3   2 -12   10.70    0.95
   3   2 -12    9.80    1.33
  -3  -2  12    8.76    0.91
   2   2 -12   11.42    1.14
   2   2 -12   12.79    0.99
   2   2 -12   11.69    1.28
  -2  -2  12    8.94    0.95
   1   2 -12   46.45    2.21
   1   2 -12   41.93    1.66
  -1  -2  12   43.60    1.77
   0   2 -12   12.60    1.32
   0   2 -12   12.17    1.01
   0  -2  12   13.37    1.11
  -1   2 -12    0.70    1.09
  -1   2 -12    1.36    0.78
   1  -2  12    0.13    0.80
  -2   2 -12    9.65    1.36
  -2   2 -12   10.25    1.04
   2  -2  12    9.47    1.08
   7   1 -12   11.92    1.11
   7   1 -12   13.81    1.35
  -7  -1  12    9.58    0.98
   6   1 -12    3.65    1.15
   6   1 -12    2.07    0.77
   6   1 -12    3.32    0.94
  -6  -1  12    1.87    0.70
   5   1 -12   18.19    1.23
   5   1 -12   18.52    1.31
   5   1 -12   16.82    1.42
  -5  -1  12   17.97    1.12
   4   1 -12   19.45    1.39
   4   1 -12   17.17    1.14
   4   1 -12   16.97    1.41
  -4  -1  12   18.32    1.11
   3   1 -12    6.18    0.95
   3   1 -12    6.33    0.80
   3   1 -12    8.25    1.18
   3   1 -12    6.72    0.94
  -3  -1  12    7.20    0.83
   2   1 -12    5.37    0.96
   2   1 -12    8.66    0.90
   2   1 -12    6.17    1.16
  -2  -1  12    6.26    0.84
   1   1 -12    1.39    0.73
   1   1 -12    2.42    0.94
   1   1 -12    0.59    1.04
  -1  -1  12    2.38    0.73
   0   1 -12   -0.33    1.01
   0   1 -12    0.50    0.65
   0  -1  12   -0.01    0.71
  -1   1 -12   15.35    1.42
  -1   1 -12   13.40    1.05
   1  -1  12   14.43    1.15
  -2   1 -12   21.23    1.61
  -2   1 -12   21.64    1.32
   2  -1  12   20.23    1.43
   7   0 -12    7.03    1.21
   7   0 -12    6.26    1.24
  -7   0  12    6.65    0.86
   6   0 -12    7.45    1.13
   6   0 -12    7.15    0.89
   6   0 -12    8.05    1.19
  -6   0  12    7.10    0.82
   5   0 -12   16.11    1.31
   5   0 -12   15.08    1.04
   5   0 -12   13.04    1.34
  -5   0  12   14.53    1.02
   4   0 -12   18.61    1.34
   4   0 -12   17.28    1.19
   4   0 -12   15.67    1.07
   4   0 -12   17.61    1.42
  -4   0  12   16.32    1.11
   3   0 -12   11.12    0.93
   3   0 -12   10.21    1.04
   3   0 -12    8.56    1.21
   3   0 -12   10.54    1.15
  -3   0  12    9.96    0.88
   2   0 -12    8.96    1.19
   2   0 -12   10.39    0.91
   2   0 -12   11.93    1.12
  -2   0  12   10.97    0.95
   1   0 -12   25.55    1.59
   1   0 -12   24.65    1.62
   1   0 -12   28.46    1.33
  -1   0  12   26.58    1.38
   0   0 -12   21.24    1.45
   0   0 -12   18.79    1.44
   0   0 -12   18.68    1.21
   0   0  12   19.10    1.27
  -1   0 -12   22.56    1.26
  -1   0 -12   22.31    1.54
   1   0  12   20.67    1.34
  -2   0 -12    3.58    1.14
  -2   0 -12    2.16    0.85
   2   0  12    0.62    0.77
   7  -1 -12   10.95    1.36
   7  -1 -12    9.15    1.28
  -7   1  12    9.22    0.91
   6  -1 -12   -0.05    1.04
   6  -1 -12    2.62    1.05
  -6   1  12    2.01    0.65
   5  -1 -12    0.80    0.75
   5  -1 -12    0.97    0.66
   5  -1 -12    1.87    0.97
   5  -1 -12    1.03    1.01
  -5   1  12    0.61    0.61
   4  -1 -12    1.37    0.92
   4  -1 -12    1.79    0.65
   4  -1 -12    2.01    1.01
   4  -1 -12    2.35    0.79
  -4   1  12    0.60    0.60
   3  -1 -12   13.39    0.93
   3  -1 -12   13.20    1.28
   3  -1 -12   12.87    1.28
   3  -1 -12   12.15    1.05
  -3   1  12   14.00    0.98
   2  -1 -12   41.20    1.55
   2  -1 -12   42.12    1.79
   2  -1 -12   40.86    1.92
  -2   1  12   40.40    1.64
   1  -1 -12   11.90    1.12
   1  -1 -12    9.21    1.20
   1  -1 -12    8.31    0.86
  -1   1  12   10.34    0.93
   0  -1 -12    2.24    0.98
   0  -1 -12    2.02    0.75
   0  -1 -12    0.15    0.96
   0   1  12    2.20    0.74
  -1  -1 -12    0.96    1.05
  -1  -1 -12   -0.71    0.71
   1   1  12   -0.59    0.68
   7  -2 -12    8.30    1.20
   7  -2 -12    7.53    1.28
  -7   2  12    8.21    0.88
   6  -2 -12    1.17    1.00
   6  -2 -12    0.04    1.05
  -6   2  12    0.53    0.61
   5  -2 -12   15.33    1.09
   5  -2 -12   14.57    1.29
   5  -2 -12   16.30    1.46
  -5   2  12   15.26    1.00
   4  -2 -12   24.96    1.78
   4  -2 -12   22.59    1.35
   4  -2 -12   20.39    1.41
  -4   2  12   22.16    1.14
   3  -2 -12   38.15    2.04
   3  -2 -12   32.10    1.52
   3  -2 -12   33.62    1.36
   3  -2 -12   32.68    1.83
  -3   2  12   33.55    1.45
   2  -2 -12    7.76    0.81
   2  -2 -12    6.96    1.11
   2  -2 -12    8.22    1.02
  -2   2  12    9.46    0.86
   1  -2 -12   -0.01    0.63
   1  -2 -12    1.09    0.92
   1  -2 -12    0.31    0.85
  -1   2  12    0.99    0.67
   0  -2 -12    6.76    0.84
   0  -2 -12    4.52    1.03
   0  -2 -12    6.44    1.06
   0   2  12    5.40    0.82
  -1  -2 -12    5.57    1.04
  -1  -2 -12    4.77    0.88
  -1  -2 -12    6.09    1.12
   1   2  12    5.58    0.82
   7  -3 -12    3.62    1.32
   7  -3 -12    3.74    1.04
  -7   3  12    4.26    0.73
   6  -3 -12   19.18    1.32
   6  -3 -12   21.63    1.78
   6  -3 -12   19.65    1.35
  -6   3  12   21.32    1.13
   5  -3 -12   17.40    1.23
   5  -3 -12   19.21    1.64
   5  -3 -12   18.72    1.27
  -5   3  12   15.62    1.03
   4  -3 -12    6.13    1.05
   4  -3 -12    7.00    0.87
   4  -3 -12    4.80    1.24
  -4   3  12    6.12    0.72
   3  -3 -12   -0.12    0.98
   3  -3 -12    2.03    0.78
   3  -3 -12    1.45    1.15
  -3   3  12    1.56    0.64
   2  -3 -12    0.38    0.95
   2  -3 -12    0.18    0.82
  -2   3  12    0.94    0.64
   1  -3 -12   -0.26    0.97
   1  -3 -12    0.62    0.87
   1  -3 -12    0.79    0.66
  -1   3  12    0.25    0.62
   0  -3 -12    4.71    0.84
   0  -3 -12    5.42    0.96
   0  -3 -12    6.14    1.07
   0   3  12    5.12    0.75
   6  -4 -12    6.62    0.92
   6  -4 -12    6.06    1.39
   6  -4 -12    5.95    0.98
  -6   4  12    6.89    0.75
   5  -4 -12    5.28    1.34
   5  -4 -12    3.74    0.93
   5  -4 -12    4.20    0.79
  -5   4  12    5.28    0.69
   4  -4 -12    4.50    1.32
   4  -4 -12    3.02    0.77
   4  -4 -12    3.57    0.95
  -4   4  12    3.78    0.66
   3  -4 -12   13.08    1.02
   3  -4 -12   13.82    1.21
   3  -4 -12   13.62    1.60
   2  -4 -12    2.16    0.86
   2  -4 -12    1.11    1.00
   1  -4 -12    7.23    0.96
   1  -4 -12    7.74    1.08
   4  -5 -12    3.33    0.89
   4  -5 -12    4.58    0.79
   4  -5 -12    4.96    1.41
   3  -5 -12    5.58    1.35
   3  -5 -12    4.47    0.84
   3  -5 -12    4.63    0.98
   3   9 -13    1.53    0.89
   3   9 -13    1.53    0.91
  -3  -9  13   -0.41    0.98
   2   9 -13    3.42    0.94
   2   9 -13    2.48    0.82
  -2  -9  13    1.18    1.02
   1   9 -13    8.44    1.03
   1   9 -13   10.62    1.09
  -1  -9  13    8.33    1.22
   0   9 -13    5.21    0.96
   4   8 -13    6.94    1.01
   4   8 -13    9.32    1.05
  -4  -8  13    9.21    1.20
   3   8 -13    4.00    0.94
   3   8 -13    5.36    0.97
  -3  -8  13    4.65    1.08
   2   8 -13   28.94    1.59
   2   8 -13   27.97    1.56
  -2  -8  13   27.21    1.64
   1   8 -13   21.83    1.37
   1   8 -13   23.73    1.47
  -1  -8  13   23.32    1.63
   0   8 -13    0.38    0.84
   0  -8  13    0.25    0.86
   5   7 -13   16.83    1.32
  -5  -7  13   14.95    1.36
   4   7 -13    5.35    0.99
  -4  -7  13    7.45    1.12
   3   7 -13    5.23    0.91
  -3  -7  13    4.75    1.05
   2   7 -13    5.60    0.92
  -2  -7  13    5.33    1.06
   1   7 -13   -0.31    0.82
  -1  -7  13   -0.88    0.78
   0   7 -13    1.20    0.80
   0  -7  13    1.72    0.95
  -1   7 -13    6.42    1.05
   1  -7  13    8.27    1.17
   6   6 -13   18.21    1.38
   5   6 -13   25.57    1.58
  -5  -6  13   26.51    1.57
   4   6 -13    3.75    0.95
  -4  -6  13    4.64    0.96
   3   6 -13    0.65    0.75
  -3  -6  13    0.55    0.87
   2   6 -13   14.88    1.17
  -2  -6  13   16.62    1.30
   1   6 -13    5.28    0.91
  -1  -6  13    6.83    1.05
   0   6 -13   12.63    1.12
   0  -6  13   13.60    1.28
  -1   6 -13    9.38    1.08
   1  -6  13   13.79    1.31
   6   5 -13    0.08    0.88
  -6  -5  13    0.69    0.87
   5   5 -13   -0.14    0.78
  -5  -5  13   -0.09    0.81
   4   5 -13    0.11    0.81
  -4  -5  13   -0.73    0.77
   3   5 -13   18.56    1.29
  -3  -5  13   18.53    1.36
   2   5 -13   11.60    1.08
  -2  -5  13   14.11    1.21
   1   5 -13    0.97    0.78
  -1  -5  13    1.43    0.85
   0   5 -13   10.37    1.06
   0  -5  13   12.07    1.20
  -1   5 -13    5.66    0.95
   1  -5  13    5.11    1.05
   6   4 -13   10.73    1.10
  -6  -4  13   11.34    1.16
   5   4 -13    5.45    0.97
  -5  -4  13    5.73    0.97
   4   4 -13   14.51    1.15
  -4  -4  13   15.18    1.19
   3   4 -13   26.97    1.43
  -3  -4  13   30.04    1.58
   2   4 -13    2.91    0.83
  -2  -4  13    3.12    0.89
   1   4 -13    0.65    0.75
  -1  -4  13   -0.71    0.69
   0   4 -13    0.90    0.84
   0  -4  13    0.12    0.75
  -1   4 -13    2.97    0.92
   1  -4  13    4.72    1.01
   6   3 -13   11.42    1.13
  -6  -3  13   12.27    1.10
   5   3 -13    1.60    0.85
  -5  -3  13    2.65    0.82
   4   3 -13    1.31    0.83
  -4  -3  13    1.26    0.77
   3   3 -13    3.24    0.82
   3   3 -13    4.44    1.25
  -3  -3  13    3.28    0.83
   2   3 -13    4.92    1.24
   2   3 -13    3.68    0.84
  -2  -3  13    4.43    0.88
   1   3 -13    2.48    0.80
   1   3 -13    3.44    1.19
  -1  -3  13    4.34    0.89
   0   3 -13   21.59    1.41
   0   3 -13   20.57    1.65
   0  -3  13   19.67    1.40
  -1   3 -13   10.43    1.09
   1  -3  13   11.53    1.21
   7   2 -13   13.10    1.19
  -7  -2  13   10.95    1.05
   6   2 -13    6.97    1.00
  -6  -2  13    6.99    0.94
   5   2 -13    1.51    0.81
   5   2 -13    1.18    1.19
  -5  -2  13    2.29    0.78
   4   2 -13    6.42    0.95
   4   2 -13    3.58    1.23
  -4  -2  13    8.30    0.96
   3   2 -13    3.87    0.82
   3   2 -13    4.71    1.24
  -3  -2  13    4.44    0.84
   2   2 -13    9.25    0.96
   2   2 -13    8.83    1.36
  -2  -2  13   10.12    1.05
   1   2 -13   40.25    2.08
   1   2 -13   35.01    1.66
  -1  -2  13   37.21    1.70
   0   2 -13   14.67    1.13
   0   2 -13   16.54    1.51
   0  -2  13   13.67    1.19
  -1   2 -13    0.45    0.85
  -1   2 -13   -0.23    1.19
   1  -2  13   -0.65    0.80
   7   1 -13    0.80    1.01
  -7  -1  13    1.29    0.77
   6   1 -13    1.75    0.88
   6   1 -13    1.51    1.00
   6   1 -13    1.50    1.20
  -6  -1  13    1.98    0.76
   5   1 -13    3.35    0.94
   5   1 -13    2.24    1.19
   5   1 -13    2.62    0.85
  -5  -1  13    3.68    0.79
   4   1 -13   19.39    1.36
   4   1 -13   18.72    1.59
   4   1 -13   19.03    1.30
  -4  -1  13   17.16    1.19
   3   1 -13    8.79    1.36
   3   1 -13   10.10    1.02
   3   1 -13   11.78    1.16
  -3  -1  13    9.83    0.98
   2   1 -13   22.35    1.36
   2   1 -13   23.27    1.65
  -2  -1  13   23.47    1.44
   1   1 -13    9.75    1.30
   1   1 -13    7.23    0.96
  -1  -1  13    6.54    0.93
   0   1 -13    0.97    0.81
   0   1 -13    0.89    1.20
   0  -1  13   -1.28    0.71
  -1   1 -13    2.40    0.91
  -1   1 -13    1.33    1.26
   1  -1  13    3.20    0.90
   6   0 -13    2.55    1.22
   6   0 -13    1.88    1.09
  -6   0  13    2.74    0.79
   5   0 -13   33.36    1.85
   5   0 -13   27.75    1.98
   5   0 -13   25.51    1.42
  -5   0  13   30.94    1.43
   4   0 -13   25.52    1.79
   4   0 -13   31.47    1.91
   4   0 -13   29.71    1.50
  -4   0  13   27.80    1.42
   3   0 -13    6.45    0.91
   3   0 -13    7.20    1.14
   3   0 -13    6.85    1.23
   3   0 -13    7.78    1.09
  -3   0  13    6.59    0.89
   2   0 -13    6.66    0.89
   2   0 -13    6.64    1.22
   2   0 -13    7.01    1.11
  -2   0  13    6.44    0.91
   1   0 -13    8.91    0.99
   1   0 -13   10.28    1.33
  -1   0  13   11.29    1.05
   0   0 -13    2.70    1.18
   0   0 -13    2.57    0.78
   0   0  13    2.83    0.86
   6  -1 -13   12.77    1.42
   6  -1 -13   13.62    1.44
  -6   1  13   13.37    1.05
   5  -1 -13    3.62    1.09
   5  -1 -13    1.31    1.14
  -5   1  13    1.96    0.72
   4  -1 -13   -0.29    1.04
   4  -1 -13    0.90    0.87
   4  -1 -13    1.45    1.10
  -4   1  13    1.65    0.70
   3  -1 -13    0.33    1.10
   3  -1 -13    1.07    0.74
   3  -1 -13    0.62    0.88
   3  -1 -13    1.34    1.05
  -3   1  13    1.05    0.71
   2  -1 -13   22.80    1.62
   2  -1 -13   23.73    1.30
   2  -1 -13   23.32    1.64
  -2   1  13   22.13    1.32
   1  -1 -13    5.80    0.85
   1  -1 -13    6.29    1.12
   1  -1 -13    4.00    1.16
  -1   1  13    5.75    0.87
   0  -1 -13    4.54    0.89
   0  -1 -13    5.19    1.27
   0   1  13    4.13    0.87
   6  -2 -13   -0.44    1.12
   6  -2 -13    2.35    1.11
  -6   2  13    0.67    0.63
   5  -2 -13    7.61    1.22
   5  -2 -13    7.89    1.01
   5  -2 -13    9.47    1.36
  -5   2  13    8.56    0.87
   4  -2 -13    5.89    1.19
   4  -2 -13    6.72    1.02
   4  -2 -13    7.29    1.28
  -4   2  13    7.08    0.85
   3  -2 -13   15.13    1.26
   3  -2 -13   18.00    1.48
  -3   2  13   15.55    1.12
   2  -2 -13    6.46    1.22
   2  -2 -13    7.54    1.11
  -2   2  13    6.50    0.87
   1  -2 -13    1.74    0.79
   1  -2 -13    1.34    0.98
   1  -2 -13    0.61    1.05
  -1   2  13    2.41    0.77
   4  -3 -13    4.07    1.27
   4  -3 -13    4.16    0.90
   4  -3 -13    3.20    1.12
  -4   3  13    3.30    0.76
   3  -3 -13    0.36    1.11
   3  -3 -13    2.05    0.92
  -3   3  13    2.06    0.74
   3   7 -14    5.82    0.98
  -3  -7  14    6.59    1.12
   2   7 -14   20.65    1.39
  -2  -7  14   18.76    1.47
   4   6 -14    1.54    0.88
  -4  -6  14    2.39    1.00
   3   6 -14   -0.15    0.87
  -3  -6  14    0.07    0.86
   2   6 -14   -0.49    0.81
  -2  -6  14    0.35    0.84
   1   6 -14    1.21    0.84
  -1  -6  14    1.75    0.94
   5   5 -14    2.59    0.93
  -5  -5  14    5.74    1.06
   4   5 -14    1.38    0.91
  -4  -5  14    0.17    0.89
   3   5 -14    3.65    0.98
  -3  -5  14    2.12    0.95
   2   5 -14    6.22    1.04
  -2  -5  14    7.37    1.10
   1   5 -14    5.29    1.04
  -1  -5  14    5.33    1.03
   5   4 -14    2.35    0.88
  -5  -4  14    1.36    0.89
   4   4 -14    4.12    0.98
  -4  -4  14    3.01    0.95
   3   4 -14   19.62    1.39
  -3  -4  14   20.43    1.38
   2   4 -14    7.92    1.08
  -2  -4  14    8.21    1.11
   1   4 -14    3.02    0.98
  -1  -4  14    4.06    0.98
   0   4 -14    2.95    0.97
   0  -4  14    3.20    0.99
   5   3 -14    1.43    0.92
  -5  -3  14    2.01    0.88
   4   3 -14   17.25    1.32
  -4  -3  14   16.37    1.30
   3   3 -14   19.17    1.32
  -3  -3  14   19.79    1.42
   2   3 -14    6.94    1.00
  -2  -3  14    8.56    1.07
   1   3 -14    0.54    0.90
  -1  -3  14    0.67    0.84
   5   2 -14    7.82    1.07
  -5  -2  14    7.65    1.00
   4   2 -14    0.77    0.86
   4   2 -14    0.76    1.34
  -4  -2  14    1.44    0.83
   3   2 -14    0.74    0.80
   3   2 -14   -0.86    1.24
  -3  -2  14    0.23    0.84
   2   2 -14    3.53    0.89
   2   2 -14    4.74    1.37
  -2  -2  14    3.69    0.95
   1   2 -14   19.73    1.36
   1   2 -14   17.06    1.63
  -1  -2  14   17.52    1.35
   5   1 -14   -0.86    0.84
   5   1 -14    0.68    1.25
  -5  -1  14   -0.14    0.72
   4   1 -14   15.17    1.21
   4   1 -14   14.05    1.59
  -4  -1  14   13.80    1.20
   3   1 -14    8.30    1.03
   3   1 -14    9.91    1.49
  -3  -1  14    8.73    1.07
   2   1 -14   11.39    1.44
   2   1 -14   10.87    1.07
  -2  -1  14   11.60    1.15
   1   1 -14   11.44    1.44
   1   1 -14   13.20    1.17
  -1  -1  14   13.02    1.16
   4   0 -14   16.93    1.60
   4   0 -14   11.46    1.08
  -4   0  14   15.86    1.20
   3   0 -14    5.35    1.34
   3   0 -14    4.84    0.92
  -3   0  14    4.72    0.93
   2   0 -14    0.80    1.21
   2   0 -14    0.57    0.81
  -2   0  14    1.10    0.82
   0   0   0    0.00    0.00
;
_shelx_hkl_checksum              58201
loop_
_space_group_symop_operation_xyz
'x, y, z'
'-x, -y, -z'
loop_
_atom_site_label
_atom_site_type_symbol
_atom_site_fract_x
_atom_site_fract_y
_atom_site_fract_z
_atom_site_U_iso_or_equiv
_atom_site_adp_type
_atom_site_occupancy
_atom_site_site_symmetry_order
_atom_site_calc_flag
_atom_site_refinement_flags_posn
_atom_site_refinement_flags_adp
_atom_site_refinement_flags_occupancy
_atom_site_disorder_assembly
_atom_site_disorder_group
C1 C 0.1853(6) -0.2188(4) 0.2646(4) 0.0392(10) Uani 1 1 d . . . . .
H1 H 0.1656 -0.2946 0.1942 0.047 Uiso 1 1 calc R U . . .
C2 C 0.1497(6) -0.2276(4) 0.3781(4) 0.0407(10) Uani 1 1 d . . . . .
C3 C 0.1781(7) -0.1167(5) 0.4822(4) 0.0510(12) Uani 1 1 d . . . . .
H3 H 0.1533 -0.1244 0.5587 0.061 Uiso 1 1 calc R U . . .
C4 C 0.2440(7) 0.0063(5) 0.4724(4) 0.0548(13) Uani 1 1 d . . . . .
H4 H 0.2637 0.0822 0.5427 0.066 Uiso 1 1 calc R U . . .
C5 C 0.2806(6) 0.0175(4) 0.3597(4) 0.0451(11) Uani 1 1 d . . . . .
H5 H 0.3251 0.1004 0.3527 0.054 Uiso 1 1 calc R U . . .
C6 C 0.2506(6) -0.0956(4) 0.2574(4) 0.0337(9) Uani 1 1 d . . . . .
N1 N 0.0793(6) -0.3603(4) 0.3845(4) 0.0610(11) Uani 1 1 d . . . . .
H1A H 0.0615 -0.3535 0.4625 0.091 Uiso 1 1 calc R U . . .
H1B H -0.0292 -0.3991 0.3183 0.091 Uiso 1 1 calc R U . . .
H1C H 0.1628 -0.4090 0.3767 0.091 Uiso 1 1 calc R U . . .
N2 N 0.2869(5) -0.0850(4) 0.1352(3) 0.0417(9) Uani 1 1 d . . . . .
H2A H 0.3286 0.0000 0.1435 0.063 Uiso 1 1 calc R U . . .
H2B H 0.3732 -0.1295 0.1224 0.063 Uiso 1 1 calc R U . . .
H2C H 0.1810 -0.1191 0.0657 0.063 Uiso 1 1 calc R U . . .
N3 N 0.5163(6) 0.5611(4) 1.3680(4) 0.0468(9) Uani 1 1 d . . . . .
O1 O 0.3488(5) 0.5158(3) 1.2917(3) 0.0548(8) Uani 1 1 d . . . . .
O1' O -0.0481(6) -0.3638(4) 0.5963(4) 0.0720(11) Uani 1 1 d D . . . .
O2 O 0.5559(6) 0.6448(4) 1.4765(3) 0.0722(11) Uani 1 1 d . . . . .
O3 O 0.6402(5) 0.5163(4) 1.3296(3) 0.0681(11) Uani 1 1 d . . . . .
Bi1 Bi 0.42327(2) 0.34808(2) 1.08557(2) 0.03191(6) Uani 1 1 d . . . . .
Br1 Br 0.11445(6) 0.19853(5) 1.11415(5) 0.04649(12) Uani 1 1 d . . . . .
Br2 Br 0.31605(7) 0.19012(5) 0.82870(4) 0.05605(14) Uani 1 1 d . . . . .
Br3 Br 0.62571(6) 0.17706(4) 1.17264(5) 0.04552(11) Uani 1 1 d . . . . .
Br4 Br 0.77170(6) 0.46481(4) 1.04525(4) 0.04015(11) Uani 1 1 d . . . . .
H1' H -0.162(4) -0.362(8) 0.559(6) 0.14(3) Uiso 1 1 d D . . . .
H1'' H 0.017(7) -0.323(6) 0.677(3) 0.11(3) Uiso 1 1 d D . . . .
loop_
_atom_site_aniso_label
_atom_site_aniso_U_11
_atom_site_aniso_U_22
_atom_site_aniso_U_33
_atom_site_aniso_U_23
_atom_site_aniso_U_13
_atom_site_aniso_U_12
C1 0.039(3) 0.040(2) 0.039(2) 0.0057(19) 0.018(2) 0.009(2)
C2 0.039(3) 0.046(3) 0.047(3) 0.021(2) 0.021(2) 0.015(2)
C3 0.063(3) 0.066(3) 0.036(2) 0.019(2) 0.024(2) 0.028(3)
C4 0.074(4) 0.050(3) 0.033(2) 0.001(2) 0.014(2) 0.020(3)
C5 0.053(3) 0.037(2) 0.037(2) 0.0094(19) 0.005(2) 0.008(2)
C6 0.029(2) 0.041(2) 0.033(2) 0.0116(18) 0.0121(18) 0.0107(18)
N1 0.068(3) 0.062(3) 0.069(3) 0.030(2) 0.038(2) 0.013(2)
N2 0.041(2) 0.045(2) 0.042(2) 0.0144(17) 0.0178(17) 0.0082(17)
N3 0.061(3) 0.039(2) 0.037(2) 0.0089(17) 0.016(2) 0.008(2)
O1 0.054(2) 0.059(2) 0.0485(19) 0.0067(16) 0.0196(17) 0.0142(17)
O1' 0.064(3) 0.092(3) 0.045(2) 0.006(2) 0.022(2) -0.007(2)
O2 0.102(3) 0.057(2) 0.0430(19) -0.0075(17) 0.022(2) 0.019(2)
O3 0.055(2) 0.083(3) 0.051(2) -0.0046(19) 0.0149(18) 0.018(2)
Bi1 0.03585(10) 0.03276(9) 0.02887(8) 0.00989(6) 0.01253(6) 0.00889(6)
Br1 0.0360(3) 0.0505(3) 0.0529(3) 0.0162(2) 0.0170(2) 0.0050(2)
Br2 0.0567(3) 0.0687(3) 0.0322(2) -0.0017(2) 0.0063(2) 0.0291(3)
Br3 0.0364(3) 0.0473(3) 0.0571(3) 0.0284(2) 0.0108(2) 0.0108(2)
Br4 0.0386(3) 0.0437(2) 0.0481(2) 0.02038(19) 0.0218(2) 0.01371(19)
loop_
_atom_type_symbol
_atom_type_description
_atom_type_scat_dispersion_real
_atom_type_scat_dispersion_imag
_atom_type_scat_source
C C 0.0033 0.0016 'International Tables Vol C Tables 4.2.6.8 and 6.1.1.4'
H H 0.0000 0.0000 'International Tables Vol C Tables 4.2.6.8 and 6.1.1.4'
N N 0.0061 0.0033 'International Tables Vol C Tables 4.2.6.8 and 6.1.1.4'
O O 0.0106 0.0060 'International Tables Vol C Tables 4.2.6.8 and 6.1.1.4'
Bi Bi -4.1077 10.2566 'International Tables Vol C Tables 4.2.6.8 and 6.1.1.4'
Br Br -0.2901 2.4595 'International Tables Vol C Tables 4.2.6.8 and 6.1.1.4'
loop_
_geom_angle_atom_site_label_1
_geom_angle_atom_site_label_2
_geom_angle_atom_site_label_3
_geom_angle
_geom_angle_site_symmetry_1
_geom_angle_site_symmetry_3
C6 C1 C2 118.1(4) . .
C6 C1 H1 120.9 . .
C2 C1 H1 120.9 . .
C1 C2 C3 121.4(4) . .
C1 C2 N1 117.6(4) . .
C3 C2 N1 120.9(4) . .
C2 C3 C4 119.3(4) . .
C2 C3 H3 120.4 . .
C4 C3 H3 120.4 . .
C5 C4 C3 120.3(4) . .
C5 C4 H4 119.8 . .
C3 C4 H4 119.8 . .
C4 C5 C6 118.8(4) . .
C4 C5 H5 120.6 . .
C6 C5 H5 120.6 . .
C1 C6 C5 122.0(4) . .
C1 C6 N2 118.5(4) . .
C5 C6 N2 119.4(4) . .
C2 N1 H1A 109.5 . .
C2 N1 H1B 109.5 . .
H1A N1 H1B 109.5 . .
C2 N1 H1C 109.5 . .
H1A N1 H1C 109.5 . .
H1B N1 H1C 109.5 . .
C6 N2 H2A 109.5 . .
C6 N2 H2B 109.5 . .
H2A N2 H2B 109.5 . .
C6 N2 H2C 109.5 . .
H2A N2 H2C 109.5 . .
H2B N2 H2C 109.5 . .
O2 N3 O3 121.5(4) . .
O2 N3 O1 121.0(4) . .
O3 N3 O1 117.5(4) . .
H1' O1' H1'' 125(3) . .
N3 O3 Bi1 99.8(3) . .
O3 Bi1 Br2 161.28(8) . .
O3 Bi1 Br3 82.25(8) . .
Br2 Bi1 Br3 90.727(15) . .
O3 Bi1 Br1 108.20(8) . .
Br2 Bi1 Br1 88.706(16) . .
Br3 Bi1 Br1 87.573(15) . .
O3 Bi1 Br4 75.54(8) . .
Br2 Bi1 Br4 86.530(16) . .
Br3 Bi1 Br4 84.163(14) . .
Br1 Bi1 Br4 170.401(13) . .
O3 Bi1 Br4 101.52(8) . 2_667
Br2 Bi1 Br4 83.118(14) . 2_667
Br3 Bi1 Br4 170.828(14) . 2_667
Br1 Bi1 Br4 99.036(14) . 2_667
Br4 Bi1 Br4 88.667(13) . 2_667
Bi1 Br4 Bi1 91.332(13) . 2_667
loop_
_geom_bond_atom_site_label_1
_geom_bond_atom_site_label_2
_geom_bond_distance
_geom_bond_site_symmetry_2
C1 C6 1.367(6) .
C1 C2 1.368(6) .
C1 H1 0.9300 .
C2 C3 1.369(6) .
C2 N1 1.467(6) .
C3 C4 1.378(7) .
C3 H3 0.9300 .
C4 C5 1.370(6) .
C4 H4 0.9300 .
C5 C6 1.371(6) .
C5 H5 0.9300 .
C6 N2 1.469(5) .
N1 H1A 0.8900 .
N1 H1B 0.8900 .
N1 H1C 0.8900 .
N2 H2A 0.8900 .
N2 H2B 0.8900 .
N2 H2C 0.8900 .
N3 O2 1.225(5) .
N3 O3 1.250(5) .
N3 O1 1.255(5) .
O1' H1' 0.854(15) .
O1' H1'' 0.845(15) .
O3 Bi1 2.713(3) .
Bi1 Br2 2.7186(5) .
Bi1 Br3 2.7368(4) .
Bi1 Br1 2.7852(5) .
Bi1 Br4 2.9631(5) .
Bi1 Br4 3.0555(5) 2_667
Br4 Bi1 3.0555(5) 2_667
loop_
_geom_hbond_atom_site_label_D
_geom_hbond_atom_site_label_H
_geom_hbond_atom_site_label_A
_geom_hbond_distance_DH
_geom_hbond_distance_HA
_geom_hbond_distance_DA
_geom_hbond_angle_DHA
_geom_hbond_site_symmetry_A
C1 H1 Br4 0.93 3.01 3.882(4) 156.6 2_656
N1 H1A O1' 0.89 1.90 2.766(5) 163.5 .
N1 H1B O3 0.89 2.60 3.237(6) 129.3 1_444
N1 H1B Br4 0.89 2.83 3.624(4) 149.9 1_444
N1 H1C O1 0.89 2.06 2.892(5) 154.6 1_544
N2 H2A Br1 0.89 2.89 3.511(4) 128.3 1_554
N2 H2A Br3 0.89 2.62 3.374(4) 143.6 1_554
N2 H2B Br2 0.89 2.50 3.339(4) 158.0 2_656
N2 H2C Br1 0.89 2.40 3.289(4) 175.8 2_556
O1' H1' N3 0.854(15) 2.59(3) 3.381(6) 154(5) 1_444
O1' H1' O2 0.854(15) 2.103(17) 2.957(6) 178(6) 1_444
O1' H1' O3 0.854(15) 2.44(5) 3.022(5) 126(5) 1_444
O1' H1'' Br1 0.845(15) 2.87(5) 3.447(4) 127(5) 2_557
O1' H1'' Br3 0.845(15) 2.74(4) 3.427(4) 140(5) 2_657
C1 H1 Br4 0.93 3.01 3.882(4) 156.6 2_656
N1 H1A O1' 0.89 1.90 2.766(5) 163.5 .
N1 H1B O3 0.89 2.60 3.237(6) 129.3 1_444
N1 H1B Br4 0.89 2.83 3.624(4) 149.9 1_444
N1 H1C O1 0.89 2.06 2.892(5) 154.6 1_544
N2 H2A Br1 0.89 2.89 3.511(4) 128.3 1_554
N2 H2A Br3 0.89 2.62 3.374(4) 143.6 1_554
N2 H2B Br2 0.89 2.50 3.339(4) 158.0 2_656
N2 H2C Br1 0.89 2.40 3.289(4) 175.8 2_556
O1' H1' N3 0.854(15) 2.59(3) 3.381(6) 154(5) 1_444
O1' H1' O2 0.854(15) 2.103(17) 2.957(6) 178(6) 1_444
O1' H1' O3 0.854(15) 2.44(5) 3.022(5) 126(5) 1_444
O1' H1'' Br1 0.845(15) 2.87(5) 3.447(4) 127(5) 2_557
O1' H1'' Br3 0.845(15) 2.74(4) 3.427(4) 140(5) 2_657
