#------------------------------------------------------------------------------
#$Date: 2021-09-07 10:17:29 +0300 (Tue, 07 Sep 2021) $
#$Revision: 269009 $
#$URL: file:///home/coder/svn-repositories/cod/cif/1/56/45/1564566.cif $
#------------------------------------------------------------------------------
#
# This file is available in the Crystallography Open Database (COD),
# http://www.crystallography.net/
#
# All data on this site have been placed in the public domain by the
# contributors.
#
data_1564566
loop_
_publ_author_name
'Yakushev, Ilya A.'
'Stolarov, Igor P.'
'Cherkashina, Natalia V.'
'Churakov, Andrei V.'
'Zubavichus, Yan V.'
'Markov, Alexander A.'
'Gekhman, Alexander E.'
'Vargaftik, Michael N.'
_publ_section_title
;
 Two routes to platinum-based carboxylate-bridged heterometallics
;
_journal_name_full               'Inorganica Chimica Acta'
_journal_page_first              119631
_journal_paper_doi               10.1016/j.ica.2020.119631
_journal_volume                  508
_journal_year                    2020
_chemical_formula_moiety         'C20 H32 Cd2 O20 Pt2'
_chemical_formula_sum            'C20 H32 Cd2 O20 Pt2'
_chemical_formula_weight         1207.43
_space_group_crystal_system      triclinic
_space_group_IT_number           2
_space_group_name_Hall           '-P 1'
_space_group_name_H-M_alt        'P -1'
_atom_sites_solution_hydrogens   mixed
_atom_sites_solution_primary     difmap
_cell_angle_alpha                82.543(16)
_cell_angle_beta                 74.424(5)
_cell_angle_gamma                76.9440(11)
_cell_formula_units_Z            1
_cell_length_a                   8.6631(17)
_cell_length_b                   9.0829(18)
_cell_length_c                   10.801(2)
_cell_measurement_reflns_used    800
_cell_measurement_temperature    100(2)
_cell_measurement_theta_max      38.321
_cell_measurement_theta_min      3.773
_cell_volume                     795.3(3)
_computing_cell_refinement       'iMosflm (Battye et al., 2011)'
_computing_data_collection       'Marccd (Doyle, 2011)'
_computing_data_reduction        iMosflm
_computing_molecular_graphics    'Bruker SHELXTL'
_computing_publication_material  'Bruker SHELXTL'
_computing_structure_refinement  'SHELXL-2017/1 (Sheldrick, 2017)'
_computing_structure_solution    'SHELXTL (Sheldrick, 2015)'
_diffrn_ambient_temperature      100(2)
_diffrn_measured_fraction_theta_full 0.992
_diffrn_measured_fraction_theta_max 0.951
_diffrn_measurement_device_type  'Rayonix SX165 CCD'
_diffrn_measurement_method       \f
_diffrn_radiation_type           synchrotron
_diffrn_radiation_wavelength     0.9699
_diffrn_reflns_av_R_equivalents  0.1134
_diffrn_reflns_av_unetI/netI     0.0962
_diffrn_reflns_Laue_measured_fraction_full 0.992
_diffrn_reflns_Laue_measured_fraction_max 0.951
_diffrn_reflns_limit_h_max       10
_diffrn_reflns_limit_h_min       -10
_diffrn_reflns_limit_k_max       11
_diffrn_reflns_limit_k_min       -10
_diffrn_reflns_limit_l_max       13
_diffrn_reflns_limit_l_min       -13
_diffrn_reflns_number            12940
_diffrn_reflns_point_group_measured_fraction_full 0.992
_diffrn_reflns_point_group_measured_fraction_max 0.951
_diffrn_reflns_theta_full        35.587
_diffrn_reflns_theta_max         38.321
_diffrn_reflns_theta_min         3.773
_exptl_absorpt_coefficient_mu    15.397
_exptl_absorpt_correction_T_max  0.370
_exptl_absorpt_correction_T_min  0.260
_exptl_absorpt_correction_type   multi-scan
_exptl_absorpt_process_details   'Scala (Evans, 2006)'
_exptl_crystal_colour            'light green'
_exptl_crystal_density_diffrn    2.521
_exptl_crystal_description       prism
_exptl_crystal_F_000             564
_exptl_crystal_size_max          0.140
_exptl_crystal_size_mid          0.100
_exptl_crystal_size_min          0.080
_refine_diff_density_max         1.765
_refine_diff_density_min         -2.370
_refine_diff_density_rms         0.312
_refine_ls_extinction_coef       .
_refine_ls_extinction_method     none
_refine_ls_goodness_of_fit_ref   1.059
_refine_ls_hydrogen_treatment    mixed
_refine_ls_matrix_type           full
_refine_ls_number_parameters     208
_refine_ls_number_reflns         3309
_refine_ls_number_restraints     0
_refine_ls_restrained_S_all      1.059
_refine_ls_R_factor_all          0.0501
_refine_ls_R_factor_gt           0.0459
_refine_ls_shift/su_max          0.001
_refine_ls_shift/su_mean         0.000
_refine_ls_structure_factor_coef Fsqd
_refine_ls_weighting_details
'w=1/[\s^2^(Fo^2^)+(0.0140P)^2^+3.9580P] where P=(Fo^2^+2Fc^2^)/3'
_refine_ls_weighting_scheme      calc
_refine_ls_wR_factor_gt          0.1114
_refine_ls_wR_factor_ref         0.1127
_reflns_Friedel_coverage         0.000
_reflns_Friedel_fraction_full    .
_reflns_Friedel_fraction_max     .
_reflns_number_gt                3227
_reflns_number_total             3309
_reflns_threshold_expression     'I > 2\s(I)'
_cod_data_source_file            ICA-2020-508-11963113.cif
_cod_data_source_block           13
_cod_depositor_comments
;
The following automatic conversions were performed:

data item '_exptl_crystal_density_meas' value 'not measured' was
changed to '?' -- the value is perceived as not measured.

Automatic conversion script
Id: cif_fix_values 8369 2020-08-20 11:38:08Z andrius 
;
_cod_database_code               1564566
_shelx_space_group_comment
;
The symmetry employed for this shelxl refinement is uniquely defined
by the following loop, which should always be used as a source of
symmetry information in preference to the above space-group names.
They are only intended as comments.
;
_shelx_estimated_absorpt_t_min   0.222
_shelx_estimated_absorpt_t_max   0.372
_shelx_res_file
;
TITL ptcd in P-1
    ptcd.res
    created by SHELXL-2017/1 at 00:39:23 on 18-Oct-2019
CELL 0.9699 8.6631 9.0829 10.801 82.543 74.424 76.944
ZERR 1 0.0017 0.0018 0.0022 0.016 0.005 0.0011
LATT 1
SFAC C H Cd O Pt
DISP C 0.007 0.003 25.571
DISP Cd -0.258 2.098 12571.913
DISP H -0 0 0.636
DISP O 0.021 0.012 81.964
DISP Pt -7.526 8.595 47570.896
UNIT 20 32 2 20 2

L.S. 12
PLAN  20
SIZE 0.14 0.1 0.08
TEMP -173
HTAB O52 O11
BOND $H
CONF
fmap 2
acta
OMIT -4 6 8
OMIT -6 -5 3
OMIT 8 6 8
OMIT -8 -6 4
OMIT -8 -1 4
OMIT -7 4 5
OMIT 0 1 0

WGHT    0.014000    3.958000
FVAR       4.55720
PT1   5    0.306063    0.840108    0.314008    11.00000    0.01798    0.01483 =
         0.01715    0.00053   -0.00377   -0.00083
CD1   3    0.404003    0.526323    0.359771    11.00000    0.01854    0.01514 =
         0.01618    0.00042   -0.00428   -0.00141
O11   4    0.591350    0.612986    0.165154    11.00000    0.02197    0.01924 =
         0.02085    0.00322   -0.00250   -0.00258
C11   1    0.560925    0.734829    0.095441    11.00000    0.01877    0.01731 =
         0.01489    0.00009   -0.00372   -0.00233
O12   4    0.446682    0.846936    0.129794    11.00000    0.02277    0.02297 =
         0.01517   -0.00083   -0.00168   -0.00268
C12   1    0.673116    0.751944   -0.040579    11.00000    0.02722    0.02261 =
         0.02053    0.00226   -0.00383   -0.00537
AFIX 137
H12A  2    0.785208    0.745603   -0.034236    11.00000   -1.50000
H12B  2    0.634598    0.850391   -0.082849    11.00000   -1.50000
H12C  2    0.670971    0.670735   -0.091250    11.00000   -1.50000
AFIX   0
O21   4    0.539744    0.643819    0.471053    11.00000    0.02211    0.01724 =
         0.01822    0.00386   -0.00616   -0.00632
C21   1    0.573416    0.774790    0.441010    11.00000    0.01284    0.01880 =
         0.01695   -0.00334    0.00057   -0.00055
O22   4    0.496819    0.878444    0.373964    11.00000    0.02305    0.01549 =
         0.01900    0.00221   -0.00404    0.00086
C22   1    0.709772    0.813715    0.484105    11.00000    0.02271    0.02007 =
         0.02551    0.00255   -0.00785   -0.00399
AFIX 137
H22A  2    0.751384    0.896131    0.426242    11.00000   -1.50000
H22B  2    0.798263    0.724428    0.481984    11.00000   -1.50000
H22C  2    0.668485    0.845940    0.572158    11.00000   -1.50000
AFIX   0
O31   4    0.171948    0.599280    0.527714    11.00000    0.02475    0.01612 =
         0.03049   -0.00119   -0.00152   -0.00156
C31   1    0.117821    0.731850    0.559626    11.00000    0.01901    0.02371 =
         0.01770    0.00316   -0.00491   -0.00434
O32   4    0.161154    0.853354    0.494670    11.00000    0.02076    0.01735 =
         0.01931   -0.00269    0.00009   -0.00070
C32   1   -0.006969    0.762027    0.687866    11.00000    0.02731    0.02507 =
         0.02064   -0.00430   -0.00270   -0.00178
AFIX 137
H32A  2   -0.092965    0.704198    0.698171    11.00000   -1.50000
H32B  2   -0.055589    0.870438    0.689408    11.00000   -1.50000
H32C  2    0.047410    0.730849    0.758477    11.00000   -1.50000
AFIX   0
O41   4    0.219676    0.549935    0.239311    11.00000    0.02218    0.02156 =
         0.02445   -0.00387   -0.00556   -0.00022
C41   1    0.113529    0.667300    0.227302    11.00000    0.02774    0.02566 =
         0.01419    0.00119   -0.00426   -0.00315
O42   4    0.118598    0.804278    0.251001    11.00000    0.02382    0.02278 =
         0.02440   -0.00079   -0.00701   -0.00144
C42   1   -0.037393    0.655476    0.187394    11.00000    0.02508    0.02235 =
         0.03868   -0.00575   -0.01260   -0.00200
AFIX 137
H42A  2   -0.109800    0.755409    0.187138    11.00000   -1.50000
H42B  2   -0.094916    0.584190    0.248396    11.00000   -1.50000
H42C  2   -0.005311    0.619162    0.100773    11.00000   -1.50000
AFIX   0
O51   4    0.545906    0.298863    0.258941    11.00000    0.03049    0.02103 =
         0.02189   -0.00126   -0.00449   -0.00417
C51   1    0.662696    0.254539    0.167927    11.00000    0.01747    0.02636 =
         0.02297    0.00003   -0.00804    0.00190
O52   4    0.743830    0.349704    0.085722    11.00000    0.03667    0.02340 =
         0.02956    0.00101    0.00713   -0.00267
H52   2    0.703612    0.455727    0.129338    11.00000    0.05662
C52   1    0.728020    0.092752    0.141764    11.00000    0.03095    0.01904 =
         0.02251   -0.00040   -0.00207    0.00141
AFIX 137
H52A  2    0.662840    0.029219    0.205430    11.00000   -1.50000
H52B  2    0.842102    0.064889    0.147493    11.00000   -1.50000
H52C  2    0.722222    0.077391    0.055106    11.00000   -1.50000

AFIX   0
HKLF 4




REM  ptcd in P-1
REM R1 =  0.0459 for    3227 Fo > 4sig(Fo)  and  0.0501 for all    3309 data
REM    208 parameters refined using      0 restraints

END

WGHT      0.0134      3.9725

REM Highest difference peak  1.765,  deepest hole -2.370,  1-sigma level  0.312
Q1    1   0.3416  0.8060  0.2360  11.00000  0.05    1.77
Q2    1   0.2673  0.8940  0.3993  11.00000  0.05    1.64
Q3    1   0.3664  0.5735  0.4425  11.00000  0.05    1.43
Q4    1   0.2279  0.8030  0.3177  11.00000  0.05    1.40
Q5    1   0.4497  0.4856  0.2784  11.00000  0.05    1.31
Q6    1   0.3452  0.9240  0.3195  11.00000  0.05    1.14
Q7    1   0.8028  0.7334  0.3825  11.00000  0.05    1.14
Q8    1   0.4663  0.9388  0.2559  11.00000  0.05    1.13
Q9    1   0.9502  0.1630 -0.0219  11.00000  0.05    1.11
Q10   1   0.6005  0.8718  0.6411  11.00000  0.05    1.08
Q11   1   0.2828  0.7039  0.3395  11.00000  0.05    1.08
Q12   1   0.8458  0.8280 -0.1238  11.00000  0.05    1.03
Q13   1   0.8220  0.8983 -0.0245  11.00000  0.05    1.02
Q14   1   0.3847  0.3663  0.3882  11.00000  0.05    1.00
Q15   1   0.7186  1.0709  0.3646  11.00000  0.05    0.99
Q16   1   0.2561  0.8875  0.2208  11.00000  0.05    0.99
Q17   1   0.4860  0.9135  0.1577  11.00000  0.05    0.99
Q18   1   0.8486  0.6954 -0.0034  11.00000  0.05    0.98
Q19   1  -0.0951  0.5965  0.0570  11.00000  0.05    0.97
Q20   1   0.1067  0.7795  0.4633  11.00000  0.05    0.96
;
_shelx_res_checksum              68903
_shelx_hkl_file
;
   0   0  -2 174477.  25612.   1
   0   0   2 139429.  22357.   1
   0   0   2 234329.  34419.   1
   0   0  -3 199640.  32015.   1
   0   0  -3 184048.  27050.   1
   0   0   3 209256.  33543.   1
   0   0   3 187216.  27522.   1
   0   0  -4  43743. 7719.61   1
   0   0  -4  40553. 6504.15   1
   0   0  -4  34037. 5073.01   1
   0   0   4  37744. 6059.31   1
   0   0   4  40530. 6025.61   1
   0   0   4  40890. 7234.32   1
   0   0  -5 275219.  48394.   1
   0   0  -5 284206.  45585.   1
   0   0  -5 180319.  26511.   1
   0   0   5 232981.  37340.   1
   0   0   5 179083.  26354.   1
   0   0   5 168232.  29611.   1
   0   0  -6 168389.  29634.   1
   0   0  -6 220512.  35363.   1
   0   0  -6 196675.  28937.   1
   0   0   6 171040.  27432.   1
   0   0   6 201932.  29724.   1
   0   0   6 165221.  29095.   1
   0   0  -7  20173. 3596.94   1
   0   0  -7  22714. 3648.61   1
   0   0  -7  22460. 3379.01   1
   0   0   7  23343. 3749.72   1
   0   0   7  28218. 4291.17   1
   0   0   7  28802. 5120.19   1
   0   0  -8  12586. 2291.62   1
   0   0  -8  15942. 2567.96   1
   0   0  -8  16071. 2489.33   1
   0   0   8  15776. 2536.51   1
   0   0   8  16893. 2725.23   1
   0   0   8  15113. 2725.23   1
   0   0  -9  21880. 3307.12   1
   0   0   9  22307. 3583.46   1
   0   0   9  18124. 3262.19   1
   0   0 -10 1367.56 548.640   1
   0   0  10 2078.41 355.201   1
   0   0  10 1257.24 424.174   1
   0   0 -11 8263.30 1422.82   1
   0   0  11 7831.94 1266.91   1
   0   0  11 5630.19 1118.62   1
   0   0 -12   77.06 162.143   1
   0   0 -12  723.88 635.812   1
   0   0  12  294.99 133.520   1
   0   0  12  983.60 534.711   1
   0   0 -13  19548. 3149.85   1
   0   0  13  19843. 3194.78   1
   0  -1  13 3190.29 541.226   1
   0  -1  13 3008.31 835.766   1
   0   1 -13 2900.47 510.447   1
   0  -1  12  45271. 7268.02   1
   0  -1  12  45113. 8009.43   1
   0   1 -12  42844. 6465.96   1
   0  -1  11 184880.  29656.   1
   0  -1  11 142889.  25185.   1
   0   1 -11 141496.  20874.   1
   0  -1  10  10151. 1640.30   1
   0  -1  10  13060. 2379.24   1
   0   1 -10 8449.78 1400.81   1
   0  -1   9  50730. 8139.74   1
   0  -1   9  37744. 6699.61   1
   0   1  -9  37789. 5666.14   1
   0  -1   8  36351. 6452.48   1
   0  -1   8  30712. 4931.47   1
   0  -1   8  32757. 5848.12   1
   0  -1   8  35700. 5457.20   1
   0   1  -8  34936. 5614.46   1
   0   1  -8  33565. 5014.60   1
   0   1  -8  39137. 6940.01   1
   0  -1   7 6039.09 1143.34   1
   0  -1   7 6706.35 1086.05   1
   0  -1   7 5902.04 1103.80   1
   0   1  -7 7683.66 1243.09   1
   0   1  -7 6164.90 1061.78   1
   0   1  -7  12076. 2190.52   1
   0  -1   6  70029.  12366.   1
   0  -1   6  63828.  10243.   1
   0  -1   6  64772. 9615.81   1
   0   1  -6  71467.  11458.   1
   0   1  -6  64862. 9586.60   1
   0   1  -6  69849.  12321.   1
   0  -1   5 5704.33 1073.24   1
   0  -1   5 7787.01 1257.24   1
   0  -1   5 7957.75 1296.34   1
   0   1  -5  11757. 1893.06   1
   0   1  -5 5944.73 1004.27   1
   0   1  -5 7834.19 1428.89   1
   0  -1   4  15657. 2806.11   1
   0  -1   4  14372. 2311.84   1
   0  -1   4  13224. 2029.43   1
   0   1  -4  14783. 2374.74   1
   0   1  -4  13287. 2036.84   1
   0   1  -4  14736. 2633.11   1
   0  -1   3  54684. 9647.26   1
   0  -1   3  40508. 6499.66   1
   0  -1   3  39946. 5924.51   1
   0   1  -3  24309. 3900.24   1
   0   1  -3  36509. 5414.51   1
   0   1  -3  39991. 7065.82   1
   0  -1   2 122916.  21629.   1
   0  -1   2 108043.  17329.   1
   0  -1   2 113031.  16616.   1
   0   1  -2 122691.  19672.   1
   0   1  -2 119569.  17585.   1
   0   1  -2 118513.  20860.   1
   0  -1   0  38665. 6198.60   1
   0  -1   0  44013. 7742.07   1
   0  -1   0  54302. 9555.15   1
   0  -1   0  41878. 6162.65   1
   0  -1   0  42844. 6301.95   1
   0   1   0  37115. 6533.36   1
   0   1   0  39879. 6391.82   1
   0   1   0  53583. 7883.61   1
   0   1   0  44237. 6504.15   1
   0   1   0  50191. 8829.47   1
   0  -1  -2 178881.  26286.   1
   0   1   2 227364.  33386.   1
   0  -1  -3  11357. 2030.10   1
   0  -1  -3  15520. 2491.57   1
   0  -1  -3  10629. 1622.56   1
   0   1   3  12851. 2065.15   1
   0   1   3  10530. 1622.56   1
   0   1   3  12972. 2318.58   1
   0  -1  -4 190384.  30532.   1
   0  -1  -4 189688.  27881.   1
   0   1   4 358121.  57380.   1
   0   1   4 189485.  27881.   1
   0   1   4 189912.  33408.   1
   0  -1  -5 362839.  63806.   1
   0  -1  -5 400808.  64255.   1
   0  -1  -5 258369.  37969.   1
   0   1   5 347562.  55740.   1
   0   1   5 264210.  38845.   1
   0  -1  -6  12305. 2209.84   1
   0  -1  -6  18767. 3015.05   1
   0  -1  -6  14536. 2226.24   1
   0   1   6  19721. 3170.07   1
   0   1   6  15837. 2466.86   1
   0   1   6  41182. 7290.49   1
   0  -1  -7 375421.  66030.   1
   0  -1  -7 283981.  45518.   1
   0  -1  -7 323747.  47562.   1
   0   1   7 338126.  54190.   1
   0   1   7 363738.  53471.   1
   0   1   7 308245.  54212.   1
   0  -1  -8 111705.  19681.   1
   0  -1  -8 196405.  31499.   1
   0  -1  -8 135273.  19910.   1
   0   1   8 198944.  31903.   1
   0   1   8 161177.  23792.   1
   0   1   8 115120.  20288.   1
   0  -1  -9  14954. 2336.55   1
   0   1   9  11986. 1932.82   1
   0   1   9  15909. 2873.51   1
   0  -1 -10 163604.  26241.   1
   0  -1 -10 167356.  24646.   1
   0   1  10 153044.  24534.   1
   0   1  10 300382.  52864.   1
   0  -1 -11  96383.  15459.   1
   0  -1 -11  62458. 9267.57   1
   0   1  11  71894.  11532.   1
   0   1  11  52146. 9227.13   1
   0  -1 -12  18942. 3051.00   1
   0  -1 -12  12247. 1984.50   1
   0   1  12  14651. 2361.26   1
   0  -1 -13  54549. 8746.34   1
   0   1  13  23815. 3830.60   1
   0  -2  12  19353. 3116.15   1
   0  -2  12  16727. 3039.76   1
   0   2 -12  20070. 3277.91   1
   0  -2  11  17194. 3102.67   1
   0  -2  11  16142. 2599.41   1
   0   2 -11  18621. 2943.16   1
   0  -2  10 181173.  29050.   1
   0  -2  10 142642.  25118.   1
   0   2 -10 144170.  21251.   1
   0  -2   9  44754. 7184.90   1
   0  -2   9  33004. 5870.58   1
   0   2  -9  46304. 6895.07   1
   0  -2   8  85419.  15069.   1
   0  -2   8  93529.  15006.   1
   0  -2   8  82925.  12352.   1
   0   2  -8 112986.  18122.   1
   0   2  -8  92855.  13714.   1
   0   2  -8 125208.  22080.   1
   0  -2   7 293866.  51696.   1
   0  -2   7 253201.  40598.   1
   0  -2   7 302628.  53269.   1
   0  -2   7 215614.  31746.   1
   0   2  -7 212896.  34150.   1
   0   2  -7 271175.  39856.   1
   0   2  -7 300831.  52932.   1
   0  -2   6 181420.  31925.   1
   0  -2   6 119928.  19232.   1
   0  -2   6 125140.  18461.   1
   0   2  -6 135947.  21800.   1
   0   2  -6 131588.  19398.   1
   0   2  -6 158796.  27949.   1
   0  -2   5 129274.  22759.   1
   0  -2   5 123680.  19836.   1
   0  -2   5 119344.  17589.   1
   0   2  -5 113547.  18205.   1
   0   2  -5 141586.  20840.   1
   0   2  -5 172343.  30330.   1
   0  -2   4 669736.  98315.   1
   0   2  -4 627050.  92069.   1
   0  -2   3  39991. 7072.56   1
   0  -2   3  50820. 8157.71   1
   0  -2   3  44619. 6603.00   1
   0   2  -3  48551. 7791.50   1
   0   2  -3  45787. 6784.99   1
   0   2  -3  49584. 8748.59   1
   0  -2   2 163536.  28758.   1
   0  -2   2 182813.  29319.   1
   0  -2   2 182903.  26870.   1
   0   2  -2 263311.  42238.   1
   0   2  -2 235003.  34509.   1
   0   2  -2 244664.  43024.   1
   0  -2   1 274545.  40283.   1
   0   2  -1 251179.  36868.   1
   0  -2   0  91081.  16028.   1
   0  -2   0 109840.  17612.   1
   0  -2   0 100045.  14709.   1
   0  -2   0 105100.  15453.   1
   0   2   0  83622.  13410.   1
   0   2   0 100090.  17614.   1
   0   2   0 136801.  20097.   1
   0   2   0  91126.  13410.   1
   0  -2  -1  78567.  12593.   1
   0  -2  -1  64480.  10346.   1
   0  -2  -1  71714.  10557.   1
   0   2   1  69041.  11076.   1
   0   2   1  64794.  11413.   1
   0   2   1  70726.  10416.   1
   0  -2  -2  96405.  15455.   1
   0  -2  -2  96810.  15520.   1
   0  -2  -2  94114.  16560.   1
   0  -2  -2  92384.  13592.   1
   0   2   2 133610.  21424.   1
   0   2   2  78746.  12631.   1
   0   2   2  72163.  12707.   1
   0   2   2  89620.  13190.   1
   0  -2  -3 4381.03 710.851   1
   0  -2  -3 2878.00 470.231   1
   0  -2  -3 4075.48 753.987   1
   0  -2  -3 2442.15 457.874   1
   0   2   3 2399.46 394.293   1
   0   2   3 2473.60 489.552   1
   0   2   3 2232.08 450.909   1
   0  -2  -4  30892. 4958.43   1
   0  -2  -4  26129. 4192.31   1
   0  -2  -4  25949. 4594.47   1
   0  -2  -4  20355. 3059.98   1
   0   2   4  26511. 4255.22   1
   0   2   4  28196. 4996.62   1
   0   2   4  28443. 4261.96   1
   0  -2  -5  79353.  13979.   1
   0  -2  -5  77488.  11447.   1
   0   2   5  82880.  13300.   1
   0   2   5 112469.  19816.   1
   0   2   5  82251.  12155.   1
   0  -2  -6  89261.  15729.   1
   0  -2  -6  94473.  15152.   1
   0  -2  -6  92024.  13577.   1
   0  -2  -6  87621.  14051.   1
   0   2   6  91305.  14642.   1
   0   2   6  96675.  14280.   1
   0   2   6 114311.  20139.   1
   0  -2  -7 2590.43 436.306   1
   0  -2  -7 2878.00 478.993   1
   0  -2  -7 3026.28 615.816   1
   0  -2  -7 2630.87 579.195   1
   0   2   7 2424.17 402.156   1
   0   2   7 3477.87 704.335   1
   0   2   7 3758.70 860.031   1
   0  -2  -8  92496.  14833.   1
   0  -2  -8 107886.  17311.   1
   0  -2  -8 134442.  23680.   1
   0  -2  -8  77803.  11485.   1
   0   2   8  95484.  15311.   1
   0   2   8  98292.  17333.   1
   0   2   8  91957.  13671.   1
   0  -2  -9 111233.  17845.   1
   0  -2  -9 114918.  16944.   1
   0   2   9 115390.  18510.   1
   0   2   9 116131.  20472.   1
   0  -2 -10  630.42 155.852   1
   0  -2 -10  517.19 422.826   1
   0   2  10  544.15 136.643   1
   0   2  10  176.10 298.135   1
   0  -2 -11  71602.  11492.   1
   0  -2 -11 100607.  14878.   1
   0   2  11  90204.  14466.   1
   0   2  11 111593.  19685.   1
   0  -2 -12  67760.  10881.   1
   0  -2 -12  80858.  11975.   1
   0   2  12 100809.  16160.   1
   0  -2 -13  537.63 251.629   1
   0   2  13  -83.58 186.722   1
   0  -3  12  251.18 174.028   1
   0  -3  12  293.64 515.165   1
   0  -3  11  39384. 6324.42   1
   0  -3  11  28084. 5016.85   1
   0   3 -11  31723. 4875.30   1
   0  -3  10 1204.00 228.038   1
   0  -3  10 1355.20 427.319   1
   0   3 -10  707.03 657.380   1
   0  -3   9  40665. 6531.11   1
   0  -3   9  48191. 8523.92   1
   0   3  -9  39519. 5920.01   1
   0  -3   8  16857. 3039.76   1
   0  -3   8  15938. 2563.47   1
   0  -3   8  14509. 2480.34   1
   0   3  -8  19180. 2954.39   1
   0  -3   7 1123.57 349.359   1
   0  -3   7  549.09 455.403   1
   0  -3   7 1860.93 753.762   1
   0  -3   7  780.27 159.133   1
   0   3  -7  930.35 216.198   1
   0   3  -7  464.61 416.086   1
   0   3  -7  809.70 427.993   1
   0  -3   6 234329.  41227.   1
   0  -3   6 554931.  88946.   1
   0  -3   6 385980.  67895.   1
   0  -3   6 361267.  53089.   1
   0   3  -6 277016.  44417.   1
   0   3  -6 290272.  42687.   1
   0   3  -6 188115.  33116.   1
   0  -3   5 199393.  35093.   1
   0  -3   5 256122.  41069.   1
   0  -3   5 264884.  46574.   1
   0  -3   5 220400.  32397.   1
   0   3  -5 248933.  39901.   1
   0   3  -5 296787.  43608.   1
   0   3  -5 277465.  48820.   1
   0  -3   4  31476. 5592.00   1
   0  -3   4  49337. 7924.05   1
   0  -3   4  32510. 5762.74   1
   0  -3   4  30285. 4522.57   1
   0   3  -4  29162. 4684.34   1
   0   3  -4  34981. 5219.05   1
   0   3  -4  31296. 5544.82   1
   0  -3   3 464165.  81600.   1
   0  -3   3 458773.  67356.   1
   0   3  -3 583464.  93507.   1
   0   3  -3 553808.  81263.   1
   0  -3   2 370254.  54347.   1
   0   3  -2 441473.  64794.   1
   0  -3   1  24961. 4430.46   1
   0  -3   1  27814. 4917.99   1
   0  -3   1  33925. 5439.22   1
   0  -3   1  31251. 4639.40   1
   0   3  -1  26713. 4286.67   1
   0   3  -1  28713. 5077.51   1
   0   3  -1  38239. 5666.14   1
   0   3  -1  31409. 4659.62   1
   0  -3  -2  31117. 5488.65   1
   0  -3  -2  23500. 3772.18   1
   0  -3  -2  24084. 3866.54   1
   0  -3  -2  21550. 3237.47   1
   0  -3  -2  23366. 4122.67   1
   0   3   2  25612. 4109.19   1
   0   3   2  31296. 5522.35   1
   0   3   2  24826. 3709.28   1
   0  -3  -3 537407.  78859.   1
   0   3   3 523253.  76837.   1
   0  -3  -4 207346.  33251.   1
   0  -3  -4 123590.  19816.   1
   0  -3  -4 108515.  19104.   1
   0  -3  -4 128465.  18919.   1
   0   3   4 133970.  21485.   1
   0   3   4 172995.  30443.   1
   0   3   4 133094.  19609.   1
   0  -3  -5  26713. 4288.92   1
   0  -3  -5  23635. 3796.90   1
   0  -3  -5  28263. 5007.86   1
   0  -3  -5  26601. 3990.11   1
   0   3   5  30443. 4888.78   1
   0   3   5  22399. 3981.12   1
   0   3   5  30869. 4643.90   1
   0  -3  -6  71759.  11508.   1
   0  -3  -6  82633.  13260.   1
   0  -3  -6  93799.  16522.   1
   0  -3  -6  80476.  11894.   1
   0   3   6  95664.  15345.   1
   0   3   6 110717.  19506.   1
   0   3   6  87868.  13013.   1
   0  -3  -7  15626. 2516.29   1
   0  -3  -7  24264. 3900.24   1
   0  -3  -7  17367. 3104.92   1
   0  -3  -7  16857. 2561.22   1
   0   3   7  16603. 2669.06   1
   0   3   7  16149. 2898.22   1
   0   3   7  17845. 2830.82   1
   0  -3  -8 9379.91 1521.01   1
   0  -3  -8  11925. 1922.49   1
   0  -3  -8 9047.40 1680.52   1
   0  -3  -8  10085. 1611.10   1
   0   3   8 8773.30 1419.23   1
   0   3   8  11559. 2034.37   1
   0   3   8  10768. 1966.30   1
   0  -3  -9 4679.84 764.996   1
   0  -3  -9 6032.35 1012.81   1
   0   3   9 4830.37 788.361   1
   0   3   9 7728.59 1454.95   1
   0  -3 -10 5517.86 899.123   1
   0  -3 -10 5290.94 973.488   1
   0   3  10 4345.09 711.300   1
   0   3  10 5614.46 1137.50   1
   0  -3 -11  17239. 2774.65   1
   0  -3 -11  15518. 2415.19   1
   0   3  11  16886. 2718.49   1
   0  -3 -12 4044.03 886.991   1
   0   3  12 3392.49 574.252   1
   0  -4  12  11402. 1844.75   1
   0  -4  12 9934.84 1846.32   1
   0  -4  11  41766. 7393.84   1
   0  -4  11  39632. 6369.35   1
   0   4 -11  42642. 6535.60   1
   0  -4  10  21573. 3468.88   1
   0  -4  10  15224. 2749.94   1
   0   4 -10  14222. 2376.99   1
   0  -4   9 6728.82 1092.11   1
   0  -4   9 7508.42 1394.52   1
   0   4  -9 7108.51 1294.09   1
   0  -4   8  26736. 4295.66   1
   0  -4   8  25208. 4495.61   1
   0   4  -8  21892. 3381.26   1
   0  -4   7 1037.97 337.677   1
   0  -4   7 1279.71 232.307   1
   0  -4   7 1227.36 881.599   1
   0   4  -7  910.58 441.698   1
   0  -4   6  69220.  12251.   1
   0  -4   6  61627. 9880.92   1
   0  -4   6  67558.  11928.   1
   0  -4   6  52685. 7865.64   1
   0   4  -6  73983.  11878.   1
   0   4  -6  62368. 9249.60   1
   0   4  -6  78814.  13914.   1
   0  -4   5 8227.36 1512.24   1
   0  -4   5 9451.80 1525.72   1
   0  -4   5 9820.26 1823.18   1
   0  -4   5 9768.58 1592.45   1
   0   4  -5  11892. 1917.77   1
   0   4  -5  10670. 1712.20   1
   0   4  -5  11950. 2175.24   1
   0  -4   4  57897.  10238.   1
   0  -4   4  63109.  10126.   1
   0  -4   4  42934. 7605.02   1
   0  -4   4  63244. 9361.93   1
   0   4  -4  51786. 8312.73   1
   0   4  -4  73264.  10831.   1
   0   4  -4  68187.  12026.   1
   0  -4   3 2871.26 595.596   1
   0  -4   3 2628.62 435.183   1
   0  -4   3 4857.33 942.933   1
   0  -4   3 4974.16 862.053   1
   0   4  -3 3799.14 622.781   1
   0   4  -3 2882.50 564.367   1
   0   4  -3 3720.51 725.679   1
   0  -4   2 104358.  18385.   1
   0  -4   2  78634.  13858.   1
   0  -4   2 112896.  18102.   1
   0  -4   2  93574.  13797.   1
   0   4  -2 126601.  18647.   1
   0   4  -2 113233.  18155.   1
   0   4  -2 112918.  16637.   1
   0   4  -2  79038.  13925.   1
   0  -4   1 303976.  53471.   1
   0  -4   1 451583.  79375.   1
   0  -4   1 483262.  77511.   1
   0  -4   1 481689.  70703.   1
   0   4  -1 409121.  65603.   1
   0   4  -1 429566.  63087.   1
   0   4  -1 517636.  75983.   1
   0  -4   0  35430. 6259.26   1
   0  -4   0  48686. 7809.47   1
   0  -4   0  47068. 8297.00   1
   0   4   0  47585. 7036.61   1
   0   4   0  45900. 7366.88   1
   0   4   0  50640. 7492.69   1
   0   4   0  46798. 8249.82   1
   0  -4  -1 352280.  56482.   1
   0  -4  -1 500337.  73444.   1
   0   4   1 445068.  71332.   1
   0   4   1 373174.  54752.   1
   0   4   1 564367.  82790.   1
   0  -4  -2 220467.  35340.   1
   0  -4  -2 176679.  28331.   1
   0  -4  -2 232981.  34262.   1
   0   4   2 226466.  36306.   1
   0   4   2 218086.  32060.   1
   0   4   2 229386.  33723.   1
   0  -4  -3  29589. 5221.29   1
   0  -4  -3  24511. 3936.19   1
   0  -4  -3  30532. 4902.26   1
   0  -4  -3  28016. 4194.56   1
   0  -4  -3  42350. 7465.73   1
   0   4   3  29162. 4679.84   1
   0   4   3  26915. 4037.29   1
   0   4   3  29184. 5156.14   1
   0  -4  -4 312064.  54886.   1
   0  -4  -4 332285.  53224.   1
   0  -4  -4 269377.  43181.   1
   0  -4  -4 294540.  43271.   1
   0  -4  -4 191687.  33723.   1
   0   4   4 259941.  38216.   1
   0   4   4 256796.  45158.   1
   0  -4  -5 312064.  50034.   1
   0  -4  -5 316108.  50730.   1
   0  -4  -5 336329.  59133.   1
   0  -4  -5 312963.  45990.   1
   0   4   5 307571.  49315.   1
   0   4   5 372725.  65581.   1
   0   4   5 286452.  42125.   1
   0  -4  -6 2307.34 481.240   1
   0  -4  -6 3565.49 669.062   1
   0   4   6 2352.28 391.597   1
   0   4   6 1935.52 438.553   1
   0   4   6 3787.91 876.881   1
   0  -4  -7  98787.  15841.   1
   0  -4  -7 103932.  16675.   1
   0  -4  -7 106515.  18758.   1
   0  -4  -7  92833.  13700.   1
   0   4   7 114221.  18310.   1
   0   4   7  91058.  16050.   1
   0   4   7 100674.  14909.   1
   0  -4  -8 103797.  16652.   1
   0  -4  -8 111301.  19618.   1
   0  -4  -8  80858.  11950.   1
   0   4   8  88362.  14172.   1
   0   4   8  81307.  14354.   1
   0  -4  -9  424.85 129.476   1
   0  -4  -9  769.04 414.963   1
   0   4   9  188.70 117.906   1
   0   4   9  305.77 363.738   1
   0  -4 -10 156279.  25051.   1
   0  -4 -10  89935.  13291.   1
   0   4  10  99730.  15990.   1
   0   4  10  74365.  13159.   1
   0   4  11  68344.  10962.   1
   0  -4 -12 1195.91 614.468   1
   0   4  12 2637.61 472.478   1
   0  -5  11 2170.75 398.786   1
   0  -5  11 1396.31 537.856   1
   0  -5  10 135700.  21761.   1
   0  -5  10  98854.  17430.   1
   0   5 -10  96383.  14359.   1
   0  -5   9  77556.  12440.   1
   0  -5   9  91800.  16194.   1
   0   5  -9  54460. 8175.68   1
   0  -5   8 8321.72 1347.56   1
   0  -5   8 7744.32 1430.46   1
   0   5  -8 9865.19 1656.48   1
   0  -5   7 268254.  43002.   1
   0  -5   7 277915.  48888.   1
   0   5  -7 251404.  36980.   1
   0  -5   6 105572.  18603.   1
   0  -5   6 123545.  19814.   1
   0  -5   6  89014.  13215.   1
   0   5  -6 106560.  18809.   1
   0   5  -6  90204.  13325.   1
   0  -5   5  30375. 5394.29   1
   0  -5   5  39542. 6346.88   1
   0  -5   5  49315. 8757.57   1
   0  -5   5  40553. 6095.25   1
   0   5  -5  39744. 6378.34   1
   0   5  -5  48102. 7173.66   1
   0   5  -5  37565. 6665.91   1
   0  -5   4 167692.  29521.   1
   0  -5   4 181375.  29072.   1
   0  -5   4 183846.  32375.   1
   0  -5   4 159852.  23545.   1
   0   5  -4 164547.  26376.   1
   0   5  -4 188969.  27791.   1
   0   5  -4 218355.  38418.   1
   0  -5   3 104785.  18465.   1
   0  -5   3 102786.  18120.   1
   0  -5   3  73512.  11795.   1
   0  -5   3 104493.  15419.   1
   0   5  -3 103482.  15280.   1
   0   5  -3  99977.  16039.   1
   0   5  -3 146731.  21604.   1
   0   5  -3  92002.  16217.   1
   0  -5   2  13552. 2444.39   1
   0  -5   2  16947. 3033.02   1
   0  -5   2  13624. 2192.54   1
   0  -5   2  14911. 2296.11   1
   0   5  -2  14718. 2368.00   1
   0   5  -2  12235. 2201.97   1
   0   5  -2  20845. 3165.58   1
   0   5  -2  12197. 1866.32   1
   0  -5   1 132577.  21263.   1
   0  -5   1 116917.  20589.   1
   0  -5   1 127365.  18778.   1
   0  -5   1 126848.  22328.   1
   0   5  -1 109436.  17549.   1
   0   5  -1 107302.  18892.   1
   0   5  -1 128555.  18933.   1
   0   5  -1 115030.  16938.   1
   0  -5   0 2399.46 473.152   1
   0  -5   0 1991.01 337.901   1
   0  -5   0 2491.57 500.112   1
   0   5   0 1493.37 390.923   1
   0   5   0 1720.29 294.091   1
   0   5   0 2289.37 505.953   1
   0   5   0 1524.60 344.417   1
   0  -5  -1  88497.  15581.   1
   0  -5  -1  90923.  14583.   1
   0  -5  -1 114806.  20213.   1
   0   5   1  85936.  12676.   1
   0   5   1  97484.  15639.   1
   0   5   1  91305.  13469.   1
   0   5   1  64637.  11388.   1
   0  -5  -2  10407. 1847.90   1
   0  -5  -2 9265.33 1646.37   1
   0  -5  -2 9317.00 1502.81   1
   0  -5  -2  10485. 1640.98   1
   0  -5  -2 8227.36 1325.77   1
   0   5   2 8485.73 1368.01   1
   0   5   2 9132.77 1445.74   1
   0   5   2  14042. 2150.53   1
   0  -5  -3  14262. 2291.62   1
   0  -5  -3  12361. 1989.21   1
   0  -5  -3  12651. 1955.29   1
   0   5   3  16641. 2554.48   1
   0   5   3  12469. 2006.74   1
   0   5   3  14071. 2502.81   1
   0   5   3  16630. 2547.74   1
   0  -5  -4 3232.98 588.406   1
   0  -5  -4 3367.78 553.583   1
   0  -5  -4 2821.84 465.962   1
   0  -5  -4 2970.12 547.517   1
   0  -5  -4 4789.93 833.520   1
   0   5   4 3902.49 721.635   1
   0   5   4 4147.38 836.216   1
   0   5   4 2511.79 481.914   1
   0  -5  -5  16560. 2936.42   1
   0  -5  -5  18268. 2936.42   1
   0  -5  -5  17538. 2819.59   1
   0  -5  -5  17944. 2729.72   1
   0  -5  -5  21429. 3790.16   1
   0   5   5  14846. 2644.35   1
   0   5   5  19809. 3098.18   1
   0  -5  -6 122377.  21552.   1
   0  -5  -6 148596.  23837.   1
   0  -5  -6 225118.  36104.   1
   0  -5  -6 158077.  23253.   1
   0  -5  -6 188137.  33094.   1
   0   5   6 138688.  20476.   1
   0   5   6 147652.  25994.   1
   0  -5  -7  38036. 6113.23   1
   0  -5  -7  40193. 6454.72   1
   0  -5  -7  43676. 7719.61   1
   0  -5  -7  45518. 6776.00   1
   0  -5  -7  42350. 7483.70   1
   0  -5  -8  75264.  13280.   1
   0  -5  -8  85554.  13718.   1
   0  -5  -8 101101.  14934.   1
   0  -5  -8  78207.  13801.   1
   0   5   8 119883.  21146.   1
   0   5   8  90788.  16010.   1
   0  -5  -9  81824.  13121.   1
   0  -5  -9 133678.  23568.   1
   0  -5  -9 104134.  15349.   1
   0   5   9 116558.  18695.   1
   0   5   9 147989.  26084.   1
   0  -5 -10  17158. 3134.12   1
   0  -5 -10  11555. 1821.61   1
   0   5  10  12453. 2008.76   1
   0   5  10  18275. 3379.01   1
   0  -5 -11  38486. 6955.73   1
   0  -5 -11  69130.  10238.   1
   0  -5 -12 100494.  14869.   1
   0  -6  10 7043.35 1152.55   1
   0  -6  10 6151.42 1252.75   1
   0  -6   9  22647. 3641.87   1
   0  -6   9  24332. 4347.33   1
   0   6  -9  28084. 4459.67   1
   0  -6   8  59582. 9568.63   1
   0  -6   8  77016.  13583.   1
   0   6  -8  65176. 9748.36   1
   0  -6   7 2765.67 468.658   1
   0  -6   7 2545.49 558.975   1
   0   6  -7 3226.24 833.969   1
   0  -6   6 141990.  22781.   1
   0  -6   6 126039.  22202.   1
   0   6  -6 148124.  21849.   1
   0  -6   5 224893.  39587.   1
   0  -6   5 222601.  35700.   1
   0  -6   5 271624.  39991.   1
   0   6  -5 269827.  39721.   1
   0   6  -5 260615.  38306.   1
   0  -6   4  16918. 3026.28   1
   0  -6   4  17041. 3127.38   1
   0  -6   4  17192. 2765.67   1
   0  -6   4  23366. 3626.15   1
   0   6  -4  19077. 2983.60   1
   0   6  -4  17529. 2824.08   1
   0   6  -4  18798. 2907.21   1
   0   6  -4  16920. 3062.23   1
   0  -6   3 262188.  46147.   1
   0  -6   3 278364.  48955.   1
   0  -6   3 253651.  40665.   1
   0  -6   3 310716.  45675.   1
   0   6  -3 266681.  42754.   1
   0   6  -3 420130.  73871.   1
   0   6  -3 272747.  40081.   1
   0   6  -3 263087.  38665.   1
   0  -6   2 317456.  50932.   1
   0  -6   2 283082.  49787.   1
   0  -6   2 313637.  46102.   1
   0  -6   2 333633.  58728.   1
   0   6  -2 285554.  45787.   1
   0   6  -2 301280.  52999.   1
   0   6  -2 295214.  43383.   1
   0   6  -2 418782.  61514.   1
   0  -6   1  673.56 327.117   1
   0  -6   1  853.74 164.435   1
   0  -6   1  556.05 209.795   1
   0   6  -1  295.44 275.893   1
   0   6  -1  691.30 159.088   1
   0   6  -1 1510.22 513.817   1
   0   6  -1  967.20 322.174   1
   0  -6   0 161177.  28376.   1
   0  -6   0 249607.  40013.   1
   0  -6   0 252078.  44327.   1
   0   6   0 269153.  39519.   1
   0   6   0 231408.  37093.   1
   0   6   0 356773.  52415.   1
   0   6   0 257021.  45226.   1
   0  -6  -1 170950.  30106.   1
   0  -6  -1 222961.  35745.   1
   0  -6  -1 196270.  34554.   1
   0   6   1 211997.  31184.   1
   0   6   1 205324.  32914.   1
   0   6   1 285329.  41901.   1
   0   6   1 200719.  35340.   1
   0  -6  -2  984.50 338.800   1
   0   6   2  979.78 193.260   1
   0   6   2 1357.22 492.473   1
   0   6   2 1397.89 407.099   1
   0  -6  -3  93148.  14943.   1
   0  -6  -3  91800.  14725.   1
   0  -6  -3  96495.  14237.   1
   0   6   3  90452.  14502.   1
   0   6   3  83869.  12402.   1
   0   6   3 116536.  17205.   1
   0  -6  -4  97573.  15644.   1
   0  -6  -4  87778.  14080.   1
   0  -6  -4 150393.  22143.   1
   0   6   4  86430.  12811.   1
   0   6   4 102224.  15075.   1
   0  -6  -5 3266.68 545.270   1
   0  -6  -5 2934.17 490.002   1
   0  -6  -5 2839.81 566.164   1
   0   6   5 2738.71 848.123   1
   0   6   5 2552.23 544.147   1
   0  -6  -6  20600. 3311.61   1
   0  -6  -6  22053. 3545.27   1
   0  -6  -6  21287. 3237.47   1
   0   6   6  20240. 3073.46   1
   0   6   6  17216. 3057.74   1
   0   6   6  19641. 3493.59   1
   0  -6  -7 5095.48 968.096   1
   0  -6  -7 5073.01 828.802   1
   0  -6  -7 6515.38 1195.69   1
   0  -6  -7 7189.39 1186.25   1
   0   6   7 5120.19 980.902   1
   0   6   7 7063.57 1196.81   1
   0   6   7 3965.40 819.141   1
   0  -6  -8 1704.11 308.245   1
   0  -6  -8 2015.28 581.217   1
   0  -6  -8 2078.41 495.618   1
   0   6   8 1364.64 525.724   1
   0  -6  -9 2758.93 841.832   1
   0  -6  -9 5998.65 1049.88   1
   0   6   9 2779.15 902.942   1
   0  -6 -10  13640. 2139.07   1
   0  -6 -11  23523. 3605.93   1
   0  -7   9 2307.34 661.424   1
   0  -7   8 4252.97 903.392   1
   0  -7   8 3695.80 618.512   1
   0   7  -8 4383.28 1541.23   1
   0  -7   7 3419.45 576.948   1
   0  -7   7 4070.99 860.031   1
   0   7  -7 3235.22 1063.13   1
   0  -7   6  15304. 2464.61   1
   0  -7   6  18717. 3365.53   1
   0   7  -6  15122. 2428.67   1
   0  -7   5 1542.57 281.959   1
   0  -7   5  885.87 376.994   1
   0   7  -5 1050.10 568.411   1
   0  -7   4  38576. 6191.86   1
   0  -7   4  44552. 7888.11   1
   0   7  -4  34756. 5219.05   1
   0  -7   3  32060. 5144.91   1
   0  -7   3  30443. 5412.26   1
   0  -7   3  32667. 5048.30   1
   0  -7   3  24624. 4459.67   1
   0   7  -3  27275. 4385.53   1
   0   7  -3  37205. 6627.72   1
   0   7  -3  33521. 5034.82   1
   0   7  -3  32397. 4998.87   1
   0  -7   2  37654. 6674.90   1
   0  -7   2  31206. 5014.60   1
   0  -7   2  33161. 5917.77   1
   0   7  -2  32195. 4814.64   1
   0   7  -2  29948. 4812.40   1
   0   7  -2  37272. 5648.16   1
   0   7  -2  39632. 7041.11   1
   0  -7   1 285329.  50213.   1
   0  -7   1 233880.  37497.   1
   0  -7   1 200629.  35295.   1
   0   7  -1 198202.  29117.   1
   0   7  -1 186677.  29948.   1
   0   7  -1 199977.  29454.   1
   0   7  -1 190519.  33543.   1
   0  -7   0  30016. 5302.17   1
   0  -7   0  29948. 4810.15   1
   0  -7   0  27589. 4895.52   1
   0   7   0  25747. 3875.53   1
   0   7   0  28735. 4616.94   1
   0   7   0  29342. 4470.90   1
   0   7   0  26601. 4727.02   1
   0  -7  -1 127657.  20481.   1
   0  -7  -1 120917.  19380.   1
   0   7   1 130375.  20912.   1
   0   7   1 115098.  16971.   1
   0   7   1 114536.  16918.   1
   0  -7  -2 256347.  41092.   1
   0  -7  -2 247360.  39654.   1
   0   7   2 305774.  49000.   1
   0   7   2 226016.  33273.   1
   0   7   2 224084.  32936.   1
   0  -7  -3  18704. 3008.31   1
   0  -7  -3  19463. 3129.63   1
   0  -7  -3  20867. 3163.33   1
   0   7   3  18135. 2918.44   1
   0   7   3  20079. 3035.27   1
   0   7   3  19906. 3156.59   1
   0  -7  -4  93507.  15003.   1
   0  -7  -4  92900.  14900.   1
   0  -7  -4  96091.  14177.   1
   0   7   4  95125.  14049.   1
   0  -7  -5 164682.  26421.   1
   0  -7  -5 153246.  24579.   1
   0  -7  -5 172545.  25388.   1
   0   7   5 190227.  27971.   1
   0  -7  -6 9689.95 1565.71   1
   0  -7  -6  11730. 1844.98   1
   0   7   6  12229. 1925.41   1
   0  -7  -7  97034.  15558.   1
   0  -7  -7  87598.  12936.   1
   0   7   7  79780.  11795.   1
   0   7   8  79735.  11802.   1
   0  -7  -9 9117.04 1503.71   1
   0   7   9 8362.16 1408.45   1
   0  -7 -10  42283. 6319.92   1
   0   7  10  44911. 6744.55   1
   0   7  11  31768. 4888.78   1
   0  -8   8 4513.59 1085.15   1
   0  -8   7  74253.  13127.   1
   0   8  -7  50977. 7789.25   1
   0  -8   6  91777.  16196.   1
   0   8  -6  93215.  13846.   1
   0  -8   5 7497.18 1425.30   1
   0  -8   5 9966.29 1616.26   1
   0   8  -5  11229. 1926.08   1
   0  -8   4 138620.  24421.   1
   0  -8   4 120220.  19272.   1
   0   8  -4 130892.  19315.   1
   0  -8   3  17189. 2767.91   1
   0  -8   3  17279. 3109.41   1
   0   8  -3  13765. 2190.07   1
   0  -8   2 4452.93 889.687   1
   0  -8   2 5335.87 870.815   1
   0   8  -2 4028.30 753.088   1
   0  -8   1  17057. 3053.24   1
   0  -8   1  18477. 2972.36   1
   0  -8   1  19348. 3493.59   1
   0   8  -1  15841. 2455.63   1
   0   8  -1  14116. 2601.66   1
   0  -8   0 2195.68 462.368   1
   0  -8   0 3149.85 526.847   1
   0  -8   0 2236.57 538.979   1
   0   8   0 2134.57 526.623   1
   0   8   0 1890.58 496.293   1
   0  -8  -1  12096. 1951.25   1
   0   8   1  11579. 1816.44   1
   0  -8  -2  18510. 2979.10   1
   0   8   2  14846. 2302.85   1
   0  -8  -3  25410. 4084.47   1
   0   8   3  22188. 3352.05   1
   0  -8  -4  33498. 5380.81   1
   0   8   4  31072. 4652.88   1
   0  -8  -5  584.59 175.556   1
   0  -8  -5  501.68 343.069   1
   0   8   5 1036.17 449.561   1
   0  -8  -6  67333.  10804.   1
   0  -8  -6  61042. 9029.42   1
   0   8   6  58414. 8651.98   1
   0  -8  -7  26376. 3958.66   1
   0   8   7  29993. 4515.83   1
   0  -8  -8  16473. 2532.01   1
   0   8   8  14821. 2347.78   1
   0  -8  -9 114648.  16942.   1
   0   8   9 114401.  16913.   1
   0  -8 -10  28825. 4381.03   1
   0   8  10  30825. 4709.05   1
   0  -9   5 150775.  26578.   1
   0   9  -5 144979.  21476.   1
   0  -9   4 9096.82 1792.63   1
   0   9  -4 9728.14 1831.27   1
   0  -9   3  60908.  10793.   1
   0   9  -3  80027.  11903.   1
   0  -9   2 128465.  20613.   1
   0  -9   2 129724.  22871.   1
   0   9  -2 128915.  19016.   1
   0  -9   1  17472. 2815.09   1
   0  -9   1  16208. 2938.66   1
   0   9  -1  14736. 2325.32   1
   0  -9   0  72006.  11559.   1
   0   9   0  63199. 9364.18   1
   0  -9  -1 115030.  18448.   1
   0   9   1 104179.  15397.   1
   0  -9  -2 8894.62 1445.29   1
   0   9   2  11022. 1774.66   1
   0  -9  -3  21049. 3388.00   1
   0   9   3  21528. 3280.16   1
   0  -9  -4  20317. 3271.17   1
   0   9   4  20294. 3111.66   1
   0   9   5 1666.37 555.380   1
   0   9   6  21552. 3273.42   1
   0  -9  -7  378.34 489.552   1
   0   9   7  558.97 540.777   1
   0  -9  -8 4848.34 969.444   1
   0   9   8 5600.98 1157.04   1
   0  10  -3  23568. 3803.64   1
   0  10  -2  13206. 2266.90   1
   0  10  -1  70950.  10562.   1
   0  10   0  48753. 7288.24   1
   0  10   1  25769. 3924.96   1
   0  10   2  86093.  12739.   1
   0  10   3  32330. 4893.28   1
   0  10   4  28645. 4369.80   1
   0  10   5 103819.  15361.   1
   0  10   6  26017. 4026.06   1
  -1  10   5  46731. 7043.35   1
  -1  10   4  31072. 4740.50   1
  -1  10   3 102449.  15156.   1
  -1  10   2  11494. 1916.20   1
  -1  10   1  25792. 3956.41   1
  -1  10   0  80746.  11982.   1
  -1  10  -1 5915.52 1212.54   1
  -1  10  -2  17776. 2882.50   1
  -1  10  -3  19371. 3226.24   1
  -1   9   7 6692.87 1318.58   1
  -1   9   6 1345.54 670.860   1
  -1   9   5  35543. 5342.61   1
  -1   9   4  49854. 7420.80   1
  -1   9   3 5935.74 1059.54   1
  -1   9   2  73512.  10883.   1
   1  -9  -2 -539.43 195.506   1
  -1   9   1  54033. 8036.39   1
   1  -9  -1  58481. 9386.65   1
  -1   9   0 6353.62 1152.32   1
   1  -9   0 6151.42 1009.88   1
  -1   9  -1 197349.  29050.   1
   1  -9   1  698.04 194.495   1
  -1   9  -2 125140.  18490.   1
  -1   9  -3 7584.80 1405.30   1
   1  -9   3 4938.21 1182.88   1
  -1   9  -4 136823.  20213.   1
   1  -9   4 121119.  21397.   1
  -1   9  -5  49719. 7528.64   1
  -1   8   9  19528. 3089.19   1
   1  -8  -9  20577. 3183.55   1
  -1   8   8  19753. 3089.19   1
   1  -8  -8  23950. 3691.30   1
  -1   8   7  41721. 6221.07   1
   1  -8  -7  37385. 5580.76   1
  -1   8   6 2197.26 538.979   1
   1  -8  -6 3446.41 678.723   1
  -1   8   5  15089. 2345.54   1
   1  -8  -5  15738. 2536.51   1
  -1   8   4 9892.15 1572.00   1
   1  -8  -4 7820.71 1268.48   1
  -1   8   3 1048.75 463.716   1
   1  -8  -3 1121.99 221.950   1
  -1   8   2 2711.75 608.177   1
   1  -8  -2 2947.65 496.517   1
  -1   8   1 1825.66 493.147   1
   1  -8  -1 1538.08 287.126   1
  -1   8   0  49450. 7375.86   1
   1  -8   0  55021. 8836.21   1
  -1   8  -1  26017. 4621.43   1
  -1   8  -1  25882. 3906.98   1
   1  -8   1  31117. 5001.12   1
  -1   8  -2  39025. 6960.23   1
  -1   8  -2  61065. 9069.86   1
   1  -8   2  72568.  11640.   1
   1  -8   2  47023. 8350.92   1
   1  -8   2  59357.  10492.   1
  -1   8  -3  78409.  11600.   1
   1  -8   3  93013.  14920.   1
   1  -8   3  79622.  14060.   1
  -1   8  -4 1613.57 705.009   1
   1  -8   4 1203.32 248.483   1
   1  -8   4  766.79 568.186   1
  -1   8  -5  79308.  11779.   1
   1  -8   5  83779.  13449.   1
   1  -8   5  81982.  14500.   1
  -1   8  -6 120759.  17890.   1
   1  -8   6 137048.  21988.   1
   1  -8   6 113997.  20115.   1
  -1   8  -7  239.72 1054.14   1
   1  -8   7  755.56 675.578   1
  -1   7  10 3293.64 1007.64   1
   1  -7 -10 2275.89 669.736   1
  -1   7   9 115749.  17104.   1
   1  -7  -9  84610.  12543.   1
  -1   7   8  33588. 5043.81   1
   1  -7  -8  42350. 6304.20   1
  -1   7   7 7548.86 1281.06   1
   1  -7  -7 7378.11 1201.53   1
   1  -7  -7 9665.23 1538.08   1
  -1   7   6 117906.  17394.   1
   1  -7  -6 124646.  19993.   1
   1  -7  -6 121635.  17940.   1
  -1   7   5  87441.  12930.   1
   1  -7  -5  90878.  14581.   1
   1  -7  -5 103347.  15250.   1
  -1   7   4  10878. 1734.89   1
   1  -7  -4  11224. 1811.28   1
   1  -7  -4  16650. 2556.73   1
  -1   7   3 259941.  41698.   1
  -1   7   3 277241.  40732.   1
   1  -7  -3 237924.  38149.   1
   1  -7  -3 261065.  41856.   1
  -1   7   2 213997.  34329.   1
  -1   7   2 181083.  26646.   1
   1  -7  -2 164008.  26309.   1
   1  -7  -2 164188.  26331.   1
  -1   7   1  19825. 3192.54   1
  -1   7   1  10375. 1628.17   1
  -1   7   1  10022. 1788.59   1
   1  -7  -1  11301. 1828.58   1
   1  -7  -1  12602. 2031.45   1
  -1   7   0 214356.  34374.   1
  -1   7   0 140103.  20692.   1
  -1   7   0 128106.  18861.   1
   1  -7   0 151449.  24287.   1
  -1   7  -1 2207.59 517.636   1
  -1   7  -1 1393.39 283.981   1
  -1   7  -1 1488.20 843.405   1
  -1   7  -1 1512.69 446.865   1
   1  -7   1 1956.86 340.148   1
   1  -7   1 1689.51 379.914   1
   1  -7   1 1314.31 401.932   1
  -1   7  -2  49113. 7892.60   1
  -1   7  -2  58886.  10409.   1
  -1   7  -2  72343.  10699.   1
   1  -7   2  57178. 9175.46   1
   1  -7   2  38823. 6897.32   1
   1  -7   2  57897.  10220.   1
  -1   7  -3  46169. 8191.41   1
  -1   7  -3  65985. 9761.84   1
   1  -7   3  59110. 9485.50   1
   1  -7   3  55718. 9844.97   1
   1  -7   3  69108.  12238.   1
  -1   7  -4  433.83 516.063   1
   1  -7   4  708.15 170.613   1
   1  -7   4  341.05 326.443   1
  -1   7  -5 7517.40 1319.25   1
   1  -7   5 7476.96 1212.31   1
   1  -7   5 8150.97 1537.63   1
  -1   7  -6  10532. 1771.96   1
   1  -7   6  10447. 1688.38   1
   1  -7   6  11382. 2104.92   1
  -1   7  -7  21669. 3405.97   1
   1  -7   7  24556. 3947.42   1
   1  -7   7  21018. 3781.17   1
  -1   7  -8 9373.17 1796.22   1
   1  -7   8 7908.33 1286.90   1
   1  -7   8 7989.21 1559.87   1
   1  -7   9  13413. 2168.05   1
   1  -7   9  14284. 2642.10   1
  -1   6  11 1790.61 925.409   1
   1  -6 -11 2162.66 751.965   1
  -1   6  10 8097.05 1475.85   1
   1  -6 -10 6733.31 1195.69   1
  -1   6   9 6652.43 1152.10   1
   1  -6  -9 6951.24 1158.61   1
  -1   6   8 9375.41 1520.33   1
   1  -6  -8 8474.49 1373.62   1
   1  -6  -8 8766.56 1416.53   1
  -1   6   7  38463. 5762.74   1
   1  -6  -7  28825. 4630.42   1
   1  -6  -7  29746. 4493.37   1
  -1   6   6 2543.25 576.050   1
   1  -6  -6 2594.92 439.002   1
   1  -6  -6 2794.87 588.856   1
  -1   6   5  89733.  13260.   1
   1  -6  -5  73624.  11811.   1
   1  -6  -5  81038.  13011.   1
   1  -6  -5  84251.  12453.   1
  -1   6   4 160166.  25680.   1
  -1   6   4 146664.  21591.   1
  -1   6   4 138778.  20479.   1
   1  -6  -4 174118.  27926.   1
   1  -6  -4 143810.  23073.   1
   1  -6  -4 161604.  23792.   1
  -1   6   3 7638.73 1238.37   1
  -1   6   3 4756.23 847.224   1
  -1   6   3 6018.87 1132.78   1
   1  -6  -3 5639.18 919.343   1
   1  -6  -3 6461.46 1048.53   1
   1  -6  -3 5868.34 980.228   1
  -1   6   2 252527.  40485.   1
  -1   6   2 237474.  34936.   1
  -1   6   2 286003.  42035.   1
   1  -6  -2 216019.  34644.   1
   1  -6  -2 228712.  36666.   1
  -1   6   1 478768.  76814.   1
  -1   6   1 328016.  48191.   1
  -1   6   1 327342.  48102.   1
   1  -6  -1 410918.  65918.   1
  -1   6   0 1403.95 282.633   1
  -1   6   0  898.00 191.125   1
  -1   6   0 1365.31 530.442   1
  -1   6   0  904.51 387.778   1
   1  -6   0 1571.33 280.836   1
  -1   6  -1 263087.  46282.   1
  -1   6  -1 288924.  46304.   1
  -1   6  -1 310492.  45630.   1
  -1   6  -1 279937.  41114.   1
   1  -6   1 228488.  36621.   1
   1  -6   1 305324.  53718.   1
   1  -6   1 303078.  53314.   1
  -1   6  -2 276791.  48686.   1
  -1   6  -2 235677.  37789.   1
  -1   6  -2 241519.  35543.   1
  -1   6  -2 229162.  33700.   1
   1  -6   2 237474.  38104.   1
   1  -6   2 166255.  29274.   1
   1  -6   2 225118.  33161.   1
   1  -6   2 227814.  40081.   1
  -1   6  -3 8755.33 1619.19   1
  -1   6  -3 8470.00 1375.64   1
  -1   6  -3 8744.09 1503.93   1
  -1   6  -3 7800.49 1297.01   1
   1  -6   3 7629.74 1235.90   1
   1  -6   3 8099.30 1484.61   1
   1  -6   3 9525.94 1663.89   1
   1  -6   3 7339.92 1414.96   1
  -1   6  -4 114244.  20144.   1
  -1   6  -4 165738.  26578.   1
  -1   6  -4 140013.  20683.   1
  -1   6  -4 166322.  24466.   1
   1  -6   4 118984.  19074.   1
   1  -6   4 126354.  22289.   1
   1  -6   4 130712.  19321.   1
   1  -6   4 141901.  24983.   1
  -1   6  -5 208110.  30645.   1
   1  -6   5 223792.  35880.   1
   1  -6   5 206538.  36351.   1
  -1   6  -6 1996.63 575.600   1
   1  -6   6 3080.20 516.513   1
   1  -6   6 2043.13 520.781   1
  -1   6  -7  59447. 8847.44   1
   1  -6   7  47293. 7598.29   1
   1  -6   7  53583. 9476.51   1
  -1   6  -8  21573. 3365.53   1
   1  -6   8  27230. 4374.29   1
   1  -6   8  25477. 4542.79   1
  -1   6  -9 1081.78 877.105   1
   1  -6   9 1238.60 256.122   1
   1  -6   9 1677.15 532.015   1
   1  -6  10  13195. 2133.23   1
   1  -6  10  18722. 3388.00   1
  -1   5  11  11833. 2051.67   1
   1  -5 -11 7038.86 1279.26   1
  -1   5  10  59852.  10661.   1
   1  -5 -10  89238.  13179.   1
  -1   5   9  26713. 4814.64   1
   1  -5  -9  25410. 4086.72   1
   1  -5  -9  22759. 3464.39   1
  -1   5   8 3244.21 738.710   1
   1  -5  -8 1919.57 338.800   1
   1  -5  -8 1345.99 441.249   1
   1  -5  -8 2806.11 630.195   1
  -1   5   7  18340. 3282.41   1
  -1   5   7  24377. 4354.07   1
  -1   5   7  25028. 3785.66   1
   1  -5  -7  19957. 3556.50   1
   1  -5  -7  23658. 3801.39   1
   1  -5  -7  23051. 3480.11   1
   1  -5  -7  23298. 4142.89   1
  -1   5   6  21779. 3868.79   1
  -1   5   6  20189. 3581.21   1
  -1   5   6  18470. 2817.34   1
   1  -5  -6  20083. 3230.73   1
   1  -5  -6  16605. 2673.55   1
   1  -5  -6  21521. 3810.38   1
   1  -5  -6  16693. 2561.22   1
   1  -5  -6  23455. 4149.62   1
  -1   5   5  52505. 7845.42   1
  -1   5   5  53651. 7964.49   1
   1  -5  -5  59200. 9498.98   1
   1  -5  -5  56032. 8993.48   1
   1  -5  -5  53044. 7879.12   1
  -1   5   4  17147. 2756.68   1
  -1   5   4  16736. 2558.97   1
  -1   5   4  17396. 2709.50   1
   1  -5  -4  16983. 2588.18   1
  -1   5   3  40620. 6522.12   1
  -1   5   3  43136. 6434.50   1
  -1   5   3  43091. 6412.04   1
   1  -5  -3  42170. 6764.77   1
   1  -5  -3  38373. 6164.90   1
   1  -5  -3  45450. 6764.77   1
  -1   5   2 9424.84 1521.23   1
  -1   5   2  11593. 1804.54   1
  -1   5   2 9132.77 1463.71   1
   1  -5  -2  10324. 1663.22   1
   1  -5  -2 8822.73 1424.62   1
   1  -5  -2  11959. 1850.82   1
  -1   5   1 8427.31 1360.14   1
  -1   5   1 8009.43 1299.48   1
  -1   5   1 8103.79 1302.18   1
   1  -5  -1 6452.48 1047.18   1
  -1   5   0 212109.  37340.   1
  -1   5   0 205527.  32959.   1
  -1   5   0 188677.  27747.   1
  -1   5   0 196473.  28892.   1
   1  -5   0 271849.  43563.   1
   1  -5   0 156100.  27499.   1
   1  -5   0 166277.  29297.   1
  -1   5  -1  36329. 6418.78   1
  -1   5  -1  41946. 6731.06   1
  -1   5  -1  41047. 6113.23   1
  -1   5  -1  53606. 7944.27   1
   1  -5   1  38014. 6104.24   1
   1  -5   1  41024. 7241.06   1
   1  -5   1  51157. 7600.53   1
   1  -5   1  43383. 7663.44   1
  -1   5  -2  81195.  14316.   1
  -1   5  -2 131094.  21020.   1
  -1   5  -2 123702.  18221.   1
  -1   5  -2 101573.  14988.   1
   1  -5   2 101011.  16208.   1
   1  -5   2 119636.  21069.   1
   1  -5   2 107818.  15904.   1
   1  -5   2 113929.  20063.   1
  -1   5  -3 404178.  71108.   1
  -1   5  -3 281959.  45203.   1
  -1   5  -3 380813.  55920.   1
  -1   5  -3 354302.  52033.   1
   1  -5   3 261739.  41968.   1
   1  -5   3 454729.  79937.   1
   1  -5   3 331161.  48663.   1
   1  -5   3 402606.  70815.   1
  -1   5  -4  34846. 6180.63   1
  -1   5  -4  39227. 6295.21   1
  -1   5  -4  47293. 7052.34   1
   1  -5   4  35408. 5684.11   1
   1  -5   4  57448.  10162.   1
   1  -5   4  39227. 5890.81   1
   1  -5   4  33408. 5911.03   1
  -1   5  -5 129993.  22894.   1
  -1   5  -5 180319.  28937.   1
  -1   5  -5 149921.  22089.   1
   1  -5   5 146304.  23455.   1
   1  -5   5 136980.  24107.   1
   1  -5   5 144776.  21366.   1
   1  -5   5 144484.  25477.   1
  -1   5  -6 175668.  30937.   1
  -1   5  -6 242193.  35632.   1
   1  -5   6 205617.  36217.   1
   1  -5   6 196630.  31521.   1
   1  -5   6 187890.  27724.   1
   1  -5   6 168748.  29701.   1
  -1   5  -7  31701. 4787.68   1
   1  -5   7  23208. 3729.50   1
   1  -5   7  26354. 4709.05   1
  -1   5  -8  72186.  10714.   1
   1  -5   8 117165.  18791.   1
   1  -5   8  86340.  15237.   1
  -1   5  -9  81577.  12110.   1
   1  -5   9  92159.  14776.   1
   1  -5   9 102876.  18140.   1
  -1   5 -10 5448.21 1303.98   1
   1  -5  10 5353.85 876.207   1
   1  -5  10 4753.98 977.982   1
   1  -5  11  38036. 6113.23   1
   1  -5  11  34981. 6239.04   1
  -1   4  12  29701. 4778.70   1
   1  -4 -12  29454. 4536.06   1
  -1   4  11  75983.  12195.   1
   1  -4 -11  73399.  10874.   1
  -1   4  10  439.68 154.010   1
   1  -4 -10  547.29 160.009   1
   1  -4 -10  677.82 444.169   1
  -1   4   9 139609.  24601.   1
  -1   4   9  99775.  16008.   1
   1  -4  -9 118984.  19092.   1
   1  -4  -9 132936.  19591.   1
  -1   4   8 128241.  22602.   1
  -1   4   8 124556.  19978.   1
  -1   4   8 152145.  26825.   1
   1  -4  -8 128443.  20595.   1
   1  -4  -8 141856.  20885.   1
   1  -4  -8 104785.  18463.   1
  -1   4   7 5522.35 1106.72   1
  -1   4   7 5699.84 928.779   1
  -1   4   7 5776.22 1100.65   1
   1  -4  -7 4390.02 731.071   1
   1  -4  -7 5079.75 829.251   1
   1  -4  -7 5129.18 1006.29   1
   1  -4  -7 4329.36 791.731   1
  -1   4   6 247809.  43608.   1
  -1   4   6 290496.  51090.   1
  -1   4   6 201528.  29679.   1
   1  -4  -6 208537.  33453.   1
   1  -4  -6 203190.  32577.   1
   1  -4  -6 216827.  31880.   1
   1  -4  -6 257245.  45248.   1
  -1   4   5 224646.  39519.   1
  -1   4   5 260840.  45877.   1
  -1   4   5 219119.  32240.   1
   1  -4  -5 289148.  46372.   1
   1  -4  -5 289822.  46461.   1
   1  -4  -5 196068.  28870.   1
   1  -4  -5 322848.  56751.   1
  -1   4   4  872.84 209.481   1
  -1   4   4 1061.56 237.250   1
  -1   4   4  179.69 232.756   1
  -1   4   4  528.87 358.795   1
   1  -4  -4 1542.35 272.747   1
   1  -4  -4 1030.10 195.843   1
   1  -4  -4  646.15 151.022   1
   1  -4  -4  872.61 306.223   1
   1  -4  -4  650.19 158.211   1
  -1   4   3 334307.  53583.   1
  -1   4   3 211413.  31072.   1
  -1   4   3 319478.  46933.   1
   1  -4  -3 256796.  41182.   1
   1  -4  -3 243541.  39047.   1
   1  -4  -3 286003.  42013.   1
  -1   4   2 168928.  27095.   1
  -1   4   2 174500.  25680.   1
  -1   4   2 178454.  26241.   1
   1  -4  -2 162121.  25994.   1
   1  -4  -2 160189.  25680.   1
   1  -4  -2 189283.  27836.   1
  -1   4   1 2363.51 395.192   1
  -1   4   1 2520.78 501.235   1
  -1   4   1 4284.43 754.886   1
   1  -4  -1 2206.69 370.478   1
  -1   4   0 171085.  27432.   1
  -1   4   0 164143.  24152.   1
  -1   4   0 201595.  29634.   1
   1  -4   0 189935.  30443.   1
   1  -4   0 162525.  28623.   1
   1  -4   0 204493.  30061.   1
   1  -4   0 234554.  41294.   1
  -1   4  -1 166592.  29297.   1
  -1   4  -1 121209.  19434.   1
  -1   4  -1 149921.  22065.   1
  -1   4  -1 170389.  25051.   1
   1  -4   1 142238.  22804.   1
   1  -4   1 140171.  24669.   1
   1  -4   1 162413.  23905.   1
   1  -4   1 142732.  25118.   1
  -1   4  -2  51404. 9067.62   1
  -1   4  -2  86879.  13945.   1
  -1   4  -2  78589.  11624.   1
  -1   4  -2  62413. 9233.87   1
   1  -4   2  56212. 9022.68   1
   1  -4   2  65536.  11541.   1
   1  -4   2  78364.  11575.   1
   1  -4   2  55044. 9719.15   1
  -1   4  -3  30735. 5443.72   1
  -1   4  -3  21278. 3419.45   1
  -1   4  -3  23410. 3529.54   1
   1  -4   3  20834. 3349.81   1
   1  -4   3  20739. 3691.30   1
   1  -4   3  21734. 3289.15   1
   1  -4   3  21451. 3828.35   1
  -1   4  -4 7306.22 1354.08   1
  -1   4  -4 9896.64 1595.82   1
  -1   4  -4 8211.63 1336.78   1
   1  -4   4 7458.99 1207.14   1
   1  -4   4  10182. 1846.55   1
   1  -4   4 9501.23 1540.33   1
   1  -4   4 7748.81 1456.08   1
  -1   4  -5  28016. 4992.13   1
  -1   4  -5  50393. 8097.05   1
  -1   4  -5  38980. 5821.16   1
   1  -4   5  41856. 6722.08   1
   1  -4   5  32150. 5724.55   1
   1  -4   5  46664. 6964.72   1
   1  -4   5  32150. 5690.85   1
  -1   4  -6 1517.41 470.905   1
  -1   4  -6  917.10 243.091   1
  -1   4  -6 1078.63 470.456   1
   1  -4   6 1177.04 220.737   1
   1  -4   6 1258.37 329.813   1
   1  -4   6 2043.13 771.062   1
   1  -4   6  942.26 507.301   1
  -1   4  -7  85486.  12640.   1
   1  -4   7  75107.  12044.   1
   1  -4   7 106380.  18742.   1
   1  -4   7  65042. 9730.39   1
  -1   4  -8  28218. 4293.41   1
   1  -4   8  31791. 5104.47   1
   1  -4   8  30757. 5472.92   1
  -1   4  -9  19517. 3039.76   1
   1  -4   9  27454. 4412.49   1
   1  -4   9  20328. 3646.37   1
  -1   4 -10  94967.  14069.   1
   1  -4  10  91148.  14628.   1
   1  -4  10  96652.  17037.   1
  -1   4 -11  34644. 5313.41   1
   1  -4  11  37991. 6104.24   1
   1  -4  11  36127. 6412.04   1
   1  -4  12  26938. 4331.61   1
   1  -4  12  16891. 3062.23   1
  -1   3  12 4421.47 742.754   1
   1  -3 -12 1747.25 353.403   1
   1  -3 -12 5095.48 1082.90   1
  -1   3  11 1094.36 219.523   1
   1  -3 -11  598.07 185.958   1
   1  -3 -11 1784.99 606.155   1
  -1   3  10 8366.65 1609.97   1
  -1   3  10 6425.52 1045.38   1
   1  -3 -10 4603.46 756.458   1
   1  -3 -10 6283.98 1121.32   1
  -1   3   9 6820.93 1107.62   1
  -1   3   9 9593.34 1783.64   1
   1  -3  -9 6816.44 1106.04   1
   1  -3  -9 9121.54 1532.01   1
  -1   3   8 6791.73 1293.64   1
  -1   3   8 6218.82 1007.41   1
  -1   3   8 6928.77 1436.98   1
   1  -3  -8  10526. 1698.72   1
   1  -3  -8 7209.61 1193.89   1
   1  -3  -8 6784.99 1310.49   1
  -1   3   7  65401.  11548.   1
  -1   3   7  89440.  14354.   1
  -1   3   7  68299.  12069.   1
  -1   3   7  80162.  11923.   1
   1  -3  -7  94293.  15122.   1
   1  -3  -7  71579.  11483.   1
   1  -3  -7  64704. 9564.13   1
   1  -3  -7  79218.  13965.   1
  -1   3   6  57672.  10182.   1
  -1   3   6  47472. 7609.52   1
  -1   3   6  45024. 7962.25   1
  -1   3   6  32599. 4924.73   1
   1  -3  -6  32038. 5144.91   1
   1  -3  -6  38171. 6126.71   1
   1  -3  -6  36733. 5497.64   1
   1  -3  -6  33925. 5996.40   1
  -1   3   5 205369.  36127.   1
  -1   3   5 129342.  20744.   1
  -1   3   5 329589.  57964.   1
  -1   3   5 161829.  23815.   1
   1  -3  -5 178522.  28623.   1
   1  -3  -5 262188.  42035.   1
   1  -3  -5 279488.  41092.   1
   1  -3  -5 202763.  35677.   1
  -1   3   4 571107.  83846.   1
   1  -3  -4 610873.  98000.   1
   1  -3  -4 609301.  89463.   1
  -1   3   3  88969.  15671.   1
  -1   3   3  99393.  15942.   1
  -1   3   3  95462.  16807.   1
  -1   3   3  86048.  12692.   1
   1  -3  -3  87441.  14028.   1
   1  -3  -3  80207.  12867.   1
   1  -3  -3  96046.  14165.   1
   1  -3  -3  87913.  15477.   1
  -1   3   2 152460.  24444.   1
  -1   3   2 112514.  16565.   1
  -1   3   2 179555.  26399.   1
   1  -3  -2 113390.  18182.   1
   1  -3  -2 111638.  17902.   1
   1  -3  -2 135475.  19937.   1
  -1   3   0  20164. 3560.99   1
  -1   3   0  17861. 2869.02   1
  -1   3   0  25612. 3821.61   1
  -1   3   0  20962. 3149.85   1
   1  -3   0  18585. 2985.84   1
   1  -3   0  16439. 2904.96   1
   1  -3   0  21991. 3295.89   1
   1  -3   0  22307. 3940.68   1
  -1   3  -1 540777.  79330.   1
  -1   3  -1 731296. 107347.   1
   1  -3   1 601887.  88272.   1
  -1   3  -2 595596.  95529.   1
  -1   3  -2 610649.  89665.   1
   1  -3   2 587732.  86273.   1
  -1   3  -3  44642. 7885.86   1
  -1   3  -3  61986. 9948.32   1
  -1   3  -3  48214. 7148.95   1
   1  -3   3  39362. 6315.43   1
   1  -3   3  50910. 7544.37   1
   1  -3   3  53359. 9420.35   1
  -1   3  -4  51090. 9020.44   1
  -1   3  -4  74747.  11993.   1
  -1   3  -4  55987. 8319.47   1
   1  -3   4  62008. 9941.58   1
   1  -3   4  53134. 7881.37   1
   1  -3   4  52123. 9211.40   1
  -1   3  -5  93462.  16477.   1
  -1   3  -5 104561.  16774.   1
  -1   3  -5 118939.  17535.   1
   1  -3   5 114581.  18380.   1
   1  -3   5 104898.  15475.   1
   1  -3   5 107122.  18879.   1
  -1   3  -6 9429.33 1739.83   1
  -1   3  -6 7748.81 1255.00   1
  -1   3  -6  12932. 2014.38   1
   1  -3   6 7957.75 1288.02   1
   1  -3   6  10658. 1736.01   1
   1  -3   6 8845.19 1623.00   1
  -1   3  -7  97641.  17223.   1
  -1   3  -7  67805.  10876.   1
  -1   3  -7  53538. 7980.22   1
   1  -3   7  52303. 8395.86   1
   1  -3   7  52977. 7924.05   1
   1  -3   7  55763. 9851.71   1
  -1   3  -8  28308. 4266.45   1
   1  -3   8  33139. 5322.39   1
   1  -3   8  30398. 5401.03   1
   1  -3   8  26960. 4266.45   1
  -1   3  -9 4082.22 831.722   1
   1  -3   9 2857.78 480.116   1
   1  -3   9 2215.90 529.543   1
  -1   3 -10 2851.04 766.344   1
   1  -3  10 1767.92 315.434   1
   1  -3  10 4149.62 849.921   1
  -1   3 -11 2722.98 853.515   1
   1  -3  11 3516.06 581.667   1
   1  -3  11 5048.30 1035.05   1
  -1   3 -12  16374. 2761.17   1
   1  -3  12  16477. 2655.58   1
   1  -3  12  18746. 3396.99   1
  -1   2  12  61402. 9851.71   1
   1  -2 -12  81240.  13044.   1
   1  -2 -12  76297.  11361.   1
  -1   2  11  411.37 122.646   1
   1  -2 -11   -2.28 120.939   1
   1  -2 -11  558.75 527.072   1
  -1   2  10  97731.  15677.   1
  -1   2  10  72927.  12889.   1
   1  -2 -10  79353.  12730.   1
   1  -2 -10 102292.  15131.   1
  -1   2   9  67693.  10860.   1
  -1   2   9  61739.  10917.   1
   1  -2  -9  47046. 7544.37   1
   1  -2  -9  55179. 8180.18   1
  -1   2   8 1096.16 349.584   1
  -1   2   8 1279.94 228.712   1
  -1   2   8 1255.00 563.468   1
  -1   2   8 1931.70 1002.47   1
   1  -2  -8 1249.16 228.712   1
   1  -2  -8 1444.39 467.310   1
   1  -2  -8 1168.50 493.147   1
  -1   2   7  27028. 4807.90   1
  -1   2   7  34666. 5562.79   1
  -1   2   7  29769. 5304.42   1
  -1   2   7  33431. 5077.51   1
   1  -2  -7  28555. 4587.73   1
   1  -2  -7  25994. 4176.59   1
   1  -2  -7  25680. 3859.80   1
   1  -2  -7  44013. 7787.01   1
  -1   2   6  12887. 2320.82   1
  -1   2   6  11975. 1927.43   1
  -1   2   6  22287. 3972.14   1
  -1   2   6  15794. 2464.61   1
   1  -2  -6  13260. 2133.90   1
   1  -2  -6  17744. 2853.29   1
   1  -2  -6  15464. 2376.99   1
   1  -2  -6  13568. 2428.67   1
  -1   2   5  44192. 7811.72   1
  -1   2   5  29521. 4733.76   1
  -1   2   5  30645. 5432.48   1
  -1   2   5  29679. 4450.68   1
   1  -2  -5  31993. 5135.92   1
   1  -2  -5  36239. 5816.66   1
   1  -2  -5  28533. 4255.22   1
   1  -2  -5  40373. 7124.23   1
  -1   2   4  16574. 2956.64   1
  -1   2   4  12301. 1979.78   1
  -1   2   4  13808. 2466.86   1
  -1   2   4  13327. 2043.58   1
   1  -2  -4  16080. 2585.93   1
   1  -2  -4  13795. 2217.48   1
   1  -2  -4  13786. 2117.05   1
   1  -2  -4  11788. 2101.77   1
  -1   2   3  96832.  17043.   1
  -1   2   3  46416. 7450.00   1
  -1   2   3  62593.  11031.   1
  -1   2   3  48281. 7148.95   1
   1  -2  -3  51786. 8305.99   1
   1  -2  -3  50101. 8034.14   1
   1  -2  -3  72770.  10732.   1
   1  -2  -3  52775. 9294.53   1
  -1   2   2 115906.  20395.   1
  -1   2   2 138957.  22280.   1
  -1   2   2 189688.  33363.   1
  -1   2   2 231184.  33970.   1
   1  -2  -2 166951.  26780.   1
   1  -2  -2 117749.  18881.   1
   1  -2  -2 190901.  28061.   1
  -1   2   1  11209. 1804.09   1
  -1   2   1  11296. 1717.37   1
  -1   2   1  11310. 1720.96   1
   1  -2  -1 9827.00 1581.67   1
   1  -2  -1 9885.41 1591.33   1
   1  -2  -1  12105. 1829.92   1
  -1   2   0 305100.  44799.   1
  -1   2   0 285554.  41946.   1
   1  -2   0 294765.  47270.   1
   1  -2   0 318355.  46731.   1
  -1   2  -1 232532.  37295.   1
  -1   2  -1 257470.  37812.   1
   1  -2   1 279937.  41114.   1
  -1   2  -2 180813.  31813.   1
  -1   2  -2 230959.  37048.   1
  -1   2  -2 226466.  33273.   1
   1  -2   2 257695.  41317.   1
   1  -2   2 171894.  25253.   1
   1  -2   2 238148.  41878.   1
  -1   2  -3 722758. 106088.   1
   1  -2   3 604133.  88677.   1
  -1   2  -4 346439.  60908.   1
  -1   2  -4 321276.  51494.   1
  -1   2  -4 394742.  57987.   1
   1  -2   4 329813.  52864.   1
   1  -2   4 436980.  64165.   1
   1  -2   4 335205.  58975.   1
  -1   2  -5  42844. 7573.57   1
  -1   2  -5  54842. 8804.75   1
  -1   2  -5  44799. 6674.90   1
   1  -2   5  37362. 5998.65   1
   1  -2   5  40687. 6068.29   1
   1  -2   5  46911. 8299.25   1
  -1   2  -6 506852.  89148.   1
  -1   2  -6 444394.  71287.   1
  -1   2  -6 448438.  65873.   1
   1  -2   6 871264. 139654.   1
   1  -2   6 415187.  60975.   1
   1  -2   6 452707.  79578.   1
  -1   2  -7  55516. 9818.01   1
  -1   2  -7  54212. 8701.41   1
  -1   2  -7  48102. 7171.42   1
   1  -2   7  44260. 7099.52   1
   1  -2   7  43159. 6486.18   1
   1  -2   7  49157. 8694.67   1
  -1   2  -8  65850.  11633.   1
  -1   2  -8  67648.  10856.   1
  -1   2  -8  68479.  10157.   1
   1  -2   8 101797.  16329.   1
   1  -2   8  65289. 9759.59   1
   1  -2   8 107347.  18915.   1
  -1   2  -9 150618.  22190.   1
   1  -2   9 149472.  23972.   1
   1  -2   9 234329.  41227.   1
  -1   2 -10  61357. 9101.32   1
   1  -2  10  58032. 9310.26   1
   1  -2  10  50416. 8926.08   1
  -1   2 -11  42395. 6353.62   1
   1  -2  11  40238. 6461.46   1
   1  -2  11  50887. 9013.70   1
  -1   2 -12  48214. 7274.76   1
   1  -2  12  48888. 7849.91   1
   1  -2  12  50910. 9027.18   1
   1  -2  13 1206.92 263.536   1
   1  -2  13 1281.51 522.803   1
  -1   1  12  31162. 5007.86   1
   1  -1 -12  25051. 4030.55   1
   1  -1 -12  33588. 5133.67   1
  -1   1  11 101707.  17947.   1
  -1   1  11 112604.  18063.   1
   1  -1 -11 206717.  33139.   1
   1  -1 -11 126488.  18663.   1
  -1   1  10  26511. 4731.52   1
  -1   1  10  24219. 3891.26   1
   1  -1 -10  30735. 4935.96   1
   1  -1 -10  31948. 4796.67   1
  -1   1   9 154325.  24736.   1
  -1   1   9 181622.  31970.   1
   1  -1  -9 110627.  17747.   1
   1  -1  -9 103887.  15356.   1
  -1   1   8 243541.  42867.   1
  -1   1   8 206335.  33094.   1
  -1   1   8 193013.  33992.   1
  -1   1   8 211413.  31184.   1
   1  -1  -8 231408.  37115.   1
   1  -1  -8 254774.  40867.   1
   1  -1  -8 223141.  32802.   1
   1  -1  -8 226241.  39811.   1
  -1   1   7  33476. 5944.73   1
  -1   1   7  31701. 5086.49   1
  -1   1   7  45113. 7995.95   1
  -1   1   7  36958. 5580.76   1
   1  -1  -7  39834. 6391.82   1
   1  -1  -7  32891. 5281.95   1
   1  -1  -7  28421. 4268.70   1
   1  -1  -7  28465. 5050.55   1
  -1   1   6  84004.  13473.   1
  -1   1   6  74994.  11110.   1
   1  -1  -6  97821.  15686.   1
   1  -1  -6  69378.  11128.   1
   1  -1  -6  71624.  10584.   1
   1  -1  -6  69535.  12258.   1
  -1   1   5 448887.  78926.   1
  -1   1   5 412940.  66232.   1
  -1   1   5 448887.  78948.   1
  -1   1   5 425971.  62548.   1
   1  -1  -5 454954.  72882.   1
   1  -1  -5 454954.  72972.   1
   1  -1  -5 333633.  49023.   1
   1  -1  -5 334531.  58818.   1
  -1   1   4  15969. 2851.04   1
  -1   1   4  12554. 2019.32   1
  -1   1   4  12617. 2271.40   1
  -1   1   4  11712. 1809.70   1
   1  -1  -4  11741. 1891.26   1
   1  -1  -4  17003. 2731.97   1
   1  -1  -4 8928.32 1380.36   1
   1  -1  -4  10804. 1937.76   1
  -1   1   3 207661.  36531.   1
  -1   1   3 287351.  46079.   1
  -1   1   3 229162.  33678.   1
   1  -1  -3 334981.  53741.   1
   1  -1  -3 227589.  33431.   1
  -1   1   2 610873.  89620.   1
  -1   1   1  10040. 1787.91   1
  -1   1   1  12775. 2262.41   1
  -1   1   1  10842. 1743.65   1
  -1   1   1 7200.62 1106.27   1
  -1   1   1  10798. 1626.37   1
   1  -1  -1 8366.65 1346.66   1
   1  -1  -1 7854.41 1264.43   1
   1  -1  -1 9431.58 1425.75   1
   1  -1  -1 9397.88 1675.80   1
   1  -1  -1 9707.92 1722.76   1
  -1   1   0 251179.  36891.   1
   1  -1   0 290047.  42575.   1
  -1   1  -1  32150. 5672.88   1
  -1   1  -1  35767. 5740.28   1
  -1   1  -1  29095. 4306.89   1
   1  -1   1  31813. 5104.47   1
   1  -1   1  29611. 4385.53   1
   1  -1   1  30398. 5365.08   1
  -1   1  -2  38239. 6749.04   1
  -1   1  -2  35902. 5758.25   1
  -1   1  -2  45113. 6674.90   1
   1  -1   2  44889. 7198.38   1
   1  -1   2  39407. 5827.90   1
   1  -1   2  36194. 6394.06   1
  -1   1  -3  17578. 3131.88   1
  -1   1  -3  18717. 3006.06   1
  -1   1  -3  18973. 2866.77   1
   1  -1   3  18090. 2907.21   1
   1  -1   3  18061. 2720.73   1
   1  -1   3  21009. 3738.48   1
  -1   1  -4  64030.  11294.   1
  -1   1  -4  55044. 8831.71   1
  -1   1  -4  59897. 8867.66   1
   1  -1   4  50505. 8097.05   1
   1  -1   4  49225. 7306.22   1
   1  -1   4  44102. 7802.73   1
  -1   1  -5  55066. 9719.15   1
  -1   1  -5  44215. 7101.77   1
  -1   1  -5  66996. 9923.60   1
   1  -1   5  61312. 9831.49   1
   1  -1   5  55718. 8267.80   1
   1  -1   5  69917.  12341.   1
  -1   1  -6 1629.07 403.280   1
  -1   1  -6 2332.06 390.024   1
  -1   1  -6 1281.73 414.513   1
   1  -1   6 1472.48 256.796   1
   1  -1   6 1116.15 460.346   1
   1  -1   6 1910.13 468.883   1
  -1   1  -7 117210.  20647.   1
  -1   1  -7 144642.  23208.   1
  -1   1  -7  94630.  13965.   1
   1  -1   7 108852.  17468.   1
   1  -1   7 109751.  16210.   1
   1  -1   7 115637.  20380.   1
  -1   1  -8  58391.  10321.   1
  -1   1  -8  66659.  10692.   1
  -1   1  -8  66547. 9867.44   1
   1  -1   8  98652.  15823.   1
   1  -1   8  68389.  10213.   1
   1  -1   8  78162.  13795.   1
  -1   1  -9 1308.69 483.262   1
   1  -1   9 1917.99 325.994   1
   1  -1   9 2208.72 535.385   1
  -1   1 -10 113053.  16700.   1
   1  -1  10 150685.  24174.   1
   1  -1  10 105954.  18679.   1
  -1   1 -11 101146.  14952.   1
   1  -1  11  95192.  15264.   1
   1  -1  11  99573.  17560.   1
  -1   1 -12 3104.92 798.921   1
   1  -1  12 5077.51 836.440   1
   1  -1  12 4210.29 915.973   1
   1  -1  13 123455.  19802.   1
   1  -1  13 218018.  38373.   1
  -1   0  12 8634.01 1403.05   1
   1   0 -12 7335.42 1201.30   1
   1   0 -12 7499.43 1518.31   1
  -1   0  11 2054.82 570.658   1
  -1   0  11 1552.68 278.139   1
   1   0 -11 2284.88 393.170   1
   1   0 -11 3370.03 830.374   1
  -1   0  10  84655.  13581.   1
  -1   0  10 150505.  26511.   1
   1   0 -10  89890.  14419.   1
   1   0 -10  78567.  11633.   1
  -1   0   9  27567. 4915.74   1
  -1   0   9  20813. 3347.56   1
   1   0  -9  19872. 3197.03   1
   1   0  -9  22534. 3419.45   1
  -1   0   8  30038. 5380.81   1
  -1   0   8  27859. 4479.89   1
  -1   0   8  36194. 6421.02   1
  -1   0   8  20126. 3237.47   1
   1   0  -8  17490. 2817.34   1
   1   0  -8  21054. 3179.06   1
   1   0  -8  22826. 4091.21   1
  -1   0   7 151134.  26601.   1
  -1   0   7 121186.  19436.   1
  -1   0   7 103617.  18281.   1
  -1   0   7 113727.  16814.   1
   1   0  -7 156661.  25140.   1
   1   0  -7 115817.  17082.   1
   1   0  -7 111076.  19571.   1
  -1   0   6  72995.  12885.   1
  -1   0   6  63379.  10166.   1
  -1   0   6  58796.  10389.   1
  -1   0   6  59020. 8768.81   1
   1   0  -6  54370. 8721.63   1
   1   0  -6  56279. 8330.70   1
   1   0  -6  63042.  11126.   1
  -1   0   5  47383. 8373.39   1
  -1   0   5  41249. 6616.48   1
  -1   0   5  48012. 8490.22   1
  -1   0   5  44439. 6614.24   1
   1   0  -5  47675. 7647.71   1
   1   0  -5  40508. 6025.61   1
   1   0  -5  55605. 9809.02   1
  -1   0   3 424399.  62301.   1
   1   0  -3 387778.  56931.   1
  -1   0   2 274769.  40350.   1
   1   0  -2 219321.  38576.   1
  -1   0  -1 217546.  31948.   1
   1   0   1 212806.  31251.   1
  -1   0  -3 7899.34 1434.06   1
  -1   0  -3 8353.17 1345.99   1
  -1   0  -3 7274.76 1147.16   1
   1   0   3  11332. 1823.41   1
   1   0   3 9755.10 1519.43   1
   1   0   3 8912.59 1625.48   1
  -1   0  -4  73489.  12954.   1
  -1   0  -4  54549. 8750.83   1
  -1   0  -4  55987. 8301.50   1
   1   0   4  47338. 7587.05   1
   1   0   4  50303. 7467.98   1
   1   0   4  53201. 9400.13   1
  -1   0  -5 182363.  32083.   1
  -1   0  -5 137475.  22047.   1
  -1   0  -5 139946.  20616.   1
   1   0   5 120669.  19351.   1
   1   0   5 140710.  20728.   1
   1   0   5 136913.  24107.   1
  -1   0  -6  45316. 8000.44   1
  -1   0  -6  52101. 8357.66   1
  -1   0  -6  55381. 8209.38   1
   1   0   6  76185.  12231.   1
   1   0   6  48933. 7292.74   1
   1   0   6  59357.  10494.   1
  -1   0  -7  22894. 4077.73   1
  -1   0  -7  17050. 2740.95   1
  -1   0  -7  15161. 2350.03   1
   1   0   7  16500. 2653.33   1
   1   0   7  16565. 2594.92   1
   1   0   7  33588. 5969.44   1
  -1   0  -8 4868.56 967.197   1
  -1   0  -8 3109.41 523.927   1
  -1   0  -8 3401.48 647.270   1
   1   0   8 2590.43 432.487   1
   1   0   8 3853.06 997.752   1
   1   0   8 3327.34 696.921   1
  -1   0  -9 7773.53 1311.16   1
   1   0   9 9355.19 1511.34   1
   1   0   9 8773.30 1628.62   1
  -1   0 -10  16293. 2547.74   1
   1   0  10  18560. 2985.84   1
   1   0  10  17522. 3161.08   1
  -1   0 -11  16549. 2594.92   1
   1   0  11  19101. 3073.46   1
   1   0  11  22211. 3981.12   1
  -1   0 -12  42889. 6423.27   1
   1   0  12  51876. 8326.21   1
   1   0  12  45877. 8146.48   1
  -1   0 -13 1237.47 264.435   1
  -1   0 -13 2446.64 883.171   1
   1   0  13 2004.49 386.879   1
   1   0  13 1574.48 645.697   1
  -1  -1  12  38328. 6153.67   1
  -1  -1  12  38958. 6937.76   1
   1   1 -12  39766. 6387.32   1
   1   1 -12  38396. 5929.00   1
  -1  -1  11  10061. 1625.25   1
  -1  -1  11  13271. 2433.16   1
   1   1 -11  10955. 1769.04   1
   1   1 -11  13029. 2170.07   1
  -1  -1  10  20737. 3331.83   1
  -1  -1  10  36464. 6472.70   1
   1   1 -10  22624. 3466.63   1
  -1  -1   9  46866. 8303.74   1
  -1  -1   9  45024. 7227.58   1
   1   1  -9  49719. 7402.82   1
  -1  -1   8 4909.00 952.594   1
  -1  -1   8 3293.64 868.119   1
  -1  -1   8 3455.40 1132.33   1
  -1  -1   8 2574.70 428.892   1
   1   1  -8 1892.61 533.812   1
   1   1  -8 3163.33 681.195   1
  -1  -1   7  47315. 8398.10   1
  -1  -1   7  42799. 7578.06   1
  -1  -1   7  57785. 8616.03   1
  -1  -1   7  54055. 8681.19   1
   1   1  -7  55853. 8968.76   1
   1   1  -7  56819. 8402.60   1
   1   1  -7  50932. 8997.97   1
  -1  -1   6  19771. 3534.03   1
  -1  -1   6  19081. 3066.72   1
  -1  -1   6  26196. 4673.10   1
  -1  -1   6  22357. 3417.21   1
   1   1  -6  24242. 3891.26   1
   1   1  -6  20851. 3154.34   1
   1   1  -6  28151. 4994.38   1
  -1  -1   5  95731.  16873.   1
  -1  -1   5 102404.  16430.   1
  -1  -1   5 102089.  17989.   1
  -1  -1   5 106223.  15657.   1
   1   1  -5 100629.  16145.   1
   1   1  -5 101348.  14918.   1
   1   1  -5  96225.  16951.   1
  -1  -1   4  18086. 3239.72   1
  -1  -1   4  31431. 5041.56   1
  -1  -1   4  18823. 3363.29   1
  -1  -1   4  16226. 2455.63   1
   1   1  -4  19775. 3176.81   1
   1   1  -4  16924. 2558.97   1
   1   1  -4  15621. 2788.13   1
  -1  -1   3 483711.  85059.   1
  -1  -1   3 296338.  43518.   1
   1   1  -3 262413.  42080.   1
   1   1  -3 252977.  37138.   1
   1   1  -2 334531.  49090.   1
  -1  -1   1  10550. 1889.46   1
  -1  -1   1 8663.21 1576.72   1
  -1  -1   1  12368. 1830.37   1
  -1  -1   1  10227. 1643.22   1
   1   1  -1 9184.44 1476.75   1
   1   1  -1  11350. 2026.73   1
   1   1  -1 8150.97 1211.64   1
   1   1  -1  13116. 2356.77   1
  -1  -1  -2  18120. 3215.00   1
  -1  -1  -2  13934. 2236.80   1
  -1  -1  -2  11031. 1666.37   1
   1   1   2  17630. 2828.58   1
   1   1   2  13700. 2067.17   1
   1   1   2  17807. 3167.82   1
  -1  -1  -3 100449.  17686.   1
  -1  -1  -3 141316.  22647.   1
  -1  -1  -3 106538.  15680.   1
   1   1   3 120220.  19270.   1
   1   1   3 120332.  17717.   1
   1   1   3 161267.  28376.   1
  -1  -1  -4 301056.  52909.   1
  -1  -1  -4 284880.  45630.   1
  -1  -1  -4 283307.  41609.   1
   1   1   4 274769.  40373.   1
  -1  -1  -5  22826. 4050.77   1
  -1  -1  -5  19441. 3122.89   1
  -1  -1  -5  20231. 3059.98   1
   1   1   5  22579. 3626.15   1
   1   1   5  20687. 3158.84   1
   1   1   5  22031. 3927.20   1
  -1  -1  -6 654908. 104965.   1
  -1  -1  -6 659851.  96810.   1
   1   1   6 531790.  78140.   1
  -1  -1  -7 283756.  49921.   1
  -1  -1  -7 297236.  47607.   1
  -1  -1  -7 307346.  45158.   1
   1   1   7 283981.  45518.   1
   1   1   7 262637.  38620.   1
   1   1   7 270051.  47540.   1
  -1  -1  -8 2191.19 532.464   1
  -1  -1  -8 2462.37 422.152   1
  -1  -1  -8 1367.33 405.302   1
   1   1   8 1813.07 310.492   1
   1   1   8 2563.47 880.251   1
   1   1   8 1390.92 391.372   1
  -1  -1  -9 195798.  28802.   1
   1   1   9 200045.  32083.   1
   1   1   9 299258.  52640.   1
  -1  -1 -10  57133. 8517.18   1
   1   1  10  84835.  13604.   1
   1   1  10  30802. 5490.90   1
  -1  -1 -11  16666. 2572.45   1
   1   1  11  22692. 3648.61   1
   1   1  11  14498. 2633.11   1
  -1  -1 -12  57515. 9227.13   1
  -1  -1 -12  63806. 9481.01   1
   1   1  12  49989. 8022.91   1
   1   1  12  52280. 9269.82   1
  -1  -1 -13 2803.86 508.874   1
  -1  -1 -13 4300.15 964.726   1
   1   1  13 3307.12 567.962   1
  -1  -2  12  19263. 3100.42   1
  -1  -2  12  24916. 4491.12   1
   1   2 -12  21139. 3401.48   1
  -1  -2  11 149899.  26399.   1
  -1  -2  11 174747.  28016.   1
   1   2 -11 145855.  21568.   1
  -1  -2  10  52505. 8420.57   1
  -1  -2  10  35632. 6324.42   1
   1   2 -10  62885. 9364.18   1
  -1  -2   9  15666. 2520.78   1
  -1  -2   9  13920. 2523.03   1
   1   2  -9  16194. 2500.56   1
  -1  -2   8 205257.  36127.   1
  -1  -2   8 187194.  30016.   1
  -1  -2   8 197102.  29072.   1
   1   2  -8 199618.  29364.   1
  -1  -2   7  59470.  10508.   1
  -1  -2   7 100449.  16115.   1
  -1  -2   7  44889. 7980.22   1
  -1  -2   7  55965. 8355.42   1
   1   2  -7  78724.  12640.   1
   1   2  -7  72208.  10676.   1
   1   2  -7  70591.  12465.   1
  -1  -2   6  96518.  17021.   1
  -1  -2   6  91395.  14662.   1
  -1  -2   6  96158.  16965.   1
  -1  -2   6  94091.  13893.   1
   1   2  -6 112963.  18115.   1
   1   2  -6  93103.  13736.   1
   1   2  -6 110717.  19508.   1
  -1  -2   5 311615.  54797.   1
  -1  -2   5 305998.  49045.   1
  -1  -2   5 183779.  32352.   1
  -1  -2   5 330712.  48573.   1
   1   2  -5 340822.  54662.   1
   1   2  -5 320602.  47113.   1
   1   2  -5 299708.  52707.   1
  -1  -2   4  46304. 8193.66   1
  -1  -2   4  28892. 4639.40   1
  -1  -2   4  36104. 6398.56   1
  -1  -2   4  30757. 4580.99   1
   1   2  -4  29454. 4731.52   1
   1   2  -4  29881. 4450.68   1
   1   2  -4  27252. 4830.37   1
  -1  -2   3  22408. 3990.11   1
  -1  -2   3  22602. 3630.64   1
  -1  -2   3  25522. 4540.55   1
  -1  -2   3  23455. 3486.85   1
   1   2  -3  24242. 3891.26   1
   1   2  -3  26354. 3915.97   1
   1   2  -3  23860. 4237.25   1
  -1  -2   2 127836.  22512.   1
  -1  -2   2 122691.  19672.   1
  -1  -2   2 144260.  25410.   1
  -1  -2   2 125320.  18416.   1
   1   2  -2 164278.  26354.   1
   1   2  -2 146776.  21573.   1
   1   2  -2 115210.  20288.   1
  -1  -2   1  82071.  14466.   1
  -1  -2   1  75646.  12137.   1
  -1  -2   1  91170.  16062.   1
  -1  -2   1  86115.  12662.   1
   1   2  -1  85599.  13720.   1
   1   2  -1  69917.  12337.   1
   1   2  -1  84520.  12420.   1
   1   2  -1  91440.  16100.   1
  -1  -2   0  59425.  10472.   1
  -1  -2   0  53583. 9456.29   1
  -1  -2   0  56886. 9132.77   1
  -1  -2   0  83487.  12265.   1
   1   2   0  60323. 8872.16   1
   1   2   0  65019.  10418.   1
   1   2   0  89620.  15781.   1
   1   2   0  66592. 9791.05   1
   1   2   0  72545.  12795.   1
  -1  -2  -1 5760.50 1050.32   1
  -1  -2  -1 6960.23 1118.40   1
  -1  -2  -1 6358.12 1019.77   1
  -1  -2  -1 6070.54 932.823   1
  -1  -2  -1 8508.19 1533.36   1
   1   2   1 6555.82 1053.25   1
   1   2   1 5794.20 898.449   1
   1   2   1 5358.34 997.303   1
   1   2   1 5057.29 932.599   1
  -1  -2  -2  38958. 6250.27   1
  -1  -2  -2  61087. 9797.79   1
  -1  -2  -2  31970. 4736.01   1
   1   2   2  36396. 5841.38   1
   1   2   2  21869. 3880.02   1
   1   2   2  33790. 5016.85   1
  -1  -2  -3 6665.91 1214.11   1
  -1  -2  -3 7816.21 1257.02   1
  -1  -2  -3 5106.71 827.454   1
   1   2   3 6825.43 1098.63   1
   1   2   3 5729.04 946.753   1
   1   2   3 5881.82 1088.52   1
  -1  -2  -4  44394. 7843.17   1
  -1  -2  -4  48641. 7800.49   1
  -1  -2  -4  40777. 6054.81   1
   1   2   4  47383. 7596.04   1
   1   2   4  38913. 5800.94   1
   1   2   4  78162.  13777.   1
  -1  -2  -5 242417.  42642.   1
  -1  -2  -5 179353.  28758.   1
  -1  -2  -5 155156.  22826.   1
   1   2   5 181510.  29095.   1
   1   2   5 163244.  24040.   1
   1   2   5 186565.  32824.   1
  -1  -2  -6  14318. 2565.71   1
  -1  -2  -6  17032. 2738.71   1
  -1  -2  -6  14356. 2208.27   1
   1   2   6  13896. 2234.78   1
   1   2   6  12957. 2058.64   1
   1   2   6  10517. 1918.44   1
  -1  -2  -7 222040.  39070.   1
  -1  -2  -7 301730.  48394.   1
  -1  -2  -7 277690.  40822.   1
   1   2   7 294990.  47293.   1
   1   2   7 246911.  36351.   1
   1   2   7 317906.  55920.   1
  -1  -2  -8 138935.  24466.   1
  -1  -2  -8 162076.  25994.   1
  -1  -2  -8 159133.  23410.   1
   1   2   8 186722.  29926.   1
   1   2   8 162997.  24062.   1
   1   2   8 131611.  23186.   1
  -1  -2  -9 5884.07 1028.76   1
   1   2   9 2314.08 392.720   1
   1   2   9 2882.50 630.419   1
  -1  -2 -10 105212.  16877.   1
  -1  -2 -10 139654.  20573.   1
   1   2  10 100674.  16149.   1
   1   2  10 175151.  30847.   1
  -1  -2 -11 187913.  30128.   1
  -1  -2 -11 117726.  17389.   1
   1   2  11 141811.  22736.   1
   1   2  11 121905.  21501.   1
  -1  -2 -12  420.35 169.715   1
  -1  -2 -12  261.51 443.720   1
   1   2  12  422.38 152.415   1
  -1  -2 -13  68659.  10207.   1
   1   2  13  36688. 5897.55   1
  -1  -3  12 4432.71 743.203   1
  -1  -3  12 3468.88 818.242   1
  -1  -3  11 1694.67 310.716   1
  -1  -3  11 1501.23 510.896   1
   1   3 -11 1176.59 1165.58   1
  -1  -3  10  64839.  10407.   1
  -1  -3  10  49539. 8771.05   1
   1   3 -10  50348. 7564.58   1
  -1  -3   9 117120.  18789.   1
  -1  -3   9 123927.  21840.   1
   1   3  -9 138710.  20452.   1
  -1  -3   8 9265.33 1702.76   1
  -1  -3   8 8305.99 1342.62   1
  -1  -3   8 8346.43 1647.49   1
   1   3  -8 9314.75 1548.41   1
  -1  -3   7 212604.  37430.   1
  -1  -3   7 270501.  43383.   1
  -1  -3   7 271399.  47720.   1
  -1  -3   7 157493.  23231.   1
   1   3  -7 186070.  29836.   1
   1   3  -7 196832.  28960.   1
   1   3  -7 181128.  31903.   1
  -1  -3   6 315884.  50663.   1
  -1  -3   6 224556.  33049.   1
   1   3  -6 247135.  39632.   1
   1   3  -6 237025.  34846.   1
   1   3  -6 200449.  35273.   1
  -1  -3   5  784.54 275.893   1
  -1  -3   5 1297.24 228.263   1
  -1  -3   5 1002.70 395.866   1
  -1  -3   5 2891.48 580.094   1
   1   3  -5  934.40 181.173   1
   1   3  -5 2633.11 575.376   1
   1   3  -5  955.51 343.743   1
  -1  -3   4 514715.  90496.   1
  -1  -3   4 594473.  87261.   1
   1   3  -4 736014. 118041.   1
   1   3  -4 695573. 122242.   1
   1   3  -4 594922.  87329.   1
  -1  -3   3 329364.  57942.   1
  -1  -3   3 309144.  49539.   1
  -1  -3   3 314086.  55246.   1
  -1  -3   3 277690.  40777.   1
   1   3  -3 317681.  50977.   1
   1   3  -3 348236.  51135.   1
   1   3  -3 532239.  93597.   1
  -1  -3   2  59874.  10573.   1
  -1  -3   2  41878. 6719.83   1
  -1  -3   2  43878. 7751.06   1
  -1  -3   2  47517. 7009.65   1
   1   3  -2  46843. 7510.66   1
   1   3  -2  49000. 7229.83   1
   1   3  -2  44799. 7915.07   1
  -1  -3  -1  59649.  10517.   1
  -1  -3  -1  70119.  11242.   1
  -1  -3  -1  61739.  10885.   1
  -1  -3  -1  84790.  12487.   1
   1   3   1  70097.  10324.   1
   1   3   1  73197.  11743.   1
   1   3   1  64727.  11411.   1
   1   3   1  44147. 7787.01   1
  -1  -3  -2 151898.  26736.   1
  -1  -3  -2 186924.  29971.   1
  -1  -3  -2 156347.  27499.   1
  -1  -3  -2 238822.  35093.   1
   1   3   2 189418.  30375.   1
   1   3   2 181307.  26646.   1
   1   3   2 185621.  32644.   1
  -1  -3  -3 116693.  18710.   1
  -1  -3  -3 156077.  25006.   1
  -1  -3  -3 131678.  19375.   1
   1   3   3 130083.  20858.   1
   1   3   3 130375.  19191.   1
   1   3   3 114042.  20076.   1
  -1  -3  -4  12285. 1974.39   1
  -1  -3  -4  10449. 1679.62   1
  -1  -3  -4 7169.17 1306.90   1
  -1  -3  -4 9595.59 1499.66   1
   1   3   4  11063. 1779.60   1
   1   3   4 6686.13 1229.61   1
   1   3   4  11469. 1802.07   1
  -1  -3  -5  59807. 9591.09   1
  -1  -3  -5  62840.  10081.   1
  -1  -3  -5  53471. 9438.32   1
  -1  -3  -5  36891. 5495.39   1
   1   3   5  49944. 8022.91   1
   1   3   5  44956. 6704.10   1
   1   3   5  51921. 9170.96   1
  -1  -3  -6  681.19 263.985   1
  -1  -3  -6  647.04 137.272   1
  -1  -3  -6 1286.90 356.998   1
  -1  -3  -6  444.17 114.918   1
   1   3   6  361.27  85.149   1
   1   3   6  693.78 462.143   1
   1   3   6  387.33 257.470   1
  -1  -3  -7 7420.80 1200.63   1
  -1  -3  -7 8171.19 1320.60   1
  -1  -3  -7 7263.53 1343.29   1
  -1  -3  -7 5926.75 1007.64   1
   1   3   7 6740.05 1089.42   1
   1   3   7 8283.52 1532.01   1
   1   3   7 7090.53 1328.91   1
  -1  -3  -8 3343.07 552.460   1
  -1  -3  -8 5059.53 831.722   1
  -1  -3  -8 4342.84 875.083   1
  -1  -3  -8 4607.95 810.154   1
   1   3   8 4113.68 669.736   1
   1   3   8 4136.15 818.242   1
   1   3   8 5203.32 1172.99   1
  -1  -3  -9  24309. 3904.74   1
  -1  -3  -9  26736. 4035.04   1
   1   3   9  27320. 4385.53   1
   1   3   9  23321. 4169.85   1
  -1  -3 -10  28802. 4628.17   1
  -1  -3 -10  34621. 5207.81   1
   1   3  10  30218. 4857.33   1
   1   3  10  30577. 5450.46   1
  -1  -3 -11 2208.72 390.474   1
  -1  -3 -11 1891.71 500.561   1
   1   3  11 2002.02 348.910   1
   1   3  11 1884.97 574.477   1
  -1  -3 -12  57335. 8521.67   1
   1   3  12  59492. 9543.91   1
  -1  -3 -13 9525.94 1626.37   1
   1   3  13 8153.22 1333.18   1
  -1  -4  11 4592.22 768.141   1
  -1  -4  11 5326.89 1069.20   1
  -1  -4  10  18567. 3340.82   1
  -1  -4  10  16839. 2709.50   1
   1   4 -10  17904. 2997.08   1
  -1  -4   9  14201. 2563.47   1
  -1  -4   9  23860. 3832.84   1
   1   4  -9  14687. 2403.95   1
  -1  -4   8  933.72 187.171   1
  -1  -4   8  966.97 341.496   1
   1   4  -8 1392.94 660.525   1
  -1  -4   7 6072.79 1140.42   1
  -1  -4   7 6135.69 995.056   1
  -1  -4   7 6095.25 1286.90   1
   1   4  -7 6524.37 1159.96   1
  -1  -4   6  347.56 503.033   1
  -1  -4   6  112.24  88.879   1
  -1  -4   6 1485.06 381.262   1
  -1  -4   6  -82.32 596.495   1
   1   4  -6  -57.92 146.731   1
   1   4  -6  614.24 393.619   1
   1   4  -6 2111.66 583.913   1
  -1  -4   5  88250.  15561.   1
  -1  -4   5  86857.  13938.   1
  -1  -4   5  90946.  16046.   1
  -1  -4   5  83217.  12292.   1
   1   4  -5  82251.  13188.   1
   1   4  -5  99955.  14738.   1
   1   4  -5  83240.  14684.   1
  -1  -4   4  30712. 5452.70   1
  -1  -4   4  36711. 5897.55   1
  -1  -4   4  33947. 6036.84   1
  -1  -4   4  34419. 5126.93   1
   1   4  -4  46664. 7488.20   1
   1   4  -4  36104. 5396.54   1
   1   4  -4  40013. 7083.79   1
  -1  -4   3 105976.  18686.   1
  -1  -4   3  76634.  12289.   1
  -1  -4   3  63559.  11213.   1
  -1  -4   3  78791.  11609.   1
   1   4  -3  69378.  11137.   1
   1   4  -3  87014.  12820.   1
   1   4  -3  77937.  13743.   1
  -1  -4   2 305774.  53808.   1
  -1  -4   2 335205.  58975.   1
  -1  -4   2 317681.  50977.   1
  -1  -4   2 368007.  54033.   1
   1   4  -2 332959.  53426.   1
   1   4  -2 334756.  58863.   1
   1   4  -2 378791.  55605.   1
   1   4  -2 359469.  52775.   1
  -1  -4   1  22714. 3646.37   1
  -1  -4   1  38868. 6881.59   1
  -1  -4   1  19796. 2965.62   1
  -1  -4   1  18701. 3327.34   1
   1   4  -1  18394. 3293.64   1
   1   4  -1  22579. 3623.90   1
   1   4  -1  22781. 3403.73   1
   1   4  -1  17450. 2619.63   1
   1   4  -1  22096. 3922.71   1
  -1  -4   0 270950.  43428.   1
  -1  -4   0 289598.  50955.   1
   1   4   0 244664.  43046.   1
   1   4   0 261739.  41968.   1
   1   4   0 270276.  39676.   1
   1   4   0 292968.  43002.   1
   1   4   0 238598.  41946.   1
   1   4   1 562120.  82521.   1
   1   4   1 545495.  80027.   1
  -1  -4  -2 7569.08 1366.88   1
  -1  -4  -2 6178.38 995.056   1
  -1  -4  -2 6209.83 1000.22   1
  -1  -4  -2 7980.22 1250.05   1
  -1  -4  -2 7906.08 1426.19   1
   1   4   2 6753.53 1087.17   1
   1   4   2 7241.06 1323.30   1
   1   4   2 6888.33 1113.01   1
  -1  -4  -3 251853.  44282.   1
  -1  -4  -3 400808.  58886.   1
   1   4   3 358571.  52662.   1
  -1  -4  -4 172455.  30353.   1
  -1  -4  -4 175241.  28106.   1
  -1  -4  -4 166255.  26646.   1
  -1  -4  -4 175107.  25747.   1
  -1  -4  -4 200157.  35206.   1
   1   4   4 191597.  33700.   1
   1   4   4 177915.  26174.   1
  -1  -4  -5  14192. 2549.99   1
  -1  -4  -5  15799. 2541.00   1
  -1  -4  -5  10434. 1678.50   1
  -1  -4  -5 8793.52 1392.94   1
  -1  -4  -5 8750.83 1584.36   1
   1   4   5 9716.91 1565.94   1
   1   4   5 9982.02 1619.41   1
   1   4   5  15862. 2833.07   1
  -1  -4  -6 286902.  50438.   1
  -1  -4  -6 175174.  28084.   1
  -1  -4  -6 169198.  24916.   1
  -1  -4  -6 234329.  37587.   1
   1   4   6 188744.  30263.   1
   1   4   6 192451.  28353.   1
   1   4   6 194114.  34150.   1
  -1  -4  -7 332285.  58436.   1
  -1  -4  -7 258144.  41384.   1
  -1  -4  -7 210874.  31004.   1
  -1  -4  -7 279038.  44731.   1
   1   4   7 145360.  23298.   1
   1   4   7 197349.  29095.   1
   1   4   7 182521.  32128.   1
  -1  -4  -8 1723.43 323.747   1
  -1  -4  -8 1017.75 200.022   1
  -1  -4  -8 1041.56 382.161   1
  -1  -4  -8  711.08 419.456   1
   1   4   8  401.48 116.895   1
   1   4   8  731.74 314.760   1
  -1  -4  -9  94316.  15120.   1
  -1  -4  -9 100090.  14779.   1
   1   4   9  81397.  13058.   1
   1   4   9 162143.  28555.   1
  -1  -4 -10  36441. 5848.12   1
  -1  -4 -10  55808. 8272.29   1
   1   4  10  49360. 7919.56   1
   1   4  10  52572. 9308.01   1
  -1  -4 -11   81.53 156.729   1
  -1  -4 -11  865.65 430.240   1
   1   4  11 1436.98 273.646   1
  -1  -4 -12  19468. 3008.31   1
   1   4  12  18724. 3015.05   1
  -1  -4 -13 4219.27 1016.18   1
  -1  -5  11  62772.  10065.   1
  -1  -5  11  94338.  16641.   1
  -1  -5  10  51606. 8281.28   1
  -1  -5  10  76095.  13431.   1
  -1  -5   9  13840. 2228.94   1
  -1  -5   9  13458. 2430.91   1
   1   5  -9  16646. 2731.97   1
  -1  -5   8 142260.  22804.   1
  -1  -5   8 138643.  24421.   1
   1   5  -8 146259.  21586.   1
  -1  -5   7 108402.  17389.   1
  -1  -5   7  94159.  16612.   1
   1   5  -7  92788.  13743.   1
  -1  -5   6 8526.17 1559.42   1
  -1  -5   6  11352. 1830.15   1
  -1  -5   6  11335. 1926.98   1
   1   5  -6  13060. 2090.99   1
  -1  -5   5 137991.  24332.   1
  -1  -5   5 139834.  24624.   1
  -1  -5   5 150865.  22242.   1
  -1  -5   5 148012.  23725.   1
   1   5  -5 159941.  25657.   1
   1   5  -5 176544.  25972.   1
   1   5  -5 156122.  27499.   1
  -1  -5   4  15545. 2815.09   1
  -1  -5   4  15313. 2743.20   1
  -1  -5   4  19110. 2925.18   1
  -1  -5   4  17340. 2790.38   1
   1   5  -4  19135. 3077.96   1
   1   5  -4  18185. 2788.13   1
   1   5  -4  17131. 3082.45   1
  -1  -5   3  22024. 3538.53   1
  -1  -5   3  32712. 5798.69   1
  -1  -5   3  22366. 3370.03   1
  -1  -5   3  28263. 5037.07   1
   1   5  -3  22871. 3675.58   1
   1   5  -3  23523. 4192.31   1
   1   5  -3  22438. 3370.03   1
   1   5  -3  31229. 4668.61   1
  -1  -5   2  11018. 2018.65   1
  -1  -5   2 8150.97 1482.14   1
  -1  -5   2 6537.85 1056.84   1
  -1  -5   2 7778.02 1254.77   1
   1   5  -2 7434.28 1201.08   1
   1   5  -2 7456.74 1375.64   1
   1   5  -2 9777.57 1547.07   1
   1   5  -2 8285.77 1326.22   1
  -1  -5   1 1519.66 343.967   1
  -1  -5   1  841.61 157.987   1
  -1  -5   1 3104.92 662.547   1
   1   5  -1  794.20 156.549   1
   1   5  -1 1116.60 320.826   1
   1   5  -1  724.33 263.761   1
   1   5  -1 1133.90 365.086   1
  -1  -5   0  21874. 3873.28   1
  -1  -5   0  27454. 4875.30   1
  -1  -5   0  20103. 3228.48   1
   1   5   0  19957. 3556.50   1
   1   5   0  21986. 3529.54   1
   1   5   0  24579. 3673.33   1
   1   5   0  22849. 3435.18   1
   1   5   0  20346. 3623.90   1
  -1  -5  -1  18506. 3282.41   1
  -1  -5  -1  12568. 2253.42   1
  -1  -5  -1  12963. 2084.02   1
  -1  -5  -1  14219. 2163.56   1
   1   5   1  12548. 1937.99   1
   1   5   1  11258. 1809.93   1
   1   5   1  10312. 1862.05   1
   1   5   1  13033. 2005.84   1
   1   5   1  13644. 2442.15   1
  -1  -5  -2  19562. 3468.88   1
  -1  -5  -2  31117. 4994.38   1
  -1  -5  -2  31813. 5102.22   1
  -1  -5  -2  31836. 5625.70   1
  -1  -5  -2  34487. 5131.43   1
   1   5   2  27724. 4156.37   1
   1   5   2  31117. 4992.13   1
   1   5   2  24961. 4428.21   1
   1   5   2  26399. 3958.66   1
  -1  -5  -3  13943. 2487.08   1
  -1  -5  -3  10568. 1698.94   1
  -1  -5  -3  11517. 1853.51   1
  -1  -5  -3  14127. 2166.03   1
  -1  -5  -3  12617. 2251.18   1
   1   5   3  13923. 2237.47   1
   1   5   3 9411.36 1699.17   1
   1   5   3  12359. 1931.25   1
  -1  -5  -4  94743.  16686.   1
  -1  -5  -4  49989. 8018.41   1
  -1  -5  -4  66794.  10721.   1
  -1  -5  -4  53044. 7865.64   1
  -1  -5  -4  68030.  11988.   1
   1   5   4  45922. 8108.28   1
   1   5   4  64053. 9498.98   1
  -1  -5  -5 188632.  33184.   1
  -1  -5  -5 190766.  30600.   1
  -1  -5  -5 198113.  31768.   1
  -1  -5  -5 252752.  37138.   1
  -1  -5  -5 199528.  35116.   1
   1   5   5 297910.  52415.   1
   1   5   5 216468.  31880.   1
  -1  -5  -6  74657.  11968.   1
  -1  -5  -6  46035. 7389.34   1
  -1  -5  -6  51000. 7560.09   1
   1   5   6  58931. 8807.00   1
   1   5   6  39002. 6908.55   1
  -1  -5  -7  34397. 6104.24   1
  -1  -5  -7  46686. 7488.20   1
  -1  -5  -7  47203. 7582.56   1
  -1  -5  -7  45720. 6805.21   1
  -1  -5  -7  45518. 8049.87   1
   1   5   7  56437. 9056.38   1
   1   5   7  32689. 5803.18   1
   1   5   7  41766. 6340.14   1
  -1  -5  -8 292294.  51427.   1
  -1  -5  -8 187688.  30083.   1
  -1  -5  -8 201550.  29656.   1
  -1  -5  -8 259267.  45608.   1
   1   5   8 223590.  35857.   1
   1   5   8 333857.  58728.   1
  -1  -5  -9 9478.76 1532.01   1
  -1  -5  -9  14302. 2592.67   1
  -1  -5  -9  10568. 1690.41   1
   1   5   9  10386. 1676.03   1
   1   5   9 8640.75 1631.77   1
  -1  -5 -10  91485.  14682.   1
  -1  -5 -10  74747.  13215.   1
  -1  -5 -10 107257.  15837.   1
   1   5  10  90114.  14448.   1
   1   5  10  98719.  17446.   1
  -1  -5 -11 126691.  22363.   1
  -1  -5 -11 167153.  24624.   1
   1   5  11 117277.  18809.   1
  -1  -5 -12  17639. 2745.45   1
   1   5  12  17286. 2792.63   1
  -1  -6   9  60189.  10643.   1
  -1  -6   9  65963.  10586.   1
   1   6  -9  49360. 7553.35   1
  -1  -6   8 3423.95 572.680   1
  -1  -6   8 3024.04 657.155   1
   1   6  -8 1931.92 1028.31   1
  -1  -6   7 103662.  16634.   1
  -1  -6   7 132869.  23410.   1
   1   6  -7  94653.  14040.   1
  -1  -6   6 259267.  41586.   1
  -1  -6   6 251629.  44282.   1
   1   6  -6 278589.  40957.   1
  -1  -6   5  14931. 2687.03   1
  -1  -6   5  13094. 2108.96   1
  -1  -6   5  12105. 2042.46   1
   1   6  -5  16841. 2608.40   1
   1   6  -5  18474. 2947.65   1
  -1  -6   4 116176.  20505.   1
  -1  -6   4  97551.  17183.   1
  -1  -6   4 109526.  17558.   1
  -1  -6   4 133992.  19780.   1
   1   6  -4 129476.  19126.   1
   1   6  -4 121096.  19425.   1
   1   6  -4 138598.  20413.   1
   1   6  -4 104628.  18461.   1
  -1  -6   3 233206.  41069.   1
  -1  -6   3 230959.  40620.   1
  -1  -6   3 251179.  40283.   1
  -1  -6   3 264435.  38890.   1
   1   6  -3 260615.  41788.   1
   1   6  -3 256347.  45091.   1
   1   6  -3 305998.  45001.   1
   1   6  -3 292743.  43046.   1
  -1  -6   2 4095.70 866.771   1
  -1  -6   2 2329.81 389.350   1
  -1  -6   2 2543.25 513.367   1
   1   6  -2 2536.51 430.465   1
   1   6  -2 3109.41 663.895   1
   1   6  -2 2702.76 552.010   1
   1   6  -2 3664.34 745.000   1
  -1  -6   1 334981.  58886.   1
  -1  -6   1 331835.  53224.   1
  -1  -6   1 368906.  64862.   1
   1   6  -1 321500.  51539.   1
   1   6  -1 379914.  66839.   1
   1   6  -1 370703.  54437.   1
   1   6  -1 361716.  53134.   1
  -1  -6   0 301280.  53022.   1
  -1  -6   0 240845.  38620.   1
  -1  -6   0 260166.  45765.   1
   1   6   0 239272.  38351.   1
   1   6   0 233430.  41047.   1
   1   6   0 268928.  39542.   1
   1   6   0 247135.  36351.   1
  -1  -6  -1 2961.13 571.332   1
  -1  -6  -1 3540.77 696.472   1
  -1  -6  -1 3232.98 528.645   1
   1   6   1 2437.65 520.781   1
   1   6   1 3001.57 492.473   1
   1   6   1 3053.24 683.666   1
   1   6   1 4088.97 733.992   1
   1   6   1 2630.87 539.878   1
  -1  -6  -2 150438.  26466.   1
  -1  -6  -2  98045.  15725.   1
  -1  -6  -2  90047.  14442.   1
  -1  -6  -2  96315.  16958.   1
  -1  -6  -2  97978.  14448.   1
   1   6   2  88677.  13112.   1
   1   6   2  85846.  13756.   1
   1   6   2  88991.  15684.   1
   1   6   2  90946.  13404.   1
  -1  -6  -3  36014. 6358.12   1
  -1  -6  -3  44552. 7151.19   1
  -1  -6  -3  32712. 5248.25   1
  -1  -6  -3  35745. 6308.69   1
  -1  -6  -3  41317. 6153.67   1
   1   6   3  32217. 5167.37   1
   1   6   3  32599. 4911.25   1
   1   6   3  44080. 6549.08   1
   1   6   3  41069. 7256.79   1
  -1  -6  -4 1598.74 347.113   1
  -1  -6  -4 2184.00 430.465   1
  -1  -6  -4 2567.96 426.421   1
  -1  -6  -4 1965.17 437.879   1
  -1  -6  -4 3064.48 505.279   1
   1   6   4 2017.52 452.482   1
   1   6   4 1948.10 472.028   1
   1   6   4 2060.21 652.212   1
  -1  -6  -5  28196. 4987.64   1
  -1  -6  -5  30712. 4931.47   1
  -1  -6  -5  33678. 5407.77   1
  -1  -6  -5  28533. 4275.44   1
  -1  -6  -5  30465. 5389.79   1
   1   6   5  35385. 5371.82   1
   1   6   5  42687. 7546.61   1
  -1  -6  -6 3808.13 623.230   1
  -1  -6  -6 4201.30 692.877   1
  -1  -6  -6 3666.59 705.234   1
  -1  -6  -6 3008.31 599.865   1
  -1  -6  -6 5270.72 992.810   1
   1   6   6 3185.80 656.706   1
  -1  -6  -7  32038. 5142.66   1
  -1  -6  -7  38845. 6232.30   1
  -1  -6  -7  39564. 7002.91   1
  -1  -6  -7  39294. 5854.86   1
  -1  -6  -7  46147. 8157.71   1
   1   6   7  72411.  12790.   1
  -1  -6  -8 1348.68 253.875   1
  -1  -6  -8 1269.60 473.601   1
  -1  -6  -8 1238.60 409.795   1
   1   6   8 1419.90 531.565   1
  -1  -6  -9  16387. 2639.85   1
  -1  -6  -9  21290. 3848.57   1
  -1  -6  -9  15439. 2376.99   1
   1   6   9  23141. 4187.82   1
  -1  -6 -10  10580. 2068.75   1
  -1  -6 -10  14365. 2227.81   1
   1   6  10 7353.40 1623.45   1
  -1  -6 -11  395.42 515.614   1
  -1  -6 -12  75826.  11256.   1
  -1  -7   9 2421.93 663.895   1
  -1  -7   8 6407.54 1237.70   1
   1   7  -8 3898.00 1458.32   1
  -1  -7   7  12642. 2040.89   1
  -1  -7   7  11384. 2076.16   1
   1   7  -7  10966. 2036.84   1
  -1  -7   6 1383.96 410.918   1
  -1  -7   6 1229.61 251.404   1
   1   7  -6 1383.96 815.546   1
  -1  -7   5  70456.  11308.   1
  -1  -7   5  77713.  13712.   1
   1   7  -5  80566.  11948.   1
  -1  -7   4  50056. 8854.18   1
  -1  -7   4  53718. 8613.79   1
   1   7  -4  54100. 8038.63   1
   1   7  -4  63312. 9528.19   1
  -1  -7   3  58257.  10288.   1
  -1  -7   3  68704.  11031.   1
  -1  -7   3  55538. 9860.70   1
   1   7  -3  64233. 9521.45   1
   1   7  -3  63851.  10249.   1
   1   7  -3  64794. 9676.47   1
   1   7  -3  43945. 7807.23   1
  -1  -7   2 146506.  25792.   1
  -1  -7   2 139923.  22433.   1
  -1  -7   2 104111.  18380.   1
   1   7  -2 118468.  17446.   1
   1   7  -2 119748.  19211.   1
   1   7  -2 138373.  20431.   1
   1   7  -2 145787.  25702.   1
  -1  -7   1  18535. 3298.13   1
  -1  -7   1  21481. 3450.91   1
  -1  -7   1  19180. 3450.91   1
   1   7  -1  19106. 2927.43   1
   1   7  -1  18794. 3024.04   1
   1   7  -1  18809. 2940.91   1
   1   7  -1  36037. 6396.31   1
  -1  -7   0 101325.  17843.   1
  -1  -7   0 104898.  16823.   1
  -1  -7   0 106246.  18724.   1
   1   7   0 103303.  15228.   1
   1   7   0 109885.  17625.   1
   1   7   0 113031.  16704.   1
   1   7   0  97933.  17259.   1
  -1  -7  -1 243990.  42957.   1
  -1  -7  -1 268254.  43024.   1
  -1  -7  -1 260615.  45855.   1
   1   7   1 262188.  42035.   1
   1   7   1 304650.  53606.   1
   1   7   1 314536.  46192.   1
   1   7   1 233206.  34329.   1
  -1  -7  -2  31746. 5616.71   1
  -1  -7  -2  41496. 6659.17   1
  -1  -7  -2  40598. 6515.38   1
  -1  -7  -2  35273. 6225.56   1
   1   7   2  41069. 6587.28   1
   1   7   2  35453. 5360.59   1
   1   7   2  35565. 5306.67   1
  -1  -7  -3  75938.  13381.   1
  -1  -7  -3  83914.  13464.   1
  -1  -7  -3  98764.  15844.   1
  -1  -7  -3  72478.  12777.   1
  -1  -7  -3  99618.  14696.   1
   1   7   3  78387.  12568.   1
   1   7   3  78656.  11681.   1
   1   7   3  88137.  13020.   1
  -1  -7  -4 178634.  31499.   1
  -1  -7  -4 211952.  33992.   1
  -1  -7  -4 201168.  32262.   1
  -1  -7  -4 186452.  32869.   1
  -1  -7  -4 282633.  41541.   1
   1   7   4 227814.  33476.   1
   1   7   4 210132.  30982.   1
   1   7   4 196158.  34554.   1
  -1  -7  -5  32240. 5699.84   1
  -1  -7  -5  44350. 7113.00   1
  -1  -7  -5  37565. 6027.85   1
  -1  -7  -5  38194. 5693.10   1
  -1  -7  -5  30577. 5405.52   1
   1   7   5  34060. 5090.99   1
   1   7   5  37969. 6710.85   1
  -1  -7  -6  56234. 9921.36   1
  -1  -7  -6  53134. 8523.92   1
  -1  -7  -6  53246. 9400.13   1
  -1  -7  -6  62233. 9211.40   1
  -1  -7  -6  57942. 9299.02   1
   1   7   6  55471. 8243.08   1
   1   7   6  48304. 8530.66   1
  -1  -7  -7 100314.  17690.   1
  -1  -7  -7 118827.  19059.   1
  -1  -7  -7 123141.  21703.   1
  -1  -7  -7 119209.  17576.   1
   1   7   7 125253.  18457.   1
   1   7   7  93619.  16518.   1
  -1  -7  -8 2891.48 763.199   1
  -1  -7  -8 2484.83 438.553   1
  -1  -7  -8 2999.32 619.635   1
   1   7   8 3412.71 693.776   1
   1   7   8 2846.55 806.560   1
  -1  -7  -9  15900. 2929.68   1
  -1  -7  -9  25657. 3864.30   1
   1   7   9  18706. 3462.14   1
  -1  -7 -10  30173. 4558.52   1
  -1  -7 -11  793.53 586.160   1
   1   7  11 1325.09 647.045   1
  -1  -8   8  46169. 8191.41   1
  -1  -8   7  45675. 8094.80   1
  -1  -8   6 2124.24 578.521   1
   1   8  -6 2388.23 1364.64   1
  -1  -8   5  53696. 8618.28   1
  -1  -8   5  52977. 9375.41   1
   1   8  -5  56774. 8517.18   1
  -1  -8   4  26511. 4259.71   1
  -1  -8   4  29297. 5221.29   1
   1   8  -4  29948. 4565.26   1
  -1  -8   3 8281.28 1341.49   1
  -1  -8   3 9334.97 1722.53   1
   1   8  -3  10009. 1671.08   1
  -1  -8   2 1930.13 340.148   1
  -1  -8   2 1849.25 483.711   1
   1   8  -2 1526.85 502.808   1
  -1  -8   1  38441. 6845.65   1
  -1  -8   1  30398. 4882.04   1
  -1  -8   1  29858. 5302.17   1
   1   8  -1  22489. 3619.41   1
   1   8  -1  29432. 4410.24   1
   1   8  -1  19508. 3554.25   1
  -1  -8   0  13485. 2417.43   1
  -1  -8   0  13543. 2180.86   1
  -1  -8   0  16066. 2911.70   1
   1   8   0  14071. 2271.40   1
   1   8   0  12134. 1878.90   1
   1   8   0  11602. 2177.49   1
  -1  -8  -1 1749.72 328.465   1
  -1  -8  -1 2005.39 341.721   1
  -1  -8  -1 2125.81 550.887   1
  -1  -8  -1 1651.54 378.566   1
   1   8   1 1927.65 351.157   1
   1   8   1 1707.03 492.473   1
   1   8   1 1828.35 552.235   1
  -1  -8  -2  60593.  10685.   1
  -1  -8  -2  66682.  10694.   1
  -1  -8  -2  65289.  10470.   1
  -1  -8  -2  81982.  14464.   1
   1   8   2  65760.  10546.   1
   1   8   2  58908. 8719.38   1
  -1  -8  -3  36778. 5904.29   1
  -1  -8  -3  44305. 7113.00   1
   1   8   3  37183. 5969.44   1
   1   8   3  34150. 5108.96   1
  -1  -8  -4  23366. 3760.95   1
  -1  -8  -4  22406. 3601.43   1
  -1  -8  -4  25477. 3846.32   1
   1   8   4  19825. 3028.53   1
  -1  -8  -5 132599.  21265.   1
  -1  -8  -5 159335.  23455.   1
   1   8   5 162323.  23882.   1
  -1  -8  -6  62256. 9986.51   1
  -1  -8  -6  81802.  12085.   1
   1   8   6  79038.  11689.   1
  -1  -8  -7  19744. 3181.30   1
  -1  -8  -7  33678. 5039.31   1
   1   8   7  28039. 4228.26   1
  -1  -8  -8 118288.  17439.   1
   1   8   8 132801.  19575.   1
  -1  -8  -9  39205. 5877.33   1
   1   8   9  38441. 5803.18   1
  -1  -8 -10  14518. 2289.37   1
   1   8  10  14779. 2397.21   1
  -1  -9   6  97214.  17169.   1
  -1  -9   5  17102. 3136.37   1
   1   9  -5  15812. 2873.51   1
  -1  -9   4  53628. 9503.47   1
   1   9  -4  59335. 8939.56   1
  -1  -9   3  89957.  15884.   1
   1   9  -3  96405.  14309.   1
  -1  -9   2  30353. 5414.51   1
  -1  -9   2  32330. 5196.58   1
   1   9  -2  27814. 4252.97   1
  -1  -9   1  16515. 2662.32   1
  -1  -9   1  14961. 2722.98   1
   1   9  -1  19077. 2945.40   1
  -1  -9   0  98517.  15805.   1
  -1  -9   0  89261.  15740.   1
   1   9   0  92586.  13669.   1
  -1  -9  -1 4989.88 938.215   1
  -1  -9  -1 6818.69 1113.68   1
  -1  -9  -1 4079.98 860.031   1
   1   9   1 6510.89 1154.57   1
  -1  -9  -2  31633. 5084.25   1
   1   9   2  32869. 4920.24   1
  -1  -9  -3  11179. 1807.01   1
   1   9   3  12851. 2057.51   1
  -1  -9  -4 3093.68 543.248   1
   1   9   4 3161.08 704.785   1
  -1  -9  -5  18000. 2904.96   1
  -1  -9  -5  19926. 3035.27   1
   1   9   5  19539. 2997.08   1
  -1  -9  -6  -82.77 244.439   1
  -1  -9  -6  125.10 349.584   1
   1   9   6  365.54 464.839   1
  -1  -9  -7  16347. 2527.52   1
   1   9   7  17169. 2687.03   1
  -1  -9  -8  984.95 602.111   1
   1   9   8  970.12 606.380   1
  -1  -9  -9  31903. 4839.36   1
   1   9   9  33588. 5108.96   1
   1  10  -3  10546. 2269.15   1
   1  10  -2 110222.  16358.   1
   1  10  -1  54886. 8216.12   1
   1  10   0  17475. 2788.13   1
  -1 -10  -1 115794.  18573.   1
   1  10   1 180454.  26578.   1
  -1 -10  -2  20755. 3345.31   1
   1  10   2  35273. 5320.15   1
  -1 -10  -3  17308. 2792.63   1
   1  10   3  21575. 3311.61   1
   1  10   4  80678.  11943.   1
   1  10   5  28735. 4374.29   1
   1  10   6  14042. 2275.89   1
   1  10   7  41182. 6209.83   1
   1  11   1  108.81 1186.02   1
   1  11   2  39205. 6030.10   1
   1  11   3  29724. 4709.05   1
  -2  10   4  72478.  10780.   1
  -2  10   3  17794. 2846.55   1
  -2  10   2  25185. 3906.98   1
  -2  10   1  85689.  12723.   1
  -2  10   0 5607.72 1185.13   1
  -2  10  -1  10409. 1813.30   1
  -2  10  -2  12847. 2234.55   1
  -2  10  -3 3619.41 1387.55   1
  -2   9   6  51764. 7775.77   1
  -2   9   5  27949. 4255.22   1
  -2   9   4 3293.64 815.322   1
  -2   9   3 102022.  15071.   1
  -2   9   2  76522.  11328.   1
  -2   9   1 5645.92 1027.41   1
  -2   9   0 119434.  17623.   1
  -2   9  -1 112402.  16592.   1
  -2   9  -2 5066.27 1040.44   1
  -2   9  -3  73983.  10984.   1
  -2   9  -4  51292. 7699.39   1
  -2   9  -5 8501.45 1731.74   1
  -2   8   8  20672. 3286.90   1
  -2   8   7 4670.86 1038.19   1
  -2   8   6 5281.95 1014.38   1
  -2   8   5 9849.46 1616.71   1
  -2   8   4 8335.20 1351.60   1
   2  -8  -4 9404.62 1525.50   1
  -2   8   3  17731. 2747.69   1
   2  -8  -3  14262. 2300.60   1
  -2   8   2 9496.73 1529.32   1
   2  -8  -2 7178.16 1168.50   1
  -2   8   1  67131. 9970.78   1
   2  -8  -1  91148.  14628.   1
  -2   8   0  15194. 2354.52   1
   2  -8   0  14844. 2392.72   1
  -2   8  -1  60885. 9027.18   1
   2  -8   1  83127.  13336.   1
  -2   8  -2 146753.  21638.   1
   2  -8   2 164659.  26399.   1
  -2   8  -3 5281.95 1014.60   1
   2  -8   3 5735.78 941.585   1
   2  -8   3 4511.34 1018.65   1
  -2   8  -4 122377.  18070.   1
   2  -8   4 103729.  16632.   1
   2  -8   4  88362.  15619.   1
  -2   8  -5  83082.  12319.   1
   2  -8   5  92384.  14815.   1
   2  -8   5  90721.  16048.   1
  -2   8  -6 1848.80 831.947   1
   2  -8   6 1269.83 265.109   1
   2  -8   6 1454.73 766.119   1
  -2   8  -7  65985. 9896.64   1
   2  -8   7  63716.  11310.   1
  -2   7   9  41856. 6355.87   1
   2  -7  -9  38598. 5785.21   1
  -2   7   8 3212.76 815.097   1
   2  -7  -8 2913.95 691.305   1
  -2   7   7  84745.  12516.   1
   2  -7  -7  88115.  13024.   1
  -2   7   6  72051.  10672.   1
   2  -7  -6  85868.  13772.   1
   2  -7  -6  77623.  11478.   1
  -2   7   5 1864.07 553.134   1
   2  -7  -5  917.10 200.180   1
  -2   7   4 134150.  19769.   1
   2  -7  -4 139991.  22458.   1
  -2   7   3  47832. 7126.48   1
   2  -7  -3  49405. 7926.30   1
  -2   7   2  17324. 2666.81   1
   2  -7  -2  23366. 3758.70   1
  -2   7   1  58436. 8656.47   1
   2  -7  -1  64255.  10303.   1
  -2   7   0  16075. 2480.34   1
   2  -7   0  19191. 3089.19   1
  -2   7  -1  43518. 6474.94   1
   2  -7   1  52752. 8467.75   1
  -2   7  -2 7371.37 1400.81   1
  -2   7  -2 4909.00 855.088   1
   2  -7   2 5315.65 868.568   1
   2  -7   2 8694.67 1584.81   1
   2  -7   2 6409.79 1247.58   1
  -2   7  -3 1729.27 621.208   1
  -2   7  -3 2179.51 598.517   1
   2  -7   3 1927.65 341.721   1
   2  -7   3 1493.82 460.570   1
   2  -7   3 1253.20 672.882   1
  -2   7  -4 2794.87 694.450   1
   2  -7   4 3839.58 636.261   1
   2  -7   4 3338.57 716.917   1
  -2   7  -5 6742.30 1269.15   1
   2  -7   5 7083.79 1151.65   1
   2  -7   5 5994.15 1179.28   1
  -2   7  -6  73893.  10977.   1
   2  -7   6  95574.  15334.   1
   2  -7   6  67468.  11932.   1
  -2   7  -7  25028. 3864.30   1
   2  -7   7  22916. 3684.56   1
   2  -7   7  25275. 4536.06   1
  -2   7  -8  18111. 2967.87   1
   2  -7   8  21559. 3468.88   1
   2  -7   8  22289. 4039.54   1
   2  -7   9  45675. 7335.42   1
   2  -7   9  48102. 8573.35   1
  -2   6  10 6800.71 1493.82   1
   2  -6 -10 5003.37 1014.83   1
  -2   6   9 8582.33 1505.05   1
   2  -6  -9 6760.27 1170.97   1
  -2   6   8  41024. 6128.95   1
   2  -6  -8  47293. 7587.05   1
   2  -6  -8  39834. 5949.22   1
  -2   6   7 4097.95 801.392   1
   2  -6  -7 4857.33 798.921   1
   2  -6  -7 3868.79 770.388   1
  -2   6   6  64704. 9604.57   1
   2  -6  -6 105662.  16949.   1
   2  -6  -6  68838.  10193.   1
  -2   6   5 365985.  53763.   1
   2  -6  -5 303527.  48641.   1
   2  -6  -5 336104.  49405.   1
  -2   6   4  12736. 2001.57   1
   2  -6  -4  12222. 1970.12   1
   2  -6  -4  12330. 1926.08   1
  -2   6   3 215861.  34621.   1
  -2   6   3 245563.  36104.   1
   2  -6  -3 182655.  29297.   1
   2  -6  -3 208874.  33498.   1
  -2   6   2 231858.  37160.   1
  -2   6   2 235902.  34689.   1
  -2   6   2 314536.  46214.   1
   2  -6  -2 236800.  37969.   1
   2  -6  -2 281060.  45046.   1
  -2   6   1 1590.20 300.382   1
  -2   6   1 1210.51 600.314   1
  -2   6   1 1009.88 385.756   1
   2  -6  -1 1242.87 249.607   1
   2  -6  -1  891.26 180.903   1
  -2   6   0 209885.  33655.   1
  -2   6   0 208807.  30712.   1
  -2   6   0 235452.  34644.   1
   2  -6   0 252752.  40553.   1
  -2   6  -1 202741.  35722.   1
  -2   6  -1 268029.  42979.   1
  -2   6  -1 212469.  31274.   1
  -2   6  -1 210627.  30982.   1
   2  -6   1 221074.  35453.   1
   2  -6   1 250505.  44147.   1
   2  -6   1 255673.  37632.   1
   2  -6   1 211031.  37183.   1
  -2   6  -2  361.49 273.421   1
  -2   6  -2  328.69 155.403   1
  -2   6  -2  277.02 616.265   1
  -2   6  -2  626.15 334.531   1
   2  -6   2  402.16 130.802   1
   2  -6   2  428.44 374.522   1
   2  -6   2  368.68 662.772   1
   2  -6   2  536.28 274.095   1
  -2   6  -3 107212.  18895.   1
  -2   6  -3 114940.  18443.   1
  -2   6  -3 149337.  22038.   1
  -2   6  -3 106380.  15686.   1
   2  -6   3 115143.  17034.   1
   2  -6   3 130667.  20948.   1
   2  -6   3 116625.  20557.   1
   2  -6   3  96630.  17050.   1
  -2   6  -4 119591.  21081.   1
  -2   6  -4 122759.  18102.   1
   2  -6   4 117299.  18811.   1
   2  -6   4 150797.  26578.   1
   2  -6   4 128982.  22714.   1
  -2   6  -5  12712. 2029.88   1
   2  -6   5  12040. 1941.36   1
   2  -6   5  13574. 2469.11   1
  -2   6  -6  39856. 5982.92   1
   2  -6   6  32060. 5147.15   1
   2  -6   6  43968. 7800.49   1
  -2   6  -7  11638. 1897.10   1
   2  -6   7 9986.51 1614.92   1
   2  -6   7  10937. 2020.89   1
  -2   6  -8  12422. 2033.70   1
   2  -6   8  11696. 1888.34   1
   2  -6   8  13368. 2448.89   1
  -2   6  -9  11539. 2015.28   1
   2  -6   9 9040.66 1465.96   1
   2  -6   9  11042. 2057.96   1
  -2   6 -10 1035.72 1120.87   1
   2  -6  10 2155.69 401.258   1
   2  -6  10 2745.45 762.749   1
  -2   5  10  17686. 2812.85   1
   2  -5 -10  17221. 2707.25   1
  -2   5   9 7488.20 1584.81   1
  -2   5   9 9087.84 1529.54   1
   2  -5  -9  10710. 1732.19   1
   2  -5  -9 9112.55 1505.05   1
  -2   5   8  25365. 4545.04   1
  -2   5   8  29499. 4446.19   1
   2  -5  -8  31543. 5073.01   1
   2  -5  -8  32644. 5805.43   1
   2  -5  -8  35498. 5311.16   1
  -2   5   7  169.44 243.765   1
  -2   5   7   51.04 297.686   1
  -2   5   7  295.44 368.456   1
   2  -5  -7 -163.56 113.795   1
   2  -5  -7  440.80 361.267   1
  -2   5   6 3185.80 649.516   1
   2  -5  -6 3698.04 609.750   1
   2  -5  -6 3805.88 743.877   1
  -2   5   5  996.18 372.950   1
   2  -5  -5 2570.21 463.716   1
   2  -5  -5 1368.01 250.056   1
   2  -5  -5 1156.14 364.861   1
  -2   5   4  24444. 3927.20   1
  -2   5   4  24084. 3632.89   1
  -2   5   4  23410. 3578.97   1
   2  -5  -4  22534. 3621.65   1
   2  -5  -4  33970. 5452.70   1
   2  -5  -4  26331. 3967.64   1
  -2   5   3  53134. 8523.92   1
  -2   5   3  50505. 7497.18   1
  -2   5   3  49854. 7420.80   1
   2  -5  -3  45428. 7290.49   1
   2  -5  -3  54302. 8708.15   1
   2  -5  -3  46192. 6863.62   1
  -2   5   2  29274. 4702.31   1
  -2   5   2  28286. 4255.22   1
  -2   5   2  43249. 6454.72   1
   2  -5  -2  30532. 4902.26   1
   2  -5  -2  35003. 5623.45   1
  -2   5   1 122557.  19661.   1
  -2   5   1 125500.  18492.   1
  -2   5   1 138598.  20429.   1
   2  -5  -1 128128.  20550.   1
   2  -5  -1 106246.  17046.   1
  -2   5   0  56774. 9114.80   1
  -2   5   0  65042. 9633.78   1
  -2   5   0  67086. 9932.59   1
   2  -5   0  53246. 8548.63   1
  -2   5  -1  57920. 9294.53   1
  -2   5  -1  60526.  10667.   1
  -2   5  -1  57493. 8528.41   1
  -2   5  -1  61357. 9096.82   1
   2  -5   1  51247. 8216.12   1
   2  -5   1  58638.  10337.   1
   2  -5   1  65446. 9705.67   1
   2  -5   1  57133.  10074.   1
  -2   5  -2 398562.  70052.   1
  -2   5  -2 323522.  51898.   1
  -2   5  -2 372500.  54729.   1
  -2   5  -2 290496.  42665.   1
   2  -5   2 332734.  53359.   1
   2  -5   2 470006.  82656.   1
   2  -5   2 350258.  51472.   1
   2  -5   2 317681.  55853.   1
  -2   5  -3  97573.  17192.   1
  -2   5  -3  82476.  13233.   1
  -2   5  -3  96046.  14199.   1
  -2   5  -3 134913.  19890.   1
   2  -5   3  85082.  13655.   1
   2  -5   3  88092.  15538.   1
   2  -5   3 107347.  15877.   1
   2  -5   3  97079.  17111.   1
  -2   5  -4  88969.  15686.   1
  -2   5  -4 128960.  20685.   1
  -2   5  -4 108358.  15967.   1
   2  -5   4 128533.  20613.   1
   2  -5   4 107436.  18926.   1
   2  -5   4 127567.  18841.   1
   2  -5   4 118490.  20892.   1
  -2   5  -5 502134.  88317.   1
  -2   5  -5 256571.  41137.   1
  -2   5  -5 282633.  41564.   1
   2  -5   5 436755.  70097.   1
   2  -5   5 303976.  53494.   1
   2  -5   5 377218.  55471.   1
   2  -5   5 287800.  50663.   1
  -2   5  -6  19288. 2967.87   1
   2  -5   6  17428. 2803.86   1
   2  -5   6  19566. 3509.32   1
  -2   5  -7 103572.  15289.   1
   2  -5   7 103078.  16536.   1
   2  -5   7  83532.  14738.   1
  -2   5  -8 113547.  16785.   1
   2  -5   8 153561.  24624.   1
   2  -5   8 113278.  19964.   1
  -2   5  -9  15069. 2406.20   1
   2  -5   9  14186. 2284.88   1
   2  -5   9  18117. 3250.95   1
  -2   5 -10  36104. 5493.14   1
   2  -5  10  36037. 5789.70   1
   2  -5  10  36239. 6439.00   1
   2  -5  11  44170. 7097.27   1
   2  -5  11  43406. 7719.61   1
  -2   4  10  69872.  10373.   1
   2  -4 -10  57066. 9159.73   1
   2  -4 -10  66165. 9827.00   1
  -2   4   9 194203.  34217.   1
  -2   4   9 130914.  19315.   1
   2  -4  -9 148101.  23747.   1
   2  -4  -9 123702.  18248.   1
  -2   4   8  833.30 468.883   1
  -2   4   8  592.00 439.676   1
   2  -4  -8 1660.97 302.628   1
   2  -4  -8  404.18 382.161   1
  -2   4   7 113300.  19984.   1
  -2   4   7  85374.  15064.   1
  -2   4   7 131903.  19452.   1
   2  -4  -7  91822.  14729.   1
   2  -4  -7 112604.  19847.   1
   2  -4  -7 109571.  16151.   1
  -2   4   6 194271.  34195.   1
  -2   4   6 177421.  31229.   1
  -2   4   6 209301.  30847.   1
  -2   4   6 178072.  26219.   1
   2  -4  -6 166906.  26758.   1
   2  -4  -6 297236.  47675.   1
   2  -4  -6 191485.  28173.   1
   2  -4  -6 222512.  39160.   1
  -2   4   5 3495.84 663.895   1
  -2   4   5 2913.95 574.252   1
  -2   4   5 2873.51 585.486   1
  -2   4   5 3356.55 787.687   1
   2  -4  -5 4309.14 707.705   1
   2  -4  -5 3675.58 615.367   1
   2  -4  -5 4749.49 834.194   1
   2  -4  -5 3740.73 695.573   1
  -2   4   4 191305.  30690.   1
  -2   4   4 194990.  28690.   1
  -2   4   4 188362.  27724.   1
   2  -4  -4 217569.  34891.   1
   2  -4  -4 231858.  37183.   1
   2  -4  -4 214109.  31476.   1
  -2   4   3 104718.  16803.   1
  -2   4   3 116311.  17133.   1
  -2   4   3 102831.  15163.   1
   2  -4  -3 117861.  18906.   1
   2  -4  -3 112986.  18124.   1
   2  -4  -3 129836.  19137.   1
  -2   4   2 2147.61 362.165   1
  -2   4   2 1318.80 365.086   1
  -2   4   2 2419.68 532.464   1
   2  -4  -2 1756.91 306.672   1
   2  -4  -2 2044.93 342.844   1
   2  -4  -2 2556.73 507.975   1
  -2   4   1  63738.  10227.   1
  -2   4   1  65109. 9642.77   1
  -2   4   1  70299.  10382.   1
   2  -4  -1  70389.  11287.   1
   2  -4  -1  70928.  11370.   1
  -2   4   0  446.64 119.726   1
  -2   4   0  758.71 323.298   1
  -2   4   0  898.67 357.447   1
   2  -4   0  851.94 171.512   1
   2  -4   0 1274.77 416.985   1
  -2   4  -1  59290.  10445.   1
  -2   4  -1  44934. 7214.10   1
  -2   4  -1  66704. 9853.96   1
  -2   4  -1  65985. 9757.35   1
   2  -4   1  57223. 9184.44   1
   2  -4   1  69894.  10344.   1
   2  -4   1  63604.  11206.   1
  -2   4  -2 3911.48 740.956   1
  -2   4  -2 2878.00 478.993   1
  -2   4  -2 4756.23 848.348   1
  -2   4  -2 3859.80 708.379   1
   2  -4   2 3920.46 646.820   1
   2  -4   2 3691.30 712.648   1
   2  -4   2 3401.48 660.750   1
  -2   4  -3  30690. 5436.98   1
  -2   4  -3  24736. 3974.38   1
  -2   4  -3  39721. 5924.51   1
   2  -4   3  33992. 5457.20   1
   2  -4   3  36419. 5445.96   1
   2  -4   3  34374. 6097.50   1
  -2   4  -4  24691. 4392.27   1
  -2   4  -4  36284. 5827.90   1
  -2   4  -4  26443. 3990.11   1
   2  -4   4  24287. 3902.49   1
   2  -4   4  23590. 3594.69   1
   2  -4   4  26399. 4702.31   1
  -2   4  -5  38913. 6897.32   1
  -2   4  -5  32689. 5252.75   1
  -2   4  -5  32375. 4870.81   1
   2  -4   5  22186. 3565.49   1
   2  -4   5  30128. 4578.74   1
   2  -4   5  30285. 5383.05   1
  -2   4  -6 105729.  18638.   1
  -2   4  -6 147697.  23680.   1
  -2   4  -6 112065.  16529.   1
   2  -4   6 110312.  17686.   1
   2  -4   6 132127.  19535.   1
   2  -4   6 112447.  19822.   1
  -2   4  -7  60256. 8962.02   1
   2  -4   7  50550. 8112.78   1
   2  -4   7  54572. 9651.75   1
  -2   4  -8 9278.80 1524.82   1
   2  -4   8 8863.17 1433.83   1
   2  -4   8 8292.51 1548.86   1
  -2   4  -9 140642.  20759.   1
   2  -4   9 194450.  31162.   1
   2  -4   9 154617.  27230.   1
  -2   4 -10  47652. 7135.47   1
   2  -4  10  34037. 5466.18   1
   2  -4  10  45136. 8002.69   1
  -2   4 -11  15772. 2610.65   1
   2  -4  11  23815. 3830.60   1
   2  -4  11  20339. 3662.09   1
   2  -4  12 157785.  25298.   1
   2  -4  12 113862.  20074.   1
  -2   3  11  16886. 2720.73   1
   2  -3 -11  19335. 3116.15   1
   2  -3 -11  21188. 3320.60   1
  -2   3  10  11119. 1792.63   1
   2  -3 -10  10092. 1630.87   1
   2  -3 -10  10701. 1751.29   1
  -2   3   9  19497. 3529.54   1
  -2   3   9  34105. 5468.43   1
   2  -3  -9  50281. 8063.35   1
   2  -3  -9  36374. 5484.16   1
  -2   3   8 130263.  20883.   1
  -2   3   8 198539.  34958.   1
   2  -3  -8 178926.  28690.   1
   2  -3  -8 103954.  15338.   1
  -2   3   7  42170. 7465.73   1
  -2   3   7  39317. 6313.18   1
  -2   3   7  48371. 8582.33   1
   2  -3  -7  39879. 6405.30   1
   2  -3  -7  41092. 6146.93   1
   2  -3  -7  56100. 9912.37   1
  -2   3   6  40261. 7126.48   1
  -2   3   6  44911. 7207.36   1
  -2   3   6  40980. 7259.04   1
  -2   3   6  43249. 6501.90   1
   2  -3  -6  41856. 6719.83   1
   2  -3  -6  44597. 7160.18   1
   2  -3  -6  40732. 6052.57   1
   2  -3  -6  48753. 8613.79   1
  -2   3   5 525275.  92339.   1
  -2   3   5 445293.  71400.   1
  -2   3   5 442147.  64907.   1
  -2   3   5 424174.  62278.   1
   2  -3  -5 485733.  77893.   1
   2  -3  -5 508649.  81622.   1
   2  -3  -5 398562.  58526.   1
   2  -3  -5 465513.  81869.   1
  -2   3   4 144215.  25388.   1
  -2   3   4  98966.  17425.   1
  -2   3   4 123590.  18214.   1
  -2   3   4 117097.  17248.   1
   2  -3  -4 202067.  32397.   1
   2  -3  -4 140283.  22489.   1
   2  -3  -4 157897.  23253.   1
   2  -3  -4 163716.  28802.   1
  -2   3   3 214985.  37834.   1
  -2   3   3 190721.  30577.   1
  -2   3   3 204695.  30083.   1
  -2   3   3 217636.  31993.   1
   2  -3  -3 190654.  30577.   1
   2  -3  -3 212469.  34060.   1
   2  -3  -3 234104.  34419.   1
  -2   3   2 576948.  92474.   1
  -2   3   2 594697.  87239.   1
  -2   3   2 502134.  73714.   1
   2  -3  -2 484160.  77600.   1
   2  -3  -2 591552.  86789.   1
  -2   3   1 120467.  19324.   1
  -2   3   1 106133.  15644.   1
  -2   3   1 144889.  21321.   1
   2  -3  -1 110874.  17789.   1
   2  -3  -1 118243.  18962.   1
  -2   3   0 195169.  31296.   1
  -2   3   0 262188.  38531.   1
  -2   3   0 254549.  37407.   1
   2  -3   0 209301.  33565.   1
   2  -3   0 264435.  38868.   1
  -2   3  -1 669512.  98292.   1
  -2   3  -1 797348. 116985.   1
   2  -3   1 719164. 105459.   1
  -2   3  -2  39205. 6922.03   1
  -2   3  -2  35071. 5632.44   1
  -2   3  -2  35206. 5250.50   1
   2  -3   2  26039. 4183.33   1
   2  -3   2  37272. 5549.31   1
   2  -3   2  39834. 7041.11   1
  -2   3  -3  81959.  14442.   1
  -2   3  -3  84745.  13595.   1
  -2   3  -3  93799.  13849.   1
   2  -3   3 116962.  18762.   1
   2  -3   3  82678.  12208.   1
   2  -3   3  90137.  15882.   1
  -2   3  -4  52190. 9213.65   1
  -2   3  -4  61874. 9930.34   1
  -2   3  -4  90856.  13426.   1
   2  -3   4  72658.  11649.   1
   2  -3   4 108268.  15972.   1
   2  -3   4  69198.  12213.   1
  -2   3  -5  21272. 3794.65   1
  -2   3  -5  28578. 4589.98   1
  -2   3  -5  36733. 5513.36   1
   2  -3   5  25882. 4158.61   1
   2  -3   5  23410. 3552.01   1
   2  -3   5  25702. 4578.74   1
  -2   3  -6  29454. 5237.02   1
  -2   3  -6  32285. 5178.61   1
  -2   3  -6  35722. 5369.57   1
   2  -3   6  33318. 5349.35   1
   2  -3   6  32510. 4920.24   1
   2  -3   6  31184. 5540.32   1
  -2   3  -7  10836. 2004.27   1
  -2   3  -7 9076.60 1479.22   1
  -2   3  -7  10497. 1672.21   1
   2  -3   7  10510. 1696.70   1
   2  -3   7  10829. 1884.07   1
   2  -3   7  10726. 1965.40   1
  -2   3  -8  10903. 1787.46   1
   2  -3   8  11141. 1796.00   1
   2  -3   8  10703. 1973.94   1
  -2   3  -9 6715.34 1188.50   1
   2  -3   9 7263.53 1176.59   1
   2  -3   9 5448.21 1053.47   1
  -2   3 -10  12694. 2047.63   1
   2  -3  10  11672. 1881.15   1
   2  -3  10  13390. 2428.67   1
  -2   3 -11  32240. 4886.54   1
   2  -3  11  38463. 6173.89   1
   2  -3  11  46664. 8263.30   1
  -2   3 -12 1907.88 1006.51   1
   2  -3  12 1337.00 279.263   1
   2  -3  12 1771.06 565.041   1
  -2   2  12 2040.21 385.082   1
   2  -2 -12 1094.14 270.051   1
  -2   2  11  51224. 8218.37   1
   2  -2 -11  33543. 5387.55   1
   2  -2 -11  41204. 6207.59   1
   2  -2 -10  39587. 6346.88   1
   2  -2 -10  39002. 5854.86   1
  -2   2   9 4500.11 940.687   1
  -2   2   9 7317.45 1187.37   1
   2  -2  -9 4484.38 735.564   1
   2  -2  -9 5171.87 930.127   1
  -2   2   8 4612.44 751.291   1
  -2   2   8 7182.65 1348.68   1
   2  -2  -8 6250.27 1014.60   1
   2  -2  -8 6483.93 1096.16   1
  -2   2   7 7764.54 1433.61   1
  -2   2   7 6239.04 1009.21   1
  -2   2   7 6829.92 1361.49   1
  -2   2   7 8173.44 1553.58   1
   2  -2  -7 5082.00 835.092   1
   2  -2  -7 5466.18 890.586   1
   2  -2  -7 6223.31 1043.14   1
   2  -2  -7 6400.80 1220.17   1
  -2   2   6  78589.  12606.   1
  -2   2   6  81802.  12123.   1
   2  -2  -6 118872.  19061.   1
   2  -2  -6 107324.  17210.   1
   2  -2  -6  64952. 9631.53   1
   2  -2  -6  94271.  16605.   1
  -2   2   5 4527.07 860.031   1
  -2   2   5 7353.40 1189.17   1
  -2   2   5 5416.76 1031.68   1
  -2   2   5 5250.50 941.585   1
   2  -2  -5 4589.98 747.921   1
   2  -2  -5 4729.27 772.185   1
   2  -2  -5 4212.53 747.921   1
   2  -2  -5 7485.95 1367.11   1
  -2   2   4 182476.  32105.   1
  -2   2   4 175466.  28128.   1
  -2   2   4 145450.  25612.   1
  -2   2   4 118423.  17443.   1
   2  -2  -4 115367.  18506.   1
   2  -2  -4 123073.  19730.   1
   2  -2  -4 104493.  15410.   1
   2  -2  -4 120063.  21132.   1
  -2   2   3  82768.  14583.   1
  -2   2   3  64907.  10413.   1
  -2   2   3  85958.  13781.   1
  -2   2   3  79667.  14033.   1
  -2   2   3  66704. 9842.72   1
  -2   2   3 109953.  16194.   1
   2  -2  -3  94451.  15149.   1
   2  -2  -3  79128.  12689.   1
   2  -2  -3  89014.  13130.   1
   2  -2  -3  83644.  14727.   1
  -2   2   2  60593.  10670.   1
  -2   2   2  56819.  10011.   1
  -2   2   2  93462.  14983.   1
  -2   2   2  55808. 8249.82   1
  -2   2   2  43631. 6463.71   1
   2  -2  -2  54325. 8712.64   1
   2  -2  -2  52011. 8339.69   1
   2  -2  -2  59582.  10490.   1
   2  -2  -2  61559. 9094.58   1
  -2   2   1 317007.  50842.   1
  -2   2   1 440350.  64637.   1
  -2   2   1 388002.  56976.   1
   2  -2  -1 387328.  62076.   1
  -2   2   0 186699.  32847.   1
  -2   2   0 132060.  21171.   1
  -2   2   0 163738.  24084.   1
  -2   2   0 211413.  31072.   1
   2  -2   0 174410.  27971.   1
   2  -2   0 181734.  26713.   1
   2  -2   0 157493.  27702.   1
  -2   2  -1 139362.  24511.   1
  -2   2  -1 109638.  17587.   1
  -2   2  -1 172703.  25388.   1
   2  -2   1 151584.  24309.   1
   2  -2   1 147068.  21622.   1
   2  -2   1 133520.  23500.   1
  -2   2  -2 424399.  68030.   1
  -2   2  -2 611323.  89733.   1
   2  -2   2 432936.  63536.   1
  -2   2  -3 224197.  39429.   1
  -2   2  -3 199820.  32060.   1
  -2   2  -3 224421.  33004.   1
   2  -2   3 223388.  35812.   1
   2  -2   3 204179.  30016.   1
   2  -2   3 215345.  37879.   1
  -2   2  -4  22060. 3922.71   1
  -2   2  -4  22624. 3632.89   1
  -2   2  -4  28398. 4279.93   1
   2  -2   4  24309. 3906.98   1
   2  -2   4  27612. 4145.13   1
   2  -2   4  25859. 4601.21   1
  -2   2  -5 329139.  57875.   1
  -2   2  -5 520557.  83487.   1
  -2   2  -5 363963.  53494.   1
   2  -2   5 383509.  61514.   1
   2  -2   5 289598.  42575.   1
   2  -2   5 272073.  47877.   1
  -2   2  -6 162907.  28690.   1
  -2   2  -6 280611.  44979.   1
  -2   2  -6 163783.  24129.   1
   2  -2   6 187800.  30106.   1
   2  -2   6 144417.  21290.   1
   2  -2   6 144125.  25365.   1
  -2   2  -7  68299.  12065.   1
  -2   2  -7  84430.  13548.   1
  -2   2  -7  71040.  10537.   1
   2  -2   7  86273.  13844.   1
   2  -2   7  77848.  11582.   1
   2  -2   7 112424.  19811.   1
  -2   2  -8 342619.  60256.   1
  -2   2  -8 301056.  48304.   1
  -2   2  -8 360368.  52954.   1
   2  -2   8 306223.  49090.   1
   2  -2   8 236576.  34824.   1
   2  -2   8 481914.  84767.   1
  -2   2  -9  25590. 3915.97   1
   2  -2   9  42260. 6782.74   1
   2  -2   9  32936. 5866.09   1
  -2   2 -10 4621.43 896.427   1
   2  -2  10 5358.34 875.083   1
   2  -2  10 4554.03 892.832   1
  -2   2 -11  59964. 8901.36   1
   2  -2  11  45742. 7342.16   1
   2  -2  11  47023. 8341.94   1
  -2   2 -12 1002.70 740.956   1
   2  -2  12  413.61 157.425   1
   2  -2  12 1107.39 480.566   1
   2  -2  13  29005. 4664.12   1
   2  -2  13  34127. 6070.54   1
  -2   1  12  99888.  16019.   1
   2  -1 -12  86093.  13808.   1
  -2   1  11  17064. 2745.45   1
   2  -1 -11  16071. 2588.18   1
   2  -1 -11  13849. 2287.12   1
  -2   1  10  59852. 9593.34   1
  -2   1  10  57897.  10243.   1
   2  -1 -10  57380. 9209.16   1
   2  -1 -10  59964. 8926.08   1
  -2   1   9 243765.  42912.   1
  -2   1   9 172051.  27589.   1
   2  -1  -9 237924.  38149.   1
   2  -1  -9 241519.  35520.   1
  -2   1   8  27207. 4367.55   1
  -2   1   8  31319. 5565.04   1
   2  -1  -8  41519. 6659.17   1
   2  -1  -8  31319. 4718.04   1
  -2   1   7  55021. 9750.61   1
  -2   1   7  62188. 9979.77   1
  -2   1   7  61806.  10914.   1
  -2   1   7  55089. 8254.32   1
   2  -1  -7  51786. 8303.74   1
   2  -1  -7  53673. 8613.79   1
   2  -1  -7  58594. 8678.94   1
   2  -1  -7  71130.  12548.   1
  -2   1   6 175466.  30892.   1
  -2   1   6 180139.  28870.   1
  -2   1   6 140193.  24691.   1
  -2   1   6 165266.  24354.   1
   2  -1  -6 255897.  41047.   1
   2  -1  -6 184430.  29566.   1
   2  -1  -6 151067.  22258.   1
   2  -1  -6 240171.  42260.   1
  -2   1   5  16142. 2902.72   1
  -2   1   5  17158. 2758.93   1
  -2   1   5  18488. 3307.12   1
  -2   1   5  17843. 2736.46   1
   2  -1  -5  12262. 1974.39   1
   2  -1  -5  13473. 2167.38   1
   2  -1  -5  16169. 2442.15   1
   2  -1  -5  15947. 2846.55   1
  -2   1   4 192451.  33858.   1
  -2   1   4 244439.  39182.   1
  -2   1   4 243765.  42889.   1
  -2   1   4 216670.  31836.   1
   2  -1  -4 189283.  30353.   1
   2  -1  -4 212739.  34105.   1
   2  -1  -4 235677.  41451.   1
   2  -1  -4 224331.  32981.   1
  -2   1   3 385306.  56572.   1
   2  -1  -3 453830.  72725.   1
   2  -1  -3 407324.  59784.   1
  -2   1   2 7834.19 1422.15   1
  -2   1   2  10528. 1696.02   1
  -2   1   2 8901.36 1436.08   1
  -2   1   2 7580.31 1369.13   1
  -2   1   2 7948.77 1229.39   1
  -2   1   2 7348.90 1136.15   1
   2  -1  -2 7944.27 1283.53   1
   2  -1  -2 8380.13 1350.48   1
   2  -1  -2 8660.97 1342.62   1
   2  -1  -2 8737.35 1582.34   1
   2  -1  -2 8831.71 1589.98   1
  -2   1   1 6283.98 1141.99   1
  -2   1   1 5317.90 969.219   1
  -2   1   1 5641.42 913.951   1
  -2   1   1 4646.14 743.652   1
  -2   1   1 4852.84 773.309   1
   2  -1  -1 3906.98 635.362   1
   2  -1  -1 4270.95 695.124   1
   2  -1  -1 6367.10 988.990   1
   2  -1  -1 6232.30 1145.58   1
   2  -1  -1 5048.30 922.488   1
  -2   1   0  45990. 8108.28   1
  -2   1   0  46237. 8148.72   1
  -2   1   0  43114. 6917.54   1
  -2   1   0  58818. 8674.45   1
  -2   1   0  45428. 6710.85   1
   2  -1   0  43339. 6951.24   1
   2  -1   0  43855. 7730.84   1
   2  -1   0  56392. 8317.22   1
   2  -1   0  52213. 9209.16   1
  -2   1  -1 130555.  22961.   1
  -2   1  -1 120085.  21132.   1
  -2   1  -1 123815.  18214.   1
  -2   1  -1 175578.  28151.   1
   2  -1   1 157919.  25320.   1
   2  -1   1 126309.  18571.   1
   2  -1   1 128825.  22669.   1
  -2   1  -2 135610.  23860.   1
  -2   1  -2 123613.  19822.   1
  -2   1  -2 142058.  20894.   1
   2  -1   2 156796.  25140.   1
   2  -1   2 121276.  17834.   1
   2  -1   2 111795.  19685.   1
  -2   1  -3 178948.  31476.   1
  -2   1  -3 297461.  47720.   1
  -2   1  -3 182026.  26780.   1
   2  -1   3 209683.  33610.   1
   2  -1   3 167760.  24669.   1
   2  -1   3 188834.  33228.   1
  -2   1  -4 100449.  17688.   1
  -2   1  -4 119973.  19241.   1
  -2   1  -4 106583.  15722.   1
   2  -1   4  99663.  15992.   1
   2  -1   4  96652.  14253.   1
   2  -1   4  99393.  17508.   1
  -2   1  -5 4160.86 802.291   1
  -2   1  -5 6883.84 1115.25   1
  -2   1  -5 3871.04 718.040   1
   2  -1   5 4661.87 759.154   1
   2  -1   5 4070.99 773.084   1
   2  -1   5 3677.82 737.811   1
  -2   1  -6 321950.  56616.   1
  -2   1  -6 257695.  41317.   1
  -2   1  -6 261963.  38531.   1
   2  -1   6 229162.  36733.   1
   2  -1   6 212446.  31251.   1
   2  -1   6 283307.  49854.   1
  -2   1  -7 165603.  29162.   1
  -2   1  -7 183015.  29342.   1
  -2   1  -7 220355.  32442.   1
   2  -1   7 203909.  32689.   1
   2  -1   7 163918.  24174.   1
   2  -1   7 181420.  31925.   1
  -2   1  -8  11759. 2154.79   1
  -2   1  -8 8164.45 1326.44   1
  -2   1  -8 8863.17 1432.49   1
   2  -1   8 8678.94 1401.71   1
   2  -1   8 8681.19 1617.84   1
   2  -1   8  15920. 2875.76   1
  -2   1  -9 225567.  33161.   1
   2  -1   9 207953.  33341.   1
   2  -1   9 221680.  39025.   1
  -2   1 -10 185913.  27410.   1
   2  -1  10 140418.  22512.   1
   2  -1  10 127252.  22424.   1
  -2   1 -11 2007.19 608.177   1
   2  -1  11 2350.03 404.852   1
   2  -1  11 1621.66 484.160   1
  -2   1 -12 118063.  17428.   1
   2  -1  12 110627.  17740.   1
   2  -1  12 122736.  21640.   1
  -2   1 -13  62862. 9382.15   1
   2  -1  13  95327.  15289.   1
   2  -1  13  67221.  11910.   1
  -2   0  12 3754.21 628.173   1
   2   0 -12 3077.96 532.464   1
  -2   0  11  33880. 5441.47   1
   2   0 -11  47001. 7542.12   1
   2   0 -11  53336. 8009.43   1
  -2   0  10  49225. 7894.85   1
  -2   0  10  45046. 7975.73   1
   2   0 -10  42148. 6758.03   1
   2   0 -10  51157. 7643.22   1
  -2   0   9 5589.75 908.334   1
  -2   0   9  11105. 2035.05   1
   2   0  -9 4992.13 816.445   1
   2   0  -9 6328.91 1095.26   1
  -2   0   8 168411.  29656.   1
  -2   0   8 212963.  34150.   1
  -2   0   8 178544.  26376.   1
   2   0  -8 133947.  21478.   1
   2   0  -8 161716.  23815.   1
  -2   0   7 140620.  24781.   1
  -2   0   7 113255.  18167.   1
  -2   0   7  95844.  16893.   1
  -2   0   7 109616.  16221.   1
   2   0  -7 114109.  18304.   1
   2   0  -7  96720.  15511.   1
   2   0  -7  90991.  13453.   1
   2   0  -7  82521.  14559.   1
  -2   0   6  38418. 6807.45   1
  -2   0   6  42844. 6881.59   1
  -2   0   6  37991. 6749.04   1
  -2   0   6  39407. 5906.53   1
   2   0  -6  41406. 6645.69   1
   2   0  -6  32038. 5140.41   1
   2   0  -6  31633. 5607.72   1
   2   0  -6  33273. 4969.67   1
  -2   0   5 438777.  77151.   1
  -2   0   5 551336.  80970.   1
   2   0  -5 607503.  97484.   1
   2   0  -5 529768.  84925.   1
   2   0  -5 413615.  60728.   1
   2   0  -5 484160.  85082.   1
  -2   0   4 293866.  51719.   1
  -2   0   4 345315.  55381.   1
  -2   0   4 327342.  48079.   1
   2   0  -4 267805.  42934.   1
   2   0  -4 450685.  72343.   1
   2   0  -4 300606.  44147.   1
   2   0  -4 400584.  70456.   1
  -2   0   3 140845.  24781.   1
  -2   0   3 152123.  24399.   1
  -2   0   3 117771.  20746.   1
  -2   0   3 128128.  18834.   1
   2   0  -3 181667.  29139.   1
   2   0  -3 120467.  19317.   1
   2   0  -3 119928.  17634.   1
   2   0  -3 134868.  23725.   1
  -2   0   2 556279.  81667.   1
  -2   0   1 186340.  32779.   1
  -2   0   1 156234.  25051.   1
  -2   0   1 179757.  28825.   1
  -2   0   1 147989.  21741.   1
  -2   0   1 162413.  23860.   1
   2   0  -1 194900.  31251.   1
   2   0  -1 168771.  27050.   1
   2   0  -1 245787.  36104.   1
   2   0  -1 186947.  32891.   1
   2   0  -1 155852.  27432.   1
  -2   0   0  62997.  11105.   1
  -2   0   0  54100. 9543.91   1
  -2   0   0  56234. 8279.03   1
  -2   0   0  57852. 9278.80   1
   2   0   0  52685. 8447.53   1
   2   0   0  56661. 9092.33   1
   2   0   0  70052.  10303.   1
   2   0   0  61200.  10786.   1
   2   0   0  49068. 8669.95   1
  -2   0  -1 243316.  42777.   1
  -2   0  -1 180588.  28960.   1
  -2   0  -1 181218.  31880.   1
  -2   0  -1 266007.  39070.   1
   2   0   1 167131.  26803.   1
   2   0   1 268254.  39362.   1
  -2   0  -2 322399.  47338.   1
   2   0   2 344192.  50528.   1
  -2   0  -3 3844.08 749.494   1
  -2   0  -3 4756.23 770.613   1
  -2   0  -3 4576.50 783.194   1
   2   0   3 3686.81 599.865   1
   2   0   3 4733.76 802.965   1
   2   0   3 5436.98 1031.68   1
  -2   0  -4 101618.  17899.   1
  -2   0  -4  95102.  15259.   1
  -2   0  -4  92608.  13667.   1
   2   0   4 103482.  16587.   1
   2   0   4  91575.  13507.   1
   2   0   4 104111.  18344.   1
  -2   0  -5 2799.37 568.186   1
  -2   0  -5 3918.22 639.406   1
  -2   0  -5 4682.09 842.731   1
   2   0   5 4010.33 655.807   1
   2   0   5 4151.87 789.709   1
   2   0   5 5356.09 1026.06   1
  -2   0  -6  25320. 4500.11   1
  -2   0  -6  25635. 4115.92   1
  -2   0  -6  21299. 3239.72   1
   2   0   6  21768. 3495.84   1
   2   0   6  23837. 3630.64   1
   2   0   6  20613. 3691.30   1
  -2   0  -7 8685.68 1597.62   1
  -2   0  -7  12775. 2057.51   1
  -2   0  -7  12620. 1968.54   1
   2   0   7  10182. 1641.88   1
   2   0   7  14089. 2246.68   1
   2   0   7  14509. 2619.63   1
  -2   0  -8  35363. 6274.99   1
  -2   0  -8  28713. 4612.44   1
  -2   0  -8  25792. 3893.50   1
   2   0   8  28331. 4549.54   1
   2   0   8  28825. 4443.94   1
   2   0   8  30555. 5439.22   1
  -2   0  -9  12415. 1951.69   1
   2   0   9  10249. 1651.99   1
   2   0   9  25567. 4567.51   1
  -2   0 -10  16084. 2491.57   1
   2   0  10  26556. 4266.45   1
   2   0  10  17947. 3226.24   1
  -2   0 -11 104988.  15520.   1
   2   0  11  90294.  14482.   1
   2   0  11  81105.  14320.   1
  -2   0 -12 7845.42 1367.11   1
   2   0  12 5499.88 901.370   1
   2   0  12 7346.66 1426.19   1
  -2   0 -13  53673. 8016.17   1
   2   0  13  55583. 8919.34   1
   2   0  13  60683.  10762.   1
  -2  -1  12 1491.12 285.104   1
   2   1 -12 2171.87 403.954   1
  -2  -1  11  13359. 2154.35   1
  -2  -1  11  14997. 2749.94   1
   2   1 -11  13703. 2208.27   1
   2   1 -11  16115. 2745.45   1
  -2  -1  10  10020. 1616.26   1
  -2  -1  10  13682. 2482.59   1
   2   1 -10  13399. 2158.61   1
   2   1 -10  13858. 2287.12   1
  -2  -1   9 1740.28 300.831   1
  -2  -1   9 3059.98 662.772   1
   2   1  -9 1295.89 238.373   1
   2   1  -9 1715.79 548.191   1
  -2  -1   8  15626. 2817.34   1
  -2  -1   8  20840. 3349.81   1
  -2  -1   8  18877. 3080.20   1
   2   1  -8  24084. 3871.04   1
   2   1  -8  15080. 2350.03   1
  -2  -1   7  569.53 262.637   1
  -2  -1   7 1444.17 251.853   1
  -2  -1   7 1167.38 526.847   1
  -2  -1   7 1602.11 726.353   1
   2   1  -7 1531.56 286.452   1
   2   1  -7 2090.09 517.411   1
   2   1  -7 1004.94 443.046   1
  -2  -1   6 164412.  28937.   1
  -2  -1   6  99528.  15972.   1
  -2  -1   6  93979.  16583.   1
  -2  -1   6 114019.  16823.   1
   2   1  -6 187328.  30038.   1
   2   1  -6  99640.  14675.   1
   2   1  -6  63918.  11281.   1
  -2  -1   5  11397. 2070.54   1
  -2  -1   5  11460. 2093.68   1
  -2  -1   5 9840.48 1561.22   1
  -2  -1   5  12429. 2002.02   1
   2   1  -5 8845.19 1426.42   1
   2   1  -5 8081.32 1289.37   1
   2   1  -5  14954. 2684.79   1
  -2  -1   4 271849.  47809.   1
  -2  -1   4 260615.  45855.   1
  -2  -1   4 250730.  36823.   1
   2   1  -4 230734.  37003.   1
   2   1  -4 245563.  43181.   1
   2   1  -4 226466.  33273.   1
  -2  -1   3 427095.  62705.   1
   2   1  -3 635138. 111683.   1
  -2  -1   2  26399. 4684.34   1
  -2  -1   2  17288. 2776.90   1
  -2  -1   2  21487. 3830.60   1
  -2  -1   2  16217. 2412.94   1
   2   1  -2  26084. 4187.82   1
   2   1  -2  18877. 3033.02   1
   2   1  -2  19957. 2954.39   1
   2   1  -2  18513. 3322.85   1
   2   1  -2  20267. 3603.68   1
  -2  -1   1 222961.  39227.   1
   2   1  -1 281510.  45136.   1
   2   1  -1 219771.  38643.   1
   2   1  -1 307571.  54100.   1
  -2  -1   0 237924.  34936.   1
   2   1   0 216535.  34711.   1
   2   1   0 203235.  32577.   1
   2   1   0 189755.  33386.   1
  -2  -1  -1 5542.57 1041.34   1
  -2  -1  -1 2961.13 597.618   1
  -2  -1  -1 2653.33 447.539   1
  -2  -1  -1 2866.77 464.614   1
   2   1   1 3289.15 532.239   1
   2   1   1 2952.14 621.657   1
   2   1   1 3707.03 596.719   1
   2   1   1 2812.85 567.512   1
  -2  -1  -3 208829.  30690.   1
   2   1   3 231184.  40665.   1
   2   1   3 225792.  33184.   1
  -2  -1  -4 2110.09 461.694   1
  -2  -1  -4 2808.35 458.998   1
  -2  -1  -4 2029.43 457.874   1
   2   1   4 2088.97 345.989   1
   2   1   4 1581.67 402.381   1
   2   1   4 1930.80 460.346   1
  -2  -1  -5 267805.  47135.   1
  -2  -1  -5 312963.  50213.   1
  -2  -1  -5 290946.  42754.   1
   2   1   5 436531.  69939.   1
   2   1   5 285778.  42013.   1
  -2  -1  -6 350707.  61694.   1
  -2  -1  -6 436531.  70007.   1
  -2  -1  -6 311166.  45742.   1
   2   1   6 367782.  59020.   1
   2   1   6 333408.  49000.   1
   2   1   6 264884.  46619.   1
  -2  -1  -7  21636. 3855.31   1
  -2  -1  -7  32375. 5194.33   1
  -2  -1  -7  22341. 3392.49   1
   2   1   7  27589. 4430.46   1
   2   1   7  23770. 3664.34   1
   2   1   7  23972. 4277.69   1
  -2  -1  -8 158548.  27904.   1
  -2  -1  -8 185868.  29813.   1
  -2  -1  -8 164098.  24152.   1
   2   1   8 194743.  31229.   1
   2   1   8 185149.  27320.   1
   2   1   8 176679.  31117.   1
  -2  -1  -9  23163. 3725.00   1
  -2  -1  -9  38036. 5704.33   1
   2   1   9  36598. 5877.33   1
   2   1   9  24129. 4313.63   1
  -2  -1 -10  12725. 2035.50   1
   2   1  10  11743. 1894.40   1
   2   1  10  12076. 2207.14   1
  -2  -1 -11  30510. 4580.99   1
   2   1  11  22244. 3574.47   1
   2   1  11  24916. 4457.42   1
  -2  -1 -12 1496.97 570.208   1
   2   1  12 1306.90 259.492   1
   2   1  12 1778.47 574.028   1
  -2  -1 -13 5066.27 1066.28   1
   2   1  13 6895.07 1131.65   1
   2   1  13 5201.07 1119.52   1
  -2  -2  12  70883.  11366.   1
  -2  -2  12  66277.  11743.   1
   2   2 -12  75511.  12123.   1
  -2  -2  11  35228. 6272.74   1
  -2  -2  11  53786. 8625.02   1
   2   2 -11  58931. 9460.79   1
   2   2 -11  49921. 7623.00   1
  -2  -2  10  18942. 3046.50   1
  -2  -2  10  17569. 3165.58   1
   2   2 -10  18578. 2988.09   1
   2   2 -10  23792. 3700.29   1
  -2  -2   9 233206.  37362.   1
  -2  -2   9 148349.  26129.   1
   2   2  -9 255897.  37654.   1
  -2  -2   8  40710. 7216.35   1
  -2  -2   8  39946. 6416.53   1
  -2  -2   8  43114. 6528.86   1
   2   2  -8  43765. 6528.86   1
  -2  -2   7  43968. 7820.71   1
  -2  -2   7  33925. 6021.11   1
  -2  -2   7  46035. 6926.53   1
  -2  -2   7  37699. 6057.06   1
   2   2  -7  30757. 4940.46   1
   2   2  -7  50371. 7474.72   1
   2   2  -7  40148. 7117.49   1
  -2  -2   6 190182.  33476.   1
  -2  -2   6 144776.  23208.   1
  -2  -2   6 157807.  27791.   1
  -2  -2   6 128151.  18901.   1
   2   2  -6 104493.  16754.   1
   2   2  -6 115951.  17082.   1
   2   2  -6 132891.  23410.   1
  -2  -2   5  27207. 4832.62   1
  -2  -2   5  37362. 5991.91   1
  -2  -2   5  26151. 4673.10   1
  -2  -2   5  36891. 5493.14   1
   2   2  -5  41339. 6632.21   1
   2   2  -5  31543. 4700.06   1
   2   2  -5  76792.  13543.   1
  -2  -2   4  36104. 6394.06   1
  -2  -2   4  54549. 8746.34   1
  -2  -2   4  34374. 6101.99   1
  -2  -2   4  47720. 7061.33   1
   2   2  -4  47495. 7614.01   1
   2   2  -4  39384. 5827.90   1
   2   2  -4  39789. 7038.86   1
  -2  -2   3 4664.12 911.480   1
  -2  -2   3 3772.18 615.142   1
  -2  -2   3 4035.04 782.295   1
  -2  -2   3 4383.28 704.560   1
   2   2  -3 4315.88 700.741   1
   2   2  -3 2532.01 429.341   1
   2   2  -3 4012.58 773.084   1
  -2  -2   2  18975. 3388.00   1
  -2  -2   2  25522. 4097.95   1
  -2  -2   2  15666. 2815.09   1
  -2  -2   2  21492. 3176.81   1
   2   2  -2  18003. 2891.48   1
   2   2  -2  13831. 2047.85   1
  -2  -2   1 5225.79 842.731   1
  -2  -2   1 4315.88 851.943   1
  -2  -2   1 5538.08 1033.70   1
   2   2  -1  10090. 1622.56   1
   2   2  -1 5124.69 963.153   1
   2   2  -1 4340.59 865.872   1
  -2  -2   0  16340. 2916.20   1
  -2  -2   0  24579. 4367.55   1
  -2  -2   0  19286. 2846.55   1
  -2  -2   0  19398. 3111.66   1
   2   2   0  21335. 3421.70   1
   2   2   0  18704. 3001.57   1
   2   2   0  17488. 2590.43   1
   2   2   0  27342. 4846.10   1
   2   2   0  20173. 3610.42   1
  -2  -2  -1  98382.  17329.   1
  -2  -2  -1  74972.  13219.   1
  -2  -2  -1  58122. 8550.88   1
   2   2   1  63828.  11258.   1
   2   2   1  78297.  13815.   1
   2   2   1  57897. 8530.66   1
  -2  -2  -2  87913.  15484.   1
  -2  -2  -2  60144. 9642.77   1
  -2  -2  -2  55201. 9739.38   1
  -2  -2  -2  52168. 7697.14   1
   2   2   2  77016.  12352.   1
   2   2   2  49517. 7315.20   1
   2   2   2  63267.  11164.   1
  -2  -2  -3 107077.  17171.   1
  -2  -2  -3  84790.  12494.   1
   2   2   3  91126.  14610.   1
   2   2   3  83891.  12381.   1
   2   2   3 161514.  28421.   1
  -2  -2  -4 217322.  38239.   1
  -2  -2  -4 238373.  38239.   1
  -2  -2  -4 200135.  29432.   1
   2   2   4 236576.  37924.   1
   2   2   4 205527.  30218.   1
   2   2   4 256347.  45091.   1
  -2  -2  -5  13262. 2376.99   1
  -2  -2  -5 8820.48 1419.23   1
  -2  -2  -5  11339. 1765.89   1
   2   2   5  10818. 1740.28   1
   2   2   5  10674. 1706.36   1
   2   2   5  12453. 2253.42   1
  -2  -2  -6 184295.  32442.   1
  -2  -2  -6 157830.  25298.   1
  -2  -2  -6 204224.  30061.   1
   2   2   6 244215.  39137.   1
   2   2   6 207369.  30532.   1
   2   2   6 269153.  47383.   1
  -2  -2  -7 405302.  71265.   1
  -2  -2  -7 523477.  83914.   1
  -2  -2  -7 492024.  72298.   1
   2   2   7 475174.  69760.   1
  -2  -2  -8  21094. 3765.44   1
  -2  -2  -8  26533. 4261.96   1
  -2  -2  -8  20941. 3185.80   1
   2   2   8  24534. 3942.93   1
   2   2   8  24242. 3776.68   1
   2   2   8  18802. 3376.77   1
  -2  -2  -9 144956.  23253.   1
  -2  -2  -9 145720.  21460.   1
   2   2   9 125814.  20175.   1
   2   2   9 150281.  26466.   1
  -2  -2 -10 143181.  21110.   1
   2   2  10 131925.  21162.   1
   2   2  10 193821.  34127.   1
  -2  -2 -11 1437.43 502.583   1
   2   2  11 1251.18 241.519   1
   2   2  11 1405.53 462.368   1
  -2  -2 -12  75915.  12177.   1
  -2  -2 -12  86857.  12840.   1
   2   2  12  96810.  15527.   1
   2   2  12  96023.  16958.   1
  -2  -2 -13  93507.  13842.   1
   2   2  13  68771.  11036.   1
  -2  -3  11  52011. 8348.68   1
  -2  -3  11  45720. 8101.54   1
   2   3 -11  40710. 6542.34   1
  -2  -3  10  80611.  14222.   1
  -2  -3  10  86587.  13889.   1
   2   3 -10  82229.  12262.   1
  -2  -3   9 5724.55 933.048   1
  -2  -3   9 5502.13 1071.44   1
   2   3  -9 4268.70 996.404   1
  -2  -3   8 144866.  23231.   1
  -2  -3   8 109571.  19308.   1
   2   3  -8 132330.  19528.   1
  -2  -3   7 133768.  23568.   1
  -2  -3   7 135453.  21728.   1
  -2  -3   7 111301.  16461.   1
   2   3  -7 139519.  20573.   1
  -2  -3   6  32195. 5717.81   1
  -2  -3   6  28443. 4569.76   1
  -2  -3   6  24354. 4381.03   1
  -2  -3   6  38598. 5778.47   1
   2   3  -6  37565. 6032.35   1
   2   3  -6  29926. 4464.16   1
   2   3  -6  27769. 4947.20   1
  -2  -3   5 325994.  57358.   1
  -2  -3   5 339249.  54347.   1
  -2  -3   5 170321.  29993.   1
  -2  -3   5 254549.  37430.   1
   2   3  -5 354302.  56774.   1
   2   3  -5 279263.  41024.   1
   2   3  -5 312738.  54976.   1
  -2  -3   4 480790.  84588.   1
  -2  -3   4 440799.  64727.   1
   2   3  -4 495843.  79443.   1
   2   3  -4 514266.  90452.   1
   2   3  -4 478993.  70344.   1
  -2  -3   3  16093. 2895.98   1
  -2  -3   3  15767. 2534.26   1
  -2  -3   3  24848. 4410.24   1
  -2  -3   3  12860. 1929.00   1
   2   3  -3  20721. 3327.34   1
   2   3  -3  12772. 1912.83   1
   2   3  -3  18430. 3289.15   1
  -2  -3   2 299258.  52595.   1
  -2  -3   2 422601.  62098.   1
   2   3  -2 276342.  48596.   1
   2   3  -2 380364.  60997.   1
   2   3  -2 393844.  57875.   1
   2   3  -2 445068.  78297.   1
  -2  -3   1 144462.  25432.   1
  -2  -3   1 130285.  20885.   1
  -2  -3   1 150842.  26556.   1
   2   3  -1 150168.  22078.   1
   2   3  -1 124107.  19897.   1
   2   3  -1 131094.  23096.   1
   2   3  -1 142440.  20946.   1
   2   3  -1 106807.  18818.   1
  -2  -3   0  30263. 4857.33   1
  -2  -3   0  37722. 6683.88   1
  -2  -3   0  39182. 5776.22   1
  -2  -3   0  33588. 5944.73   1
   2   3   0  34195. 5481.91   1
   2   3   0  27657. 4100.20   1
   2   3   0  31004. 4572.00   1
  -2  -3  -1 330712.  58144.   1
  -2  -3  -1 349135.  51247.   1
   2   3   1 353403.  62143.   1
   2   3   1 276567.  40620.   1
  -2  -3  -2  16787. 2997.08   1
  -2  -3  -2  20099. 3581.21   1
  -2  -3  -2  17290. 2592.67   1
   2   3   2  19542. 3477.87   1
   2   3   2  18798. 3356.55   1
   2   3   2  16771. 2534.26   1
  -2  -3  -3 6389.57 1181.08   1
  -2  -3  -3 4589.98 738.485   1
  -2  -3  -3 6755.78 1085.60   1
  -2  -3  -3 5090.99 827.678   1
  -2  -3  -3 5951.47 1102.67   1
   2   3   3 6659.17 1070.54   1
   2   3   3 6315.43 1042.69   1
   2   3   3 6508.64 1206.47   1
  -2  -3  -4 3215.00 635.812   1
  -2  -3  -4 2772.41 451.359   1
  -2  -3  -4 2628.62 426.870   1
  -2  -3  -4 3444.17 615.591   1
  -2  -3  -4 2916.20 593.574   1
   2   3   4 4151.87 669.512   1
   2   3   4 4008.08 784.542   1
   2   3   4 3486.85 693.551   1
  -2  -3  -5 2480.34 521.905   1
  -2  -3  -5  923.84 160.997   1
  -2  -3  -5 1991.24 431.813   1
   2   3   5  942.93 162.593   1
   2   3   5 1543.02 515.839   1
   2   3   5 1658.95 405.077   1
  -2  -3  -6  40957. 7241.06   1
  -2  -3  -6  59335. 9514.71   1
  -2  -3  -6  45405. 6742.30   1
   2   3   6  76028.  12188.   1
   2   3   6  45113. 6731.06   1
   2   3   6  61110.  10798.   1
  -2  -3  -7  806.33 310.941   1
  -2  -3  -7  909.91 173.466   1
  -2  -3  -7  998.65 374.298   1
   2   3   7 1036.17 186.610   1
   2   3   7  648.62 619.186   1
   2   3   7 1068.07 328.241   1
  -2  -3  -8  64592.  11409.   1
  -2  -3  -8  39227. 6301.95   1
  -2  -3  -8  54280. 8052.12   1
   2   3   8  36688. 5886.31   1
   2   3   8  41698. 6319.92   1
   2   3   8  80252.  14168.   1
  -2  -3  -9  13532. 2187.15   1
  -2  -3  -9  24219. 3891.26   1
  -2  -3  -9  14042. 2193.21   1
   2   3   9  12447. 2006.74   1
   2   3   9 8663.21 1608.63   1
  -2  -3 -10 8703.65 1408.45   1
  -2  -3 -10  10939. 1732.87   1
   2   3  10 8910.35 1438.33   1
   2   3  10  20079. 3601.43   1
  -2  -3 -11  86677.  13914.   1
  -2  -3 -11  68591.  10151.   1
   2   3  11  95147.  15264.   1
   2   3  11  65423.  11566.   1
  -2  -3 -12  38553. 5753.76   1
   2   3  12  26825. 4311.39   1
  -2  -3 -13  27365. 4160.86   1
   2   3  13  28331. 4554.03   1
  -2  -4  11 7708.37 1255.45   1
  -2  -4  11 8124.01 1546.84   1
   2   4 -11 7809.47 1274.09   1
  -2  -4  10 9707.92 1570.21   1
  -2  -4  10 8110.53 1530.44   1
  -2  -4   9  18596. 3340.82   1
  -2  -4   9  15610. 2514.04   1
   2   4  -9  18066. 2934.17   1
  -2  -4   8  14264. 2298.36   1
  -2  -4   8  22624. 4030.55   1
   2   4  -8  15264. 2448.89   1
  -2  -4   7  18465. 3318.35   1
  -2  -4   7  15095. 2428.67   1
  -2  -4   7  15891. 2603.91   1
   2   4  -7  19874. 3048.75   1
  -2  -4   6  42350. 7503.92   1
  -2  -4   6  38283. 6144.68   1
  -2  -4   6  36149. 6454.72   1
  -2  -4   6  41429. 6212.08   1
   2   4  -6  49450. 7935.29   1
   2   4  -6  41069. 6119.97   1
   2   4  -6  43855. 7787.01   1
  -2  -4   5  41204. 7330.93   1
  -2  -4   5  46574. 7472.47   1
  -2  -4   5  36217. 6414.28   1
  -2  -4   5  47428. 7041.11   1
   2   4  -5  38980. 6259.26   1
   2   4  -5  31364. 4661.87   1
   2   4  -5  73646.  13004.   1
  -2  -4   4 129926.  22894.   1
  -2  -4   4 117524.  18847.   1
  -2  -4   4 137632.  24219.   1
  -2  -4   4 122557.  18043.   1
   2   4  -4 163199.  26174.   1
   2   4  -4 126915.  18686.   1
   2   4  -4 163918.  28870.   1
  -2  -4   3 276117.  48596.   1
  -2  -4   3 346888.  60997.   1
  -2  -4   3 310042.  49674.   1
  -2  -4   3 330712.  48573.   1
   2   4  -3 376320.  55268.   1
   2   4  -3 365760.  58661.   1
   2   4  -3 463940.  68142.   1
   2   4  -3 381712.  67131.   1
  -2  -4   2  16947. 3021.79   1
  -2  -4   2  17607. 3165.58   1
  -2  -4   2  19809. 3181.30   1
  -2  -4   2  18852. 2812.85   1
   2   4  -2  30600. 5450.46   1
   2   4  -2  18600. 2988.09   1
   2   4  -2  18782. 2799.37   1
   2   4  -2  21047. 3140.86   1
   2   4  -2  20020. 3572.23   1
  -2  -4   1 235902.  41519.   1
  -2  -4   1 240395.  38531.   1
  -2  -4   1 291170.  51202.   1
   2   4  -1 376095.  66142.   1
   2   4  -1 260615.  41788.   1
   2   4  -1 256796.  37699.   1
   2   4  -1 289598.  42552.   1
   2   4  -1 323747.  56953.   1
   2   4   0 514715.  90474.   1
   2   4   0 352280.  51696.   1
   2   4   0 326443.  47944.   1
  -2  -4  -1 7930.79 1458.10   1
  -2  -4  -1 5942.48 1095.93   1
  -2  -4  -1 6677.14 1073.24   1
  -2  -4  -1 7530.88 1165.58   1
   2   4   1 7602.78 1413.61   1
   2   4   1 6870.36 1103.57   1
   2   4   1 6398.56 1007.86   1
   2   4   1 6571.55 1046.06   1
   2   4   1 8234.10 1500.11   1
  -2  -4  -2 264884.  38913.   1
   2   4   2 219479.  38620.   1
   2   4   2 314985.  55403.   1
   2   4   2 235902.  34644.   1
  -2  -4  -3 439451.  77286.   1
  -2  -4  -3 549090.  96562.   1
  -2  -4  -3 523702.  76859.   1
   2   4   3 503707.  73983.   1
  -2  -4  -4  32622. 5780.72   1
  -2  -4  -4  33723. 5412.26   1
  -2  -4  -4  37991. 6719.83   1
  -2  -4  -4  34082. 5075.26   1
  -2  -4  -4  36756. 5895.30   1
   2   4   4  39519. 5906.53   1
   2   4   4  71579.  12631.   1
  -2  -4  -5 199887.  35183.   1
  -2  -4  -5 259717.  41654.   1
  -2  -4  -5 207998.  33341.   1
  -2  -4  -5 227814.  33476.   1
  -2  -4  -5 212244.  37340.   1
   2   4   5 241743.  38778.   1
   2   4   5 219299.  38598.   1
   2   4   5 243316.  35790.   1
  -2  -4  -6 157919.  27814.   1
  -2  -4  -6 200943.  32217.   1
  -2  -4  -6 196742.  31543.   1
  -2  -4  -6 176252.  25949.   1
  -2  -4  -6 179622.  31611.   1
   2   4   6 197124.  31611.   1
   2   4   6 185464.  27320.   1
   2   4   6 273646.  48146.   1
  -2  -4  -7 1103.80 364.412   1
  -2  -4  -7 1206.24 222.669   1
  -2  -4  -7 1390.02 244.889   1
  -2  -4  -7  741.86 306.672   1
  -2  -4  -7 1247.13 317.456   1
   2   4   7 1316.56 229.386   1
   2   4   7 1472.03 392.046   1
   2   4   7 1256.57 773.983   1
  -2  -4  -8 104134.  18358.   1
  -2  -4  -8  99438.  15949.   1
  -2  -4  -8  87126.  12882.   1
  -2  -4  -8 134127.  21508.   1
   2   4   8 112199.  18003.   1
   2   4   8 106583.  15839.   1
   2   4   8 107099.  18877.   1
  -2  -4  -9  50977. 8184.67   1
  -2  -4  -9  61042. 9040.66   1
   2   4   9  58167. 9325.98   1
   2   4   9  66300.  11716.   1
  -2  -4 -10 4563.02 749.269   1
  -2  -4 -10 6454.72 1108.51   1
   2   4  10 5830.15 947.876   1
   2   4  10 8020.66 1514.49   1
  -2  -4 -12 1030.78 503.257   1
   2   4  12 1130.53 254.325   1
  -2  -4 -13 9696.69 1665.92   1
  -2  -5  10 3098.18 533.363   1
  -2  -5  10 3055.49 717.141   1
  -2  -5   9 114716.  18400.   1
  -2  -5   9 114176.  20110.   1
   2   5  -9  78477.  11732.   1
  -2  -5   8  65963.  10577.   1
  -2  -5   8 131723.  23208.   1
   2   5  -8  75758.  11305.   1
  -2  -5   7 1106.49 211.301   1
  -2  -5   7 1554.48 407.998   1
   2   5  -7 1649.96 766.569   1
  -2  -5   6  34037. 6041.33   1
  -2  -5   6  48236. 7737.58   1
  -2  -5   6  43878. 6603.00   1
   2   5  -6  45068. 6731.06   1
  -2  -5   5  25230. 4549.54   1
  -2  -5   5  14024. 2532.01   1
  -2  -5   5  11458. 1846.77   1
  -2  -5   5  12182. 1939.11   1
   2   5  -5  11836. 1910.13   1
   2   5  -5  16616. 3012.80   1
   2   5  -5  11292. 1773.76   1
   2   5  -5  15381. 2406.20   1
  -2  -5   4  45990. 7375.86   1
  -2  -5   4  61761.  10905.   1
  -2  -5   4  44709. 6638.95   1
  -2  -5   4  48933. 8685.68   1
   2   5  -4  44484. 7142.21   1
   2   5  -4  39676. 7041.11   1
   2   5  -4  49000. 7243.31   1
   2   5  -4  55673. 8243.08   1
  -2  -5   3  19499. 3475.62   1
  -2  -5   3  20171. 3619.41   1
  -2  -5   3  17740. 2851.04   1
  -2  -5   3  19591. 2943.16   1
   2   5  -3  23186. 3486.85   1
   2   5  -3  22049. 3543.02   1
   2   5  -3  22035. 3309.37   1
   2   5  -3  20611. 3689.06   1
  -2  -5   2  21851. 3915.97   1
  -2  -5   2  17484. 2810.60   1
  -2  -5   2  16001. 2864.52   1
   2   5  -2  17780. 2678.05   1
   2   5  -2  18398. 2956.64   1
   2   5  -2  18209. 2734.21   1
   2   5  -2  26219. 4664.12   1
  -2  -5   1 6140.19 1163.56   1
  -2  -5   1 5560.54 898.000   1
  -2  -5   1 5985.17 1103.80   1
   2   5  -1 6769.26 1263.54   1
   2   5  -1 6187.37  999.10   1
   2   5  -1 5565.04 894.854   1
   2   5  -1 6488.42 1038.87   1
   2   5  -1 4668.61 924.510   1
  -2  -5   0  21404. 3803.64   1
  -2  -5   0  23388. 3751.96   1
  -2  -5   0  23141. 4124.91   1
   2   5   0  23905. 4255.22   1
   2   5   0  23905. 3837.34   1
   2   5   0  22826. 3430.69   1
   2   5   0  23343. 3482.36   1
   2   5   0  18472. 3318.35   1
  -2  -5  -1 140665.  24781.   1
  -2  -5  -1 122826.  21624.   1
  -2  -5  -1 139047.  22301.   1
  -2  -5  -1 158953.  23366.   1
   2   5   1 141743.  20856.   1
   2   5   1 141002.  22602.   1
   2   5   1 126466.  22276.   1
   2   5   1 131072.  19281.   1
   2   5   1 176679.  31094.   1
  -2  -5  -2  90384.  15924.   1
  -2  -5  -2  65199.  10458.   1
  -2  -5  -2  69625.  11166.   1
  -2  -5  -2  72658.  12811.   1
  -2  -5  -2  88564.  13067.   1
   2   5   2  65042. 9602.33   1
   2   5   2  67850.  10890.   1
   2   5   2  61200. 9063.12   1
   2   5   2  93777.  16524.   1
   2   5   2  89553.  15785.   1
  -2  -5  -3  54302. 9593.34   1
  -2  -5  -3  42822. 6870.36   1
  -2  -5  -3  47899. 7676.92   1
  -2  -5  -3  46237. 6861.37   1
  -2  -5  -3  39474. 6982.69   1
   2   5   3  41968. 6263.75   1
   2   5   3  47360. 8371.14   1
  -2  -5  -4 253426.  40620.   1
  -2  -5  -4 220669.  35385.   1
  -2  -5  -4 227814.  40081.   1
  -2  -5  -4 236800.  34824.   1
   2   5   4 269153.  47360.   1
   2   5   4 226915.  33386.   1
  -2  -5  -5  58728.  10355.   1
  -2  -5  -5  40732. 6531.11   1
  -2  -5  -5  51382. 8243.08   1
  -2  -5  -5  56302. 8348.68   1
  -2  -5  -5  53628. 9465.28   1
   2   5   5  63132.  11146.   1
   2   5   5  77286.  11481.   1
  -2  -5  -6 148079.  26062.   1
  -2  -5  -6  97394.  15623.   1
  -2  -5  -6  92406.  14821.   1
  -2  -5  -6  83330.  12305.   1
  -2  -5  -6  88991.  15680.   1
   2   5   6 128061.  22557.   1
   2   5   6 106785.  15821.   1
  -2  -5  -7 350483.  61649.   1
  -2  -5  -7 360817.  57830.   1
  -2  -5  -7 368681.  59133.   1
  -2  -5  -7 332959.  48933.   1
  -2  -5  -7 405976.  71377.   1
   2   5   7 315884.  50640.   1
   2   5   7 352729.  62008.   1
   2   5   7 331386.  48731.   1
  -2  -5  -8  70186.  11260.   1
  -2  -5  -8  51404. 8249.82   1
  -2  -5  -8  51135. 9049.64   1
  -2  -5  -8  65423. 9683.21   1
  -2  -5  -8  50416. 8917.09   1
   2   5   8  58504. 9379.91   1
   2   5   8  44552. 7899.34   1
  -2  -5  -9  36014. 5782.96   1
  -2  -5  -9  59380.  10483.   1
  -2  -5  -9  35835. 5369.57   1
   2   5   9  49270. 7906.08   1
   2   5   9  45653. 8097.05   1
  -2  -5 -10 112491.  18048.   1
  -2  -5 -10  92563.  16336.   1
  -2  -5 -10 122287.  18018.   1
   2   5  10 132217.  21209.   1
   2   5  10  95596.  16882.   1
  -2  -5 -11  12438. 2316.33   1
  -2  -5 -11  24174. 3666.59   1
   2   5  11  14635. 2363.51   1
  -2  -5 -12  40575. 7261.28   1
  -2  -5 -12  35767. 5383.05   1
   2   5  12  39811. 6391.82   1
  -2  -6  10  80881.  14271.   1
  -2  -6   9 7128.73 1357.90   1
  -2  -6   8  91755.  14711.   1
  -2  -6   8  75691.  13359.   1
   2   6  -8  58953. 8874.40   1
  -2  -6   7 106178.  17030.   1
  -2  -6   7 113121.  19921.   1
   2   6  -7 111997.  16581.   1
  -2  -6   6  22002. 3536.28   1
  -2  -6   6  24377. 4336.10   1
   2   6  -6  16825. 2657.83   1
  -2  -6   5 207526.  36531.   1
  -2  -6   5 141159.  22647.   1
  -2  -6   5 137115.  20249.   1
   2   6  -5 187688.  27679.   1
   2   6  -5 153156.  22579.   1
  -2  -6   4 167715.  29566.   1
  -2  -6   4 166929.  29387.   1
  -2  -6   4 216895.  34779.   1
  -2  -6   4 168816.  24871.   1
   2   6  -4 197663.  31701.   1
   2   6  -4 176589.  31094.   1
   2   6  -4 202561.  29836.   1
   2   6  -4 166457.  24489.   1
  -2  -6   3 1799.14 427.769   1
  -2  -6   3 1366.21 243.316   1
  -2  -6   3 2945.40 757.806   1
   2   6  -3 1522.13 280.161   1
   2   6  -3 1039.32 441.923   1
   2   6  -3 1720.51 464.390   1
   2   6  -3 1621.43 588.856   1
  -2  -6   2  57560.  10164.   1
  -2  -6   2  60346. 9685.46   1
  -2  -6   2  68479.  12110.   1
   2   6  -2  65131.  10449.   1
   2   6  -2  68906.  12166.   1
   2   6  -2  69086.  10202.   1
   2   6  -2  72590.  10744.   1
  -2  -6   1 184183.  32420.   1
  -2  -6   1 177600.  28465.   1
  -2  -6   1 187441.  33004.   1
   2   6  -1 181802.  29139.   1
   2   6  -1 128825.  22692.   1
   2   6  -1 172680.  25388.   1
   2   6  -1 190384.  28016.   1
  -2  -6   0  16558. 2976.86   1
  -2  -6   0  14260. 2554.48   1
  -2  -6   0  15567. 2500.56   1
   2   6   0  15154. 2731.97   1
   2   6   0  15641. 2511.79   1
   2   6   0  16311. 2507.30   1
   2   6   0  17201. 2583.69   1
   2   6   0  18353. 3284.65   1
  -2  -6  -1 104763.  18465.   1
  -2  -6  -1 107054.  17160.   1
  -2  -6  -1 123343.  21712.   1
   2   6   1 110222.  17668.   1
   2   6   1 100562.  14815.   1
   2   6   1 103168.  15230.   1
  -2  -6  -2  15572. 2790.38   1
  -2  -6  -2  20216. 3583.46   1
  -2  -6  -2  20793. 3336.33   1
  -2  -6  -2  24354. 3659.85   1
  -2  -6  -2  19119. 3068.97   1
   2   6   2  19710. 3163.33   1
   2   6   2  24017. 4282.18   1
   2   6   2  18805. 2893.73   1
   2   6   2  21227. 3221.74   1
   2   6   2  17230. 3077.96   1
  -2  -6  -3  33655. 5949.22   1
  -2  -6  -3  36621. 6483.93   1
  -2  -6  -3  28690. 4603.46   1
  -2  -6  -3  38418. 5720.06   1
  -2  -6  -3  30780. 4938.21   1
   2   6   3  36621. 6495.16   1
   2   6   3  31813. 4801.16   1
   2   6   3  33184. 4947.20   1
  -2  -6  -4 8971.01 1625.93   1
  -2  -6  -4  11874. 1908.33   1
  -2  -6  -4  12038. 1933.50   1
  -2  -6  -4  13105. 2021.79   1
  -2  -6  -4  14927. 2675.80   1
   2   6   4  13127. 2376.99   1
   2   6   4  12853. 2088.97   1
  -2  -6  -5  14556. 2619.63   1
  -2  -6  -5  11512. 1851.27   1
  -2  -6  -5  14087. 2264.66   1
  -2  -6  -5  11566. 1798.47   1
  -2  -6  -5  24826. 4407.99   1
   2   6   5  10744. 1965.40   1
   2   6   5  14329. 2370.25   1
  -2  -6  -6  29903. 5313.41   1
  -2  -6  -6  28308. 4545.04   1
  -2  -6  -6  26533. 4259.71   1
  -2  -6  -6  29993. 4495.61   1
  -2  -6  -6  27095. 4816.89   1
   2   6   6  28173. 4410.24   1
   2   6   6  53112. 9400.13   1
  -2  -6  -7 2437.65 423.500   1
  -2  -6  -7 2066.50 350.707   1
  -2  -6  -7 3662.09 744.102   1
  -2  -6  -7 2410.69 511.795   1
  -2  -6  -7 2130.53 601.437   1
   2   6   7 2529.77 613.794   1
  -2  -6  -8  69849.  11206.   1
  -2  -6  -8  66614.  11761.   1
  -2  -6  -8  70950.  10501.   1
   2   6   8  69692.  12312.   1
  -2  -6  -9  53943. 8658.72   1
  -2  -6  -9  60121.  10638.   1
  -2  -6  -9  49831. 7396.08   1
   2   6   9  50663. 9000.22   1
  -2  -6 -10  30690. 5499.88   1
  -2  -6 -10  22096. 3331.83   1
  -2  -6 -11  34284. 6173.89   1
  -2  -6 -11  49023. 7299.48   1
  -2  -6 -12  32128. 4841.60   1
  -2  -7   9  10038. 1878.00   1
  -2  -7   8  28960. 5156.14   1
  -2  -7   7 3001.57 644.349   1
   2   7  -7 3390.25 1383.28   1
  -2  -7   6  76028.  12199.   1
  -2  -7   6  74523.  13143.   1
   2   7  -6  67805.  10151.   1
  -2  -7   5  24421. 3922.71   1
  -2  -7   5  29072. 5160.63   1
   2   7  -5  30083. 4612.44   1
  -2  -7   4  31791. 5650.41   1
  -2  -7   4  32554. 5225.79   1
   2   7  -4  38104. 5843.62   1
   2   7  -4  33902. 5126.93   1
  -2  -7   3 190609.  33543.   1
  -2  -7   3 172590.  27657.   1
   2   7  -3 183666.  29454.   1
   2   7  -3 187688.  27679.   1
   2   7  -3 206246.  30353.   1
  -2  -7   2  37969. 6726.57   1
  -2  -7   2  37789. 6059.31   1
  -2  -7   2  33813. 6041.33   1
   2   7  -2  36419. 5457.20   1
   2   7  -2  38598. 6194.11   1
   2   7  -2  41878. 6317.68   1
   2   7  -2  34576. 6164.90   1
  -2  -7   1 129387.  22781.   1
  -2  -7   1 127994.  20517.   1
  -2  -7   1 100584.  17751.   1
   2   7  -1 134599.  21588.   1
   2   7  -1 161806.  28510.   1
   2   7  -1 126758.  18722.   1
   2   7  -1 143114.  21063.   1
  -2  -7   0 367558.  64637.   1
  -2  -7   0 340597.  54639.   1
  -2  -7   0 302179.  53157.   1
   2   7   0 312963.  50168.   1
   2   7   0 509773.  89620.   1
   2   7   0 344866.  50663.   1
   2   7   0 297012.  43698.   1
  -2  -7  -1  61874.  10926.   1
  -2  -7  -1  80094.  12849.   1
  -2  -7  -1  94765.  16697.   1
  -2  -7  -1  77668.  12465.   1
   2   7   1  88879.  14257.   1
   2   7   1  90294.  13334.   1
   2   7   1  75556.  11211.   1
  -2  -7  -2  66749.  11761.   1
  -2  -7  -2  42799. 7571.33   1
  -2  -7  -2  50101. 8038.63   1
  -2  -7  -2  59582. 8824.97   1
  -2  -7  -2  41114. 6591.77   1
   2   7   2  51404. 8243.08   1
   2   7   2  61986.  10944.   1
   2   7   2  54707. 8103.79   1
   2   7   2  47113. 7070.31   1
   2   7   2  51472. 9108.06   1
  -2  -7  -3 196091.  34509.   1
  -2  -7  -3 195911.  31409.   1
  -2  -7  -3 164794.  26421.   1
  -2  -7  -3 263311.  46327.   1
  -2  -7  -3 233206.  34262.   1
   2   7   3 189553.  27881.   1
   2   7   3 170344.  25140.   1
   2   7   3 184610.  32510.   1
  -2  -7  -4  35790. 6337.90   1
  -2  -7  -4  17863. 2869.02   1
  -2  -7  -4  18589. 2985.84   1
  -2  -7  -4  24691. 4378.79   1
  -2  -7  -4  20058. 3039.76   1
   2   7   4  20016. 3201.52   1
   2   7   4  16286. 2502.81   1
   2   7   4  19441. 3480.11   1
  -2  -7  -5  40710. 6533.36   1
  -2  -7  -5  51247. 8222.86   1
  -2  -7  -5  48686. 7232.08   1
   2   7   5  56010. 8303.74   1
   2   7   5  52842. 9348.45   1
  -2  -7  -6 221456.  35520.   1
  -2  -7  -6 148708.  23860.   1
  -2  -7  -6 156819.  27612.   1
  -2  -7  -6 145585.  21440.   1
  -2  -7  -6 183082.  32240.   1
   2   7   6 118602.  20910.   1
  -2  -7  -7 6454.72 1049.65   1
  -2  -7  -7 7007.41 1340.82   1
  -2  -7  -7 6306.44 1062.68   1
   2   7   7 5169.62 1068.30   1
  -2  -7  -8  33498. 5378.56   1
  -2  -7  -8  30667. 5470.68   1
  -2  -7  -8  34150. 5106.71   1
   2   7   8  42709. 7611.77   1
  -2  -7  -9  18776. 3026.28   1
  -2  -7  -9  14084. 2621.88   1
  -2  -7  -9  20856. 3145.36   1
   2   7   9  22328. 4104.69   1
  -2  -7 -10 1028.31 413.390   1
  -2  -7 -11 3080.20 749.718   1
  -2  -8   7  995.73 424.399   1
  -2  -8   6 9548.41 1769.94   1
  -2  -8   5  330.04 330.487   1
   2   8  -5  303.08 1101.10   1
  -2  -8   4 3581.21 596.045   1
  -2  -8   4 3641.87 768.815   1
   2   8  -4 3030.78 988.990   1
  -2  -8   3 2502.81 428.892   1
  -2  -8   3 3143.11 669.512   1
   2   8  -3 3880.02 951.471   1
  -2  -8   2 6468.20 1051.22   1
  -2  -8   2 6261.51 1190.07   1
   2   8  -2 7416.30 1303.53   1
  -2  -8   1  21570. 3466.63   1
  -2  -8   1  21009. 3738.48   1
   2   8  -1  18872. 3037.52   1
   2   8  -1  21582. 3271.17   1
  -2  -8   0 6158.16 1288.02   1
  -2  -8   0 8429.56 1360.82   1
  -2  -8   0 7537.62 1390.47   1
   2   8   0 9395.63 1520.11   1
   2   8   0  12341. 2334.30   1
   2   8   0 9314.75 1509.32   1
   2   8   0 9530.43 1813.07   1
  -2  -8  -1 123815.  21829.   1
  -2  -8  -1 123478.  19800.   1
  -2  -8  -1 110110.  17657.   1
  -2  -8  -1 126601.  22294.   1
   2   8   1 129027.  18989.   1
   2   8   1 112806.  18090.   1
   2   8   1  94496.  16691.   1
   2   8   1 116198.  17228.   1
  -2  -8  -2  85689.  13741.   1
  -2  -8  -2  81285.  13042.   1
  -2  -8  -2  84902.  14956.   1
  -2  -8  -2  67401.  11907.   1
   2   8   2  80970.  12990.   1
   2   8   2 106470.  15680.   1
  -2  -8  -3 1588.63 377.892   1
  -2  -8  -3 1179.96 213.794   1
  -2  -8  -3 1530.67 264.210   1
  -2  -8  -3 4136.15 773.309   1
  -2  -8  -3 1734.22 548.416   1
   2   8   3 1930.35 520.781   1
   2   8   3 1316.56 438.103   1
  -2  -8  -4 145765.  25657.   1
  -2  -8  -4 126061.  20222.   1
  -2  -8  -4 183015.  29342.   1
  -2  -8  -4 184318.  27117.   1
  -2  -8  -4 148798.  26196.   1
   2   8   4 189732.  33408.   1
   2   8   4 155336.  22871.   1
  -2  -8  -5  55111. 9743.87   1
  -2  -8  -5  97529.  15644.   1
  -2  -8  -5  72231.  11591.   1
  -2  -8  -5  99258.  14655.   1
  -2  -8  -5  94091.  16581.   1
   2   8   5  87396.  12909.   1
   2   8   5  78185.  13801.   1
  -2  -8  -6  23298. 4142.89   1
  -2  -8  -6  23321. 3745.22   1
  -2  -8  -6  30443. 4569.76   1
   2   8   6  27252. 4129.40   1
   2   8   6  27140. 4846.10   1
  -2  -8  -7 140305.  24736.   1
  -2  -8  -7 179937.  28870.   1
  -2  -8  -7 248034.  36441.   1
   2   8   7 205077.  30150.   1
   2   8   7 164030.  28937.   1
  -2  -8  -8  33161. 5906.53   1
  -2  -8  -8  39676. 6371.60   1
  -2  -8  -8  46012. 6843.40   1
   2   8   8  29611. 5347.11   1
   2   8   8  49652. 7400.58   1
  -2  -8  -9  13550. 2121.77   1
   2   8   9  13876. 2201.53   1
  -2  -8 -10  43339. 6477.19   1
   2   8  10  48663. 7299.48   1
  -2  -9   6  18328. 3347.56   1
  -2  -9   5  29050. 5203.32   1
  -2  -9   4  83217.  14689.   1
   2   9  -4  73107.  10948.   1
  -2  -9   3  15277. 2779.15   1
   2   9  -3  14091. 2493.82   1
  -2  -9   2  25230. 4057.51   1
  -2  -9   2  26691. 4776.45   1
   2   9  -2  25949. 3990.11   1
  -2  -9   1  21474. 3453.15   1
  -2  -9   1  23568. 4221.52   1
   2   9  -1  23680. 3626.15   1
  -2  -9   0 1278.36 257.919   1
  -2  -9   0 1790.16 503.482   1
   2   9   0 1614.24 611.323   1
  -2  -9  -1  25702. 4124.91   1
  -2  -9  -1  29139. 5183.10   1
   2   9   1  30353. 4585.48   1
  -2  -9  -2  23455. 3769.94   1
  -2  -9  -2  22512. 4012.58   1
   2   9   2  24916. 3758.70   1
  -2  -9  -3  10341. 1668.16   1
  -2  -9  -3  11312. 2052.80   1
   2   9   3  12930. 2043.36   1
  -2  -9  -4 2190.74 379.690   1
  -2  -9  -4 1266.91 294.540   1
   2   9   4 3138.62 670.186   1
  -2  -9  -5 8750.83 1416.08   1
  -2  -9  -5  12988. 2036.17   1
   2   9   5  12804. 2036.39   1
  -2  -9  -6  43833. 6528.86   1
   2   9   6  48214. 7189.39   1
  -2  -9  -7 2112.56 587.283   1
   2   9   7 2307.34 626.600   1
  -2  -9  -8  40822. 6113.23   1
   2   9   8  39339. 5920.01   1
  -2  -9  -9  36891. 5547.06   1
   2   9   9  40350. 6088.51   1
  -2 -10   3  84116.  14891.   1
  -2 -10   2  50348. 8950.79   1
   2  10  -2  50663. 7735.33   1
  -2 -10   1 5623.45 1226.02   1
  -2 -10   1 4252.97 733.093   1
   2  10  -1 6030.10 1455.18   1
  -2 -10   0  83105.  13348.   1
  -2 -10   0  94091.  16616.   1
   2  10   0 113839.  16837.   1
  -2 -10  -1  40306. 7166.92   1
   2  10   1  54976. 8229.60   1
   2  10   2  28982. 4430.46   1
   2  10   3 108784.  16075.   1
   2  10   4  21941. 3376.77   1
   2  10   5 4787.68 1006.07   1
   2  10   6  25185. 3866.54   1
   2  10   7 5158.39 1161.54   1
   2  11   2  97326.  14523.   1
   2  11   3 2264.66 1206.02   1
  -3  10   2  45001. 6814.19   1
  -3  10   1 8022.91 1553.81   1
  -3  10   0 8975.50 1632.22   1
  -3  10  -1 1578.30 940.687   1
  -3   9   5 5025.83 1230.28   1
  -3   9   4 103505.  15334.   1
  -3   9   3 107099.  15819.   1
  -3   9   2  219.50 605.257   1
  -3   9   1  87216.  12918.   1
  -3   9   0  57920. 8602.55   1
  -3   9  -1 1715.34 647.944   1
  -3   9  -2  61492. 9157.48   1
  -3   9  -3  40238. 6070.54   1
  -3   9  -4 1073.24 853.291   1
  -3   9  -5  21968. 3554.25   1
  -3   8   7 4425.97 1095.71   1
  -3   8   6  281.51 723.208   1
  -3   8   5 4938.21 1012.13   1
  -3   8   4  15731. 2446.64   1
  -3   8   3  19560. 3008.31   1
   3  -8  -3  22871. 3680.07   1
  -3   8   2 107302.  15826.   1
   3  -8  -2 132644.  21285.   1
  -3   8   1  27926. 4223.77   1
   3  -8  -1  21503. 3459.89   1
  -3   8   0  37452. 5587.50   1
   3  -8   0  67962.  10905.   1
  -3   8  -1  94136.  13929.   1
   3  -8   1 128488.  20604.   1
  -3   8  -2 5522.35 995.955   1
   3  -8   2 5302.17 870.815   1
  -3   8  -3 122242.  18048.   1
   3  -8   3 126601.  20306.   1
  -3   8  -4  98742.  17459.   1
  -3   8  -4 129274.  19079.   1
   3  -8   4 144102.  23118.   1
   3  -8   4 115412.  20382.   1
  -3   8  -5 8595.81 1552.23   1
   3  -8   5 4610.20 762.974   1
   3  -8   5 4560.77 1251.63   1
  -3   8  -6  67086. 9997.74   1
   3  -8   6  68569.  11004.   1
  -3   8  -7  80589.  12044.   1
   3  -8   7  74657.  11984.   1
  -3   7   8  71377.  10670.   1
  -3   7   7  97955.  14493.   1
  -3   7   6 1018.87 490.451   1
   3  -7  -6 1770.16 331.386   1
  -3   7   5  65716. 9734.88   1
   3  -7  -5  88991.  14282.   1
  -3   7   4  35880. 5371.82   1
   3  -7  -4  35812. 5747.02   1
  -3   7   3  22271. 3403.73   1
   3  -7  -3  21543. 3466.63   1
  -3   7   2  39205. 5857.10   1
   3  -7  -2  33071. 5311.16   1
  -3   7   1 1455.40 464.839   1
   3  -7  -1 1414.51 262.413   1
  -3   7   0 2462.37 566.838   1
   3  -7   0 2801.61 472.927   1
  -3   7  -1 2284.88 531.341   1
   3  -7   1 1466.86 275.668   1
  -3   7  -2  14253. 2235.00   1
   3  -7   2  15259. 2457.87   1
  -3   7  -3  22276. 3983.37   1
  -3   7  -3  35677. 5344.86   1
   3  -7   3  23590. 3790.16   1
   3  -7   3  21404. 3837.34   1
  -3   7  -4  12923. 2079.76   1
   3  -7   4  10449. 1688.16   1
   3  -7   4  14046. 2570.21   1
  -3   7  -5  41923. 6301.95   1
   3  -7   5  35565. 5717.81   1
   3  -7   5  40957. 7294.98   1
  -3   7  -6  19778. 3109.41   1
   3  -7   6  16648. 2680.29   1
   3  -7   6  19625. 3594.69   1
  -3   7  -7  14089. 2305.10   1
   3  -7   7  10910. 1765.22   1
   3  -7   7  11377. 2187.15   1
  -3   7  -8 122175.  18088.   1
   3  -7   8 146596.  23500.   1
   3  -7   8 133228.  23523.   1
   3  -7   9  22512. 3623.90   1
  -3   6   9  10973. 1985.84   1
   3  -6  -9  53494. 7966.74   1
  -3   6   8  18423. 2902.72   1
   3  -6  -8 7782.51 1271.40   1
   3  -6  -8  20312. 3120.64   1
  -3   6   7  52123. 7762.29   1
   3  -6  -7  62480.  10018.   1
   3  -6  -7  58414. 8651.98   1
  -3   6   6 159582.  23500.   1
   3  -6  -6 182229.  29229.   1
  -3   6   5 8658.72 1422.82   1
   3  -6  -5 8807.00 1425.75   1
  -3   6   4 151988.  22393.   1
   3  -6  -4 136756.  21932.   1
  -3   6   3 204358.  30061.   1
   3  -6  -3 212918.  34150.   1
  -3   6   2  915.52 410.469   1
   3  -6  -2  829.70 178.903   1
  -3   6   1 116917.  17237.   1
   3  -6  -1 112536.  18057.   1
  -3   6   0 139002.  22292.   1
  -3   6   0 165940.  24421.   1
   3  -6   0 124916.  20027.   1
  -3   6  -1  21276. 3235.22   1
   3  -6   1  23658. 3801.39   1
  -3   6  -2  78814.  13893.   1
  -3   6  -2  77937.  13738.   1
  -3   6  -2  81937.  12098.   1
   3  -6   2  93664.  15019.   1
   3  -6   2  75758.  13372.   1
   3  -6   2  72680.  12817.   1
  -3   6  -3  45855. 8119.52   1
  -3   6  -3  36621. 5495.39   1
   3  -6   3  35924. 5764.99   1
   3  -6   3  34419. 6108.73   1
   3  -6   3  31499. 5618.96   1
  -3   6  -4 1346.66 551.786   1
  -3   6  -4 1059.99 480.341   1
   3  -6   4 1274.77 239.497   1
   3  -6   4  508.42 630.419   1
   3  -6   4 1173.67 427.993   1
  -3   6  -5  24264. 3691.30   1
   3  -6   5  23590. 3792.40   1
   3  -6   5  24287. 4342.84   1
  -3   6  -6 2810.60 831.498   1
   3  -6   6 1452.26 273.197   1
   3  -6   6 2891.48 705.234   1
  -3   6  -7  19274. 3003.82   1
   3  -6   7  14278. 2302.85   1
   3  -6   7  15796. 2875.76   1
  -3   6  -8 6097.50 1186.47   1
   3  -6   8 4488.87 742.978   1
   3  -6   8 5147.15 1086.50   1
  -3   6  -9 7883.61 1568.63   1
   3  -6   9 7863.39 1279.94   1
   3  -6   9 8000.44 1568.86   1
  -3   6 -10  13891. 2534.26   1
   3  -6  10  18250. 2940.91   1
   3  -6  10  16001. 2970.12   1
   3  -5 -10 4387.77 1127.84   1
  -3   5   9  995.51 667.714   1
   3  -5  -9  19342. 3116.15   1
   3  -5  -9  15228. 2394.97   1
  -3   5   8 1190.52 587.283   1
   3  -5  -8  812.63 195.641   1
   3  -5  -8 2178.16 574.028   1
  -3   5   7  26174. 3976.63   1
   3  -5  -7  22736. 3655.35   1
   3  -5  -7  25051. 3810.38   1
  -3   5   6 4511.34 865.198   1
   3  -5  -6 4733.76 775.106   1
   3  -5  -6 7964.49 1292.97   1
  -3   5   5  68412.  10139.   1
   3  -5  -5  79802.  12802.   1
   3  -5  -5  78836.  11665.   1
  -3   5   4  30465. 4572.00   1
   3  -5  -4  28937. 4648.39   1
  -3   5   3  17158. 2765.67   1
  -3   5   3  14496. 2293.86   1
  -3   5   3  14336. 2223.09   1
  -3   5   2 115390.  18508.   1
  -3   5   2 104314.  15390.   1
  -3   5   2  99596.  14716.   1
   3  -5  -2 118558.  19009.   1
   3  -5  -2  73130.  11739.   1
  -3   5   1  72995.  11707.   1
  -3   5   1  81128.  11995.   1
  -3   5   1  79128.  11714.   1
   3  -5  -1  72500.  11631.   1
   3  -5  -1  83509.  13395.   1
  -3   5   0  60953. 9773.08   1
  -3   5   0  67378. 9991.00   1
  -3   5   0  52977. 7863.39   1
   3  -5   0  57448. 9215.90   1
  -3   5  -1 406200.  71512.   1
  -3   5  -1 374298.  65895.   1
  -3   5  -1 329364.  52775.   1
  -3   5  -1 379465.  55785.   1
  -3   5  -1 360143.  52909.   1
   3  -5   1 370029.  59335.   1
   3  -5   1 348461.  61357.   1
   3  -5   1 413615.  60795.   1
   3  -5   1 356773.  62840.   1
  -3   5  -2  73130.  12889.   1
  -3   5  -2  70793.  12487.   1
  -3   5  -2  70501.  11317.   1
  -3   5  -2  75354.  11146.   1
  -3   5  -2  86879.  12851.   1
   3  -5   2  76567.  12294.   1
   3  -5   2  93866.  16542.   1
   3  -5   2  94810.  14042.   1
   3  -5   2  74433.  13116.   1
  -3   5  -3  76005.  13399.   1
  -3   5  -3  71197.  11424.   1
  -3   5  -3  84835.  12570.   1
  -3   5  -3  76297.  11281.   1
   3  -5   3  85059.  13646.   1
   3  -5   3  87553.  12990.   1
   3  -5   3  91103.  16053.   1
  -3   5  -4 342619.  60301.   1
  -3   5  -4 263311.  42238.   1
  -3   5  -4 283307.  41676.   1
   3  -5   4 227140.  36396.   1
   3  -5   4 282858.  41609.   1
   3  -5   4 278364.  48978.   1
  -3   5  -5  75623.  13357.   1
  -3   5  -5  72658.  10768.   1
   3  -5   5  69625.  11175.   1
   3  -5   5  73646.  12988.   1
  -3   5  -6  71175.  10526.   1
   3  -5   6  67423.  10818.   1
   3  -5   6  69288.  12235.   1
  -3   5  -7 218647.  32195.   1
   3  -5   7 160728.  25792.   1
   3  -5   7 171714.  30218.   1
  -3   5  -8 1887.44 601.213   1
   3  -5   8 1372.05 260.166   1
   3  -5   8 1290.94 407.099   1
  -3   5  -9  30959. 4713.54   1
   3  -5   9  30218. 4859.58   1
   3  -5   9  28713. 5115.70   1
  -3   5 -10  39721. 6030.10   1
   3  -5  10  42440. 6814.19   1
   3  -5  10  42912. 7609.52   1
   3  -5  11 5030.33 834.194   1
   3  -5  11 6652.43 1339.02   1
   3  -4 -10 152932.  24511.   1
   3  -4 -10  80386.  11932.   1
  -3   4   9 1361.04 880.251   1
  -3   4   9   80.12 538.530   1
   3  -4  -9 1426.64 274.994   1
   3  -4  -9  648.17 500.337   1
  -3   4   8 155942.  27499.   1
  -3   4   8 102359.  15134.   1
   3  -4  -8 107616.  17252.   1
   3  -4  -8  98045.  14505.   1
  -3   4   7 108402.  19113.   1
  -3   4   7 116423.  17203.   1
   3  -4  -7  97529.  15648.   1
   3  -4  -7 106538.  15727.   1
  -3   4   6  25073. 4459.67   1
  -3   4   6  22458. 4010.33   1
  -3   4   6  21593. 3289.15   1
   3  -4  -6  23051. 3702.54   1
   3  -4  -6  25253. 4491.12   1
   3  -4  -6  23006. 3509.32   1
  -3   4   5  27140. 4801.16   1
  -3   4   5  25500. 4520.33   1
  -3   4   5  24174. 3767.69   1
  -3   4   5  21968. 3334.08   1
   3  -4  -5  30061. 4823.63   1
   3  -4  -5  26938. 4767.46   1
   3  -4  -5  28533. 4277.69   1
  -3   4   4  65558.  10510.   1
  -3   4   4  57380. 8514.93   1
  -3   4   4  58324. 8678.94   1
   3  -4  -4  87508.  14042.   1
   3  -4  -4  62840.  10081.   1
   3  -4  -4  76747.  11337.   1
  -3   4   3  43204. 6937.76   1
  -3   4   3  37902. 5657.15   1
  -3   4   3  34801. 5216.80   1
  -3   4   2  78342.  12572.   1
  -3   4   2  71894.  10636.   1
  -3   4   2  62840. 9317.00   1
   3  -4  -2  59133. 9492.24   1
   3  -4  -2  55718. 8941.80   1
  -3   4   1  624.35 147.090   1
  -3   4   1  441.02 303.976   1
  -3   4   1  778.25 394.068   1
   3  -4  -1  388.68 119.029   1
   3  -4  -1  558.08 136.104   1
  -3   4   0 5800.94 1037.29   1
  -3   4   0 5879.57 1051.00   1
  -3   4   0 5805.43 943.607   1
  -3   4   0 6234.55 1029.66   1
  -3   4   0 5679.62 984.946   1
   3  -4   0 9009.20 1456.30   1
   3  -4   0 5066.27 903.841   1
   3  -4   0 6122.21 1097.06   1
  -3   4  -1 1943.61 395.866   1
  -3   4  -1 1647.72 352.729   1
  -3   4  -1 2446.64 412.941   1
  -3   4  -1 2069.42 527.072   1
  -3   4  -1 1482.81 385.531   1
   3  -4   1 2152.10 368.007   1
   3  -4   1 2159.06 575.600   1
   3  -4   1 2126.49 431.139   1
  -3   4  -2 160750.  28286.   1
  -3   4  -2 161132.  25837.   1
  -3   4  -2 190676.  28061.   1
  -3   4  -2 163132.  24017.   1
   3  -4   2 178477.  28623.   1
   3  -4   2 171849.  25298.   1
   3  -4   2 167603.  29499.   1
  -3   4  -3  58481.  10321.   1
  -3   4  -3  57852. 9287.79   1
  -3   4  -3  55493. 8252.07   1
   3  -4   3  54797. 8793.52   1
   3  -4   3  54819. 8168.94   1
   3  -4   3  51696. 9117.04   1
  -3   4  -4  11943. 2159.29   1
  -3   4  -4  13366. 2155.69   1
  -3   4  -4  10346. 1649.29   1
   3  -4   4  14660. 2359.02   1
   3  -4   4  11467. 1882.95   1
   3  -4   4  11314. 2045.61   1
  -3   4  -5 136239.  23995.   1
  -3   4  -5 143563.  23029.   1
  -3   4  -5 169108.  24893.   1
   3  -4   5 113862.  18257.   1
   3  -4   5 139609.  20613.   1
   3  -4   5 133835.  23568.   1
  -3   4  -6  81802.  14448.   1
  -3   4  -6  74410.  11033.   1
   3  -4   6  72613.  11651.   1
   3  -4   6  72770.  12838.   1
   3  -4   6  89238.  13264.   1
  -3   4  -7  30532. 4594.47   1
   3  -4   7  29095. 4670.86   1
   3  -4   7  36194. 6427.76   1
  -3   4  -8 198809.  29297.   1
   3  -4   8 160009.  25657.   1
   3  -4   8 283981.  49966.   1
  -3   4  -9 110155.  16257.   1
   3  -4   9  92563.  14848.   1
   3  -4   9 108762.  19173.   1
  -3   4 -10 5012.35 1086.05   1
   3  -4  10 6007.63 979.779   1
   3  -4  10 6465.96 1260.39   1
  -3   4 -11  85509.  12703.   1
   3  -4  11  87958.  14114.   1
   3  -4  11  96315.  16994.   1
   3  -4  12  40306. 6474.94   1
   3  -4  12  41429. 7387.10   1
   3  -3 -11  10499. 1706.58   1
   3  -3 -10  14464. 2334.30   1
   3  -3 -10  14044. 2280.38   1
  -3   3   9 191058.  30645.   1
  -3   3   9 142597.  21045.   1
   3  -3  -9 149157.  23927.   1
   3  -3  -9 182498.  26870.   1
  -3   3   8  55426. 9824.75   1
  -3   3   8  49517. 7393.84   1
   3  -3  -8  55066. 8838.46   1
   3  -3  -8  45787. 6816.44   1
  -3   3   7  44529. 7917.31   1
  -3   3   7  52932. 9364.18   1
  -3   3   7  66614. 9887.66   1
   3  -3  -7  66322.  10645.   1
   3  -3  -7  55516. 9827.00   1
   3  -3  -7  64143. 9498.98   1
  -3   3   6 212873.  37475.   1
  -3   3   6 351606.  61829.   1
  -3   3   6 190069.  27971.   1
  -3   3   6 178454.  26331.   1
   3  -3  -6 185576.  29746.   1
   3  -3  -6 228038.  40148.   1
   3  -3  -6 204179.  30038.   1
  -3   3   5 105100.  18524.   1
  -3   3   5 106021.  18674.   1
  -3   3   5  94203.  13932.   1
  -3   3   5  90159.  13321.   1
   3  -3  -5  94765.  15206.   1
   3  -3  -5  95282.  15291.   1
   3  -3  -5  89216.  13181.   1
   3  -3  -5 112379.  19789.   1
  -3   3   4 125590.  22107.   1
  -3   3   4 127387.  22429.   1
  -3   3   4 121905.  17964.   1
  -3   3   4 124399.  18335.   1
   3  -3  -4 120130.  19268.   1
   3  -3  -4 174680.  28016.   1
   3  -3  -4 198247.  29139.   1
   3  -3  -4 139182.  24489.   1
  -3   3   3 453156.  79735.   1
  -3   3   3 366434.  58773.   1
  -3   3   3 422601.  62031.   1
  -3   3   3 405526.  59560.   1
   3  -3  -3 410469.  65805.   1
   3  -3  -3 377443.  60481.   1
   3  -3  -3 435632.  76657.   1
   3  -3  -3 472253.  69355.   1
  -3   3   2  39182. 6913.05   1
  -3   3   2  82049.  13159.   1
  -3   3   2  55403. 9764.09   1
  -3   3   2  42822. 6360.36   1
  -3   3   2  51584. 7654.45   1
   3  -3  -2  42013. 6742.30   1
   3  -3  -2  67378.  10807.   1
  -3   3   1 117457.  20678.   1
  -3   3   1 110267.  17684.   1
  -3   3   1 102876.  18115.   1
  -3   3   1 107706.  15864.   1
  -3   3   1 110492.  16286.   1
   3  -3  -1  93350.  14972.   1
   3  -3  -1 139564.  22375.   1
   3  -3  -1 137115.  24152.   1
  -3   3   0 183127.  32217.   1
  -3   3   0 172972.  30443.   1
  -3   3   0 152662.  24489.   1
  -3   3   0 159065.  23410.   1
  -3   3   0 176792.  25994.   1
   3  -3   0 233880.  37497.   1
   3  -3   0 170007.  25006.   1
   3  -3   0 166322.  29274.   1
  -3   3  -1  90609.  15954.   1
  -3   3  -1  83891.  14779.   1
  -3   3  -1  84543.  13556.   1
  -3   3  -1  93440.  13770.   1
  -3   3  -1  71040.  10505.   1
   3  -3   1  90294.  14480.   1
   3  -3   1  77758.  11476.   1
   3  -3   1  78027.  13750.   1
  -3   3  -2  26264. 4652.88   1
  -3   3  -2  27095. 4351.83   1
  -3   3  -2  24354. 3673.33   1
   3  -3   2  27477. 4414.73   1
   3  -3   2  31701. 4742.75   1
   3  -3   2  23927. 4239.49   1
  -3   3  -3 145158.  25545.   1
  -3   3  -3 119187.  19110.   1
  -3   3  -3 130240.  19193.   1
   3  -3   3 170321.  27320.   1
   3  -3   3 140777.  20728.   1
   3  -3   3 151921.  26736.   1
  -3   3  -4 2520.78 550.887   1
  -3   3  -4 2880.25 480.566   1
  -3   3  -4 3569.98 700.291   1
   3  -3   4 2390.47 401.482   1
   3  -3   4 3356.55 724.106   1
   3  -3   4 2684.79 575.376   1
  -3   3  -5  32420. 5756.00   1
  -3   3  -5  25635. 4118.17   1
  -3   3  -5  39834. 5976.18   1
   3  -3   5  24421. 3924.96   1
   3  -3   5  31027. 4684.34   1
   3  -3   5  33139. 5875.08   1
  -3   3  -6 1456.30 466.861   1
  -3   3  -6 1380.36 274.545   1
  -3   3  -6 2234.78 565.490   1
   3  -3   6 1660.52 288.025   1
   3  -3   6 2713.99 788.361   1
   3  -3   6 2197.93 508.649   1
  -3   3  -7  34666. 6167.15   1
  -3   3  -7  34891. 5600.98   1
  -3   3  -7  40890. 6128.95   1
   3  -3   7  35116. 5636.93   1
   3  -3   7  32217. 4917.99   1
   3  -3   7  38688. 6856.88   1
  -3   3  -8  24309. 3686.81   1
   3  -3   8  15927. 2565.71   1
   3  -3   8  16497. 2970.12   1
  -3   3  -9  30443. 4605.70   1
   3  -3   9  34239. 5504.38   1
   3  -3   9  30375. 5405.52   1
  -3   3 -10  75534.  11204.   1
   3  -3  10  71939.  11539.   1
   3  -3  10 104224.  18385.   1
  -3   3 -11  455.18 636.036   1
   3  -3  11  394.97 141.137   1
   3  -3  11  687.71 386.654   1
  -3   3 -12  53875. 8076.83   1
   3  -3  12  62795.  10065.   1
   3  -3  12  74028.  13080.   1
  -3   2  11 3693.55 625.252   1
   3  -2 -11 6519.88 1074.59   1
  -3   2  10 3853.06 639.631   1
   3  -2 -10 3376.77 567.288   1
   3  -2 -10 3507.07 988.766   1
  -3   2   9 6209.83 1248.26   1
  -3   2   9 8168.94 1321.95   1
  -3   2   9 5466.18 1094.14   1
   3  -2  -9 6778.25 1100.88   1
   3  -2  -9 6063.80 1126.94   1
  -3   2   8 2855.54 657.380   1
  -3   2   8 6313.18 1026.51   1
  -3   2   8 4688.83 906.537   1
   3  -2  -8 4329.36 711.525   1
   3  -2  -8 4572.00 859.357   1
  -3   2   7  47068. 7551.10   1
  -3   2   7  43002. 6425.52   1
   3  -2  -7  67266.  10795.   1
   3  -2  -7  51337. 7643.22   1
   3  -2  -7  53606. 9487.75   1
  -3   2   6 8043.13 1545.04   1
  -3   2   6  11784. 2131.20   1
  -3   2   6 8616.03 1391.82   1
  -3   2   6 6874.85 1172.99   1
  -3   2   6 6515.38 1314.98   1
   3  -2  -6 6535.60 1059.54   1
   3  -2  -6 6034.59 986.070   1
   3  -2  -6 6317.68 1035.72   1
   3  -2  -6 7292.74 1381.49   1
  -3   2   5  63559.  11215.   1
  -3   2   5  61559.  10872.   1
  -3   2   5  70276.  11272.   1
  -3   2   5  57852. 8600.31   1
  -3   2   5  70681.  10465.   1
   3  -2  -5  74972.  12031.   1
   3  -2  -5 114244.  18319.   1
   3  -2  -5  65289. 9674.22   1
   3  -2  -5  74972.  13215.   1
  -3   2   4 107976.  19016.   1
  -3   2   4 137475.  24197.   1
  -3   2   4 120063.  17688.   1
  -3   2   4 123478.  18194.   1
   3  -2  -4 122916.  19710.   1
   3  -2  -4 118378.  18989.   1
   3  -2  -4 138351.  20380.   1
   3  -2  -4 154212.  27140.   1
  -3   2   3  44552. 7863.39   1
  -3   2   3  59020.  10413.   1
  -3   2   3  65042.  10427.   1
  -3   2   3  54415. 8054.36   1
  -3   2   3  49562. 7355.64   1
   3  -2  -3  54842. 8798.01   1
   3  -2  -3  46798. 7519.65   1
   3  -2  -3  55044. 8150.97   1
   3  -2  -3  53134. 9368.67   1
  -3   2   2 385980.  61919.   1
  -3   2   2 421703.  61919.   1
  -3   2   2 411143.  60368.   1
   3  -2  -2 488429.  78342.   1
   3  -2  -2 329589.  52887.   1
   3  -2  -2 567512.  99775.   1
  -3   2   1 145608.  25612.   1
  -3   2   1 102696.  16468.   1
  -3   2   1 126623.  22285.   1
  -3   2   1 140216.  20622.   1
  -3   2   1 141766.  20860.   1
   3  -2  -1 106807.  17129.   1
   3  -2  -1 133678.  21438.   1
   3  -2  -1 128757.  22647.   1
   3  -2  -1 132083.  23253.   1
  -3   2   0  974.61 253.201   1
  -3   2   0  906.31 235.228   1
  -3   2   0 1295.66 234.554   1
  -3   2   0  986.29 303.976   1
  -3   2   0 1002.70 304.650   1
   3  -2   0 1795.33 309.818   1
   3  -2   0  863.40 270.725   1
   3  -2   0  841.16 254.774   1
  -3   2  -1 522354.  83801.   1
  -3   2  -1 671534.  98540.   1
   3  -2   1 608177.  89261.   1
  -3   2  -2 336329.  59155.   1
  -3   2  -2 251853.  40373.   1
  -3   2  -2 288474.  42395.   1
   3  -2   2 215345.  34532.   1
   3  -2   2 366884.  53875.   1
   3  -2   2 286677.  50438.   1
  -3   2  -3  77241.  13613.   1
  -3   2  -3  90272.  14480.   1
  -3   2  -3  63873. 9451.80   1
   3  -2   3  67827.  10887.   1
   3  -2   3  78634.  11611.   1
   3  -2   3  60930.  10762.   1
  -3   2  -4 489328.  86070.   1
  -3   2  -4 755784. 121231.   1
  -3   2  -4 522354.  76679.   1
   3  -2   4 403954.  64749.   1
   3  -2   4 398112.  58504.   1
  -3   2  -5 167513.  29476.   1
  -3   2  -5 115345.  18497.   1
  -3   2  -5 140260.  20669.   1
   3  -2   5 139676.  22402.   1
   3  -2   5 125545.  18501.   1
   3  -2   5 166524.  29342.   1
  -3   2  -6  14781. 2666.81   1
  -3   2  -6  17216. 2770.16   1
  -3   2  -6  18245. 2821.84   1
   3  -2   6  23792. 3823.86   1
   3  -2   6  16873. 2630.87   1
   3  -2   6  15154. 2734.21   1
  -3   2  -7 177982.  31341.   1
  -3   2  -7 198966.  31903.   1
  -3   2  -7 184273.  27117.   1
   3  -2   7 188407.  30218.   1
   3  -2   7 158211.  23343.   1
   3  -2   7 224219.  39452.   1
  -3   2  -8  54505. 8119.52   1
   3  -2   8  91912.  14738.   1
   3  -2   8  59155.  10454.   1
  -3   2  -9  49989. 7450.00   1
   3  -2   9  74163.  11901.   1
   3  -2   9  45361. 8029.65   1
  -3   2 -10  43069. 6461.46   1
   3  -2  10  44439. 7128.73   1
   3  -2  10  35408. 6288.47   1
  -3   2 -11 2583.69 705.908   1
   3  -2  11 1624.58 293.642   1
   3  -2  11 2350.03 576.050   1
  -3   2 -12 2538.75 844.753   1
   3  -2  12 2936.42 503.033   1
   3  -2  12 2275.89 592.001   1
   3  -2  13  744.33 218.670   1
   3  -2  13  678.95 522.354   1
  -3   1  11  24916. 4005.84   1
   3  -1 -11  25073. 4035.04   1
  -3   1  10  88609.  14217.   1
   3  -1 -10  98764.  15848.   1
   3  -1 -10 100404.  14898.   1
  -3   1   9  10894. 2016.62   1
  -3   1   9  12031. 1936.87   1
   3  -1  -9  10982. 1769.94   1
   3  -1  -9  11137. 1804.31   1
  -3   1   8  79533.  12759.   1
  -3   1   8  73040.  12898.   1
   3  -1  -8  47787. 7670.18   1
   3  -1  -8  42934. 6405.30   1
  -3   1   7 142979.  22939.   1
  -3   1   7  97776.  14538.   1
   3  -1  -7  69737.  11191.   1
   3  -1  -7  76747.  11348.   1
   3  -1  -7 102988.  18167.   1
  -3   1   6  10067. 1832.84   1
  -3   1   6  20274. 3257.69   1
  -3   1   6  18070. 3271.17   1
  -3   1   6  16448. 2619.63   1
   3  -1  -6  17205. 2767.91   1
   3  -1  -6  18014. 2898.22   1
   3  -1  -6  17686. 2702.76   1
   3  -1  -6  17511. 3147.60   1
  -3   1   5  49697. 8793.52   1
  -3   1   5  58414.  10319.   1
  -3   1   5  44372. 7124.23   1
  -3   1   5  46237. 6895.07   1
  -3   1   5  42283. 6297.46   1
   3  -1  -5  61110. 9809.02   1
   3  -1  -5  49180. 7890.35   1
   3  -1  -5  50528. 7508.42   1
   3  -1  -5  50550. 8928.32   1
  -3   1   4 9815.76 1794.65   1
  -3   1   4  15596. 2794.87   1
  -3   1   4 7804.98 1259.49   1
  -3   1   4 7625.25 1240.17   1
  -3   1   4 7973.48 1268.48   1
   3  -1  -4 8292.51 1339.70   1
   3  -1  -4 7955.51 1284.20   1
   3  -1  -4 8726.12 1370.48   1
   3  -1  -4 8910.35 1622.56   1
  -3   1   3 4718.04 882.273   1
  -3   1   3 5427.99 1026.96   1
  -3   1   3 5326.89 865.198   1
  -3   1   3 4668.61 795.101   1
  -3   1   3 4414.73 751.291   1
   3  -1  -3 4131.65 675.353   1
   3  -1  -3 5497.64 891.934   1
   3  -1  -3 3208.26 567.288   1
   3  -1  -3 5630.19 1051.22   1
  -3   1   2 5358.34 990.338   1
  -3   1   2 5484.16 1026.73   1
  -3   1   2 8211.63 1327.34   1
  -3   1   2 4888.78 795.551   1
  -3   1   2 5187.59 845.203   1
   3  -1  -2 6495.16 1049.88   1
   3  -1  -2 7052.34 1141.76   1
   3  -1  -2 6814.19 1079.31   1
   3  -1  -2 5953.71 1127.61   1
   3  -1  -2 7268.02 1330.49   1
  -3   1   1 6394.06 1182.21   1
  -3   1   1 6279.48 1016.40   1
  -3   1   1 6818.69 1241.74   1
  -3   1   1 6769.26 1058.86   1
  -3   1   1 8175.68 1274.32   1
   3  -1  -1 5192.09 841.383   1
   3  -1  -1 7074.81 1144.46   1
   3  -1  -1 6580.54 1226.24   1
   3  -1  -1 6486.18 1187.82   1
  -3   1   0 121478.  21377.   1
  -3   1   0 132959.  23410.   1
  -3   1   0 124534.  19960.   1
  -3   1   0 161200.  23680.   1
  -3   1   0 124893.  18369.   1
   3  -1   0 183419.  29409.   1
   3  -1   0 126106.  22193.   1
   3  -1   0 126825.  18638.   1
   3  -1   0 138486.  24377.   1
  -3   1  -1 6652.43 1220.17   1
  -3   1  -1 5016.85 812.850   1
  -3   1  -1 6737.81 1232.98   1
  -3   1  -1 8577.84 1339.02   1
   3  -1   1 5625.70 912.154   1
   3  -1   1 7171.42 1120.20   1
   3  -1   1 6715.34 1233.20   1
  -3   1  -2 104988.  18490.   1
  -3   1  -2 129858.  20829.   1
  -3   1  -2 121950.  21472.   1
  -3   1  -2 143473.  21123.   1
   3  -1   2 142844.  22894.   1
   3  -1   2 115345.  16974.   1
   3  -1   2 130285.  22939.   1
  -3   1  -3 283082.  49764.   1
  -3   1  -3 290946.  46664.   1
  -3   1  -3 312064.  45877.   1
   3  -1   3 294990.  47315.   1
   3  -1   3 257919.  37902.   1
   3  -1   3 311840.  54864.   1
  -3   1  -4 9078.85 1650.19   1
  -3   1  -4  16228. 2608.40   1
  -3   1  -4  10863. 1714.44   1
   3  -1   4 8908.10 1439.00   1
   3  -1   4 9676.47 1516.96   1
   3  -1   4  12851. 2327.56   1
  -3   1  -5 364412.  64075.   1
  -3   1  -5 344641.  55291.   1
  -3   1  -5 361941.  53201.   1
   3  -1   5 346439.  55538.   1
   3  -1   5 365535.  53718.   1
   3  -1   5 452257.  79555.   1
  -3   1  -6 347562.  61132.   1
  -3   1  -6 290272.  46529.   1
  -3   1  -6 346439.  50887.   1
   3  -1   6 420130.  67356.   1
   3  -1   6 354077.  52011.   1
   3  -1   6 500786.  88070.   1
  -3   1  -7  208.94 318.804   1
  -3   1  -7  721.63 190.204   1
  -3   1  -7  540.55 389.800   1
   3  -1   7  141.52  98.719   1
   3  -1   7 1045.38 692.877   1
   3  -1   7  263.76 259.267   1
  -3   1  -8 339474.  59717.   1
  -3   1  -8 343069.  55021.   1
  -3   1  -8 289598.  42575.   1
   3  -1   8 355650.  56998.   1
   3  -1   8 247360.  36419.   1
   3  -1   8 533587.  93866.   1
  -3   1  -9 166861.  24601.   1
   3  -1   9 195417.  31319.   1
   3  -1   9 157178.  27679.   1
  -3   1 -10 2035.50 571.107   1
   3  -1  10 1874.86 327.791   1
   3  -1  10 2108.29 504.156   1
  -3   1 -11  71242.  10566.   1
   3  -1  11  87598.  14049.   1
   3  -1  11  77331.  13660.   1
  -3   1 -12  61290. 9112.55   1
   3  -1  12  58369. 9370.92   1
   3  -1  12  60166.  10652.   1
  -3   1 -13 2253.42 884.519   1
   3  -1  13 1986.97 371.826   1
   3  -1  13 2938.66 775.106   1
  -3   0  11  24646. 3960.90   1
   3   0 -11  33835. 5434.73   1
  -3   0  10 1588.41 280.611   1
  -3   0  10  231.41 398.337   1
   3   0 -10 1355.42 253.201   1
   3   0 -10 2010.56 929.453   1
  -3   0   9 106043.  17012.   1
  -3   0   9 159627.  28106.   1
   3   0  -9 130240.  20892.   1
   3   0  -9 127836.  18865.   1
  -3   0   8 243541.  42867.   1
  -3   0   8 175017.  28061.   1
   3   0  -8 163626.  26241.   1
   3   0  -8 159155.  23433.   1
  -3   0   7  15071. 2424.17   1
  -3   0   7  24961. 3933.94   1
   3   0  -7  27949. 4488.87   1
   3   0  -7  16877. 2570.21   1
   3   0  -7  17317. 3149.85   1
  -3   0   6 344417.  60616.   1
  -3   0   6 287800.  50640.   1
  -3   0   6 342395.  50348.   1
  -3   0   6 291170.  46709.   1
   3   0  -6 558526.  89598.   1
   3   0  -6 337227.  54033.   1
   3   0  -6 277465.  40777.   1
   3   0  -6 307122.  54010.   1
  -3   0   5 225118.  39632.   1
  -3   0   5 216221.  38059.   1
  -3   0   5 172455.  25388.   1
  -3   0   5 249831.  40081.   1
   3   0  -5 223275.  35790.   1
   3   0  -5 175107.  28084.   1
   3   0  -5 152730.  22465.   1
   3   0  -5 194720.  34262.   1
  -3   0   4  39205. 6946.75   1
  -3   0   4  33858. 5998.65   1
  -3   0   4  32105. 5156.14   1
  -3   0   4  36958. 5497.64   1
  -3   0   4  40395. 6003.14   1
   3   0  -4  54302. 8714.89   1
   3   0  -4  33745. 5419.00   1
   3   0  -4  36868. 6522.12   1
   3   0  -4  42597. 6328.91   1
  -3   0   3 505279.  88856.   1
  -3   0   3 484160.  71085.   1
  -3   0   3 517636.  75960.   1
   3   0  -3 382386.  67288.   1
  -3   0   2 191485.  33700.   1
  -3   0   2 182745.  32173.   1
  -3   0   2 206583.  33139.   1
  -3   0   2 174725.  25680.   1
  -3   0   2 171669.  25230.   1
   3   0  -2 216086.  34644.   1
   3   0  -2 194248.  31139.   1
   3   0  -2 252303.  37048.   1
   3   0  -2 189126.  33296.   1
   3   0  -2 217187.  38216.   1
  -3   0   1 3549.76 699.617   1
  -3   0   1 5524.60 893.282   1
  -3   0   1 3819.36 732.194   1
  -3   0   1 4547.29 732.419   1
  -3   0   1 3940.68 629.296   1
   3   0  -1 3352.05 550.887   1
   3   0  -1 2718.49 446.416   1
   3   0  -1 3868.79 744.776   1
   3   0  -1 3489.10 708.379   1
  -3   0   0 140620.  24758.   1
  -3   0   0 119726.  21083.   1
  -3   0   0 110043.  17645.   1
  -3   0   0 165760.  24354.   1
  -3   0   0 122961.  18079.   1
   3   0   0 149382.  23950.   1
   3   0   0 107279.  17210.   1
   3   0   0 102157.  15017.   1
   3   0   0 106515.  18755.   1
   3   0   0 107189.  18886.   1
  -3   0  -1  504.16 245.563   1
  -3   0  -1  176.41  80.633   1
  -3   0  -1  288.92 206.178   1
  -3   0  -1  851.94 252.977   1
   3   0   1  294.09  93.597   1
   3   0   1  379.91 209.301   1
   3   0   1  214.02 164.547   1
   3   0   1  270.05 222.579   1
  -3   0  -2  89867.  15830.   1
  -3   0  -2 102561.  18068.   1
  -3   0  -2 124646.  18349.   1
  -3   0  -2  97304.  15605.   1
   3   0   2 101281.  16250.   1
   3   0   2  98944.  14554.   1
   3   0   2  84116.  14826.   1
  -3   0  -3  86587.  15259.   1
  -3   0  -3  73309.  11755.   1
  -3   0  -3 108627.  16021.   1
   3   0   3  59560. 9546.16   1
   3   0   3  78342.  11557.   1
   3   0   3 111323.  19609.   1
  -3   0  -4  40755. 7207.36   1
  -3   0  -4  38306. 6149.17   1
  -3   0  -4  45742. 6811.95   1
   3   0   4  41946. 6735.56   1
   3   0   4  35003. 5216.80   1
   3   0   4  38620. 6841.15   1
  -3   0  -5 4992.13 949.449   1
  -3   0  -5 6524.37 1054.82   1
  -3   0  -5 5508.87 946.528   1
   3   0   5 5192.09 844.079   1
   3   0   5 4947.20 887.440   1
   3   0   5 3900.24 778.251   1
  -3   0  -6 1307.35 380.588   1
  -3   0  -6  624.35 149.584   1
  -3   0  -6 2110.09 527.746   1
   3   0   6 1017.07 191.125   1
   3   0   6 1849.69 569.759   1
   3   0   6 1201.53 379.690   1
  -3   0  -7 118984.  20962.   1
  -3   0  -7 144956.  23253.   1
  -3   0  -7 109953.  16241.   1
   3   0   7 123882.  19865.   1
   3   0   7 119995.  17733.   1
   3   0   7 134239.  23658.   1
  -3   0  -8  55336. 9791.05   1
  -3   0  -8  68546.  10998.   1
  -3   0  -8  49899. 7434.28   1
   3   0   8  49944. 8016.17   1
   3   0   8  57066. 8537.40   1
   3   0   8  49225. 8728.37   1
  -3   0  -9  54617. 8119.52   1
   3   0   9  94024.  15073.   1
   3   0   9  51472. 9114.80   1
  -3   0 -10  99101.  14657.   1
  -3   0 -11  20000. 3075.71   1
   3   0  11  17783. 2860.03   1
   3   0  11  18776. 3385.75   1
  -3   0 -12  29701. 4482.13   1
   3   0  12  34262. 5499.88   1
   3   0  12  44237. 7856.65   1
  -3   0 -13  94248.  13956.   1
   3   0  13 107032.  17171.   1
   3   0  13  92496.  16340.   1
  -3  -1  11 7126.48 1159.51   1
   3   1 -11 7829.69 1276.57   1
  -3  -1  10  13392. 2155.92   1
  -3  -1  10 9483.25 1767.24   1
   3   1 -10 8461.01 1366.66   1
   3   1 -10  15895. 2718.49   1
  -3  -1   9  25006. 4017.07   1
  -3  -1   9  18904. 3399.23   1
   3   1  -9  19128. 3075.71   1
   3   1  -9  18787. 2936.42   1
  -3  -1   8  34958. 5614.46   1
  -3  -1   8  46282. 8195.90   1
   3   1  -8  34150. 5481.91   1
   3   1  -8  37834. 5672.88   1
  -3  -1   7  65064.  11490.   1
  -3  -1   7  50955. 8184.67   1
  -3  -1   7  67333.  10061.   1
   3   1  -7  53538. 8582.33   1
   3   1  -7  47877. 7133.22   1
  -3  -1   6 1103.57 328.915   1
  -3  -1   6 1534.26 267.131   1
  -3  -1   6  805.89 478.768   1
  -3  -1   6 1264.43 628.847   1
   3   1  -6 1668.16 305.100   1
   3   1  -6 1642.10 285.104   1
   3   1  -6 2167.60 490.002   1
   3   1  -6 2123.79 547.292   1
  -3  -1   5 181532.  31948.   1
  -3  -1   5 149539.  23972.   1
  -3  -1   5 118939.  20957.   1
  -3  -1   5 108987.  16062.   1
   3   1  -5 109391.  17538.   1
   3   1  -5 116940.  18762.   1
   3   1  -5 101707.  14974.   1
   3   1  -5 124803.  21970.   1
  -3  -1   4 151359.  26646.   1
  -3  -1   4 189710.  33386.   1
  -3  -1   4 111076.  16360.   1
  -3  -1   4 146416.  23478.   1
   3   1  -4 180791.  28982.   1
   3   1  -4 119209.  19124.   1
   3   1  -4 103954.  15309.   1
   3   1  -4 130353.  22961.   1
  -3  -1   3 2442.15 546.618   1
  -3  -1   3 2264.66 491.125   1
  -3  -1   3 1514.71 259.043   1
  -3  -1   3 1287.35 277.915   1
  -3  -1   3 1914.17 384.857   1
   3   1  -3 2201.30 367.108   1
   3   1  -3 1390.70 243.316   1
   3   1  -3 1639.85 302.628   1
   3   1  -3 1787.01 461.469   1
   3   1  -3 2266.90 488.878   1
  -3  -1   2 427769.  68569.   1
  -3  -1   2 432936.  76118.   1
  -3  -1   2 394742.  57942.   1
   3   1  -2 443271.  70995.   1
   3   1  -2 404403.  71108.   1
   3   1  -2 437654.  77016.   1
  -3  -1   1 321500.  56527.   1
  -3  -1   1 272747.  47989.   1
  -3  -1   1 340148.  49966.   1
   3   1  -1 349359.  55987.   1
   3   1  -1 335205.  58953.   1
   3   1  -1 344866.  60660.   1
  -3  -1   0   -7.58 222.264   1
  -3  -1   0  365.76  89.126   1
  -3  -1   0  385.31 254.100   1
  -3  -1   0  677.15 193.372   1
   3   1   0  299.71  74.837   1
   3   1   0  570.43 117.412   1
   3   1   0  911.03 196.922   1
   3   1   0  300.83 266.906   1
   3   1   0  558.75 248.708   1
  -3  -1  -1 182790.  32173.   1
  -3  -1  -1 181060.  29027.   1
  -3  -1  -1 161986.  28510.   1
  -3  -1  -1 168119.  24714.   1
   3   1   1 137789.  24264.   1
   3   1   1 166120.  24399.   1
   3   1   1 157942.  27791.   1
  -3  -1  -3  662.77 277.016   1
  -3  -1  -3  888.34 155.605   1
  -3  -1  -3  841.61 285.554   1
  -3  -1  -3  751.52 297.236   1
   3   1   3  654.91 287.351   1
   3   1   3  818.92 317.007   1
  -3  -1  -4 620309.  91013.   1
   3   1   4 671084.  98472.   1
  -3  -1  -5 192406.  33858.   1
  -3  -1  -5 413390.  66277.   1
  -3  -1  -5 204538.  30083.   1
   3   1   5 223275.  35790.   1
   3   1   5 191260.  28128.   1
   3   1   5 211952.  37295.   1
  -3  -1  -6 9777.57 1783.19   1
  -3  -1  -6  10299. 1660.07   1
  -3  -1  -6 7297.23 1206.92   1
   3   1   6  13988. 2248.93   1
   3   1   6 7840.93 1311.84   1
   3   1   6 5358.34 1043.14   1
  -3  -1  -7 107212.  18886.   1
  -3  -1  -7 111975.  17951.   1
  -3  -1  -7 136149.  20074.   1
   3   1   7 135003.  21645.   1
   3   1   7 118670.  17540.   1
   3   1   7  96023.  16936.   1
  -3  -1  -8  25477. 4549.54   1
  -3  -1  -8  28668. 4605.70   1
  -3  -1  -8  27634. 4167.60   1
   3   1   8  23613. 3794.65   1
   3   1   8  36801. 5596.49   1
   3   1   8  34891. 6207.59   1
  -3  -1  -9  15327. 2471.35   1
  -3  -1  -9  15210. 2374.74   1
   3   1   9  10908. 1758.48   1
   3   1   9  19097. 3432.93   1
  -3  -1 -10 8297.00 1361.27   1
   3   1  10 7130.97 1153.45   1
   3   1  10 9081.10 1685.24   1
  -3  -1 -11 2173.67 585.261   1
   3   1  11 1477.42 271.624   1
   3   1  11 1242.19 417.883   1
  -3  -1 -12 5403.27 1019.55   1
   3   1  12 4664.12 770.163   1
   3   1  12 4151.87 901.370   1
  -3  -1 -13 2057.74 718.265   1
   3   1  13 1373.17 295.439   1
   3   1  13 1141.32 526.623   1
  -3  -2  11  13377. 2162.21   1
  -3  -2  11  11880. 2222.42   1
   3   2 -11  12413. 2007.64   1
  -3  -2  10  88429.  14188.   1
  -3  -2  10  98832.  17439.   1
   3   2 -10  67064.  10762.   1
   3   2 -10  69894.  10465.   1
  -3  -2   9  36082. 5794.20   1
  -3  -2   9  37879. 6719.83   1
   3   2  -9  43271. 6942.25   1
   3   2  -9  37812. 5733.54   1
  -3  -2   8  26286. 4221.52   1
  -3  -2   8  22736. 4062.00   1
   3   2  -8  24466. 3929.45   1
   3   2  -8  29521. 4473.15   1
  -3  -2   7  88991.  15693.   1
  -3  -2   7  46349. 7438.77   1
  -3  -2   7  53381. 7995.95   1
   3   2  -7  48641. 7816.21   1
   3   2  -7  50685. 7539.87   1
  -3  -2   6 1465.51 562.120   1
  -3  -2   6 1241.29 220.872   1
  -3  -2   6 1301.05 356.099   1
  -3  -2   6  922.26 532.464   1
   3   2  -6 1470.90 278.814   1
   3   2  -6  968.77 191.889   1
   3   2  -6  728.37 316.558   1
   3   2  -6  979.55 433.610   1
  -3  -2   5 5937.99 1170.30   1
  -3  -2   5 6214.33 1006.07   1
  -3  -2   5  11249. 2044.71   1
  -3  -2   5 6629.96 1085.37   1
   3   2  -5 7025.38 1139.74   1
   3   2  -5 8070.09 1303.98   1
   3   2  -5 4124.91 713.771   1
   3   2  -5 6263.75 1186.47   1
  -3  -2   4  22826. 3666.59   1
  -3  -2   4  22669. 3383.51   1
   3   2  -4  22449. 3608.17   1
   3   2  -4  28915. 4639.40   1
   3   2  -4  18335. 2734.21   1
   3   2  -4  22579. 4023.81   1
  -3  -2   3  22411. 3992.36   1
  -3  -2   3  15947. 2869.02   1
  -3  -2   3  16823. 2702.76   1
  -3  -2   3  20687. 3068.97   1
  -3  -2   3  18585. 2758.93   1
   3   2  -3  22310. 3583.46   1
   3   2  -3  16576. 2666.81   1
   3   2  -3  20721. 3066.72   1
   3   2  -3  19083. 3426.19   1
   3   2  -3  19645. 3504.83   1
  -3  -2   2  22579. 3626.15   1
  -3  -2   2  24242. 4313.63   1
  -3  -2   2  26084. 4643.90   1
   3   2  -2  22393. 3594.69   1
   3   2  -2  32083. 5149.40   1
   3   2  -2  25882. 4594.47   1
   3   2  -2  33700. 6005.39   1
  -3  -2   1  73197.  11746.   1
  -3  -2   1 107549.  18944.   1
  -3  -2   1  60548.  10692.   1
   3   2  -1  70074.  11242.   1
   3   2  -1  82274.  13202.   1
   3   2  -1  66030.  11647.   1
   3   2  -1  54931. 9723.65   1
  -3  -2   0  78948.  13920.   1
  -3  -2   0  93237.  16430.   1
  -3  -2   0  71108.  10476.   1
  -3  -2   0  78252.  12548.   1
   3   2   0  71242.  11436.   1
   3   2   0  85644.  13736.   1
   3   2   0  76185.  11229.   1
   3   2   0  75241.  13280.   1
   3   2   0  92047.  16214.   1
  -3  -2  -1  16239. 2911.70   1
  -3  -2  -1  13765. 2475.85   1
  -3  -2  -1  11355. 1711.30   1
  -3  -2  -1  16275. 2610.65   1
   3   2   1  13986. 2244.66   1
   3   2   1  15682. 2516.29   1
   3   2   1  17439. 2603.91   1
   3   2   1  14790. 2651.09   1
   3   2   1  14505. 2624.13   1
  -3  -2  -2 182318.  29229.   1
  -3  -2  -2 210402.  30914.   1
   3   2   2 184767.  32532.   1
   3   2   2 264210.  38800.   1
   3   2   2 219119.  38553.   1
  -3  -2  -3 921140. 135116.   1
   3   2   3 909008. 133453.   1
  -3  -2  -4  59762.  10546.   1
  -3  -2  -4  69198.  11092.   1
  -3  -2  -4  48708. 8613.79   1
  -3  -2  -4  53224. 7883.61   1
   3   2   4  62930.  10092.   1
   3   2   4  60031. 8894.62   1
  -3  -2  -5 144686.  25477.   1
  -3  -2  -5 179667.  28802.   1
  -3  -2  -5 223006.  32802.   1
   3   2   5 164704.  26399.   1
   3   2   5 172972.  25455.   1
   3   2   5 194540.  34239.   1
  -3  -2  -6 591552. 103954.   1
  -3  -2  -6 445068.  71422.   1
  -3  -2  -6 321051.  47158.   1
   3   2   6 344417.  55223.   1
   3   2   6 404852.  59447.   1
   3   2   6 302628.  53291.   1
  -3  -2  -7  16780. 3003.82   1
  -3  -2  -7  21182. 3403.73   1
  -3  -2  -7  16522. 2545.49   1
   3   2   7  23882. 3835.09   1
   3   2   7  17338. 2743.20   1
   3   2   7  12588. 2284.88   1
  -3  -2  -8 196293.  34554.   1
  -3  -2  -8 145405.  23321.   1
  -3  -2  -8 165401.  24354.   1
   3   2   8 159874.  25635.   1
   3   2   8 155313.  22916.   1
   3   2   8 179308.  31566.   1
  -3  -2  -9 225567.  36172.   1
  -3  -2  -9 237025.  34846.   1
   3   2   9 199461.  31993.   1
   3   2   9 270950.  47675.   1
  -3  -2 -10  16194. 2516.29   1
   3   2  10  16448. 2648.84   1
   3   2  10  28645. 5108.96   1
  -3  -2 -11  79196.  11721.   1
   3   2  11  99640.  15985.   1
   3   2  11  85464.  15084.   1
  -3  -2 -12  80319.  11871.   1
   3   2  12  84453.  13550.   1
   3   2  12  85104.  15028.   1
  -3  -2 -13 4812.40 1023.36   1
   3   2  13 5881.82 978.431   1
   3   2  13 3082.45 767.243   1
  -3  -3  11  51314. 8234.10   1
  -3  -3  11  68254.  12062.   1
   3   3 -11  42013. 6744.55   1
  -3  -3  10 2059.09 360.593   1
  -3  -3  10 1532.01 501.909   1
   3   3 -10 1714.00 316.108   1
  -3  -3   9  98877.  15862.   1
  -3  -3   9 114828.  20238.   1
   3   3  -9 122961.  19724.   1
   3   3  -9 118535.  17560.   1
  -3  -3   8 115120.  18468.   1
  -3  -3   8 115974.  20438.   1
   3   3  -8 115704.  18558.   1
   3   3  -8 104246.  15421.   1
  -3  -3   7 8101.54 1507.08   1
  -3  -3   7 9548.41 1539.65   1
  -3  -3   7 8420.57 1554.93   1
   3   3  -7  10377. 1670.41   1
  -3  -3   6 148865.  26219.   1
  -3  -3   6 130802.  20975.   1
  -3  -3   6 107751.  19025.   1
  -3  -3   6 140373.  20687.   1
   3   3  -6 119366.  19146.   1
   3   3  -6 112626.  16585.   1
   3   3  -6 113390.  19993.   1
  -3  -3   5 164996.  29072.   1
  -3  -3   5 255223.  40935.   1
  -3  -3   5 246911.  43451.   1
  -3  -3   5 250056.  36778.   1
   3   3  -5 222894.  35745.   1
   3   3  -5 174140.  25612.   1
   3   3  -5 408672.  71894.   1
  -3  -3   4 3356.55 678.049   1
  -3  -3   4 3963.15 646.596   1
  -3  -3   4 3906.98 838.013   1
  -3  -3   4 4203.55 664.120   1
   3   3  -4 3147.60 518.310   1
   3   3  -4 2000.45 345.989   1
   3   3  -4 3401.48 706.357   1
  -3  -3   3 171647.  27522.   1
  -3  -3   3 147854.  26039.   1
  -3  -3   3 272073.  47899.   1
   3   3  -3 211772.  33970.   1
  -3  -3   2 188587.  30240.   1
  -3  -3   2 227140.  39969.   1
  -3  -3   2 230734.  40598.   1
   3   3  -2 148798.  23860.   1
   3   3  -2 165581.  29139.   1
   3   3  -2 195417.  34397.   1
  -3  -3   1 1762.97 290.946   1
  -3  -3   1 3475.62 715.569   1
  -3  -3   1 1833.52 442.597   1
   3   3  -1 2127.61 351.381   1
   3   3  -1 1555.15 257.695   1
   3   3  -1 3044.26 619.860   1
   3   3  -1 1362.16 429.117   1
  -3  -3   0 258144.  45428.   1
  -3  -3   0 170568.  30016.   1
   3   3   0 222467.  35677.   1
   3   3   0 222264.  35655.   1
   3   3   0 278139.  48910.   1
   3   3   0 290272.  42799.   1
   3   3   0 186340.  32802.   1
  -3  -3  -1  85172.  12530.   1
   3   3   1  92271.  16279.   1
   3   3   1  86160.  13817.   1
   3   3   1 102741.  15122.   1
   3   3   1  93687.  16509.   1
  -3  -3  -2  53606. 9463.03   1
  -3  -3  -2  49921. 8820.48   1
  -3  -3  -2  50932. 7519.65   1
   3   3   2  45967. 8126.26   1
   3   3   2  48528. 8589.07   1
   3   3   2  56032. 8283.52   1
  -3  -3  -3 8422.82 1533.36   1
  -3  -3  -3 8773.30 1407.77   1
  -3  -3  -3 7544.37 1396.54   1
  -3  -3  -3 6787.23 1077.29   1
   3   3   3 8040.88 1290.94   1
   3   3   3 7306.22 1191.87   1
   3   3   3 6677.14 1259.49   1
  -3  -3  -4 125028.  22026.   1
  -3  -3  -4  97484.  15623.   1
  -3  -3  -4  93934.  16551.   1
  -3  -3  -4  58032. 8586.83   1
   3   3   4  81847.  13123.   1
   3   3   4  56661. 8418.33   1
   3   3   4  98135.  17302.   1
  -3  -3  -5  28892. 5126.93   1
  -3  -3  -5  60368. 9685.46   1
  -3  -3  -5  33296. 5906.53   1
  -3  -3  -5  27410. 4109.19   1
   3   3   5  29903. 4798.92   1
   3   3   5  45428. 6771.51   1
   3   3   5  32217. 5724.55   1
  -3  -3  -6  191.10 236.800   1
  -3  -3  -6 1190.97 208.065   1
  -3  -3  -6  442.60 266.007   1
  -3  -3  -6  381.71 268.479   1
   3   3   6  453.38 102.269   1
   3   3   6  282.41 457.650   1
   3   3   6  640.30 290.047   1
  -3  -3  -7 140328.  24714.   1
  -3  -3  -7  62750.  10056.   1
  -3  -3  -7  57717. 8562.11   1
   3   3   7  61447. 9856.20   1
   3   3   7  62413. 9319.25   1
   3   3   7  64682.  11427.   1
  -3  -3  -8  51202. 9054.14   1
  -3  -3  -8  56504. 9069.86   1
  -3  -3  -8  57627. 8557.62   1
   3   3   8  54549. 8748.59   1
   3   3   8  64435. 9640.52   1
   3   3   8  56392. 9973.03   1
  -3  -3  -9  47832. 7676.92   1
  -3  -3  -9  30555. 4596.72   1
   3   3   9  42417. 6807.45   1
   3   3   9  38800. 6886.09   1
  -3  -3 -10 121321.  17884.   1
   3   3  10 114738.  18403.   1
   3   3  10  93911.  16565.   1
  -3  -3 -11  36261. 5825.65   1
  -3  -3 -11  46124. 6868.11   1
   3   3  11  59223. 9501.23   1
   3   3  11  92114.  16255.   1
  -3  -3 -12  26691. 4026.06   1
   3   3  12  37452. 6016.62   1
   3   3  12  22804. 4120.42   1
  -3  -3 -13  87576.  12975.   1
   3   3  13 111368.  17870.   1
  -3  -4  10 4554.03 753.538   1
  -3  -4  10 1398.56 483.262   1
   3   4 -10 3394.74 579.644   1
  -3  -4   9  10142. 1638.28   1
  -3  -4   9  11177. 2051.67   1
   3   4  -9 9957.30 1610.20   1
  -3  -4   8  12674. 2041.79   1
  -3  -4   8  13125. 2379.24   1
   3   4  -8  13042. 2128.96   1
  -3  -4   7 162952.  28690.   1
  -3  -4   7 115929.  18589.   1
  -3  -4   7 122849.  18149.   1
   3   4  -7  97686.  14433.   1
  -3  -4   6  11588. 2099.08   1
  -3  -4   6 7530.88 1217.93   1
  -3  -4   6 7935.29 1334.75   1
   3   4  -6 6290.71 1041.11   1
  -3  -4   5 105774.  18672.   1
  -3  -4   5  97012.  17102.   1
  -3  -4   5 107099.  15794.   1
  -3  -4   5 101011.  16201.   1
   3   4  -5 105796.  16967.   1
   3   4  -5  74163.  10941.   1
   3   4  -5 129229.  22781.   1
  -3  -4   4 302179.  53134.   1
  -3  -4   4 299483.  48012.   1
  -3  -4   4 242193.  35969.   1
  -3  -4   4 296113.  52101.   1
   3   4  -4 275893.  44260.   1
   3   4  -4 316558.  55695.   1
  -3  -4   3  34532. 5540.32   1
  -3  -4   3  49629. 8777.79   1
  -3  -4   3  35250. 6261.51   1
   3   4  -3  37542. 6030.10   1
   3   4  -3  42934. 7602.78   1
  -3  -4   2 245563.  39384.   1
  -3  -4   2 200517.  35295.   1
  -3  -4   2 246911.  43451.   1
   3   4  -2 234554.  37587.   1
   3   4  -2 212626.  37430.   1
   3   4  -2 392496.  69041.   1
  -3  -4   1 216603.  34734.   1
  -3  -4   1 220692.  38823.   1
  -3  -4   1 291395.  51247.   1
   3   4  -1 209481.  33588.   1
   3   4  -1 299258.  52685.   1
   3   4  -1 246461.  43339.   1
  -3  -4   0  12772. 2311.84   1
  -3  -4   0  11222. 2034.60   1
  -3  -4   0 7607.27 1222.42   1
   3   4   0 7596.04 1221.30   1
   3   4   0 8759.82 1408.00   1
   3   4   0 8501.45 1592.00   1
   3   4   0 8571.10 1312.51   1
   3   4   0 7378.11 1109.64   1
   3   4   0  12552. 2264.66   1
  -3  -4  -1 249831.  43968.   1
  -3  -4  -1 238373.  41923.   1
  -3  -4  -1 322174.  47315.   1
   3   4   1 288924.  50842.   1
   3   4   1 292518.  51449.   1
   3   4   1 222556.  32712.   1
  -3  -4  -2 509099.  89530.   1
  -3  -4  -2 563468.  82723.   1
   3   4   2 458548.  80656.   1
   3   4   2 377443.  55426.   1
  -3  -4  -3  26129. 4637.16   1
  -3  -4  -3  15662. 2824.08   1
  -3  -4  -3  18445. 2779.15   1
   3   4   3  10036. 1843.18   1
   3   4   3  17942. 2740.95   1
  -3  -4  -4  93687.  16518.   1
  -3  -4  -4  74523.  11957.   1
  -3  -4  -4  85037.  14992.   1
  -3  -4  -4  57470. 8505.95   1
  -3  -4  -4  80184.  12862.   1
   3   4   4  55628. 8267.80   1
   3   4   4  87643.  15462.   1
  -3  -4  -5 201393.  35453.   1
  -3  -4  -5 293866.  47113.   1
  -3  -4  -5 257695.  45316.   1
  -3  -4  -5 218220.  32083.   1
  -3  -4  -5 243541.  39070.   1
   3   4   5 276117.  44282.   1
   3   4   5 211143.  31072.   1
   3   4   5 296338.  52146.   1
  -3  -4  -6 1760.28 437.429   1
  -3  -4  -6  930.13 169.512   1
  -3  -4  -6 1095.03 368.681   1
  -3  -4  -6 1123.79 359.694   1
  -3  -4  -6 1248.26 216.872   1
   3   4   6 1276.34 215.345   1
   3   4   6 1757.13 695.349   1
   3   4   6 1472.93 402.156   1
  -3  -4  -7 155044.  27320.   1
  -3  -4  -7 136037.  21820.   1
  -3  -4  -7 130240.  20885.   1
  -3  -4  -7 112536.  16585.   1
  -3  -4  -7 132150.  23276.   1
   3   4   7 135385.  21707.   1
   3   4   7 117120.  20645.   1
   3   4   7 130465.  19301.   1
  -3  -4  -8  24826. 4414.73   1
  -3  -4  -8  33026. 5306.67   1
  -3  -4  -8  24084. 3868.79   1
  -3  -4  -8  29005. 4358.57   1
  -3  -4  -8  20793. 3742.98   1
   3   4   8  31588. 5070.77   1
   3   4   8  25095. 4477.64   1
   3   4   8  29432. 4628.17   1
  -3  -4  -9 1954.17 336.778   1
  -3  -4  -9 1765.22 485.958   1
  -3  -4  -9 1817.12 480.116   1
   3   4   9 1794.43 310.492   1
   3   4   9 1639.41 467.086   1
  -3  -4 -10 3190.29 533.138   1
  -3  -4 -10 2417.43 548.191   1
  -3  -4 -10 3841.83 741.406   1
   3   4  10 2397.21 406.874   1
   3   4  10 3390.25 727.252   1
  -3  -4 -11 9029.42 1676.70   1
  -3  -4 -11  11539. 1820.04   1
   3   4  11 9170.96 1484.38   1
   3   4  11  12532. 2311.84   1
  -3  -4 -12  11788. 2209.84   1
  -3  -4 -12  16008. 2493.82   1
   3   4  12  17587. 2835.32   1
  -3  -4 -13  451.81 553.808   1
  -3  -5  10  40193. 7133.22   1
   3   5 -10  37295. 5991.91   1
  -3  -5   9  37677. 6048.07   1
  -3  -5   9  33206. 5895.30   1
  -3  -5   8 4587.73 753.762   1
  -3  -5   8 4367.55 855.088   1
  -3  -5   7  17367. 3120.64   1
  -3  -5   7  18009. 2895.98   1
  -3  -5   7 8013.92 1443.94   1
   3   5  -7  11341. 1771.51   1
   3   5  -7  13157. 2124.91   1
  -3  -5   6  913.28 182.947   1
  -3  -5   6  262.86 257.245   1
  -3  -5   6  552.23 512.918   1
  -3  -5   5 6000.89 974.836   1
  -3  -5   5 5416.76 1027.86   1
   3   5  -5 5756.00 952.145   1
  -3  -5   4 6463.71 1045.83   1
  -3  -5   4 8294.76 1644.12   1
  -3  -5   4 6248.03 1174.79   1
   3   5  -4 6048.07 986.968   1
   3   5  -4  10591. 1971.47   1
  -3  -5   3  22826. 3666.59   1
  -3  -5   3  29207. 5189.84   1
  -3  -5   3  23635. 4248.48   1
   3   5  -3  27881. 4477.64   1
   3   5  -3  24826. 4443.94   1
  -3  -5   2  33678. 5973.93   1
  -3  -5   2  35857. 5753.76   1
  -3  -5   2  34532. 6137.94   1
   3   5  -2  30173. 5378.56   1
   3   5  -2  33700. 5403.27   1
   3   5  -2  32375. 4803.41   1
   3   5  -2  24646. 3664.34   1
   3   5  -2  28847. 5129.18   1
  -3  -5   1 8452.02 1577.40   1
  -3  -5   1  13642. 2192.09   1
  -3  -5   1 8708.15 1596.94   1
   3   5  -1  11901. 2161.53   1
   3   5  -1  15293. 2457.87   1
   3   5  -1  14608. 2180.86   1
   3   5  -1  11206. 1701.86   1
   3   5  -1 9665.23 1795.55   1
  -3  -5   0 168906.  29746.   1
  -3  -5   0 207391.  33251.   1
  -3  -5   0 238373.  41946.   1
   3   5   0 214289.  31476.   1
   3   5   0 208200.  33386.   1
   3   5   0 191462.  33700.   1
   3   5   0 175803.  25837.   1
   3   5   0 199101.  35048.   1
  -3  -5  -1 122916.  21647.   1
  -3  -5  -1 169265.  29791.   1
  -3  -5  -1 154864.  22781.   1
   3   5   1 115817.  17043.   1
   3   5   1 100831.  14853.   1
  -3  -5  -2  64412.  11352.   1
  -3  -5  -2  50618. 8948.54   1
  -3  -5  -2  66187. 9766.33   1
   3   5   2  68501.  12103.   1
   3   5   2  52797. 9328.23   1
   3   5   2  47090. 7009.65   1
  -3  -5  -3 544147.  95709.   1
  -3  -5  -3 518085.  76028.   1
   3   5   3 637384. 112087.   1
   3   5   3 488878.  71804.   1
  -3  -5  -4 157223.  23141.   1
   3   5   4 180701.  31813.   1
   3   5   4 132644.  19562.   1
  -3  -5  -5  81802.  13112.   1
  -3  -5  -5  91058.  14597.   1
  -3  -5  -5  88744.  13098.   1
   3   5   5 120624.  21258.   1
   3   5   5 114963.  16989.   1
  -3  -5  -6 276567.  48641.   1
  -3  -5  -6 349135.  56032.   1
  -3  -5  -6 294091.  47135.   1
  -3  -5  -6 253426.  37250.   1
  -3  -5  -6 349584.  61514.   1
   3   5   6 261065.  45967.   1
   3   5   6 279937.  41227.   1
  -3  -5  -7  58886.  10402.   1
  -3  -5  -7 112222.  17989.   1
  -3  -5  -7  75197.  12051.   1
  -3  -5  -7  60863. 9013.70   1
  -3  -5  -7  52438. 9276.56   1
   3   5   7  79420.  12739.   1
   3   5   7  55942. 9887.66   1
   3   5   7  66569. 9939.33   1
  -3  -5  -8  64749.  10391.   1
  -3  -5  -8  76365.  12251.   1
  -3  -5  -8  68861.  12159.   1
  -3  -5  -8  68209.  10090.   1
  -3  -5  -8  54729. 9707.92   1
   3   5   8  82363.  13204.   1
   3   5   8  72006.  12714.   1
  -3  -5  -9 179937.  28847.   1
  -3  -5  -9 112963.  19910.   1
  -3  -5  -9 135812.  20013.   1
   3   5   9 136688.  21916.   1
   3   5   9 115412.  20353.   1
  -3  -5 -10  20944. 3370.03   1
  -3  -5 -10  19115. 3448.66   1
  -3  -5 -10  17290. 2639.85   1
   3   5  10  17059. 2745.45   1
   3   5  10  30173. 5394.29   1
  -3  -5 -11 8959.78 1693.33   1
  -3  -5 -11  11478. 1790.83   1
   3   5  11  13397. 2163.78   1
  -3  -5 -12  34981. 6286.22   1
  -3  -5 -12  43945. 6594.02   1
   3   5  12  35295. 5675.12   1
  -3  -5 -13  13774. 2197.93   1
  -3  -6   9  54370. 9606.82   1
  -3  -6   8 110694.  19508.   1
  -3  -6   7 4201.30 697.371   1
  -3  -6   7 4030.55 812.401   1
  -3  -6   6  46574. 7467.98   1
  -3  -6   6  63941.  11294.   1
  -3  -6   5  94922.  15233.   1
  -3  -6   5  90025.  15871.   1
  -3  -6   4  17762. 2853.29   1
  -3  -6   4  15158. 2718.49   1
   3   6  -4  15554. 2509.55   1
  -3  -6   3  93350.  16455.   1
  -3  -6   3  75534.  12114.   1
  -3  -6   3 184835.  32554.   1
   3   6  -3  78499.  11604.   1
   3   6  -3  91777.  14711.   1
   3   6  -3  89530.  13217.   1
   3   6  -3 103550.  18268.   1
  -3  -6   2  80274.  14156.   1
  -3  -6   2  86295.  13844.   1
  -3  -6   2  69849.  12359.   1
   3   6  -2  83801.  13449.   1
   3   6  -2 149764.  26376.   1
   3   6  -2  77982.  11501.   1
   3   6  -2  57807. 8555.37   1
  -3  -6   1 2363.51 607.728   1
  -3  -6   1 1792.18 430.465   1
  -3  -6   1 2203.10 363.738   1
   3   6  -1 2062.23 535.834   1
   3   6  -1 2439.90 404.628   1
   3   6  -1 1986.74 494.495   1
   3   6  -1 1838.46 384.408   1
   3   6  -1 2307.34 549.988   1
  -3  -6   0  13105. 2385.98   1
  -3  -6   0  12274. 1970.12   1
  -3  -6   0  10332. 1879.13   1
   3   6   0  14954. 2262.41   1
   3   6   0  12460. 2002.47   1
   3   6   0  14931. 2702.76   1
   3   6   0  10339. 1646.37   1
   3   6   0  10357. 1909.23   1
  -3  -6  -1  21878. 3906.98   1
  -3  -6  -1  26443. 4702.31   1
   3   6   1  23500. 4192.31   1
   3   6   1  16724. 3019.54   1
   3   6   1  17868. 2756.68   1
   3   6   1  21636. 3228.48   1
  -3  -6  -2  28039. 4983.15   1
  -3  -6  -2  29499. 5232.53   1
  -3  -6  -2  30937. 4619.18   1
   3   6   2  25612. 4563.02   1
   3   6   2  22871. 4086.72   1
   3   6   2  27657. 4201.30   1
   3   6   2  30690. 4569.76   1
  -3  -6  -3  21878. 3900.24   1
  -3  -6  -3  21069. 3749.72   1
  -3  -6  -3  19957. 3019.54   1
   3   6   3  13381. 2433.16   1
   3   6   3  14680. 2329.81   1
  -3  -6  -4  20820. 3704.78   1
  -3  -6  -4  31409. 5576.27   1
  -3  -6  -4  23950. 3599.19   1
   3   6   4  25118. 4482.13   1
   3   6   4  21737. 3401.48   1
  -3  -6  -5  45181. 7995.95   1
  -3  -6  -5  71445.  12611.   1
  -3  -6  -5  76320.  11276.   1
   3   6   5 109234.  19259.   1
   3   6   5  69175.  10330.   1
  -3  -6  -6 2345.54 517.187   1
  -3  -6  -6 2302.85 379.914   1
  -3  -6  -6 2135.70 353.853   1
  -3  -6  -6 1990.79 455.178   1
  -3  -6  -6 2403.95 622.107   1
   3   6   6 1807.01 986.070   1
   3   6   6 2478.09 572.230   1
  -3  -6  -7 117906.  18917.   1
  -3  -6  -7  77421.  12420.   1
  -3  -6  -7  69692.  12310.   1
  -3  -6  -7  74118.  10957.   1
  -3  -6  -7  77219.  13637.   1
   3   6   7  56145. 9946.07   1
  -3  -6  -8  38980. 6261.51   1
  -3  -6  -8  49113. 7885.86   1
  -3  -6  -8  61514. 9121.54   1
  -3  -6  -8  52775. 9325.98   1
   3   6   8  54010. 9570.87   1
  -3  -6  -9 1603.91 313.188   1
  -3  -6  -9  891.48 438.553   1
  -3  -6  -9 1505.50 425.971   1
   3   6   9 1753.31 568.860   1
  -3  -6 -10  71467.  11469.   1
  -3  -6 -10  81375.  14374.   1
  -3  -6 -10  79892.  11786.   1
  -3  -6 -11  30757. 5535.83   1
  -3  -6 -11  35790. 5340.37   1
  -3  -6 -12 6499.66 1188.27   1
  -3  -7   8 4794.42 992.360   1
  -3  -7   7  58863.  10402.   1
  -3  -7   6  30195. 5369.57   1
  -3  -7   5  31521. 5057.29   1
  -3  -7   5  27679. 4924.73   1
  -3  -7   4 273421.  48102.   1
  -3  -7   4 214783.  34442.   1
   3   7  -4 179959.  26556.   1
   3   7  -4 195035.  28802.   1
  -3  -7   3  55583. 8926.08   1
  -3  -7   3  56841.  10038.   1
   3   7  -3  49876. 8007.18   1
   3   7  -3  59739. 8847.44   1
   3   7  -3  47248. 7068.07   1
  -3  -7   2  54190. 9561.89   1
  -3  -7   2  38081. 6115.47   1
   3   7  -2  37317. 5996.40   1
   3   7  -2  43698. 6490.67   1
   3   7  -2  34239. 5162.88   1
  -3  -7   1 268703.  47270.   1
  -3  -7   1 283981.  45540.   1
  -3  -7   1 203639.  35857.   1
   3   7  -1 255673.  37587.   1
   3   7  -1 268928.  43136.   1
   3   7  -1 228488.  33655.   1
   3   7  -1 238373.  41968.   1
  -3  -7   0  63222.  11188.   1
  -3  -7   0  63581.  10191.   1
  -3  -7   0  52393. 9256.34   1
   3   7   0  59874. 8845.19   1
   3   7   0  67625.  10845.   1
   3   7   0  62413.  11031.   1
   3   7   0  57583. 8577.84   1
   3   7   0  70905.  12534.   1
  -3  -7  -1  83711.  14779.   1
  -3  -7  -1 145742.  25657.   1
   3   7   1 112986.  16639.   1
   3   7   1  88182.  13078.   1
  -3  -7  -2 206830.  36396.   1
  -3  -7  -2 237474.  41788.   1
  -3  -7  -2 256347.  37677.   1
   3   7   2 212469.  37407.   1
   3   7   2 211997.  37317.   1
   3   7   2 238373.  35071.   1
   3   7   2 184138.  27140.   1
  -3  -7  -3  23478. 4174.34   1
  -3  -7  -3  43900. 7782.51   1
  -3  -7  -3  26870. 4030.55   1
   3   7   3  27410. 4895.52   1
   3   7   3  22826. 3462.14   1
   3   7   3  20431. 3250.95   1
  -3  -7  -4  59717.  10544.   1
  -3  -7  -4  71467.  12626.   1
  -3  -7  -4  75107.  11105.   1
   3   7   4 108515.  19146.   1
   3   7   4  71579.  10568.   1
   3   7   4  61537. 9267.57   1
  -3  -7  -5 120400.  21229.   1
  -3  -7  -5  74478.  13136.   1
  -3  -7  -5  79690.  11773.   1
   3   7   5  54729. 9692.19   1
  -3  -7  -6  13098. 2040.44   1
   3   7   6 9352.95 1757.36   1
  -3  -7  -7  10744. 1731.07   1
  -3  -7  -7  11411. 1835.32   1
  -3  -7  -7  14610. 2260.16   1
  -3  -7  -7  11236. 2053.24   1
   3   7   7  11478. 2126.49   1
  -3  -7  -8 2234.55 395.641   1
  -3  -7  -8 2988.09 710.851   1
  -3  -7  -8 2612.89 592.226   1
   3   7   8 3051.00 802.740   1
  -3  -7  -9 4563.02 770.388   1
  -3  -7  -9 6892.83 1390.47   1
  -3  -7  -9 5230.28 902.493   1
   3   7   9 3906.98 1026.29   1
  -3  -7 -10  755.56 270.276   1
  -3  -7 -10 1815.10 841.158   1
  -3  -7 -10 2092.34 529.768   1
  -3  -7 -11 4697.82 964.052   1
  -3  -8   7 5178.61 1057.06   1
  -3  -8   6   66.46 345.765   1
  -3  -8   5 4538.30 893.506   1
  -3  -8   4 1086.95 360.817   1
  -3  -8   4 1497.86 283.981   1
   3   8  -4  163.31 637.384   1
  -3  -8   3  38373. 6160.41   1
  -3  -8   3  46506. 8220.62   1
   3   8  -3  40036. 6025.61   1
  -3  -8   2  61290.  10820.   1
  -3  -8   2  43698. 7011.90   1
   3   8  -2  51090. 7618.51   1
   3   8  -2  34442. 5358.34   1
  -3  -8   1 2790.38 465.513   1
  -3  -8   1 3037.52 638.508   1
   3   8  -1 2343.29 412.716   1
   3   8  -1 2970.12 731.071   1
   3   8  -1 2835.32 1289.60   1
  -3  -8   0  74500.  11946.   1
  -3  -8   0  89283.  15738.   1
   3   8   0  68973.  11063.   1
   3   8   0  77758.  11496.   1
   3   8   0  62727. 9424.84   1
  -3  -8  -1 162615.  28668.   1
  -3  -8  -1 158593.  27926.   1
   3   8   1 136598.  24107.   1
   3   8   1 170433.  30038.   1
   3   8   1 166614.  24511.   1
   3   8   1 122489.  18160.   1
  -3  -8  -2  636.49 548.865   1
  -3  -8  -2 1033.92 310.267   1
   3   8   2  825.43 435.857   1
   3   8   2  400.13 557.178   1
   3   8   2  109.39 357.897   1
  -3  -8  -3 186699.  32891.   1
  -3  -8  -3 130105.  22916.   1
  -3  -8  -3 198517.  29207.   1
   3   8   3 149674.  26376.   1
   3   8   3 148843.  21903.   1
  -3  -8  -4  89059.  15693.   1
  -3  -8  -4  65940.  11663.   1
  -3  -8  -4 112267.  16554.   1
   3   8   4  81128.  14318.   1
   3   8   4  85374.  12597.   1
  -3  -8  -5  29521. 5241.51   1
  -3  -8  -5  22447. 3405.97   1
   3   8   5  21833. 3929.45   1
   3   8   5  19991. 3051.00   1
  -3  -8  -6 264884.  46596.   1
  -3  -8  -6 256796.  37744.   1
   3   8   6 242642.  42732.   1
   3   8   6 206448.  30375.   1
  -3  -8  -7 143945.  25365.   1
  -3  -8  -7 102157.  15082.   1
   3   8   7  94518.  16715.   1
   3   8   7 108740.  16028.   1
  -3  -8  -8 1730.85 666.366   1
  -3  -8  -8 3338.57 689.283   1
   3   8   8 3379.01 1042.91   1
  -3  -8  -9  45967. 8222.86   1
  -3  -8  -9  60548. 8982.24   1
  -3  -8 -10  12775. 2059.54   1
  -3  -8 -11 3760.95 900.920   1
  -3  -9   5  51337. 9092.33   1
  -3  -9   4  19011. 3419.45   1
  -3  -9   3  12804. 2327.56   1
  -3  -9   3  12716. 2055.27   1
   3   9  -3 6888.33 1586.38   1
  -3  -9   2  35453. 5693.10   1
  -3  -9   2  37025. 6567.06   1
   3   9  -2  40800. 6230.05   1
  -3  -9   1 2098.18 369.130   1
  -3  -9   1 1811.28 502.808   1
   3   9  -1 2716.24 894.405   1
  -3  -9   0  13348. 2146.48   1
  -3  -9   0  17333. 3116.15   1
   3   9   0  16852. 2635.36   1
  -3  -9  -1  796.90 356.099   1
   3   9   1  926.08 559.200   1
  -3  -9  -2  19020. 3412.71   1
   3   9   2  17556. 2713.99   1
  -3  -9  -3 9950.56 1827.00   1
   3   9   3  13595. 2532.01   1
   3   9   3  11838. 1896.20   1
  -3  -9  -4  31656. 5630.19   1
  -3  -9  -4  49427. 7369.12   1
   3   9   4  45024. 8027.40   1
   3   9   4  31364. 4702.31   1
  -3  -9  -5  41586. 7375.86   1
  -3  -9  -5  46506. 6937.76   1
   3   9   5  39384. 7036.61   1
   3   9   5  43114. 6441.24   1
  -3  -9  -6  891.26 523.927   1
  -3  -9  -6 1108.29 482.812   1
   3   9   6 1097.95 806.560   1
   3   9   6  904.96 540.103   1
  -3  -9  -7  58638. 8708.15   1
   3   9   7  42283. 6315.43   1
  -3  -9  -8  55695. 8285.77   1
   3   9   8  55471. 8279.03   1
  -3  -9  -9 1038.64 622.556   1
   3   9   9  761.18 728.824   1
  -3 -10   3  72815.  12878.   1
  -3 -10   2 9555.15 1847.67   1
  -3 -10   1 102089.  18016.   1
   3  10  -1  94428.  14064.   1
  -3 -10   0  49966. 8860.92   1
   3  10   0  48259. 7281.50   1
  -3 -10  -1 7173.66 1434.51   1
   3  10   1 8470.00 1639.41   1
  -3 -10  -2  78005.  13783.   1
   3  10   2  90159.  13370.   1
  -3 -10  -3  22467. 4039.54   1
   3  10   3  30869. 4715.79   1
   3  10   4 6542.34 1257.47   1
   3  10   5  14911. 2415.19   1
   3  10   6 1266.23 728.150   1
   3  10   7  10204. 1821.39   1
  -4   9   3  552.91 870.815   1
  -4   9   2  59874. 8959.78   1
  -4   9   1  62458. 9343.96   1
  -4   9   0  811.28 689.957   1
  -4   9  -1  55785. 8368.90   1
  -4   9  -2  27410. 4259.71   1
  -4   9  -3 2709.50 1047.18   1
  -4   9  -4  14345. 2451.13   1
  -4   8   5  10937. 1952.82   1
  -4   8   4  22247. 3480.11   1
  -4   8   3  47809. 7142.21   1
  -4   8   2  22114. 3390.25   1
   4  -8  -2  18454. 2970.12   1
  -4   8   1  38486. 5760.50   1
   4  -8  -1  39587. 6360.36   1
  -4   8   0  85823.  12678.   1
   4  -8   0 120602.  19351.   1
  -4   8  -1 3307.12 736.463   1
   4  -8   1 3906.98 654.684   1
  -4   8  -2  79218.  11730.   1
   4  -8   2  97978.  15713.   1
  -4   8  -3 135071.  19903.   1
   4  -8   3 156459.  25095.   1
  -4   8  -4  10283. 1771.96   1
   4  -8   4  11087. 1793.08   1
  -4   8  -5  34936. 5311.16   1
   4  -8   5  32105. 5158.39   1
  -4   8  -6  64749. 9671.97   1
   4  -8   6  69737.  11195.   1
  -4   7   7 2837.56 1068.75   1
  -4   7   6  40036. 6068.29   1
  -4   7   5  15194. 2424.17   1
   4  -7  -5  20577. 3311.61   1
  -4   7   4 4538.30 917.096   1
   4  -7  -4 5580.76 916.198   1
  -4   7   3  20755. 3172.32   1
   4  -7  -3  20809. 3347.56   1
  -4   7   2 4160.86 821.837   1
   4  -7  -2 3298.13 553.358   1
  -4   7   1  16419. 2554.48   1
   4  -7  -1  15823. 2549.99   1
  -4   7   0 2999.32 680.970   1
   4  -7   0 2305.10 399.236   1
  -4   7  -1  23478. 3569.98   1
   4  -7   1  30780. 4949.44   1
  -4   7  -2  12323. 1978.65   1
   4  -7   2 9325.98 1510.67   1
  -4   7  -3 9015.94 1674.90   1
  -4   7  -3  14529. 2273.64   1
   4  -7   3  13691. 2208.04   1
   4  -7   3 6549.08 1262.64   1
  -4   7  -4 103662.  18310.   1
  -4   7  -4 131588.  19414.   1
   4  -7   4 112604.  18059.   1
   4  -7   4 106515.  18807.   1
  -4   7  -5  56212. 9986.51   1
  -4   7  -5  77645.  11519.   1
   4  -7   5  62166. 9973.03   1
   4  -7   5  58908.  10494.   1
  -4   7  -6  16711. 2635.36   1
   4  -7   6  19573. 3149.85   1
   4  -7   6  18874. 3522.80   1
  -4   7  -7 106223.  15725.   1
   4  -7   7 115524.  18535.   1
   4  -7   7  93529.  16558.   1
  -4   7  -8  33431. 5138.17   1
   4  -7   8  31049. 4985.39   1
   4  -6  -8   27.61 216.333   1
  -4   6   7  90923.  13480.   1
   4  -6  -7  79398.  12732.   1
  -4   6   6 7618.51 1323.07   1
   4  -6  -6  13590. 2192.31   1
  -4   6   5  60571. 8993.48   1
   4  -6  -5  68546.  11002.   1
  -4   6   4 107234.  15837.   1
   4  -6  -4 112694.  18081.   1
  -4   6   3  26556. 4019.32   1
   4  -6  -3  24332. 3911.48   1
  -4   6   2  51359. 7652.21   1
   4  -6  -2  54909. 8813.74   1
  -4   6   1  82476.  12195.   1
   4  -6  -1  89553.  14361.   1
  -4   6   0 9806.78 1596.04   1
   4  -6   0  10712. 1730.40   1
  -4   6  -1  24377. 3680.07   1
   4  -6   1  24332. 3913.72   1
  -4   6  -2  61267.  10820.   1
  -4   6  -2  56841.  10036.   1
  -4   6  -2  71602.  10620.   1
   4  -6   2  89081.  14296.   1
   4  -6   2  60548.  10708.   1
   4  -6   2  54033. 9546.16   1
  -4   6  -3 5268.47 1047.40   1
  -4   6  -3 3572.23 823.859   1
  -4   6  -3 4956.18 954.391   1
   4  -6   3 4540.55 747.022   1
   4  -6   3 4522.57 1028.76   1
   4  -6   3 4706.80 960.457   1
  -4   6  -4  25320. 4538.30   1
  -4   6  -4  26309. 3981.12   1
   4  -6   4  25522. 4102.44   1
   4  -6   4  25006. 4475.39   1
  -4   6  -5  619.19 525.275   1
   4  -6   5  388.68 132.936   1
   4  -6   5  464.16 435.857   1
  -4   6  -6  20782. 3210.51   1
   4  -6   6  18137. 2918.44   1
   4  -6   6  21629. 3911.48   1
  -4   6  -7 3212.76 806.560   1
   4  -6   7 2212.53 382.610   1
   4  -6   7 3129.63 802.740   1
  -4   6  -8  37228. 5630.19   1
   4  -6   8  39991. 6425.52   1
   4  -6   8  42125. 7515.16   1
  -4   6  -9  29072. 4461.91   1
   4  -6   9  29881. 4803.41   1
   4  -6   9  25994. 4704.56   1
   4  -5  -9 7627.49 1254.77   1
   4  -5  -8  25500. 4100.20   1
  -4   5   7 1568.86 629.970   1
   4  -5  -7 1725.23 315.434   1
  -4   5   6  54864. 8177.93   1
   4  -5  -6  40912. 6560.32   1
  -4   5   5  39317. 5895.30   1
   4  -5  -5  25769. 4140.64   1
  -4   5   4  17693. 2725.23   1
   4  -5  -4  15884. 2558.97   1
  -4   5   3 205055.  30173.   1
   4  -5  -3 350707.  56234.   1
  -4   5   2  42889. 6394.06   1
   4  -5  -2  50011. 8027.40   1
  -4   5   1  40575. 6057.06   1
   4  -5  -1  36711. 5895.30   1
  -4   5   0 170748.  27387.   1
  -4   5   0 165805.  24399.   1
  -4   5   0 176185.  25949.   1
   4  -5   0 160863.  25792.   1
   4  -5   0 175736.  28196.   1
  -4   5  -1 109009.  19225.   1
  -4   5  -1 111660.  19690.   1
  -4   5  -1  80499.  12921.   1
  -4   5  -1  95799.  14192.   1
  -4   5  -1  95080.  14042.   1
   4  -5   1 121006.  19411.   1
   4  -5   1 110784.  19548.   1
   4  -5   1  90968.  13496.   1
   4  -5   1  99258.  17517.   1
  -4   5  -2  77937.  13743.   1
  -4   5  -2  80431.  14179.   1
  -4   5  -2  76545.  11321.   1
   4  -5   2  72658.  11667.   1
   4  -5   2  69310.  12229.   1
  -4   5  -3 283082.  49831.   1
  -4   5  -3 272747.  47989.   1
  -4   5  -3 422377.  62031.   1
   4  -5   3 265783.  42620.   1
   4  -5   3 286677.  50461.   1
  -4   5  -4  17863. 3232.98   1
  -4   5  -4  18870. 2913.95   1
   4  -5   4  15898. 2558.97   1
   4  -5   4  17816. 3194.78   1
  -4   5  -5  59627. 8849.69   1
   4  -5   5  50281. 8070.09   1
   4  -5   5  55291. 9773.08   1
  -4   5  -6 128308.  18942.   1
   4  -5   6 137003.  21970.   1
   4  -5   6 111031.  19575.   1
  -4   5  -7  26466. 4035.04   1
   4  -5   7  31993. 5135.92   1
   4  -5   7  28825. 5142.66   1
  -4   5  -8  26848. 4066.50   1
   4  -5   8  41317. 6629.96   1
   4  -5   8  32599. 5814.42   1
  -4   5  -9  30375. 4628.17   1
   4  -5   9  25612. 4115.92   1
   4  -5   9  32510. 5807.68   1
  -4   5 -10 1559.20 828.352   1
   4  -5  10  378.12 174.522   1
   4  -5  10  914.85 521.006   1
   4  -4  -9  29993. 4821.38   1
   4  -4  -9  25747. 4001.34   1
   4  -4  -8  47248. 7587.05   1
   4  -4  -8  55560. 8285.77   1
  -4   4   7 1792.18 670.410   1
  -4   4   7 2237.02 663.221   1
   4  -4  -7 2275.89 399.910   1
   4  -4  -7 2608.40 652.662   1
  -4   4   6  25388. 4518.08   1
  -4   4   6  20573. 3689.06   1
  -4   4   6  28802. 4369.80   1
   4  -4  -6  24714. 3972.14   1
   4  -4  -6  18991. 3405.97   1
  -4   4   5  10119. 1825.21   1
  -4   4   5  13381. 2388.23   1
  -4   4   5  13399. 2112.56   1
   4  -4  -5  11126. 1794.88   1
   4  -4  -5 9712.42 1755.11   1
  -4   4   4 1757.36 490.226   1
   4  -4  -4 1561.67 276.567   1
  -4   4   3  28443. 4572.00   1
  -4   4   3  28398. 4322.62   1
  -4   4   3  31386. 4709.05   1
   4  -4  -3  34172. 5486.40   1
   4  -4  -3  41024. 6589.52   1
  -4   4   2  246.91 148.259   1
  -4   4   2  271.40 324.421   1
  -4   4   2  361.94 505.504   1
  -4   4   1  42395. 6809.70   1
  -4   4   1  41564. 6212.08   1
  -4   4   1  33498. 5019.09   1
  -4   4   0  10723. 1908.33   1
  -4   4   0  11215. 1997.98   1
  -4   4   0 9346.21 1512.24   1
  -4   4   0  12714. 2028.98   1
  -4   4   0 9732.63 1548.64   1
   4  -4   0  13298. 2145.13   1
   4  -4   0  10465. 1688.83   1
   4  -4   0  19259. 2983.60   1
   4  -4   0  11564. 2059.54   1
  -4   4  -1 107347.  18901.   1
  -4   4  -1 116266.  20476.   1
  -4   4  -1 104448.  16758.   1
  -4   4  -1 132397.  19508.   1
  -4   4  -1 124152.  18306.   1
   4  -4   1 113458.  18196.   1
   4  -4   1 133902.  19744.   1
   4  -4   1 106066.  18683.   1
  -4   4  -2 177151.  31184.   1
  -4   4  -2 173983.  30622.   1
  -4   4  -2 141564.  22692.   1
  -4   4  -2 169939.  25028.   1
  -4   4  -2 199775.  29409.   1
   4  -4   2 159829.  25635.   1
   4  -4   2 174298.  25680.   1
   4  -4   2 158526.  27904.   1
  -4   4  -3 3396.99 687.485   1
  -4   4  -3 2729.72 584.362   1
  -4   4  -3 2300.60 548.865   1
  -4   4  -3 2687.03 465.064   1
   4  -4   3 2837.56 478.544   1
   4  -4   3 3008.31 781.397   1
   4  -4   3 2442.15 552.010   1
  -4   4  -4 211121.  37160.   1
  -4   4  -4 245563.  39362.   1
  -4   4  -4 218535.  32150.   1
   4  -4   4 146619.  23500.   1
   4  -4   4 213907.  31499.   1
   4  -4   4 212177.  37340.   1
  -4   4  -5 119906.  21128.   1
  -4   4  -5 143765.  21193.   1
   4  -4   5 118378.  18984.   1
   4  -4   5 138283.  24354.   1
  -4   4  -6  10746. 1723.43   1
   4  -4   6  11472. 1849.02   1
   4  -4   6  10692. 1973.94   1
  -4   4  -7 254100.  37407.   1
   4  -4   7 153538.  24624.   1
   4  -4   7 290721.  51135.   1
  -4   4  -8 134936.  19919.   1
   4  -4   8 168793.  27073.   1
   4  -4   8 114558.  20198.   1
  -4   4  -9 6124.46 1123.34   1
   4  -4   9 6611.99 1073.92   1
   4  -4   9 6677.14 1300.16   1
  -4   4 -10  88317.  13098.   1
   4  -4  10 100809.  16169.   1
   4  -4  10  82813.  14626.   1
  -4   4 -11  40081. 6063.80   1
   4  -4  11  44282. 7113.00   1
   4  -4  11  45383. 8056.61   1
   4  -3 -10  74523.  11957.   1
   4  -3  -9  64457.  10344.   1
   4  -3  -9  61806. 9213.65   1
   4  -3  -8  14842. 2390.47   1
   4  -3  -8  15965. 2514.04   1
  -4   3   7 143091.  25230.   1
  -4   3   7 237025.  34869.   1
   4  -3  -7 211390.  33902.   1
   4  -3  -7 199618.  29387.   1
  -4   3   6  29566. 5302.17   1
  -4   3   6  34127. 6054.81   1
  -4   3   6  31364. 4733.76   1
   4  -3  -6  43765. 7025.38   1
   4  -3  -6  29746. 5311.16   1
   4  -3  -6  32150. 4837.11   1
  -4   3   5  44619. 7912.82   1
  -4   3   5  32959. 5841.38   1
  -4   3   5  36756. 5508.87   1
   4  -3  -5  39474. 6337.90   1
   4  -3  -5  44934. 7955.51   1
   4  -3  -5  46057. 6841.15   1
  -4   3   4 195686.  34442.   1
  -4   3   4 249157.  43855.   1
  -4   3   4 210132.  30914.   1
  -4   3   4 155021.  22826.   1
   4  -3  -4 170456.  27320.   1
   4  -3  -4 161312.  25882.   1
   4  -3  -4 179308.  31566.   1
  -4   3   3  25410. 4504.60   1
  -4   3   3  28510. 4583.24   1
  -4   3   3  32173. 5688.60   1
  -4   3   3  22602. 3441.92   1
  -4   3   3  21683. 3293.64   1
   4  -3  -3  22489. 3614.91   1
   4  -3  -3  27005. 4340.59   1
   4  -3  -3  22557. 3996.85   1
  -4   3   2  47068. 8303.74   1
  -4   3   2  60638. 9728.14   1
  -4   3   2  58301.  10279.   1
  -4   3   2  63469. 9409.11   1
  -4   3   2  55381. 8220.62   1
   4  -3  -2  58931. 9463.03   1
   4  -3  -2  66771.  10710.   1
  -4   3   1 118535.  20872.   1
  -4   3   1 185104.  29679.   1
  -4   3   1 147090.  25882.   1
  -4   3   1 119703.  17645.   1
  -4   3   1 132150.  19465.   1
   4  -3  -1 138216.  22166.   1
   4  -3  -1 117367.  18820.   1
   4  -3  -1 112851.  19876.   1
  -4   3   0  42979. 7582.56   1
  -4   3   0  38283. 6767.01   1
  -4   3   0  30959. 4976.40   1
  -4   3   0  42507. 6328.91   1
  -4   3   0  36576. 5463.94   1
   4  -3   0  36059. 5796.44   1
   4  -3   0  37609. 6041.33   1
   4  -3   0  35003. 5225.79   1
   4  -3   0  40261. 7106.26   1
  -4   3  -1 8013.92 1460.12   1
  -4   3  -1 7620.75 1234.10   1
  -4   3  -1 8995.72 1627.50   1
   4  -3   1 6560.32 1065.38   1
   4  -3   1 8968.76 1429.34   1
   4  -3   1 7268.02 1330.04   1
  -4   3  -2  10121. 1838.01   1
  -4   3  -2 9732.63 1571.56   1
  -4   3  -2  10173. 1837.79   1
  -4   3  -2  10627. 1683.44   1
   4  -3   2  11047. 1782.29   1
   4  -3   2 9386.65 1494.94   1
   4  -3   2 9851.71 1786.56   1
  -4   3  -3 5603.23 1061.56   1
  -4   3  -3 9575.37 1547.29   1
  -4   3  -3 6553.58 1216.58   1
  -4   3  -3 5821.16 1008.99   1
   4  -3   3 6394.06 1038.64   1
   4  -3   3 8687.93 1423.27   1
   4  -3   3 5749.26 1074.14   1
  -4   3  -4  27432. 4875.30   1
  -4   3  -4  45810. 7355.64   1
  -4   3  -4  29701. 4484.38   1
   4  -3   4  25006. 4017.07   1
   4  -3   4  29993. 4542.79   1
   4  -3   4  29117. 5167.37   1
  -4   3  -5 3662.09 768.591   1
  -4   3  -5 3015.05 517.861   1
  -4   3  -5 3042.01 653.560   1
   4  -3   5 2394.97 405.751   1
   4  -3   5 6198.60 1219.05   1
   4  -3   5 3489.10 712.873   1
  -4   3  -6  49180. 8717.13   1
  -4   3  -6  49697. 7980.22   1
  -4   3  -6  52258. 7789.25   1
   4  -3   6  55718. 8941.80   1
   4  -3   6  41631. 6279.48   1
   4  -3   6  47225. 8357.66   1
  -4   3  -7  10728. 1730.17   1
   4  -3   7  13617. 2192.99   1
   4  -3   7 9424.84 1753.54   1
  -4   3  -8  77286.  11465.   1
   4  -3   8  82251.  13193.   1
   4  -3   8  80903.  14296.   1
  -4   3  -9 161042.  23747.   1
   4  -3   9 130150.  20876.   1
   4  -3   9 120894.  21312.   1
  -4   3 -10 3635.13 791.731   1
   4  -3  10 4911.25 804.762   1
   4  -3  10 4632.66 947.427   1
  -4   3 -11  55695. 8319.47   1
   4  -3  11  52797. 8465.50   1
   4  -3  11 103392.  18241.   1
  -4   3 -12  32847. 5014.60   1
   4  -3  12  37362. 5998.65   1
   4  -3  12  39025. 6953.49   1
   4  -2 -10 9492.24 1546.17   1
   4  -2  -9  28623. 4594.47   1
   4  -2  -9  18958. 3028.53   1
  -4   2   8  49068. 8708.15   1
  -4   2   8  40306. 6075.03   1
   4  -2  -8  64839.  10398.   1
   4  -2  -8  52977. 7906.08   1
  -4   2   7  852.84 376.769   1
  -4   2   7  673.11 516.513   1
   4  -2  -7  782.52 175.713   1
   4  -2  -7  814.65 465.513   1
  -4   2   6  64929.  11505.   1
  -4   2   6  57246.  10121.   1
  -4   2   6  62727. 9317.00   1
   4  -2  -6  69243.  11108.   1
   4  -2  -6  70097.  12399.   1
   4  -2  -6  57335. 8487.97   1
  -4   2   5  64030.  11328.   1
  -4   2   5  58818.  10384.   1
  -4   2   5  54168. 8110.53   1
  -4   2   5  53853. 8016.17   1
   4  -2  -5  56572. 9081.10   1
   4  -2  -5  49764. 7993.70   1
   4  -2  -5  63356. 9386.65   1
   4  -2  -5  63604.  11240.   1
  -4   2   4 7995.95 1467.31   1
  -4   2   4 4363.06 868.568   1
  -4   2   4 6776.00 1166.70   1
  -4   2   4 5270.72 939.563   1
   4  -2  -4 4884.29 797.573   1
   4  -2  -4 5742.52 938.889   1
   4  -2  -4 5394.29 916.198   1
   4  -2  -4 5872.83 1109.19   1
  -4   2   3 316782.  55718.   1
  -4   2   3 298360.  47832.   1
  -4   2   3 323298.  56909.   1
  -4   2   3 286677.  42125.   1
  -4   2   3 288025.  42328.   1
   4  -2  -3 363289.  58234.   1
   4  -2  -3 371602.  59627.   1
   4  -2  -3 339249.  59649.   1
  -4   2   2 310941.  54684.   1
  -4   2   2 303302.  48618.   1
  -4   2   2 296787.  52213.   1
  -4   2   2 304875.  44776.   1
  -4   2   2 287351.  42238.   1
   4  -2  -2 321051.  51494.   1
   4  -2  -2 281285.  45091.   1
   4  -2  -2 306448.  53898.   1
   4  -2  -2 278589.  49000.   1
  -4   2   1 8487.97 1537.63   1
  -4   2   1  11932. 1923.16   1
  -4   2   1  10620. 1913.05   1
  -4   2   1  11822. 1832.84   1
  -4   2   1  11436. 1784.77   1
   4  -2  -1  10306. 1662.55   1
   4  -2  -1 9997.74 1610.65   1
   4  -2  -1 9645.01 1754.44   1
   4  -2  -1  10319. 1853.96   1
  -4   2   0 331835.  58346.   1
  -4   2   0 290272.  46551.   1
  -4   2   0 554482.  81375.   1
  -4   2   0 323298.  47495.   1
   4  -2   0 336553.  53943.   1
   4  -2   0 367333.  58863.   1
   4  -2   0 315884.  46394.   1
   4  -2   0 337452.  59357.   1
  -4   2  -1 338351.  59492.   1
  -4   2  -1 281285.  49450.   1
  -4   2  -1 271624.  43563.   1
  -4   2  -1 385306.  56594.   1
  -4   2  -1 254774.  37452.   1
   4  -2   1 248483.  39834.   1
   4  -2   1 276567.  40620.   1
   4  -2   1 372276.  65468.   1
  -4   2  -2  26601. 4729.27   1
  -4   2  -2  27432. 4864.07   1
  -4   2  -2  31049. 4657.38   1
  -4   2  -2  36486. 5854.86   1
   4  -2   2  31993. 5138.17   1
   4  -2   2  26960. 4030.55   1
   4  -2   2  28039. 4978.65   1
  -4   2  -3 542125.  95282.   1
  -4   2  -3 691305. 110784.   1
  -4   2  -3 584138.  85778.   1
   4  -2   3 485733.  71287.   1
   4  -2   3 469108.  82498.   1
  -4   2  -4 163828.  28847.   1
  -4   2  -4 219479.  35183.   1
  -4   2  -4 162997.  23995.   1
   4  -2   4 160166.  25680.   1
   4  -2   4 125432.  18483.   1
   4  -2   4 172568.  30398.   1
  -4   2  -5  66367.  11719.   1
  -4   2  -5  85644.  13736.   1
  -4   2  -5  77780.  11530.   1
   4  -2   5  67738.  10858.   1
   4  -2   5  61694. 9157.48   1
   4  -2   5  98719.  17392.   1
  -4   2  -6 239946.  42215.   1
  -4   2  -6 160054.  25680.   1
  -4   2  -6 167131.  24624.   1
   4  -2   6 162256.  26017.   1
   4  -2   6 155583.  22939.   1
   4  -2   6 143720.  25320.   1
  -4   2  -7  25747. 4601.21   1
  -4   2  -7  31049. 4994.38   1
  -4   2  -7  26668. 4037.29   1
   4  -2   7  23770. 3819.36   1
   4  -2   7  23253. 3621.65   1
   4  -2   7  39676. 7029.87   1
  -4   2  -8  17117. 2651.09   1
   4  -2   8  17313. 2785.89   1
   4  -2   8  17911. 3230.73   1
  -4   2  -9  13148. 2095.03   1
   4  -2   9  13714. 2209.84   1
   4  -2   9  13622. 2478.09   1
  -4   2 -10  375.87 508.874   1
   4  -2  10  456.08 155.852   1
   4  -2  10  706.81 353.179   1
  -4   2 -11 4160.86 915.524   1
   4  -2  11 4828.12 796.000   1
   4  -2  11 5675.12 1136.82   1
  -4   2 -12 1577.17 783.419   1
   4  -2  12 2040.21 375.196   1
   4  -2  12 2397.21 605.032   1
  -4   1  10  11328. 1830.82   1
   4  -1 -10  22804. 3671.08   1
  -4   1   9  37003. 5942.48   1
   4  -1  -9  30510. 4904.51   1
   4  -1  -9  29746. 4560.77   1
  -4   1   8  58638.  10373.   1
  -4   1   8  66120.  10607.   1
  -4   1   8  68232.  10168.   1
   4  -1  -8  58773. 9427.09   1
   4  -1  -8  53741. 8013.92   1
  -4   1   7 2651.09 613.345   1
  -4   1   7 2121.32 362.839   1
  -4   1   7 1747.70 600.988   1
   4  -1  -7 2390.47 401.258   1
   4  -1  -7 1598.07 502.808   1
  -4   1   6 3107.16 639.631   1
  -4   1   6 3129.63 859.357   1
  -4   1   6 2934.17 485.733   1
  -4   1   6 2837.56 1053.25   1
  -4   1   6 3170.07 699.617   1
   4  -1  -6 2758.93 459.222   1
   4  -1  -6 3156.59 640.979   1
   4  -1  -6 3008.31 747.921   1
  -4   1   5 5940.23 1195.46   1
  -4   1   5 6367.10 1190.07   1
  -4   1   5 5326.89 865.198   1
  -4   1   5 5138.17 911.480   1
  -4   1   5 5324.64 1090.32   1
   4  -1  -5 4857.33 795.101   1
   4  -1  -5 5153.89 846.101   1
   4  -1  -5 5544.82 1094.14   1
   4  -1  -5 5212.31 937.991   1
  -4   1   4  12963. 2336.55   1
  -4   1   4 9925.85 1830.60   1
  -4   1   4  10553. 1684.79   1
  -4   1   4  11887. 1866.10   1
   4  -1  -4  14179. 2284.88   1
   4  -1  -4  12339. 1990.34   1
   4  -1  -4  10980. 1704.56   1
   4  -1  -4  12909. 2336.55   1
  -4   1   3 8550.88 1573.35   1
  -4   1   3  13318. 2392.72   1
  -4   1   3 8157.71 1309.14   1
  -4   1   3 7933.04 1276.34   1
   4  -1  -3 7023.13 1136.82   1
   4  -1  -3 8566.61 1383.96   1
   4  -1  -3  15226. 2738.71   1
   4  -1  -3 9752.86 1767.69   1
  -4   1   2  53831. 9498.98   1
  -4   1   2  49899. 8011.67   1
  -4   1   2  60368.  10661.   1
  -4   1   2  56347. 8326.21   1
  -4   1   2  57313. 8487.97   1
   4  -1  -2  56616. 9085.59   1
   4  -1  -2  56819. 9112.55   1
   4  -1  -2  42260. 7488.20   1
   4  -1  -2  54235. 9568.63   1
  -4   1   1  76500.  13485.   1
  -4   1   1 104673.  16787.   1
  -4   1   1  64098.  11310.   1
  -4   1   1  73646.  10863.   1
  -4   1   1  67490. 9979.77   1
   4  -1  -1  59402. 9528.19   1
   4  -1  -1  62031. 9950.56   1
   4  -1  -1  65019.  11467.   1
   4  -1  -1  61671.  10883.   1
  -4   1   0 3920.46 756.908   1
  -4   1   0 5032.57 948.325   1
  -4   1   0 4088.97 669.736   1
  -4   1   0 5135.92 851.943   1
  -4   1   0 4996.62 841.608   1
   4  -1   0 5544.82 899.348   1
   4  -1   0 3823.86 627.723   1
   4  -1   0 3574.47 623.005   1
   4  -1   0 4648.39 882.722   1
   4  -1   0 6153.67 1148.06   1
  -4   1  -1 144484.  25432.   1
  -4   1  -1 156953.  25163.   1
  -4   1  -1 147540.  25972.   1
  -4   1  -1 164862.  24264.   1
   4  -1   1 146978.  23568.   1
   4  -1   1 132487.  19494.   1
   4  -1   1 134329.  23658.   1
  -4   1  -2 390474.  68681.   1
  -4   1  -2 352729.  56527.   1
  -4   1  -2 392720.  69086.   1
  -4   1  -2 409570.  60144.   1
   4  -1   2 399011.  58594.   1
   4  -1   2 408447.  71826.   1
  -4   1  -3 6391.82 1186.92   1
  -4   1  -3 9157.48 1476.75   1
  -4   1  -3 5789.70 1095.26   1
  -4   1  -3 6868.11 1138.84   1
   4  -1   3 4342.84 709.727   1
   4  -1   3 6737.81 1090.99   1
   4  -1   3 6978.20 1313.19   1
  -4   1  -4 315434.  55493.   1
  -4   1  -4 241743.  38755.   1
  -4   1  -4 284430.  41811.   1
   4  -1   4 198562.  31836.   1
   4  -1   4 329364.  48371.   1
   4  -1   4 250505.  44057.   1
  -4   1  -5 344417.  60548.   1
  -4   1  -5 370029.  59335.   1
  -4   1  -5 370254.  54392.   1
   4  -1   5 317681.  50977.   1
   4  -1   5 275219.  40418.   1
   4  -1   5 282184.  49629.   1
  -4   1  -6 2904.96 647.494   1
  -4   1  -6 2552.23 433.385   1
  -4   1  -6 3924.96 789.035   1
   4  -1   6 2401.71 404.178   1
   4  -1   6 2727.47 688.159   1
   4  -1   6 2435.41 543.248   1
  -4   1  -7 163873.  28870.   1
  -4   1  -7 189036.  30308.   1
  -4   1  -7 243765.  35835.   1
   4  -1   7 236800.  37946.   1
   4  -1   7 207189.  30510.   1
   4  -1   7 294765.  51853.   1
  -4   1  -8 226016.  33273.   1
   4  -1   8 271624.  43541.   1
   4  -1   8 274769.  48371.   1
  -4   1  -9 1434.06 530.442   1
   4  -1   9 1239.94 228.712   1
   4  -1   9 1865.20 509.773   1
  -4   1 -10  90294.  13336.   1
   4  -1  10 108762.  17441.   1
   4  -1  10 114244.  20142.   1
  -4   1 -11  45720. 6829.92   1
   4  -1  11  34352. 5513.36   1
   4  -1  11  50438. 8926.08   1
  -4   1 -12 5374.07 1088.97   1
   4  -1  12 3974.38 659.626   1
   4  -1  12 3376.77 773.983   1
  -4   1 -13  28376. 4351.83   1
   4  -1  13  28937. 4650.64   1
   4  -1  13  23410. 4217.03   1
  -4   0  11 1249.16 272.523   1
   4   0 -11 1531.12 301.505   1
  -4   0  10  81959.  13141.   1
   4   0 -10  99753.  16001.   1
   4   0  -9  59582. 9559.64   1
   4   0  -9  68232.  10184.   1
  -4   0   8 5077.51 998.651   1
  -4   0   8 5180.85 845.203   1
  -4   0   8 6560.32 1287.80   1
   4   0  -8 6946.75 1127.16   1
   4   0  -8 4870.81 1003.14   1
  -4   0   7 307122.  54033.   1
  -4   0   7 171984.  27567.   1
  -4   0   7 161110.  23747.   1
   4   0  -7 181420.  29095.   1
   4   0  -7 232307.  34172.   1
  -4   0   6 133273.  23478.   1
  -4   0   6 156414.  27567.   1
  -4   0   6 126870.  20341.   1
  -4   0   6 132352.  19569.   1
  -4   0   6 133094.  19616.   1
   4   0  -6 131678.  21123.   1
   4   0  -6 119142.  17589.   1
   4   0  -6 191620.  33745.   1
  -4   0   5 4147.38 807.234   1
  -4   0   5 4953.94 1040.89   1
  -4   0   5 4715.79 769.939   1
  -4   0   5 4902.26 883.396   1
  -4   0   5 6708.60 1252.53   1
   4   0  -5 4309.14 704.335   1
   4   0  -5 5385.30 879.127   1
   4   0  -5 5147.15 880.700   1
   4   0  -5 4448.43 902.718   1
  -4   0   4 219703.  38665.   1
  -4   0   4 183487.  32285.   1
  -4   0   4 244664.  39227.   1
  -4   0   4 156819.  23096.   1
  -4   0   4 167063.  24579.   1
   4   0  -4 166142.  26646.   1
   4   0  -4 168996.  27095.   1
   4   0  -4 174837.  25702.   1
   4   0  -4 241069.  42417.   1
  -4   0   3  62570.  11049.   1
  -4   0   3  64839.  10407.   1
  -4   0   3  51202. 9054.14   1
  -4   0   3  56527. 8353.17   1
  -4   0   3  55785. 8252.07   1
   4   0  -3  58975. 9460.79   1
   4   0  -3  58504. 9379.91   1
   4   0  -3  68232.  12047.   1
   4   0  -3  67490.  11905.   1
  -4   0   2  41429. 7328.68   1
  -4   0   2  45832. 8099.30   1
  -4   0   2  38531. 5699.84   1
  -4   0   2  45967. 6809.70   1
   4   0  -2  34666. 5567.28   1
   4   0  -2  39362. 6319.92   1
   4   0  -2  43002. 7600.53   1
   4   0  -2  47023. 8328.46   1
  -4   0   1 159874.  28151.   1
  -4   0   1 145697.  23366.   1
  -4   0   1 138980.  24466.   1
  -4   0   1 199303.  29274.   1
  -4   0   1 174927.  25725.   1
   4   0  -1 183846.  29476.   1
   4   0  -1 147719.  23703.   1
   4   0  -1 176634.  31072.   1
   4   0  -1 139564.  24601.   1
  -4   0   0  13467. 2419.68   1
  -4   0   0  13527. 2430.91   1
  -4   0   0  12334. 1984.50   1
  -4   0   0  11973. 1834.87   1
  -4   0   0  16495. 2473.60   1
   4   0   0  10512. 1694.90   1
   4   0   0  14464. 2325.32   1
   4   0   0  12853. 1945.40   1
   4   0   0  13999. 2511.79   1
   4   0   0  14974. 2702.76   1
  -4   0  -1  20863. 3711.52   1
  -4   0  -1  24489. 3931.70   1
  -4   0  -1  21665. 3857.56   1
  -4   0  -1  23590. 3534.03   1
   4   0   1  37183. 5967.19   1
   4   0   1  20371. 3639.63   1
   4   0   1  20717. 3089.19   1
   4   0   1  20553. 3657.60   1
  -4   0  -2  42777. 7566.83   1
  -4   0  -2  62840.  10079.   1
  -4   0  -2  37295. 6598.51   1
  -4   0  -2  47225. 7007.41   1
   4   0   2  53471. 8584.58   1
   4   0   2  38126. 5650.41   1
   4   0   2  37093. 6576.04   1
  -4   0  -3  21276. 3801.39   1
  -4   0  -3  33296. 5347.11   1
  -4   0  -3  30375. 5387.55   1
  -4   0  -3  30061. 4511.34   1
   4   0   3  53044. 8503.70   1
   4   0   3  30465. 4536.06   1
   4   0   3  40957. 7272.52   1
  -4   0  -4  53696. 9489.99   1
  -4   0  -4  79465.  12745.   1
  -4   0  -4  73601.  12995.   1
  -4   0  -4  81802.  12098.   1
   4   0   4  88070.  14118.   1
   4   0   4  74612.  11013.   1
   4   0   4  80184.  14154.   1
  -4   0  -5  87935.  15504.   1
  -4   0  -5  59492. 9546.16   1
  -4   0  -5  87239.  12903.   1
   4   0   5 151629.  24309.   1
   4   0   5  65244. 9649.51   1
   4   0   5  84004.  14828.   1
  -4   0  -6 119973.  21137.   1
  -4   0  -6 132375.  21227.   1
  -4   0  -6 160121.  23590.   1
   4   0   6 142282.  22826.   1
   4   0   6 112559.  16607.   1
   4   0   6 120332.  21204.   1
  -4   0  -7  48618. 8604.80   1
  -4   0  -7  47068. 7553.35   1
  -4   0  -7  49247. 7333.18   1
   4   0   7  51921. 8326.21   1
   4   0   7  51651. 7726.35   1
   4   0   7  52438. 9276.56   1
  -4   0  -8  33116. 5897.55   1
  -4   0  -8  32891. 5281.95   1
  -4   0  -8  32869. 4931.47   1
   4   0   8  41047. 6589.52   1
   4   0   8  40485. 6149.17   1
   4   0   8  55875. 9878.67   1
  -4   0  -9 131543.  19407.   1
   4   0   9 163109.  26151.   1
   4   0   9 142327.  25073.   1
  -4   0 -10 8056.61 1402.38   1
   4   0  10 8308.24 1343.52   1
   4   0  10 7443.26 1404.85   1
  -4   0 -11  58773. 8712.64   1
   4   0  11  51382. 8238.59   1
   4   0  11  69130.  12211.   1
  -4   0 -12  90249.  13343.   1
   4   0  12 120557.  19335.   1
   4   0  12  86452.  15259.   1
  -4   0 -13  14143. 2291.62   1
   4   0  13 9615.81 1562.34   1
   4   0  13  11737. 2187.15   1
  -4  -1  11 6629.96 1090.54   1
   4   1 -11 8777.79 1428.89   1
  -4  -1  10 6609.74 1077.29   1
   4   1 -10 9015.94 1465.29   1
  -4  -1   9  12015. 2201.97   1
  -4  -1   9  12334. 1988.99   1
  -4  -1   9  13691. 2462.37   1
   4   1  -9  14541. 2341.04   1
   4   1  -9  16533. 2772.41   1
  -4  -1   8  81982.  14469.   1
  -4  -1   8  79757.  12799.   1
  -4  -1   8  81689.  12166.   1
   4   1  -8  79555.  12757.   1
   4   1  -8  58661. 8739.60   1
  -4  -1   7 2866.77 633.790   1
  -4  -1   7 3996.85 655.358   1
  -4  -1   7 2900.47 1171.87   1
  -4  -1   7 2471.35 719.613   1
   4   1  -7 3450.91 572.006   1
   4   1  -7 2020.44 644.124   1
  -4  -1   6 121928.  21483.   1
  -4  -1   6 130218.  20881.   1
  -4  -1   6 130802.  19288.   1
  -4  -1   6 144080.  21272.   1
   4   1  -6 145653.  23366.   1
   4   1  -6 123657.  18221.   1
  -4  -1   5 148056.  26084.   1
  -4  -1   5 119838.  21112.   1
  -4  -1   5 123770.  19849.   1
  -4  -1   5 141721.  20883.   1
  -4  -1   5 122894.  18111.   1
   4   1  -5 141249.  22647.   1
   4   1  -5 132689.  21272.   1
   4   1  -5 142080.  20896.   1
   4   1  -5 191620.  33745.   1
  -4  -1   4 2693.77 567.512   1
  -4  -1   4 1582.79 477.196   1
  -4  -1   4 2442.15 405.526   1
  -4  -1   4 1347.56 339.474   1
  -4  -1   4 1352.05 393.170   1
   4   1  -4 1667.49 428.218   1
   4   1  -4 1737.36 390.249   1
  -4  -1   3 138710.  24421.   1
  -4  -1   3 167917.  26938.   1
  -4  -1   3 137879.  24287.   1
  -4  -1   3 138665.  20391.   1
  -4  -1   3 186699.  27454.   1
   4   1  -3 220400.  35340.   1
   4   1  -3 168704.  27050.   1
   4   1  -3 165738.  29162.   1
   4   1  -3 157560.  27769.   1
  -4  -1   2 307796.  54123.   1
  -4  -1   2 299258.  47944.   1
  -4  -1   2 368681.  64839.   1
  -4  -1   2 333857.  49045.   1
  -4  -1   2 393170.  57740.   1
   4   1  -2 450685.  72276.   1
   4   1  -2 345765.  55471.   1
   4   1  -2 385306.  67760.   1
   4   1  -2 399460.  70276.   1
  -4  -1   1  11539. 2090.76   1
  -4  -1   1  10643. 1932.15   1
  -4  -1   1 9914.62 1505.28   1
  -4  -1   1  12159. 1822.73   1
   4   1  -1  11525. 1857.11   1
   4   1  -1  10283. 1654.68   1
   4   1  -1  12498. 2280.38   1
   4   1  -1  13121. 2361.26   1
  -4  -1   0 334082.  58751.   1
  -4  -1   0 254549.  40800.   1
  -4  -1   0 405976.  59582.   1
  -4  -1   0 343518.  50438.   1
   4   1   0 356549.  57178.   1
   4   1   0 543698.  87081.   1
   4   1   0 368232.  54033.   1
   4   1   0 271175.  47675.   1
   4   1   0 351381.  61806.   1
  -4  -1  -1 494046.  86924.   1
  -4  -1  -1 498764.  73242.   1
   4   1   1 420355.  73916.   1
   4   1   1 297236.  47652.   1
   4   1   1 400584.  58751.   1
   4   1   1 404852.  71197.   1
  -4  -1  -2  395.19 264.210   1
  -4  -1  -2  961.36 171.265   1
  -4  -1  -2  474.95 227.364   1
  -4  -1  -2  805.89 321.276   1
   4   1   2  789.26 154.123   1
   4   1   2  416.09 193.192   1
   4   1   2  772.86 329.589   1
  -4  -1  -3 628847. 110537.   1
  -4  -1  -3 438328.  77061.   1
  -4  -1  -3 443945.  65176.   1
   4   1   3 511570.  89935.   1
   4   1   3 439002.  64412.   1
  -4  -1  -4 494720.  87037.   1
  -4  -1  -4 460795.  73804.   1
  -4  -1  -4 505729.  74253.   1
   4   1   4 395416.  69535.   1
   4   1   4 510896.  74972.   1
  -4  -1  -5 1057.51 354.976   1
  -4  -1  -5 1327.57 231.633   1
  -4  -1  -5 1340.15 382.835   1
  -4  -1  -5 1546.17 436.531   1
   4   1   5 1467.76 249.831   1
   4   1   5 1858.68 496.293   1
   4   1   5 1697.82 440.799   1
  -4  -1  -6  61559.  10869.   1
  -4  -1  -6  92586.  14851.   1
  -4  -1  -6  57448. 8530.66   1
   4   1   6  71782.  11517.   1
   4   1   6  96248.  14222.   1
   4   1   6  78387.  13837.   1
  -4  -1  -7 1045.38 367.557   1
  -4  -1  -7  825.21 174.185   1
  -4  -1  -7  678.50 349.359   1
   4   1   7  389.35 107.639   1
   4   1   7  374.07 605.931   1
   4   1   7  837.11 313.862   1
  -4  -1  -8  15938. 2875.76   1
  -4  -1  -8  23545. 3790.16   1
  -4  -1  -8  24758. 3758.70   1
   4   1   8  24354. 3911.48   1
   4   1   8  17841. 2871.26   1
   4   1   8  24174. 4320.37   1
  -4  -1  -9  35206. 5286.45   1
   4   1   9  25365. 4073.24   1
   4   1   9  24152. 4320.37   1
  -4  -1 -10  369.80 425.297   1
   4   1  10  706.36 166.030   1
   4   1  10  353.63 300.157   1
  -4  -1 -11 2538.75 633.565   1
   4   1  11 4318.13 709.053   1
   4   1  11 5623.45 1089.19   1
  -4  -1 -12 1900.92 624.803   1
   4   1  12 2190.07 388.002   1
   4   1  12 1923.61 543.698   1
  -4  -1 -13  56302. 8386.87   1
   4   1  13  40665. 6535.60   1
   4   1  13  36014. 6412.04   1
  -4  -2  10 7593.79 1235.90   1
  -4  -2  10  10440. 1946.75   1
   4   2 -10 8575.59 1395.19   1
  -4  -2   9  14963. 2711.75   1
  -4  -2   9  11932. 1924.51   1
  -4  -2   9 8667.71 1867.22   1
   4   2  -9  10869. 1755.78   1
   4   2  -9 6825.43 1640.30   1
  -4  -2   8  33723. 5987.41   1
  -4  -2   8  21966. 3529.54   1
  -4  -2   8  22826. 3610.42   1
   4   2  -8  37138. 5962.70   1
   4   2  -8  25635. 3956.41   1
  -4  -2   7  12503. 2273.64   1
  -4  -2   7 8865.42 1431.81   1
  -4  -2   7  10717. 1929.90   1
  -4  -2   7 9483.25 1594.25   1
   4   2  -7 9146.25 1476.75   1
   4   2  -7  11197. 1778.70   1
  -4  -2   6 2644.35 579.644   1
  -4  -2   6 2907.21 479.442   1
  -4  -2   6 4401.25 845.652   1
  -4  -2   6 3111.66 792.181   1
   4   2  -6 3140.86 516.288   1
   4   2  -6 2727.47 582.565   1
  -4  -2   5 1773.53 423.500   1
  -4  -2   5 1033.25 557.852   1
  -4  -2   5  992.81 184.273   1
  -4  -2   5 1170.75 429.341   1
  -4  -2   5 1272.07 379.240   1
   4   2  -5 1523.48 283.082   1
   4   2  -5 1251.18 225.567   1
   4   2  -5 2118.17 569.085   1
   4   2  -5 1252.75 326.668   1
  -4  -2   4  41024. 7299.48   1
  -4  -2   4  37497. 6023.36   1
  -4  -2   4  32285. 5731.29   1
  -4  -2   4  37879. 5605.48   1
  -4  -2   4  34397. 5095.48   1
   4   2  -4  52011. 8348.68   1
   4   2  -4  40643. 6522.12   1
   4   2  -4  42170. 7467.98   1
  -4  -2   3  32105. 5151.65   1
  -4  -2   3  22231. 3981.12   1
  -4  -2   3  27275. 4850.59   1
   4   2  -3  29342. 4706.80   1
   4   2  -3  42125. 6762.52   1
   4   2  -3  32622. 5800.94   1
   4   2  -3  47203. 8341.94   1
  -4  -2   2  11099. 1785.44   1
  -4  -2   2  10501. 1917.32   1
  -4  -2   2  12395. 2253.42   1
   4   2  -2  11335. 1824.53   1
   4   2  -2 9456.29 1523.48   1
   4   2  -2 7890.35 1495.84   1
   4   2  -2  12179. 2201.97   1
  -4  -2   1 484385.  77668.   1
  -4  -2   1 322848.  56774.   1
   4   2  -1 359245.  57627.   1
   4   2  -1 399011.  64008.   1
   4   2  -1 278589.  49023.   1
   4   2  -1 451583.  79443.   1
  -4  -2   0  58616.  10350.   1
  -4  -2   0  69175.  12211.   1
   4   2   0  64030.  10272.   1
   4   2   0  50393. 8079.08   1
   4   2   0  68591.  12125.   1
   4   2   0  61874. 9114.80   1
   4   2   0  57987.  10238.   1
  -4  -2  -1 339249.  59717.   1
  -4  -2  -1 226690.  39901.   1
  -4  -2  -1 206717.  30375.   1
  -4  -2  -1 207122.  33206.   1
   4   2   1 249382.  39969.   1
   4   2   1 226466.  36329.   1
   4   2   1 346663.  50910.   1
   4   2   1 449561.  79106.   1
   4   2   1 305774.  53786.   1
  -4  -2  -2 441698.  77690.   1
  -4  -2  -2 474724.  83487.   1
  -4  -2  -2 540103.  79285.   1
   4   2   2 632217.  92766.   1
  -4  -2  -3 124534.  19962.   1
  -4  -2  -3  86700.  12788.   1
   4   2   3 101820.  16322.   1
   4   2   3 115075.  16942.   1
   4   2   3 211570.  37250.   1
  -4  -2  -4 342619.  60256.   1
  -4  -2  -4 397438.  69917.   1
  -4  -2  -4 323972.  47607.   1
  -4  -2  -4 441698.  70793.   1
   4   2   4 303752.  53426.   1
   4   2   4 367558.  53988.   1
  -4  -2  -5 256347.  45113.   1
  -4  -2  -5 269827.  47472.   1
  -4  -2  -5 237924.  34981.   1
  -4  -2  -5 212020.  33992.   1
   4   2   5 172927.  27724.   1
   4   2   5 243316.  35767.   1
   4   2   5 307346.  54100.   1
  -4  -2  -6  20036. 3581.21   1
  -4  -2  -6  22026. 3536.28   1
  -4  -2  -6  23927. 4259.71   1
  -4  -2  -6  22961. 3482.36   1
   4   2   6  22714. 3646.37   1
   4   2   6  20966. 3223.99   1
   4   2   6  19596. 3513.81   1
  -4  -2  -7 106111.  18690.   1
  -4  -2  -7  83959.  13476.   1
  -4  -2  -7  84296.  12453.   1
   4   2   7  75062.  12042.   1
   4   2   7  66479. 9910.12   1
   4   2   7 107122.  18888.   1
  -4  -2  -8 262637.  46214.   1
  -4  -2  -8 208402.  33431.   1
  -4  -2  -8 211368.  31094.   1
   4   2   8 235902.  37834.   1
   4   2   8 197663.  29139.   1
   4   2   8 177443.  31251.   1
  -4  -2  -9  41137. 6614.24   1
  -4  -2  -9  21395. 3266.68   1
   4   2   9  20948. 3367.78   1
   4   2   9  23388. 4183.33   1
  -4  -2 -10  36598. 5481.91   1
   4   2  10  36666. 5884.07   1
   4   2  10  35385. 6283.98   1
  -4  -2 -11  63738. 9433.83   1
   4   2  11  53269. 8539.65   1
   4   2  11  64053.  11323.   1
  -4  -2 -12 5868.34 1047.63   1
   4   2  12 4729.27 783.419   1
   4   2  12 7717.36 1487.75   1
  -4  -2 -13  12337. 2010.11   1
   4   2  13  16322. 2635.36   1
   4   2  13  22669. 4086.72   1
  -4  -3  10  72096.  11573.   1
  -4  -3  10  75421.  13327.   1
   4   3 -10  67872.  10896.   1
  -4  -3   9 104471.  16760.   1
  -4  -3   9  99596.  17562.   1
   4   3  -9 112739.  18086.   1
  -4  -3   8 1479.22 427.095   1
  -4  -3   8 1375.87 247.809   1
  -4  -3   8 1022.92 753.987   1
   4   3  -8 2051.00 360.817   1
   4   3  -8  449.34 509.997   1
  -4  -3   7  93619.  16502.   1
  -4  -3   7 109863.  17625.   1
  -4  -3   7  66097. 9815.76   1
  -4  -3   7  92316.  13664.   1
   4   3  -7 125635.  20151.   1
   4   3  -7  68412.  10142.   1
  -4  -3   6 102561.  16455.   1
  -4  -3   6  99281.  17502.   1
   4   3  -6  91867.  14738.   1
  -4  -3   5 5070.77 824.533   1
  -4  -3   5 4394.51 858.233   1
  -4  -3   5 7452.25 1515.61   1
   4   3  -5 4158.61 689.732   1
   4   3  -5 4646.14 760.278   1
   4   3  -5 3951.92 842.731   1
  -4  -3   4  96899.  15547.   1
  -4  -3   4 118647.  20899.   1
  -4  -3   4 141474.  24938.   1
   4   3  -4 116872.  18742.   1
   4   3  -4 112604.  18068.   1
   4   3  -4 135273.  23837.   1
  -4  -3   3 117232.  18805.   1
  -4  -3   3 194046.  34150.   1
  -4  -3   3 230510.  40575.   1
   4   3  -3 178184.  28578.   1
   4   3  -3 182992.  29342.   1
   4   3  -3 158009.  27836.   1
   4   3  -3 147719.  26017.   1
  -4  -3   2  28039. 4502.35   1
  -4  -3   2  27387. 4866.32   1
  -4  -3   2  21090. 3776.68   1
   4   3  -2  25747. 4131.65   1
   4   3  -2  22231. 3569.98   1
   4   3  -2  25163. 4497.86   1
   4   3  -2  23186. 4131.65   1
  -4  -3   1  24332. 3906.98   1
  -4  -3   1  30330. 5392.04   1
  -4  -3   1  28443. 5059.53   1
   4   3  -1  25859. 4149.62   1
   4   3  -1  26241. 4212.53   1
   4   3  -1  31229. 5569.53   1
   4   3  -1  35250. 6245.78   1
  -4  -3   0 2689.28 568.411   1
  -4  -3   0 2880.25 625.477   1
   4   3   0 2453.38 401.258   1
   4   3   0 2350.03 382.386   1
   4   3   0 3430.69 727.926   1
   4   3   0 3482.36 717.815   1
  -4  -3  -1  29971. 5320.15   1
  -4  -3  -1  31049. 5508.87   1
  -4  -3  -1  30667. 4536.06   1
   4   3   1  34397. 5517.86   1
   4   3   1  34442. 5524.60   1
   4   3   1  20222. 3610.42   1
   4   3   1  33386. 4935.96   1
   4   3   1  36756. 6528.86   1
  -4  -3  -2  31139. 5522.35   1
  -4  -3  -2  29476. 5239.27   1
  -4  -3  -2  25051. 3731.74   1
   4   3   2  28982. 4646.14   1
   4   3   2  28645. 4594.47   1
   4   3   2  31206. 5560.54   1
   4   3   2  35520. 5279.71   1
   4   3   2  47517. 8398.10   1
  -4  -3  -3  61671.  10899.   1
  -4  -3  -3  61290.  10816.   1
  -4  -3  -3  49292. 7299.48   1
  -4  -3  -3  60076. 9624.79   1
   4   3   3  69130.  11090.   1
   4   3   3  67917.  10890.   1
   4   3   3  88429.  13055.   1
   4   3   3  66255.  11710.   1
  -4  -3  -4 112447.  19822.   1
  -4  -3  -4 109548.  19297.   1
  -4  -3  -4  82790.  12224.   1
  -4  -3  -4  89351.  14329.   1
   4   3   4  86475.  13871.   1
   4   3   4  99932.  14752.   1
   4   3   4  86452.  15259.   1
  -4  -3  -5 5967.19 1124.47   1
  -4  -3  -5 7027.63 1311.61   1
  -4  -3  -5 4709.05 836.665   1
  -4  -3  -5 6838.91 1101.10   1
   4   3   5 4998.87 806.335   1
   4   3   5 4825.88 922.938   1
   4   3   5 7560.09 1420.35   1
  -4  -3  -6 100674.  16151.   1
  -4  -3  -6  87958.  12993.   1
   4   3   6 117749.  18877.   1
   4   3   6  76792.  11373.   1
   4   3   6  92339.  16288.   1
  -4  -3  -7  70299.  12411.   1
  -4  -3  -7  41092. 6596.26   1
  -4  -3  -7  62682.  11069.   1
  -4  -3  -7  53875. 7995.95   1
   4   3   7  57672. 9260.83   1
   4   3   7  55875. 8366.65   1
   4   3   7  47630. 8434.05   1
  -4  -3  -8  20236. 3641.87   1
  -4  -3  -8  19259. 3098.18   1
  -4  -3  -8  19742. 3527.29   1
  -4  -3  -8  18823. 2880.25   1
   4   3   8  19038. 3059.98   1
   4   3   8  20625. 3289.15   1
   4   3   8  18331. 3293.64   1
  -4  -3  -9 259717.  41631.   1
  -4  -3  -9 304875.  53651.   1
  -4  -3  -9 252977.  37205.   1
   4   3   9 421253.  67535.   1
   4   3   9 302179.  53157.   1
  -4  -3 -10  63559. 9415.85   1
   4   3  10  56594. 9085.59   1
   4   3  10  56953.  10072.   1
  -4  -3 -11  28488. 4300.15   1
   4   3  11  21925. 3525.05   1
   4   3  11  23972. 4291.17   1
  -4  -3 -12 100539.  17735.   1
  -4  -3 -12 116850.  17243.   1
   4   3  12  94563.  15170.   1
   4   3  12 114424.  20189.   1
  -4  -3 -13  16688. 3044.26   1
  -4  -3 -13  19861. 3102.67   1
  -4  -4  10 2514.04 682.992   1
   4   4 -10 2311.84 435.407   1
  -4  -4   9  14972. 2410.69   1
  -4  -4   9  13179. 2394.97   1
   4   4  -9  13064. 2111.21   1
  -4  -4   8 123343.  19775.   1
  -4  -4   8  62862.  11101.   1
   4   4  -8  96899.  15540.   1
  -4  -4   7  52438. 8413.83   1
  -4  -4   7  48888. 8640.75   1
   4   4  -7  46664. 7481.46   1
  -4  -4   6  35812. 5751.51   1
  -4  -4   6  32352. 5747.02   1
   4   4  -6  36441. 5852.61   1
  -4  -4   5 169085.  27117.   1
  -4  -4   5 135542.  23882.   1
   4   4  -5 188429.  30218.   1
   4   4  -5 229611.  36823.   1
  -4  -4   4 7454.50 1204.00   1
  -4  -4   4 6724.33 1355.20   1
  -4  -4   4 7250.05 1342.62   1
   4   4  -4 7640.97 1234.33   1
   4   4  -4 6931.02 1126.04   1
   4   4  -4 6677.14 1308.02   1
  -4  -4   3 136104.  21831.   1
  -4  -4   3 160211.  28241.   1
  -4  -4   3 107234.  18897.   1
   4   4  -3 150752.  24174.   1
   4   4  -3 174051.  27904.   1
   4   4  -3 118333.  20869.   1
   4   4  -3 151224.  26646.   1
  -4  -4   2 504156.  80858.   1
  -4  -4   2 448663.  78926.   1
   4   4  -2 459447.  73759.   1
   4   4  -2 563693.  90362.   1
   4   4  -2 516737.  90878.   1
   4   4  -2 584587. 102786.   1
  -4  -4   1  49180. 7879.12   1
  -4  -4   1  55156. 9743.87   1
  -4  -4   1  63873.  11281.   1
   4   4  -1  45361. 7274.76   1
   4   4  -1  51584. 8272.29   1
   4   4  -1  55538. 9833.74   1
   4   4  -1  65154.  11505.   1
  -4  -4   0 173556.  27814.   1
  -4  -4   0 166502.  29319.   1
  -4  -4   0 105212.  18544.   1
   4   4   0 145428.  23321.   1
   4   4   0 129476.  20766.   1
   4   4   0 158683.  27971.   1
   4   4   0 132846.  23388.   1
  -4  -4  -1 256796.  45181.   1
  -4  -4  -1 214805.  37789.   1
  -4  -4  -1 283756.  41676.   1
   4   4   1 307571.  54123.   1
   4   4   1 264210.  46484.   1
   4   4   1 295439.  43428.   1
  -4  -4  -2  34509. 6119.97   1
  -4  -4  -2  46619. 8245.33   1
  -4  -4  -2  38935. 5762.74   1
   4   4   2  44821. 7953.26   1
   4   4   2  45563. 8063.35   1
   4   4   2  41833. 6205.34   1
  -4  -4  -3 209009.  36778.   1
  -4  -4  -3 237250.  41743.   1
  -4  -4  -3 158459.  23298.   1
   4   4   3 201820.  35543.   1
   4   4   3 167333.  29454.   1
   4   4   3 163514.  24062.   1
  -4  -4  -4 126151.  22224.   1
  -4  -4  -4 126354.  22249.   1
  -4  -4  -4 107459.  15839.   1
   4   4   4 127095.  22397.   1
   4   4   4 104718.  15466.   1
  -4  -4  -5  16668. 2983.60   1
  -4  -4  -5  16479. 2644.35   1
  -4  -4  -5  18189. 2918.44   1
  -4  -4  -5  14127. 2170.75   1
  -4  -4  -5  16729. 2999.32   1
   4   4   5  16219. 2603.91   1
   4   4   5  15057. 2727.47   1
   4   4   5  14318. 2262.41   1
  -4  -4  -6  24983. 4443.94   1
  -4  -4  -6  16816. 2700.51   1
  -4  -4  -6  19656. 3509.32   1
  -4  -4  -6  13945. 2148.95   1
   4   4   6  17920. 2878.00   1
   4   4   6  19166. 2990.34   1
   4   4   6  16032. 2889.24   1
  -4  -4  -7  13613. 2460.12   1
  -4  -4  -7  11689. 1882.95   1
  -4  -4  -7  14716. 2669.06   1
  -4  -4  -7  11267. 1758.25   1
   4   4   7  10865. 1747.70   1
   4   4   7  15093. 2487.08   1
   4   4   7  12161. 2217.93   1
  -4  -4  -8  24579. 3951.92   1
  -4  -4  -8  17394. 2662.32   1
   4   4   8  22489. 3612.67   1
   4   4   8  20541. 3684.56   1
  -4  -4  -9 4864.07 793.304   1
  -4  -4  -9 3862.05 781.846   1
  -4  -4  -9 5012.35 888.114   1
   4   4   9 3340.82 552.010   1
   4   4   9 4331.61 882.273   1
  -4  -4 -10  17962. 2891.48   1
  -4  -4 -10  14093. 2554.48   1
  -4  -4 -10  18942. 2907.21   1
   4   4  10  14669. 2363.51   1
   4   4  10  20755. 3727.25   1
  -4  -4 -11 5281.95 1022.69   1
  -4  -4 -11 7205.12 1197.48   1
  -4  -4 -12  730.62 464.390   1
  -4  -4 -12  792.41 482.363   1
   4   4  12 1084.70 272.073   1
  -4  -4 -13  17396. 3192.54   1
  -4  -4 -13  22984. 3525.05   1
  -4  -5   9 1117.95 446.865   1
   4   5  -9  933.05 245.563   1
  -4  -5   8 7189.39 1351.38   1
   4   5  -8 7977.97 1295.44   1
  -4  -5   7 5048.30 825.656   1
  -4  -5   7 7966.74 1478.32   1
   4   5  -7 8977.75 1454.50   1
  -4  -5   6  17261. 2776.90   1
  -4  -5   6  23658. 4210.29   1
   4   5  -6  16127. 2594.92   1
  -4  -5   5 7265.78 1176.36   1
  -4  -5   5  10000. 1836.89   1
   4   5  -5 7095.03 1148.06   1
  -4  -5   4  33004. 5295.43   1
  -4  -5   4  12588. 2280.38   1
   4   5  -4  22916. 3684.56   1
   4   5  -4  26286. 4221.52   1
  -4  -5   3  47720. 7656.70   1
  -4  -5   3  48843. 8629.51   1
  -4  -5   3  65176.  11541.   1
   4   5  -3  54235. 8703.65   1
   4   5  -3  47765. 7656.70   1
   4   5  -3  58773.  10407.   1
   4   5  -3  46237. 8213.88   1
  -4  -5   2  14287. 2296.11   1
  -4  -5   2  11833. 2134.57   1
  -4  -5   2  17668. 3197.03   1
   4   5  -2  14949. 2403.95   1
   4   5  -2  14136. 2273.64   1
   4   5  -2  14736. 2684.79   1
   4   5  -2  19265. 3468.88   1
  -4  -5   1 200247.  32105.   1
  -4  -5   1 289598.  50932.   1
  -4  -5   1 181307.  31925.   1
   4   5  -1 229836.  36846.   1
   4   5  -1 223927.  35902.   1
   4   5  -1 254325.  44754.   1
   4   5  -1 190047.  33476.   1
  -4  -5   0 133386.  21393.   1
  -4  -5   0 130532.  22984.   1
  -4  -5   0 123096.  21683.   1
   4   5   0 134509.  21566.   1
   4   5   0 158414.  25410.   1
   4   5   0 122983.  21685.   1
   4   5   0 147899.  26039.   1
  -4  -5  -1  40822. 7229.83   1
  -4  -5  -1  38823. 6877.10   1
  -4  -5  -1  56504. 8335.20   1
   4   5   1  46102. 8180.18   1
   4   5   1  43586. 7715.11   1
   4   5   1  53561. 7924.05   1
   4   5   1  46843. 6906.31   1
  -4  -5  -2 999999. 175781.   1
  -4  -5  -2 630195.  92518.   1
   4   5   2 417209.  61245.   1
  -4  -5  -3 327791.  57627.   1
  -4  -5  -3 182476.  32105.   1
  -4  -5  -3 246012.  36149.   1
   4   5   3 236576.  41654.   1
   4   5   3 163851.  28870.   1
   4   5   3 168097.  24758.   1
  -4  -5  -4  61559.  10865.   1
  -4  -5  -4  95484.  16821.   1
  -4  -5  -4  57156. 8465.50   1
   4   5   4  55920. 9896.64   1
   4   5   4  50865. 7602.78   1
  -4  -5  -5 264210.  46484.   1
  -4  -5  -5 289148.  50865.   1
  -4  -5  -5 265109.  38958.   1
   4   5   5 332734.  58549.   1
   4   5   5 243990.  35924.   1
  -4  -5  -6  49989. 8018.41   1
  -4  -5  -6  50932. 8166.70   1
  -4  -5  -6  42912. 6378.34   1
   4   5   6  45720. 6937.76   1
   4   5   6  38845. 6895.07   1
  -4  -5  -7 119995.  21135.   1
  -4  -5  -7  71961.  11552.   1
  -4  -5  -7  68501.  10982.   1
  -4  -5  -7  58728. 8705.90   1
  -4  -5  -7  80566.  14228.   1
   4   5   7  58728. 9411.36   1
   4   5   7  65648.  11602.   1
   4   5   7  65199. 9800.04   1
  -4  -5  -8  97888.  15711.   1
  -4  -5  -8 115547.  18535.   1
  -4  -5  -8 106470.  15707.   1
  -4  -5  -8  92339.  16288.   1
   4   5   8 127454.  20443.   1
   4   5   8 129342.  22804.   1
  -4  -5  -9  25949. 4169.85   1
  -4  -5  -9  20099. 3596.94   1
  -4  -5  -9  22417. 3394.74   1
   4   5   9  20757. 3336.33   1
   4   5   9  17821. 3212.76   1
  -4  -5 -10 5288.69 870.141   1
  -4  -5 -10 4900.02 1002.25   1
  -4  -5 -10 3895.75 720.287   1
   4   5  10 3830.60 637.609   1
   4   5  10 4297.91 898.898   1
  -4  -5 -11  24579. 4407.99   1
  -4  -5 -11  24107. 3619.41   1
   4   5  11  23096. 3718.26   1
  -4  -5 -12 1930.58 709.503   1
  -4  -5 -12 1945.40 656.706   1
  -4  -5 -13 6571.55 1204.00   1
  -4  -6   9  75376.  13296.   1
  -4  -6   8  11840. 2151.42   1
   4   6  -8  10375. 1684.34   1
  -4  -6   7  33947. 6025.61   1
   4   6  -7  28802. 4630.42   1
  -4  -6   6 102247.  16399.   1
  -4  -6   6  64390.  11357.   1
   4   6  -6  71265.  11427.   1
  -4  -6   5 4124.91 676.477   1
  -4  -6   5 3671.08 742.304   1
  -4  -6   4  38486. 6176.13   1
  -4  -6   4  61132.  10800.   1
  -4  -6   3  71737.  11499.   1
  -4  -6   3  78522.  13855.   1
   4   6  -3  81577.  13078.   1
  -4  -6   2 1927.65 325.095   1
  -4  -6   2 1386.65 347.562   1
  -4  -6   2 1416.76 609.750   1
   4   6  -2 2050.55 359.020   1
   4   6  -2 1463.04 255.673   1
   4   6  -2 1258.82 435.857   1
   4   6  -2 1722.08 566.838   1
  -4  -6   1  34532. 5540.32   1
  -4  -6   1  26915. 4774.20   1
  -4  -6   1  32599. 5818.91   1
   4   6  -1  37452. 6007.63   1
   4   6  -1  38553. 6180.63   1
  -4  -6   0  11436. 2068.07   1
  -4  -6   0 8625.02 1630.64   1
  -4  -6   0 7778.02 1249.16   1
   4   6   0 6832.17 1097.51   1
   4   6   0 7591.55 1219.95   1
   4   6   0 8027.40 1523.03   1
   4   6   0 7535.38 1150.08   1
   4   6   0 8611.54 1372.50   1
   4   6   0 8085.82 1527.07   1
  -4  -6  -1  44102. 7811.72   1
  -4  -6  -1  39047. 6931.02   1
   4   6   1  28982. 5160.63   1
   4   6   1  48708. 8636.25   1
   4   6   1  37520. 5600.98   1
   4   6   1  49764. 7339.92   1
  -4  -6  -2  11447. 2083.35   1
  -4  -6  -2  14599. 2639.85   1
  -4  -6  -2  14664. 2231.86   1
   4   6   2  16601. 2997.08   1
   4   6   2  17929. 3241.97   1
   4   6   2  10449. 1727.48   1
   4   6   2  12536. 1924.73   1
  -4  -6  -3  61627.  10878.   1
  -4  -6  -3  51719. 9148.50   1
  -4  -6  -3  52842. 7822.95   1
   4   6   3  42013. 7454.50   1
   4   6   3  67827.  11993.   1
   4   6   3  34981. 5297.68   1
  -4  -6  -4  60503.  10681.   1
  -4  -6  -4  72433.  12793.   1
  -4  -6  -4  69400.  10261.   1
   4   6   4  72119.  12741.   1
   4   6   4  81802.  12146.   1
  -4  -6  -5 1213.88 466.861   1
  -4  -6  -5 1207.37 340.597   1
  -4  -6  -5  793.30 330.038   1
   4   6   5  967.42 344.641   1
   4   6   5  878.23 836.216   1
  -4  -6  -6 123231.  21728.   1
  -4  -6  -6  72051.  12723.   1
  -4  -6  -6  85599.  12644.   1
   4   6   6  59852.  10586.   1
   4   6   6  72051.  10816.   1
  -4  -6  -7  58459.  10326.   1
  -4  -6  -7  52190. 7751.06   1
   4   6   7  59762.  10568.   1
  -4  -6  -8 4437.20 735.340   1
  -4  -6  -8 5991.91 970.343   1
  -4  -6  -8 6009.88 1021.57   1
  -4  -6  -8 5994.15 1153.67   1
   4   6   8 8420.57 1599.41   1
  -4  -6  -9  87126.  13974.   1
  -4  -6  -9  52730. 9341.71   1
  -4  -6  -9  93282.  13763.   1
   4   6   9 109773.  19373.   1
  -4  -6 -10  69715.  11193.   1
  -4  -6 -10  88879.  15684.   1
  -4  -6 -10  81397.  12015.   1
  -4  -6 -11 1600.31 675.353   1
  -4  -6 -11 1100.43 453.830   1
  -4  -6 -12  72838.  10791.   1
  -4  -7   8  55493. 9813.52   1
  -4  -7   7  19924. 3574.47   1
   4   7  -7  25230. 4062.00   1
  -4  -7   6  18007. 3235.22   1
   4   7  -6  25253. 4062.00   1
  -4  -7   4  97034.  15554.   1
  -4  -7   4  83869.  14792.   1
  -4  -7   3  61290. 9831.49   1
  -4  -7   3  53516. 9465.28   1
  -4  -7   2 215277.  34509.   1
  -4  -7   2 226466.  39856.   1
   4   7  -2 277915.  44574.   1
   4   7  -2 229836.  36846.   1
  -4  -7   1  55830. 8948.54   1
  -4  -7   1  45001. 7951.01   1
   4   7  -1  52595. 8440.79   1
   4   7  -1  48146. 7724.10   1
   4   7  -1 107639.  18989.   1
  -4  -7   0  14536. 2612.89   1
  -4  -7   0  16868. 3093.68   1
   4   7   0  24826. 4473.15   1
   4   7   0  15700. 2857.78   1
   4   7   0  15570. 2354.52   1
   4   7   0  12815. 2070.32   1
  -4  -7  -1 153359.  27005.   1
  -4  -7  -1 184340.  32465.   1
   4   7   1 160997.  28353.   1
   4   7   1 110335.  19465.   1
  -4  -7  -2  31341. 4697.82   1
   4   7   2  19607. 3547.51   1
   4   7   2  20418. 3675.58   1
   4   7   2  24107. 3637.38   1
   4   7   2  17495. 2842.06   1
  -4  -7  -3  79016.  13956.   1
  -4  -7  -3  58863.  10395.   1
  -4  -7  -3  71310.  10555.   1
   4   7   3  52820. 9366.42   1
  -4  -7  -4  44844. 6674.90   1
   4   7   4  45630. 8094.80   1
   4   7   4  32644. 5093.23   1
   4   7   4  39789. 5913.27   1
  -4  -7  -5 2889.24 614.693   1
  -4  -7  -5 1143.56 601.662   1
  -4  -7  -5 2121.09 495.394   1
   4   7   5 2050.55 541.226   1
  -4  -7  -6 2520.78 595.596   1
  -4  -7  -6 2329.81 540.328   1
   4   7   6 2018.87 534.037   1
  -4  -7  -7  755.78 361.042   1
  -4  -7  -7  530.22 377.892   1
   4   7   7  496.07 383.060   1
  -4  -7  -8 8321.72 1574.03   1
  -4  -7  -8 6897.32 1158.17   1
   4   7   8 8276.78 1606.60   1
  -4  -7  -9 8148.72 1569.08   1
  -4  -7  -9 5497.64 963.827   1
  -4  -7 -10  13336. 2509.55   1
  -4  -7 -10  12251. 1937.54   1
  -4  -7 -11  38755. 5814.42   1
  -4  -8   7 2592.67 684.565   1
  -4  -8   6  14552. 2630.87   1
  -4  -8   5 1000.45 376.769   1
   4   8  -5 1312.74 314.985   1
  -4  -8   4  53291. 9420.35   1
  -4  -8   3  81914.  13136.   1
  -4  -8   3 109279.  19252.   1
  -4  -8   2 1756.23 317.456   1
  -4  -8   2 1769.04 423.275   1
   4   8  -2 1337.45 254.999   1
  -4  -8   1 125769.  22150.   1
  -4  -8   1  88452.  14183.   1
   4   8  -1  85217.  13662.   1
   4   8  -1  81150.  13026.   1
   4   8  -1  93372.  13806.   1
   4   8  -1  96091.  14255.   1
  -4  -8   0  98764.  17394.   1
   4   8   0  88003.  15540.   1
   4   8   0  81038.  12123.   1
   4   8   0  90744.  13399.   1
  -4  -8  -1  13462. 2428.67   1
   4   8   1  13846. 2536.51   1
   4   8   1  10591. 2160.19   1
   4   8   1  15156. 2368.00   1
  -4  -8  -2 250955.  44170.   1
   4   8   2 343967.  60526.   1
  -4  -8  -3 154033.  27117.   1
  -4  -8  -3 264210.  38868.   1
   4   8   3 134464.  23703.   1
   4   8   3 160031.  23545.   1
  -4  -8  -4 1088.29 347.562   1
  -4  -8  -4 1867.44 521.680   1
   4   8   4 1439.68 513.143   1
   4   8   4 2563.47 567.063   1
  -4  -8  -5  90339.  15924.   1
  -4  -8  -5 119658.  17641.   1
   4   8   5 143518.  25298.   1
   4   8   5 107661.  15895.   1
  -4  -8  -6  73983.  13060.   1
  -4  -8  -6  52685. 7825.20   1
   4   8   6  48663. 8645.24   1
   4   8   6  51427. 7645.47   1
  -4  -8  -7  733.77 498.988   1
  -4  -8  -7 1079.98 477.196   1
   4   8   7 1342.39 666.366   1
  -4  -8  -8  50146. 8905.86   1
  -4  -8  -8  73399.  10865.   1
  -4  -8  -9  14516. 2747.69   1
  -4  -8  -9  22669. 3450.91   1
  -4  -8 -10  11795. 1971.02   1
  -4  -8 -11  16661. 2700.51   1
  -4  -9   5 7497.18 1449.34   1
  -4  -9   4 6421.02 1270.28   1
  -4  -9   3 6695.12 1100.65   1
  -4  -9   3 7928.55 1492.25   1
  -4  -9   2  738.48 202.965   1
  -4  -9   2 1357.00 436.081   1
   4   9  -2  730.85 221.276   1
  -4  -9   1  24466. 4356.32   1
   4   9  -1  18075. 2846.55   1
  -4  -9   0 1312.06 404.403   1
   4   9   0 1002.25 837.339   1
  -4  -9  -1  29881. 5311.16   1
   4   9   1  38126. 6805.21   1
   4   9   1  30982. 4688.83   1
  -4  -9  -2 2860.03 651.763   1
   4   9   2 3668.83 874.409   1
   4   9   2 3345.31 825.432   1
  -4  -9  -3  78746.  13900.   1
   4   9   3  43855. 7822.95   1
   4   9   3  54999. 8177.93   1
  -4  -9  -4  62031.  10968.   1
  -4  -9  -4  71669.  10645.   1
   4   9   4  71894.  12757.   1
   4   9   4  58616. 8708.15   1
  -4  -9  -5 5924.51 1187.37   1
  -4  -9  -5 4470.90 907.211   1
   4   9   5 3900.24 1039.09   1
   4   9   5 4956.18 981.127   1
  -4  -9  -6  78005.  13781.   1
   4   9   6  53134. 9489.99   1
   4   9   6  65064. 9667.48   1
  -4  -9  -7  67648.  11988.   1
   4   9   7  69602.  10330.   1
   4   9   8 2314.08 754.886   1
   4   9   9  49517. 7429.78   1
  -4 -10   2  78522.  13876.   1
  -4 -10   1  43743. 7778.02   1
  -4 -10   0 6531.11 1303.98   1
  -4 -10  -1  25140. 4511.34   1
   4  10   1  17920. 2898.22   1
  -4 -10  -2 9716.91 1842.73   1
   4  10   2 9388.89 1761.85   1
  -4 -10  -3 2855.54 809.031   1
   4  10   3 2972.36 1052.80   1
  -4 -10  -4  14534. 2725.23   1
   4  10   4  17960. 2871.26   1
   4  10   5  405.98 770.388   1
   4  10   6 3430.69 949.224   1
   4  10   7  352.73 923.612   1
  -5   8   3 5165.13 1185.13   1
  -5   8   2  44552. 6717.58   1
   5  -8  -2 9157.48 1492.02   1
  -5   8   1  87216.  12934.   1
   5  -8  -1 100225.  16071.   1
  -5   8   0  21959. 3414.96   1
   5  -8   0  26376. 4243.99   1
  -5   8  -1  42125. 6367.10   1
   5  -8   1  37699. 6052.57   1
  -5   8  -2  95080.  14069.   1
   5  -8   2  98360.  15778.   1
  -5   8  -3  12211. 2028.08   1
   5  -8   3  11840. 1917.10   1
  -5   8  -4  54078. 8117.27   1
   5  -8   4  57133. 9175.46   1
  -5   8  -5  72298.  10795.   1
   5  -8   5  64233.  10317.   1
  -5   7   5 3235.22 1147.38   1
   5  -7  -5 2720.73 495.843   1
  -5   7   4 2671.31 991.462   1
   5  -7  -4 2507.30 446.416   1
  -5   7   3 2271.40 711.974   1
   5  -7  -3 2300.60 401.932   1
  -5   7   2  12213. 1949.22   1
   5  -7  -2  12822. 2068.52   1
  -5   7   1 5070.77 946.303   1
   5  -7  -1 3423.95 572.904   1
  -5   7   0  53426. 7962.25   1
   5  -7   0  62098. 9964.04   1
  -5   7  -1  40867. 6108.73   1
   5  -7   1  27499. 4421.47   1
  -5   7  -2  13712. 2201.08   1
   5  -7   2  12231. 1973.94   1
  -5   7  -3 117906.  17392.   1
   5  -7   3 116041.  18609.   1
  -5   7  -4  60413. 8968.76   1
   5  -7   4  54437. 8732.86   1
  -5   7  -5  14945. 2408.45   1
   5  -7   5  23545. 3787.91   1
  -5   7  -6 101325.  14994.   1
   5  -7   6 103437.  16592.   1
  -5   7  -7  27230. 4221.52   1
   5  -7   7  28308. 4551.78   1
   5  -6  -7  11869. 1928.55   1
   5  -6  -6  35453. 5693.10   1
  -5   6   5  57493. 8584.58   1
   5  -6  -5  62435.  10025.   1
  -5   6   4 7546.61 1334.53   1
   5  -6  -4 7506.17 1218.15   1
  -5   6   3  31341. 4738.26   1
   5  -6  -3  29095. 4677.60   1
  -5   6   2  81982.  12125.   1
   5  -6  -2  66974.  10746.   1
  -5   6   1 4688.83 909.907   1
   5  -6  -1 5277.46 865.647   1
  -5   6   0  22355. 3423.95   1
   5  -6   0  23343. 3754.21   1
  -5   6  -1  23905. 3630.64   1
   5  -6   1  27095. 4351.83   1
  -5   6  -2 2107.61 668.164   1
   5  -6   2 1511.34 277.016   1
  -5   6  -3  21698. 3902.49   1
  -5   6  -3  23163. 3540.77   1
   5  -6   3  19712. 3172.32   1
   5  -6   3  18052. 3282.41   1
  -5   6  -4 7216.35 1459.45   1
  -5   6  -4 7146.70 1229.61   1
   5  -6   4 7301.72 1186.70   1
   5  -6   4 7443.26 1530.44   1
  -5   6  -5  59919.  10625.   1
  -5   6  -5  59380. 8842.95   1
   5  -6   5  62098. 9957.30   1
   5  -6   5  58054.  10303.   1
  -5   6  -6 2446.64 708.155   1
   5  -6   6 2410.69 413.839   1
   5  -6   6 2949.90 957.986   1
  -5   6  -7  19373. 3044.26   1
   5  -6   7  21348. 3432.93   1
   5  -6   7  19171. 3549.76   1
  -5   6  -8  31499. 4805.66   1
   5  -6   8  31229. 5021.34   1
   5  -6   8  28151. 5095.48   1
  -5   6  -9 1011.68 867.669   1
   5  -6   9 1244.66 262.637   1
   5  -5  -8 8258.81 1352.05   1
   5  -5  -7  65918.  10577.   1
  -5   5   6  -72.68 610.424   1
   5  -5  -6  38913. 6250.27   1
  -5   5   5 6486.18 1220.17   1
   5  -5  -5 5749.26 943.383   1
  -5   5   4  57964. 8640.75   1
   5  -5  -4  67985.  10910.   1
  -5   5   3  66816. 9923.60   1
   5  -5  -3  95170.  15262.   1
  -5   5   2  27634. 4176.59   1
   5  -5  -2  29724. 4776.45   1
  -5   5   1 230510.  33925.   1
   5  -5  -1 467984.  75062.   1
  -5   5   0  56616. 8404.84   1
   5  -5   0  58212. 9341.71   1
  -5   5  -1  36980. 5544.82   1
   5  -5   1  34464. 5529.09   1
  -5   5  -2 176881.  31162.   1
  -5   5  -2 207706.  36576.   1
  -5   5  -2 185733.  27342.   1
   5  -5   2 226915.  36396.   1
   5  -5   2 181240.  31925.   1
  -5   5  -3  53089. 9393.39   1
  -5   5  -3  49202. 8717.13   1
  -5   5  -3  68816.  10218.   1
   5  -5   3  54460. 8748.59   1
   5  -5   3  51898. 9188.94   1
  -5   5  -4  65581.  11591.   1
  -5   5  -4  70052.  10389.   1
   5  -5   4  61582. 9878.67   1
   5  -5   4  67490.  11928.   1
  -5   5  -5  62188.  10995.   1
  -5   5  -5  64120. 9516.95   1
   5  -5   5  82341.  13217.   1
   5  -5   5  63873.  11299.   1
  -5   5  -6  12891. 2379.24   1
  -5   5  -6  14597. 2341.04   1
   5  -5   6  17311. 2788.13   1
   5  -5   6  14235. 2608.40   1
  -5   5  -7 4718.04 960.682   1
   5  -5   7 5980.67 977.083   1
   5  -5   7 3814.87 855.987   1
  -5   5  -8 8764.31 1510.67   1
   5  -5   8  14368. 2314.08   1
   5  -5   8 9400.13 1790.83   1
  -5   5  -9  566.16 728.150   1
   5  -5   9  910.13 221.546   1
   5  -5   9  508.42 511.345   1
  -5   5 -10 8362.16 1599.64   1
   5  -5  10 7216.35 1180.18   1
   5  -4  -8 1135.47 272.298   1
   5  -4  -7  14988. 2415.19   1
  -5   4   6 6200.85 1208.94   1
   5  -4  -6 6796.22 1103.12   1
  -5   4   5 3543.02 690.181   1
  -5   4   5 7353.40 1325.99   1
   5  -4  -5 7894.85 1279.94   1
  -5   4   4 2619.63 703.886   1
   5  -4  -4 2460.12 419.007   1
  -5   4   3  25725. 3902.49   1
   5  -4  -3  34621. 5558.30   1
  -5   4   2  76792.  11373.   1
   5  -4  -2  50685. 8126.26   1
  -5   4   1 1721.41 345.765   1
  -5   4   1 1966.30 411.143   1
  -5   4   1 1629.52 465.064   1
   5  -4  -1 1508.87 270.950   1
  -5   4   0  75511.  13312.   1
  -5   4   0  90092.  15868.   1
  -5   4   0 108358.  16071.   1
  -5   4   0  96405.  14242.   1
   5  -4   0  95237.  15280.   1
   5  -4   0 108672.  19153.   1
  -5   4  -1 145675.  25657.   1
  -5   4  -1 121905.  21472.   1
  -5   4  -1 127072.  18760.   1
  -5   4  -1 144012.  21218.   1
   5  -4   1 133768.  21449.   1
   5  -4   1 131588.  23163.   1
   5  -4   1 137385.  20279.   1
  -5   4  -2 5731.29 1100.65   1
  -5   4  -2 5980.67 1125.36   1
  -5   4  -2 5800.94 1015.73   1
   5  -4   2 7303.97 1184.00   1
   5  -4   2 5713.32 1089.64   1
  -5   4  -3 243541.  42844.   1
  -5   4  -3 233655.  41114.   1
  -5   4  -3 234778.  34554.   1
   5  -4   3 302628.  48573.   1
   5  -4   3 229836.  40485.   1
  -5   4  -4 163424.  28780.   1
  -5   4  -4 180611.  31813.   1
  -5   4  -4 178746.  26331.   1
   5  -4   4 230285.  36913.   1
   5  -4   4 181757.  32015.   1
  -5   4  -5 1851.49 495.618   1
  -5   4  -5 1956.41 588.631   1
   5  -4   5 4219.27 695.124   1
   5  -4   5 2783.64 649.067   1
  -5   4  -6 205504.  30240.   1
   5  -4   6 133408.  21397.   1
   5  -4   6 180858.  31858.   1
  -5   4  -7 169333.  24961.   1
   5  -4   7 148978.  23882.   1
   5  -4   7 137991.  24309.   1
  -5   4  -8 3284.65 759.379   1
   5  -4   8 3608.17 600.763   1
   5  -4   8 3911.48 856.885   1
  -5   4  -9 107976.  15942.   1
   5  -4   9 124421.  19957.   1
   5  -4   9 113525.  20027.   1
  -5   4 -10  23500. 3628.39   1
   5  -4  10  23118. 3718.26   1
   5  -4  10  19483. 3513.81   1
  -5   4 -11 3796.90 1033.70   1
   5  -4  11 5818.91 960.682   1
   5  -4  11 3192.54 831.048   1
   5  -3  -9 5423.50 900.920   1
   5  -3  -8  85891.  13779.   1
  -5   3   7  47809. 8514.93   1
   5  -3  -7  39384. 6326.66   1
  -5   3   6  36666. 6531.11   1
  -5   3   6  31791. 4825.88   1
   5  -3  -6  28151. 4518.08   1
  -5   3   5 119726.  21101.   1
  -5   3   5 122220.  18039.   1
   5  -3  -5 152707.  24489.   1
  -5   3   4  45473. 8063.35   1
  -5   3   4  51472. 9092.33   1
  -5   3   4  45698. 6836.66   1
   5  -3  -4  48708. 7816.21   1
   5  -3  -4  37160. 6594.02   1
  -5   3   3  13336. 2419.68   1
  -5   3   3  13525. 2426.42   1
  -5   3   3  11411. 1972.14   1
  -5   3   3  11175. 1800.49   1
   5  -3  -3  11236. 1811.28   1
  -5   3   2  70613.  12449.   1
  -5   3   2  65626.  10526.   1
  -5   3   2  77219.  13619.   1
  -5   3   2  74747.  11087.   1
  -5   3   2  76837.  11379.   1
   5  -3  -2  72793.  11681.   1
   5  -3  -2  61267. 9824.75   1
  -5   3   1  612.00 185.891   1
  -5   3   1  125.95 274.545   1
  -5   3   1  254.10 223.994   1
   5  -3  -1   82.34 139.968   1
   5  -3  -1   33.61  97.192   1
   5  -3  -1  638.28 332.285   1
  -5   3   0  21591. 3837.34   1
  -5   3   0  21339. 3799.14   1
  -5   3   0  20896. 3363.29   1
  -5   3   0  22051. 3370.03   1
  -5   3   0  17371. 2671.31   1
   5  -3   0  20315. 3268.93   1
   5  -3   0  25095. 4032.80   1
   5  -3   0  21476. 3307.12   1
   5  -3   0  19506. 3477.87   1
  -5   3  -1  10957. 1984.50   1
  -5   3  -1  12053. 2177.71   1
  -5   3  -1  11361. 1838.01   1
  -5   3  -1 9912.37 1590.65   1
  -5   3  -1  11525. 1858.46   1
   5  -3   1 8584.58 1388.68   1
   5  -3   1  13094. 2095.93   1
   5  -3   1  13044. 2354.52   1
  -5   3  -2 7175.91 1337.45   1
  -5   3  -2 7220.84 1337.90   1
  -5   3  -2 8741.85 1420.80   1
  -5   3  -2 7962.25 1318.13   1
  -5   3  -2 9272.06 1543.02   1
   5  -3   2 8337.44 1350.03   1
   5  -3   2 7962.25 1373.85   1
   5  -3   2 7074.81 1342.39   1
  -5   3  -3  41856. 7409.56   1
  -5   3  -3  35071. 5636.93   1
  -5   3  -3  41294. 7312.96   1
  -5   3  -3  47315. 7052.34   1
   5  -3   3  34374. 5517.86   1
   5  -3   3  43788. 6553.58   1
   5  -3   3  40395. 7160.18   1
  -5   3  -4  20247. 3628.39   1
  -5   3  -4  25590. 4118.17   1
  -5   3  -4  23635. 4228.26   1
  -5   3  -4  25028. 3792.40   1
   5  -3   4  26601. 4275.44   1
   5  -3   4  23208. 3583.46   1
   5  -3   4  20263. 3641.87   1
  -5   3  -5  52617. 9310.26   1
  -5   3  -5  56706.  10038.   1
  -5   3  -5  64637. 9600.08   1
   5  -3   5  67670.  10854.   1
   5  -3   5  54482. 9640.52   1
  -5   3  -6  15381. 2419.68   1
   5  -3   6  17630. 2835.32   1
   5  -3   6  20838. 3738.48   1
  -5   3  -7  53583. 7986.96   1
   5  -3   7  51382. 8240.84   1
   5  -3   7  42485. 7537.62   1
  -5   3  -8 117232.  17331.   1
   5  -3   8  88834.  14253.   1
   5  -3   8 109571.  19308.   1
  -5   3  -9 1043.58 537.631   1
   5  -3   9 2032.80 356.099   1
   5  -3   9  751.29 368.232   1
  -5   3 -10  57942. 8620.53   1
   5  -3  10  59942. 9615.81   1
   5  -3  10  59335.  10497.   1
  -5   3 -11  70366.  10474.   1
   5  -3  11  78544.  12599.   1
   5  -3  11  71220.  12579.   1
   5  -2  -9  60099. 9642.77   1
   5  -2  -8 1297.01 246.237   1
   5  -2  -7 100966.  16194.   1
  -5   2   6  59717.  10564.   1
  -5   2   6  47877. 7171.42   1
   5  -2  -6  70793.  11357.   1
  -5   2   5  12817. 2327.56   1
  -5   2   5  14714. 2302.85   1
   5  -2  -5  15978. 2572.45   1
  -5   2   4 125612.  22155.   1
  -5   2   4 121433.  21384.   1
  -5   2   4 111773.  16493.   1
  -5   2   4 116670.  17252.   1
   5  -2  -4 111773.  17924.   1
   5  -2  -4 119928.  21141.   1
  -5   2   3 180072.  31701.   1
  -5   2   3 247809.  39721.   1
  -5   2   3 190519.  33543.   1
  -5   2   3 205639.  30263.   1
  -5   2   3 231408.  34015.   1
   5  -2  -3 210582.  33768.   1
   5  -2  -3 157493.  25253.   1
   5  -2  -3 192608.  33902.   1
  -5   2   2 1622.78 443.945   1
  -5   2   2 1895.08 348.461   1
  -5   2   2 2293.86 491.125   1
  -5   2   2 2579.19 599.191   1
  -5   2   2 2745.45 647.270   1
   5  -2  -2 1611.32 415.412   1
   5  -2  -2 1905.19 496.742   1
  -5   2   1 294765.  51853.   1
  -5   2   1 335655.  53853.   1
  -5   2   1 283532.  49854.   1
  -5   2   1 315659.  46394.   1
  -5   2   1 326668.  47989.   1
   5  -2  -1 293417.  47068.   1
   5  -2  -1 260166.  41721.   1
   5  -2  -1 273197.  48057.   1
  -5   2   0 287351.  50550.   1
  -5   2   0 223186.  39272.   1
  -5   2   0 226466.  36306.   1
  -5   2   0 231633.  34060.   1
  -5   2   0 259043.  38059.   1
   5  -2   0 248933.  39924.   1
   5  -2   0 182543.  29252.   1
   5  -2   0 258369.  37991.   1
   5  -2   0 242867.  42732.   1
  -5   2  -1 8359.91 1533.81   1
  -5   2  -1 8656.47 1583.01   1
  -5   2  -1 9831.49 1589.75   1
  -5   2  -1 9674.22 1548.64   1
  -5   2  -1  10523. 1670.18   1
   5  -2   1 9359.69 1512.47   1
   5  -2   1 9433.83 1520.33   1
   5  -2   1 8887.88 1619.41   1
  -5   2  -2 253875.  44664.   1
  -5   2  -2 258369.  41406.   1
  -5   2  -2 255223.  44889.   1
  -5   2  -2 249831.  36756.   1
   5  -2   2 232532.  37295.   1
   5  -2   2 224556.  33004.   1
   5  -2   2 279488.  49180.   1
  -5   2  -3 163064.  28713.   1
  -5   2  -3 105212.  16879.   1
  -5   2  -3 134868.  23747.   1
  -5   2  -3 138373.  20398.   1
   5  -2   3 127836.  20501.   1
   5  -2   3 120355.  17756.   1
   5  -2   3 135812.  23927.   1
  -5   2  -4  33745. 5991.91   1
  -5   2  -4  46461. 7452.25   1
  -5   2  -4  34082. 6048.07   1
  -5   2  -4  37385. 5600.98   1
   5  -2   4  42013. 6749.04   1
   5  -2   4  31813. 4792.18   1
   5  -2   4  34284. 6081.77   1
  -5   2  -5 165154.  29072.   1
  -5   2  -5 150101.  24062.   1
  -5   2  -5 192249.  33835.   1
  -5   2  -5 168973.  24893.   1
   5  -2   5 218805.  35093.   1
   5  -2   5 190406.  28039.   1
   5  -2   5 153359.  27028.   1
  -5   2  -6 7155.69 1406.42   1
  -5   2  -6 5520.10 912.154   1
  -5   2  -6 7274.76 1248.93   1
   5  -2   6 4077.73 670.410   1
   5  -2   6 4825.88 1040.66   1
   5  -2   6 6003.14 1162.21   1
  -5   2  -7 7050.09 1235.68   1
   5  -2   7 8571.10 1385.75   1
   5  -2   7 6937.76 1333.86   1
  -5   2  -8 1390.92 511.345   1
   5  -2   8 1820.26 319.703   1
   5  -2   8 1306.90 416.311   1
  -5   2  -9  13548. 2170.97   1
   5  -2   9  12381. 1995.95   1
   5  -2   9  11840. 2153.22   1
  -5   2 -10 4751.74 952.594   1
   5  -2  10 4729.27 776.903   1
   5  -2  10 4873.06 987.193   1
  -5   2 -11  895.08 594.922   1
   5  -2  11 1348.68 267.580   1
   5  -2  11 1058.19 405.302   1
  -5   2 -12  11593. 1960.01   1
   5  -2  12  20128. 3241.97   1
   5  -2  12  13828. 2567.96   1
   5  -1 -10 2826.33 498.539   1
   5  -1  -9  15817. 2549.99   1
   5  -1  -8  945.85 198.787   1
  -5   1   7  11031. 2046.50   1
  -5   1   7 8971.01 1637.83   1
   5  -1  -7  11090. 1789.93   1
  -5   1   6 1612.45 466.187   1
  -5   1   6 1245.34 644.798   1
   5  -1  -6 1077.96 210.739   1
  -5   1   5  18043. 3329.59   1
  -5   1   5  13449. 2433.16   1
  -5   1   5  13804. 2186.70   1
  -5   1   5  12330. 2128.28   1
   5  -1  -5  12712. 2046.28   1
   5  -1  -5  12139. 2282.63   1
  -5   1   4 8153.22 1565.26   1
  -5   1   4  11422. 2070.32   1
  -5   1   4 6865.87 1285.33   1
  -5   1   4 7661.19 1297.91   1
   5  -1  -4 6389.57 1044.71   1
   5  -1  -4 6614.24 1069.87   1
   5  -1  -4 7050.09 1352.28   1
  -5   1   3  39407. 6998.42   1
  -5   1   3  27949. 4962.92   1
  -5   1   3  31094. 4670.86   1
  -5   1   3  32914. 4938.21   1
   5  -1  -3  32015. 5142.66   1
   5  -1  -3  44552. 7155.69   1
   5  -1  -3  36576. 6492.92   1
   5  -1  -3  33521. 5955.96   1
  -5   1   2 258818.  45540.   1
  -5   1   2 315659.  50618.   1
  -5   1   2 324421.  57088.   1
  -5   1   2 294091.  43204.   1
  -5   1   2 301056.  44215.   1
   5  -1  -2 279263.  44754.   1
   5  -1  -2 292743.  46956.   1
   5  -1  -2 244889.  43091.   1
   5  -1  -2 253201.  44529.   1
  -5   1   1  44844. 7935.29   1
  -5   1   1  33476. 5374.07   1
  -5   1   1  29993. 5324.64   1
  -5   1   1  40822. 6079.53   1
  -5   1   1  53718. 7964.49   1
   5  -1  -1  41833. 6717.58   1
   5  -1  -1  38373. 6158.16   1
   5  -1  -1  37632. 6661.42   1
   5  -1  -1  56302. 9952.81   1
  -5   1   0 189395.  33341.   1
  -5   1   0 171400.  30173.   1
  -5   1   0 168838.  27073.   1
  -5   1   0 182273.  26803.   1
  -5   1   0 189822.  27926.   1
   5  -1   0 262413.  42080.   1
   5  -1   0 246461.  39519.   1
   5  -1   0 178522.  26264.   1
   5  -1   0 178971.  31521.   1
   5  -1   0 148955.  26219.   1
  -5   1  -1 201685.  35498.   1
  -5   1  -1 199011.  35026.   1
  -5   1  -1 200449.  32128.   1
  -5   1  -1 254325.  37385.   1
  -5   1  -1 260391.  38283.   1
   5  -1   1 161739.  25927.   1
   5  -1   1 242193.  38823.   1
   5  -1   1 199955.  29387.   1
   5  -1   1 157830.  27791.   1
  -5   1  -2  19822. 3540.77   1
  -5   1  -2  23006. 4104.69   1
  -5   1  -2  20762. 3165.58   1
  -5   1  -2  16565. 2664.57   1
   5  -1   2  19854. 3192.54   1
   5  -1   2  18160. 2752.19   1
   5  -1   2  18710. 3361.04   1
  -5   1  -3 391372.  68861.   1
  -5   1  -3 458324.  80566.   1
  -5   1  -3 475174.  69827.   1
  -5   1  -3 317906.  50977.   1
   5  -1   3 268254.  43002.   1
   5  -1   3 428892.  62997.   1
   5  -1   3 359245.  63199.   1
  -5   1  -4 432262.  76028.   1
  -5   1  -4 464839.  74545.   1
  -5   1  -4 465064.  81779.   1
  -5   1  -4 610873.  89755.   1
   5  -1   4 527297.  84588.   1
   5  -1   4 356998.  52483.   1
   5  -1   4 424623.  74657.   1
  -5   1  -5 5946.97 1144.46   1
  -5   1  -5 6452.48 1049.65   1
  -5   1  -5 5192.09 994.607   1
  -5   1  -5 7535.38 1264.43   1
   5  -1   5 5066.27 824.308   1
   5  -1   5 5845.87 1067.40   1
   5  -1   5 4913.50 949.898   1
  -5   1  -6 143586.  25298.   1
  -5   1  -6 150910.  24197.   1
  -5   1  -6 141047.  24848.   1
  -5   1  -6 156010.  22984.   1
   5  -1   6 266906.  42799.   1
   5  -1   6 122512.  18081.   1
   5  -1   6 142170.  25028.   1
  -5   1  -7 126196.  20234.   1
  -5   1  -7 233655.  41137.   1
  -5   1  -7 152258.  22435.   1
   5  -1   7 186924.  29971.   1
   5  -1   7 204381.  35969.   1
  -5   1  -8  32734. 4947.20   1
   5  -1   8  31454. 5052.79   1
   5  -1   8  22143. 3974.38   1
  -5   1  -9  53628. 7989.21   1
   5  -1   9  63604.  10204.   1
   5  -1   9  46506. 8236.34   1
  -5   1 -10  97192.  14359.   1
   5  -1  10  78724.  12626.   1
   5  -1  10  65783.  11618.   1
  -5   1 -11 2419.68 667.714   1
   5  -1  11 3015.05 508.425   1
   5  -1  11 1612.22 488.204   1
  -5   1 -12  29499. 4513.59   1
   5  -1  12  31004. 4983.15   1
   5  -1  12  54954. 9716.91   1
  -5   0  10  44282. 7115.25   1
   5   0 -10  37228. 5982.92   1
  -5   0   9  966.75 208.582   1
   5   0  -9  634.01 195.057   1
  -5   0   8 100966.  16194.   1
  -5   0   8  70658.  10611.   1
   5   0  -8  95372.  15295.   1
  -5   0   7  67603.  10847.   1
  -5   0   7  85531.  15093.   1
  -5   0   7  54729. 8209.38   1
   5   0  -7  80948.  12988.   1
  -5   0   6 2615.14 439.002   1
  -5   0   6 1678.27 446.191   1
  -5   0   6 2264.66 719.613   1
   5   0  -6 1869.24 325.544   1
  -5   0   5  89171.  15720.   1
  -5   0   5  60526. 9707.92   1
  -5   0   5  56145. 8400.35   1
  -5   0   5  57223. 8512.69   1
   5   0  -5  54976. 8827.22   1
  -5   0   4  64615.  11433.   1
  -5   0   4  57425.  10137.   1
  -5   0   4  60818. 9045.15   1
  -5   0   4  55628. 8270.04   1
   5   0  -4  65558.  10519.   1
   5   0  -4  59447. 9534.93   1
   5   0  -4  67625.  11950.   1
  -5   0   3  20065. 3612.67   1
  -5   0   3  26354. 4686.58   1
  -5   0   3  24601. 3702.54   1
  -5   0   3  23298. 3516.06   1
   5   0  -3  20490. 3295.89   1
   5   0  -3  21800. 3504.83   1
   5   0  -3  19656. 3525.05   1
   5   0  -3  21523. 3848.57   1
  -5   0   2  43249. 7661.19   1
  -5   0   2  71355.  12590.   1
  -5   0   2  39632. 5881.82   1
  -5   0   2  52797. 7829.69   1
   5   0  -2  41024. 6582.78   1
   5   0  -2  43743. 7016.39   1
   5   0  -2  49068. 8701.41   1
   5   0  -2  40957. 7252.30   1
  -5   0   1  16704. 2994.83   1
  -5   0   1 9476.51 1531.56   1
  -5   0   1  12483. 2269.15   1
  -5   0   1  10836. 1669.51   1
  -5   0   1  11132. 1736.46   1
   5   0  -1  10321. 1663.44   1
   5   0  -1 9265.33 1496.52   1
   5   0  -1 9521.45 1742.98   1
   5   0  -1  12692. 2316.33   1
  -5   0   0  32891. 5839.13   1
  -5   0   0  41474. 7342.16   1
  -5   0   0  34015. 5457.20   1
  -5   0   0  37070. 5502.13   1
  -5   0   0  34779. 5185.35   1
   5   0   0  33386. 5362.83   1
   5   0   0  32465. 5207.81   1
   5   0   0  35992. 5335.87   1
   5   0   0  32757. 5814.42   1
   5   0   0  30510. 5410.02   1
  -5   0  -1  14696. 2644.35   1
  -5   0  -1  14181. 2556.73   1
  -5   0  -1  14264. 2199.73   1
  -5   0  -1  12433. 2003.59   1
   5   0   1  16354. 2628.62   1
   5   0   1  11078. 1785.22   1
   5   0   1  18254. 2754.43   1
   5   0   1  14073. 2529.77   1
   5   0   1  15176. 2740.95   1
  -5   0  -2  46731. 8272.29   1
  -5   0  -2  51898. 8328.46   1
  -5   0  -2  73107.  12891.   1
  -5   0  -2  72208.  10685.   1
   5   0   2  75174.  12056.   1
   5   0   2  49090. 7272.52   1
   5   0   2  58279.  10317.   1
  -5   0  -3  47922. 8476.74   1
  -5   0  -3  45675. 7324.19   1
  -5   0  -3  40890. 7247.80   1
  -5   0  -3  65850. 9766.33   1
   5   0   3  33970. 5454.95   1
   5   0   3  40867. 6077.28   1
   5   0   3  56931.  10076.   1
  -5   0  -4  30577. 5430.24   1
  -5   0  -4  22420. 3601.43   1
  -5   0  -4  21366. 3819.36   1
  -5   0  -4  21373. 3262.19   1
   5   0   4  25702. 4127.16   1
   5   0   4  19290. 2927.43   1
   5   0   4  17585. 3163.33   1
  -5   0  -5 176118.  31004.   1
  -5   0  -5 207122.  33206.   1
  -5   0  -5 226466.  39856.   1
  -5   0  -5 336553.  49472.   1
   5   0   5 324421.  52056.   1
   5   0   5 199483.  29364.   1
   5   0   5 236800.  41676.   1
  -5   0  -6  22624. 4039.54   1
  -5   0  -6  27365. 4394.51   1
  -5   0  -6  25365. 4529.31   1
  -5   0  -6  27365. 4131.65   1
   5   0   6  46259. 7420.80   1
   5   0   6  24938. 3794.65   1
   5   0   6  33565. 5953.71   1
  -5   0  -7  63918.  11301.   1
  -5   0  -7  56122. 9009.20   1
  -5   0  -7  48978. 7306.22   1
   5   0   7  47428. 7607.27   1
   5   0   7  45967. 6888.33   1
   5   0   7  52864. 9346.21   1
  -5   0  -8 122444.  18063.   1
   5   0   8 152370.  24421.   1
   5   0   8 187216.  32959.   1
  -5   0  -9  37609. 5659.40   1
   5   0   9  21865. 3513.81   1
   5   0   9  25185. 4502.35   1
  -5   0 -10  59425. 8820.48   1
   5   0  10  54527. 8757.57   1
   5   0  10  61020.  10780.   1
  -5   0 -11 171467.  25230.   1
   5   0  11 129701.  20793.   1
   5   0  11 150168.  26466.   1
  -5   0 -12  10865. 1836.66   1
   5   0  12 5495.39 904.066   1
   5   0  12  14588. 2671.31   1
  -5   0 -13  21119. 3300.38   1
   5   0  13  32510. 5787.46   1
  -5  -1  10  16594. 2673.55   1
   5   1 -10  15199. 2451.13   1
  -5  -1   9  79263.  12718.   1
   5   1  -9  63042.  10117.   1
  -5  -1   8 3127.38 523.702   1
  -5  -1   8 3250.95 720.062   1
  -5  -1   8 2909.46 1364.19   1
   5   1  -8 3873.28 642.552   1
  -5  -1   7  62952.  10099.   1
  -5  -1   7  69288.  12229.   1
  -5  -1   7  65783. 9829.24   1
   5   1  -7  87441.  14022.   1
  -5  -1   6 199236.  35071.   1
  -5  -1   6 164008.  26309.   1
  -5  -1   6 174904.  25814.   1
  -5  -1   6 165356.  24377.   1
   5   1  -6 172815.  27724.   1
  -5  -1   5 4985.39 961.356   1
  -5  -1   5 5634.68 915.524   1
  -5  -1   5 5025.83 1071.67   1
  -5  -1   5 4769.71 924.735   1
   5   1  -5 6234.55 1009.66   1
  -5  -1   4 176814.  31162.   1
  -5  -1   4 165333.  26511.   1
  -5  -1   4 160908.  28331.   1
  -5  -1   4 156055.  22984.   1
  -5  -1   4 221613.  32599.   1
   5   1  -4 139923.  22435.   1
   5   1  -4 145158.  23276.   1
   5   1  -4 195619.  34442.   1
  -5  -1   3 234778.  41317.   1
  -5  -1   3 248259.  39811.   1
  -5  -1   3 215861.  37991.   1
  -5  -1   3 195754.  28780.   1
  -5  -1   3 206021.  30285.   1
   5   1  -3 224197.  39452.   1
   5   1  -3 192608.  33925.   1
  -5  -1   2 2149.18 553.134   1
  -5  -1   2 2426.42 529.993   1
  -5  -1   2 1516.06 345.315   1
  -5  -1   2 1592.00 381.936   1
   5   1  -2 2527.52 419.905   1
   5   1  -2 1985.39 340.822   1
   5   1  -2 2493.82 557.627   1
   5   1  -2 2383.73 540.103   1
  -5  -1   1 382386.  67266.   1
  -5  -1   1 467310.  82161.   1
  -5  -1   1 349584.  51337.   1
  -5  -1   1 374522.  55021.   1
   5   1  -1 385756.  61829.   1
   5   1  -1 310267.  49764.   1
   5   1  -1 328241.  57717.   1
   5   1  -1 346888.  61020.   1
  -5  -1   0 443495.  78005.   1
  -5  -1   0 401258.  70591.   1
  -5  -1   0 454055.  72793.   1
  -5  -1   0 513592.  75376.   1
  -5  -1   0 577622.  84790.   1
   5   1   0 371826.  59582.   1
   5   1   0 477870.  76612.   1
   5   1   0 494720.  72613.   1
   5   1   0 641204. 112739.   1
   5   1   0 435857.  76702.   1
  -5  -1  -1  29027. 5165.13   1
  -5  -1  -1  25657. 4120.42   1
  -5  -1  -1  34846. 6176.13   1
  -5  -1  -1  28713. 4302.40   1
   5   1   1  28713. 4610.20   1
   5   1   1  23253. 3731.74   1
   5   1   1  23208. 3464.39   1
   5   1   1  23770. 4243.99   1
   5   1   1  18964. 3388.00   1
  -5  -1  -2 213368.  37542.   1
  -5  -1  -2 211997.  33992.   1
  -5  -1  -2 194361.  34217.   1
  -5  -1  -2 186879.  27499.   1
   5   1   2 124848.  20025.   1
   5   1   2 159222.  23410.   1
   5   1   2 170636.  30038.   1
  -5  -1  -3  30667. 5457.20   1
  -5  -1  -3  49517. 7935.29   1
  -5  -1  -3  35318. 6263.75   1
  -5  -1  -3  30667. 4605.70   1
   5   1   3  28960. 4650.64   1
   5   1   3  31858. 4745.00   1
   5   1   3  34284. 6099.75   1
  -5  -1  -4  10204. 1868.12   1
  -5  -1  -4  16545. 2657.83   1
  -5  -1  -4  16810. 3026.28   1
  -5  -1  -4  16632. 2567.96   1
   5   1   4  15933. 2561.22   1
   5   1   4  13350. 2064.25   1
   5   1   4  12851. 2343.29   1
  -5  -1  -5  45203. 7995.95   1
  -5  -1  -5  50595. 8108.28   1
  -5  -1  -5  40081. 7106.26   1
  -5  -1  -5  40508. 6057.06   1
   5   1   5  36688. 5888.56   1
   5   1   5  42979. 6407.54   1
   5   1   5  38868. 6899.57   1
  -5  -1  -6  30532. 5425.74   1
  -5  -1  -6  32622. 5232.53   1
  -5  -1  -6  27365. 4879.80   1
  -5  -1  -6  25320. 3835.09   1
   5   1   6  16093. 2585.93   1
   5   1   6  28488. 4324.87   1
   5   1   6  24129. 4311.39   1
  -5  -1  -7 3015.05 719.613   1
  -5  -1  -7 3268.93 547.292   1
  -5  -1  -7 3423.95 710.626   1
  -5  -1  -7 3248.71 661.648   1
   5   1   7 4035.04 659.177   1
   5   1   7 3675.58 922.039   1
   5   1   7 3329.59 703.437   1
  -5  -1  -8  15367. 2478.09   1
  -5  -1  -8  10209. 1889.46   1
  -5  -1  -8  10135. 1651.31   1
   5   1   8  11968. 1930.13   1
   5   1   8  14284. 2588.18   1
  -5  -1  -9  19027. 2920.69   1
   5   1   9  23388. 3758.70   1
   5   1   9  16875. 3046.50   1
  -5  -1 -10  18636. 2880.25   1
   5   1  10  27634. 4439.45   1
   5   1  10  19106. 3426.19   1
  -5  -1 -11  12739. 2032.13   1
   5   1  11  21512. 3457.65   1
   5   1  11  19065. 3444.17   1
  -5  -1 -12  44619. 6663.66   1
   5   1  12  40148. 6450.23   1
   5   1  12  52505. 9310.26   1
  -5  -1 -13  32936. 5001.12   1
   5   1  13  31566. 5643.67   1
   5   2  -9 6171.64 1012.36   1
  -5  -2   8  478.99 138.800   1
  -5  -2   8  620.98 364.637   1
   5   2  -8  659.63 163.671   1
  -5  -2   7 8687.93 1402.83   1
  -5  -2   7  13786. 2498.31   1
  -5  -2   7 5138.17 1013.25   1
   5   2  -7 6301.95 1024.94   1
  -5  -2   6 7366.88 1192.09   1
  -5  -2   6 6232.30 1180.63   1
   5   2  -6 5219.05 854.189   1
  -5  -2   5  15066. 2424.17   1
  -5  -2   5  18560. 3322.85   1
   5   2  -5  17583. 2830.82   1
  -5  -2   4  38688. 6207.59   1
  -5  -2   4  41024. 7297.23   1
  -5  -2   4  55268. 9766.33   1
   5   2  -4  38733. 6216.57   1
   5   2  -4  49494. 7942.03   1
   5   2  -4  46709. 8285.77   1
  -5  -2   3 6960.23 1126.26   1
  -5  -2   3  13004. 2397.21   1
  -5  -2   3 6895.07 1283.98   1
   5   2  -3 8200.40 1326.67   1
   5   2  -3 7780.27 1259.49   1
   5   2  -3 6279.48 1212.98   1
   5   2  -3 5996.40 1154.35   1
  -5  -2   2 248034.  39766.   1
  -5  -2   2 212312.  37385.   1
  -5  -2   2 316333.  55628.   1
   5   2  -2 269153.  43136.   1
   5   2  -2 212649.  34082.   1
   5   2  -2 214918.  37812.   1
   5   2  -2 198472.  34958.   1
  -5  -2   1 104718.  18454.   1
  -5  -2   1 145787.  25680.   1
  -5  -2   1 113727.  16796.   1
  -5  -2   1 116760.  17232.   1
   5   2  -1 119389.  19155.   1
   5   2  -1 125927.  20195.   1
   5   2  -1 162637.  28623.   1
   5   2  -1 127454.  22458.   1
  -5  -2   0 190114.  33476.   1
  -5  -2   0 176230.  31027.   1
  -5  -2   0 202471.  29746.   1
  -5  -2   0 164008.  24107.   1
   5   2   0 170703.  27365.   1
   5   2   0 179959.  28847.   1
   5   2   0 175691.  30914.   1
   5   2   0 233880.  34374.   1
   5   2   0 157470.  27747.   1
  -5  -2  -1 536508.  94293.   1
  -5  -2  -1 499887.  80207.   1
  -5  -2  -1 526623.  77353.   1
   5   2   1 535834.  94203.   1
   5   2   1 575825.  84498.   1
   5   2   1 518759.  91193.   1
  -5  -2  -2  67086.  11854.   1
  -5  -2  -2  88519.  14204.   1
  -5  -2  -2  55336. 9779.82   1
  -5  -2  -2  82094.  12125.   1
   5   2   2  69378.  11130.   1
   5   2   2  79510.  12757.   1
   5   2   2  98674.  14529.   1
   5   2   2  80544.  14204.   1
   5   2   2  92518.  16333.   1
  -5  -2  -3  88722.  14233.   1
  -5  -2  -3 103100.  15210.   1
   5   2   3 101752.  16315.   1
   5   2   3  82543.  12170.   1
   5   2   3  95170.  16792.   1
  -5  -2  -4 214918.  37812.   1
  -5  -2  -4 428667.  68749.   1
  -5  -2  -4 414289.  60840.   1
   5   2   4 407773.  65379.   1
   5   2   4 414289.  60818.   1
   5   2   4 391148.  68816.   1
  -5  -2  -5  47450. 8393.61   1
  -5  -2  -5  33318. 5347.11   1
  -5  -2  -5  46574. 8247.58   1
  -5  -2  -5  41721. 6227.81   1
   5   2   5  34824. 5587.50   1
   5   2   5  43923. 6555.82   1
   5   2   5  37969. 6746.79   1
  -5  -2  -6 109908.  19364.   1
  -5  -2  -6  73556.  11800.   1
  -5  -2  -6  91597.  16156.   1
  -5  -2  -6  76679.  11352.   1
   5   2   6  92766.  14882.   1
   5   2   6  86250.  12781.   1
   5   2   6  90699.  16005.   1
  -5  -2  -7 136329.  24017.   1
  -5  -2  -7 171287.  27477.   1
  -5  -2  -7 152033.  26780.   1
  -5  -2  -7 121501.  17922.   1
   5   2   7 127162.  20398.   1
   5   2   7 185037.  27275.   1
   5   2   7 141541.  24938.   1
  -5  -2  -8  22026. 3543.02   1
  -5  -2  -8  28376. 5061.78   1
  -5  -2  -8  27926. 4217.03   1
   5   2   8  26466. 4248.48   1
   5   2   8  22098. 3956.41   1
  -5  -2  -9  35138. 6236.79   1
  -5  -2  -9  42193. 6308.69   1
   5   2   9  61559. 9883.16   1
   5   2   9  33161. 5904.29   1
  -5  -2 -10  51494. 9101.32   1
  -5  -2 -10  54684. 8128.50   1
   5   2  10  69198.  11101.   1
   5   2  10  44866. 7948.77   1
  -5  -2 -11 1949.22 483.936   1
  -5  -2 -11 2269.15 546.169   1
   5   2  11 1981.80 354.751   1
   5   2  11 2705.01 645.472   1
  -5  -2 -12 3621.65 778.027   1
  -5  -2 -12 4088.97 869.017   1
   5   2  12 3095.93 536.284   1
   5   2  12 3727.25 863.625   1
  -5  -2 -13 5241.51 1088.29   1
  -5  -2 -13 5789.70 1102.67   1
   5   2  13 5423.50 1153.45   1
  -5  -3   9 3158.84 540.328   1
  -5  -3   9 2462.37 645.023   1
   5   3  -9 3277.91 564.142   1
  -5  -3   8  48461. 7775.77   1
  -5  -3   8  48843. 8647.49   1
   5   3  -8  49337. 7924.05   1
  -5  -3   7 137093.  21982.   1
  -5  -3   7  95417.  16821.   1
   5   3  -7  99011.  15880.   1
  -5  -3   6  408.22 116.805   1
  -5  -3   6 1183.33 360.143   1
   5   3  -6  396.32 123.433   1
  -5  -3   5  41294. 6625.47   1
  -5  -3   5  36958. 6551.33   1
   5   3  -5  49000. 7863.39   1
  -5  -3   4  14684. 2363.51   1
  -5  -3   4  10341. 1891.26   1
   5   3  -4  14323. 2302.85   1
   5   3  -4  14228. 2296.11   1
  -5  -3   3  15430. 2482.59   1
  -5  -3   3  11373. 2126.26   1
  -5  -3   3 9263.08 1698.27   1
   5   3  -3  11332. 1824.53   1
   5   3  -3  11411. 1838.91   1
   5   3  -3  11384. 2086.94   1
   5   3  -3  11281. 2080.43   1
  -5  -3   2  76994.  12350.   1
  -5  -3   2  81263.  14329.   1
  -5  -3   2  70726.  12501.   1
   5   3  -2  69917.  11215.   1
   5   3  -2  85172.  13658.   1
   5   3  -2  79780.  14075.   1
   5   3  -2  81263.  14356.   1
  -5  -3   1 6191.86 1165.35   1
  -5  -3   1 5436.98 1070.54   1
   5   3  -1 5517.86 891.260   1
   5   3  -1 7458.99 1203.32   1
   5   3  -1 4794.42 936.418   1
   5   3  -1 6430.01 1238.37   1
  -5  -3   0  60166.  10625.   1
  -5  -3   0  41114. 7290.49   1
   5   3   0  43383. 6957.98   1
   5   3   0  44327. 7108.51   1
   5   3   0  42889. 7587.05   1
   5   3   0  45787. 8110.53   1
  -5  -3  -1  23590. 4205.79   1
  -5  -3  -1  22692. 4053.02   1
  -5  -3  -1  20508. 3055.49   1
   5   3   1  34217. 5488.65   1
   5   3   1  23837. 3823.86   1
   5   3   1  30712. 5452.70   1
   5   3   1  24938. 3695.80   1
   5   3   1  23410. 4203.55   1
  -5  -3  -2  34734. 6160.41   1
  -5  -3  -2  36037. 6389.57   1
  -5  -3  -2  32554. 4837.11   1
  -5  -3  -2  38014. 6097.50   1
   5   3   2  26758. 4293.41   1
   5   3   2  37430. 6000.89   1
   5   3   2  51449. 7598.29   1
   5   3   2  34801. 6169.39   1
   5   3   2  36239. 6441.24   1
  -5  -3  -3  35116. 6227.81   1
  -5  -3  -3  37789. 6061.55   1
  -5  -3  -3  38508. 6820.93   1
  -5  -3  -3  32105. 4801.16   1
   5   3   3  37407. 6003.14   1
   5   3   3  45900. 7355.64   1
   5   3   3  40261. 5989.66   1
   5   3   3  35385. 6283.98   1
  -5  -3  -4  933.27 324.196   1
  -5  -3  -4  681.87 318.355   1
  -5  -3  -4  807.46 361.042   1
  -5  -3  -4 1449.79 243.316   1
   5   3   4 1425.30 234.778   1
   5   3   4  818.47 472.927   1
   5   3   4  948.77 357.897   1
  -5  -3  -5 212986.  37497.   1
  -5  -3  -5 179892.  28847.   1
  -5  -3  -5 200090.  35206.   1
  -5  -3  -5 156594.  23073.   1
   5   3   5 219905.  35250.   1
   5   3   5 204853.  30150.   1
   5   3   5 149899.  26399.   1
  -5  -3  -6  57246.  10110.   1
  -5  -3  -6  72500.  11624.   1
  -5  -3  -6  90182.  15904.   1
  -5  -3  -6  76073.  11247.   1
   5   3   6 144417.  23163.   1
   5   3   6  79285.  11777.   1
   5   3   6  87059.  15367.   1
  -5  -3  -7  25185. 4493.37   1
  -5  -3  -7  24579. 3949.67   1
  -5  -3  -7  20710. 3725.00   1
  -5  -3  -7  17165. 2635.36   1
   5   3   7  36396. 5834.64   1
   5   3   7  19054. 3033.02   1
   5   3   7  19692. 3538.53   1
  -5  -3  -8 155808.  24983.   1
  -5  -3  -8 304201.  53538.   1
  -5  -3  -8 174433.  25680.   1
   5   3   8 193058.  30959.   1
   5   3   8 233206.  41069.   1
  -5  -3  -9  69962.  12361.   1
  -5  -3  -9  71445.  10584.   1
   5   3   9  77803.  12480.   1
   5   3   9  78252.  13819.   1
  -5  -3 -10  14898. 2682.54   1
  -5  -3 -10  18967. 2904.96   1
   5   3  10  32083. 5151.65   1
   5   3  10  22557. 4032.80   1
  -5  -3 -11 125028.  22024.   1
  -5  -3 -11  96742.  14280.   1
   5   3  11 152775.  24511.   1
   5   3  11  96248.  16980.   1
  -5  -3 -12  28061. 5019.09   1
  -5  -3 -12  31049. 4657.38   1
   5   3  12  30757. 4947.20   1
   5   3  12  17405. 3179.06   1
  -5  -3 -13  11492. 2153.67   1
  -5  -3 -13  17850. 2779.15   1
   5   3  13  24197. 4372.05   1
  -5  -4   9  50124. 8885.63   1
   5   4  -9  70860.  11370.   1
  -5  -4   8  14507. 2639.85   1
   5   4  -8  21860. 3518.31   1
  -5  -4   7  38620. 6205.34   1
  -5  -4   7  31521. 5598.74   1
   5   4  -7  36823. 5915.52   1
  -5  -4   6 172792.  27702.   1
  -5  -4   6 139699.  24601.   1
   5   4  -6 163985.  26286.   1
  -5  -4   5  63087.  10124.   1
  -5  -4   5  56190. 9923.60   1
   5   4  -5  67288.  10798.   1
  -5  -4   4 110312.  17697.   1
  -5  -4   4 135700.  23905.   1
   5   4  -4  88969.  14275.   1
   5   4  -4 119928.  19232.   1
  -5  -4   3 245787.  39407.   1
  -5  -4   3 291170.  51247.   1
  -5  -4   3 286228.  50393.   1
   5   4  -3 252078.  40395.   1
   5   4  -3 253875.  40687.   1
   5   4  -3 277241.  48753.   1
   5   4  -3 259043.  45563.   1
  -5  -4   2  38845. 6234.55   1
  -5  -4   2  44911. 7984.71   1
  -5  -4   2  46709. 8263.30   1
   5   4  -2  38014. 6104.24   1
   5   4  -2  38755. 6218.82   1
   5   4  -2  45383. 8058.85   1
   5   4  -2  36149. 6430.01   1
  -5  -4   1 107302.  17216.   1
   5   4  -1 109953.  17639.   1
   5   4  -1 112649.  18059.   1
   5   4  -1 186362.  32824.   1
   5   4  -1 103145.  18203.   1
  -5  -4   0 253651.  44619.   1
  -5  -4   0 295664.  51988.   1
   5   4   0 306448.  49135.   1
   5   4   0 231184.  37070.   1
   5   4   0 225567.  39721.   1
   5   4   0 206178.  36284.   1
  -5  -4  -1  69445.  12262.   1
  -5  -4  -1  49876. 8822.73   1
  -5  -4  -1  52280. 7712.87   1
   5   4   1  38418. 6160.41   1
   5   4   1  45001. 7218.60   1
   5   4   1  38149. 6782.74   1
   5   4   1  45787. 6760.27   1
   5   4   1  48394. 8564.36   1
  -5  -4  -2  78252.  13810.   1
  -5  -4  -2  68614.  12105.   1
  -5  -4  -2  72725.  10721.   1
   5   4   2  71849.  12683.   1
   5   4   2  80499.  14224.   1
   5   4   2  82274.  12128.   1
  -5  -4  -3 106605.  18778.   1
  -5  -4  -3 115794.  20398.   1
  -5  -4  -3 108560.  15996.   1
   5   4   3 105549.  18607.   1
   5   4   3 114334.  20164.   1
   5   4   3 126893.  18695.   1
  -5  -4  -4 7209.61 1193.44   1
   5   4   4 6418.78 1227.81   1
   5   4   4 9712.42 1593.35   1
  -5  -4  -5  23792. 4241.74   1
  -5  -4  -5  28016. 4495.61   1
  -5  -4  -5  25657. 4576.50   1
  -5  -4  -5  22152. 3354.30   1
   5   4   5  25365. 4068.74   1
   5   4   5  28915. 4639.40   1
   5   4   5  31993. 4857.33   1
   5   4   5  28488. 5077.51   1
  -5  -4  -6 7638.73 1452.48   1
  -5  -4  -6 6908.55 1113.91   1
  -5  -4  -6 6326.66 1192.76   1
  -5  -4  -6 4578.74 818.018   1
   5   4   6 5960.45 959.559   1
   5   4   6 6953.49 1380.59   1
   5   4   6 6650.18 1272.75   1
  -5  -4  -7 6681.64 1318.35   1
  -5  -4  -7 8764.31 1413.84   1
  -5  -4  -7 8153.22 1502.58   1
  -5  -4  -7 7099.52 1173.22   1
   5   4   7 8225.11 1323.97   1
   5   4   7 6948.99 1499.44   1
   5   4   7 9406.87 1741.85   1
  -5  -4  -8  887.89 218.490   1
  -5  -4  -8 2102.45 524.376   1
  -5  -4  -8 1772.86 469.782   1
   5   4   8 1478.09 256.122   1
   5   4   8 3794.65 802.965   1
  -5  -4  -9  21894. 3927.20   1
  -5  -4  -9  17783. 2722.98   1
   5   4   9  27095. 4351.83   1
   5   4   9  19991. 3590.20   1
  -5  -4 -10  46731. 8279.03   1
  -5  -4 -10  46551. 6928.77   1
   5   4  10  39834. 6394.06   1
   5   4  10  44170. 7834.19   1
  -5  -4 -11 1077.51 412.491   1
  -5  -4 -11  939.79 403.055   1
   5   4  11  761.18 226.690   1
   5   4  11  733.09 457.650   1
  -5  -4 -12  37609. 6688.38   1
  -5  -4 -12  40530. 6075.03   1
   5   4  12  37295. 5996.40   1
   5   4  12  16769. 3084.70   1
  -5  -4 -13  61874. 9195.68   1
  -5  -5   8 5576.27 1106.04   1
   5   5  -8 6194.11 1022.92   1
  -5  -5   7  19052. 3421.70   1
   5   5  -7  18906. 3042.01   1
  -5  -5   6  434.06 132.667   1
  -5  -5   6  740.73 338.126   1
   5   5  -6  608.18 170.950   1
  -5  -5   5  56122. 8997.97   1
  -5  -5   5  44013. 7787.01   1
   5   5  -5  40418. 6488.42   1
  -5  -5   4  23253. 3733.99   1
  -5  -5   4  26129. 4643.90   1
   5   5  -4  29993. 4814.64   1
  -5  -5   3  19533. 3138.62   1
  -5  -5   3  35183. 6243.54   1
   5   5  -3  19870. 3197.03   1
   5   5  -3  19157. 3080.20   1
   5   5  -3  19620. 3540.77   1
  -5  -5   2 223410.  35812.   1
  -5  -5   2 230510.  40598.   1
  -5  -5   2 223433.  39317.   1
   5   5  -2 212424.  34060.   1
   5   5  -2 223365.  35812.   1
   5   5  -2 219793.  38688.   1
   5   5  -2 229836.  40463.   1
  -5  -5   1 132285.  21215.   1
  -5  -5   1 180544.  31768.   1
  -5  -5   1 145922.  25725.   1
   5   5  -1 162413.  26039.   1
   5   5  -1 177218.  28421.   1
   5   5  -1 172792.  30443.   1
   5   5  -1 169153.  29791.   1
  -5  -5   0  13042. 2343.29   1
  -5  -5   0  12770. 2354.52   1
   5   5   0  10816. 1737.14   1
   5   5   0  12294. 1975.06   1
   5   5   0  12936. 2379.24   1
   5   5   0  23792. 4268.70   1
  -5  -5  -1 221074.  38913.   1
  -5  -5  -1 184453.  32465.   1
   5   5   1 249157.  43833.   1
   5   5   1 230510.  40553.   1
   5   5   1 253875.  37475.   1
   5   5   1 316782.  46753.   1
  -5  -5  -2 179735.  31656.   1
  -5  -5  -2 215322.  37902.   1
  -5  -5  -2 190339.  27971.   1
   5   5   2 152145.  26803.   1
   5   5   2 228038.  40148.   1
   5   5   2 191350.  28151.   1
  -5  -5  -3  45316. 8022.91   1
  -5  -5  -3  35767. 6346.88   1
  -5  -5  -3  35835. 5331.38   1
   5   5   3  35992. 6396.31   1
   5   5   3  63267.  11193.   1
   5   5   3  48461. 7220.84   1
  -5  -5  -4 291170.  51202.   1
  -5  -5  -4 221613.  39002.   1
  -5  -5  -4 274545.  40350.   1
   5   5   4 270501.  47585.   1
   5   5   4 293642.  43181.   1
  -5  -5  -5  58301.  10297.   1
  -5  -5  -5  56234. 9950.56   1
  -5  -5  -5  38059. 5681.86   1
   5   5   5  62166.  10993.   1
   5   5   5  33363. 5082.00   1
  -5  -5  -6 5466.18 1111.43   1
  -5  -5  -6 5866.09 1133.90   1
  -5  -5  -6 4774.20 851.493   1
   5   5   6 7378.11 1398.56   1
   5   5   6 4385.53 1292.07   1
  -5  -5  -7 141698.  24961.   1
  -5  -5  -7  82251.  12152.   1
   5   5   7 115367.  20339.   1
  -5  -5  -8  24107. 3871.04   1
  -5  -5  -8  24489. 3936.19   1
  -5  -5  -8  24736. 3736.24   1
  -5  -5  -8  28690. 5099.97   1
   5   5   8  19903. 3197.03   1
   5   5   8  19569. 3522.80   1
  -5  -5  -9  10885. 1756.68   1
  -5  -5  -9 9680.96 1782.52   1
  -5  -5  -9  12451. 1950.35   1
   5   5   9  12813. 2063.35   1
   5   5   9  11858. 2179.28   1
  -5  -5 -10  19908. 3206.02   1
  -5  -5 -10  16607. 2988.09   1
  -5  -5 -10  21254. 3221.74   1
   5   5  10  20620. 3320.60   1
   5   5  10  28398. 5077.51   1
  -5  -5 -11 3033.02 745.450   1
  -5  -5 -11 3738.48 744.102   1
   5   5  11 2848.80 526.398   1
   5   5  11  223.81 544.596   1
  -5  -5 -12 5398.78 1155.69   1
  -5  -5 -12 6515.38 1179.73   1
  -5  -6   8  14860. 2689.28   1
  -5  -6   7  64255.  11341.   1
   5   6  -7  45698. 7339.92   1
  -5  -6   6 3543.02 721.635   1
   5   6  -6 2098.85 386.879   1
  -5  -6   5  26084. 4187.82   1
  -5  -6   5  26556. 4724.78   1
   5   6  -5  23500. 3778.92   1
  -5  -6   4  19164. 3082.45   1
  -5  -6   4  18153. 3239.72   1
   5   6  -4  17461. 2808.35   1
  -5  -6   3 1926.98 330.263   1
  -5  -6   3 1470.23 388.002   1
   5   6  -3 1932.60 330.937   1
  -5  -6   2  23860. 3832.84   1
  -5  -6   2  44956. 7957.75   1
   5   6  -2  30892. 4962.92   1
   5   6  -2  20914. 3358.79   1
   5   6  -2  34082. 6077.28   1
  -5  -6   1  10854. 1745.67   1
  -5  -6   1 9683.21 1770.39   1
   5   6  -1 9213.65 1483.04   1
   5   6  -1 9728.14 1568.19   1
   5   6  -1  12222. 2253.42   1
  -5  -6   0  71130.  12590.   1
  -5  -6   0  71467.  12608.   1
   5   6   0  88227.  15572.   1
   5   6   0  95866.  16920.   1
  -5  -6  -1  14275. 2563.47   1
  -5  -6  -1 8759.82 1675.35   1
   5   6   1  12449. 1895.75   1
   5   6   1 7438.77 1131.43   1
  -5  -6  -2 102561.  15116.   1
   5   6   2  89890.  15864.   1
   5   6   2  82341.  14547.   1
   5   6   2 102808.  15172.   1
   5   6   2  91642.  13500.   1
  -5  -6  -3  72500.  12804.   1
  -5  -6  -3 103010.  18164.   1
  -5  -6  -3  88811.  13118.   1
   5   6   3  61447.  10872.   1
   5   6   3  91013.  16068.   1
   5   6   3  84251.  12510.   1
  -5  -6  -4  14493. 2621.88   1
  -5  -6  -4  15823. 2875.76   1
  -5  -6  -4  17457. 2662.32   1
   5   6   4  15215. 2763.42   1
   5   6   4  16284. 2693.77   1
  -5  -6  -5 140845.  24826.   1
  -5  -6  -5 124534.  21937.   1
  -5  -6  -5 125028.  18423.   1
   5   6   5 140890.  24826.   1
   5   6   5 105706.  15718.   1
  -5  -6  -6  92698.  16340.   1
  -5  -6  -6  86160.  12718.   1
   5   6   6  72568.  12831.   1
  -5  -6  -7  553.58 340.373   1
  -5  -6  -7  300.61 333.633   1
   5   6   7  451.36 317.232   1
  -5  -6  -8 105841.  18647.   1
  -5  -6  -8 121635.  17929.   1
   5   6   8  76612.  13532.   1
  -5  -6  -9  68951.  11067.   1
  -5  -6  -9 178342.  31409.   1
  -5  -6  -9 125612.  18517.   1
   5   6   9 147360.  25972.   1
  -5  -6 -10 3109.41 743.877   1
  -5  -6 -10 2332.06 563.244   1
  -5  -6 -11  37048. 6618.73   1
  -5  -6 -11  69670.  10328.   1
  -5  -6 -12  39699. 5962.70   1
  -5  -7   7 9352.95 1732.42   1
  -5  -7   6  93642.  16511.   1
   5   7  -6 162682.  26106.   1
  -5  -7   5  62413.  11022.   1
   5   7  -5  42979. 6899.57   1
  -5  -7   4 8180.18 1326.22   1
  -5  -7   4 7382.60 1374.75   1
   5   7  -4 8512.69 1385.31   1
  -5  -7   3 112828.  18104.   1
  -5  -7   3 119411.  21024.   1
   5   7  -3  98899.  15873.   1
  -5  -7   2  55942. 8977.75   1
  -5  -7   2  74073.  13064.   1
   5   7  -2  75534.  12112.   1
   5   7  -2  78746.  13916.   1
  -5  -7   1  27657. 4437.20   1
  -5  -7   1  29274. 5207.81   1
   5   7  -1  32824. 5266.23   1
   5   7  -1  28847. 4630.42   1
   5   7  -1  33116. 5899.79   1
  -5  -7   0  53336. 9436.07   1
   5   7   0  56886.  10072.   1
  -5  -7  -1 6991.68 1309.59   1
   5   7   1 7530.88 1446.64   1
   5   7   1 8815.99 1494.04   1
   5   7   1 6477.19 1011.68   1
  -5  -7  -2 5753.76 1077.29   1
   5   7   2 5149.40 1028.08   1
   5   7   2 5684.11 1271.85   1
   5   7   2 5742.52 976.858   1
  -5  -7  -3  44574. 7883.61   1
  -5  -7  -3  63716. 9438.32   1
   5   7   3  89440.  15794.   1
   5   7   3  42440. 6470.45   1
   5   7   3  54662. 8092.56   1
  -5  -7  -4 6117.72 1170.97   1
  -5  -7  -4 7798.24 1307.57   1
   5   7   4 7744.32 1483.71   1
   5   7   4 4612.44 1385.53   1
  -5  -7  -5 3102.67 662.547   1
  -5  -7  -5 2900.47 605.931   1
   5   7   5 1936.19 521.905   1
  -5  -7  -6 1831.05 450.235   1
  -5  -7  -6 2115.93 541.900   1
   5   7   6 3055.49 707.481   1
  -5  -7  -7  45585. 8079.08   1
  -5  -7  -7  36419. 5452.70   1
   5   7   7  45495. 8088.06   1
  -5  -7  -8  21523. 3868.79   1
  -5  -7  -8  10840. 1745.45   1
   5   7   8  12757. 2363.51   1
  -5  -7  -9  14624. 2664.57   1
  -5  -7  -9  16821. 2585.93   1
  -5  -7 -10  61065.  10829.   1
  -5  -7 -10  62435. 9263.08   1
  -5  -7 -11 7766.79 1387.78   1
  -5  -8   6  920.24 494.720   1
  -5  -8   5  39317. 6966.97   1
  -5  -8   4  81015.  14291.   1
   5   8  -4  58324. 9366.42   1
  -5  -8   3 1879.13 353.179   1
  -5  -8   3 2128.96 488.654   1
   5   8  -3 1631.77 338.126   1
  -5  -8   2 113592.  18216.   1
  -5  -8   2 132307.  23298.   1
   5   8  -2  95978.  15401.   1
  -5  -8   1 112199.  19771.   1
   5   8  -1 135116.  23815.   1
  -5  -8   0  767.69 308.245   1
   5   8   0 1342.17 461.918   1
  -5  -8  -1 200427.  35273.   1
   5   8   1 139631.  24624.   1
   5   8   1 123073.  18149.   1
   5   8   1 105482.  15628.   1
  -5  -8  -2 135295.  23815.   1
   5   8   2 123410.  21768.   1
   5   8   2  81734.  12069.   1
  -5  -8  -3 1942.71 474.275   1
  -5  -8  -3 6084.02 1096.83   1
   5   8   3 1260.17 491.125   1
   5   8   3 1753.99 583.913   1
  -5  -8  -4 113750.  20038.   1
  -5  -8  -4  95619.  14136.   1
   5   8   4  82678.  14617.   1
   5   8   4  95394.  14089.   1
  -5  -8  -5  61874.  10937.   1
  -5  -8  -5  73871.  10948.   1
   5   8   5  73871.  13064.   1
   5   8   5  63154. 9355.19   1
  -5  -8  -6 3116.15 685.014   1
  -5  -8  -6 4367.55 881.823   1
   5   8   6 4675.35 1040.89   1
  -5  -8  -7  43541. 7724.10   1
  -5  -8  -7  33139. 4992.13   1
   5   8   7   57.83 485.508   1
  -5  -8  -9 2606.15 861.828   1
  -5  -9   4 8103.79 1555.38   1
  -5  -9   3 6890.58 1332.28   1
  -5  -9   2  10330. 1912.60   1
  -5  -9   1 7809.47 1468.88   1
  -5  -9   0  25972. 4630.42   1
   5   9   0 5679.62 1138.84   1
  -5  -9  -1 7719.61 1438.55   1
   5   9   1 5560.54 1137.05   1
   5   9   1 3221.74 863.625   1
  -5  -9  -2  26331. 4693.32   1
   5   9   2  28668. 5140.41   1
   5   9   2  29454. 4513.59   1
  -5  -9  -3 141137.  24848.   1
   5   9   3  84138.  14875.   1
   5   9   3 112918.  16677.   1
  -5  -9  -4  11114. 2046.50   1
  -5  -9  -4  14226. 2273.64   1
  -5  -9  -5  45248. 8025.16   1
   5   9   5  47742. 7164.67   1
  -5  -9  -6  74478.  13166.   1
   5   9   6  91485.  13559.   1
  -5  -9  -7  786.34 598.292   1
   5   9   7 1423.05 766.119   1
   5   9   8  72635.  10820.   1
   5   9   9 100562.  14938.   1
  -5 -10   2  32150. 5762.74   1
  -5 -10   1 1189.84 549.314   1
  -5 -10   0  23051. 4151.87   1
  -5 -10  -1 5099.97 1108.06   1
  -5 -10  -2 1865.42 677.600   1
  -5 -10  -3  850.37 607.054   1
  -5 -10  -4 1235.23 682.992   1
   5  10   4 1634.69 1160.64   1
   5  10   5 7692.65 1629.52   1
   5  10   6 2018.65 1064.70   1
  -6   8   0  35587. 5412.26   1
  -6   8  -1 107481.  15967.   1
  -6   8  -2  17760. 2839.81   1
  -6   7   3  11795. 2153.45   1
   6  -7  -3  12390. 2006.74   1
  -6   7   2 3794.65 1103.57   1
   6  -7  -2 3922.71 670.186   1
  -6   7   1  35543. 5405.52   1
   6  -7  -1  27769. 4466.41   1
  -6   7   0  61402. 9179.95   1
   6  -7   0  54010. 8667.71   1
  -6   7  -1 3846.32 951.695   1
   6  -7   1 4861.82 808.582   1
  -6   7  -2 101887.  15107.   1
   6  -7   2  98090.  15740.   1
  -6   7  -3  63064. 9404.62   1
   6  -7   3  44821. 7202.87   1
  -6   7  -4  14956. 2428.67   1
   6  -7   4  15666. 2527.52   1
  -6   7  -5 130353.  19250.   1
   6  -7   5 128555.  20613.   1
  -6   7  -6  31970. 4900.02   1
   6  -7   6  29095. 4675.35   1
   6  -6  -5 5978.43 986.519   1
   6  -6  -4  14997. 2424.17   1
  -6   6   3  27410. 4226.01   1
   6  -6  -3  30757. 4942.70   1
  -6   6   2 2747.69 747.472   1
   6  -6  -2 1769.71 318.804   1
  -6   6   1  19616. 3019.54   1
   6  -6  -1  22152. 3563.24   1
  -6   6   0  782.07 510.671   1
   6  -6   0  857.11 187.329   1
  -6   6  -1  22240. 3419.45   1
   6  -6   1  23051. 3702.54   1
  -6   6  -2  10932. 1779.37   1
   6  -6   2 9348.45 1512.02   1
  -6   6  -3 8741.85 1513.82   1
   6  -6   3  11146. 1800.94   1
  -6   6  -4  18000. 3334.08   1
  -6   6  -4  22177. 3417.21   1
   6  -6   4  23096. 3713.77   1
  -6   6  -5 1086.72 604.133   1
   6  -6   5  797.35 192.676   1
  -6   6  -6  73040.  10842.   1
   6  -6   6  71197.  11420.   1
  -6   6  -7  49989. 7494.94   1
   6  -6   7  36127. 5798.69   1
  -6   6  -8 1240.84 922.713   1
   6  -6   8 1541.00 308.694   1
   6  -5  -6 3394.74 588.182   1
   6  -5  -5  77870.  12498.   1
  -6   5   4  33813. 5126.93   1
   6  -5  -4  81083.  13013.   1
  -6   5   3  15062. 2406.20   1
   6  -5  -3  22301. 3585.71   1
  -6   5   2 137497.  20288.   1
   6  -5  -2 183060.  29364.   1
  -6   5   1 109189.  16127.   1
   6  -5  -1 151292.  24264.   1
  -6   5   0  32622. 4920.24   1
   6  -5   0  27297. 4381.03   1
  -6   5  -1 134150.  19789.   1
   6  -5   1 125006.  20052.   1
  -6   5  -2  14314. 2597.17   1
  -6   5  -2  27140. 4115.92   1
   6  -5   2  20616. 3316.11   1
   6  -5   2  15217. 2792.63   1
  -6   5  -3  12557. 2336.55   1
  -6   5  -3  13029. 2089.87   1
   6  -5   3  10807. 1745.90   1
   6  -5   3  12411. 2332.06   1
  -6   5  -4  78791.  13934.   1
  -6   5  -4  72590.  10780.   1
   6  -5   4  66974.  10744.   1
   6  -5   4  75039.  13285.   1
  -6   5  -5 7614.01 1527.07   1
  -6   5  -5  12496. 2016.85   1
   6  -5   5 7218.60 1171.87   1
   6  -5   5 7753.31 1588.63   1
  -6   5  -6 9166.47 1570.66   1
   6  -5   6 8427.31 1363.51   1
   6  -5   6 9532.68 1898.45   1
  -6   5  -7 4567.51 1039.32   1
   6  -5   7 3677.82 616.715   1
   6  -5   7 4005.84 1079.98   1
  -6   5  -8 2853.29 915.973   1
   6  -5   8 4122.67 686.137   1
   6  -5   8 2653.33 851.943   1
  -6   5  -9 5198.83 1134.80   1
   6  -5   9 4675.35 780.273   1
   6  -4  -7  454.73 185.351   1
   6  -4  -6  16686. 2691.53   1
   6  -4  -5 5609.97 917.995   1
  -6   4   4  18081. 2878.00   1
   6  -4  -4  18825. 3028.53   1
  -6   4   3  52280. 7822.95   1
   6  -4  -3  54257. 8714.89   1
  -6   4   2 1757.13 658.728   1
   6  -4  -2 1703.89 303.976   1
  -6   4   1 131072.  23096.   1
  -6   4   1 162121.  28578.   1
  -6   4   1 194046.  28578.   1
   6  -4  -1 259941.  41698.   1
  -6   4   0  86160.  15210.   1
  -6   4   0  99303.  17495.   1
  -6   4   0  97506.  14417.   1
   6  -4   0  96742.  15516.   1
   6  -4   0  90272.  15927.   1
  -6   4  -1  197.33 296.113   1
  -6   4  -1  212.74 464.839   1
  -6   4  -1  123.48 391.372   1
   6  -4   1  579.87 145.608   1
   6  -4   1   15.70 399.685   1
  -6   4  -2 108178.  19070.   1
  -6   4  -2 103055.  18182.   1
  -6   4  -2 126735.  18699.   1
   6  -4   2 116872.  18742.   1
   6  -4   2 112424.  19829.   1
  -6   4  -3 175264.  30869.   1
  -6   4  -3 172725.  25455.   1
   6  -4   3 117344.  18818.   1
   6  -4   3 168097.  29611.   1
  -6   4  -4  641.20 373.174   1
  -6   4  -4   89.44 496.293   1
   6  -4   4  966.07 208.919   1
   6  -4   4  341.27 405.077   1
  -6   4  -5 162076.  28555.   1
  -6   4  -5 164592.  24264.   1
   6  -4   5 157919.  25320.   1
   6  -4   5 161604.  28465.   1
  -6   4  -6  94518.  16679.   1
  -6   4  -6  82970.  12287.   1
   6  -4   6  59560. 9550.65   1
   6  -4   6  93979.  16590.   1
  -6   4  -7  221.23 364.861   1
  -6   4  -7  710.63 591.777   1
   6  -4   7  496.97 152.100   1
   6  -4   7  139.02 427.095   1
  -6   4  -8  53044. 7919.56   1
   6  -4   8  70299.  11276.   1
   6  -4   8  68030.  12042.   1
  -6   4  -9  42732. 6445.74   1
   6  -4   9  30892. 4965.17   1
   6  -4   9  55987. 9934.84   1
  -6   4 -10 4196.81 1028.76   1
   6  -4  10 5156.14 860.255   1
   6  -4  10 4311.39 1044.26   1
   6  -3  -8  32802. 5272.97   1
   6  -3  -7  10371. 1679.17   1
  -6   3   6  35790. 6407.54   1
   6  -3  -6  62525.  10031.   1
   6  -3  -5  18726. 3012.80   1
  -6   3   4 9768.58 1829.25   1
  -6   3   4  13011. 2120.87   1
   6  -3  -4  14545. 2341.04   1
  -6   3   3  22229. 3969.89   1
  -6   3   3  17825. 2792.63   1
   6  -3  -3  22714. 3650.86   1
  -6   3   2  981.58 561.896   1
  -6   3   2 1127.61 355.875   1
  -6   3   2 1081.10 525.724   1
   6  -3  -2  874.18 185.464   1
  -6   3   1  36261. 6427.76   1
  -6   3   1  37025. 6578.29   1
  -6   3   1  36194. 5441.47   1
   6  -3  -1  27365. 4399.01   1
   6  -3  -1  29184. 5196.58   1
  -6   3   0 6043.58 1194.56   1
  -6   3   0 5926.75 1112.78   1
  -6   3   0 5360.59 988.316   1
   6  -3   0 4428.21 725.679   1
   6  -3   0 5771.73 1149.18   1
  -6   3  -1  27230. 4864.07   1
  -6   3  -1  27724. 4931.47   1
  -6   3  -1  28443. 4297.91   1
   6  -3   1  28173. 4527.07   1
   6  -3   1  26309. 4697.82   1
  -6   3  -2  20434. 3680.07   1
  -6   3  -2  19825. 3552.01   1
  -6   3  -2  19593. 3006.06   1
   6  -3   2  17077. 2747.69   1
   6  -3   2  18573. 3343.07   1
  -6   3  -3 8757.57 1634.01   1
  -6   3  -3 9031.67 1722.31   1
  -6   3  -3 8813.74 1470.23   1
   6  -3   3 9701.18 1566.84   1
   6  -3   3 8422.82 1596.27   1
  -6   3  -4 166165.  29274.   1
  -6   3  -4 177848.  31341.   1
  -6   3  -4 196383.  28915.   1
   6  -3   4 209795.  33633.   1
   6  -3   4 186902.  32914.   1
  -6   3  -5  16875. 3051.00   1
  -6   3  -5  14716. 2327.56   1
   6  -3   5  14377. 2318.58   1
   6  -3   5  14842. 2698.27   1
  -6   3  -6  97955.  17277.   1
  -6   3  -6 111503.  16479.   1
   6  -3   6 146304.  23455.   1
   6  -3   6 100674.  17749.   1
  -6   3  -7  89081.  15722.   1
  -6   3  -7  96944.  14341.   1
   6  -3   7  95686.  15345.   1
   6  -3   7 103662.  18275.   1
  -6   3  -8 4592.22 921.140   1
  -6   3  -8 4933.72 1003.37   1
   6  -3   8 2381.49 412.042   1
   6  -3   8 4221.52 892.608   1
  -6   3  -9  65468.  11575.   1
  -6   3  -9  54572. 8148.72   1
   6  -3   9  82543.  13246.   1
   6  -3   9  71332.  12608.   1
  -6   3 -10  81555.  14424.   1
  -6   3 -10  88227.  13069.   1
   6  -3  10  84812.  13610.   1
   6  -3  10  88137.  15561.   1
  -6   3 -11 3909.23 1016.40   1
   6  -3  11 3740.73 633.340   1
   6  -3  11 3578.97 880.925   1
   6  -2  -8  71759.  11512.   1
   6  -2  -7  78432.  12575.   1
   6  -2  -6   64.23 108.133   1
  -6   2   5 155785.  27454.   1
  -6   2   5 205190.  30240.   1
   6  -2  -5 159874.  25635.   1
  -6   2   4 102808.  18128.   1
  -6   2   4  91642.  13574.   1
   6  -2  -4 119681.  19187.   1
  -6   2   3 1941.58 709.278   1
  -6   2   3 2255.67 515.389   1
  -6   2   3 1971.02 563.918   1
   6  -2  -3 2839.81 472.028   1
   6  -2  -3 2040.66 600.539   1
  -6   2   2 131251.  23118.   1
  -6   2   2 137183.  24197.   1
  -6   2   2 126556.  18706.   1
  -6   2   2 141968.  20937.   1
   6  -2  -2  96428.  15468.   1
   6  -2  -2 190541.  33543.   1
   6  -2  -2 117030.  20634.   1
  -6   2   1 157493.  27747.   1
  -6   2   1 212379.  37385.   1
  -6   2   1 145563.  21460.   1
  -6   2   1 155718.  22961.   1
   6  -2  -1 230959.  37048.   1
   6  -2  -1 167086.  29432.   1
  -6   2   0 4857.33 991.686   1
  -6   2   0 4684.34 904.964   1
  -6   2   0 5917.77 975.510   1
  -6   2   0 5333.63 1088.52   1
  -6   2   0 5917.77 1055.04   1
   6  -2   0 5731.29 933.947   1
   6  -2   0 5607.72 918.894   1
   6  -2   0 7321.94 1337.45   1
   6  -2   0 4884.29 981.352   1
  -6   2  -1 201370.  35453.   1
  -6   2  -1 174275.  30667.   1
  -6   2  -1 151471.  24287.   1
  -6   2  -1 247585.  36396.   1
  -6   2  -1 195731.  28825.   1
   6  -2   1 191395.  30690.   1
   6  -2   1 182476.  29252.   1
   6  -2   1 188901.  27814.   1
   6  -2   1 166255.  29274.   1
  -6   2  -2  73826.  13026.   1
  -6   2  -2  81420.  14370.   1
  -6   2  -2  69557.  11153.   1
  -6   2  -2 138778.  20467.   1
  -6   2  -2  79308.  11752.   1
   6  -2   2  58594. 9402.37   1
   6  -2   2  89171.  13208.   1
   6  -2   2  85217.  15046.   1
  -6   2  -3  10398. 1936.42   1
  -6   2  -3  19393. 3127.38   1
  -6   2  -3 8467.75 1570.21   1
  -6   2  -3  12480. 1979.10   1
   6  -2   3  17205. 2770.16   1
   6  -2   3  14884. 2399.46   1
   6  -2   3  12957. 2376.99   1
  -6   2  -4  33116. 5895.30   1
  -6   2  -4  32285. 5187.59   1
  -6   2  -4  37003. 6567.06   1
  -6   2  -4  34397. 5176.36   1
   6  -2   4  25230. 4055.26   1
   6  -2   4  28758. 4407.99   1
   6  -2   4  30016. 5347.11   1
  -6   2  -5 2069.42 665.018   1
  -6   2  -5 1912.60 481.914   1
  -6   2  -5 2287.12 604.133   1
   6  -2   5 2088.52 354.976   1
   6  -2   5 2442.15 599.415   1
  -6   2  -6 2743.20 620.759   1
  -6   2  -6 2994.83 710.626   1
   6  -2   6 3181.30 525.499   1
   6  -2   6 2489.33 588.182   1
  -6   2  -7  958.44 360.143   1
  -6   2  -7  624.13 541.675   1
   6  -2   7  659.85 150.820   1
   6  -2   7 1636.48 487.980   1
  -6   2  -8 8912.59 1663.67   1
  -6   2  -8 9478.76 1558.30   1
   6  -2   8 9979.77 1614.02   1
   6  -2   8  10063. 1852.39   1
  -6   2  -9  12004. 2188.05   1
  -6   2  -9  13581. 2179.73   1
   6  -2   9  13455. 2171.42   1
   6  -2   9  12121. 2226.01   1
  -6   2 -10 5681.86 1112.78   1
  -6   2 -10 4493.37 995.056   1
   6  -2  10 5634.68 922.938   1
   6  -2  10 5580.76 1136.60   1
  -6   2 -11  44417. 7892.60   1
  -6   2 -11  38800. 5843.62   1
   6  -2  11  37407. 6007.63   1
   6  -2  11  38823. 6899.57   1
  -6   2 -12  27028. 4846.10   1
  -6   2 -12  15482. 2507.30   1
   6  -1  -8 8328.46 1357.22   1
   6  -1  -7 2660.07 455.403   1
   6  -1  -6  55156. 8849.69   1
  -6   1   5  10768. 1981.58   1
  -6   1   5  14316. 2350.03   1
   6  -1  -5  15091. 2430.91   1
  -6   1   4  58841.  10393.   1
  -6   1   4  39227. 5935.74   1
   6  -1  -4  27342. 4392.27   1
  -6   1   3 112941.  19903.   1
  -6   1   3 141564.  24961.   1
  -6   1   3 119456.  17641.   1
  -6   1   3 161402.  23792.   1
   6  -1  -3 129297.  20735.   1
   6  -1  -3 132060.  23276.   1
   6  -1  -3 111593.  19692.   1
  -6   1   2  50348. 8901.36   1
  -6   1   2  49697. 7989.21   1
  -6   1   2  51179. 9072.11   1
  -6   1   2  51539. 7692.65   1
  -6   1   2  51157. 7616.26   1
   6  -1  -2  37542. 6027.85   1
   6  -1  -2  53112. 8528.41   1
   6  -1  -2  61087.  10793.   1
   6  -1  -2  51404. 9105.81   1
  -6   1   1 154415.  27207.   1
  -6   1   1 127499.  20456.   1
  -6   1   1 123590.  21764.   1
  -6   1   1 151539.  22316.   1
  -6   1   1 136464.  20121.   1
   6  -1  -1 166614.  26713.   1
   6  -1  -1 156526.  25118.   1
   6  -1  -1 119232.  21018.   1
   6  -1  -1 123523.  21788.   1
  -6   1   0 376994.  66300.   1
  -6   1   0 324646.  57111.   1
  -6   1   0 440350.  70636.   1
  -6   1   0 370254.  54415.   1
  -6   1   0 384408.  56504.   1
   6  -1   0 381038.  61065.   1
   6  -1   0 404628.  64907.   1
   6  -1   0 382610.  56234.   1
   6  -1   0 362839.  63828.   1
  -6   1  -1 2271.40 582.116   1
  -6   1  -1 2222.64 502.808   1
  -6   1  -1 1876.88 349.135   1
  -6   1  -1 3354.30 718.490   1
  -6   1  -1 1969.67 573.354   1
   6  -1   1 2204.00 388.676   1
   6  -1   1 2113.91 359.245   1
   6  -1   1 2570.21 568.860   1
   6  -1   1 4214.78 832.396   1
  -6   1  -2 248259.  43676.   1
  -6   1  -2 196405.  31499.   1
  -6   1  -2 237250.  41743.   1
  -6   1  -2 299483.  44035.   1
   6  -1   2 221927.  35587.   1
   6  -1   2 252303.  37093.   1
   6  -1   2 203033.  35745.   1
  -6   1  -3 265783.  46753.   1
  -6   1  -3 257245.  41272.   1
  -6   1  -3 311390.  54774.   1
  -6   1  -3 316782.  46551.   1
   6  -1   3 199079.  31925.   1
   6  -1   3 263761.  38800.   1
   6  -1   3 292968.  51539.   1
  -6   1  -4  19948. 3574.47   1
  -6   1  -4  23725. 3817.12   1
  -6   1  -4  25567. 4576.50   1
  -6   1  -4  25185. 3830.60   1
   6  -1   4  21525. 3459.89   1
   6  -1   4  23410. 3601.43   1
   6  -1   4  19524. 3516.06   1
  -6   1  -5  80049.  14132.   1
  -6   1  -5  87800.  14091.   1
  -6   1  -5  72298.  12781.   1
  -6   1  -5  74073.  10984.   1
   6  -1   5 114806.  18416.   1
   6  -1   5  67760.  10083.   1
   6  -1   5  80386.  14201.   1
  -6   1  -6 111548.  19665.   1
  -6   1  -6 110110.  16266.   1
   6  -1   6  73377.  11782.   1
   6  -1   6  99551.  17562.   1
  -6   1  -7 7917.31 1489.78   1
  -6   1  -7 2085.60 594.248   1
   6  -1   7 2482.59 421.927   1
   6  -1   7 2527.52 603.684   1
  -6   1  -8  44709. 7919.56   1
  -6   1  -8  46956. 7034.37   1
   6  -1   8  44282. 7110.75   1
   6  -1   8  44687. 7908.33   1
  -6   1  -9  46192. 8182.42   1
  -6   1  -9  47203. 7034.37   1
   6  -1   9  41698. 6695.12   1
   6  -1   9  47046. 8326.21   1
  -6   1 -10  677.60 343.069   1
  -6   1 -10  579.64 474.500   1
   6  -1  10  814.65 199.708   1
   6  -1  10  365.09 401.482   1
  -6   1 -11  18524. 3354.30   1
  -6   1 -11  17843. 2790.38   1
   6  -1  11  16266. 2621.88   1
   6  -1  11  20436. 3693.55   1
  -6   1 -12 3821.61 865.198   1
  -6   1 -12 4320.37 1030.10   1
   6  -1  12 2599.41 468.658   1
   6  -1  12 4057.51 894.405   1
   6   0  -9  33610. 5403.27   1
   6   0  -8  58998. 9465.28   1
  -6   0   7 3116.15 1411.14   1
   6   0  -7 3621.65 603.459   1
  -6   0   6  70456.  12447.   1
  -6   0   6  53943. 8146.48   1
   6   0  -6  61424. 9853.96   1
  -6   0   5  14462. 2621.88   1
  -6   0   5  11276. 1939.56   1
   6   0  -5  11388. 1835.32   1
  -6   0   4 2608.40 582.565   1
  -6   0   4 4062.00 942.933   1
  -6   0   4 2909.46 976.634   1
   6   0  -4 2970.12 492.024   1
  -6   0   3  28713. 5099.97   1
  -6   0   3  37767. 6746.79   1
  -6   0   3  33431. 5043.81   1
  -6   0   3  38598. 5785.21   1
   6   0  -3  59762. 9595.59   1
   6   0  -3  42822. 7609.52   1
   6   0  -3  43249. 7690.40   1
  -6   0   2 1337.23 369.804   1
  -6   0   2 2307.34 665.692   1
  -6   0   2 2451.13 648.168   1
  -6   0   2 2453.38 598.067   1
   6   0  -2 1555.38 276.567   1
   6   0  -2 1891.48 343.743   1
   6   0  -2 1176.59 494.270   1
   6   0  -2 1931.92 490.002   1
  -6   0   1  44979. 7966.74   1
  -6   0   1  54100. 8692.42   1
  -6   0   1  45046. 7989.21   1
  -6   0   1  52280. 7766.79   1
  -6   0   1  44911. 6699.61   1
   6   0  -1  50842. 8159.96   1
   6   0  -1  51764. 8305.99   1
   6   0  -1  52190. 9236.12   1
   6   0  -1  59852.  10582.   1
  -6   0   0 1411.59 502.583   1
  -6   0   0  482.59 244.664   1
  -6   0   0 1132.55 237.475   1
  -6   0   0 1153.00 455.628   1
  -6   0   0  996.40 415.861   1
   6   0   0 1213.66 234.104   1
   6   0   0 1377.89 249.157   1
   6   0   0 1278.36 475.174   1
   6   0   0  907.44 374.747   1
   6   0   0 2412.94 574.702   1
  -6   0  -1  30577. 5439.22   1
  -6   0  -1  54842. 9698.93   1
  -6   0  -1  34958. 5609.97   1
  -6   0  -1  36823. 5517.86   1
  -6   0  -1  43676. 6490.67   1
   6   0   1  32734. 5252.75   1
   6   0   1  35138. 5641.42   1
   6   0   1  33880. 5068.52   1
   6   0   1  47001. 8330.70   1
  -6   0  -2  17875. 3203.77   1
  -6   0  -2  15464. 2792.63   1
  -6   0  -2  18268. 2826.33   1
  -6   0  -2  13862. 2234.33   1
   6   0   2  16050. 2583.69   1
   6   0   2  12143. 1956.86   1
   6   0   2  18335. 2808.35   1
   6   0   2  13804. 2509.55   1
  -6   0  -3  26960. 4803.41   1
  -6   0  -3  31566. 5066.27   1
  -6   0  -3  25343. 4518.08   1
  -6   0  -3  42844. 6407.54   1
   6   0   3  32262. 5178.61   1
   6   0   3  33498. 5023.59   1
   6   0   3  32891. 5843.62   1
  -6   0  -4 181128.  29050.   1
  -6   0  -4 232307.  34195.   1
   6   0   4 203864.  32689.   1
   6   0   4 206493.  30398.   1
   6   0   4 215457.  37924.   1
  -6   0  -5 121366.  21395.   1
  -6   0  -5 106628.  17111.   1
  -6   0  -5  92518.  16320.   1
  -6   0  -5  88677.  13118.   1
   6   0   5  95551.  15334.   1
   6   0   5 106897.  15803.   1
   6   0   5 108740.  19166.   1
  -6   0  -6  10582. 1972.14   1
  -6   0  -6  14370. 2320.82   1
  -6   0  -6  17499. 3152.10   1
  -6   0  -6  10845. 1759.83   1
   6   0   6  17335. 2785.89   1
   6   0   6  12867. 2149.85   1
   6   0   6  11153. 2045.38   1
  -6   0  -7 188632.  33228.   1
  -6   0  -7 173466.  25545.   1
   6   0   7 175713.  28173.   1
   6   0   7 140418.  24758.   1
  -6   0  -8  26646. 4747.24   1
  -6   0  -8  34262. 5156.14   1
   6   0   8  28533. 4585.48   1
   6   0   8  29836. 5320.15   1
  -6   0  -9  66300.  11712.   1
  -6   0  -9  68501.  10186.   1
   6   0   9  82498.  13233.   1
   6   0   9  75219.  13273.   1
  -6   0 -10 149539.  26331.   1
  -6   0 -10 158998.  23433.   1
   6   0  10 253426.  40643.   1
   6   0  10 145720.  25680.   1
  -6   0 -11  36149. 6423.27   1
  -6   0 -11  26870. 4077.73   1
   6   0  11  37093. 5962.70   1
   6   0  11  26399. 4720.28   1
  -6   0 -12  32060. 5713.32   1
  -6   0 -12  33835. 5117.95   1
   6   0  12  29521. 4747.24   1
   6   0  12  26421. 4742.75   1
   6   1  -9 2507.30 454.954   1
   6   1  -8  55381. 8883.39   1
  -6  -1   7    1.49 355.425   1
   6   1  -7 103258.  16558.   1
  -6  -1   6  28084. 4992.13   1
  -6  -1   6  11245. 2015.50   1
   6   1  -6  11492. 1854.86   1
  -6  -1   5  71557.  12633.   1
  -6  -1   5  64749. 9640.52   1
  -6  -1   5  74792.  11135.   1
   6   1  -5  67917.  10892.   1
  -6  -1   4 214311.  37722.   1
  -6  -1   4 204381.  30106.   1
  -6  -1   4 196046.  28892.   1
   6   1  -4 165558.  26556.   1
  -6  -1   3  17232. 3165.58   1
  -6  -1   3  15689. 2824.08   1
  -6  -1   3  13166. 2083.80   1
  -6  -1   3  15383. 2388.23   1
   6   1  -3  19564. 3147.60   1
   6   1  -3  12885. 2081.78   1
   6   1  -3  16610. 3035.27   1
   6   1  -3  28892. 5158.39   1
  -6  -1   2 187036.  32936.   1
  -6  -1   2 172231.  30330.   1
  -6  -1   2 165401.  24332.   1
  -6  -1   2 186070.  27387.   1
   6   1  -2 176634.  28331.   1
   6   1  -2 197708.  31701.   1
   6   1  -2 198000.  34869.   1
   6   1  -2 156302.  27544.   1
  -6  -1   1 177084.  31162.   1
  -6  -1   1 148281.  26129.   1
  -6  -1   1 184767.  27162.   1
  -6  -1   1 191036.  28128.   1
   6   1  -1 171579.  27522.   1
   6   1  -1 156639.  25118.   1
   6   1  -1 168322.  29634.   1
   6   1  -1 171107.  30150.   1
  -6  -1   0 2215.68 556.504   1
  -6  -1   0 1847.67 435.632   1
  -6  -1   0 1315.66 245.113   1
  -6  -1   0 1163.33 377.668   1
  -6  -1   0 1298.13 442.821   1
   6   1   0 1541.90 416.760   1
   6   1   0 1742.30 428.892   1
   6   1   0 2001.80 500.337   1
  -6  -1  -1  43563. 7717.36   1
  -6  -1  -1  37497. 6654.68   1
  -6  -1  -1  61941. 9946.07   1
  -6  -1  -1  62076. 9200.17   1
  -6  -1  -1  66345. 9802.28   1
   6   1   1  52640. 8447.53   1
   6   1   1  61941. 9941.58   1
   6   1   1  66861. 9876.42   1
   6   1   1  56234. 9937.08   1
   6   1   1  40463. 7175.91   1
  -6  -1  -2  59268.  10472.   1
  -6  -1  -2  58549. 9393.39   1
  -6  -1  -2  45473. 8052.12   1
  -6  -1  -2  47360. 7059.08   1
   6   1   2  42350. 6798.47   1
   6   1   2  73062.  11719.   1
   6   1   2  55583. 8229.60   1
   6   1   2  41541. 7375.86   1
  -6  -1  -3 2316.33 523.702   1
  -6  -1  -3 2743.20 463.042   1
  -6  -1  -3 2635.36 611.547   1
  -6  -1  -3 3165.58 701.639   1
   6   1   3 3051.00 501.909   1
   6   1   3 2911.70 613.794   1
   6   1   3 2073.24 516.063   1
  -6  -1  -4  46327. 8209.38   1
  -6  -1  -4  26780. 4302.40   1
  -6  -1  -4  25432. 4531.56   1
  -6  -1  -4  40036. 5991.91   1
   6   1   4  38778. 6223.31   1
   6   1   4  29139. 4381.03   1
   6   1   4  37654. 6690.62   1
  -6  -1  -5  836.89 415.187   1
  -6  -1  -5  703.21 168.906   1
  -6  -1  -5  267.80 281.509   1
  -6  -1  -5  933.72 460.346   1
   6   1   5 1487.53 256.347   1
   6   1   5 1185.58 596.045   1
   6   1   5  625.25 306.223   1
  -6  -1  -6  16776. 3042.01   1
  -6  -1  -6  10950. 1769.94   1
  -6  -1  -6  15309. 2770.16   1
  -6  -1  -6  10151. 1643.45   1
   6   1   6  19746. 3174.56   1
   6   1   6  10998. 1849.25   1
   6   1   6  18998. 3412.71   1
  -6  -1  -7  14956. 2412.94   1
  -6  -1  -7  20708. 3711.52   1
  -6  -1  -7  14141. 2223.77   1
   6   1   7  10112. 1632.44   1
   6   1   7  16446. 2976.86   1
  -6  -1  -8  29521. 5257.24   1
  -6  -1  -8  20562. 3158.84   1
   6   1   8  21887. 3516.06   1
   6   1   8  23388. 4194.56   1
  -6  -1  -9  28668. 5104.47   1
  -6  -1  -9  31454. 4736.01   1
   6   1   9  39160. 6290.71   1
   6   1   9  43204. 7652.21   1
  -6  -1 -10 1018.42 377.668   1
  -6  -1 -10  670.19 464.390   1
   6   1  10 1456.53 275.893   1
   6   1  10 1626.60 479.667   1
  -6  -1 -11  78364.  13837.   1
  -6  -1 -11  63649. 9447.31   1
   6   1  11  80701.  12950.   1
   6   1  11  59447.  10517.   1
  -6  -1 -12  36329. 6468.20   1
  -6  -1 -12  38980. 5893.05   1
   6   1  12  39452. 6333.40   1
   6   1  12  31746. 5663.89   1
  -6  -1 -13 3929.45 888.788   1
  -6  -1 -13 4446.19 1091.89   1
   6   1  13 3453.15 889.013   1
  -6  -2   8 9402.37 1523.70   1
   6   2  -8 7964.49 1298.13   1
  -6  -2   7  243.54 133.251   1
  -6  -2   7  596.05 379.240   1
   6   2  -7  193.75 137.362   1
  -6  -2   6  64188.  10290.   1
  -6  -2   6  57268.  10117.   1
   6   2  -6  62525.  10029.   1
  -6  -2   5  42215. 6776.00   1
  -6  -2   5  39991. 7083.79   1
   6   2  -5  39092. 6277.23   1
  -6  -2   4  37228. 6603.00   1
   6   2  -4  35610. 5713.32   1
  -6  -2   3 226466.  39834.   1
   6   2  -3 216266.  34689.   1
   6   2  -3 207144.  33228.   1
   6   2  -3 189553.  33363.   1
  -6  -2   2  86407.  15264.   1
  -6  -2   2  94159.  16601.   1
   6   2  -2  87733.  14073.   1
   6   2  -2  78364.  12568.   1
   6   2  -2 113413.  19991.   1
   6   2  -2  96787.  17086.   1
  -6  -2   1  49876. 8822.73   1
  -6  -2   1  66412.  11750.   1
  -6  -2   1  51224. 7580.31   1
  -6  -2   1  48708. 7196.13   1
   6   2  -1  60346. 9680.96   1
   6   2  -1  81397.  13051.   1
   6   2  -1  45810. 8124.01   1
   6   2  -1  38373. 6814.19   1
  -6  -2   0 418557.  73624.   1
  -6  -2   0 275668.  48483.   1
  -6  -2   0 307571.  45203.   1
  -6  -2   0 397214.  58369.   1
   6   2   0 318355.  51090.   1
   6   2   0 342395.  54886.   1
   6   2   0 337452.  59335.   1
   6   2   0 297012.  52280.   1
  -6  -2  -1  92676.  16345.   1
  -6  -2  -1  90721.  14552.   1
  -6  -2  -1  83801.  14788.   1
   6   2   1  86992.  13950.   1
   6   2   1  81644.  13103.   1
   6   2   1  80139.  11809.   1
   6   2   1  79375.  13997.   1
   6   2   1  85509.  15102.   1
  -6  -2  -2  53134. 9402.37   1
  -6  -2  -2  51135. 8209.38   1
  -6  -2  -2  53134. 9400.13   1
  -6  -2  -2  56167. 8341.94   1
   6   2   2  58526. 9391.14   1
   6   2   2  67558.  10834.   1
   6   2   2  48214. 7144.45   1
   6   2   2  60863.  10750.   1
   6   2   2  45653. 8092.56   1
  -6  -2  -3 205931.  36239.   1
  -6  -2  -3 247135.  43518.   1
  -6  -2  -3 224197.  32981.   1
  -6  -2  -3 248034.  39766.   1
   6   2   3 252977.  40575.   1
   6   2   3 256122.  41069.   1
   6   2   3 232082.  34127.   1
   6   2   3 336104.  59110.   1
  -6  -2  -4  59425.  10514.   1
  -6  -2  -4  47180. 8348.68   1
  -6  -2  -4  38576. 5776.22   1
  -6  -2  -4  37542. 6025.61   1
   6   2   4  76320.  12251.   1
   6   2   4  37565. 5621.20   1
   6   2   4  40755. 7236.57   1
  -6  -2  -5  97596.  17212.   1
  -6  -2  -5  72500.  12811.   1
  -6  -2  -5  69153.  10261.   1
  -6  -2  -5  68524.  11000.   1
   6   2   5 107841.  17293.   1
   6   2   5  64772. 9627.04   1
   6   2   5  72321.  12786.   1
  -6  -2  -6 210559.  37070.   1
  -6  -2  -6 218423.  35026.   1
  -6  -2  -6 236576.  41654.   1
  -6  -2  -6 213974.  31499.   1
   6   2   6 158526.  25410.   1
   6   2   6 208290.  30667.   1
   6   2   6 216378.  38081.   1
  -6  -2  -7  24287. 3904.74   1
  -6  -2  -7  23770. 4248.48   1
  -6  -2  -7  24242. 3691.30   1
   6   2   7  19187. 3082.45   1
   6   2   7  20667. 3711.52   1
  -6  -2  -8  15677. 2824.08   1
  -6  -2  -8  15255. 2388.23   1
   6   2   8  16250. 2615.14   1
   6   2   8  15648. 2842.06   1
  -6  -2  -9  37430. 6638.95   1
  -6  -2  -9  20031. 3084.70   1
   6   2   9  14997. 2415.19   1
   6   2   9  19265. 3457.65   1
  -6  -2 -10  944.06 362.839   1
  -6  -2 -10  881.60 454.954   1
   6   2  10 1372.27 266.681   1
   6   2  10  869.47 389.126   1
  -6  -2 -11  19315. 3471.13   1
  -6  -2 -11  19607. 2994.83   1
   6   2  11  18908. 3046.50   1
   6   2  11  19614. 3529.54   1
  -6  -2 -12  -40.17 396.090   1
  -6  -2 -12  409.12 561.671   1
   6   2  12  134.13 204.471   1
   6   2  12  233.43 446.191   1
  -6  -2 -13 4938.21 1061.11   1
  -6  -2 -13 6564.81 1246.01   1
   6   2  13 9069.86 1750.84   1
  -6  -3   8  27477. 4915.74   1
   6   3  -8  36958. 5933.49   1
  -6  -3   7 -164.59 137.452   1
  -6  -3   7  666.82 376.769   1
   6   3  -7   60.64 144.529   1
  -6  -3   6  53291. 8544.14   1
  -6  -3   6  49472. 8750.83   1
   6   3  -6  50910. 8175.68   1
  -6  -3   5  22193. 3567.73   1
  -6  -3   5  21222. 3787.91   1
   6   3  -5  20625. 3313.86   1
  -6  -3   4  14940. 2403.95   1
  -6  -3   4  17585. 3154.34   1
   6   3  -4  12880. 2074.36   1
  -6  -3   3 8793.52 1618.74   1
   6   3  -3  10759. 1742.98   1
   6   3  -3  10184. 1643.45   1
   6   3  -3  11144. 2071.89   1
  -6  -3   2  13720. 2534.26   1
  -6  -3   2  19301. 3457.65   1
   6   3  -2  15165. 2439.90   1
   6   3  -2  19957. 3208.26   1
   6   3  -2  12110. 2223.77   1
   6   3  -2  12541. 2318.58   1
  -6  -3   1  18200. 3262.19   1
  -6  -3   1  20739. 3756.46   1
   6   3  -1  26691. 4286.67   1
   6   3  -1  22714. 3648.61   1
   6   3  -1  19546. 3525.05   1
   6   3  -1  21103. 3785.66   1
  -6  -3   0 1039.99 495.394   1
  -6  -3   0 1293.42 360.143   1
   6   3   0 1668.61 516.962   1
   6   3   0 1953.72 509.323   1
  -6  -3  -1 114469.  20180.   1
  -6  -3  -1 101056.  17814.   1
  -6  -3  -1 135520.  19928.   1
  -6  -3  -1  94698.  13959.   1
   6   3   1 106785.  17131.   1
   6   3   1  96023.  15397.   1
   6   3   1 111997.  19742.   1
   6   3   1 126578.  18621.   1
   6   3   1 104920.  18510.   1
  -6  -3  -2  83397.  14718.   1
  -6  -3  -2  72793.  12847.   1
  -6  -3  -2  63267. 9359.69   1
  -6  -3  -2  82925.  13305.   1
   6   3   2 104448.  16742.   1
   6   3   2  70074.  11245.   1
   6   3   2  75623.  11148.   1
   6   3   2  63042.  11137.   1
   6   3   2  86992.  15354.   1
  -6  -3  -3  18155. 3271.17   1
  -6  -3  -3  15621. 2509.55   1
  -6  -3  -3  27410. 4882.04   1
  -6  -3  -3  12811. 1994.61   1
   6   3   3  18654. 2994.83   1
   6   3   3  16075. 2581.44   1
   6   3   3  15808. 2419.68   1
   6   3   3  32869. 5843.62   1
  -6  -3  -4 148438.  26129.   1
  -6  -3  -4 154527.  24781.   1
  -6  -3  -4 134217.  23635.   1
  -6  -3  -4  98540.  14556.   1
   6   3   4 121411.  19470.   1
   6   3   4  99640.  15985.   1
   6   3   4 121388.  17904.   1
   6   3   4 117636.  20746.   1
  -6  -3  -5 112469.  19822.   1
  -6  -3  -5 115794.  20411.   1
  -6  -3  -5  98405.  14538.   1
  -6  -3  -5  92181.  14790.   1
   6   3   5 111413.  17861.   1
   6   3   5 120872.  17843.   1
   6   3   5 128510.  22669.   1
  -6  -3  -6  19614. 3522.80   1
  -6  -3  -6  18319. 2945.40   1
  -6  -3  -6  17729. 3190.29   1
  -6  -3  -6  17971. 2767.91   1
   6   3   6  29319. 4706.80   1
   6   3   6  20665. 3253.20   1
   6   3   6  19117. 3437.43   1
  -6  -3  -7 157066.  25185.   1
  -6  -3  -7 155897.  27454.   1
  -6  -3  -7 137879.  20335.   1
   6   3   7 138935.  22276.   1
   6   3   7 195192.  34374.   1
  -6  -3  -8  78207.  12550.   1
  -6  -3  -8  98966.  17448.   1
  -6  -3  -8 106740.  15765.   1
   6   3   8  81218.  13035.   1
   6   3   8 100404.  17715.   1
  -6  -3  -9 9269.82 1705.01   1
  -6  -3  -9  11141. 1796.00   1
   6   3   9  10993. 1774.66   1
   6   3   9  14471. 2621.88   1
  -6  -3 -10  61806.  10919.   1
  -6  -3 -10 127791.  18829.   1
   6   3  10 137497.  22047.   1
   6   3  10 274095.  48236.   1
  -6  -3 -11  60526.  10703.   1
  -6  -3 -11  42305. 6301.95   1
   6   3  11  40148. 6445.74   1
   6   3  11  57650.  10211.   1
  -6  -3 -12 3947.42 877.779   1
  -6  -3 -12 7369.12 1343.52   1
   6   3  12 6708.60 1128.28   1
   6   3  12 8079.08 1549.54   1
  -6  -3 -13  46079. 8184.67   1
  -6  -3 -13  43181. 6456.97   1
   6   3  13  37789. 6744.55   1
  -6  -4   8  26825. 4796.67   1
   6   4  -8  25298. 4070.99   1
  -6  -4   7 126174.  22233.   1
   6   4  -7 121995.  19571.   1
   6   4  -6  21815. 3509.32   1
  -6  -4   5  34464. 5535.83   1
  -6  -4   5  38441. 6807.45   1
   6   4  -5  34352. 5511.12   1
  -6  -4   4  97439.  15621.   1
  -6  -4   4 101460.  17879.   1
   6   4  -4 100112.  16057.   1
  -6  -4   3  27612. 4434.95   1
  -6  -4   3  42867. 7589.30   1
   6   4  -3  25455. 4086.72   1
   6   4  -3  31723. 5670.63   1
  -6  -4   2  76432.  13489.   1
   6   4  -2  50461. 8099.30   1
   6   4  -2  55246. 8869.91   1
   6   4  -2  55516. 9844.97   1
  -6  -4   1 182858.  32217.   1
  -6  -4   1 234778.  41294.   1
   6   4  -1 150281.  24084.   1
   6   4  -1 198764.  31880.   1
   6   4  -1 184228.  32442.   1
   6   4  -1 158998.  28016.   1
  -6  -4   0  19605. 3511.57   1
  -6  -4   0  20121. 3639.63   1
   6   4   0  21024. 3376.77   1
   6   4   0  18989. 3051.00   1
   6   4   0  21750. 3915.97   1
   6   4   0  16763. 3037.52   1
   6   4   1 6358.12 1024.71   1
   6   4   1 5904.29 951.920   1
   6   4   1 6122.21 1206.92   1
   6   4   1  12067. 2223.99   1
  -6  -4  -2  12013. 2179.73   1
  -6  -4  -2  13118. 2408.45   1
  -6  -4  -2  11975. 1829.25   1
   6   4   2  10964. 1760.28   1
   6   4   2 9031.67 1452.48   1
   6   4   2  12640. 1920.91   1
  -6  -4  -3  11431. 2099.30   1
  -6  -4  -3 6650.18 1255.67   1
  -6  -4  -3 6380.58 1059.99   1
   6   4   3 6241.29 1206.69   1
   6   4   3 7813.97 1490.90   1
   6   4   3  10097. 1617.61   1
  -6  -4  -4  30959. 5508.87   1
  -6  -4  -4  22408. 4001.34   1
  -6  -4  -4  23747. 3585.71   1
   6   4   4  25006. 4477.64   1
   6   4   4  39879. 5987.41   1
  -6  -4  -5 3444.17 704.335   1
  -6  -4  -5 3414.96 553.134   1
  -6  -4  -5 3055.49 729.948   1
  -6  -4  -5 2743.20 614.917   1
   6   4   5 3448.66 555.605   1
   6   4   5 3044.26 491.125   1
   6   4   5 3619.41 991.462   1
   6   4   5 3118.40 682.767   1
  -6  -4  -6  45001. 7966.74   1
  -6  -4  -6  39632. 6360.36   1
  -6  -4  -6  33970. 5099.97   1
   6   4   6  41923. 6731.06   1
   6   4   6  42867. 6508.64   1
   6   4   6  45046. 7991.45   1
  -6  -4  -7 1528.64 275.443   1
  -6  -4  -7 2612.89 601.662   1
  -6  -4  -7 1784.32 487.306   1
   6   4   7 2731.97 446.416   1
   6   4   7 2390.47 587.058   1
  -6  -4  -8  65019.  10440.   1
  -6  -4  -8  64030.  11321.   1
  -6  -4  -8  54482. 8110.53   1
   6   4   8  81263.  13038.   1
   6   4   8  56234. 9957.30   1
  -6  -4  -9  88587.  15619.   1
  -6  -4  -9  84678.  12528.   1
   6   4   9  61582. 9876.42   1
   6   4   9  64974.  11481.   1
  -6  -4 -10 1584.81 444.843   1
  -6  -4 -10 2929.68 638.732   1
   6   4  10 2563.47 466.636   1
   6   4  10 2981.35 693.102   1
  -6  -4 -11  62323.  11020.   1
  -6  -4 -11  60391. 8957.53   1
   6   4  11  54594. 8773.30   1
   6   4  11  75736.  13392.   1
  -6  -4 -12  85104.  15035.   1
  -6  -4 -12  54257. 8103.79   1
   6   4  12 101999.  18009.   1
  -6  -5   8  15428. 2844.30   1
  -6  -5   7  649.52 438.328   1
   6   5  -7  -67.36 219.568   1
  -6  -5   6  44125. 7807.23   1
   6   5  -6  60166. 9658.50   1
   6   5  -5  57627. 9242.86   1
  -6  -5   4 1713.77 303.302   1
  -6  -5   4 1835.77 446.865   1
   6   5  -4 1678.27 301.280   1
  -6  -5   3 118445.  18991.   1
  -6  -5   3 103977.  18319.   1
   6   5  -3 130532.  20939.   1
   6   5  -3  99236.  17511.   1
  -6  -5   2 125320.  22069.   1
   6   5  -2 139070.  22305.   1
   6   5  -2 149135.  23905.   1
   6   5  -2 189845.  33453.   1
  -6  -5   1 3711.52 751.066   1
   6   5  -1 3689.06 605.257   1
   6   5  -1 3985.62 656.481   1
   6   5  -1 3212.76 730.397   1
  -6  -5   0 243990.  42934.   1
   6   5   0 214221.  34352.   1
   6   5   0 244664.  39227.   1
   6   5   0 281734.  49584.   1
  -6  -5  -1  80072.  14132.   1
  -6  -5  -1  95529.  16839.   1
   6   5   1  92429.  14860.   1
   6   5   1 109032.  17520.   1
   6   5   1  93035.  16428.   1
   6   5   1  87374.  15437.   1
  -6  -5  -2  18048. 3232.98   1
  -6  -5  -2  29050. 5185.35   1
  -6  -5  -2  30353. 4511.34   1
   6   5   2  20443. 3693.55   1
   6   5   2  23545. 4230.51   1
   6   5   2  26533. 3949.67   1
  -6  -5  -3 126084.  18571.   1
   6   5   3 115210.  20326.   1
   6   5   3 130802.  23051.   1
   6   5   3 136778.  20168.   1
  -6  -5  -4  62570.  11065.   1
  -6  -5  -4  70703.  12487.   1
  -6  -5  -4  71332.  10557.   1
   6   5   4  56392. 9993.25   1
   6   5   4  82386.  12226.   1
  -6  -5  -5  14487. 2610.65   1
  -6  -5  -5  17059. 2608.40   1
   6   5   5  12119. 2227.36   1
   6   5   5  20710. 3325.09   1
  -6  -5  -6  63716.  11260.   1
  -6  -5  -6  42552. 6337.90   1
   6   5   6  56459.  10000.   1
  -6  -5  -7  36329. 6441.24   1
  -6  -5  -7  28960. 4360.81   1
   6   5   7  34981. 6223.31   1
  -6  -5  -8 6122.21 1168.28   1
  -6  -5  -8 3372.27 696.697   1
   6   5   8 3740.73 800.718   1
  -6  -5  -9  17906. 2878.00   1
  -6  -5  -9  37250. 6603.00   1
  -6  -5  -9  24174. 3666.59   1
   6   5   9  18863. 3030.78   1
   6   5   9  26084. 4670.86   1
  -6  -5 -10 2105.59 398.562   1
  -6  -5 -10 2707.25 624.803   1
  -6  -5 -10 2397.21 580.318   1
   6   5  10 2095.93 392.720   1
   6   5  10 2338.80 656.481   1
  -6  -5 -11  17675. 3206.02   1
  -6  -5 -11  13415. 2120.42   1
   6   5  11  19679. 3592.45   1
  -6  -5 -12 -100.92 484.160   1
  -6  -5 -12  136.24 548.191   1
  -6  -6   7 7658.95 1482.14   1
  -6  -6   6  13168. 2394.97   1
   6   6  -6 9692.19 1585.04   1
  -6  -6   5 4493.37 900.696   1
   6   6  -5 5275.21 875.533   1
  -6  -6   4 9359.69 1514.94   1
  -6  -6   4 8710.39 1590.20   1
   6   6  -4  11179. 1808.81   1
  -6  -6   3 3976.63 657.380   1
  -6  -6   3 3799.14 767.018   1
   6   6  -3 4147.38 687.261   1
   6   6  -3 4315.88 909.907   1
  -6  -6   2 8454.27 1547.97   1
   6   6  -2  12231. 1971.91   1
   6   6  -2 9867.44 1841.83   1
  -6  -6   1 133925.  23590.   1
   6   6  -1  78095.  12530.   1
   6   6  -1  79465.  12750.   1
   6   6  -1 120063.  21166.   1
  -6  -6   0 3376.77 696.472   1
   6   6   0 3709.28 811.727   1
  -6  -6  -1  83532.  14740.   1
   6   6   1  50393. 8937.31   1
  -6  -6  -2  44484. 7872.38   1
  -6  -6  -2  67401. 9952.81   1
   6   6   2  61132.  10827.   1
   6   6   2  46529. 6872.61   1
   6   6   2  69018.  10202.   1
  -6  -6  -3 2040.89 470.680   1
  -6  -6  -3 2451.13 563.468   1
   6   6   3 2500.56 620.309   1
   6   6   3 2316.33 824.084   1
  -6  -6  -4 241069.  42417.   1
  -6  -6  -4 167603.  24669.   1
   6   6   4 116828.  20609.   1
   6   6   4 143136.  21159.   1
  -6  -6  -5 181465.  31970.   1
  -6  -6  -5 145855.  21478.   1
   6   6   5 192586.  33925.   1
  -6  -6  -6  875.98 340.373   1
  -6  -6  -6  921.14 408.222   1
   6   6   6 1031.00 402.156   1
  -6  -6  -7  88048.  15522.   1
  -6  -6  -7  81240.  12020.   1
   6   6   7  82431.  14559.   1
  -6  -6  -8 113121.  19942.   1
  -6  -6  -8  83015.  12278.   1
   6   6   8 110222.  19443.   1
  -6  -6  -9 1073.24 382.835   1
  -6  -6  -9 1048.75 472.702   1
   6   6   9 1078.63 485.284   1
  -6  -6 -10 101056.  17834.   1
  -6  -6 -10  79128.  11716.   1
  -6  -6 -11  40980. 7294.98   1
  -6  -6 -11  45900. 6890.58   1
  -6  -6 -12  332.96 673.331   1
  -6  -7   6  59380.  10510.   1
  -6  -7   5 8593.57 1599.41   1
  -6  -7   4  67176.  11856.   1
   6   7  -4  67019.  10755.   1
  -6  -7   3  11352. 1838.24   1
  -6  -7   3  10011. 1831.95   1
   6   7  -3 8939.56 1459.22   1
  -6  -7   2  19584. 3504.83   1
   6   7  -2  10899. 1761.40   1
   6   7  -2  13044. 2388.23   1
  -6  -7   1  60121.  10613.   1
   6   7  -1  78904.  13936.   1
  -6  -7   0  10798. 1954.17   1
   6   7   0 9456.29 1766.79   1
  -6  -7  -1 4102.44 818.916   1
   6   7   1 2945.40 682.093   1
  -6  -7  -2  287.13 276.567   1
   6   7   2 1271.40 434.059   1
  -6  -7  -3 2363.51 532.464   1
  -6  -7  -3 2803.86 662.772   1
   6   7   3 2428.67 607.728   1
   6   7   3 1803.19 490.226   1
   6   7   3 3107.16 1214.56   1
  -6  -7  -4 8663.21 1589.53   1
  -6  -7  -4  11705. 1884.29   1
   6   7   4 9274.31 1734.44   1
  -6  -7  -5 2763.42 611.772   1
  -6  -7  -5 3291.39 730.172   1
   6   7   5 1582.79 490.226   1
  -6  -7  -6  43698. 7735.33   1
  -6  -7  -6  52483. 7811.72   1
   6   7   6  49921. 8854.18   1
  -6  -7  -7  29521. 5257.24   1
  -6  -7  -7  29926. 4518.08   1
   6   7   7  45563. 8097.05   1
  -6  -7  -8  25837. 4612.44   1
  -6  -7  -8  23590. 3592.45   1
   6   7   8  26151. 4691.08   1
  -6  -7  -9  68142.  12044.   1
  -6  -7 -10  10546. 2015.72   1
  -6  -8   5  49270. 8723.87   1
  -6  -8   4  854.86 399.236   1
  -6  -8   3  56616.  10013.   1
  -6  -8   2 165760.  29184.   1
  -6  -8   1  395.19 252.078   1
   6   8  -1  208.42 378.791   1
  -6  -8   0  76792.  13543.   1
   6   8   0  80544.  14224.   1
  -6  -8  -1  97641.  17207.   1
   6   8   1  80611.  14246.   1
  -6  -8  -2 3349.81 687.261   1
   6   8   2 3091.44 717.815   1
  -6  -8  -3  78904.  13907.   1
   6   8   3 120849.  21312.   1
   6   8   3  91395.  13516.   1
  -6  -8  -4  46057. 8150.97   1
  -6  -8  -4  75197.  11155.   1
   6   8   4  29184. 5223.54   1
   6   8   4  46439. 6924.28   1
  -6  -8  -5 3495.84 737.586   1
  -6  -8  -5 4762.97 966.299   1
   6   8   5 4846.10 1029.43   1
   6   8   5 3772.18 853.515   1
  -6  -8  -6  20139. 3612.67   1
   6   8   6  24916. 4479.89   1
  -6  -8  -7 2430.91 631.318   1
  -6  -8  -8 6571.55 1323.97   1
  -6  -8  -9 5252.75 1238.82   1
  -6  -9   3 4095.70 905.189   1
  -6  -9   2  10440. 1919.12   1
  -6  -9   1  67917.  11993.   1
  -6  -9   0 5996.40 1170.07   1
  -6  -9  -1  31251. 5560.54   1
  -6  -9  -2 104201.  18371.   1
  -6  -9  -3 5940.23 1160.64   1
   6   9   3 4641.65 1221.75   1
  -6  -9  -4  53920. 9539.42   1
   6   9   4  50438. 7560.09   1
  -6  -9  -5 122646.  21620.   1
   6   9   5 114536.  16951.   1
  -6  -9  -6  10252. 1948.32   1
   6   9   6  10636. 1918.22   1
  -6  -9  -7  56190. 9968.54   1
   6   9   7  50213. 7548.86   1
   6   9   8  62772. 9445.06   1
  -6 -10   0 2781.39 786.789   1
  -6 -10  -1 5821.16 1232.98   1
  -6 -10  -2 1108.29 583.014   1
  -6 -10  -3  13530. 2511.79   1
  -6 -10  -4  12530. 2356.77   1
  -7   7  -1  86722.  12923.   1
   7  -7   1  57043. 9152.99   1
  -7   7  -2  55493. 8375.64   1
   7  -7   2  62390.  10004.   1
   7  -6  -3  627.05 207.953   1
   7  -6  -2 8858.67 1440.80   1
  -7   6   1 1031.45 909.233   1
   7  -6  -1  134.78 182.745   1
  -7   6   0  19724. 3190.29   1
   7  -6   0  20708. 3334.08   1
  -7   6  -1 4720.28 1169.40   1
   7  -6   1 6890.58 1129.18   1
  -7   6  -2  15379. 2523.03   1
   7  -6   2  17326. 2792.63   1
  -7   6  -3  32532. 4960.68   1
   7  -6   3  37475. 6016.62   1
  -7   6  -4  814.42 825.207   1
   7  -6   4 1025.61 242.867   1
  -7   6  -5  54415. 8195.90   1
   7  -6   5  54931. 8818.23   1
  -7   6  -6  61245. 9170.96   1
   7  -6   6  48551. 7789.25   1
   7  -5  -4 4250.73 716.018   1
   7  -5  -3 111525.  17893.   1
   7  -5  -2  32442. 5214.55   1
  -7   5   1  17803. 2828.58   1
   7  -5  -1  13193. 2126.26   1
  -7   5   0  76522.  11359.   1
   7  -5   0  71782.  11519.   1
  -7   5  -1  45226. 6771.51   1
   7  -5   1  23478. 3772.18   1
  -7   5  -2  12429. 2017.30   1
   7  -5   2 5742.52 937.991   1
  -7   5  -3  19135. 3486.85   1
  -7   5  -3  22647. 3477.87   1
   7  -5   3  21716. 3493.59   1
   7  -5   3  18039. 3428.44   1
  -7   5  -4 2012.13 900.246   1
  -7   5  -4 1376.77 640.305   1
   7  -5   4 1554.26 290.496   1
   7  -5   4 1635.81 1063.36   1
  -7   5  -5 5495.39 1156.14   1
   7  -5   5 6394.06 1043.36   1
   7  -5   5 5733.54 1543.02   1
  -7   5  -6  929.90 764.771   1
   7  -5   6  512.92 182.161   1
  -7   5  -7  14934. 2507.30   1
   7  -5   7  13008. 2100.65   1
  -7   5  -8 7018.64 1462.82   1
   7  -5   8 5702.08 942.484   1
   7  -4  -5  19811. 3192.54   1
   7  -4  -4  74275.  11925.   1
   7  -4  -3 2260.16 391.148   1
  -7   4   2  61020. 9114.80   1
   7  -4  -2  67221.  10791.   1
  -7   4   1  70276.  12408.   1
  -7   4   1 126691.  18704.   1
   7  -4  -1 151584.  24309.   1
  -7   4   0 1872.61 565.266   1
  -7   4   0 3444.17 850.145   1
   7  -4   0 2094.81 364.637   1
   7  -4   0 2176.14 733.992   1
  -7   4  -1 108178.  19081.   1
  -7   4  -1 188025.  27702.   1
   7  -4   1 144776.  23208.   1
   7  -4   1 100696.  17791.   1
  -7   4  -2  80521.  14233.   1
  -7   4  -2  99146.  14671.   1
   7  -4   2  74949.  12026.   1
   7  -4   2  77511.  13720.   1
  -7   4  -3 1532.91 591.327   1
  -7   4  -3 1519.43 650.415   1
   7  -4   3 1488.65 277.690   1
   7  -4   3 1442.60 659.851   1
  -7   4  -4  94159.  16637.   1
  -7   4  -4  80723.  11952.   1
   7  -4   4  96405.  15462.   1
   7  -4   4  91575.  16196.   1
  -7   4  -5 132195.  19506.   1
   7  -4   5  89688.  14388.   1
   7  -4   5 118602.  20948.   1
  -7   4  -6 1709.73 606.829   1
   7  -4   6 2232.31 384.632   1
   7  -4   6 1865.65 817.793   1
  -7   4  -7  33453. 5046.05   1
   7  -4   7  31162. 5005.61   1
   7  -4   7  41429. 7411.81   1
  -7   4  -8  27499. 4248.48   1
   7  -4   8  23231. 3738.48   1
   7  -4   8  33543. 6036.84   1
  -7   4  -9 1458.32 895.978   1
   7  -4   9 1018.20 235.003   1
   7  -3  -6 5317.90 876.431   1
   7  -3  -5 8571.10 1391.15   1
   7  -3  -4 7908.33 1279.26   1
  -7   3   3  516.96 552.684   1
  -7   3   3  -28.53 810.154   1
   7  -3  -3 1286.68 245.787   1
  -7   3   2 2812.85 712.873   1
  -7   3   2 3457.65 893.956   1
   7  -3  -2 4313.63 710.851   1
  -7   3   1  403.06 425.073   1
  -7   3   1  538.31 526.847   1
   7  -3  -1  944.51 188.497   1
   7  -3  -1  779.82 563.468   1
  -7   3   0  49899. 8838.46   1
  -7   3   0  47293. 7088.29   1
   7  -3   0  51359. 8238.59   1
   7  -3   0  47090. 8366.65   1
  -7   3  -1  43878. 7780.27   1
  -7   3  -1  41541. 6252.52   1
   7  -3   1  43653. 7009.65   1
   7  -3   1  40216. 7160.18   1
  -7   3  -2  16093. 2909.46   1
  -7   3  -2  15060. 2426.42   1
   7  -3   2  14574. 2347.78   1
   7  -3   2  14006. 2570.21   1
  -7   3  -3  93799.  16549.   1
  -7   3  -3  98944.  14651.   1
   7  -3   3  76792.  12316.   1
   7  -3   3  76095.  13444.   1
  -7   3  -4 6591.77 1274.54   1
  -7   3  -4 8616.03 1490.23   1
   7  -3   4 6890.58 1123.57   1
   7  -3   4 6084.02 1210.29   1
  -7   3  -5  92159.  16264.   1
  -7   3  -5  87216.  12912.   1
   7  -3   5  79285.  12714.   1
   7  -3   5 100449.  17726.   1
  -7   3  -6 143878.  25365.   1
  -7   3  -6 151337.  22312.   1
   7  -3   6 161020.  25837.   1
   7  -3   6 161177.  28398.   1
   7  -3   7  12038. 1941.58   1
   7  -3   7  12310. 2296.11   1
  -7   3  -8  43743. 6542.34   1
   7  -3   8  47293. 7587.05   1
   7  -3   8  43968. 7818.46   1
  -7   3  -9  81779.  12146.   1
   7  -3   9  81307.  13042.   1
   7  -3   9  79038.  13970.   1
  -7   3 -10 7683.66 1454.05   1
   7  -3  10 4807.90 803.414   1
   7  -3  10 5803.18 1260.84   1
   7  -2  -7  418.11 220.916   1
   7  -2  -6 103819.  16652.   1
   7  -2  -5 226466.  36306.   1
  -7   2   4 1549.31 599.865   1
   7  -2  -4 1831.95 323.747   1
  -7   2   3 116783.  20598.   1
  -7   2   3 118400.  17520.   1
   7  -2  -3  93732.  15037.   1
  -7   2   2  83037.  14655.   1
  -7   2   2  85733.  12716.   1
   7  -2  -2  71871.  11537.   1
   7  -2  -2  81734.  14446.   1
  -7   2   1 5848.12 1125.59   1
  -7   2   1 5481.91 1073.02   1
   7  -2  -1 5915.52 964.052   1
   7  -2  -1 4502.35 958.660   1
  -7   2   0  95349.  16812.   1
  -7   2   0 104156.  15397.   1
   7  -2   0 169467.  27185.   1
   7  -2   0  96652.  17059.   1
  -7   2  -1  40463. 7169.17   1
  -7   2  -1  29948. 4540.55   1
   7  -2   1  20656. 3320.60   1
   7  -2   1  34150. 6066.05   1
  -7   2  -2 1788.36 489.328   1
  -7   2  -2 2785.89 715.344   1
   7  -2   2 1505.28 267.131   1
   7  -2   2 1893.51 529.094   1
  -7   2  -3 4178.83 848.123   1
  -7   2  -3 5059.53 992.136   1
   7  -2   3 3880.02 637.160   1
   7  -2   3 4093.46 871.489   1
  -7   2  -4  855.99 390.698   1
  -7   2  -4  812.40 566.614   1
   7  -2   4 1145.58 226.915   1
   7  -2   4  608.40 384.857   1
  -7   2  -5  14545. 2635.36   1
  -7   2  -5  15902. 2505.05   1
   7  -2   5  14610. 2354.52   1
   7  -2   5  13437. 2448.89   1
  -7   2  -6 4351.83 886.542   1
  -7   2  -6 5308.91 1020.22   1
   7  -2   6 6558.07 1067.85   1
   7  -2   6 4228.26 880.925   1
  -7   2  -7  13747. 2502.81   1
  -7   2  -7  15035. 2381.49   1
   7  -2   7  15614. 2514.04   1
   7  -2   7  13505. 2455.63   1
  -7   2  -8  31970. 5688.60   1
  -7   2  -8  30757. 4637.16   1
   7  -2   8  20252. 3255.45   1
   7  -2   8  22393. 4008.08   1
  -7   2  -9  844.75 464.390   1
  -7   2  -9  972.14 593.349   1
   7  -2   9 1231.41 247.809   1
   7  -2   9  810.60 527.072   1
  -7   2 -10  60189.  10667.   1
  -7   2 -10  59178. 8856.43   1
   7  -2  10 120490.  19328.   1
   7  -2  10  83509.  14743.   1
   7  -2  11  37587. 6041.33   1
   7  -2  11  23231. 4187.82   1
   7  -1  -7  28600. 4596.72   1
   7  -1  -6  26399. 4246.23   1
   7  -1  -5  21204. 3410.47   1
  -7   1   4 124916.  22024.   1
  -7   1   4 108987.  16165.   1
   7  -1  -4  97776.  15677.   1
  -7   1   3  15635. 2824.08   1
  -7   1   3  15502. 2509.55   1
   7  -1  -3  13228. 2131.20   1
  -7   1   2  47540. 8411.58   1
  -7   1   2  49247. 7375.86   1
   7  -1  -2  77533.  12431.   1
   7  -1  -2  54055. 9568.63   1
  -7   1   1 222759.  39205.   1
  -7   1   1 229162.  33723.   1
   7  -1  -1 279038.  44731.   1
   7  -1  -1 215614.  37969.   1
  -7   1   0  16969. 3044.26   1
  -7   1   0  12977. 2083.80   1
   7  -1   0  11009. 1777.35   1
   7  -1   0  13889. 2527.52   1
  -7   1  -1 109481.  19319.   1
  -7   1  -1 117704.  20735.   1
  -7   1  -1 128488.  18984.   1
  -7   1  -1 115951.  17120.   1
   7  -1   1 131970.  21162.   1
   7  -1   1  92855.  16378.   1
   7  -1   1 108470.  16059.   1
  -7   1  -2 273197.  48057.   1
  -7   1  -2 188587.  33228.   1
  -7   1  -2 205617.  30308.   1
  -7   1  -2 204336.  30106.   1
   7  -1   2 189081.  30330.   1
   7  -1   2 187261.  32981.   1
   7  -1   2 171759.  25320.   1
  -7   1  -3  29117. 5187.59   1
  -7   1  -3  35206. 5313.41   1
   7  -1   3  31409. 5041.56   1
   7  -1   3  27297. 4893.28   1
  -7   1  -4  36958. 6560.32   1
  -7   1  -4  39452. 5942.48   1
   7  -1   4  68164.  10935.   1
   7  -1   4  42507. 7548.86   1
  -7   1  -5 103370.  18232.   1
  -7   1  -5 103460.  15304.   1
   7  -1   5 106111.  17025.   1
   7  -1   5  95551.  16861.   1
  -7   1  -6 6629.96 1264.43   1
  -7   1  -6 6041.33 1133.00   1
   7  -1   6 5414.51 881.149   1
   7  -1   6 4996.62  999.10   1
  -7   1  -7  50393. 8926.08   1
  -7   1  -7  66165. 9833.74   1
   7  -1   7  66345.  10645.   1
   7  -1   7  51337. 9078.85   1
  -7   1  -8  33992. 6043.58   1
  -7   1  -8  34082. 5138.17   1
   7  -1   8  23815. 3826.10   1
   7  -1   8  36464. 6481.68   1
  -7   1  -9  953.94 402.381   1
  -7   1  -9 1362.84 544.372   1
   7  -1   9 1910.80 345.091   1
   7  -1   9 1007.86 487.530   1
  -7   1 -10 8344.18 1591.33   1
  -7   1 -10 8503.70 1499.44   1
   7  -1  10 9222.64 1496.74   1
   7  -1  10  12143. 2248.93   1
  -7   1 -11 2891.48 767.917   1
  -7   1 -11 1707.48 810.604   1
   7  -1  11 1948.10 377.668   1
   7  -1  11 2035.05 669.736   1
   7   0  -7  32599. 5241.51   1
   7   0  -6 4293.41 709.278   1
  -7   0   5  26151. 4214.78   1
   7   0  -5  22411. 3603.68   1
  -7   0   4  14633. 2655.58   1
  -7   0   4  10168. 1914.62   1
   7   0  -4  12957. 2088.74   1
  -7   0   3 6859.13 1294.54   1
  -7   0   3 7807.23 1501.23   1
   7   0  -3 9898.89 1600.31   1
   7   0  -3 7602.78 1471.35   1
  -7   0   2  13381. 2417.43   1
  -7   0   2  11492. 1944.73   1
  -7   0   2 7512.91 1388.68   1
   7   0  -2 7953.26 1288.02   1
   7   0  -2  10099. 1867.44   1
  -7   0   1 6389.57 1198.83   1
  -7   0   1 6845.65 1261.51   1
  -7   0   1 8449.78 1505.05   1
   7   0  -1  11348. 1830.82   1
   7   0  -1 6322.17 1239.72   1
  -7   0   0 118558.  20890.   1
  -7   0   0 142215.  25073.   1
  -7   0   0 130308.  19241.   1
  -7   0   0 126421.  18659.   1
   7   0   0 203999.  32712.   1
   7   0   0 115704.  20398.   1
   7   0   0 125253.  22092.   1
  -7   0  -1  44057. 7802.73   1
  -7   0  -1  39227. 6299.70   1
  -7   0  -1  47967. 8510.44   1
   7   0   1  46439. 7447.76   1
   7   0   1  46956. 7526.39   1
   7   0   1  47697. 7128.73   1
   7   0   1  53741. 9521.45   1
  -7   0  -2  16111. 2945.40   1
  -7   0  -2  20777. 3713.77   1
  -7   0  -2  20267. 3266.68   1
  -7   0  -2  19867. 3068.97   1
  -7   0  -2  22939. 3534.03   1
   7   0   2  18180. 2922.94   1
   7   0   2  18717. 3012.80   1
   7   0   2  18991. 3414.96   1
   7   0   2  18879. 2952.14   1
  -7   0  -3  81465.  14379.   1
  -7   0  -3  74141.  11894.   1
  -7   0  -3  78971.  13961.   1
  -7   0  -3 103482.  15311.   1
   7   0   3  84138.  13494.   1
   7   0   3  90092.  14455.   1
   7   0   3  72343.  10748.   1
   7   0   3  62975.  11144.   1
  -7   0  -4  77331.  13655.   1
  -7   0  -4  74230.  11907.   1
  -7   0  -4  91800.  13599.   1
   7   0   4 114042.  18299.   1
   7   0   4  83801.  12422.   1
   7   0   4  88474.  15630.   1
  -7   0  -5  46843. 8299.25   1
  -7   0  -5  58616. 8728.37   1
   7   0   5  61132. 9806.78   1
   7   0   5  61514.  10896.   1
  -7   0  -6 279038.  49068.   1
  -7   0  -6 226915.  33386.   1
   7   0   6 204965.  32869.   1
   7   0   6 240171.  42260.   1
  -7   0  -7  53965. 9543.91   1
  -7   0  -7  47113. 7043.35   1
   7   0   7  51966. 8341.94   1
   7   0   7  48394. 8568.85   1
  -7   0  -8  49607. 8775.55   1
  -7   0  -8  49494. 7380.36   1
   7   0   8  46372. 7447.76   1
   7   0   8  43383. 7699.39   1
  -7   0  -9 140081.  24691.   1
  -7   0  -9 140553.  20714.   1
   7   0   9 175983.  28218.   1
   7   0   9 159267.  28061.   1
  -7   0 -10  38665. 6859.13   1
  -7   0 -10  31836. 4805.66   1
   7   0  10  30555. 4909.00   1
   7   0  10  40261. 7151.19   1
  -7   0 -11  26758. 4798.92   1
  -7   0 -11  18448. 2909.46   1
   7   0  11  17088. 2754.43   1
   7   0  11  17985. 3248.71   1
  -7   0 -12  42013. 7458.99   1
  -7   0 -12  46147. 6960.23   1
   7   0  12  52977. 9384.40   1
   7   1  -7  20849. 3358.79   1
   7   1  -6  49674. 7973.48   1
  -7  -1   5 198876.  35003.   1
   7   1  -5 129701.  20800.   1
  -7  -1   4  15325. 2761.17   1
  -7  -1   4 8274.54 1502.58   1
   7   1  -4  19236. 3093.68   1
  -7  -1   3  27387. 4875.30   1
  -7  -1   3  42035. 6315.43   1
  -7  -1   3  28128. 4295.66   1
   7   1  -3  57156. 9173.21   1
   7   1  -3  42575. 7569.08   1
  -7  -1   2 121321.  21375.   1
  -7  -1   2 117232.  17315.   1
  -7  -1   2 107234.  15837.   1
   7   1  -2  64704.  10375.   1
   7   1  -2 144799.  25522.   1
  -7  -1   1 2698.27 582.340   1
  -7  -1   1 3839.58 909.682   1
  -7  -1   1 2341.04 659.402   1
   7   1  -1 2388.23 403.280   1
   7   1  -1 3259.94 708.829   1
  -7  -1   0  33813. 6039.09   1
  -7  -1   0  32644. 5248.25   1
  -7  -1   0  30375. 5401.03   1
  -7  -1   0  35677. 5385.30   1
  -7  -1   0  34958. 5246.01   1
   7   1   0  31341. 5034.82   1
   7   1   0  32532. 5228.03   1
   7   1   0  26848. 4821.38   1
   7   1   0  34217. 6101.99   1
  -7  -1  -1  22669. 4079.98   1
  -7  -1  -1  25320. 4515.83   1
  -7  -1  -1  26758. 4300.15   1
  -7  -1  -1  37407. 5614.46   1
  -7  -1  -1  31903. 4828.12   1
   7   1   1  22152. 3560.99   1
   7   1   1  23590. 3792.40   1
   7   1   1  26601. 4030.55   1
   7   1   1  23613. 4241.74   1
   7   1   1  21193. 3828.35   1
  -7  -1  -2 2628.62 665.018   1
  -7  -1  -2 3504.83 591.552   1
  -7  -1  -2 2045.83 493.372   1
  -7  -1  -2 3653.11 806.784   1
   7   1   2 2864.52 485.733   1
   7   1   2 2972.36 493.596   1
   7   1   2 2860.03 759.604   1
   7   1   2 1589.75 466.636   1
  -7  -1  -3 6108.73 1164.23   1
  -7  -1  -3 7717.36 1257.47   1
  -7  -1  -3 9391.14 1778.25   1
  -7  -1  -3 6978.20 1220.62   1
   7   1   3 8200.40 1326.89   1
   7   1   3 9229.38 1494.72   1
   7   1   3 8651.98 1522.35   1
   7   1   3 6499.66 1237.70   1
  -7  -1  -4 5976.18 1146.26   1
  -7  -1  -4 8705.90 1414.51   1
  -7  -1  -4 6580.54 1321.95   1
  -7  -1  -4 7375.86 1301.95   1
   7   1   4 9541.67 1540.55   1
   7   1   4 8568.85 1523.93   1
   7   1   4 9269.82 1718.71   1
  -7  -1  -5  38890. 6904.06   1
  -7  -1  -5  45181. 7256.79   1
  -7  -1  -5  41698. 6257.02   1
   7   1   5  49337. 7906.08   1
   7   1   5  40598. 6146.93   1
   7   1   5  53786. 9525.94   1
  -7  -1  -6 2895.98 654.459   1
  -7  -1  -6 2965.62 721.860   1
   7   1   6 2478.09 414.064   1
   7   1   6 3008.31 700.067   1
  -7  -1  -7  61537.  10872.   1
  -7  -1  -7  72163.  10732.   1
   7   1   7  69310.  11114.   1
   7   1   7  70501.  12460.   1
  -7  -1  -8  31476. 5603.23   1
  -7  -1  -8  27365. 4160.86   1
   7   1   8  34532. 5540.32   1
   7   1   8  31746. 5648.16   1
  -7  -1  -9 6818.69 1306.45   1
  -7  -1  -9 6254.77 1128.51   1
   7   1   9  13157. 2121.54   1
   7   1   9  11177. 2069.65   1
  -7  -1 -10  51067. 9047.40   1
  -7  -1 -10  64008. 9496.73   1
   7   1  10  84543.  13570.   1
   7   1  10 106246.  18733.   1
  -7  -1 -11 105684.  18634.   1
  -7  -1 -11  98158.  14527.   1
   7   1  11  74949.  12031.   1
   7   1  11  84116.  14844.   1
  -7  -1 -12  636.26 486.856   1
  -7  -1 -12  319.25 698.719   1
   7   1  12  565.04 522.579   1
   7   2  -7  78364.  12572.   1
  -7  -2   6  15071. 2763.42   1
   7   2  -6  42530. 6825.43   1
  -7  -2   5 7241.06 1355.42   1
   7   2  -5 9420.35 1525.05   1
  -7  -2   4 139721.  24601.   1
   7   2  -4 197888.  31723.   1
  -7  -2   3  39519. 7007.41   1
   7   2  -3  65064.  10440.   1
   7   2  -3  35026. 6241.29   1
  -7  -2   2  52550. 9294.53   1
   7   2  -2  44979. 7216.35   1
   7   2  -2  67985.  12033.   1
  -7  -2   1 180184.  31723.   1
  -7  -2   1 134913.  19960.   1
  -7  -2   1 139564.  20627.   1
   7   2  -1 177645.  28488.   1
   7   2  -1 151426.  24287.   1
   7   2  -1 140508.  24781.   1
  -7  -2   0  62975.  11132.   1
  -7  -2   0  50101. 7456.74   1
  -7  -2   0  43833. 6499.66   1
   7   2   0  74186.  11894.   1
   7   2   0  49584. 7953.26   1
   7   2   0 107391.  18935.   1
  -7  -2  -1  33049. 5872.83   1
  -7  -2  -1  43653. 7005.16   1
  -7  -2  -1  60930.  10780.   1
   7   2   1  33858. 5432.48   1
   7   2   1  39744. 6385.08   1
   7   2   1  61402. 9096.82   1
   7   2   1  36351. 6463.71   1
   7   2   1  41272. 7328.68   1
  -7  -2  -2 191889.  33790.   1
  -7  -2  -2 212896.  34150.   1
  -7  -2  -2 158144.  27859.   1
  -7  -2  -2 155493.  22916.   1
   7   2   2 179622.  28802.   1
   7   2   2 146237.  23455.   1
   7   2   2 230734.  33947.   1
   7   2   2 182049.  32083.   1
  -7  -2  -3  67198.  11876.   1
  -7  -2  -3  49876. 8000.44   1
  -7  -2  -3  52932. 9382.15   1
  -7  -2  -3  50932. 7589.30   1
   7   2   3  47540. 7627.49   1
   7   2   3  45203. 7259.04   1
   7   2   3  60391. 8980.00   1
   7   2   3  56774.  10061.   1
  -7  -2  -4  18178. 3295.89   1
  -7  -2  -4  28982. 5162.88   1
  -7  -2  -4  23950. 3662.09   1
  -7  -2  -4  34150. 5486.40   1
   7   2   4  41766. 6704.10   1
   7   2   4  26017. 4181.08   1
   7   2   4  31880. 4823.63   1
   7   2   4  24848. 4434.95   1
  -7  -2  -5  51764. 9166.47   1
  -7  -2  -5  48551. 7789.25   1
  -7  -2  -5  49427. 7371.37   1
   7   2   5  55695. 8935.06   1
   7   2   5  57156. 8535.15   1
   7   2   5  49247. 8723.87   1
  -7  -2  -6  14388. 2320.82   1
  -7  -2  -6  14408. 2612.89   1
  -7  -2  -6  12770. 2042.46   1
   7   2   6  15268. 2455.63   1
   7   2   6  13462. 2469.11   1
  -7  -2  -7  15626. 2817.34   1
  -7  -2  -7  15388. 2421.93   1
   7   2   7  10647. 1718.04   1
   7   2   7  14329. 2612.89   1
  -7  -2  -8  23478. 4192.31   1
  -7  -2  -8  23792. 3653.11   1
   7   2   8  19894. 3197.03   1
   7   2   8  24107. 4302.40   1
  -7  -2  -9 2108.06 526.847   1
  -7  -2  -9 1962.03 620.759   1
   7   2   9 3084.70 520.781   1
   7   2   9 1756.46 503.033   1
  -7  -2 -10  17468. 3154.34   1
  -7  -2 -10  16756. 2601.66   1
   7   2  10  14781. 2383.73   1
   7   2  10  17014. 3080.20   1
  -7  -2 -11 1950.35 532.913   1
  -7  -2 -11 2059.31 648.618   1
   7   2  11  903.17 263.985   1
   7   2  11 3257.69 773.309   1
  -7  -2 -12  17848. 3230.73   1
  -7  -2 -12  17430. 2756.68   1
   7   2  12  18319. 3340.82   1
  -7  -3   7  210.87 481.015   1
   7   3  -7  14938. 2415.19   1
  -7  -3   6 2188.05 598.517   1
   7   3  -6 2556.73 450.235   1
  -7  -3   5  12337. 2243.76   1
   7   3  -5 9620.30 1557.18   1
  -7  -3   4 2837.56 614.243   1
   7   3  -4 2828.58 477.420   1
  -7  -3   3 4956.18 957.986   1
   7   3  -3 5996.40 976.634   1
   7   3  -3 5003.37 984.497   1
  -7  -3   2  41743. 7396.08   1
   7   3  -2  40126. 6445.74   1
   7   3  -2  33453. 5962.70   1
  -7  -3   1  616.27 313.862   1
   7   3  -1  802.29 210.200   1
   7   3  -1  709.05 161.986   1
   7   3  -1  783.64 410.469   1
  -7  -3   0  79353.  13999.   1
   7   3   0  72725.  11667.   1
   7   3   0  85486.  13718.   1
   7   3   0  86542.  15291.   1
  -7  -3  -1 101707.  17933.   1
  -7  -3  -1  92271.  13601.   1
  -7  -3  -1  91867.  13559.   1
   7   3   1  85464.  13709.   1
   7   3   1  99798.  16005.   1
   7   3   1 105212.  18555.   1
  -7  -3  -2 3154.34 820.264   1
  -7  -3  -2 3071.22 656.481   1
  -7  -3  -2 3525.05 770.837   1
   7   3   2 3500.33 694.001   1
  -7  -3  -3 170703.  30061.   1
  -7  -3  -3 181015.  29027.   1
  -7  -3  -3 148214.  21840.   1
   7   3   3 290496.  46596.   1
   7   3   3 189418.  30375.   1
   7   3   3 215524.  31701.   1
   7   3   3 165985.  29252.   1
  -7  -3  -4 190586.  33565.   1
  -7  -3  -4 136104.  21831.   1
  -7  -3  -4  94293.  13950.   1
   7   3   4  83195.  13336.   1
   7   3   4 133655.  21431.   1
   7   3   4 121928.  18005.   1
   7   3   4 136441.  24062.   1
  -7  -3  -5  11249. 2064.03   1
  -7  -3  -5 9119.29 1475.62   1
  -7  -3  -5 9186.69 1537.86   1
   7   3   5 9242.86 1489.78   1
   7   3   5 9213.65 1487.30   1
   7   3   5  13089. 2180.63   1
   7   3   5 9624.79 1785.44   1
  -7  -3  -6 233655.  37452.   1
  -7  -3  -6 174747.  30780.   1
  -7  -3  -6 198315.  29184.   1
   7   3   6 251629.  40373.   1
   7   3   6 308694.  54325.   1
  -7  -3  -7 104673.  16787.   1
  -7  -3  -7 132105.  23276.   1
  -7  -3  -7 105999.  15659.   1
   7   3   7  99461.  15945.   1
   7   3   7 140126.  24691.   1
  -7  -3  -8 4075.48 817.793   1
  -7  -3  -8 4900.02 955.515   1
   7   3   8 5973.93 975.510   1
   7   3   8 5711.07 1102.90   1
  -7  -3  -9 114850.  20247.   1
  -7  -3  -9 107189.  15839.   1
   7   3   9  97304.  15614.   1
   7   3   9  91844.  16212.   1
  -7  -3 -10  29454. 5246.01   1
  -7  -3 -10  32554. 4891.03   1
   7   3  10  30667. 4929.22   1
   7   3  10  38913. 6915.29   1
  -7  -3 -11  11258. 2062.91   1
  -7  -3 -11  10505. 1746.12   1
   7   3  11 9674.22 1589.30   1
   7   3  11  13516. 2489.33   1
  -7  -3 -12  39924. 7099.52   1
  -7  -3 -12  37969. 5733.54   1
   7   3  12  36306. 6472.70   1
  -7  -4   7  13105. 2403.95   1
  -7  -4   6  43608. 7728.59   1
   7   4  -6  39497. 6349.13   1
  -7  -4   5 117502.  20710.   1
   7   4  -5  87306.  14001.   1
  -7  -4   4  21624. 3862.05   1
   7   4  -4  23298. 3747.47   1
  -7  -4   3 2376.99 520.107   1
   7   4  -3 3109.41 519.883   1
   7   4  -3 2223.54 520.557   1
  -7  -4   2 9912.37 1813.07   1
   7   4  -2  17616. 2833.07   1
   7   4  -2  18798. 3376.77   1
  -7  -4   1  13112. 2372.50   1
   7   4  -1 7694.89 1256.79   1
   7   4  -1 8872.16 1433.61   1
   7   4  -1  10144. 1890.36   1
  -7  -4   0  28600. 5086.49   1
   7   4   0  28398. 4558.52   1
   7   4   0  24871. 3996.85   1
   7   4   0  32015. 5722.30   1
  -7  -4  -1 3273.42 690.631   1
   7   4   1 4877.55 791.956   1
   7   4   1 3441.92 568.411   1
   7   4   1 4574.25 947.651   1
  -7  -4  -2 9840.48 1810.38   1
  -7  -4  -2  10292. 1599.19   1
   7   4   2  11078. 1781.62   1
   7   4   2 9431.58 1518.98   1
   7   4   2 8625.02 1350.26   1
   7   4   2 9602.33 1792.18   1
  -7  -4  -3 2671.31 584.138   1
  -7  -4  -3 1924.28 583.464   1
   7   4   3 2074.14 344.417   1
   7   4   3 2541.00 414.963   1
   7   4   3 3068.97 705.234   1
   7   4   3 2359.02 581.217   1
  -7  -4  -4 7205.12 1354.53   1
  -7  -4  -4 5358.34 980.677   1
   7   4   4 5693.10 915.973   1
   7   4   4 6528.86 1051.90   1
   7   4   4 6899.57 1287.80   1
   7   4   4 7807.23 1495.39   1
  -7  -4  -5  47989. 8503.70   1
  -7  -4  -5  36419. 5848.12   1
  -7  -4  -5  34195. 5142.66   1
   7   4   5  36756. 5893.05   1
   7   4   5  44462. 7130.97   1
   7   4   5  43698. 7760.05   1
   7   4   5  38576. 5848.12   1
  -7  -4  -6  12390. 1993.03   1
  -7  -4  -6  10276. 1893.28   1
  -7  -4  -6 9941.58 1598.07   1
   7   4   6  10440. 1680.07   1
   7   4   6  12260. 1969.22   1
   7   4   6  11227. 2067.85   1
  -7  -4  -7  61986. 9946.07   1
  -7  -4  -7 140058.  24669.   1
  -7  -4  -7  57740. 8582.33   1
   7   4   7  54886. 8804.75   1
   7   4   7 143878.  25343.   1
  -7  -4  -8  89935.  15855.   1
  -7  -4  -8  78567.  11633.   1
   7   4   8  91755.  14714.   1
   7   4   8 116693.  20571.   1
  -7  -4  -9 5848.12 1121.99   1
  -7  -4  -9 2410.69 654.908   1
   7   4   9 2320.82 423.051   1
   7   4   9 3219.50 729.723   1
  -7  -4 -10  69175.  12224.   1
  -7  -4 -10  59807. 8890.13   1
   7   4  10  53718. 8622.77   1
   7   4  10  65963.  11672.   1
  -7  -4 -11  75107.  13267.   1
  -7  -4 -11  74590.  11060.   1
   7   4  11  91036.  16077.   1
  -7  -4 -12  807.68 536.284   1
  -7  -4 -12  738.93 683.891   1
   7   4  12  417.66 554.931   1
  -7  -5   6  39811. 7074.81   1
  -7  -5   5 2332.06 587.732   1
   7   5  -5 2615.14 486.856   1
  -7  -5   4 115772.  20393.   1
   7   5  -4 112357.  18009.   1
  -7  -5   3 102179.  18012.   1
   7   5  -3  98427.  15794.   1
   7   5  -3 150415.  26488.   1
  -7  -5   2 2682.54 584.138   1
   7   5  -2 2835.32 480.790   1
   7   5  -2 2824.08 627.274   1
  -7  -5   1 127230.  22411.   1
   7   5  -1 141901.  22759.   1
   7   5  -1 189148.  33296.   1
  -7  -5   0  68412.  12067.   1
   7   5   0  74343.  11934.   1
   7   5   0  87284.  14006.   1
   7   5   0  78679.  13900.   1
  -7  -5  -1  24691. 4403.50   1
   7   5   1  22438. 3601.43   1
   7   5   1  16163. 2594.92   1
   7   5   1  19425. 3509.32   1
  -7  -5  -2  93597.  16511.   1
   7   5   2 110919.  19571.   1
  -7  -5  -3  41519. 7355.64   1
  -7  -5  -3  41519. 6180.63   1
   7   5   3  37430. 6665.91   1
   7   5   3  46888. 6978.20   1
  -7  -5  -4 6131.20 1160.41   1
  -7  -5  -4 8362.16 1380.59   1
   7   5   4 6638.95 1295.44   1
   7   5   4 7139.96 1374.75   1
  -7  -5  -5  69175.  12222.   1
  -7  -5  -5  59200. 8791.27   1
   7   5   5  53246. 9424.84   1
  -7  -5  -6 4589.98 910.581   1
  -7  -5  -6 3765.44 763.873   1
   7   5   6 4796.67 960.907   1
  -7  -5  -7 9844.97 1810.83   1
  -7  -5  -7 9130.52 1499.89   1
   7   5   7  10348. 1918.89   1
  -7  -5  -8 3179.06 673.107   1
  -7  -5  -8 3035.27 695.573   1
   7   5   8 2758.93 656.032   1
  -7  -5  -9 2300.60 549.090   1
  -7  -5  -9 2236.12 621.208   1
   7   5   9 1603.46 514.940   1
  -7  -5 -10  14062. 2570.21   1
  -7  -5 -10 8407.09 1438.78   1
   7   5  10  11404. 2141.31   1
  -7  -5 -11  262.86 447.539   1
  -7  -5 -11  151.36 598.966   1
   7   5  11  534.71 545.495   1
  -7  -6   6   93.51 418.782   1
  -7  -6   5  16688. 3017.30   1
  -7  -6   4  12089. 2197.03   1
   7   6  -4  10240. 1676.48   1
  -7  -6   3  18917. 3392.49   1
   7   6  -3  22736. 3664.34   1
   7   6  -3  18978. 3432.93   1
  -7  -6   2  32757. 5800.94   1
   7   6  -2  32420. 5210.06   1
   7   6  -2  32757. 5832.39   1
  -7  -6   1  729.27 299.708   1
   7   6  -1 1210.96 243.316   1
   7   6  -1 1086.27 447.315   1
  -7  -6   0  66569.  11743.   1
   7   6   0  57290.  10148.   1
  -7  -6  -1  69804.  12312.   1
   7   6   1  66861.  11822.   1
  -7  -6  -2 1221.52 357.897   1
   7   6   2  811.50 366.659   1
  -7  -6  -3  75017.  13242.   1
  -7  -6  -3  98135.  14482.   1
   7   6   3  65289.  11550.   1
   7   6   3  66704. 9885.41   1
   7   6   3  76971.  11361.   1
  -7  -6  -4 195551.  34419.   1
  -7  -6  -4 190137.  27994.   1
   7   6   4 199708.  35161.   1
  -7  -6  -5  10959. 1985.84   1
  -7  -6  -5  13038. 2068.75   1
   7   6   5  13228. 2421.93   1
  -7  -6  -6 129679.  22849.   1
  -7  -6  -6 112222.  16565.   1
   7   6   6 130555.  23006.   1
  -7  -6  -7  96787.  17073.   1
  -7  -6  -7  82521.  12213.   1
   7   6   7  88856.  15689.   1
  -7  -6  -8 2509.55 558.975   1
  -7  -6  -8  194.38 501.011   1
   7   6   8 2448.89 629.071   1
  -7  -6  -9  69692.  12314.   1
   7   6   9  68591.  12143.   1
  -7  -6 -10  58931.  10434.   1
   7   6  10 -388.00 560.997   1
  -7  -6 -11 1815.10 660.974   1
  -7  -7   5  45585. 8076.83   1
  -7  -7   4  10470. 1912.38   1
  -7  -7   3 6436.75 1219.95   1
  -7  -7   2 6151.42 1158.84   1
   7   7  -2  10793. 2017.52   1
  -7  -7   1 4324.87 854.189   1
   7   7  -1 4868.56 1009.88   1
  -7  -7   0 3197.03 680.296   1
   7   7   0 3960.90 851.493   1
  -7  -7  -1  292.07 235.902   1
   7   7   1 1009.21 431.139   1
  -7  -7  -2  11667. 2111.88   1
   7   7   2  12941. 2376.99   1
  -7  -7  -3  20847. 3729.50   1
   7   7   3  25388. 4545.04   1
   7   7   3  14383. 2183.55   1
   7   7   3  17457. 2702.76   1
  -7  -7  -4  13062. 2370.25   1
  -7  -7  -4  19847. 3098.18   1
   7   7   4  13237. 2428.67   1
   7   7   4  14869. 2352.28   1
  -7  -7  -5  90025.  15857.   1
  -7  -7  -5  95574.  14127.   1
   7   7   5  71018.  12566.   1
  -7  -7  -6  11957. 2184.45   1
  -7  -7  -6  11818. 1938.66   1
   7   7   6  12199. 2246.68   1
  -7  -7  -7  44417. 7863.39   1
   7   7   7  31723. 5663.89   1
  -7  -7  -8  85599.  15116.   1
   7   7   8  63581.  11290.   1
  -7  -7  -9  13392. 2464.61   1
  -7  -7 -10  37879. 6744.55   1
  -7  -8   4  39901. 7074.81   1
  -7  -8   3  84430.  14905.   1
  -7  -8   2 5005.61 997.752   1
  -7  -8   1  70231.  12402.   1
   7   8  -1  60997.  10813.   1
  -7  -8   0 104785.  18472.   1
   7   8   0 130061.  22939.   1
  -7  -8  -1  643.90 303.976   1
   7   8   1  358.57 435.632   1
  -7  -8  -2  34576. 6126.71   1
   7   8   2  35745. 6369.35   1
  -7  -8  -3  17785. 3188.04   1
   7   8   3  20948. 3772.18   1
  -7  -8  -4 3003.82 635.812   1
  -7  -8  -4 3356.55 991.911   1
   7   8   4 4850.59 1031.00   1
   7   8   4 3028.53 957.537   1
  -7  -8  -5  39227. 6960.23   1
  -7  -8  -5  40867. 6169.39   1
   7   8   5  41878. 7465.73   1
   7   8   5  44462. 6704.10   1
  -7  -8  -6 1521.45 496.293   1
  -7  -8  -7 4506.85 961.805   1
  -7  -8  -8 2120.42 670.410   1
  -7  -8  -9 6933.27 1478.09   1
  -7  -9   2  27769. 4958.43   1
  -7  -9   1  16855. 3053.24   1
  -7  -9   0  52595. 9305.76   1
  -7  -9  -1 103887.  18315.   1
  -7  -9  -2  13024. 2381.49   1
  -7  -9  -3  37070. 6587.28   1
  -7  -9  -4  70928.  12539.   1
  -7  -9  -5  14871. 2720.73   1
  -7  -9  -6  30330. 5432.48   1
  -7  -9  -7  73354.  12993.   1
   8  -5  -2 1810.83 342.619   1
   8  -5  -1  22098. 3556.50   1
   8  -5   0  12013. 1942.71   1
   8  -5   1 5475.17 905.189   1
  -8   5  -2 3763.20 1154.12   1
   8  -5   2 2642.10 468.434   1
  -8   5  -3  940.24 910.581   1
   8  -5   3  843.41 229.162   1
  -8   5  -4 6946.75 1524.82   1
   8  -5   4 5904.29 970.118   1
  -8   5  -5 1075.26 942.709   1
   8  -5   5 1477.19 301.730   1
  -8   5  -6  11188. 2036.17   1
   8  -5   6  15686. 2529.77   1
   8  -4  -3  66951.  10753.   1
   8  -4  -2 100517.  16120.   1
   8  -4  -1 3055.49 528.420   1
   8  -4   0  58099. 9319.25   1
  -8   4  -1  474.50 801.167   1
   8  -4   1 102539.  16441.   1
  -8   4  -2  595.15 692.653   1
   8  -4   2  544.37 168.614   1
  -8   4  -3  58818. 8784.53   1
   8  -4   3  45001. 7225.34   1
   8  -4   3  52280. 9409.11   1
  -8   4  -4  40890. 6182.87   1
   8  -4   4  31274. 5021.34   1
   8  -4   4  35520. 6463.71   1
  -8   4  -5 3484.61 953.717   1
   8  -4   5 2158.61 387.778   1
   8  -4   5 2212.98 1077.73   1
  -8   4  -6  38823. 5893.05   1
   8  -4   6  34644. 5562.79   1
  -8   4  -7  12510. 2148.50   1
   8  -4   7  14033. 2266.90   1
  -8   4  -8 5823.40 1322.62   1
   8  -3  -4 7771.28 1266.91   1
   8  -3  -3  20139. 3241.97   1
   8  -3  -2  217.64 141.743   1
  -8   3   1  18697. 3421.70   1
   8  -3  -1  24736. 3974.38   1
   8  -3  -1  17553. 3329.59   1
  -8   3   0 8391.36 1657.60   1
   8  -3   0  12465. 2011.23   1
   8  -3   0  14015. 2718.49   1
  -8   3  -1  31588. 5652.66   1
  -8   3  -1  36846. 5605.48   1
   8  -3   1  35745. 5742.52   1
   8  -3   1  31364. 5663.89   1
  -8   3  -2  74702.  13208.   1
  -8   3  -2  90092.  13352.   1
   8  -3   2  79959.  12822.   1
   8  -3   2  64255.  11413.   1
  -8   3  -3  18993. 2979.10   1
   8  -3   3  16628. 2675.80   1
   8  -3   3  17758. 3289.15   1
  -8   3  -4  48663. 7292.74   1
   8  -3   4  37542. 6025.61   1
   8  -3   4  49247. 8784.53   1
  -8   3  -5 125500.  18537.   1
   8  -3   5 191934.  30780.   1
   8  -3   5 141811.  25028.   1
  -8   3  -6  26691. 4118.17   1
   8  -3   6  27028. 4342.84   1
   8  -3   6  26331. 4785.44   1
  -8   3  -7  39519. 5973.93   1
   8  -3   7  68164.  10930.   1
   8  -3   7  56774.  10112.   1
  -8   3  -8  75331.  11231.   1
   8  -3   8 114581.  18380.   1
   8  -3   8  71197.  12629.   1
  -8   3  -9  11575. 1983.15   1
   8  -3   9  14532. 2345.54   1
   8  -2  -5 1428.67 315.659   1
   8  -2  -4  36014. 5789.70   1
   8  -2  -3  51966. 8335.20   1
   8  -2  -2 2397.21 409.346   1
  -8   2   1  35048. 6248.03   1
   8  -2  -1  36913. 5924.51   1
   8  -2  -1  38036. 6814.19   1
  -8   2   0  12253. 2275.89   1
  -8   2   0 8968.76 1679.17   1
   8  -2   0 7795.99 1264.21   1
   8  -2   0 8539.65 1730.17   1
  -8   2  -1 8815.99 1680.07   1
  -8   2  -1 9402.37 1682.09   1
   8  -2   1 7153.44 1162.66   1
   8  -2   1 7324.19 1515.16   1
  -8   2  -2 1870.59 542.799   1
  -8   2  -2 2223.09 751.740   1
   8  -2   2 2338.80 405.302   1
   8  -2   2 1676.25 653.560   1
  -8   2  -3 8115.02 1551.56   1
  -8   2  -3 9442.81 1665.92   1
   8  -2   3  12633. 2037.52   1
   8  -2   3  11445. 2147.83   1
  -8   2  -4  10083. 1885.87   1
  -8   2  -4  12701. 2101.77   1
   8  -2   4  11943. 1926.31   1
   8  -2   4  13851. 2549.99   1
  -8   2  -5  811.73 408.222   1
  -8   2  -5 1250.73 643.675   1
   8  -2   5  745.45 177.803   1
   8  -2   5  532.46 467.760   1
   8  -2   6  65873.  10562.   1
   8  -2   6  50618. 8993.48   1
  -8   2  -7  25208. 3868.79   1
   8  -2   7  49674. 7966.74   1
   8  -2   7  28151. 5059.53   1
  -8   2  -8  11995. 2008.98   1
   8  -2   8  11330. 1832.40   1
   8  -2   8 9934.84 1905.64   1
  -8   2  -9  51764. 7780.27   1
   8  -2   9  64839.  10407.   1
   8  -2   9  54774. 9712.42   1
  -8   2 -10  34195. 5252.75   1
   8  -1  -5 101685.  16306.   1
   8  -1  -4  15960. 2572.45   1
   8  -1  -3  70231.  11267.   1
  -8   1   2  95170.  14172.   1
   8  -1  -2 104561.  16769.   1
   8  -1  -2 116558.  20573.   1
  -8   1   1  20359. 3664.34   1
  -8   1   1  24669. 3893.50   1
   8  -1  -1  22182. 3565.49   1
   8  -1  -1  17376. 3176.81   1
  -8   1   0  38958. 6913.05   1
  -8   1   0  40013. 6066.05   1
   8  -1   0  39250. 6301.95   1
   8  -1   0  36261. 6465.96   1
  -8   1  -1 165783.  29184.   1
  -8   1  -1 121164.  17917.   1
   8  -1   1 194585.  31206.   1
   8  -1   1 157627.  27769.   1
  -8   1  -2  35385. 6288.47   1
  -8   1  -2  32869. 5010.10   1
   8  -1   2  29342. 4713.54   1
   8  -1   2  29027. 5187.59   1
  -8   1  -3  27904. 4978.65   1
  -8   1  -3  24377. 3754.21   1
   8  -1   3  23231. 3733.99   1
   8  -1   3  29836. 5333.63   1
  -8   1  -4  81420.  14372.   1
  -8   1  -4  73804.  10982.   1
   8  -1   4  76073.  12204.   1
   8  -1   4  78836.  13923.   1
  -8   1  -5 1909.23 516.962   1
  -8   1  -5 1680.52 665.692   1
   8  -1   5 2123.79 373.399   1
   8  -1   5 2660.07 641.204   1
  -8   1  -6  57358.  10146.   1
  -8   1  -6  66794. 9939.33   1
   8  -1   6  72815.  11681.   1
   8  -1   6  42013. 7450.00   1
  -8   1  -7  19297. 3468.88   1
  -8   1  -7  20744. 3219.50   1
   8  -1   7  21245. 3417.21   1
   8  -1   7  18598. 3347.56   1
  -8   1  -8 1537.18 516.962   1
  -8   1  -8 1623.23 665.018   1
   8  -1   8 1013.93 220.894   1
   8  -1   8 1019.10 492.922   1
  -8   1  -9  13058. 2421.93   1
  -8   1  -9  10910. 1878.23   1
   8  -1   9  12514. 2021.79   1
   8  -1   9  11622. 2163.78   1
  -8   1 -10 2651.09 734.890   1
  -8   1 -10 1282.86 796.674   1
   8  -1  10 3051.00 548.416   1
   8  -1  10 2635.36 761.401   1
   8   0  -6 9031.67 1472.25   1
   8   0  -5 2410.69 434.509   1
   8   0  -4  14675. 2365.76   1
  -8   0   3  13004. 2496.07   1
   8   0  -3  15561. 2507.30   1
   8   0  -3  14255. 2628.62   1
  -8   0   2  12676. 2307.34   1
  -8   0   2  14217. 2500.56   1
   8   0  -2  16268. 2619.63   1
   8   0  -2  12460. 2316.33   1
  -8   0   1  45810. 8124.01   1
  -8   0   1  58144. 8730.61   1
   8   0  -1  49899. 8016.17   1
   8   0  -1  56324. 9979.77   1
  -8   0   0  76837.  13563.   1
  -8   0   0  57178. 8573.35   1
   8   0   0  50820. 8159.96   1
   8   0   0  46304. 8220.62   1
  -8   0  -1 6367.10 1214.56   1
  -8   0  -1 8348.68 1577.17   1
   8   0   1 5603.23 915.299   1
   8   0   1 7847.67 1484.61   1
  -8   0  -2 121298.  21377.   1
  -8   0  -2 141833.  20932.   1
   8   0   2 231633.  37138.   1
   8   0   2 152235.  26825.   1
  -8   0  -3  35161. 6243.54   1
  -8   0  -3  50371. 7560.09   1
   8   0   3  60144. 9651.75   1
   8   0   3  55740. 9876.42   1
  -8   0  -4  40171. 7130.97   1
  -8   0  -4  33228. 5028.08   1
   8   0   4  37969. 6088.51   1
   8   0   4  33184. 5917.77   1
  -8   0  -5 250955.  44170.   1
  -8   0  -5 228488.  33633.   1
   8   0   5 149382.  23950.   1
   8   0   5 187508.  33004.   1
  -8   0  -6  66771.  11800.   1
  -8   0  -6  57156. 8523.92   1
   8   0   6  48708. 7818.46   1
   8   0   6  50550. 8955.28   1
  -8   0  -7  24871. 4441.69   1
  -8   0  -7  23635. 3635.13   1
   8   0   7  15713. 2529.77   1
   8   0   7  27207. 4868.56   1
  -8   0  -8 105280.  18562.   1
  -8   0  -8  86655.  12840.   1
   8   0   8 107526.  17237.   1
   8   0   8 102606.  18115.   1
  -8   0  -9  18535. 3354.30   1
  -8   0  -9  17088. 2696.02   1
   8   0   9  19227. 3095.93   1
   8   0   9  25028. 4484.38   1
  -8   0 -10 9445.06 1786.34   1
  -8   0 -10 9548.41 1700.07   1
   8   0  10  10411. 1691.75   1
   8   0  10  11420. 2121.54   1
  -8   0 -11  25208. 4524.82   1
  -8   0 -11  26691. 4124.91   1
   8   0  11  30150. 5414.51   1
   8   1  -6  67648.  10858.   1
   8   1  -5 4742.75 789.709   1
   8   1  -4  12799. 2066.05   1
  -8  -1   3  15399. 2776.90   1
   8   1  -3  22826. 3671.08   1
   8   1  -3  22579. 4064.25   1
  -8  -1   2 9804.53 1813.97   1
  -8  -1   2 8083.57 1702.54   1
   8   1  -2 8144.23 1319.70   1
   8   1  -2 8245.33 1592.00   1
  -8  -1   1  12615. 2291.62   1
  -8  -1   1  12060. 2156.59   1
   8   1  -1 9159.73 1478.77   1
   8   1  -1  14197. 2583.69   1
  -8  -1   0 6585.03 1239.05   1
  -8  -1   0 4372.05 1179.28   1
   8   1   0 5704.33 928.554   1
   8   1   0 6751.29 1324.64   1
  -8  -1  -1  19661. 3520.55   1
  -8  -1  -1  23837. 3736.24   1
   8   1   1  24287. 3902.49   1
   8   1   1  23770. 4255.22   1
  -8  -1  -2  13651. 2475.85   1
  -8  -1  -2  11182. 1910.13   1
   8   1   2 9094.58 1470.68   1
   8   1   2  10802. 1997.75   1
  -8  -1  -3  12053. 2199.28   1
  -8  -1  -3  10908. 1833.74   1
   8   1   3  16174. 2603.91   1
   8   1   3  12150. 2248.93   1
  -8  -1  -4  21195. 3799.14   1
  -8  -1  -4  28151. 4293.41   1
   8   1   4  34532. 5544.82   1
   8   1   4  50977. 9042.90   1
  -8  -1  -5 1060.66 356.998   1
  -8  -1  -5  835.77 569.534   1
   8   1   5  913.95 189.238   1
   8   1   5  837.11 368.007   1
  -8  -1  -6  96136.  16953.   1
  -8  -1  -6  89688.  13276.   1
   8   1   6  98382.  15790.   1
   8   1   6  84745.  14956.   1
  -8  -1  -7 107998.  19032.   1
  -8  -1  -7  87935.  13038.   1
   8   1   7 169670.  27207.   1
   8   1   7  99438.  17538.   1
  -8  -1  -8  396.99 315.884   1
  -8  -1  -8  578.52 562.570   1
   8   1   8  375.20 152.617   1
   8   1   8  690.41 400.808   1
  -8  -1  -9 102516.  18077.   1
  -8  -1  -9  86048.  12743.   1
   8   1   9 108425.  17389.   1
   8   1   9 109054.  19229.   1
  -8  -1 -10  68501.  12101.   1
  -8  -1 -10  61537. 9184.44   1
   8   1  10  52235. 8386.87   1
   8   1  10  73961.  13060.   1
  -8  -1 -11  867.44 499.663   1
  -8  -1 -11 1239.94 882.048   1
   8   1  11 1409.12 627.274   1
   8   2  -6 6441.24 1070.10   1
   8   2  -5  60683. 9741.62   1
  -8  -2   4  42822. 7602.78   1
   8   2  -4  41968. 6737.81   1
  -8  -2   3 7274.76 1358.57   1
   8   2  -3  15734. 2534.26   1
   8   2  -3  10157. 1884.52   1
  -8  -2   2 147113.  25904.   1
   8   2  -2 125927.  20200.   1
   8   2  -2 178791.  31476.   1
  -8  -2   1  63019.  11132.   1
   8   2  -1  62031. 9948.32   1
   8   2  -1  78140.  13792.   1
  -8  -2   0  31678. 5627.94   1
  -8  -2   0  26713. 4079.98   1
  -8  -2   0  25814. 3902.49   1
   8   2   0  22026. 3540.77   1
   8   2   0  29881. 5344.86   1
  -8  -2  -1  74949.  13231.   1
  -8  -2  -1  68030.  10137.   1
  -8  -2  -1  85509.  12653.   1
   8   2   1 118355.  18989.   1
   8   2   1  74186.  13112.   1
  -8  -2  -2  25500. 4547.29   1
  -8  -2  -2  17938. 2848.80   1
  -8  -2  -2  21824. 3383.51   1
   8   2   2  21397. 3439.67   1
   8   2   2  23995. 4288.92   1
   8   2   2  21332. 3318.35   1
  -8  -2  -3 9040.66 1669.96   1
  -8  -2  -3 9779.82 1709.50   1
   8   2   3  11687. 1883.84   1
   8   2   3 8771.05 1631.32   1
  -8  -2  -4  79578.  14053.   1
  -8  -2  -4  54415. 8130.75   1
   8   2   4  38710. 6212.08   1
   8   2   4  61177.  10831.   1
  -8  -2  -5 7384.85 1381.71   1
  -8  -2  -5 5645.92 1092.56   1
   8   2   5 6796.22 1102.00   1
   8   2   5 5639.18 1108.51   1
  -8  -2  -6  18524. 3322.85   1
  -8  -2  -6  15048. 2410.69   1
   8   2   6  20162. 3241.97   1
   8   2   6  17508. 3163.33   1
  -8  -2  -7 6695.12 1274.77   1
  -8  -2  -7 6189.61 1150.98   1
   8   2   7 5542.57 906.312   1
   8   2   7 6360.36 1216.35   1
  -8  -2  -8 6704.10 1283.08   1
  -8  -2  -8 4131.65 900.920   1
   8   2   8 7164.67 1170.30   1
   8   2   8 4133.90 875.982   1
  -8  -2  -9 2873.51 686.362   1
  -8  -2  -9 3331.83 792.405   1
   8   2   9 1942.71 376.769   1
   8   2   9 2032.80 573.803   1
  -8  -2 -10 2884.74 686.137   1
  -8  -2 -10 1356.55 648.393   1
   8   2  10 2457.87 483.936   1
   8   2  10 2266.90 625.252   1
  -8  -2 -11  37048. 6587.28   1
  -8  -2 -11  26668. 4133.90   1
   8   2  11  25500. 4589.98   1
  -8  -3   5 3902.49 847.674   1
   8   3  -5 3322.85 582.340   1
  -8  -3   4  18600. 3349.81   1
   8   3  -4  16399. 2644.35   1
  -8  -3   3  15907. 2864.52   1
   8   3  -3  24421. 3927.20   1
   8   3  -3  18636. 3379.01   1
  -8  -3   2 4938.21 958.211   1
   8   3  -2 4390.02 726.128   1
   8   3  -2 4583.24 968.995   1
  -8  -3   1  66749.  11784.   1
   8   3  -1  85733.  13747.   1
   8   3  -1 100202.  17675.   1
  -8  -3   0 101460.  17879.   1
   8   3   0  77398.  12411.   1
   8   3   0  95731.  16882.   1
  -8  -3  -1  158.32 247.585   1
   8   3   1  104.76 111.391   1
   8   3   1  225.79 348.011   1
  -8  -3  -2 118602.  20894.   1
  -8  -3  -2 101752.  15062.   1
  -8  -3  -2 118962.  17556.   1
   8   3   2  98225.  15752.   1
   8   3   2 123590.  21793.   1
   8   3   2 108717.  16055.   1
  -8  -3  -3 169894.  29903.   1
  -8  -3  -3 135071.  21663.   1
  -8  -3  -3  96181.  14248.   1
   8   3   3 201460.  32307.   1
   8   3   3 110762.  17771.   1
   8   3   3 114761.  16956.   1
   8   3   3  87733.  15484.   1
  -8  -3  -4 1415.64 402.381   1
  -8  -3  -4 1433.38 692.203   1
   8   3   4  965.18 247.135   1
   8   3   4  714.45 159.088   1
   8   3   4  822.29 350.033   1
  -8  -3  -5 171220.  30150.   1
  -8  -3  -5 151786.  22393.   1
   8   3   5 149854.  24017.   1
   8   3   5 155313.  27365.   1
  -8  -3  -6 145585.  25635.   1
  -8  -3  -6  85374.  12660.   1
   8   3   6  98203.  15760.   1
   8   3   6 102247.  18041.   1
  -8  -3  -7 7634.23 1436.75   1
  -8  -3  -7 6463.71 1192.99   1
   8   3   7  10721. 1733.54   1
   8   3   7 6250.27 1206.02   1
  -8  -3  -8 103977.  18340.   1
  -8  -3  -8  80633.  11946.   1
   8   3   8  96405.  15464.   1
   8   3   8  87216.  15406.   1
  -8  -3  -9  23545. 4221.52   1
  -8  -3  -9  19596. 3051.00   1
   8   3   9  33925. 5452.70   1
   8   3   9  21211. 3812.62   1
  -8  -3 -10 5443.72 1076.84   1
  -8  -3 -10 2464.61 715.569   1
   8   3  10 2835.32 694.001   1
  -8  -3 -11  28668. 5133.67   1
  -8  -3 -11 9941.58 1710.85   1
   8   3  11  23545. 4268.70   1
  -8  -4   5  40126. 7133.22   1
  -8  -4   4 4870.81  999.33   1
   8   4  -4  12116. 1964.50   1
  -8  -4   3  10818. 1983.60   1
   8   4  -3  13745. 2220.62   1
   8   4  -3 9555.15 1827.00   1
  -8  -4   2  855.76 335.205   1
   8   4  -2  963.83 235.228   1
   8   4  -2  819.81 426.421   1
  -8  -4   1 8344.18 1542.12   1
   8   4  -1 9267.57 1501.01   1
   8   4  -1 8036.39 1516.74   1
  -8  -4   0  551.11 267.580   1
   8   4   0  356.77 142.912   1
   8   4   0  343.29 301.954   1
  -8  -4  -1 4931.47 951.695   1
   8   4   1 5996.40 974.611   1
   8   4   1 5809.92 1149.40   1
  -8  -4  -2  16304. 2920.69   1
   8   4   2  14289. 2305.10   1
   8   4   2  10301. 1661.20   1
   8   4   2  16342. 2967.87   1
  -8  -4  -3  34846. 6185.12   1
  -8  -4  -3  28039. 4241.74   1
   8   4   3  39294. 6306.44   1
   8   4   3  28758. 4616.94   1
   8   4   3  27230. 4167.60   1
   8   4   3  26039. 4657.38   1
  -8  -4  -4  81240.  14336.   1
  -8  -4  -4  75893.  11260.   1
   8   4   4  77308.  12399.   1
   8   4   4 111638.  17893.   1
   8   4   4  93192.  16443.   1
  -8  -4  -5 9103.56 1676.70   1
  -8  -4  -5 5347.11 1068.07   1
   8   4   5 4536.06 741.630   1
   8   4   5 3174.56 522.803   1
   8   4   5 9478.76 1763.65   1
  -8  -4  -6  42530. 7528.64   1
  -8  -4  -6  29993. 4556.28   1
   8   4   6  33925. 5445.96   1
   8   4   6  29724. 5304.42   1
  -8  -4  -7 139654.  24601.   1
  -8  -4  -7  87733.  12997.   1
   8   4   7 103864.  16650.   1
   8   4   7 130218.  22939.   1
  -8  -4  -8 5623.45 1077.96   1
  -8  -4  -8 2651.09 743.877   1
   8   4   8 4646.14 767.917   1
   8   4   8 4729.27 987.642   1
  -8  -4  -9  40710. 7223.09   1
   8   4   9  46439. 8243.08   1
  -8  -4 -10  98764.  17416.   1
   8   4  10  78679.  13902.   1
  -8  -4 -11 4360.81 971.241   1
   8   4  11 4037.29 931.026   1
  -8  -5   5  56504.  10002.   1
  -8  -5   4  66232.  11694.   1
  -8  -5   3  272.97 319.928   1
   8   5  -3  339.70 259.941   1
   8   5  -3  368.23 366.883   1
  -8  -5   2  51674. 9130.52   1
   8   5  -2  49629. 7968.99   1
   8   5  -2  44192. 7845.42   1
  -8  -5   1  40890. 7241.06   1
   8   5  -1  50438. 8097.05   1
   8   5  -1  52954. 9366.42   1
  -8  -5   0  10762. 1960.91   1
   8   5   0 7277.01 1185.80   1
   8   5   0 3664.34 791.956   1
  -8  -5  -1 103932.  18317.   1
   8   5   1 110851.  17783.   1
   8   5   1 102876.  18146.   1
  -8  -5  -2  33184. 5884.07   1
   8   5   2  37362. 6647.94   1
  -8  -5  -3  804.54 293.866   1
  -8  -5  -3 1660.30 587.508   1
   8   5   3 1282.41 450.685   1
   8   5   3 1727.03 664.344   1
  -8  -5  -4  35969. 6385.08   1
  -8  -5  -4  15828. 2496.07   1
   8   5   4  10995. 2022.46   1
  -8  -5  -5  436.76 319.478   1
  -8  -5  -5  769.71 562.120   1
   8   5   5  447.76 349.809   1
  -8  -5  -6  12213. 2226.69   1
  -8  -5  -6  10755. 1774.43   1
   8   5   6 8863.17 1670.86   1
  -8  -5  -7 3219.50 658.054   1
  -8  -5  -7  125.34 548.416   1
   8   5   7 4199.05 860.031   1
  -8  -5  -8  14603. 2635.36   1
   8   5   8  15976. 2909.46   1
  -8  -5  -9 6162.65 1190.07   1
   8   5   9 5414.51 1138.84   1
  -8  -5 -10  11941. 2212.76   1
   8   5  10  10085. 1925.18   1
  -8  -5 -11  35924. 6400.80   1
   8   5  11  36127. 6456.97   1
  -8  -6   4  10573. 1972.14   1
  -8  -6   3  37632. 6674.90   1
  -8  -6   2 2684.79 606.155   1
   8   6  -2 2482.59 674.005   1
  -8  -6   1  70231.  12399.   1
   8   6  -1  71939.  12714.   1
  -8  -6   0  99955.  17605.   1
   8   6   0  95686.  16884.   1
  -8  -6  -1 8402.60 1550.66   1
   8   6   1  12018. 2219.95   1
  -8  -6  -2  92990.  16396.   1
   8   6   2 117097.  20656.   1
  -8  -6  -3 102202.  18005.   1
   8   6   3  96877.  17093.   1
  -8  -6  -4 8357.66 1541.00   1
  -8  -6  -4 8472.25 1529.09   1
   8   6   4  10901. 2022.46   1
  -8  -6  -5  63424.  11204.   1
  -8  -6  -5  59312. 8847.44   1
   8   6   5  55381. 9806.78   1
  -8  -6  -6  97169.  17138.   1
  -8  -6  -6  97573.  14442.   1
   8   6   6  78544.  13876.   1
  -8  -6  -7  592.90 347.113   1
   8   6   7  519.21 445.068   1
  -8  -6  -8  83532.  14740.   1
   8   6   8 105706.  18665.   1
  -8  -6  -9  28780. 5140.41   1
   8   6   9  26309. 4733.76   1
  -8  -6 -10  840.26 491.125   1
   8   6  10  601.89 554.931   1
  -8  -7   3 4625.92 941.361   1
  -8  -7   2   10.27 305.100   1
   8   7  -2 -115.84 520.557   1
  -8  -7   1 4190.07 850.819   1
   8   7  -1 3423.95 831.722   1
  -8  -7   0 1101.55 411.368   1
   8   7   0  518.76 497.416   1
  -8  -7  -1  41564. 7348.90   1
   8   7   1  38328. 6818.69   1
  -8  -7  -2  16529. 2974.61   1
   8   7   2  21514. 3868.79   1
  -8  -7  -3  13179. 2392.72   1
   8   7   3  11597. 2157.04   1
  -8  -7  -4  81982.  14457.   1
   8   7   4  78993.  13965.   1
  -8  -7  -5  36127. 6412.04   1
  -8  -7  -5  34487. 5243.76   1
   8   7   5  48618. 8634.01   1
  -8  -7  -6  30735. 5479.66   1
   8   7   6  30577. 5479.66   1
  -8  -7  -7 101415.  17884.   1
   8   7   7 161537.  28488.   1
  -8  -7  -8 9290.04 1742.08   1
   8   7   8 6432.26 1331.61   1
  -8  -7  -9  22462. 4050.77   1
  -8  -8   2  28780. 5131.43   1
  -8  -8   1  41294. 7330.93   1
   8   8  -1  39474. 7052.34   1
  -8  -8   0 1171.87 432.262   1
   8   8   0  765.45 551.112   1
  -8  -8  -1  43294. 7670.18   1
   8   8   1  52662. 9348.45   1
  -8  -8  -2  18351. 3307.12   1
   8   8   2  22424. 4062.00   1
  -8  -8  -3 3239.72 708.604   1
   8   8   3 3572.23 881.374   1
  -8  -8  -4 5180.85 1031.90   1
   8   8   4 7438.77 1492.92   1
  -8  -8  -5  133.95 363.513   1
   8   8   5 -205.44 549.988   1
  -8  -8  -6 7236.57 1396.99   1
  -8  -8  -7  469.78 454.729   1
  -8  -8  -8  10479. 1989.21   1
  -8  -9   0 126735.  22339.   1
   8   9   0 -339.92 677.825   1
  -8  -9  -1  34936. 6225.56   1
  -8  -9  -2  19310. 3495.84   1
  -8  -9  -3  66457.  11752.   1
  -8  -9  -4 8052.12 1551.34   1
  -8  -9  -5  57133.  10119.   1
   9  -4   0  22361. 3599.19   1
   9  -4   1 1201.08 273.197   1
   9  -4   2  55808. 8964.27   1
   9  -4   3  58594. 9404.62   1
   9  -4   4 -192.38 198.113   1
   9  -3  -2  24758. 3985.62   1
   9  -3  -1 9849.46 1598.07   1
   9  -3   0  21094. 3399.23   1
   9  -3   1 113413.  18189.   1
   9  -3   2  34824. 5592.00   1
   9  -3   3  29207. 4695.57   1
   9  -3   4 100427.  16111.   1
   9  -3   5  18068. 2911.70   1
  -9   3  -6 1031.23 1038.42   1
   9  -3   6  27971. 4497.86   1
  -9   3  -7  85891.  12784.   1
   9  -2  -3  861.83 237.475   1
   9  -2  -2 7858.90 1283.98   1
   9  -2  -1 3401.48 576.274   1
   9  -2   0 1139.07 235.902   1
   9  -2   0 1174.57 1121.77   1
   9  -2   1 1129.41 240.845   1
   9  -2   1 1310.94 1000.22   1
   9  -2   2  22714. 3650.86   1
   9  -2   2  18681. 3518.31   1
   9  -2   3  32015. 5147.15   1
   9  -2   3  34442. 6223.31   1
   9  -2   4  474.72 169.939   1
   9  -2   4 1650.19 860.255   1
   9  -2   5  62390.  10011.   1
   9  -2   5  46529. 8321.72   1
   9  -2   6  38261. 6151.42   1
   9  -2   6  39856. 7146.70   1
  -9   2  -7 2657.83 1022.02   1
   9  -2   7 5479.66 907.885   1
   9  -2   7 3655.35 1053.47   1
  -9   2  -8  84722.  12613.   1
   9  -1  -3 102067.  16374.   1
   9  -1  -2  20550. 3307.12   1
   9  -1  -1  24669. 3965.40   1
   9  -1  -1  21847. 4037.29   1
   9  -1   0  50281. 8067.84   1
   9  -1   0  62435.  11110.   1
   9  -1   1  10903. 1761.85   1
   9  -1   1  10571. 2080.88   1
   9  -1   2  24444. 3929.45   1
   9  -1   2  27859. 5025.83   1
   9  -1   3  30173. 4846.10   1
   9  -1   3  38823. 6931.02   1
   9  -1   4 2347.78 408.672   1
   9  -1   4 2237.02 714.221   1
   9  -1   5  12020. 1941.36   1
   9  -1   5  15996. 2945.40   1
   9  -1   6 8332.95 1352.73   1
   9  -1   6  10375. 1985.17   1
   9  -1   7  14195. 2289.37   1
   9  -1   7  14732. 2718.49   1
  -9   1  -8  556.95 827.004   1
   9  -1   8 2341.04 437.205   1
   9  -1   8 3185.80 853.515   1
  -9   1  -9 9233.87 1824.08   1
   9  -1   9 7566.83 1607.50   1
   9   0  -4  17623. 2846.55   1
   9   0  -3 1619.41 326.893   1
   9   0  -2  40980. 6576.04   1
   9   0  -2  49090. 8775.55   1
  -9   0   1  19429. 3345.31   1
   9   0  -1  25702. 4129.40   1
   9   0  -1  40890. 7319.70   1
   9   0   0 2451.13 420.804   1
   9   0   0 1246.68 624.129   1
  -9   0  -1  -64.84 325.994   1
   9   0   1 122309.  19620.   1
   9   0   1 116805.  20607.   1
  -9   0  -2  83801.  14788.   1
   9   0   2 109908.  17623.   1
   9   0   2  83891.  14828.   1
   9   0   3  11274. 1822.29   1
   9   0   3  10523. 1971.02   1
   9   0   4 169288.  27140.   1
   9   0   4 140575.  24781.   1
  -9   0  -5  51045. 9033.92   1
   9   0   5  59784. 9588.85   1
   9   0   5  45720. 8119.52   1
  -9   0  -6  29274. 5228.03   1
   9   0   6  25073. 4030.55   1
   9   0   6  24084. 4324.87   1
  -9   0  -7 100629.  17767.   1
   9   0   7  78230.  12550.   1
   9   0   7  96450.  17025.   1
  -9   0  -8  22579. 4079.98   1
   9   0   8  37475. 6016.62   1
   9   0   8  38620. 6870.36   1
  -9   0  -9 2947.65 769.040   1
   9   0   9 2374.74 739.384   1
   9   1  -4  20865. 3365.53   1
   9   1  -3 1508.42 315.884   1
   9   1  -2 4392.27 727.476   1
   9   1  -2 6654.68 1376.54   1
   9   1  -1  736.46 186.430   1
   9   1  -1  890.81 594.473   1
  -9  -1   0 8672.20 1629.07   1
  -9  -1   0 7423.04 1791.73   1
   9   1   0 9835.98 1589.75   1
   9   1   0 7847.67 1524.38   1
  -9  -1  -1 6268.25 1205.57   1
  -9  -1  -1 4376.54 1372.27   1
   9   1   1 4311.39 712.873   1
   9   1   1 4028.30 878.229   1
  -9  -1  -2  34464. 6122.21   1
  -9  -1  -2  30847. 4801.16   1
   9   1   2  18798. 3026.28   1
   9   1   2  31723. 5650.41   1
  -9  -1  -3  42822. 7591.55   1
  -9  -1  -3  46933. 7108.51   1
   9   1   3  35228. 5650.41   1
   9   1   3  56729.  10056.   1
  -9  -1  -4  903.84 351.606   1
  -9  -1  -4  729.05 885.193   1
   9   1   4 1520.78 299.483   1
   9   1   4  506.40 367.557   1
   9   1   5  77623.  12453.   1
   9   1   5  70074.  12377.   1
  -9  -1  -6  91687.  16176.   1
   9   1   6  95844.  15381.   1
   9   1   6 122871.  21676.   1
  -9  -1  -7  499.21 379.914   1
   9   1   7  931.03 229.836   1
   9   1   7  509.77 449.112   1
  -9  -1  -8  66704.  11800.   1
   9   1   8  61694. 9914.62   1
   9   1   8  58189.  10310.   1
  -9  -1  -9  68052.  12042.   1
   9   1   9  85059.  15033.   1
  -9  -1 -10  216.04 489.552   1
   9   1  10  201.51 587.732   1
   9   2  -3  72815.  11678.   1
   9   2  -3  83846.  14833.   1
   9   2  -2  51404. 8249.82   1
   9   2  -2  34060. 6086.27   1
  -9  -2   1 3749.72 786.789   1
   9   2  -1 3731.74 628.847   1
   9   2  -1 4005.84 887.889   1
  -9  -2   0  74455.  13134.   1
   9   2   0  85419.  13714.   1
   9   2   0  65760.  11631.   1
  -9  -2  -1  15718. 2830.82   1
  -9  -2  -1 9085.59 1863.18   1
   9   2   1 8355.42 1355.65   1
   9   2   1  13404. 2444.39   1
  -9  -2  -2  19128. 3430.69   1
  -9  -2  -2  16855. 2869.02   1
   9   2   2  14842. 2392.72   1
   9   2   2  22157. 3985.62   1
  -9  -2  -3  25725. 4589.98   1
  -9  -2  -3  20980. 3361.04   1
   9   2   3  24691. 3969.89   1
   9   2   3  27432. 4920.24   1
  -9  -2  -4 2927.43 653.336   1
  -9  -2  -4 2626.37 988.316   1
   9   2   4 2913.95 505.055   1
   9   2   4 3161.08 716.018   1
  -9  -2  -5 5104.47 1002.47   1
  -9  -2  -5 2107.61 910.806   1
   9   2   5 4711.30 781.621   1
   9   2   5 4329.36 882.947   1
  -9  -2  -6  352.95 312.514   1
   9   2   6   46.08 171.714   1
   9   2   6  591.55 383.284   1
  -9  -2  -7  44979. 7968.99   1
   9   2   7  34307. 5513.36   1
   9   2   7  24961. 4473.15   1
  -9  -2  -8  23141. 4145.13   1
   9   2   8  25837. 4163.11   1
   9   2   8  24781. 4455.17   1
  -9  -2  -9 6908.55 1364.41   1
   9   2   9  11047. 2068.07   1
  -9  -2 -10  19506. 3536.28   1
   9   2  10  10470. 2016.62   1
  -9  -3   3  180.66 405.751   1
   9   3  -3 1226.24 324.646   1
   9   3  -3  875.08 571.107   1
  -9  -3   2  62840.  11114.   1
   9   3  -2  53538. 8591.32   1
   9   3  -2  50955. 9036.16   1
  -9  -3   1  79128.  13963.   1
   9   3  -1  37160. 5969.44   1
   9   3  -1  45877. 8148.72   1
  -9  -3   0  311.84 306.223   1
   9   3   0  261.51 169.602   1
   9   3   0  488.88 472.253   1
  -9  -3  -1  61222.  10813.   1
   9   3   1 111525.  17884.   1
   9   3   1  54347. 9618.05   1
  -9  -3  -2  86138.  15197.   1
  -9  -3  -2  78387.  11649.   1
   9   3   2 103774.  16632.   1
   9   3   2  85756.  15134.   1
  -9  -3  -3  451.81 301.280   1
  -9  -3  -3  968.99 967.197   1
   9   3   3  992.14 246.237   1
   9   3   3  531.79 412.491   1
  -9  -3  -4  87171.  15381.   1
  -9  -3  -4  74208.  11060.   1
   9   3   4  87037.  13968.   1
   9   3   4  90541.  15983.   1
  -9  -3  -5  77106.  13608.   1
  -9  -3  -5  65693. 9811.27   1
   9   3   5  65401.  10501.   1
   9   3   5  79330.  13999.   1
  -9  -3  -6  816.44 313.188   1
   9   3   6  720.06 252.303   1
   9   3   6  931.92 422.377   1
  -9  -3  -7  47135. 8348.68   1
   9   3   7  61784. 9914.62   1
   9   3   7  47405. 8413.83   1
  -9  -3  -8  28241. 5028.08   1
   9   3   8  25410. 4569.76   1
  -9  -3  -9 2167.83 623.679   1
   9   3   9 1204.45 518.759   1
  -9  -3 -10 9611.31 1826.33   1
   9   3  10 8548.63 1669.96   1
  -9  -4   4 5958.21 1200.18   1
  -9  -4   3 1243.31 500.337   1
   9   4  -3  643.67 584.362   1
  -9  -4   2 6209.83 1215.68   1
   9   4  -2 4580.99 806.560   1
   9   4  -2 7232.08 1412.94   1
  -9  -4   1  168.88 379.914   1
   9   4  -1  451.36 263.761   1
   9   4  -1  223.84 456.751   1
  -9  -4   0  49809. 8809.25   1
   9   4   0  38531. 6189.61   1
   9   4   0  49966. 8865.42   1
  -9  -4  -1  13752. 2491.57   1
   9   4   1  13494. 2182.88   1
   9   4   1  14359. 2615.14   1
  -9  -4  -2  20103. 3590.20   1
   9   4   2  15738. 2543.25   1
   9   4   2  19719. 3540.77   1
  -9  -4  -3  79128.  13963.   1
  -9  -4  -3  57043. 8503.70   1
   9   4   3  67019.  10755.   1
   9   4   3  94316.  16643.   1
  -9  -4  -4 8101.54 1524.82   1
  -9  -4  -4 8166.70 1647.04   1
   9   4   4 6479.44 1057.29   1
   9   4   4  11078. 2055.94   1
  -9  -4  -5  59402.  10499.   1
  -9  -4  -5  48618. 7308.46   1
   9   4   5  39587. 6353.62   1
   9   4   5  62076.  10971.   1
  -9  -4  -6 119973.  21139.   1
   9   4   6 111346.  19647.   1
  -9  -4  -7 5419.00 1057.29   1
   9   4   7 6924.28 1356.10   1
  -9  -4  -8  45900. 8130.75   1
   9   4   8  40126. 7139.96   1
  -9  -4  -9  44507. 7906.08   1
   9   4   9  65086.  11530.   1
  -9  -4 -10 5636.93 1132.78   1
   9   4  10 6942.25 1416.76   1
  -9  -5   3  77982.  13770.   1
  -9  -5   2  43541. 7719.61   1
   9   5  -2  43563. 7757.80   1
  -9  -5   1  544.15 362.615   1
   9   5  -1 1141.32 489.777   1
  -9  -5   0  39789. 7052.34   1
   9   5   0  42328. 7512.91   1
  -9  -5  -1  36284. 6439.00   1
   9   5   1  18863. 3401.48   1
  -9  -5  -2 9009.20 1668.39   1
   9   5   2 4309.14 920.017   1
  -9  -5  -3  13586. 2455.63   1
   9   5   3  14222. 2615.14   1
  -9  -5  -4  558.97 333.633   1
  -9  -5  -4  246.91 797.123   1
   9   5   4 1366.66 510.896   1
  -9  -5  -5 4459.67 919.343   1
  -9  -5  -5 3547.51 1031.90   1
   9   5   5 5859.35 1165.80   1
  -9  -5  -6  647.27 367.557   1
   9   5   6  616.49 455.628   1
  -9  -5  -7  16794. 3039.76   1
   9   5   7  16783. 3059.98   1
  -9  -5  -8  31925. 5697.59   1
   9   5   8  21105. 3805.88   1
  -9  -5  -9 8784.53 1656.26   1
   9   5   9 9977.52 1899.12   1
  -9  -5 -10  32240. 5751.51   1
   9   5  10  27791. 4996.62   1
  -9  -6   2  38441. 6825.43   1
   9   6  -2  36464. 6515.38   1
  -9  -6   1  83734.  14783.   1
   9   6  -1  86026.  15210.   1
  -9  -6   0  10386. 1917.54   1
   9   6   0 5902.04 1229.39   1
  -9  -6  -1  67041.  11833.   1
   9   6   1  60458.  10719.   1
  -9  -6  -2 135138.  23815.   1
   9   6   2 159380.  28084.   1
  -9  -6  -3 6823.18 1293.87   1
   9   6   3 6726.57 1334.98   1
  -9  -6  -4  29993. 5324.64   1
   9   6   4  38620. 6872.61   1
  -9  -6  -5  48551. 8591.32   1
   9   6   5  42395. 7546.61   1
  -9  -6  -6  382.83 393.844   1
   9   6   6  899.35 485.508   1
  -9  -6  -7  27971. 4998.87   1
   9   6   7  35677. 6360.36   1
  -9  -6  -8  13031. 2403.95   1
   9   6   8  14878. 2754.43   1
  -9  -6  -9 1025.61 535.609   1
   9   6   9  877.55 645.023   1
  -9  -7   1  804.54 436.531   1
   9   7  -1 1359.69 596.270   1
  -9  -7   0  57313.  10142.   1
   9   7   0  42148. 7519.65   1
  -9  -7  -1  31746. 5643.67   1
   9   7   1  28600. 5144.91   1
  -9  -7  -2 5994.15 1159.51   1
   9   7   2 4509.09 1014.60   1
  -9  -7  -3  87711.  15464.   1
   9   7   3  86632.  15313.   1
  -9  -7  -4  22961. 4113.68   1
   9   7   4  24399. 4390.02   1
  -9  -7  -5  18643. 3356.55   1
   9   7   5  20914. 3805.88   1
  -9  -7  -6 122444.  21582.   1
   9   7   6 127297.  22467.   1
  -9  -7  -7  24983. 4486.63   1
   9   7   7  24399. 4416.98   1
  -9  -7  -8  34329. 6126.71   1
   9   7   8  32891. 5915.52   1
  -9  -8  -1 3543.02 851.044   1
   9   8   1 4136.15 1033.25   1
  -9  -8  -2 6982.69 1364.19   1
   9   8   2 7793.75 1589.53   1
  -9  -8  -3 4167.60 942.933   1
   9   8   3 3109.41 895.753   1
  -9  -8  -4 2788.13 713.097   1
   9   8   4 1538.08 678.274   1
  -9  -8  -5 8544.14 1628.85   1
   9   8   5 8580.09 1727.70   1
  -9  -8  -6 1761.18 606.829   1
   9   8   6 -521.46 771.511   1
  10  -1   1  16666. 2689.28   1
  10  -1   2  17605. 2839.81   1
  10  -1   3 1662.55 342.170   1
  10  -1   4 8887.88 1453.60   1
  10  -1   5  420.35 239.047   1
  10   0   0  74433.  11952.   1
  10   0   1  85486.  13720.   1
  10   0   1  58751.  10474.   1
  10   0   2 6776.00 1113.68   1
  10   0   2 9481.01 1957.99   1
  10   0   3 156819.  25140.   1
  10   0   3 127994.  22602.   1
  10   0   4  43496. 6984.94   1
  10   0   4  57538.  10236.   1
  10   0   5 7086.04 1168.28   1
  10   0   5 5877.33 1273.42   1
  10   0   6  34599. 5562.79   1
  10   0   6  35408. 6333.40   1
  10   0   7  13716. 2597.17   1
  10   1   0 2466.86 460.795   1
  10   1   0 1819.59 860.480   1
  10   1   1  17144. 2767.91   1
  10   1   1  17329. 3199.28   1
  10   1   2  40013. 6427.76   1
  10   1   2  60436.  10730.   1
  10   1   3  250.51 241.294   1
  10   1   3  596.27 596.944   1
  10   1   4  96518.  15486.   1
  10   1   4  49989. 8883.39   1
  10   1   5  60548. 9716.91   1
  10   1   5  51539. 9152.99   1
  10   1   6  981.35 314.985   1
  10   1   6  911.48 563.918   1
 -10  -1  -7  45091. 8011.67   1
  10   1   7  66929.  11854.   1
 -10  -1  -8  57942.  10267.   1
  10   1   8  60975.  10827.   1
  10   2  -1  11689. 2251.18   1
  10   2   0 8997.97 1477.19   1
  10   2   0  12310. 2345.54   1
  10   2   1  11523. 1876.21   1
  10   2   1 5248.25 1132.10   1
 -10  -2  -2  18800. 3412.71   1
  10   2   2  13628. 2209.84   1
  10   2   2  15769. 2898.22   1
 -10  -2  -3 2529.77 677.375   1
  10   2   3 2722.98 535.385   1
  10   2   3 3259.94 818.242   1
 -10  -2  -4  14408. 2630.87   1
  10   2   4 7512.91 1246.91   1
  10   2   4 8917.09 1723.88   1
 -10  -2  -5  999.33 473.376   1
  10   2   5 1891.93 435.407   1
  10   2   5 1157.49 537.631   1
 -10  -2  -6  12889. 2383.73   1
  10   2   6  11085. 2089.42   1
 -10  -2  -7 9391.14 1784.32   1
  10   2   7 6879.35 1396.76   1
 -10  -2  -8  10986. 2051.67   1
  10   2   8  12590. 2372.50   1
  10   3  -1  600.76 681.644   1
 -10  -3   0  82453.  14561.   1
  10   3   0  67243.  11916.   1
 -10  -3  -1 108178.  19077.   1
  10   3   1 108155.  19090.   1
 -10  -3  -2  404.85 403.055   1
  10   3   2  294.09 485.733   1
 -10  -3  -3  48843. 8658.72   1
  10   3   3  54145. 9604.57   1
 -10  -3  -4  53449. 9472.02   1
  10   3   4  50932. 9045.15   1
 -10  -3  -5  882.27 450.685   1
  10   3   5  924.96 450.011   1
 -10  -3  -6  36823. 6546.84   1
  10   3   6  30892. 5533.58   1
 -10  -3  -7  15356. 2808.35   1
  10   3   7  13655. 2536.51   1
 -10  -3  -8 1553.58 544.372   1
  10   3   8 1503.03 594.697   1
 -10  -3  -9 5879.57 1190.97   1
  10   3   9 3707.03 918.220   1
 -10  -4   1  13543. 2496.07   1
  10   4  -1  18434. 3399.23   1
 -10  -4   0 9768.58 1834.42   1
  10   4   0  11056. 2130.53   1
 -10  -4  -1  28600. 5099.97   1
  10   4   1  26646. 4796.67   1
 -10  -4  -2 111952.  19739.   1
  10   4   2 149539.  26354.   1
 -10  -4  -3 9175.46 1713.32   1
  10   4   3  11153. 2103.12   1
 -10  -4  -4  36486. 6483.93   1
  10   4   4  51382. 9108.06   1
 -10  -4  -5 105100.  18528.   1
  10   4   5  74388.  13166.   1
 -10  -4  -6  18068. 3273.42   1
  10   4   6  16003. 2918.44   1
 -10  -4  -7  22736. 4100.20   1
  10   4   7  26399. 4756.23   1
 -10  -4  -8  42283. 7515.16   1
  10   4   8  40350. 7205.12   1
 -10  -5   1  21793. 3918.22   1
  10   5  -1  16426. 3046.50   1
 -10  -5   0 3401.48 774.881   1
  10   5   0 5508.87 1212.09   1
 -10  -5  -1 3446.41 805.212   1
  10   5   1 2891.48 804.538   1
 -10  -5  -2 3093.68 730.172   1
  10   5   2 2736.46 749.943   1
 -10  -5  -3  871.71 427.993   1
  10   5   3  676.25 497.865   1
 -10  -5  -4  12712. 2341.04   1
  10   5   4  10652. 2016.40   1
 -10  -5  -5 3266.68 765.445   1
  10   5   5 4131.65 966.748   1
 -10  -5  -6  31746. 5670.63   1
  10   5   6  62705.  11114.   1
 -10  -5  -7  27297. 4895.52   1
  10   5   7 8184.67 1638.28   1
 -10  -5  -8 1846.55 605.257   1
  10   5   8 1745.67 779.150   1
 -10  -6   0 9853.96 1851.04   1
  10   6   0  15567. 2893.73   1
 -10  -6  -1  73197.  12923.   1
  10   6   1  68793.  12193.   1
 -10  -6  -2  10191. 1897.32   1
  10   6   2 9959.55 1938.21   1
 -10  -6  -3  27949. 4996.62   1
  10   6   3  28263. 5084.25   1
 -10  -6  -4  27994. 4987.64   1
  10   6   4  31656. 5672.88   1
 -10  -6  -5  427.77 360.143   1
  10   6   5  481.91 561.671   1
 -10  -6  -6 9317.00 1743.20   1
  10   6   6 8980.00 1788.81   1
 -10  -6  -7 7050.09 1361.72   1
  10   6   7  10647. 2027.63   1
 -10  -7  -2  67558.  11932.   1
  10   7   2  62660.  11114.   1
 -10  -7  -3  33049. 5872.83   1
  10   7   3  21941. 3981.12   1
 -10  -7  -4  15102. 2743.20   1
  10   7   4 5634.68 1255.90   1
 -10  -7  -5  49944. 8845.19   1
  10   7   5  54909. 9784.31   1
   0   0   0      0.    0.00   0
;
_shelx_hkl_checksum              21106
loop_
_space_group_symop_operation_xyz
'x, y, z'
'-x, -y, -z'
loop_
_atom_site_label
_atom_site_type_symbol
_atom_site_fract_x
_atom_site_fract_y
_atom_site_fract_z
_atom_site_U_iso_or_equiv
_atom_site_adp_type
_atom_site_occupancy
_atom_site_site_symmetry_order
_atom_site_calc_flag
_atom_site_refinement_flags_posn
_atom_site_refinement_flags_adp
_atom_site_refinement_flags_occupancy
_atom_site_disorder_assembly
_atom_site_disorder_group
Pt1 Pt 0.30606(3) 0.84011(3) 0.31401(2) 0.01733(14) Uani 1 1 d . . . . .
Cd1 Cd 0.40400(5) 0.52632(5) 0.35977(4) 0.01709(15) Uani 1 1 d . . . . .
O11 O 0.5913(6) 0.6130(5) 0.1652(4) 0.0219(10) Uani 1 1 d . . . . .
C11 C 0.5609(8) 0.7348(8) 0.0954(6) 0.0174(13) Uani 1 1 d . . . . .
O12 O 0.4467(6) 0.8469(6) 0.1298(4) 0.0213(10) Uani 1 1 d . . . . .
C12 C 0.6731(9) 0.7519(8) -0.0406(7) 0.0242(15) Uani 1 1 d . . . . .
H12A H 0.785208 0.745603 -0.034236 0.036 Uiso 1 1 calc R U . . .
H12B H 0.634598 0.850391 -0.082849 0.036 Uiso 1 1 calc R U . . .
H12C H 0.670971 0.670735 -0.091250 0.036 Uiso 1 1 calc R U . . .
O21 O 0.5397(6) 0.6438(5) 0.4711(4) 0.0190(10) Uani 1 1 d . . . . .
C21 C 0.5734(8) 0.7748(8) 0.4410(6) 0.0173(13) Uani 1 1 d . . . . .
O22 O 0.4968(6) 0.8784(5) 0.3740(4) 0.0205(10) Uani 1 1 d . . . . .
C22 C 0.7098(8) 0.8137(8) 0.4841(7) 0.0228(14) Uani 1 1 d . . . . .
H22A H 0.751384 0.896131 0.426242 0.034 Uiso 1 1 calc R U . . .
H22B H 0.798263 0.724428 0.481984 0.034 Uiso 1 1 calc R U . . .
H22C H 0.668485 0.845940 0.572158 0.034 Uiso 1 1 calc R U . . .
O31 O 0.1719(6) 0.5993(6) 0.5277(5) 0.0253(11) Uani 1 1 d . . . . .
C31 C 0.1178(8) 0.7319(8) 0.5596(6) 0.0205(14) Uani 1 1 d . . . . .
O32 O 0.1612(6) 0.8534(5) 0.4947(4) 0.0205(10) Uani 1 1 d . . . . .
C32 C -0.0070(9) 0.7620(9) 0.6879(7) 0.0253(15) Uani 1 1 d . . . . .
H32A H -0.092965 0.704198 0.698171 0.038 Uiso 1 1 calc R U . . .
H32B H -0.055589 0.870438 0.689408 0.038 Uiso 1 1 calc R U . . .
H32C H 0.047410 0.730849 0.758477 0.038 Uiso 1 1 calc R U . . .
O41 O 0.2197(6) 0.5499(6) 0.2393(5) 0.0233(10) Uani 1 1 d . . . . .
C41 C 0.1135(9) 0.6673(8) 0.2273(6) 0.0233(15) Uani 1 1 d . . . . .
O42 O 0.1186(6) 0.8043(6) 0.2510(5) 0.0241(11) Uani 1 1 d . . . . .
C42 C -0.0374(9) 0.6555(9) 0.1874(8) 0.0279(16) Uani 1 1 d . . . . .
H42A H -0.109800 0.755409 0.187138 0.042 Uiso 1 1 calc R U . . .
H42B H -0.094916 0.584190 0.248396 0.042 Uiso 1 1 calc R U . . .
H42C H -0.005311 0.619162 0.100773 0.042 Uiso 1 1 calc R U . . .
O51 O 0.5459(6) 0.2989(6) 0.2589(5) 0.0251(11) Uani 1 1 d . . . . .
C51 C 0.6627(8) 0.2545(8) 0.1679(7) 0.0229(15) Uani 1 1 d . . . . .
O52 O 0.7438(7) 0.3497(6) 0.0857(5) 0.0337(13) Uani 1 1 d . . . . .
H52 H 0.704(13) 0.456(13) 0.129(10) 0.06(3) Uiso 1 1 d . . . . .
C52 C 0.7280(9) 0.0928(8) 0.1418(7) 0.0262(16) Uani 1 1 d . . . . .
H52A H 0.662840 0.029219 0.205430 0.039 Uiso 1 1 calc R U . . .
H52B H 0.842102 0.064889 0.147493 0.039 Uiso 1 1 calc R U . . .
H52C H 0.722222 0.077391 0.055106 0.039 Uiso 1 1 calc R U . . .
loop_
_atom_site_aniso_label
_atom_site_aniso_U_11
_atom_site_aniso_U_22
_atom_site_aniso_U_33
_atom_site_aniso_U_23
_atom_site_aniso_U_13
_atom_site_aniso_U_12
Pt1 0.0180(2) 0.0148(2) 0.01715(19) 0.00053(12) -0.00377(13) -0.00083(13)
Cd1 0.0185(3) 0.0151(3) 0.0162(3) 0.00042(19) -0.00428(19) -0.0014(2)
O11 0.022(2) 0.019(3) 0.021(2) 0.0032(19) -0.0025(19) -0.003(2)
C11 0.019(3) 0.017(3) 0.015(3) 0.000(2) -0.004(2) -0.002(3)
O12 0.023(2) 0.023(3) 0.015(2) -0.0008(19) -0.0017(18) -0.003(2)
C12 0.027(4) 0.023(4) 0.021(3) 0.002(3) -0.004(3) -0.005(3)
O21 0.022(2) 0.017(2) 0.018(2) 0.0039(18) -0.0062(18) -0.0063(19)
C21 0.013(3) 0.019(3) 0.017(3) -0.003(3) 0.001(2) -0.001(3)
O22 0.023(2) 0.015(2) 0.019(2) 0.0022(18) -0.0040(19) 0.0009(19)
C22 0.023(3) 0.020(4) 0.026(3) 0.003(3) -0.008(3) -0.004(3)
O31 0.025(3) 0.016(3) 0.030(3) -0.001(2) -0.002(2) -0.002(2)
C31 0.019(3) 0.024(4) 0.018(3) 0.003(3) -0.005(3) -0.004(3)
O32 0.021(2) 0.017(2) 0.019(2) -0.0027(19) 0.0001(19) -0.001(2)
C32 0.027(4) 0.025(4) 0.021(3) -0.004(3) -0.003(3) -0.002(3)
O41 0.022(2) 0.022(3) 0.024(2) -0.004(2) -0.0056(19) 0.000(2)
C41 0.028(4) 0.026(4) 0.014(3) 0.001(3) -0.004(3) -0.003(3)
O42 0.024(3) 0.023(3) 0.024(3) -0.001(2) -0.007(2) -0.001(2)
C42 0.025(4) 0.022(4) 0.039(4) -0.006(3) -0.013(3) -0.002(3)
O51 0.030(3) 0.021(3) 0.022(2) -0.001(2) -0.004(2) -0.004(2)
C51 0.017(3) 0.026(4) 0.023(3) 0.000(3) -0.008(3) 0.002(3)
O52 0.037(3) 0.023(3) 0.030(3) 0.001(2) 0.007(2) -0.003(2)
C52 0.031(4) 0.019(4) 0.023(3) 0.000(3) -0.002(3) 0.001(3)
loop_
_atom_type_symbol
_atom_type_description
_atom_type_scat_dispersion_real
_atom_type_scat_dispersion_imag
_atom_type_scat_source
C C 0.0070 0.0030 'International Tables Vol C Tables 4.2.6.8 and 6.1.1.4'
H H 0.0000 0.0000 'International Tables Vol C Tables 4.2.6.8 and 6.1.1.4'
Cd Cd -0.2580 2.0980 'International Tables Vol C Tables 4.2.6.8 and 6.1.1.4'
O O 0.0210 0.0120 'International Tables Vol C Tables 4.2.6.8 and 6.1.1.4'
Pt Pt -7.5260 8.5950 'International Tables Vol C Tables 4.2.6.8 and 6.1.1.4'
loop_
_geom_angle_atom_site_label_1
_geom_angle_atom_site_label_2
_geom_angle_atom_site_label_3
_geom_angle
_geom_angle_site_symmetry_1
_geom_angle_site_symmetry_3
O32 Pt1 O42 89.9(2) . .
O32 Pt1 O12 174.97(17) . .
O42 Pt1 O12 90.5(2) . .
O32 Pt1 O22 91.07(19) . .
O42 Pt1 O22 178.83(17) . .
O12 Pt1 O22 88.49(19) . .
O32 Pt1 Cd1 90.49(14) . .
O42 Pt1 Cd1 89.43(14) . .
O12 Pt1 Cd1 94.53(14) . .
O22 Pt1 Cd1 91.18(13) . .
O41 Cd1 O21 132.29(17) . 2_666
O41 Cd1 O31 84.43(18) . .
O21 Cd1 O31 78.02(17) 2_666 .
O41 Cd1 O21 148.75(17) . .
O21 Cd1 O21 73.37(18) 2_666 .
O31 Cd1 O21 84.92(17) . .
O41 Cd1 O51 88.19(17) . .
O21 Cd1 O51 76.02(17) 2_666 .
O31 Cd1 O51 136.85(17) . .
O21 Cd1 O51 119.00(17) . .
O41 Cd1 O11 87.43(17) . .
O21 Cd1 O11 129.63(16) 2_666 .
O31 Cd1 O11 145.49(17) . .
O21 Cd1 O11 84.92(16) . .
O51 Cd1 O11 76.08(17) . .
O41 Cd1 Pt1 75.90(13) . .
O21 Cd1 Pt1 137.88(12) 2_666 .
O31 Cd1 Pt1 74.52(12) . .
O21 Cd1 Pt1 72.95(11) . .
O51 Cd1 Pt1 143.79(12) . .
O11 Cd1 Pt1 70.98(11) . .
C11 O11 Cd1 125.9(4) . .
O12 C11 O11 125.2(6) . .
O12 C11 C12 116.2(6) . .
O11 C11 C12 118.6(6) . .
C11 O12 Pt1 118.4(4) . .
C11 C12 H12A 109.5 . .
C11 C12 H12B 109.5 . .
H12A C12 H12B 109.5 . .
C11 C12 H12C 109.5 . .
H12A C12 H12C 109.5 . .
H12B C12 H12C 109.5 . .
C21 O21 Cd1 128.0(4) . 2_666
C21 O21 Cd1 125.3(4) . .
Cd1 O21 Cd1 106.63(18) 2_666 .
O21 C21 O22 123.3(6) . .
O21 C21 C22 119.7(6) . .
O22 C21 C22 117.0(6) . .
C21 O22 Pt1 120.5(4) . .
C21 C22 H22A 109.5 . .
C21 C22 H22B 109.5 . .
H22A C22 H22B 109.5 . .
C21 C22 H22C 109.5 . .
H22A C22 H22C 109.5 . .
H22B C22 H22C 109.5 . .
C31 O31 Cd1 124.2(4) . .
O31 C31 O32 126.2(6) . .
O31 C31 C32 119.8(6) . .
O32 C31 C32 113.9(6) . .
C31 O32 Pt1 119.9(4) . .
C31 C32 H32A 109.5 . .
C31 C32 H32B 109.5 . .
H32A C32 H32B 109.5 . .
C31 C32 H32C 109.5 . .
H32A C32 H32C 109.5 . .
H32B C32 H32C 109.5 . .
C41 O41 Cd1 124.7(4) . .
O41 C41 O42 125.2(7) . .
O41 C41 C42 119.8(6) . .
O42 C41 C42 114.9(6) . .
C41 O42 Pt1 120.5(4) . .
C41 C42 H42A 109.5 . .
C41 C42 H42B 109.5 . .
H42A C42 H42B 109.5 . .
C41 C42 H42C 109.5 . .
H42A C42 H42C 109.5 . .
H42B C42 H42C 109.5 . .
C51 O51 Cd1 140.0(5) . .
O51 C51 O52 122.2(7) . .
O51 C51 C52 124.0(7) . .
O52 C51 C52 113.7(6) . .
C51 O52 H52 105(6) . .
C51 C52 H52A 109.5 . .
C51 C52 H52B 109.5 . .
H52A C52 H52B 109.5 . .
C51 C52 H52C 109.5 . .
H52A C52 H52C 109.5 . .
H52B C52 H52C 109.5 . .
loop_
_geom_bond_atom_site_label_1
_geom_bond_atom_site_label_2
_geom_bond_distance
_geom_bond_site_symmetry_2
Pt1 O32 2.019(4) .
Pt1 O42 2.024(5) .
Pt1 O12 2.036(5) .
Pt1 O22 2.041(5) .
Pt1 Cd1 2.8025(7) .
Cd1 O41 2.275(5) .
Cd1 O21 2.317(4) 2_666
Cd1 O31 2.350(5) .
Cd1 O21 2.372(5) .
Cd1 O51 2.384(5) .
Cd1 O11 2.447(5) .
O11 C11 1.273(8) .
C11 O12 1.265(8) .
C11 C12 1.539(9) .
C12 H12A 0.9800 .
C12 H12B 0.9800 .
C12 H12C 0.9800 .
O21 C21 1.269(8) .
C21 O22 1.285(8) .
C21 C22 1.505(9) .
C22 H22A 0.9800 .
C22 H22B 0.9800 .
C22 H22C 0.9800 .
O31 C31 1.247(9) .
C31 O32 1.302(8) .
C31 C32 1.524(9) .
C32 H32A 0.9800 .
C32 H32B 0.9800 .
C32 H32C 0.9800 .
O41 C41 1.259(9) .
C41 O42 1.315(9) .
C41 C42 1.512(10) .
C42 H42A 0.9800 .
C42 H42B 0.9800 .
C42 H42C 0.9800 .
O51 C51 1.240(8) .
C51 O52 1.330(9) .
C51 C52 1.485(10) .
O52 H52 1.07(11) .
C52 H52A 0.9800 .
C52 H52B 0.9800 .
C52 H52C 0.9800 .
loop_
_geom_hbond_atom_site_label_D
_geom_hbond_atom_site_label_H
_geom_hbond_atom_site_label_A
_geom_hbond_distance_DH
_geom_hbond_distance_HA
_geom_hbond_distance_DA
_geom_hbond_angle_DHA
_geom_hbond_site_symmetry_A
_geom_hbond_publ_flag
O52 H52 O11 1.07(11) 1.57(11) 2.588(7) 157(10) . yes
loop_
_geom_torsion_atom_site_label_1
_geom_torsion_atom_site_label_2
_geom_torsion_atom_site_label_3
_geom_torsion_atom_site_label_4
_geom_torsion
_geom_torsion_site_symmetry_1
_geom_torsion_site_symmetry_2
_geom_torsion_site_symmetry_3
_geom_torsion_site_symmetry_4
Cd1 O11 C11 O12 17.5(10) . . . .
Cd1 O11 C11 C12 -164.4(4) . . . .
O11 C11 O12 Pt1 3.6(9) . . . .
C12 C11 O12 Pt1 -174.6(4) . . . .
Cd1 O21 C21 O22 -157.6(5) 2_666 . . .
Cd1 O21 C21 O22 22.5(8) . . . .
Cd1 O21 C21 C22 22.7(8) 2_666 . . .
Cd1 O21 C21 C22 -157.1(4) . . . .
O21 C21 O22 Pt1 1.8(8) . . . .
C22 C21 O22 Pt1 -178.5(4) . . . .
Cd1 O31 C31 O32 12.1(10) . . . .
Cd1 O31 C31 C32 -165.6(5) . . . .
O31 C31 O32 Pt1 8.9(9) . . . .
C32 C31 O32 Pt1 -173.3(4) . . . .
Cd1 O41 C41 O42 19.6(9) . . . .
Cd1 O41 C41 C42 -158.0(5) . . . .
O41 C41 O42 Pt1 -0.7(9) . . . .
C42 C41 O42 Pt1 177.0(5) . . . .
Cd1 O51 C51 O52 -5.1(11) . . . .
Cd1 O51 C51 C52 173.3(5) . . . .
