#------------------------------------------------------------------------------
#$Date: 2021-08-26 11:11:08 +0300 (Thu, 26 Aug 2021) $
#$Revision: 268244 $
#$URL: file:///home/coder/svn-repositories/cod/cif/1/56/44/1564415.cif $
#------------------------------------------------------------------------------
#
# This file is available in the Crystallography Open Database (COD),
# http://www.crystallography.net/
#
# All data on this site have been placed in the public domain by the
# contributors.
#
data_1564415
loop_
_publ_author_name
'Pucho\<nov\'a, Miroslava'
'Maroszov\'a, Jaroslava'
'Vaskov\'a, Zuzana'
'Maz\'ur, Milan'
'Valigura, Du\<san'
'Koman, Marian'
'Moncol, Jan'
_publ_section_title
;
 One dimensional carboxylatocopper(II) coordination polymers with
 4-pyridylmethanol
;
_journal_name_full               'Inorganica Chimica Acta'
_journal_page_first              119763
_journal_paper_doi               10.1016/j.ica.2020.119763
_journal_volume                  510
_journal_year                    2020
_chemical_compound_source        .
_chemical_formula_moiety         'C28 H28 Cu1 N2 O8'
_chemical_formula_sum            'C28 H28 Cu N2 O8'
_chemical_formula_weight         584.08
_space_group_IT_number           2
_space_group_name_Hall           '-P 1'
_space_group_name_H-M_alt        'P -1'
_symmetry_cell_setting           triclinic
_symmetry_space_group_name_H-M   'P -1'
_atom_sites_solution_hydrogens   difmap
_atom_sites_solution_primary     other
_cell_angle_alpha                80.600(3)
_cell_angle_beta                 77.646(3)
_cell_angle_gamma                89.331(3)
_cell_formula_units_Z            1
_cell_length_a                   7.6091(3)
_cell_length_b                   7.6248(3)
_cell_length_c                   11.5732(4)
_cell_measurement_reflns_used    4845
_cell_measurement_temperature    150
_cell_measurement_theta_max      26.35
_cell_measurement_theta_min      4.58
_cell_volume                     646.91(4)
_computing_cell_refinement       APEX2
_computing_data_collection       APEX2
_computing_data_reduction        APEX2
_computing_molecular_graphics    'Olex2 (Dolomanov et al., 2009)'
_computing_publication_material  'CRYSTALS (Betteridge et al., 2003)'
_computing_structure_refinement  'CRYSTALS (Betteridge et al., 2003)'
_computing_structure_solution    'SIR2011 (Burla et al., 2012)'
_diffrn_ambient_temperature      150
_diffrn_measured_fraction_theta_full 0.988
_diffrn_measured_fraction_theta_max 0.988
_diffrn_measurement_device       CCD
_diffrn_measurement_device_type  'Bruker Kappa APEXII'
_diffrn_measurement_method       \w
_diffrn_radiation_monochromator  graphite
_diffrn_radiation_type           'Mo K\a'
_diffrn_radiation_wavelength     0.71073
_diffrn_reflns_av_R_equivalents  0.029
_diffrn_reflns_av_unetI/netI     0.061
_diffrn_reflns_limit_h_max       9
_diffrn_reflns_limit_h_min       -9
_diffrn_reflns_limit_k_max       9
_diffrn_reflns_limit_k_min       -9
_diffrn_reflns_limit_l_max       14
_diffrn_reflns_limit_l_min       -9
_diffrn_reflns_number            6230
_diffrn_reflns_theta_full        27.500
_diffrn_reflns_theta_max         27.500
_diffrn_reflns_theta_min         1.826
_diffrn_standards_decay_%        .
_diffrn_standards_interval_count .
_diffrn_standards_interval_time  .
_diffrn_standards_number         0
_exptl_absorpt_coefficient_mu    0.899
_exptl_absorpt_correction_T_max  0.548
_exptl_absorpt_correction_T_min  0.254
_exptl_absorpt_correction_type   multi-scan
_exptl_absorpt_process_details   'SADABS (Krause et al., 2015)'
_exptl_crystal_colour            green
_exptl_crystal_density_diffrn    1.499
_exptl_crystal_density_method    'not measured'
_exptl_crystal_description       block
_exptl_crystal_F_000             302.999
_exptl_crystal_size_max          0.370
_exptl_crystal_size_mid          0.270
_exptl_crystal_size_min          0.180
_refine_diff_density_max         0.19
_refine_diff_density_min         -0.22
_refine_ls_extinction_method     None
_refine_ls_goodness_of_fit_ref   1.0128
_refine_ls_hydrogen_treatment    mixed
_refine_ls_matrix_type           full
_refine_ls_number_parameters     186
_refine_ls_number_reflns         2451
_refine_ls_number_restraints     4
_refine_ls_R_factor_all          0.0316
_refine_ls_R_factor_gt           0.0290
_refine_ls_shift/su_max          0.0002334
_refine_ls_shift/su_mean         0.0000179
_refine_ls_structure_factor_coef Fsqd
_refine_ls_weighting_details
;
 Method= Modified Sheldrick
 w=1/[\s^2^(F^2^) + ( 0.04P)^2^ + 0.38P]
 ,where P=(max(Fo^2^,0) + 2Fc^2^)/3
;
_refine_ls_weighting_scheme      calc
_refine_ls_wR_factor_all         0.0734
_refine_ls_wR_factor_gt          0.0701
_refine_ls_wR_factor_ref         0.0734
_reflns_limit_h_max              9
_reflns_limit_h_min              -9
_reflns_limit_k_max              9
_reflns_limit_k_min              -9
_reflns_limit_l_max              15
_reflns_limit_l_min              0
_reflns_number_gt                2451
_reflns_number_total             2920
_reflns_threshold_expression     I>2.0\s(I)
_oxford_diffrn_Wilson_B_factor   0.00
_oxford_diffrn_Wilson_scale      0.00
_oxford_refine_ls_r_factor_ref   0.0316
_oxford_refine_ls_scale          1.547(11)
_oxford_reflns_number_all        2920
_iucr_refine_instructions_details
;
#
# Punched on 26/07/19 at 23:42:34
#
#LIST     12
BLOCK
CONT SCALE
CONT CU   (     1 ,X'S,U'S)  UNTIL C    (    14 )
CONT H    (    31 ,X'S,U[ISO])  UNTIL H    (    41 )
RIDE C   (   4,X'S) H   (  42,X'S)
RIDE C   (   5,X'S) H   (  51,X'S)
RIDE C   (   7,X'S) H   (  71,X'S)
RIDE C   (   8,X'S) H   (  81,X'S) H   (  82,X'S) H   (  83,X'S)
RIDE C   (   9,X'S) H   (  91,X'S)
RIDE C   (  10,X'S) H   ( 101,X'S)
RIDE C   (  12,X'S) H   ( 121,X'S)
RIDE C   (  13,X'S) H   ( 131,X'S)
RIDE C   (  14,X'S) H   ( 141,X'S) H   ( 142,X'S)
END
#
# Punched on 26/07/19 at 23:42:34
#
#LIST     16
NO
REM   HREST   START (DO NOT REMOVE THIS LINE)
REM NO H  NO #H U MULT   DIST
REM C-H
REM >4           1.5    .96 DISORDER
REM 1      1     1.2    .93 C C-H (ACETYLENE)
REM 1      2     1.2    .93 C-C(H)-C
REM 1      3     1.2    .98 (C)3-C-H
REM 2      1     1.2    .93 C=C-H(2)
REM 2      2     1.2    .97 (C)2-C-(H)2
REM 3      1     1.5    .96 C-C-(H)3
REM N-H
REM >4           1.5    .89 DISORDER
REM 1      1     1.2    .86 N-N/H
REM 1      2     1.2    .86 (C)2-N-H
REM 1      3     1.2    .89 (C)3-N-H
REM 2      1     1.2    .86 C-N-(H)2
REM 2      2     1.2    .89 (C)2-N-(H)2
REM 3      1     1.2    .89 C-H-(H)3
REM O-H
REM 1      1     1.5    .82 O-H
REM
REM DIST      ESD = 0.02
REM VIB       ESD = 0.002
REM ANGLE     ESD = 2.0
REM
REM TO ACTIVATE THE VIB RESTRAINTS, REMOVE LEADING REM
REM       H ON O-HETRO ATOM
DIST 0.82, 0.02 =
CONT O ( 3) TO H(31)
REST 0.034, 0.002 = H(31,U[ISO])
REM       H ON O-HETRO ATOM
DIST 0.82, 0.02 =
CONT O ( 4) TO H(41)
REST 0.044, 0.002 = H(41,U[ISO])
REM   HREST   END (DO NOT REMOVE THIS LINE)
END
;
_cod_data_source_file            5.cif
_cod_data_source_block           5
_cod_depositor_comments
;
The following automatic conversions were performed:

data item '_chemical_melting_point' value 'not measured' was changed
to '?' -- the value is undefined or not given.

data item '_exptl_crystal_density_meas' value 'not measured' was
changed to '?' -- the value is perceived as not measured.

Automatic conversion script
Id: cif_fix_values 8369 2020-08-20 11:38:08Z andrius 
;
_cod_original_sg_symbol_H-M      'P -1 '
_cod_original_formula_sum        'C28 H28 Cu1 N2 O8'
_cod_database_code               1564415
_oxford_refine_reflns_threshold_expression_ref I>2.0\s(I)
_iucr_refine_reflections_details
;
# Data was input as F-squared
# punching LIST  6 as LIST  6 with all keys set
# NBGNXT=    56
#LIST   6
READ NCOEF=11 TYPE=FIX, F'S = FSQ UNIT=DATA, CHECK=NO L30=NO ARCH=NO
STORE  NCOEF= 8
OUTPUT INDICES     /FO/        SQRTW       /FC/        BATCH/PHASE RATIO/JCODE
CONT   SIGMA(/FO/) CORRECTIONS
INPUT  H           K           L           /FO/        SQRTW       /FC/
CONT   BATCH       PHASE       JCODE       SIGMA(/FO/) CORRECTIONS
FOR (I4,I4,I4,F10.2,1X,G10.3,F10.2,F4.0,F6.2,F4.0,F8.2,F7.4)
END
  -9  -4  -5     85.75   0.00          0.00  1.  0.00  0.   18.52 1.0000
  -9  -4  -4     92.16   0.00          0.00  1.  0.00  0.   19.20 1.0000
  -9  -4  -3    133.63   0.00          0.00  1.  0.00  0.   18.26 1.0000
  -9  -4  -3    121.88   0.00          0.00  1.  0.00  0.   20.09 1.0000
  -9  -4  -2     17.22   0.00          0.00  1.  0.00  0.   11.54 1.0000
  -9  -4  -2     50.27   0.00          0.00  1.  0.00  0.   15.31 1.0000
  -9  -3  -4    164.61   0.00          0.00  1.  0.00  0.   22.58 1.0000
  -9  -3  -3     54.17   0.00          0.00  1.  0.00  0.   17.22 1.0000
  -9  -3  -1     11.56   0.00          0.00  1.  0.00  0.   12.17 1.0000
  -9  -3   0    296.53   0.00          0.00  1.  0.00  0.   29.27 1.0000
  -9  -3   0    257.28   0.00          0.00  1.  0.00  0.   28.87 1.0000
  -9  -2  -8     90.06   0.00          0.00  1.  0.00  0.   17.27 1.0000
  -9  -2  -3     64.80   0.00          0.00  1.  0.00  0.   17.55 1.0000
  -9  -2   1    217.86   0.00          0.00  1.  0.00  0.   24.21 1.0000
  -9  -1  -9    337.09   0.00          0.00  1.  0.00  0.   32.68 1.0000
  -9  -1  -7    113.00   0.00          0.00  1.  0.00  0.   20.83 1.0000
  -9  -1  -5     68.06   0.00          0.00  1.  0.00  0.   17.16 1.0000
  -9  -1  -3    259.85   0.00          0.00  1.  0.00  0.   28.37 1.0000
  -9  -1  -2    107.33   0.00          0.00  1.  0.00  0.   19.48 1.0000
  -9  -1   0    131.33   0.00          0.00  1.  0.00  0.   22.00 1.0000
  -9  -1   2     32.72   0.00          0.00  1.  0.00  0.   17.96 1.0000
  -9   0  -8    362.90   0.00          0.00  1.  0.00  0.   33.91 1.0000
  -9   0  -7    135.26   0.00          0.00  1.  0.00  0.   19.31 1.0000
  -9   0  -6     51.55   0.00          0.00  1.  0.00  0.   17.66 1.0000
  -9   0  -5    186.87   0.00          0.00  1.  0.00  0.   24.61 1.0000
  -9   0  -4     40.07   0.00          0.00  1.  0.00  0.   15.82 1.0000
  -9   0  -3    218.74   0.00          0.00  1.  0.00  0.   23.37 1.0000
  -9   0  -2     45.97   0.00          0.00  1.  0.00  0.   16.81 1.0000
  -9   0  -1     93.12   0.00          0.00  1.  0.00  0.   19.69 1.0000
  -9   0   0    264.39   0.00          0.00  1.  0.00  0.   26.99 1.0000
  -9   0   1    239.63   0.00          0.00  1.  0.00  0.   25.39 1.0000
  -9   0   2    115.13   0.00          0.00  1.  0.00  0.   21.89 1.0000
  -9   0   3    150.06   0.00          0.00  1.  0.00  0.   21.07 1.0000
  -9   1  -6    110.04   0.00          0.00  1.  0.00  0.   20.77 1.0000
  -9   1  -5     96.63   0.00          0.00  1.  0.00  0.   16.51 1.0000
  -9   1  -4     19.10   0.00          0.00  1.  0.00  0.   15.82 1.0000
  -9   1  -3    327.61   0.00          0.00  1.  0.00  0.   30.41 1.0000
  -9   1  -2     59.29   0.00          0.00  1.  0.00  0.   18.33 1.0000
  -9   1   0     92.16   0.00          0.00  1.  0.00  0.   19.58 1.0000
  -9   1   3     12.67   0.00          0.00  1.  0.00  0.   17.37 1.0000
  -9   2  -7     14.44   0.00          0.00  1.  0.00  0.   15.73 1.0000
  -9   2  -5     90.25   0.00          0.00  1.  0.00  0.   16.91 1.0000
  -9   2  -4    282.24   0.00          0.00  1.  0.00  0.   28.90 1.0000
  -9   2  -3     56.40   0.00          0.00  1.  0.00  0.   17.72 1.0000
  -9   2  -2    329.42   0.00          0.00  1.  0.00  0.   30.85 1.0000
  -9   2   0    153.51   0.00          0.00  1.  0.00  0.   22.55 1.0000
  -9   2   2    351.19   0.00          0.00  1.  0.00  0.   33.36 1.0000
  -9   3  -6    163.33   0.00          0.00  1.  0.00  0.   23.52 1.0000
  -9   3  -5    164.87   0.00          0.00  1.  0.00  0.   22.08 1.0000
  -9   3  -4    116.86   0.00          0.00  1.  0.00  0.   19.89 1.0000
  -9   3  -3     82.63   0.00          0.00  1.  0.00  0.   19.27 1.0000
  -9   3  -2    136.19   0.00          0.00  1.  0.00  0.   21.94 1.0000
  -9   3  -1     20.88   0.00          0.00  1.  0.00  0.   15.45 1.0000
  -9   3   1     63.36   0.00          0.00  1.  0.00  0.   17.99 1.0000
  -8  -5  -8     92.54   0.00          0.00  1.  0.00  0.   18.09 1.0000
  -8  -5  -7     37.33   0.00          0.00  1.  0.00  0.   14.05 1.0000
  -8  -5  -7     34.57   0.00          0.00  1.  0.00  0.   14.58 1.0000
  -8  -5  -6     59.14   0.00          0.00  1.  0.00  0.   15.84 1.0000
  -8  -5  -6      7.24   0.00          0.00  1.  0.00  0.   17.11 1.0000
  -8  -5  -5    135.02   0.00          0.00  1.  0.00  0.   22.54 1.0000
  -8  -5  -4     54.02   0.00          0.00  1.  0.00  0.   15.14 1.0000
  -8  -5  -4     62.41   0.00          0.00  1.  0.00  0.   15.64 1.0000
  -8  -5  -1    395.21   0.00          0.00  1.  0.00  0.   35.39 1.0000
  -8  -5  -1    435.56   0.00          0.00  1.  0.00  0.   32.14 1.0000
  -8  -5   0    169.78   0.00          0.00  1.  0.00  0.   23.45 1.0000
  -8  -5   0    162.31   0.00          0.00  1.  0.00  0.   19.62 1.0000
  -8  -4  -9    116.21   0.00          0.00  1.  0.00  0.   20.48 1.0000
  -8  -4  -8    180.10   0.00          0.00  1.  0.00  0.   20.13 1.0000
  -8  -4  -4    133.40   0.00          0.00  1.  0.00  0.   17.33 1.0000
  -8  -4  -4    144.48   0.00          0.00  1.  0.00  0.   20.67 1.0000
  -8  -4  -3     99.00   0.00          0.00  1.  0.00  0.   17.11 1.0000
  -8  -3 -10    446.05   0.00          0.00  1.  0.00  0.   35.48 1.0000
  -8  -3  -8     59.44   0.00          0.00  1.  0.00  0.   15.42 1.0000
  -8  -3  -8     45.16   0.00          0.00  1.  0.00  0.   14.11 1.0000
  -8  -3  -6    142.80   0.00          0.00  1.  0.00  0.   19.60 1.0000
  -8  -3  -6    187.96   0.00          0.00  1.  0.00  0.   21.11 1.0000
  -8  -3  -5     -2.72   0.00          0.00  1.  0.00  0.   12.47 1.0000
  -8  -3  -5     -0.96   0.00          0.00  1.  0.00  0.   11.64 1.0000
  -8  -3   0    285.95   0.00          0.00  1.  0.00  0.   26.38 1.0000
  -8  -3   0    295.84   0.00          0.00  1.  0.00  0.   27.18 1.0000
  -8  -3   0    325.80   0.00          0.00  1.  0.00  0.   28.88 1.0000
  -8  -3   2    216.09   0.00          0.00  1.  0.00  0.   23.23 1.0000
  -8  -3   2    234.09   0.00          0.00  1.  0.00  0.   24.48 1.0000
  -8  -3   3     77.62   0.00          0.00  1.  0.00  0.   19.03 1.0000
  -8  -3   3     60.22   0.00          0.00  1.  0.00  0.   15.21 1.0000
  -8  -3   4      3.57   0.00          0.00  1.  0.00  0.   11.76 1.0000
  -8  -3   4     11.63   0.00          0.00  1.  0.00  0.   12.07 1.0000
  -8  -2 -11    222.31   0.00          0.00  1.  0.00  0.   26.24 1.0000
  -8  -2 -10    299.29   0.00          0.00  1.  0.00  0.   30.79 1.0000
  -8  -2  -9    106.09   0.00          0.00  1.  0.00  0.   16.89 1.0000
  -8  -2  -8    101.20   0.00          0.00  1.  0.00  0.   19.11 1.0000
  -8  -2  -7     80.82   0.00          0.00  1.  0.00  0.   17.62 1.0000
  -8  -2  -7     75.34   0.00          0.00  1.  0.00  0.   17.36 1.0000
  -8  -2  -6    186.05   0.00          0.00  1.  0.00  0.   21.82 1.0000
  -8  -2  -6    198.81   0.00          0.00  1.  0.00  0.   22.84 1.0000
  -8  -2  -4    353.44   0.00          0.00  1.  0.00  0.   30.46 1.0000
  -8  -2  -4    380.64   0.00          0.00  1.  0.00  0.   29.66 1.0000
  -8  -2  -1      2.89   0.00          0.00  1.  0.00  0.   13.46 1.0000
  -8  -2   0     12.18   0.00          0.00  1.  0.00  0.   11.73 1.0000
  -8  -2   1    126.56   0.00          0.00  1.  0.00  0.   20.48 1.0000
  -8  -2   1    156.50   0.00          0.00  1.  0.00  0.   21.02 1.0000
  -8  -2   2    192.38   0.00          0.00  1.  0.00  0.   23.86 1.0000
  -8  -2   2    214.62   0.00          0.00  1.  0.00  0.   22.27 1.0000
  -8  -2   3     97.61   0.00          0.00  1.  0.00  0.   16.20 1.0000
  -8  -2   4    184.42   0.00          0.00  1.  0.00  0.   19.56 1.0000
  -8  -2   4    220.52   0.00          0.00  1.  0.00  0.   26.73 1.0000
  -8  -1 -11     95.65   0.00          0.00  1.  0.00  0.   20.93 1.0000
  -8  -1  -9     51.84   0.00          0.00  1.  0.00  0.   13.82 1.0000
  -8  -1  -7    123.43   0.00          0.00  1.  0.00  0.   18.22 1.0000
  -8  -1  -6    137.36   0.00          0.00  1.  0.00  0.   20.39 1.0000
  -8  -1  -6    150.55   0.00          0.00  1.  0.00  0.   20.86 1.0000
  -8  -1  -5    208.80   0.00          0.00  1.  0.00  0.   21.39 1.0000
  -8  -1  -5    176.89   0.00          0.00  1.  0.00  0.   21.81 1.0000
  -8  -1  -3    196.84   0.00          0.00  1.  0.00  0.   20.76 1.0000
  -8  -1  -3    175.56   0.00          0.00  1.  0.00  0.   22.53 1.0000
  -8  -1  -2    124.32   0.00          0.00  1.  0.00  0.   19.62 1.0000
  -8  -1  -2    133.63   0.00          0.00  1.  0.00  0.   19.19 1.0000
  -8  -1  -1     55.50   0.00          0.00  1.  0.00  0.   15.79 1.0000
  -8  -1   1    311.17   0.00          0.00  1.  0.00  0.   26.11 1.0000
  -8  -1   2    199.09   0.00          0.00  1.  0.00  0.   24.27 1.0000
  -8  -1   4     84.46   0.00          0.00  1.  0.00  0.   14.89 1.0000
  -8  -1   4     94.09   0.00          0.00  1.  0.00  0.   19.21 1.0000
  -8  -1   5     76.56   0.00          0.00  1.  0.00  0.   16.98 1.0000
  -8  -1   5    102.82   0.00          0.00  1.  0.00  0.   15.41 1.0000
  -8   0 -11     51.70   0.00          0.00  1.  0.00  0.   17.83 1.0000
  -8   0 -10    278.89   0.00          0.00  1.  0.00  0.   29.39 1.0000
  -8   0  -9    253.13   0.00          0.00  1.  0.00  0.   27.37 1.0000
  -8   0  -8    315.42   0.00          0.00  1.  0.00  0.   29.13 1.0000
  -8   0  -7    270.60   0.00          0.00  1.  0.00  0.   26.98 1.0000
  -8   0  -6    280.23   0.00          0.00  1.  0.00  0.   25.44 1.0000
  -8   0  -5    701.72   0.00          0.00  1.  0.00  0.   47.15 1.0000
  -8   0  -4    907.82   0.00          0.00  1.  0.00  0.   55.44 1.0000
  -8   0  -4    957.28   0.00          0.00  1.  0.00  0.   56.31 1.0000
  -8   0  -3    480.92   0.00          0.00  1.  0.00  0.   35.97 1.0000
  -8   0  -3    493.28   0.00          0.00  1.  0.00  0.   36.42 1.0000
  -8   0  -2    152.52   0.00          0.00  1.  0.00  0.   20.25 1.0000
  -8   0  -2    178.76   0.00          0.00  1.  0.00  0.   19.79 1.0000
  -8   0  -1     33.41   0.00          0.00  1.  0.00  0.   14.33 1.0000
  -8   0  -1     64.00   0.00          0.00  1.  0.00  0.   16.00 1.0000
  -8   0   0    120.78   0.00          0.00  1.  0.00  0.   20.00 1.0000
  -8   0   1    257.28   0.00          0.00  1.  0.00  0.   26.95 1.0000
  -8   0   2    257.28   0.00          0.00  1.  0.00  0.   26.63 1.0000
  -8   0   4      4.58   0.00          0.00  1.  0.00  0.   14.85 1.0000
  -8   0   5     88.17   0.00          0.00  1.  0.00  0.   17.47 1.0000
  -8   0   5     55.65   0.00          0.00  1.  0.00  0.   11.79 1.0000
  -8   1 -10    195.16   0.00          0.00  1.  0.00  0.   24.31 1.0000
  -8   1  -8     37.82   0.00          0.00  1.  0.00  0.   15.99 1.0000
  -8   1  -5    160.28   0.00          0.00  1.  0.00  0.   19.50 1.0000
  -8   1  -4    311.17   0.00          0.00  1.  0.00  0.   27.52 1.0000
  -8   1  -2    194.60   0.00          0.00  1.  0.00  0.   22.32 1.0000
  -8   1  -1     44.09   0.00          0.00  1.  0.00  0.   14.08 1.0000
  -8   1   0    135.49   0.00          0.00  1.  0.00  0.   18.39 1.0000
  -8   1   1    225.60   0.00          0.00  1.  0.00  0.   24.93 1.0000
  -8   1   6     87.80   0.00          0.00  1.  0.00  0.   22.11 1.0000
  -8   2  -3    653.31   0.00          0.00  1.  0.00  0.   42.94 1.0000
  -8   2  -2    133.17   0.00          0.00  1.  0.00  0.   20.08 1.0000
  -8   2  -1     50.69   0.00          0.00  1.  0.00  0.   14.10 1.0000
  -8   2   0     53.29   0.00          0.00  1.  0.00  0.   14.45 1.0000
  -8   2   1    187.14   0.00          0.00  1.  0.00  0.   23.26 1.0000
  -8   2   5     15.21   0.00          0.00  1.  0.00  0.   15.37 1.0000
  -8   3  -5     18.06   0.00          0.00  1.  0.00  0.   14.45 1.0000
  -8   3  -3    325.44   0.00          0.00  1.  0.00  0.   28.86 1.0000
  -8   3  -1    280.90   0.00          0.00  1.  0.00  0.   27.15 1.0000
  -8   3   4     55.65   0.00          0.00  1.  0.00  0.   17.61 1.0000
  -8   3   5     58.98   0.00          0.00  1.  0.00  0.   18.74 1.0000
  -8   4  -7    287.30   0.00          0.00  1.  0.00  0.   28.14 1.0000
  -8   4  -3     72.93   0.00          0.00  1.  0.00  0.   13.83 1.0000
  -8   4  -1    121.44   0.00          0.00  1.  0.00  0.   18.51 1.0000
  -8   4   3    197.96   0.00          0.00  1.  0.00  0.   24.20 1.0000
  -8   4   4     84.64   0.00          0.00  1.  0.00  0.   18.22 1.0000
  -8   5  -5     88.92   0.00          0.00  1.  0.00  0.   14.90 1.0000
  -8   5  -2     74.13   0.00          0.00  1.  0.00  0.   16.70 1.0000
  -8   5   0    166.93   0.00          0.00  1.  0.00  0.   19.38 1.0000
  -8   5   1     29.81   0.00          0.00  1.  0.00  0.   15.07 1.0000
  -8   5   2    927.81   0.00          0.00  1.  0.00  0.   56.05 1.0000
  -7  -7  -5     78.85   0.00          0.00  1.  0.00  0.   14.03 1.0000
  -7  -7  -5     74.30   0.00          0.00  1.  0.00  0.   16.55 1.0000
  -7  -7  -4     78.15   0.00          0.00  1.  0.00  0.   13.97 1.0000
  -7  -7  -4     63.52   0.00          0.00  1.  0.00  0.   18.17 1.0000
  -7  -7  -3     15.76   0.00          0.00  1.  0.00  0.   16.04 1.0000
  -7  -7  -3     10.11   0.00          0.00  1.  0.00  0.   10.56 1.0000
  -7  -6  -9    -17.06   0.00          0.00  1.  0.00  0.   13.79 1.0000
  -7  -6  -9     -3.35   0.00          0.00  1.  0.00  0.    8.89 1.0000
  -7  -6  -8      1.23   0.00          0.00  1.  0.00  0.   11.81 1.0000
  -7  -6  -8     10.76   0.00          0.00  1.  0.00  0.   15.02 1.0000
  -7  -6  -7     21.16   0.00          0.00  1.  0.00  0.   10.12 1.0000
  -7  -6  -7     36.24   0.00          0.00  1.  0.00  0.   16.01 1.0000
  -7  -6  -6     61.47   0.00          0.00  1.  0.00  0.   16.78 1.0000
  -7  -6  -6     42.25   0.00          0.00  1.  0.00  0.   13.00 1.0000
  -7  -6  -5     40.45   0.00          0.00  1.  0.00  0.   12.72 1.0000
  -7  -6  -5     36.00   0.00          0.00  1.  0.00  0.   15.60 1.0000
  -7  -6  -2     68.56   0.00          0.00  1.  0.00  0.   17.88 1.0000
  -7  -6  -2     75.52   0.00          0.00  1.  0.00  0.   13.21 1.0000
  -7  -6  -1    179.56   0.00          0.00  1.  0.00  0.   23.85 1.0000
  -7  -6  -1    166.41   0.00          0.00  1.  0.00  0.   19.35 1.0000
  -7  -6   0    148.11   0.00          0.00  1.  0.00  0.   19.23 1.0000
  -7  -6   0    137.83   0.00          0.00  1.  0.00  0.   17.84 1.0000
  -7  -5 -10    142.56   0.00          0.00  1.  0.00  0.   20.06 1.0000
  -7  -5  -9     33.87   0.00          0.00  1.  0.00  0.   11.41 1.0000
  -7  -5  -6    145.93   0.00          0.00  1.  0.00  0.   18.36 1.0000
  -7  -5  -6    167.96   0.00          0.00  1.  0.00  0.   22.81 1.0000
  -7  -5  -5    143.52   0.00          0.00  1.  0.00  0.   18.93 1.0000
  -7  -5  -5    160.02   0.00          0.00  1.  0.00  0.   22.01 1.0000
  -7  -5  -4    243.67   0.00          0.00  1.  0.00  0.   22.79 1.0000
  -7  -5  -4    244.61   0.00          0.00  1.  0.00  0.   25.02 1.0000
  -7  -5  -4    259.53   0.00          0.00  1.  0.00  0.   23.20 1.0000
  -7  -5  -3    135.26   0.00          0.00  1.  0.00  0.   18.61 1.0000
  -7  -5  -3    171.09   0.00          0.00  1.  0.00  0.   18.84 1.0000
  -7  -5  -3    157.75   0.00          0.00  1.  0.00  0.   18.59 1.0000
  -7  -5  -1    152.28   0.00          0.00  1.  0.00  0.   18.02 1.0000
  -7  -5  -1    167.44   0.00          0.00  1.  0.00  0.   21.22 1.0000
  -7  -5   0    137.36   0.00          0.00  1.  0.00  0.   18.28 1.0000
  -7  -5   0    150.55   0.00          0.00  1.  0.00  0.   20.37 1.0000
  -7  -5   1    326.16   0.00          0.00  1.  0.00  0.   29.26 1.0000
  -7  -5   1    318.98   0.00          0.00  1.  0.00  0.   27.15 1.0000
  -7  -5   2    335.62   0.00          0.00  1.  0.00  0.   30.04 1.0000
  -7  -5   2    376.75   0.00          0.00  1.  0.00  0.   29.89 1.0000
  -7  -5   3    468.72   0.00          0.00  1.  0.00  0.   36.37 1.0000
  -7  -5   3    522.12   0.00          0.00  1.  0.00  0.   36.56 1.0000
  -7  -4 -11    313.29   0.00          0.00  1.  0.00  0.   29.03 1.0000
  -7  -4 -10    375.58   0.00          0.00  1.  0.00  0.   31.01 1.0000
  -7  -4  -9    180.10   0.00          0.00  1.  0.00  0.   21.74 1.0000
  -7  -4  -9    183.33   0.00          0.00  1.  0.00  0.   21.66 1.0000
  -7  -4  -8     47.47   0.00          0.00  1.  0.00  0.   13.37 1.0000
  -7  -4  -8     53.88   0.00          0.00  1.  0.00  0.   15.56 1.0000
  -7  -4  -1     60.06   0.00          0.00  1.  0.00  0.   11.78 1.0000
  -7  -4  -1     80.64   0.00          0.00  1.  0.00  0.   14.19 1.0000
  -7  -4  -1     78.68   0.00          0.00  1.  0.00  0.   14.72 1.0000
  -7  -4   1    300.33   0.00          0.00  1.  0.00  0.   26.34 1.0000
  -7  -4   1    286.62   0.00          0.00  1.  0.00  0.   25.40 1.0000
  -7  -4   1    314.71   0.00          0.00  1.  0.00  0.   25.55 1.0000
  -7  -4   3     30.36   0.00          0.00  1.  0.00  0.   11.57 1.0000
  -7  -4   5     11.36   0.00          0.00  1.  0.00  0.   13.95 1.0000
  -7  -4   5     29.70   0.00          0.00  1.  0.00  0.   13.52 1.0000
  -7  -3 -12     71.40   0.00          0.00  1.  0.00  0.   18.08 1.0000
  -7  -3 -11    129.73   0.00          0.00  1.  0.00  0.   20.27 1.0000
  -7  -3 -10     27.14   0.00          0.00  1.  0.00  0.   14.69 1.0000
  -7  -3  -9    500.42   0.00          0.00  1.  0.00  0.   35.34 1.0000
  -7  -3  -9    494.17   0.00          0.00  1.  0.00  0.   35.57 1.0000
  -7  -3  -8    211.12   0.00          0.00  1.  0.00  0.   22.09 1.0000
  -7  -3  -8    178.49   0.00          0.00  1.  0.00  0.   21.64 1.0000
  -7  -3  -3      1.42   0.00          0.00  1.  0.00  0.   10.78 1.0000
  -7  -3  -3      2.66   0.00          0.00  1.  0.00  0.    8.67 1.0000
  -7  -3  -2     25.50   0.00          0.00  1.  0.00  0.   11.41 1.0000
  -7  -3  -1    137.83   0.00          0.00  1.  0.00  0.   18.08 1.0000
  -7  -3  -1     91.01   0.00          0.00  1.  0.00  0.   16.03 1.0000
  -7  -3   2     95.06   0.00          0.00  1.  0.00  0.   16.77 1.0000
  -7  -3   2    113.21   0.00          0.00  1.  0.00  0.   16.17 1.0000
  -7  -3   2     88.92   0.00          0.00  1.  0.00  0.   16.60 1.0000
  -7  -2 -12    126.79   0.00          0.00  1.  0.00  0.   21.84 1.0000
  -7  -2 -11    275.56   0.00          0.00  1.  0.00  0.   26.23 1.0000
  -7  -2 -10    114.92   0.00          0.00  1.  0.00  0.   18.65 1.0000
  -7  -2  -9    317.20   0.00          0.00  1.  0.00  0.   29.21 1.0000
  -7  -2  -9    326.89   0.00          0.00  1.  0.00  0.   29.29 1.0000
  -7  -2  -6     91.97   0.00          0.00  1.  0.00  0.   16.30 1.0000
  -7  -2  -6     73.62   0.00          0.00  1.  0.00  0.   15.96 1.0000
  -7  -2  -5    306.60   0.00          0.00  1.  0.00  0.   26.26 1.0000
  -7  -2  -5    320.41   0.00          0.00  1.  0.00  0.   25.78 1.0000
  -7  -2  -4    178.76   0.00          0.00  1.  0.00  0.   20.59 1.0000
  -7  -2  -4    168.74   0.00          0.00  1.  0.00  0.   19.23 1.0000
  -7  -2  -1     41.22   0.00          0.00  1.  0.00  0.   10.27 1.0000
  -7  -2  -1     14.98   0.00          0.00  1.  0.00  0.   12.07 1.0000
  -7  -2   4     41.09   0.00          0.00  1.  0.00  0.   14.61 1.0000
  -7  -2   4     26.42   0.00          0.00  1.  0.00  0.   10.49 1.0000
  -7  -2   4     36.00   0.00          0.00  1.  0.00  0.   12.36 1.0000
  -7  -2   5     61.00   0.00          0.00  1.  0.00  0.   16.71 1.0000
  -7  -2   6    286.62   0.00          0.00  1.  0.00  0.   29.46 1.0000
  -7  -2   6    281.90   0.00          0.00  1.  0.00  0.   23.84 1.0000
  -7  -1 -11    170.56   0.00          0.00  1.  0.00  0.   21.16 1.0000
  -7  -1 -10    181.44   0.00          0.00  1.  0.00  0.   22.90 1.0000
  -7  -1  -9     43.16   0.00          0.00  1.  0.00  0.   15.64 1.0000
  -7  -1  -9     62.88   0.00          0.00  1.  0.00  0.   13.48 1.0000
  -7  -1  -8    179.02   0.00          0.00  1.  0.00  0.   21.41 1.0000
  -7  -1  -8    173.45   0.00          0.00  1.  0.00  0.   21.07 1.0000
  -7  -1  -5   1249.62   0.00          0.00  1.  0.00  0.   69.29 1.0000
  -7  -1  -5   1228.50   0.00          0.00  1.  0.00  0.   68.70 1.0000
  -7  -1  -1    319.34   0.00          0.00  1.  0.00  0.   26.45 1.0000
  -7  -1  -1    322.92   0.00          0.00  1.  0.00  0.   26.95 1.0000
  -7  -1   1    518.02   0.00          0.00  1.  0.00  0.   36.42 1.0000
  -7  -1   1    505.35   0.00          0.00  1.  0.00  0.   36.42 1.0000
  -7  -1   4     20.79   0.00          0.00  1.  0.00  0.   14.23 1.0000
  -7  -1   5    247.75   0.00          0.00  1.  0.00  0.   21.41 1.0000
  -7  -1   5    232.56   0.00          0.00  1.  0.00  0.   25.62 1.0000
  -7  -1   6    300.33   0.00          0.00  1.  0.00  0.   28.77 1.0000
  -7  -1   6    323.64   0.00          0.00  1.  0.00  0.   23.75 1.0000
  -7   0 -12    369.02   0.00          0.00  1.  0.00  0.   34.58 1.0000
  -7   0 -11     26.73   0.00          0.00  1.  0.00  0.   14.99 1.0000
  -7   0 -10     11.42   0.00          0.00  1.  0.00  0.   10.75 1.0000
  -7   0  -9     34.93   0.00          0.00  1.  0.00  0.   15.13 1.0000
  -7   0  -8     83.72   0.00          0.00  1.  0.00  0.   14.27 1.0000
  -7   0  -8     69.56   0.00          0.00  1.  0.00  0.   13.51 1.0000
  -7   0  -7      8.70   0.00          0.00  1.  0.00  0.   13.28 1.0000
  -7   0  -7     30.14   0.00          0.00  1.  0.00  0.   11.75 1.0000
  -7   0  -6    964.10   0.00          0.00  1.  0.00  0.   55.27 1.0000
  -7   0  -6    901.20   0.00          0.00  1.  0.00  0.   53.44 1.0000
  -7   0  -5    901.20   0.00          0.00  1.  0.00  0.   52.84 1.0000
  -7   0  -5    945.56   0.00          0.00  1.  0.00  0.   54.12 1.0000
  -7   0  -4    723.61   0.00          0.00  1.  0.00  0.   45.19 1.0000
  -7   0  -4    750.76   0.00          0.00  1.  0.00  0.   46.58 1.0000
  -7   0  -3    577.92   0.00          0.00  1.  0.00  0.   37.50 1.0000
  -7   0  -3    537.31   0.00          0.00  1.  0.00  0.   36.16 1.0000
  -7   0  -2    390.85   0.00          0.00  1.  0.00  0.   28.47 1.0000
  -7   0  -2    393.23   0.00          0.00  1.  0.00  0.   28.95 1.0000
  -7   0  -1     55.20   0.00          0.00  1.  0.00  0.   15.45 1.0000
  -7   0  -1     57.30   0.00          0.00  1.  0.00  0.   13.93 1.0000
  -7   0   0   1791.83   0.00          0.00  1.  0.00  0.   89.74 1.0000
  -7   0   0   1814.76   0.00          0.00  1.  0.00  0.   90.31 1.0000
  -7   0   1    941.88   0.00          0.00  1.  0.00  0.   55.86 1.0000
  -7   0   1    949.26   0.00          0.00  1.  0.00  0.   55.46 1.0000
  -7   0   2    277.56   0.00          0.00  1.  0.00  0.   25.99 1.0000
  -7   0   2    265.69   0.00          0.00  1.  0.00  0.   25.75 1.0000
  -7   0   3    187.96   0.00          0.00  1.  0.00  0.   23.03 1.0000
  -7   0   3    219.93   0.00          0.00  1.  0.00  0.   21.06 1.0000
  -7   0   4     22.66   0.00          0.00  1.  0.00  0.   13.90 1.0000
  -7   0   5     13.62   0.00          0.00  1.  0.00  0.    9.08 1.0000
  -7   0   5      2.31   0.00          0.00  1.  0.00  0.   13.25 1.0000
  -7   0   6     -7.08   0.00          0.00  1.  0.00  0.    7.87 1.0000
  -7   0   6     10.89   0.00          0.00  1.  0.00  0.   14.06 1.0000
  -7   1 -11    214.92   0.00          0.00  1.  0.00  0.   25.22 1.0000
  -7   1  -8    131.10   0.00          0.00  1.  0.00  0.   20.15 1.0000
  -7   1  -5   1360.87   0.00          0.00  1.  0.00  0.   70.09 1.0000
  -7   1  -5   1273.06   0.00          0.00  1.  0.00  0.   68.51 1.0000
  -7   1  -4    277.56   0.00          0.00  1.  0.00  0.   26.32 1.0000
  -7   1  -4    332.33   0.00          0.00  1.  0.00  0.   27.71 1.0000
  -7   1  -1    334.16   0.00          0.00  1.  0.00  0.   60.32 1.0000
  -7   1  -1    340.40   0.00          0.00  1.  0.00  0.   27.68 1.0000
  -7   1   0   2534.12   0.00          0.00  1.  0.00  0.  124.84 1.0000
  -7   1   0   2465.12   0.00          0.00  1.  0.00  0.  123.13 1.0000
  -7   1   4     55.35   0.00          0.00  1.  0.00  0.   16.07 1.0000
  -7   1   6    281.90   0.00          0.00  1.  0.00  0.   21.83 1.0000
  -7   1   6    273.57   0.00          0.00  1.  0.00  0.   28.45 1.0000
  -7   2 -10     79.21   0.00          0.00  1.  0.00  0.   18.69 1.0000
  -7   2  -9    377.91   0.00          0.00  1.  0.00  0.   30.33 1.0000
  -7   2  -7    283.92   0.00          0.00  1.  0.00  0.   24.60 1.0000
  -7   2  -6     49.70   0.00          0.00  1.  0.00  0.   15.37 1.0000
  -7   2  -2    159.77   0.00          0.00  1.  0.00  0.   18.96 1.0000
  -7   2  -2    180.90   0.00          0.00  1.  0.00  0.   18.56 1.0000
  -7   2  -1     17.39   0.00          0.00  1.  0.00  0.   12.43 1.0000
  -7   2   0    298.25   0.00          0.00  1.  0.00  0.   26.94 1.0000
  -7   2   0    250.91   0.00          0.00  1.  0.00  0.   22.81 1.0000
  -7   2   2     75.00   0.00          0.00  1.  0.00  0.   14.03 1.0000
  -7   2   2     90.44   0.00          0.00  1.  0.00  0.   16.74 1.0000
  -7   2   7    214.62   0.00          0.00  1.  0.00  0.   25.20 1.0000
  -7   3 -10     -3.80   0.00          0.00  1.  0.00  0.   13.96 1.0000
  -7   3  -9    411.68   0.00          0.00  1.  0.00  0.   35.30 1.0000
  -7   3  -8    194.88   0.00          0.00  1.  0.00  0.   22.62 1.0000
  -7   3  -4    241.49   0.00          0.00  1.  0.00  0.   22.38 1.0000
  -7   3  -3     13.54   0.00          0.00  1.  0.00  0.   12.14 1.0000
  -7   3  -2     22.85   0.00          0.00  1.  0.00  0.   13.00 1.0000
  -7   3  -2     49.00   0.00          0.00  1.  0.00  0.   11.20 1.0000
  -7   3   2    141.13   0.00          0.00  1.  0.00  0.   20.20 1.0000
  -7   3   5     56.85   0.00          0.00  1.  0.00  0.   14.78 1.0000
  -7   3   7    205.92   0.00          0.00  1.  0.00  0.   25.26 1.0000
  -7   4  -7     76.56   0.00          0.00  1.  0.00  0.   14.00 1.0000
  -7   4  -6    243.36   0.00          0.00  1.  0.00  0.   23.71 1.0000
  -7   4  -5    590.00   0.00          0.00  1.  0.00  0.   39.35 1.0000
  -7   4  -4   1062.76   0.00          0.00  1.  0.00  0.   57.38 1.0000
  -7   4  -3     78.85   0.00          0.00  1.  0.00  0.   14.74 1.0000
  -7   4  -2     56.25   0.00          0.00  1.  0.00  0.   13.80 1.0000
  -7   4   2    250.59   0.00          0.00  1.  0.00  0.   24.06 1.0000
  -7   4   4     96.43   0.00          0.00  1.  0.00  0.   17.09 1.0000
  -7   4   6    137.36   0.00          0.00  1.  0.00  0.   19.22 1.0000
  -7   4   7    653.31   0.00          0.00  1.  0.00  0.   46.52 1.0000
  -7   5  -2    327.25   0.00          0.00  1.  0.00  0.   26.05 1.0000
  -7   5   4    254.40   0.00          0.00  1.  0.00  0.   25.52 1.0000
  -7   5   5     54.17   0.00          0.00  1.  0.00  0.   16.93 1.0000
  -6  -7  -9     23.43   0.00          0.00  1.  0.00  0.   15.88 1.0000
  -6  -7  -9     39.31   0.00          0.00  1.  0.00  0.   11.91 1.0000
  -6  -7  -8    187.69   0.00          0.00  1.  0.00  0.   17.81 1.0000
  -6  -7  -8    131.79   0.00          0.00  1.  0.00  0.   22.50 1.0000
  -6  -7  -7     28.62   0.00          0.00  1.  0.00  0.   11.98 1.0000
  -6  -7  -6    244.61   0.00          0.00  1.  0.00  0.   20.02 1.0000
  -6  -7  -6    254.08   0.00          0.00  1.  0.00  0.   27.74 1.0000
  -6  -7  -5     23.62   0.00          0.00  1.  0.00  0.   11.76 1.0000
  -6  -7  -5     45.02   0.00          0.00  1.  0.00  0.   10.47 1.0000
  -6  -7  -2     82.08   0.00          0.00  1.  0.00  0.   18.66 1.0000
  -6  -7  -2    100.40   0.00          0.00  1.  0.00  0.   13.23 1.0000
  -6  -7  -1     47.47   0.00          0.00  1.  0.00  0.   17.23 1.0000
  -6  -7   0     60.68   0.00          0.00  1.  0.00  0.   11.53 1.0000
  -6  -7   0     96.04   0.00          0.00  1.  0.00  0.   19.99 1.0000
  -6  -7   1     23.81   0.00          0.00  1.  0.00  0.    9.56 1.0000
  -6  -7   1     17.56   0.00          0.00  1.  0.00  0.   12.07 1.0000
  -6  -6 -10    143.76   0.00          0.00  1.  0.00  0.   18.46 1.0000
  -6  -6 -10    100.80   0.00          0.00  1.  0.00  0.   16.67 1.0000
  -6  -6  -9    115.56   0.00          0.00  1.  0.00  0.   16.56 1.0000
  -6  -6  -9    121.44   0.00          0.00  1.  0.00  0.   17.41 1.0000
  -6  -6  -8    180.90   0.00          0.00  1.  0.00  0.   22.06 1.0000
  -6  -6  -8    201.64   0.00          0.00  1.  0.00  0.   19.31 1.0000
  -6  -6  -7    207.94   0.00          0.00  1.  0.00  0.   23.94 1.0000
  -6  -6  -7    199.37   0.00          0.00  1.  0.00  0.   18.64 1.0000
  -6  -6  -6     45.70   0.00          0.00  1.  0.00  0.   13.93 1.0000
  -6  -6  -6     51.70   0.00          0.00  1.  0.00  0.   11.65 1.0000
  -6  -6  -5    147.87   0.00          0.00  1.  0.00  0.   15.81 1.0000
  -6  -6  -5    155.75   0.00          0.00  1.  0.00  0.   21.22 1.0000
  -6  -6  -4    137.59   0.00          0.00  1.  0.00  0.   20.18 1.0000
  -6  -6  -4    127.01   0.00          0.00  1.  0.00  0.   14.65 1.0000
  -6  -6  -2     30.47   0.00          0.00  1.  0.00  0.   14.02 1.0000
  -6  -6  -2     27.77   0.00          0.00  1.  0.00  0.    9.91 1.0000
  -6  -6  -1     58.98   0.00          0.00  1.  0.00  0.   11.98 1.0000
  -6  -6  -1     50.13   0.00          0.00  1.  0.00  0.   16.00 1.0000
  -6  -6   0     93.32   0.00          0.00  1.  0.00  0.   17.97 1.0000
  -6  -6   0     95.45   0.00          0.00  1.  0.00  0.   14.07 1.0000
  -6  -6   4    134.56   0.00          0.00  1.  0.00  0.   21.58 1.0000
  -6  -6   4    151.54   0.00          0.00  1.  0.00  0.   19.70 1.0000
  -6  -5 -12    119.25   0.00          0.00  1.  0.00  0.   18.56 1.0000
  -6  -5 -12     78.50   0.00          0.00  1.  0.00  0.   14.53 1.0000
  -6  -5 -11     19.80   0.00          0.00  1.  0.00  0.   13.35 1.0000
  -6  -5 -11     27.88   0.00          0.00  1.  0.00  0.   13.62 1.0000
  -6  -5 -10    155.50   0.00          0.00  1.  0.00  0.   20.95 1.0000
  -6  -5 -10    134.79   0.00          0.00  1.  0.00  0.   18.81 1.0000
  -6  -5  -8    215.50   0.00          0.00  1.  0.00  0.   23.49 1.0000
  -6  -5  -8    200.51   0.00          0.00  1.  0.00  0.   20.39 1.0000
  -6  -5  -8    228.31   0.00          0.00  1.  0.00  0.   21.46 1.0000
  -6  -5  -6     48.86   0.00          0.00  1.  0.00  0.   12.02 1.0000
  -6  -5  -6     79.92   0.00          0.00  1.  0.00  0.   14.13 1.0000
  -6  -5  -6     68.89   0.00          0.00  1.  0.00  0.   14.61 1.0000
  -6  -5  -5    950.49   0.00          0.00  1.  0.00  0.   49.33 1.0000
  -6  -5  -5    896.40   0.00          0.00  1.  0.00  0.   55.09 1.0000
  -6  -5  -5    939.42   0.00          0.00  1.  0.00  0.   49.04 1.0000
  -6  -5  -1    519.84   0.00          0.00  1.  0.00  0.   36.94 1.0000
  -6  -5  -1    499.97   0.00          0.00  1.  0.00  0.   32.65 1.0000
  -6  -5  -1    504.45   0.00          0.00  1.  0.00  0.   31.89 1.0000
  -6  -5   0    268.63   0.00          0.00  1.  0.00  0.   21.63 1.0000
  -6  -5   0    282.24   0.00          0.00  1.  0.00  0.   23.18 1.0000
  -6  -5   0    238.08   0.00          0.00  1.  0.00  0.   25.00 1.0000
  -6  -4 -12    141.13   0.00          0.00  1.  0.00  0.   20.91 1.0000
  -6  -4 -11     60.06   0.00          0.00  1.  0.00  0.   15.96 1.0000
  -6  -4 -11     80.82   0.00          0.00  1.  0.00  0.   17.44 1.0000
  -6  -4 -10    331.60   0.00          0.00  1.  0.00  0.   27.31 1.0000
  -6  -4 -10    327.25   0.00          0.00  1.  0.00  0.   26.77 1.0000
  -6  -4  -6    438.06   0.00          0.00  1.  0.00  0.   29.30 1.0000
  -6  -4  -6    394.82   0.00          0.00  1.  0.00  0.   28.61 1.0000
  -6  -4  -2    230.43   0.00          0.00  1.  0.00  0.   22.47 1.0000
  -6  -4  -2    220.82   0.00          0.00  1.  0.00  0.   19.32 1.0000
  -6  -4  -2    234.09   0.00          0.00  1.  0.00  0.   19.28 1.0000
  -6  -4  -1    160.53   0.00          0.00  1.  0.00  0.   15.96 1.0000
  -6  -4  -1    179.56   0.00          0.00  1.  0.00  0.   18.49 1.0000
  -6  -4  -1    185.78   0.00          0.00  1.  0.00  0.   20.44 1.0000
  -6  -4   3    355.70   0.00          0.00  1.  0.00  0.   26.78 1.0000
  -6  -4   3    370.18   0.00          0.00  1.  0.00  0.   28.09 1.0000
  -6  -4   5    341.88   0.00          0.00  1.  0.00  0.   28.47 1.0000
  -6  -4   5    330.15   0.00          0.00  1.  0.00  0.   27.98 1.0000
  -6  -3 -13     95.84   0.00          0.00  1.  0.00  0.   18.99 1.0000
  -6  -3 -12    241.80   0.00          0.00  1.  0.00  0.   26.12 1.0000
  -6  -3 -11    226.80   0.00          0.00  1.  0.00  0.   24.10 1.0000
  -6  -3 -11    211.99   0.00          0.00  1.  0.00  0.   23.59 1.0000
  -6  -3   1    271.59   0.00          0.00  1.  0.00  0.   23.73 1.0000
  -6  -3   1    272.25   0.00          0.00  1.  0.00  0.   21.78 1.0000
  -6  -3   1    271.59   0.00          0.00  1.  0.00  0.   21.42 1.0000
  -6  -3   3    235.62   0.00          0.00  1.  0.00  0.   22.41 1.0000
  -6  -3   3    230.43   0.00          0.00  1.  0.00  0.   20.95 1.0000
  -6  -3   3    241.80   0.00          0.00  1.  0.00  0.   20.22 1.0000
  -6  -3   4      7.67   0.00          0.00  1.  0.00  0.   12.35 1.0000
  -6  -3   4     17.14   0.00          0.00  1.  0.00  0.   12.42 1.0000
  -6  -3   7     16.97   0.00          0.00  1.  0.00  0.   16.56 1.0000
  -6  -2 -13    518.02   0.00          0.00  1.  0.00  0.   40.51 1.0000
  -6  -2 -11    114.92   0.00          0.00  1.  0.00  0.   16.72 1.0000
  -6  -2 -11    115.13   0.00          0.00  1.  0.00  0.   18.67 1.0000
  -6  -2  -1   3118.11   0.00          0.00  1.  0.00  0.  142.95 1.0000
  -6  -2  -1   2971.34   0.00          0.00  1.  0.00  0.  141.73 1.0000
  -6  -2   2    315.06   0.00          0.00  1.  0.00  0.   25.56 1.0000
  -6  -2   2    297.56   0.00          0.00  1.  0.00  0.   25.19 1.0000
  -6  -2   3     81.00   0.00          0.00  1.  0.00  0.   12.96 1.0000
  -6  -2   3     72.59   0.00          0.00  1.  0.00  0.   12.61 1.0000
  -6  -2   3     89.87   0.00          0.00  1.  0.00  0.   14.41 1.0000
  -6  -2   4    144.96   0.00          0.00  1.  0.00  0.   17.82 1.0000
  -6  -2   4    128.14   0.00          0.00  1.  0.00  0.   16.07 1.0000
  -6  -2   4    142.80   0.00          0.00  1.  0.00  0.   15.77 1.0000
  -6  -2   6    122.32   0.00          0.00  1.  0.00  0.   17.03 1.0000
  -6  -2   6    121.22   0.00          0.00  1.  0.00  0.   13.65 1.0000
  -6  -2   6    113.00   0.00          0.00  1.  0.00  0.   19.77 1.0000
  -6  -1 -10    301.02   0.00          0.00  1.  0.00  0.   27.41 1.0000
  -6  -1 -10    277.89   0.00          0.00  1.  0.00  0.   24.67 1.0000
  -6  -1  -9    211.70   0.00          0.00  1.  0.00  0.   20.95 1.0000
  -6  -1  -9    206.78   0.00          0.00  1.  0.00  0.   21.57 1.0000
  -6  -1  -7    217.27   0.00          0.00  1.  0.00  0.   21.82 1.0000
  -6  -1  -7    225.60   0.00          0.00  1.  0.00  0.   22.53 1.0000
  -6  -1  -6    549.43   0.00          0.00  1.  0.00  0.   34.69 1.0000
  -6  -1  -6    536.39   0.00          0.00  1.  0.00  0.   35.67 1.0000
  -6  -1  -5    236.24   0.00          0.00  1.  0.00  0.   21.52 1.0000
  -6  -1  -5    264.39   0.00          0.00  1.  0.00  0.   22.44 1.0000
  -6  -1  -3    552.72   0.00          0.00  1.  0.00  0.   33.85 1.0000
  -6  -1  -3    550.37   0.00          0.00  1.  0.00  0.   34.72 1.0000
  -6  -1  -2    492.84   0.00          0.00  1.  0.00  0.   31.97 1.0000
  -6  -1  -2    514.38   0.00          0.00  1.  0.00  0.   32.66 1.0000
  -6  -1   6    175.56   0.00          0.00  1.  0.00  0.   16.96 1.0000
  -6  -1   6    209.96   0.00          0.00  1.  0.00  0.   24.05 1.0000
  -6  -1   6    190.16   0.00          0.00  1.  0.00  0.   22.34 1.0000
  -6  -1   7    259.53   0.00          0.00  1.  0.00  0.   27.71 1.0000
  -6  -1   7    265.69   0.00          0.00  1.  0.00  0.   19.56 1.0000
  -6  -1   8     78.15   0.00          0.00  1.  0.00  0.   19.27 1.0000
  -6  -1   9    145.93   0.00          0.00  1.  0.00  0.   21.99 1.0000
  -6   0 -13     86.86   0.00          0.00  1.  0.00  0.   20.13 1.0000
  -6   0 -12    201.92   0.00          0.00  1.  0.00  0.   25.01 1.0000
  -6   0 -11    135.26   0.00          0.00  1.  0.00  0.   18.14 1.0000
  -6   0 -10    481.80   0.00          0.00  1.  0.00  0.   36.00 1.0000
  -6   0  -9     45.70   0.00          0.00  1.  0.00  0.   12.44 1.0000
  -6   0  -9     76.39   0.00          0.00  1.  0.00  0.   16.43 1.0000
  -6   0  -8     -1.90   0.00          0.00  1.  0.00  0.   10.68 1.0000
  -6   0  -8     11.97   0.00          0.00  1.  0.00  0.   13.15 1.0000
  -6   0  -7     37.09   0.00          0.00  1.  0.00  0.   12.79 1.0000
  -6   0  -7     44.49   0.00          0.00  1.  0.00  0.   13.47 1.0000
  -6   0  -6    419.02   0.00          0.00  1.  0.00  0.   29.48 1.0000
  -6   0  -6    361.38   0.00          0.00  1.  0.00  0.   28.51 1.0000
  -6   0  -5     32.83   0.00          0.00  1.  0.00  0.   11.92 1.0000
  -6   0  -5     51.27   0.00          0.00  1.  0.00  0.   13.46 1.0000
  -6   0  -4    400.80   0.00          0.00  1.  0.00  0.   29.63 1.0000
  -6   0  -4    399.20   0.00          0.00  1.  0.00  0.   28.77 1.0000
  -6   0  -3     94.87   0.00          0.00  1.  0.00  0.   13.05 1.0000
  -6   0  -3     85.19   0.00          0.00  1.  0.00  0.   14.58 1.0000
  -6   0  -2     -5.11   0.00          0.00  1.  0.00  0.   10.40 1.0000
  -6   0  -2      3.28   0.00          0.00  1.  0.00  0.   11.40 1.0000
  -6   0  -1   1929.84   0.00          0.00  1.  0.00  0.   96.65 1.0000
  -6   0  -1   1930.72   0.00          0.00  1.  0.00  0.   95.79 1.0000
  -6   0   0   1216.61   0.00          0.00  1.  0.00  0.   64.18 1.0000
  -6   0   0   1217.31   0.00          0.00  1.  0.00  0.   63.50 1.0000
  -6   0   1    624.00   0.00          0.00  1.  0.00  0.   40.47 1.0000
  -6   0   1    684.87   0.00          0.00  1.  0.00  0.   40.30 1.0000
  -6   0   2    575.52   0.00          0.00  1.  0.00  0.   36.94 1.0000
  -6   0   2    563.11   0.00          0.00  1.  0.00  0.   36.54 1.0000
  -6   0   3    514.84   0.00          0.00  1.  0.00  0.   34.94 1.0000
  -6   0   3    523.49   0.00          0.00  1.  0.00  0.   34.32 1.0000
  -6   0   4    197.12   0.00          0.00  1.  0.00  0.   20.78 1.0000
  -6   0   4    252.81   0.00          0.00  1.  0.00  0.   22.58 1.0000
  -6   0   5   1426.57   0.00          0.00  1.  0.00  0.   79.32 1.0000
  -6   0   5   1517.10   0.00          0.00  1.  0.00  0.   77.90 1.0000
  -6   0   6    251.54   0.00          0.00  1.  0.00  0.   24.74 1.0000
  -6   0   6    266.34   0.00          0.00  1.  0.00  0.   19.26 1.0000
  -6   0   6    254.40   0.00          0.00  1.  0.00  0.   26.16 1.0000
  -6   0   7     71.91   0.00          0.00  1.  0.00  0.    9.50 1.0000
  -6   0   7    102.21   0.00          0.00  1.  0.00  0.   19.21 1.0000
  -6   0   8     -2.62   0.00          0.00  1.  0.00  0.   15.16 1.0000
  -6   0   9     28.84   0.00          0.00  1.  0.00  0.   13.53 1.0000
  -6   1  -8    449.02   0.00          0.00  1.  0.00  0.   32.63 1.0000
  -6   1  -8    390.85   0.00          0.00  1.  0.00  0.   30.84 1.0000
  -6   1  -4    672.88   0.00          0.00  1.  0.00  0.   40.47 1.0000
  -6   1  -4    742.56   0.00          0.00  1.  0.00  0.   41.97 1.0000
  -6   1  -3    461.82   0.00          0.00  1.  0.00  0.   33.52 1.0000
  -6   1  -3    474.37   0.00          0.00  1.  0.00  0.   32.23 1.0000
  -6   1  -2    458.39   0.00          0.00  1.  0.00  0.   31.26 1.0000
  -6   1  -2    425.60   0.00          0.00  1.  0.00  0.   31.36 1.0000
  -6   1   2   1110.22   0.00          0.00  1.  0.00  0.   60.64 1.0000
  -6   1   2   1070.60   0.00          0.00  1.  0.00  0.   59.55 1.0000
  -6   1   4    155.50   0.00          0.00  1.  0.00  0.   19.20 1.0000
  -6   1   4    146.89   0.00          0.00  1.  0.00  0.   17.21 1.0000
  -6   1   6    173.98   0.00          0.00  1.  0.00  0.   22.16 1.0000
  -6   1   7    247.43   0.00          0.00  1.  0.00  0.   26.74 1.0000
  -6   1   7    228.61   0.00          0.00  1.  0.00  0.   16.63 1.0000
  -6   2 -12    157.25   0.00          0.00  1.  0.00  0.   24.08 1.0000
  -6   2 -11    135.26   0.00          0.00  1.  0.00  0.   21.86 1.0000
  -6   2  -7    408.85   0.00          0.00  1.  0.00  0.   31.14 1.0000
  -6   2  -7    365.96   0.00          0.00  1.  0.00  0.   29.84 1.0000
  -6   2  -3     82.81   0.00          0.00  1.  0.00  0.   12.56 1.0000
  -6   2  -3     73.27   0.00          0.00  1.  0.00  0.   11.64 1.0000
  -6   2  -2    127.69   0.00          0.00  1.  0.00  0.   16.72 1.0000
  -6   2  -2    107.74   0.00          0.00  1.  0.00  0.   14.53 1.0000
  -6   2   0    970.32   0.00          0.00  1.  0.00  0.   53.58 1.0000
  -6   2   0    904.81   0.00          0.00  1.  0.00  0.   51.74 1.0000
  -6   2   1    184.14   0.00          0.00  1.  0.00  0.   20.35 1.0000
  -6   2   1    179.56   0.00          0.00  1.  0.00  0.   18.76 1.0000
  -6   2   2    382.59   0.00          0.00  1.  0.00  0.   26.99 1.0000
  -6   2   2    378.69   0.00          0.00  1.  0.00  0.   26.08 1.0000
  -6   2   7     76.91   0.00          0.00  1.  0.00  0.   17.72 1.0000
  -6   2   8    465.70   0.00          0.00  1.  0.00  0.   37.12 1.0000
  -6   2   9    245.24   0.00          0.00  1.  0.00  0.   27.25 1.0000
  -6   3 -10     71.57   0.00          0.00  1.  0.00  0.   17.09 1.0000
  -6   3  -6    679.12   0.00          0.00  1.  0.00  0.   40.65 1.0000
  -6   3  -6    575.04   0.00          0.00  1.  0.00  0.   38.37 1.0000
  -6   3  -5    734.41   0.00          0.00  1.  0.00  0.   43.36 1.0000
  -6   3  -5    719.31   0.00          0.00  1.  0.00  0.   43.45 1.0000
  -6   3  -3    710.76   0.00          0.00  1.  0.00  0.   43.19 1.0000
  -6   3  -3    738.75   0.00          0.00  1.  0.00  0.   42.94 1.0000
  -6   3  -1    384.16   0.00          0.00  1.  0.00  0.   28.22 1.0000
  -6   3  -1    388.09   0.00          0.00  1.  0.00  0.   28.37 1.0000
  -6   3   0    195.72   0.00          0.00  1.  0.00  0.   18.19 1.0000
  -6   3   0    238.70   0.00          0.00  1.  0.00  0.   21.63 1.0000
  -6   3   1    227.10   0.00          0.00  1.  0.00  0.   21.40 1.0000
  -6   3   1    249.01   0.00          0.00  1.  0.00  0.   22.72 1.0000
  -6   3   2    124.32   0.00          0.00  1.  0.00  0.   16.06 1.0000
  -6   3   2    102.41   0.00          0.00  1.  0.00  0.   16.19 1.0000
  -6   3   3    149.82   0.00          0.00  1.  0.00  0.   18.36 1.0000
  -6   3   3    172.66   0.00          0.00  1.  0.00  0.   20.24 1.0000
  -6   3   4     59.44   0.00          0.00  1.  0.00  0.   14.03 1.0000
  -6   3   8     37.58   0.00          0.00  1.  0.00  0.   16.31 1.0000
  -6   3   9     22.47   0.00          0.00  1.  0.00  0.   16.21 1.0000
  -6   4  -4    225.00   0.00          0.00  1.  0.00  0.   21.00 1.0000
  -6   4  -4    245.24   0.00          0.00  1.  0.00  0.   20.67 1.0000
  -6   4  -3    569.78   0.00          0.00  1.  0.00  0.   36.76 1.0000
  -6   4  -3    575.52   0.00          0.00  1.  0.00  0.   35.99 1.0000
  -6   4  -1    195.16   0.00          0.00  1.  0.00  0.   18.72 1.0000
  -6   4  -1    163.58   0.00          0.00  1.  0.00  0.   17.65 1.0000
  -6   4   1    237.16   0.00          0.00  1.  0.00  0.   20.02 1.0000
  -6   4   1    214.62   0.00          0.00  1.  0.00  0.   21.39 1.0000
  -6   4   2     84.27   0.00          0.00  1.  0.00  0.   14.87 1.0000
  -6   4   2     59.44   0.00          0.00  1.  0.00  0.   11.41 1.0000
  -6   4   3    269.29   0.00          0.00  1.  0.00  0.   23.30 1.0000
  -6   4   3    305.20   0.00          0.00  1.  0.00  0.   25.51 1.0000
  -6   4   4    153.76   0.00          0.00  1.  0.00  0.   17.61 1.0000
  -6   4   5    315.06   0.00          0.00  1.  0.00  0.   26.98 1.0000
  -6   4   6    191.82   0.00          0.00  1.  0.00  0.   21.33 1.0000
  -6   4   7    228.31   0.00          0.00  1.  0.00  0.   23.27 1.0000
  -6   5  -7    227.10   0.00          0.00  1.  0.00  0.   21.70 1.0000
  -6   5  -5    782.88   0.00          0.00  1.  0.00  0.   49.24 1.0000
  -6   5  -2    241.49   0.00          0.00  1.  0.00  0.   20.82 1.0000
  -6   5  -2    222.31   0.00          0.00  1.  0.00  0.   19.68 1.0000
  -6   5   4    254.72   0.00          0.00  1.  0.00  0.   22.98 1.0000
  -6   5   5    112.78   0.00          0.00  1.  0.00  0.   17.42 1.0000
  -6   5   6    147.62   0.00          0.00  1.  0.00  0.   20.17 1.0000
  -6   5   7    135.96   0.00          0.00  1.  0.00  0.   17.72 1.0000
  -6   5   8     37.58   0.00          0.00  1.  0.00  0.   14.59 1.0000
  -6   6   4    143.76   0.00          0.00  1.  0.00  0.   17.75 1.0000
  -5  -8  -8     67.90   0.00          0.00  1.  0.00  0.   10.38 1.0000
  -5  -8  -8     76.39   0.00          0.00  1.  0.00  0.   18.53 1.0000
  -5  -8  -7    155.00   0.00          0.00  1.  0.00  0.   22.91 1.0000
  -5  -8  -7    150.80   0.00          0.00  1.  0.00  0.   13.26 1.0000
  -5  -8  -6    290.02   0.00          0.00  1.  0.00  0.   28.61 1.0000
  -5  -8  -6    269.94   0.00          0.00  1.  0.00  0.   18.07 1.0000
  -5  -8  -5     16.65   0.00          0.00  1.  0.00  0.    6.20 1.0000
  -5  -8  -5     20.98   0.00          0.00  1.  0.00  0.   15.66 1.0000
  -5  -8  -4    438.48   0.00          0.00  1.  0.00  0.   24.71 1.0000
  -5  -8  -4    451.56   0.00          0.00  1.  0.00  0.   36.97 1.0000
  -5  -8  -2    160.53   0.00          0.00  1.  0.00  0.   11.91 1.0000
  -5  -8  -2    172.92   0.00          0.00  1.  0.00  0.   25.25 1.0000
  -5  -8  -1    219.34   0.00          0.00  1.  0.00  0.   27.84 1.0000
  -5  -8  -1    188.51   0.00          0.00  1.  0.00  0.   14.00 1.0000
  -5  -8   0     11.63   0.00          0.00  1.  0.00  0.    6.68 1.0000
  -5  -8   0     11.90   0.00          0.00  1.  0.00  0.   16.15 1.0000
  -5  -7 -10     30.69   0.00          0.00  1.  0.00  0.   11.52 1.0000
  -5  -7 -10     18.06   0.00          0.00  1.  0.00  0.   12.41 1.0000
  -5  -7  -9    233.17   0.00          0.00  1.  0.00  0.   20.46 1.0000
  -5  -7  -9    243.36   0.00          0.00  1.  0.00  0.   24.65 1.0000
  -5  -7  -8    259.85   0.00          0.00  1.  0.00  0.   20.31 1.0000
  -5  -7  -8    269.94   0.00          0.00  1.  0.00  0.   25.63 1.0000
  -5  -7  -7     59.60   0.00          0.00  1.  0.00  0.   16.52 1.0000
  -5  -7  -7     75.69   0.00          0.00  1.  0.00  0.   10.79 1.0000
  -5  -7  -6    897.60   0.00          0.00  1.  0.00  0.   57.52 1.0000
  -5  -7  -6    900.00   0.00          0.00  1.  0.00  0.   46.20 1.0000
  -5  -7  -5    271.59   0.00          0.00  1.  0.00  0.   18.46 1.0000
  -5  -7  -5    244.30   0.00          0.00  1.  0.00  0.   25.63 1.0000
  -5  -7  -3     19.54   0.00          0.00  1.  0.00  0.   14.14 1.0000
  -5  -7  -3     31.36   0.00          0.00  1.  0.00  0.    7.50 1.0000
  -5  -7  -2     87.42   0.00          0.00  1.  0.00  0.   17.95 1.0000
  -5  -7  -2     62.57   0.00          0.00  1.  0.00  0.    9.18 1.0000
  -5  -7  -1    331.60   0.00          0.00  1.  0.00  0.   29.86 1.0000
  -5  -7   0    120.78   0.00          0.00  1.  0.00  0.   18.68 1.0000
  -5  -7   0    131.33   0.00          0.00  1.  0.00  0.   13.06 1.0000
  -5  -7   2     55.50   0.00          0.00  1.  0.00  0.   17.88 1.0000
  -5  -7   3     27.77   0.00          0.00  1.  0.00  0.   10.43 1.0000
  -5  -6 -12     59.14   0.00          0.00  1.  0.00  0.   15.84 1.0000
  -5  -6 -12     97.02   0.00          0.00  1.  0.00  0.   16.94 1.0000
  -5  -6 -11     59.14   0.00          0.00  1.  0.00  0.   14.92 1.0000
  -5  -6 -11     64.80   0.00          0.00  1.  0.00  0.   14.65 1.0000
  -5  -6 -10     10.76   0.00          0.00  1.  0.00  0.   10.89 1.0000
  -5  -6 -10     12.32   0.00          0.00  1.  0.00  0.   12.28 1.0000
  -5  -6  -9    453.69   0.00          0.00  1.  0.00  0.   30.67 1.0000
  -5  -6  -9    445.21   0.00          0.00  1.  0.00  0.   35.03 1.0000
  -5  -6  -8    578.88   0.00          0.00  1.  0.00  0.   35.13 1.0000
  -5  -6  -8    600.74   0.00          0.00  1.  0.00  0.   41.67 1.0000
  -5  -6  -7   1011.24   0.00          0.00  1.  0.00  0.   52.15 1.0000
  -5  -6  -7    946.79   0.00          0.00  1.  0.00  0.   51.08 1.0000
  -5  -6  -7    969.70   0.00          0.00  1.  0.00  0.   59.17 1.0000
  -5  -6  -3    408.85   0.00          0.00  1.  0.00  0.   31.54 1.0000
  -5  -6  -3    386.91   0.00          0.00  1.  0.00  0.   23.60 1.0000
  -5  -6  -3    394.02   0.00          0.00  1.  0.00  0.   23.42 1.0000
  -5  -6  -2    150.31   0.00          0.00  1.  0.00  0.   13.73 1.0000
  -5  -6  -2    137.59   0.00          0.00  1.  0.00  0.   13.14 1.0000
  -5  -6  -2    142.32   0.00          0.00  1.  0.00  0.   20.52 1.0000
  -5  -6  -1     43.56   0.00          0.00  1.  0.00  0.   14.65 1.0000
  -5  -6  -1     24.01   0.00          0.00  1.  0.00  0.    7.94 1.0000
  -5  -6  -1     27.04   0.00          0.00  1.  0.00  0.    8.01 1.0000
  -5  -6   0    118.59   0.00          0.00  1.  0.00  0.   17.42 1.0000
  -5  -6   0    133.17   0.00          0.00  1.  0.00  0.   14.08 1.0000
  -5  -6   0    128.37   0.00          0.00  1.  0.00  0.   13.14 1.0000
  -5  -5 -13     65.12   0.00          0.00  1.  0.00  0.   12.75 1.0000
  -5  -5 -12     74.48   0.00          0.00  1.  0.00  0.   15.71 1.0000
  -5  -5 -12    108.58   0.00          0.00  1.  0.00  0.   18.34 1.0000
  -5  -5 -11     85.75   0.00          0.00  1.  0.00  0.   15.93 1.0000
  -5  -5 -11     74.65   0.00          0.00  1.  0.00  0.   15.55 1.0000
  -5  -5  -8    145.68   0.00          0.00  1.  0.00  0.   16.66 1.0000
  -5  -5  -8    164.10   0.00          0.00  1.  0.00  0.   20.24 1.0000
  -5  -5  -8    178.22   0.00          0.00  1.  0.00  0.   18.42 1.0000
  -5  -5  -7    120.56   0.00          0.00  1.  0.00  0.   14.27 1.0000
  -5  -5  -7    115.56   0.00          0.00  1.  0.00  0.   12.90 1.0000
  -5  -5  -7     91.01   0.00          0.00  1.  0.00  0.   16.22 1.0000
  -5  -5  -6     98.21   0.00          0.00  1.  0.00  0.   15.66 1.0000
  -5  -5  -6    117.72   0.00          0.00  1.  0.00  0.   14.10 1.0000
  -5  -5  -6    126.11   0.00          0.00  1.  0.00  0.   13.93 1.0000
  -5  -4 -13     10.50   0.00          0.00  1.  0.00  0.   13.41 1.0000
  -5  -4 -12    106.92   0.00          0.00  1.  0.00  0.   16.75 1.0000
  -5  -4 -12    127.24   0.00          0.00  1.  0.00  0.   18.50 1.0000
  -5  -4  -9     -5.48   0.00          0.00  1.  0.00  0.   10.34 1.0000
  -5  -4  -9      0.79   0.00          0.00  1.  0.00  0.   10.13 1.0000
  -5  -4  -8    255.36   0.00          0.00  1.  0.00  0.   22.05 1.0000
  -5  -4  -8    286.62   0.00          0.00  1.  0.00  0.   22.35 1.0000
  -5  -4  -5    158.00   0.00          0.00  1.  0.00  0.   15.34 1.0000
  -5  -4  -5    127.46   0.00          0.00  1.  0.00  0.   13.32 1.0000
  -5  -4   0    678.60   0.00          0.00  1.  0.00  0.   40.64 1.0000
  -5  -4   0    648.72   0.00          0.00  1.  0.00  0.   39.73 1.0000
  -5  -4   0    668.22   0.00          0.00  1.  0.00  0.   44.46 1.0000
  -5  -4   3    854.98   0.00          0.00  1.  0.00  0.   50.29 1.0000
  -5  -4   3    943.10   0.00          0.00  1.  0.00  0.   54.05 1.0000
  -5  -4   3    934.52   0.00          0.00  1.  0.00  0.   51.36 1.0000
  -5  -4   4    744.20   0.00          0.00  1.  0.00  0.   45.28 1.0000
  -5  -4   4    774.51   0.00          0.00  1.  0.00  0.   47.87 1.0000
  -5  -4   7    258.24   0.00          0.00  1.  0.00  0.   26.03 1.0000
  -5  -3 -14    271.59   0.00          0.00  1.  0.00  0.   28.02 1.0000
  -5  -3 -12    493.28   0.00          0.00  1.  0.00  0.   36.42 1.0000
  -5  -3 -12    477.42   0.00          0.00  1.  0.00  0.   35.83 1.0000
  -5  -3 -11    566.92   0.00          0.00  1.  0.00  0.   37.14 1.0000
  -5  -3 -11    527.62   0.00          0.00  1.  0.00  0.   37.21 1.0000
  -5  -3  -8    343.73   0.00          0.00  1.  0.00  0.   25.96 1.0000
  -5  -3  -8    374.81   0.00          0.00  1.  0.00  0.   27.10 1.0000
  -5  -3   0   1150.57   0.00          0.00  1.  0.00  0.   59.02 1.0000
  -5  -3   0   1152.60   0.00          0.00  1.  0.00  0.   55.68 1.0000
  -5  -3   0   1157.36   0.00          0.00  1.  0.00  0.   55.11 1.0000
  -5  -3   1    730.08   0.00          0.00  1.  0.00  0.   40.53 1.0000
  -5  -3   1    700.66   0.00          0.00  1.  0.00  0.   42.88 1.0000
  -5  -3   1    680.17   0.00          0.00  1.  0.00  0.   40.16 1.0000
  -5  -3   4     70.90   0.00          0.00  1.  0.00  0.   11.96 1.0000
  -5  -3   4     92.35   0.00          0.00  1.  0.00  0.   15.38 1.0000
  -5  -3   4     82.81   0.00          0.00  1.  0.00  0.   14.20 1.0000
  -5  -3   6     14.52   0.00          0.00  1.  0.00  0.   13.26 1.0000
  -5  -3   8    103.23   0.00          0.00  1.  0.00  0.   20.12 1.0000
  -5  -3   8    101.00   0.00          0.00  1.  0.00  0.   17.49 1.0000
  -5  -2 -14     75.52   0.00          0.00  1.  0.00  0.   20.16 1.0000
  -5  -2 -13     74.48   0.00          0.00  1.  0.00  0.   17.78 1.0000
  -5  -2 -10    197.68   0.00          0.00  1.  0.00  0.   20.25 1.0000
  -5  -2 -10    171.35   0.00          0.00  1.  0.00  0.   18.06 1.0000
  -5  -2  -5   2189.30   0.00          0.00  1.  0.00  0.  103.87 1.0000
  -5  -2  -5   2341.59   0.00          0.00  1.  0.00  0.  104.52 1.0000
  -5  -2  -1    143.04   0.00          0.00  1.  0.00  0.   16.50 1.0000
  -5  -2  -1    131.33   0.00          0.00  1.  0.00  0.   15.36 1.0000
  -5  -2   1    909.02   0.00          0.00  1.  0.00  0.   47.64 1.0000
  -5  -2   1    893.41   0.00          0.00  1.  0.00  0.   47.82 1.0000
  -5  -2   2    768.40   0.00          0.00  1.  0.00  0.   41.03 1.0000
  -5  -2   2    814.53   0.00          0.00  1.  0.00  0.   41.10 1.0000
  -5  -2   2    752.40   0.00          0.00  1.  0.00  0.   41.15 1.0000
  -5  -2   3    658.95   0.00          0.00  1.  0.00  0.   40.05 1.0000
  -5  -2   3    695.38   0.00          0.00  1.  0.00  0.   40.61 1.0000
  -5  -2   4   1248.92   0.00          0.00  1.  0.00  0.   64.32 1.0000
  -5  -2   4   1212.43   0.00          0.00  1.  0.00  0.   64.07 1.0000
  -5  -2   4   1173.06   0.00          0.00  1.  0.00  0.   63.71 1.0000
  -5  -2   5    120.78   0.00          0.00  1.  0.00  0.   18.90 1.0000
  -5  -2   5    150.06   0.00          0.00  1.  0.00  0.   18.38 1.0000
  -5  -2   5    129.73   0.00          0.00  1.  0.00  0.   15.03 1.0000
  -5  -1 -14    272.58   0.00          0.00  1.  0.00  0.   29.39 1.0000
  -5  -1 -11    918.70   0.00          0.00  1.  0.00  0.   55.16 1.0000
  -5  -1 -11    897.00   0.00          0.00  1.  0.00  0.   53.91 1.0000
  -5  -1  -9    487.53   0.00          0.00  1.  0.00  0.   32.68 1.0000
  -5  -1  -9    504.45   0.00          0.00  1.  0.00  0.   34.59 1.0000
  -5  -1  -1    917.48   0.00          0.00  1.  0.00  0.   46.65 1.0000
  -5  -1  -1    904.81   0.00          0.00  1.  0.00  0.   47.53 1.0000
  -5  -1   4   1224.30   0.00          0.00  1.  0.00  0.   63.68 1.0000
  -5  -1   4   1193.01   0.00          0.00  1.  0.00  0.   64.24 1.0000
  -5  -1   4   1186.80   0.00          0.00  1.  0.00  0.   62.70 1.0000
  -5  -1   5     76.21   0.00          0.00  1.  0.00  0.   12.57 1.0000
  -5  -1   5     57.00   0.00          0.00  1.  0.00  0.   15.55 1.0000
  -5  -1   5     86.86   0.00          0.00  1.  0.00  0.   11.18 1.0000
  -5  -1   7    219.04   0.00          0.00  1.  0.00  0.   21.02 1.0000
  -5  -1   7    199.37   0.00          0.00  1.  0.00  0.   20.05 1.0000
  -5  -1   8    104.24   0.00          0.00  1.  0.00  0.   18.99 1.0000
  -5  -1   8    127.92   0.00          0.00  1.  0.00  0.   19.68 1.0000
  -5  -1   9    201.36   0.00          0.00  1.  0.00  0.   25.26 1.0000
  -5   0 -14     57.30   0.00          0.00  1.  0.00  0.   18.93 1.0000
  -5   0 -13    120.34   0.00          0.00  1.  0.00  0.   21.06 1.0000
  -5   0 -12     73.96   0.00          0.00  1.  0.00  0.   17.72 1.0000
  -5   0 -11    179.56   0.00          0.00  1.  0.00  0.   21.98 1.0000
  -5   0 -10    602.70   0.00          0.00  1.  0.00  0.   40.26 1.0000
  -5   0 -10    609.60   0.00          0.00  1.  0.00  0.   39.50 1.0000
  -5   0  -9    598.29   0.00          0.00  1.  0.00  0.   39.14 1.0000
  -5   0  -9    598.78   0.00          0.00  1.  0.00  0.   38.17 1.0000
  -5   0  -8    438.90   0.00          0.00  1.  0.00  0.   31.43 1.0000
  -5   0  -8    414.94   0.00          0.00  1.  0.00  0.   29.74 1.0000
  -5   0  -7    390.46   0.00          0.00  1.  0.00  0.   26.87 1.0000
  -5   0  -7    364.05   0.00          0.00  1.  0.00  0.   27.09 1.0000
  -5   0  -6    650.25   0.00          0.00  1.  0.00  0.   38.25 1.0000
  -5   0  -6    634.03   0.00          0.00  1.  0.00  0.   39.28 1.0000
  -5   0  -5   1327.87   0.00          0.00  1.  0.00  0.   67.78 1.0000
  -5   0  -5   1300.32   0.00          0.00  1.  0.00  0.   67.79 1.0000
  -5   0  -4    687.49   0.00          0.00  1.  0.00  0.   40.90 1.0000
  -5   0  -4    704.90   0.00          0.00  1.  0.00  0.   40.36 1.0000
  -5   0  -3    160.53   0.00          0.00  1.  0.00  0.   16.22 1.0000
  -5   0  -3    132.02   0.00          0.00  1.  0.00  0.   15.86 1.0000
  -5   0  -2    337.82   0.00          0.00  1.  0.00  0.   23.16 1.0000
  -5   0  -2    337.09   0.00          0.00  1.  0.00  0.   24.60 1.0000
  -5   0  -1    163.33   0.00          0.00  1.  0.00  0.   14.82 1.0000
  -5   0  -1    137.59   0.00          0.00  1.  0.00  0.   16.42 1.0000
  -5   0   0     77.26   0.00          0.00  1.  0.00  0.   11.25 1.0000
  -5   0   0     69.56   0.00          0.00  1.  0.00  0.   11.68 1.0000
  -5   0   1    541.96   0.00          0.00  1.  0.00  0.   34.92 1.0000
  -5   0   1    574.08   0.00          0.00  1.  0.00  0.   34.50 1.0000
  -5   0   2     88.55   0.00          0.00  1.  0.00  0.   14.30 1.0000
  -5   0   2     74.48   0.00          0.00  1.  0.00  0.   13.12 1.0000
  -5   0   3    719.85   0.00          0.00  1.  0.00  0.   41.32 1.0000
  -5   0   4    639.58   0.00          0.00  1.  0.00  0.   39.45 1.0000
  -5   0   4    635.54   0.00          0.00  1.  0.00  0.   38.82 1.0000
  -5   0   5    591.46   0.00          0.00  1.  0.00  0.   37.94 1.0000
  -5   0   5    628.50   0.00          0.00  1.  0.00  0.   40.11 1.0000
  -5   0   5    592.92   0.00          0.00  1.  0.00  0.   34.09 1.0000
  -5   0   6    454.97   0.00          0.00  1.  0.00  0.   33.27 1.0000
  -5   0   6    493.28   0.00          0.00  1.  0.00  0.   27.98 1.0000
  -5   0   6    480.49   0.00          0.00  1.  0.00  0.   33.32 1.0000
  -5   0   7    909.02   0.00          0.00  1.  0.00  0.   53.06 1.0000
  -5   0   7    931.47   0.00          0.00  1.  0.00  0.   47.00 1.0000
  -5   0   7    861.42   0.00          0.00  1.  0.00  0.   53.42 1.0000
  -5   0   8    657.92   0.00          0.00  1.  0.00  0.   44.12 1.0000
  -5   0   9    276.89   0.00          0.00  1.  0.00  0.   28.62 1.0000
  -5   0  10     72.42   0.00          0.00  1.  0.00  0.   19.23 1.0000
  -5   1  -1    797.50   0.00          0.00  1.  0.00  0.   46.31 1.0000
  -5   1  -1    792.42   0.00          0.00  1.  0.00  0.   46.73 1.0000
  -5   1   1    572.64   0.00          0.00  1.  0.00  0.   33.50 1.0000
  -5   1   1    524.41   0.00          0.00  1.  0.00  0.   33.89 1.0000
  -5   1   7    164.35   0.00          0.00  1.  0.00  0.   20.77 1.0000
  -5   1   7    133.17   0.00          0.00  1.  0.00  0.   19.39 1.0000
  -5   1   7    155.75   0.00          0.00  1.  0.00  0.   11.48 1.0000
  -5   1   9    184.14   0.00          0.00  1.  0.00  0.   21.98 1.0000
  -5   1  11     71.40   0.00          0.00  1.  0.00  0.   20.62 1.0000
  -5   2 -13     45.29   0.00          0.00  1.  0.00  0.   14.27 1.0000
  -5   2 -12    139.95   0.00          0.00  1.  0.00  0.   19.40 1.0000
  -5   2 -11    378.30   0.00          0.00  1.  0.00  0.   31.90 1.0000
  -5   2  -8     58.37   0.00          0.00  1.  0.00  0.   14.36 1.0000
  -5   2  -8     77.62   0.00          0.00  1.  0.00  0.   14.10 1.0000
  -5   2  -6    535.46   0.00          0.00  1.  0.00  0.   35.17 1.0000
  -5   2  -6    586.61   0.00          0.00  1.  0.00  0.   36.33 1.0000
  -5   2  -5   2128.90   0.00          0.00  1.  0.00  0.  104.28 1.0000
  -5   2  -5   2093.06   0.00          0.00  1.  0.00  0.  104.31 1.0000
  -5   2  -2    582.74   0.00          0.00  1.  0.00  0.   34.76 1.0000
  -5   2  -2    582.26   0.00          0.00  1.  0.00  0.   34.75 1.0000
  -5   2  -1    192.38   0.00          0.00  1.  0.00  0.   17.20 1.0000
  -5   2  -1    199.66   0.00          0.00  1.  0.00  0.   18.09 1.0000
  -5   2   1    796.37   0.00          0.00  1.  0.00  0.   46.28 1.0000
  -5   2   1    828.29   0.00          0.00  1.  0.00  0.   46.05 1.0000
  -5   2   2    578.88   0.00          0.00  1.  0.00  0.   38.50 1.0000
  -5   2   2    600.74   0.00          0.00  1.  0.00  0.   39.22 1.0000
  -5   2   4   1128.29   0.00          0.00  1.  0.00  0.   62.48 1.0000
  -5   2   5    197.12   0.00          0.00  1.  0.00  0.   18.53 1.0000
  -5   2   5    192.38   0.00          0.00  1.  0.00  0.   18.59 1.0000
  -5   2   6     92.35   0.00          0.00  1.  0.00  0.   13.26 1.0000
  -5   2   6     89.11   0.00          0.00  1.  0.00  0.   16.99 1.0000
  -5   2   6     89.30   0.00          0.00  1.  0.00  0.    9.45 1.0000
  -5   2   7    107.95   0.00          0.00  1.  0.00  0.   10.18 1.0000
  -5   2   7    102.41   0.00          0.00  1.  0.00  0.   17.61 1.0000
  -5   2   8    229.22   0.00          0.00  1.  0.00  0.   16.65 1.0000
  -5   2   8    216.38   0.00          0.00  1.  0.00  0.   23.83 1.0000
  -5   2  10     78.50   0.00          0.00  1.  0.00  0.   19.49 1.0000
  -5   2  11     37.09   0.00          0.00  1.  0.00  0.   14.62 1.0000
  -5   3 -11    562.16   0.00          0.00  1.  0.00  0.   38.88 1.0000
  -5   3 -10    971.57   0.00          0.00  1.  0.00  0.   56.11 1.0000
  -5   3  -7    133.63   0.00          0.00  1.  0.00  0.   17.80 1.0000
  -5   3  -7    111.94   0.00          0.00  1.  0.00  0.   15.45 1.0000
  -5   3  -6    696.43   0.00          0.00  1.  0.00  0.   42.22 1.0000
  -5   3  -6    693.27   0.00          0.00  1.  0.00  0.   41.60 1.0000
  -5   3  -4   1085.04   0.00          0.00  1.  0.00  0.   58.63 1.0000
  -5   3  -4   1143.79   0.00          0.00  1.  0.00  0.   59.52 1.0000
  -5   3   0    927.20   0.00          0.00  1.  0.00  0.   54.81 1.0000
  -5   3   0    920.52   0.00          0.00  1.  0.00  0.   54.01 1.0000
  -5   3   6     43.69   0.00          0.00  1.  0.00  0.    8.99 1.0000
  -5   3   6     35.88   0.00          0.00  1.  0.00  0.   12.22 1.0000
  -5   3   6     47.75   0.00          0.00  1.  0.00  0.   12.02 1.0000
  -5   3   7    222.61   0.00          0.00  1.  0.00  0.   17.61 1.0000
  -5   3   7    256.32   0.00          0.00  1.  0.00  0.   24.66 1.0000
  -5   3   8    130.87   0.00          0.00  1.  0.00  0.   20.36 1.0000
  -5   3   8    153.51   0.00          0.00  1.  0.00  0.   14.37 1.0000
  -5   3   9    235.32   0.00          0.00  1.  0.00  0.   25.46 1.0000
  -5   3  10     -4.80   0.00          0.00  1.  0.00  0.   13.36 1.0000
  -5   4  -9     10.96   0.00          0.00  1.  0.00  0.   13.11 1.0000
  -5   4  -7    118.59   0.00          0.00  1.  0.00  0.   16.99 1.0000
  -5   4  -7    115.78   0.00          0.00  1.  0.00  0.   15.92 1.0000
  -5   4  -6    134.56   0.00          0.00  1.  0.00  0.   17.17 1.0000
  -5   4  -6    153.51   0.00          0.00  1.  0.00  0.   17.84 1.0000
  -5   4  -5    126.56   0.00          0.00  1.  0.00  0.   15.75 1.0000
  -5   4  -5    119.25   0.00          0.00  1.  0.00  0.   14.63 1.0000
  -5   4  -4     66.26   0.00          0.00  1.  0.00  0.   11.40 1.0000
  -5   4  -4     84.46   0.00          0.00  1.  0.00  0.   12.50 1.0000
  -5   4   0    819.10   0.00          0.00  1.  0.00  0.   41.79 1.0000
  -5   4   0    772.84   0.00          0.00  1.  0.00  0.   41.70 1.0000
  -5   4   6    234.70   0.00          0.00  1.  0.00  0.   20.84 1.0000
  -5   4   7    277.89   0.00          0.00  1.  0.00  0.   26.01 1.0000
  -5   4   7    288.32   0.00          0.00  1.  0.00  0.   22.75 1.0000
  -5   4   8     70.90   0.00          0.00  1.  0.00  0.   12.97 1.0000
  -5   4   8     98.21   0.00          0.00  1.  0.00  0.   15.66 1.0000
  -5   4   9    170.30   0.00          0.00  1.  0.00  0.   22.45 1.0000
  -5   4  10    172.66   0.00          0.00  1.  0.00  0.   24.18 1.0000
  -5   5  -7     94.87   0.00          0.00  1.  0.00  0.   15.00 1.0000
  -5   5  -5   1158.72   0.00          0.00  1.  0.00  0.   59.23 1.0000
  -5   5  -5   1026.56   0.00          0.00  1.  0.00  0.   57.67 1.0000
  -5   5  -4    598.29   0.00          0.00  1.  0.00  0.   37.18 1.0000
  -5   5  -4    652.80   0.00          0.00  1.  0.00  0.   37.81 1.0000
  -5   5   5    382.98   0.00          0.00  1.  0.00  0.   27.40 1.0000
  -5   5   5    368.64   0.00          0.00  1.  0.00  0.   29.18 1.0000
  -5   5   6     55.50   0.00          0.00  1.  0.00  0.   11.03 1.0000
  -5   5   6     40.07   0.00          0.00  1.  0.00  0.   12.03 1.0000
  -5   5   7    198.81   0.00          0.00  1.  0.00  0.   20.59 1.0000
  -5   5   8    409.25   0.00          0.00  1.  0.00  0.   31.56 1.0000
  -5   5   9    108.58   0.00          0.00  1.  0.00  0.   17.30 1.0000
  -5   6  -3    324.36   0.00          0.00  1.  0.00  0.   24.49 1.0000
  -5   6  -3    317.91   0.00          0.00  1.  0.00  0.   24.25 1.0000
  -5   6  -2    122.99   0.00          0.00  1.  0.00  0.   14.20 1.0000
  -5   6  -2    129.96   0.00          0.00  1.  0.00  0.   14.82 1.0000
  -5   6   3    572.17   0.00          0.00  1.  0.00  0.   34.92 1.0000
  -5   6   3    583.71   0.00          0.00  1.  0.00  0.   34.79 1.0000
  -5   6   4    228.92   0.00          0.00  1.  0.00  0.   20.27 1.0000
  -5   6   5    759.55   0.00          0.00  1.  0.00  0.   46.30 1.0000
  -5   6   5    713.96   0.00          0.00  1.  0.00  0.   49.70 1.0000
  -5   6   5    828.29   0.00          0.00  1.  0.00  0.   45.47 1.0000
  -5   6   6      6.92   0.00          0.00  1.  0.00  0.    9.84 1.0000
  -5   6   6     29.38   0.00          0.00  1.  0.00  0.   11.60 1.0000
  -5   7   2     79.92   0.00          0.00  1.  0.00  0.   12.52 1.0000
  -5   7   4     37.09   0.00          0.00  1.  0.00  0.   13.40 1.0000
  -4  -9  -5    173.98   0.00          0.00  1.  0.00  0.   22.42 1.0000
  -4  -9  -4    -16.16   0.00          0.00  1.  0.00  0.   16.96 1.0000
  -4  -9  -3     11.90   0.00          0.00  1.  0.00  0.   12.21 1.0000
  -4  -8  -9    183.06   0.00          0.00  1.  0.00  0.   15.42 1.0000
  -4  -8  -9    194.32   0.00          0.00  1.  0.00  0.   23.98 1.0000
  -4  -8  -8    452.84   0.00          0.00  1.  0.00  0.   36.60 1.0000
  -4  -8  -8    412.09   0.00          0.00  1.  0.00  0.   24.77 1.0000
  -4  -8  -7    441.84   0.00          0.00  1.  0.00  0.   35.73 1.0000
  -4  -8  -7    389.67   0.00          0.00  1.  0.00  0.   22.90 1.0000
  -4  -8  -6      9.86   0.00          0.00  1.  0.00  0.   14.26 1.0000
  -4  -8  -4    166.15   0.00          0.00  1.  0.00  0.   23.72 1.0000
  -4  -8   2     12.60   0.00          0.00  1.  0.00  0.    6.39 1.0000
  -4  -8   3     24.90   0.00          0.00  1.  0.00  0.    8.08 1.0000
  -4  -7 -11      6.50   0.00          0.00  1.  0.00  0.   12.29 1.0000
  -4  -7 -11      9.12   0.00          0.00  1.  0.00  0.   10.33 1.0000
  -4  -7 -10      6.10   0.00          0.00  1.  0.00  0.   12.10 1.0000
  -4  -7 -10      2.04   0.00          0.00  1.  0.00  0.    9.01 1.0000
  -4  -7  -9     23.52   0.00          0.00  1.  0.00  0.    8.73 1.0000
  -4  -7  -9     20.43   0.00          0.00  1.  0.00  0.    9.85 1.0000
  -4  -7  -8     74.30   0.00          0.00  1.  0.00  0.   13.62 1.0000
  -4  -7  -8     95.45   0.00          0.00  1.  0.00  0.   11.53 1.0000
  -4  -7  -4   1680.18   0.00          0.00  1.  0.00  0.   90.18 1.0000
  -4  -7  -4   1549.21   0.00          0.00  1.  0.00  0.   74.00 1.0000
  -4  -7  -3    191.55   0.00          0.00  1.  0.00  0.   23.25 1.0000
  -4  -7  -3    195.72   0.00          0.00  1.  0.00  0.   13.71 1.0000
  -4  -7  -2    441.00   0.00          0.00  1.  0.00  0.   23.52 1.0000
  -4  -7  -2    456.25   0.00          0.00  1.  0.00  0.   35.88 1.0000
  -4  -7  -1    227.71   0.00          0.00  1.  0.00  0.   14.49 1.0000
  -4  -7  -1    233.48   0.00          0.00  1.  0.00  0.   25.36 1.0000
  -4  -7   1    483.12   0.00          0.00  1.  0.00  0.   38.25 1.0000
  -4  -7   1    466.99   0.00          0.00  1.  0.00  0.   26.80 1.0000
  -4  -7   4    229.83   0.00          0.00  1.  0.00  0.   19.10 1.0000
  -4  -6 -12    659.98   0.00          0.00  1.  0.00  0.   43.16 1.0000
  -4  -6 -12    722.53   0.00          0.00  1.  0.00  0.   45.70 1.0000
  -4  -6 -11    421.48   0.00          0.00  1.  0.00  0.   30.38 1.0000
  -4  -6 -11    415.34   0.00          0.00  1.  0.00  0.   30.98 1.0000
  -4  -6 -10    143.28   0.00          0.00  1.  0.00  0.   16.76 1.0000
  -4  -6 -10    157.75   0.00          0.00  1.  0.00  0.   18.84 1.0000
  -4  -6  -9     80.46   0.00          0.00  1.  0.00  0.   15.07 1.0000
  -4  -6  -9     71.40   0.00          0.00  1.  0.00  0.   12.34 1.0000
  -4  -6  -8     67.08   0.00          0.00  1.  0.00  0.   14.41 1.0000
  -4  -6  -8    104.45   0.00          0.00  1.  0.00  0.   13.29 1.0000
  -4  -6  -8     83.72   0.00          0.00  1.  0.00  0.   11.71 1.0000
  -4  -6  -7    387.70   0.00          0.00  1.  0.00  0.   25.20 1.0000
  -4  -6  -7    421.89   0.00          0.00  1.  0.00  0.   26.29 1.0000
  -4  -6  -7    402.80   0.00          0.00  1.  0.00  0.   31.71 1.0000
  -4  -6  -6    276.89   0.00          0.00  1.  0.00  0.   18.30 1.0000
  -4  -6  -6    290.70   0.00          0.00  1.  0.00  0.   19.10 1.0000
  -4  -6  -6    308.35   0.00          0.00  1.  0.00  0.   25.64 1.0000
  -4  -6  -4    792.99   0.00          0.00  1.  0.00  0.   43.37 1.0000
  -4  -6  -4    886.85   0.00          0.00  1.  0.00  0.   44.07 1.0000
  -4  -6  -4    921.73   0.00          0.00  1.  0.00  0.   54.65 1.0000
  -4  -6  -2    693.27   0.00          0.00  1.  0.00  0.   33.70 1.0000
  -4  -6  -2    688.54   0.00          0.00  1.  0.00  0.   33.59 1.0000
  -4  -6   2    345.59   0.00          0.00  1.  0.00  0.   21.94 1.0000
  -4  -6   2    353.44   0.00          0.00  1.  0.00  0.   30.08 1.0000
  -4  -6   2    353.44   0.00          0.00  1.  0.00  0.   22.56 1.0000
  -4  -6   6      9.18   0.00          0.00  1.  0.00  0.   12.97 1.0000
  -4  -5 -13    158.76   0.00          0.00  1.  0.00  0.   20.92 1.0000
  -4  -5 -13    130.64   0.00          0.00  1.  0.00  0.   16.92 1.0000
  -4  -5 -12    173.19   0.00          0.00  1.  0.00  0.   21.06 1.0000
  -4  -5 -12    185.23   0.00          0.00  1.  0.00  0.   19.60 1.0000
  -4  -5 -11    102.41   0.00          0.00  1.  0.00  0.   16.80 1.0000
  -4  -5 -11     76.74   0.00          0.00  1.  0.00  0.   13.49 1.0000
  -4  -5 -11     63.20   0.00          0.00  1.  0.00  0.   13.67 1.0000
  -4  -5 -10     68.56   0.00          0.00  1.  0.00  0.   13.25 1.0000
  -4  -5 -10     63.68   0.00          0.00  1.  0.00  0.   12.45 1.0000
  -4  -5 -10     58.98   0.00          0.00  1.  0.00  0.   11.06 1.0000
  -4  -5  -9    128.14   0.00          0.00  1.  0.00  0.   16.30 1.0000
  -4  -5  -9    140.42   0.00          0.00  1.  0.00  0.   16.12 1.0000
  -4  -5  -9    136.89   0.00          0.00  1.  0.00  0.   15.91 1.0000
  -4  -5  -8    296.18   0.00          0.00  1.  0.00  0.   24.44 1.0000
  -4  -5  -8    312.58   0.00          0.00  1.  0.00  0.   22.28 1.0000
  -4  -5  -8    316.48   0.00          0.00  1.  0.00  0.   22.06 1.0000
  -4  -5  -2     56.10   0.00          0.00  1.  0.00  0.    8.99 1.0000
  -4  -5  -2     74.82   0.00          0.00  1.  0.00  0.   14.88 1.0000
  -4  -5   1     50.41   0.00          0.00  1.  0.00  0.    9.94 1.0000
  -4  -5   1     70.56   0.00          0.00  1.  0.00  0.    9.24 1.0000
  -4  -5   1     42.25   0.00          0.00  1.  0.00  0.   10.92 1.0000
  -4  -5   3     55.35   0.00          0.00  1.  0.00  0.   10.86 1.0000
  -4  -5   3     54.02   0.00          0.00  1.  0.00  0.   14.85 1.0000
  -4  -5   4    125.89   0.00          0.00  1.  0.00  0.   17.95 1.0000
  -4  -5   4    131.33   0.00          0.00  1.  0.00  0.   14.21 1.0000
  -4  -5   4    146.17   0.00          0.00  1.  0.00  0.   16.68 1.0000
  -4  -4 -14    119.90   0.00          0.00  1.  0.00  0.   20.81 1.0000
  -4  -4 -13    246.49   0.00          0.00  1.  0.00  0.   21.35 1.0000
  -4  -4 -13    243.67   0.00          0.00  1.  0.00  0.   23.73 1.0000
  -4  -4 -12    443.94   0.00          0.00  1.  0.00  0.   32.87 1.0000
  -4  -4 -12    468.29   0.00          0.00  1.  0.00  0.   34.19 1.0000
  -4  -4 -11    321.48   0.00          0.00  1.  0.00  0.   26.54 1.0000
  -4  -4 -11    309.41   0.00          0.00  1.  0.00  0.   26.39 1.0000
  -4  -4 -10     93.70   0.00          0.00  1.  0.00  0.   14.71 1.0000
  -4  -4 -10     96.24   0.00          0.00  1.  0.00  0.   14.52 1.0000
  -4  -4   0    946.79   0.00          0.00  1.  0.00  0.   48.62 1.0000
  -4  -4   0    940.65   0.00          0.00  1.  0.00  0.   54.59 1.0000
  -4  -4   0   1004.89   0.00          0.00  1.  0.00  0.   48.82 1.0000
  -4  -4   1   1663.82   0.00          0.00  1.  0.00  0.   81.58 1.0000
  -4  -4   1   1764.84   0.00          0.00  1.  0.00  0.   82.34 1.0000
  -4  -4   1   1708.17   0.00          0.00  1.  0.00  0.   89.27 1.0000
  -4  -4   2   1072.56   0.00          0.00  1.  0.00  0.   56.33 1.0000
  -4  -4   2   1036.20   0.00          0.00  1.  0.00  0.   51.50 1.0000
  -4  -4   3    395.61   0.00          0.00  1.  0.00  0.   24.27 1.0000
  -4  -4   3    404.81   0.00          0.00  1.  0.00  0.   24.95 1.0000
  -4  -4   5    152.28   0.00          0.00  1.  0.00  0.   17.52 1.0000
  -4  -4   5    175.83   0.00          0.00  1.  0.00  0.   18.56 1.0000
  -4  -4   5    144.24   0.00          0.00  1.  0.00  0.   17.05 1.0000
  -4  -4   8     93.32   0.00          0.00  1.  0.00  0.   18.74 1.0000
  -4  -4   8    120.12   0.00          0.00  1.  0.00  0.   17.32 1.0000
  -4  -3 -14     40.07   0.00          0.00  1.  0.00  0.   16.71 1.0000
  -4  -3 -13    242.74   0.00          0.00  1.  0.00  0.   23.99 1.0000
  -4  -3 -13    231.34   0.00          0.00  1.  0.00  0.   24.94 1.0000
  -4  -3  -8    393.63   0.00          0.00  1.  0.00  0.   25.40 1.0000
  -4  -3  -1    109.41   0.00          0.00  1.  0.00  0.   10.67 1.0000
  -4  -3  -1     98.41   0.00          0.00  1.  0.00  0.   12.10 1.0000
  -4  -3  -1     90.06   0.00          0.00  1.  0.00  0.   12.15 1.0000
  -4  -3   3   1644.30   0.00          0.00  1.  0.00  0.   91.64 1.0000
  -4  -3   3   1593.61   0.00          0.00  1.  0.00  0.   87.03 1.0000
  -4  -3   3   1587.23   0.00          0.00  1.  0.00  0.   87.65 1.0000
  -4  -3   8    170.04   0.00          0.00  1.  0.00  0.   13.04 1.0000
  -4  -3   8    186.32   0.00          0.00  1.  0.00  0.   22.11 1.0000
  -4  -3   8    198.81   0.00          0.00  1.  0.00  0.   22.00 1.0000
  -4  -2 -14     -5.81   0.00          0.00  1.  0.00  0.   15.42 1.0000
  -4  -2 -13     99.40   0.00          0.00  1.  0.00  0.   19.34 1.0000
  -4  -2  -7   1319.87   0.00          0.00  1.  0.00  0.   66.85 1.0000
  -4  -2  -7   1306.10   0.00          0.00  1.  0.00  0.   66.50 1.0000
  -4  -2   2   1038.13   0.00          0.00  1.  0.00  0.   50.91 1.0000
  -4  -2   2   1011.24   0.00          0.00  1.  0.00  0.   52.79 1.0000
  -4  -2   4     35.16   0.00          0.00  1.  0.00  0.    9.01 1.0000
  -4  -2   4     59.75   0.00          0.00  1.  0.00  0.   10.51 1.0000
  -4  -2   4     30.58   0.00          0.00  1.  0.00  0.   12.06 1.0000
  -4  -2   9     77.44   0.00          0.00  1.  0.00  0.   14.43 1.0000
  -4  -2   9     59.29   0.00          0.00  1.  0.00  0.   16.48 1.0000
  -4  -2  11     25.20   0.00          0.00  1.  0.00  0.   17.17 1.0000
  -4  -1 -14      4.33   0.00          0.00  1.  0.00  0.   11.07 1.0000
  -4  -1 -11    148.35   0.00          0.00  1.  0.00  0.   16.81 1.0000
  -4  -1 -11    126.79   0.00          0.00  1.  0.00  0.   18.47 1.0000
  -4  -1  -9    166.67   0.00          0.00  1.  0.00  0.   18.85 1.0000
  -4  -1  -9    207.94   0.00          0.00  1.  0.00  0.   21.05 1.0000
  -4  -1  -2    606.64   0.00          0.00  1.  0.00  0.   31.03 1.0000
  -4  -1  -2    562.16   0.00          0.00  1.  0.00  0.   31.30 1.0000
  -4  -1   2   2088.49   0.00          0.00  1.  0.00  0.  101.45 1.0000
  -4  -1   4     81.54   0.00          0.00  1.  0.00  0.   13.18 1.0000
  -4  -1   4     94.67   0.00          0.00  1.  0.00  0.   10.70 1.0000
  -4  -1   4     62.09   0.00          0.00  1.  0.00  0.   13.87 1.0000
  -4  -1   5    135.49   0.00          0.00  1.  0.00  0.   12.80 1.0000
  -4  -1   5    115.35   0.00          0.00  1.  0.00  0.   17.18 1.0000
  -4  -1   5    124.32   0.00          0.00  1.  0.00  0.   16.28 1.0000
  -4  -1  10     19.10   0.00          0.00  1.  0.00  0.   10.92 1.0000
  -4  -1  11    137.36   0.00          0.00  1.  0.00  0.   19.69 1.0000
  -4   0 -14     21.34   0.00          0.00  1.  0.00  0.   15.25 1.0000
  -4   0 -13    714.49   0.00          0.00  1.  0.00  0.   47.58 1.0000
  -4   0 -12    675.48   0.00          0.00  1.  0.00  0.   44.70 1.0000
  -4   0 -11     60.68   0.00          0.00  1.  0.00  0.   12.31 1.0000
  -4   0 -11     66.26   0.00          0.00  1.  0.00  0.   15.95 1.0000
  -4   0 -10    831.17   0.00          0.00  1.  0.00  0.   48.43 1.0000
  -4   0 -10    802.02   0.00          0.00  1.  0.00  0.   47.58 1.0000
  -4   0  -9    215.21   0.00          0.00  1.  0.00  0.   20.54 1.0000
  -4   0  -9    225.30   0.00          0.00  1.  0.00  0.   21.91 1.0000
  -4   0  -8    137.12   0.00          0.00  1.  0.00  0.   15.46 1.0000
  -4   0  -8    131.10   0.00          0.00  1.  0.00  0.   16.49 1.0000
  -4   0  -7   1001.09   0.00          0.00  1.  0.00  0.   54.42 1.0000
  -4   0  -7   1077.81   0.00          0.00  1.  0.00  0.   55.15 1.0000
  -4   0  -6   3138.24   0.00          0.00  1.  0.00  0.  144.53 1.0000
  -4   0  -6   3029.40   0.00          0.00  1.  0.00  0.  144.20 1.0000
  -4   0  -5   1760.64   0.00          0.00  1.  0.00  0.   85.60 1.0000
  -4   0  -5   1716.44   0.00          0.00  1.  0.00  0.   85.35 1.0000
  -4   0  -4   2459.17   0.00          0.00  1.  0.00  0.  117.03 1.0000
  -4   0  -4   2590.81   0.00          0.00  1.  0.00  0.  117.07 1.0000
  -4   0  -3    432.64   0.00          0.00  1.  0.00  0.   26.21 1.0000
  -4   0  -3    435.56   0.00          0.00  1.  0.00  0.   25.88 1.0000
  -4   0  -2    390.46   0.00          0.00  1.  0.00  0.   24.50 1.0000
  -4   0  -2    387.30   0.00          0.00  1.  0.00  0.   24.80 1.0000
  -4   0  -1    761.21   0.00          0.00  1.  0.00  0.   41.39 1.0000
  -4   0  -1    775.07   0.00          0.00  1.  0.00  0.   41.20 1.0000
  -4   0   0   1867.10   0.00          0.00  1.  0.00  0.   91.61 1.0000
  -4   0   0   1939.52   0.00          0.00  1.  0.00  0.   91.60 1.0000
  -4   0   1     52.13   0.00          0.00  1.  0.00  0.    9.96 1.0000
  -4   0   1     68.06   0.00          0.00  1.  0.00  0.   11.88 1.0000
  -4   0   2   1922.82   0.00          0.00  1.  0.00  0.   90.33 1.0000
  -4   0   3     33.76   0.00          0.00  1.  0.00  0.   10.34 1.0000
  -4   0   3     15.37   0.00          0.00  1.  0.00  0.    7.92 1.0000
  -4   0   4    115.56   0.00          0.00  1.  0.00  0.   15.26 1.0000
  -4   0   4     97.22   0.00          0.00  1.  0.00  0.   12.42 1.0000
  -4   0   5    110.46   0.00          0.00  1.  0.00  0.    9.88 1.0000
  -4   0   5    110.67   0.00          0.00  1.  0.00  0.   14.73 1.0000
  -4   0   5     90.44   0.00          0.00  1.  0.00  0.   15.60 1.0000
  -4   0   6     52.71   0.00          0.00  1.  0.00  0.   10.60 1.0000
  -4   0   6     68.39   0.00          0.00  1.  0.00  0.   15.38 1.0000
  -4   0   6     77.44   0.00          0.00  1.  0.00  0.    7.92 1.0000
  -4   0   7    447.32   0.00          0.00  1.  0.00  0.   32.15 1.0000
  -4   0   7    473.50   0.00          0.00  1.  0.00  0.   33.51 1.0000
  -4   0   7    458.39   0.00          0.00  1.  0.00  0.   24.84 1.0000
  -4   0   8    970.95   0.00          0.00  1.  0.00  0.   57.96 1.0000
  -4   0   8   1056.25   0.00          0.00  1.  0.00  0.   59.80 1.0000
  -4   0   9    242.42   0.00          0.00  1.  0.00  0.   24.60 1.0000
  -4   0   9    216.68   0.00          0.00  1.  0.00  0.   22.08 1.0000
  -4   0   9    194.32   0.00          0.00  1.  0.00  0.   21.47 1.0000
  -4   0  10    212.28   0.00          0.00  1.  0.00  0.   22.73 1.0000
  -4   0  11    236.24   0.00          0.00  1.  0.00  0.   26.13 1.0000
  -4   1  -2    497.29   0.00          0.00  1.  0.00  0.   29.88 1.0000
  -4   1  -2    512.57   0.00          0.00  1.  0.00  0.   31.24 1.0000
  -4   1   0   3249.00   0.00          0.00  1.  0.00  0.  145.92 1.0000
  -4   1   0   3137.12   0.00          0.00  1.  0.00  0.  145.63 1.0000
  -4   1   1   2265.76   0.00          0.00  1.  0.00  0.  103.77 1.0000
  -4   1   1   2180.89   0.00          0.00  1.  0.00  0.  103.67 1.0000
  -4   1   2   2332.89   0.00          0.00  1.  0.00  0.  102.40 1.0000
  -4   1   5    181.44   0.00          0.00  1.  0.00  0.   17.51 1.0000
  -4   1   5    135.96   0.00          0.00  1.  0.00  0.   17.26 1.0000
  -4   1   5    165.89   0.00          0.00  1.  0.00  0.   10.56 1.0000
  -4   1   8   1297.44   0.00          0.00  1.  0.00  0.   70.60 1.0000
  -4   1   8   1279.49   0.00          0.00  1.  0.00  0.   67.25 1.0000
  -4   1   8   1276.63   0.00          0.00  1.  0.00  0.   70.75 1.0000
  -4   1  10     17.56   0.00          0.00  1.  0.00  0.   11.31 1.0000
  -4   1  10      7.18   0.00          0.00  1.  0.00  0.   13.88 1.0000
  -4   1  11     89.87   0.00          0.00  1.  0.00  0.   16.68 1.0000
  -4   1  12    376.75   0.00          0.00  1.  0.00  0.   34.55 1.0000
  -4   2 -11    496.40   0.00          0.00  1.  0.00  0.   37.88 1.0000
  -4   2 -10    163.84   0.00          0.00  1.  0.00  0.   20.48 1.0000
  -4   2 -10    193.49   0.00          0.00  1.  0.00  0.   21.98 1.0000
  -4   2  -9    824.26   0.00          0.00  1.  0.00  0.   49.38 1.0000
  -4   2  -9    812.25   0.00          0.00  1.  0.00  0.   49.59 1.0000
  -4   2  -8    738.75   0.00          0.00  1.  0.00  0.   44.03 1.0000
  -4   2  -8    747.48   0.00          0.00  1.  0.00  0.   43.74 1.0000
  -4   2  -7   1301.04   0.00          0.00  1.  0.00  0.   67.81 1.0000
  -4   2  -7   1272.35   0.00          0.00  1.  0.00  0.   67.77 1.0000
  -4   2  -6    894.61   0.00          0.00  1.  0.00  0.   49.65 1.0000
  -4   2  -6    915.67   0.00          0.00  1.  0.00  0.   50.23 1.0000
  -4   2  -5   1432.62   0.00          0.00  1.  0.00  0.   70.40 1.0000
  -4   2  -5   1356.45   0.00          0.00  1.  0.00  0.   70.71 1.0000
  -4   2  -1   3457.44   0.00          0.00  1.  0.00  0.  159.94 1.0000
  -4   2  -1   3576.04   0.00          0.00  1.  0.00  0.  160.26 1.0000
  -4   2   2    913.25   0.00          0.00  1.  0.00  0.   50.17 1.0000
  -4   2   2    910.83   0.00          0.00  1.  0.00  0.   50.10 1.0000
  -4   2   4     23.43   0.00          0.00  1.  0.00  0.   12.00 1.0000
  -4   2   6   1129.63   0.00          0.00  1.  0.00  0.   59.83 1.0000
  -4   2   6   1162.81   0.00          0.00  1.  0.00  0.   61.38 1.0000
  -4   2   6   1116.90   0.00          0.00  1.  0.00  0.   60.16 1.0000
  -4   2   7    294.47   0.00          0.00  1.  0.00  0.   24.02 1.0000
  -4   2   7    317.20   0.00          0.00  1.  0.00  0.   26.00 1.0000
  -4   2   7    287.30   0.00          0.00  1.  0.00  0.   20.34 1.0000
  -4   2   8    944.95   0.00          0.00  1.  0.00  0.   53.49 1.0000
  -4   2   8    999.82   0.00          0.00  1.  0.00  0.   56.92 1.0000
  -4   2   8    937.58   0.00          0.00  1.  0.00  0.   55.12 1.0000
  -4   2   9     89.87   0.00          0.00  1.  0.00  0.   17.06 1.0000
  -4   2   9     72.42   0.00          0.00  1.  0.00  0.   10.72 1.0000
  -4   2  10     17.39   0.00          0.00  1.  0.00  0.    7.92 1.0000
  -4   2  10     -0.24   0.00          0.00  1.  0.00  0.   11.76 1.0000
  -4   2  11     41.73   0.00          0.00  1.  0.00  0.   17.05 1.0000
  -4   2  12     46.51   0.00          0.00  1.  0.00  0.   18.41 1.0000
  -4   3 -11    648.72   0.00          0.00  1.  0.00  0.   41.77 1.0000
  -4   3  -9    490.62   0.00          0.00  1.  0.00  0.   34.55 1.0000
  -4   3  -9    459.67   0.00          0.00  1.  0.00  0.   33.45 1.0000
  -4   3  -8    273.90   0.00          0.00  1.  0.00  0.   24.49 1.0000
  -4   3  -8    314.00   0.00          0.00  1.  0.00  0.   25.87 1.0000
  -4   3  -6   3102.49   0.00          0.00  1.  0.00  0.  149.28 1.0000
  -4   3  -6   3206.96   0.00          0.00  1.  0.00  0.  150.64 1.0000
  -4   3  -2    998.56   0.00          0.00  1.  0.00  0.   51.82 1.0000
  -4   3  -2   1009.97   0.00          0.00  1.  0.00  0.   52.75 1.0000
  -4   3   3   1978.47   0.00          0.00  1.  0.00  0.   88.07 1.0000
  -4   3   3   1911.44   0.00          0.00  1.  0.00  0.   87.44 1.0000
  -4   3   3   1947.46   0.00          0.00  1.  0.00  0.   93.56 1.0000
  -4   3   7    127.92   0.00          0.00  1.  0.00  0.   13.80 1.0000
  -4   3   7    140.42   0.00          0.00  1.  0.00  0.   16.59 1.0000
  -4   3   7    118.59   0.00          0.00  1.  0.00  0.   15.90 1.0000
  -4   3  10     69.56   0.00          0.00  1.  0.00  0.   16.18 1.0000
  -4   3  11    201.36   0.00          0.00  1.  0.00  0.   25.26 1.0000
  -4   4 -10    132.48   0.00          0.00  1.  0.00  0.   19.11 1.0000
  -4   4  -9    136.66   0.00          0.00  1.  0.00  0.   18.00 1.0000
  -4   4  -8    202.21   0.00          0.00  1.  0.00  0.   19.91 1.0000
  -4   4  -8    207.65   0.00          0.00  1.  0.00  0.   20.17 1.0000
  -4   4  -3    398.40   0.00          0.00  1.  0.00  0.   25.55 1.0000
  -4   4  -3    373.65   0.00          0.00  1.  0.00  0.   24.74 1.0000
  -4   4   0    974.06   0.00          0.00  1.  0.00  0.   48.69 1.0000
  -4   4   0    900.00   0.00          0.00  1.  0.00  0.   48.60 1.0000
  -4   4   2    773.40   0.00          0.00  1.  0.00  0.   48.95 1.0000
  -4   4   3    297.91   0.00          0.00  1.  0.00  0.   21.75 1.0000
  -4   4   3    296.18   0.00          0.00  1.  0.00  0.   23.06 1.0000
  -4   4   6   1351.30   0.00          0.00  1.  0.00  0.   77.20 1.0000
  -4   4   6   1567.37   0.00          0.00  1.  0.00  0.   75.22 1.0000
  -4   4   6   1349.83   0.00          0.00  1.  0.00  0.   72.75 1.0000
  -4   4   7    665.64   0.00          0.00  1.  0.00  0.   41.28 1.0000
  -4   4   7    653.31   0.00          0.00  1.  0.00  0.   35.78 1.0000
  -4   4   7    752.95   0.00          0.00  1.  0.00  0.   42.81 1.0000
  -4   4   7    689.59   0.00          0.00  1.  0.00  0.   43.59 1.0000
  -4   4  10    200.22   0.00          0.00  1.  0.00  0.   24.62 1.0000
  -4   4  11     20.98   0.00          0.00  1.  0.00  0.   14.75 1.0000
  -4   5  -8    290.70   0.00          0.00  1.  0.00  0.   24.55 1.0000
  -4   5  -7    112.15   0.00          0.00  1.  0.00  0.   15.04 1.0000
  -4   5  -7    112.36   0.00          0.00  1.  0.00  0.   14.84 1.0000
  -4   5  -6    285.61   0.00          0.00  1.  0.00  0.   22.65 1.0000
  -4   5  -6    298.25   0.00          0.00  1.  0.00  0.   23.49 1.0000
  -4   5  -4    170.04   0.00          0.00  1.  0.00  0.   15.39 1.0000
  -4   5  -4    166.41   0.00          0.00  1.  0.00  0.   15.74 1.0000
  -4   5  -2     81.00   0.00          0.00  1.  0.00  0.   10.80 1.0000
  -4   5  -2     89.68   0.00          0.00  1.  0.00  0.   10.61 1.0000
  -4   5   3     88.17   0.00          0.00  1.  0.00  0.   11.27 1.0000
  -4   5   3     67.57   0.00          0.00  1.  0.00  0.   13.97 1.0000
  -4   5   3     84.09   0.00          0.00  1.  0.00  0.   11.74 1.0000
  -4   5   4    159.26   0.00          0.00  1.  0.00  0.   14.89 1.0000
  -4   5   4    154.50   0.00          0.00  1.  0.00  0.   17.90 1.0000
  -4   5   5    139.95   0.00          0.00  1.  0.00  0.   14.20 1.0000
  -4   5   5    133.63   0.00          0.00  1.  0.00  0.   15.03 1.0000
  -4   5   5    108.37   0.00          0.00  1.  0.00  0.   16.24 1.0000
  -4   5   7    813.96   0.00          0.00  1.  0.00  0.   45.65 1.0000
  -4   5   7    678.08   0.00          0.00  1.  0.00  0.   38.02 1.0000
  -4   5   7    707.03   0.00          0.00  1.  0.00  0.   45.73 1.0000
  -4   5   8    803.72   0.00          0.00  1.  0.00  0.   46.49 1.0000
  -4   5   8    673.92   0.00          0.00  1.  0.00  0.   46.21 1.0000
  -4   5   9    334.89   0.00          0.00  1.  0.00  0.   28.55 1.0000
  -4   5   9    350.44   0.00          0.00  1.  0.00  0.   28.83 1.0000
  -4   5  10    491.07   0.00          0.00  1.  0.00  0.   36.34 1.0000
  -4   6  -6    224.70   0.00          0.00  1.  0.00  0.   20.69 1.0000
  -4   6  -6    247.43   0.00          0.00  1.  0.00  0.   22.02 1.0000
  -4   6  -3   1603.20   0.00          0.00  1.  0.00  0.   76.88 1.0000
  -4   6  -3   1580.86   0.00          0.00  1.  0.00  0.   76.34 1.0000
  -4   6  -2    522.12   0.00          0.00  1.  0.00  0.   34.28 1.0000
  -4   6  -1    182.52   0.00          0.00  1.  0.00  0.   14.59 1.0000
  -4   6  -1    187.96   0.00          0.00  1.  0.00  0.   15.08 1.0000
  -4   6   2    286.62   0.00          0.00  1.  0.00  0.   20.65 1.0000
  -4   6   2    278.56   0.00          0.00  1.  0.00  0.   20.03 1.0000
  -4   6   4    242.42   0.00          0.00  1.  0.00  0.   21.18 1.0000
  -4   6   4    194.60   0.00          0.00  1.  0.00  0.   22.88 1.0000
  -4   6   4    235.93   0.00          0.00  1.  0.00  0.   18.43 1.0000
  -4   6   4    215.80   0.00          0.00  1.  0.00  0.   17.92 1.0000
  -4   6   5    167.44   0.00          0.00  1.  0.00  0.   16.82 1.0000
  -4   6   5    182.52   0.00          0.00  1.  0.00  0.   17.83 1.0000
  -4   6   5    207.36   0.00          0.00  1.  0.00  0.   17.86 1.0000
  -4   6   5    175.56   0.00          0.00  1.  0.00  0.   21.20 1.0000
  -4   6   6     35.52   0.00          0.00  1.  0.00  0.   13.35 1.0000
  -4   6   6     22.28   0.00          0.00  1.  0.00  0.   10.01 1.0000
  -4   6   6     36.72   0.00          0.00  1.  0.00  0.    8.73 1.0000
  -4   6   8    301.02   0.00          0.00  1.  0.00  0.   26.03 1.0000
  -4   7  -3    217.27   0.00          0.00  1.  0.00  0.   17.39 1.0000
  -4   7  -2    430.56   0.00          0.00  1.  0.00  0.   26.97 1.0000
  -4   7  -2    373.26   0.00          0.00  1.  0.00  0.   25.89 1.0000
  -4   7   3    460.53   0.00          0.00  1.  0.00  0.   26.61 1.0000
  -4   7   3    463.11   0.00          0.00  1.  0.00  0.   26.25 1.0000
  -4   7   3    486.64   0.00          0.00  1.  0.00  0.   34.41 1.0000
  -4   7   4    169.26   0.00          0.00  1.  0.00  0.   15.87 1.0000
  -4   7   4    173.71   0.00          0.00  1.  0.00  0.   20.30 1.0000
  -4   7   5     66.26   0.00          0.00  1.  0.00  0.   12.86 1.0000
  -4   7   5     60.53   0.00          0.00  1.  0.00  0.   11.36 1.0000
  -3  -8  -9     30.14   0.00          0.00  1.  0.00  0.   12.63 1.0000
  -3  -8  -9     25.40   0.00          0.00  1.  0.00  0.    6.85 1.0000
  -3  -8  -8    112.78   0.00          0.00  1.  0.00  0.    9.77 1.0000
  -3  -8  -7    159.01   0.00          0.00  1.  0.00  0.   20.93 1.0000
  -3  -8   3     13.76   0.00          0.00  1.  0.00  0.    5.94 1.0000
  -3  -7 -11     -0.98   0.00          0.00  1.  0.00  0.    9.66 1.0000
  -3  -7 -11     15.44   0.00          0.00  1.  0.00  0.   10.30 1.0000
  -3  -7 -10     10.96   0.00          0.00  1.  0.00  0.   11.25 1.0000
  -3  -7 -10      4.20   0.00          0.00  1.  0.00  0.    8.90 1.0000
  -3  -7  -9     35.05   0.00          0.00  1.  0.00  0.    8.76 1.0000
  -3  -7  -8    138.53   0.00          0.00  1.  0.00  0.   18.83 1.0000
  -3  -7  -8    153.51   0.00          0.00  1.  0.00  0.   13.63 1.0000
  -3  -7  -7     53.29   0.00          0.00  1.  0.00  0.    7.74 1.0000
  -3  -7  -7     36.84   0.00          0.00  1.  0.00  0.   13.23 1.0000
  -3  -7  -6     24.90   0.00          0.00  1.  0.00  0.    5.19 1.0000
  -3  -7  -6     12.53   0.00          0.00  1.  0.00  0.    9.27 1.0000
  -3  -7   1    381.03   0.00          0.00  1.  0.00  0.   20.69 1.0000
  -3  -7   1    354.19   0.00          0.00  1.  0.00  0.   20.33 1.0000
  -3  -7   6    221.41   0.00          0.00  1.  0.00  0.   19.64 1.0000
  -3  -6 -13    357.97   0.00          0.00  1.  0.00  0.   30.27 1.0000
  -3  -6 -12    309.76   0.00          0.00  1.  0.00  0.   24.99 1.0000
  -3  -6 -12    318.62   0.00          0.00  1.  0.00  0.   26.42 1.0000
  -3  -6 -11    374.81   0.00          0.00  1.  0.00  0.   26.72 1.0000
  -3  -6 -11    309.76   0.00          0.00  1.  0.00  0.   26.05 1.0000
  -3  -6 -10    404.41   0.00          0.00  1.  0.00  0.   29.36 1.0000
  -3  -6 -10    394.42   0.00          0.00  1.  0.00  0.   27.41 1.0000
  -3  -6  -9    581.77   0.00          0.00  1.  0.00  0.   38.11 1.0000
  -3  -6  -9    591.95   0.00          0.00  1.  0.00  0.   34.55 1.0000
  -3  -6  -9    582.74   0.00          0.00  1.  0.00  0.   34.76 1.0000
  -3  -6  -8    353.06   0.00          0.00  1.  0.00  0.   27.06 1.0000
  -3  -6  -8    351.56   0.00          0.00  1.  0.00  0.   23.25 1.0000
  -3  -6  -8    362.14   0.00          0.00  1.  0.00  0.   23.60 1.0000
  -3  -6  -7    239.63   0.00          0.00  1.  0.00  0.   17.03 1.0000
  -3  -6  -7    231.95   0.00          0.00  1.  0.00  0.   16.75 1.0000
  -3  -6  -7    245.55   0.00          0.00  1.  0.00  0.   21.94 1.0000
  -3  -6  -6     64.64   0.00          0.00  1.  0.00  0.    8.20 1.0000
  -3  -6  -6     46.10   0.00          0.00  1.  0.00  0.   12.63 1.0000
  -3  -6  -6     66.91   0.00          0.00  1.  0.00  0.    8.34 1.0000
  -3  -6  -5     43.96   0.00          0.00  1.  0.00  0.    6.23 1.0000
  -3  -6  -5     35.52   0.00          0.00  1.  0.00  0.    6.68 1.0000
  -3  -6  -5     47.47   0.00          0.00  1.  0.00  0.   10.75 1.0000
  -3  -6   0    992.25   0.00          0.00  1.  0.00  0.   56.70 1.0000
  -3  -6   0    894.01   0.00          0.00  1.  0.00  0.   44.25 1.0000
  -3  -6   1    710.22   0.00          0.00  1.  0.00  0.   36.78 1.0000
  -3  -6   1    698.54   0.00          0.00  1.  0.00  0.   37.00 1.0000
  -3  -6   1    736.04   0.00          0.00  1.  0.00  0.   47.21 1.0000
  -3  -6   4     93.51   0.00          0.00  1.  0.00  0.   11.99 1.0000
  -3  -6   4     87.80   0.00          0.00  1.  0.00  0.   12.18 1.0000
  -3  -5 -13    173.45   0.00          0.00  1.  0.00  0.   21.86 1.0000
  -3  -5 -12   1580.06   0.00          0.00  1.  0.00  0.   81.88 1.0000
  -3  -5 -12   1514.77   0.00          0.00  1.  0.00  0.   82.51 1.0000
  -3  -5 -11      5.24   0.00          0.00  1.  0.00  0.   11.22 1.0000
  -3  -5 -11     34.93   0.00          0.00  1.  0.00  0.   11.82 1.0000
  -3  -5 -11     27.77   0.00          0.00  1.  0.00  0.    8.85 1.0000
  -3  -5 -10     72.76   0.00          0.00  1.  0.00  0.   11.26 1.0000
  -3  -5 -10     60.06   0.00          0.00  1.  0.00  0.   12.56 1.0000
  -3  -5 -10     95.84   0.00          0.00  1.  0.00  0.   13.51 1.0000
  -3  -5  -4    225.60   0.00          0.00  1.  0.00  0.   15.02 1.0000
  -3  -5  -4    219.04   0.00          0.00  1.  0.00  0.   20.72 1.0000
  -3  -5  -4    230.13   0.00          0.00  1.  0.00  0.   14.87 1.0000
  -3  -5   0    595.36   0.00          0.00  1.  0.00  0.   31.23 1.0000
  -3  -5   0    625.00   0.00          0.00  1.  0.00  0.   40.00 1.0000
  -3  -5   1    319.69   0.00          0.00  1.  0.00  0.   27.89 1.0000
  -3  -5   3    407.23   0.00          0.00  1.  0.00  0.   32.69 1.0000
  -3  -5   5    413.31   0.00          0.00  1.  0.00  0.   28.87 1.0000
  -3  -5   5    466.13   0.00          0.00  1.  0.00  0.   30.23 1.0000
  -3  -5   5    439.74   0.00          0.00  1.  0.00  0.   29.36 1.0000
  -3  -5   9    165.64   0.00          0.00  1.  0.00  0.   22.65 1.0000
  -3  -4 -14    265.36   0.00          0.00  1.  0.00  0.   27.37 1.0000
  -3  -4 -13     82.99   0.00          0.00  1.  0.00  0.   12.03 1.0000
  -3  -4 -13     61.15   0.00          0.00  1.  0.00  0.   17.05 1.0000
  -3  -4 -13     88.92   0.00          0.00  1.  0.00  0.   16.97 1.0000
  -3  -4 -12   1268.78   0.00          0.00  1.  0.00  0.   65.54 1.0000
  -3  -4 -12   1172.38   0.00          0.00  1.  0.00  0.   66.43 1.0000
  -3  -4 -12   1194.39   0.00          0.00  1.  0.00  0.   67.05 1.0000
  -3  -4  -9    188.51   0.00          0.00  1.  0.00  0.   17.85 1.0000
  -3  -4  -9    219.34   0.00          0.00  1.  0.00  0.   18.36 1.0000
  -3  -4  -9    215.21   0.00          0.00  1.  0.00  0.   19.07 1.0000
  -3  -4  -7    700.66   0.00          0.00  1.  0.00  0.   41.82 1.0000
  -3  -4  -7    712.36   0.00          0.00  1.  0.00  0.   38.97 1.0000
  -3  -4  -7    662.55   0.00          0.00  1.  0.00  0.   39.12 1.0000
  -3  -4  -6   1255.99   0.00          0.00  1.  0.00  0.   62.37 1.0000
  -3  -4  -6   1229.90   0.00          0.00  1.  0.00  0.   56.11 1.0000
  -3  -4  -6   1145.82   0.00          0.00  1.  0.00  0.   55.51 1.0000
  -3  -4   1    222.01   0.00          0.00  1.  0.00  0.   19.37 1.0000
  -3  -4   1    237.47   0.00          0.00  1.  0.00  0.   16.33 1.0000
  -3  -4   1    227.10   0.00          0.00  1.  0.00  0.   16.28 1.0000
  -3  -4   4      5.76   0.00          0.00  1.  0.00  0.    9.31 1.0000
  -3  -4   4     18.66   0.00          0.00  1.  0.00  0.    6.91 1.0000
  -3  -4   4     15.37   0.00          0.00  1.  0.00  0.    8.94 1.0000
  -3  -4   5     51.84   0.00          0.00  1.  0.00  0.   11.95 1.0000
  -3  -4   5     53.88   0.00          0.00  1.  0.00  0.    9.10 1.0000
  -3  -4   5     59.14   0.00          0.00  1.  0.00  0.   11.53 1.0000
  -3  -4   7    129.96   0.00          0.00  1.  0.00  0.   17.33 1.0000
  -3  -4   7    107.33   0.00          0.00  1.  0.00  0.   12.85 1.0000
  -3  -4   7    137.83   0.00          0.00  1.  0.00  0.   16.91 1.0000
  -3  -3 -14     84.46   0.00          0.00  1.  0.00  0.   18.20 1.0000
  -3  -3 -13    135.49   0.00          0.00  1.  0.00  0.   18.16 1.0000
  -3  -3 -13    115.13   0.00          0.00  1.  0.00  0.   19.10 1.0000
  -3  -3 -12     62.41   0.00          0.00  1.  0.00  0.   15.33 1.0000
  -3  -3 -11    488.85   0.00          0.00  1.  0.00  0.   34.05 1.0000
  -3  -3 -11    485.32   0.00          0.00  1.  0.00  0.   32.60 1.0000
  -3  -3 -10    638.07   0.00          0.00  1.  0.00  0.   40.92 1.0000
  -3  -3 -10    716.10   0.00          0.00  1.  0.00  0.   42.28 1.0000
  -3  -3  -8    496.40   0.00          0.00  1.  0.00  0.   29.41 1.0000
  -3  -3  -8    502.21   0.00          0.00  1.  0.00  0.   29.13 1.0000
  -3  -3  -2    847.97   0.00          0.00  1.  0.00  0.   42.52 1.0000
  -3  -3   2     29.38   0.00          0.00  1.  0.00  0.    8.56 1.0000
  -3  -3   2     31.25   0.00          0.00  1.  0.00  0.   10.17 1.0000
  -3  -3   2     22.47   0.00          0.00  1.  0.00  0.    9.10 1.0000
  -3  -3   4    626.50   0.00          0.00  1.  0.00  0.   35.54 1.0000
  -3  -3   4    600.25   0.00          0.00  1.  0.00  0.   34.79 1.0000
  -3  -3   4    582.26   0.00          0.00  1.  0.00  0.   33.30 1.0000
  -3  -3   4    607.62   0.00          0.00  1.  0.00  0.   36.48 1.0000
  -3  -3   7   1910.56   0.00          0.00  1.  0.00  0.   93.54 1.0000
  -3  -3   7   1782.53   0.00          0.00  1.  0.00  0.   93.73 1.0000
  -3  -3   7   2003.46   0.00          0.00  1.  0.00  0.   94.00 1.0000
  -3  -3   7   1884.43   0.00          0.00  1.  0.00  0.   91.16 1.0000
  -3  -3   9    211.70   0.00          0.00  1.  0.00  0.   18.04 1.0000
  -3  -3   9    235.32   0.00          0.00  1.  0.00  0.   23.93 1.0000
  -3  -3   9    208.80   0.00          0.00  1.  0.00  0.   24.28 1.0000
  -3  -3  10     36.12   0.00          0.00  1.  0.00  0.   15.99 1.0000
  -3  -3  10     50.69   0.00          0.00  1.  0.00  0.   16.66 1.0000
  -3  -2 -14    230.74   0.00          0.00  1.  0.00  0.   24.00 1.0000
  -3  -2 -13    233.17   0.00          0.00  1.  0.00  0.   22.29 1.0000
  -3  -2 -13    217.86   0.00          0.00  1.  0.00  0.   23.91 1.0000
  -3  -2 -11   1195.78   0.00          0.00  1.  0.00  0.   65.70 1.0000
  -3  -2 -11   1245.38   0.00          0.00  1.  0.00  0.   67.05 1.0000
  -3  -2 -10    455.40   0.00          0.00  1.  0.00  0.   32.01 1.0000
  -3  -2 -10    445.63   0.00          0.00  1.  0.00  0.   31.67 1.0000
  -3  -2  -7   2401.00   0.00          0.00  1.  0.00  0.  105.84 1.0000
  -3  -2  -7   2490.01   0.00          0.00  1.  0.00  0.  105.79 1.0000
  -3  -2   0    857.90   0.00          0.00  1.  0.00  0.   43.94 1.0000
  -3  -2   0    858.49   0.00          0.00  1.  0.00  0.   43.95 1.0000
  -3  -2   1   7928.12   0.00          0.00  1.  0.00  0.  336.57 1.0000
  -3  -2   1   7600.35   0.00          0.00  1.  0.00  0.  353.95 1.0000
  -3  -2   4    264.39   0.00          0.00  1.  0.00  0.   18.86 1.0000
  -3  -2   4    243.05   0.00          0.00  1.  0.00  0.   19.64 1.0000
  -3  -2   4    256.96   0.00          0.00  1.  0.00  0.   19.56 1.0000
  -3  -2   4    251.22   0.00          0.00  1.  0.00  0.   14.90 1.0000
  -3  -2   6    761.76   0.00          0.00  1.  0.00  0.   47.47 1.0000
  -3  -2   6    780.08   0.00          0.00  1.  0.00  0.   46.36 1.0000
  -3  -2   6    768.40   0.00          0.00  1.  0.00  0.   43.80 1.0000
  -3  -2   6    742.02   0.00          0.00  1.  0.00  0.   46.85 1.0000
  -3  -1 -13    181.71   0.00          0.00  1.  0.00  0.   23.46 1.0000
  -3  -1  -8    772.28   0.00          0.00  1.  0.00  0.   45.02 1.0000
  -3  -1  -8    775.62   0.00          0.00  1.  0.00  0.   45.12 1.0000
  -3  -1  -6    536.39   0.00          0.00  1.  0.00  0.   32.42 1.0000
  -3  -1  -6    554.13   0.00          0.00  1.  0.00  0.   31.54 1.0000
  -3  -1  -4    202.21   0.00          0.00  1.  0.00  0.   14.79 1.0000
  -3  -1  -4    187.42   0.00          0.00  1.  0.00  0.   15.33 1.0000
  -3  -1  -3   7007.36   0.00          0.00  1.  0.00  0.  308.05 1.0000
  -3  -1  -3   6827.72   0.00          0.00  1.  0.00  0.  307.38 1.0000
  -3  -1  -2   4041.14   0.00          0.00  1.  0.00  0.  172.91 1.0000
  -3  -1  -2   3951.38   0.00          0.00  1.  0.00  0.  172.24 1.0000
  -3  -1   2   1738.06   0.00          0.00  1.  0.00  0.   82.55 1.0000
  -3  -1   2   1774.94   0.00          0.00  1.  0.00  0.   81.73 1.0000
  -3  -1   4    687.49   0.00          0.00  1.  0.00  0.   38.28 1.0000
  -3  -1   5   1036.20   0.00          0.00  1.  0.00  0.   55.37 1.0000
  -3  -1   5    960.38   0.00          0.00  1.  0.00  0.   53.92 1.0000
  -3  -1   5   1041.35   0.00          0.00  1.  0.00  0.   52.92 1.0000
  -3  -1   5    982.20   0.00          0.00  1.  0.00  0.   54.53 1.0000
  -3  -1  12    329.79   0.00          0.00  1.  0.00  0.   31.96 1.0000
  -3   0 -14    184.69   0.00          0.00  1.  0.00  0.   22.29 1.0000
  -3   0 -13   1236.23   0.00          0.00  1.  0.00  0.   71.02 1.0000
  -3   0 -12   1453.90   0.00          0.00  1.  0.00  0.   79.31 1.0000
  -3   0 -11   1596.80   0.00          0.00  1.  0.00  0.   83.92 1.0000
  -3   0 -11   1600.00   0.00          0.00  1.  0.00  0.   83.20 1.0000
  -3   0 -10   1528.81   0.00          0.00  1.  0.00  0.   79.76 1.0000
  -3   0 -10   1535.86   0.00          0.00  1.  0.00  0.   79.16 1.0000
  -3   0  -9    240.25   0.00          0.00  1.  0.00  0.   21.70 1.0000
  -3   0  -9    208.22   0.00          0.00  1.  0.00  0.   19.91 1.0000
  -3   0  -8   2719.62   0.00          0.00  1.  0.00  0.  127.25 1.0000
  -3   0  -8   2580.64   0.00          0.00  1.  0.00  0.  127.00 1.0000
  -3   0  -7    275.89   0.00          0.00  1.  0.00  0.   20.93 1.0000
  -3   0  -7    263.41   0.00          0.00  1.  0.00  0.   20.13 1.0000
  -3   0  -6   1474.56   0.00          0.00  1.  0.00  0.   72.19 1.0000
  -3   0  -6   1404.75   0.00          0.00  1.  0.00  0.   71.96 1.0000
  -3   0  -5    894.01   0.00          0.00  1.  0.00  0.   44.85 1.0000
  -3   0  -5    832.90   0.00          0.00  1.  0.00  0.   44.44 1.0000
  -3   0  -4    456.25   0.00          0.00  1.  0.00  0.   26.49 1.0000
  -3   0  -4    445.63   0.00          0.00  1.  0.00  0.   26.60 1.0000
  -3   0  -3    754.60   0.00          0.00  1.  0.00  0.   39.56 1.0000
  -3   0  -3    794.68   0.00          0.00  1.  0.00  0.   39.47 1.0000
  -3   0  -2    247.75   0.00          0.00  1.  0.00  0.   16.37 1.0000
  -3   0  -2    226.50   0.00          0.00  1.  0.00  0.   15.35 1.0000
  -3   0  -1   1497.69   0.00          0.00  1.  0.00  0.   69.66 1.0000
  -3   0  -1   1460.77   0.00          0.00  1.  0.00  0.   69.56 1.0000
  -3   0   0   3689.35   0.00          0.00  1.  0.00  0.  167.64 1.0000
  -3   0   0   3821.71   0.00          0.00  1.  0.00  0.  168.15 1.0000
  -3   0   1   1911.44   0.00          0.00  1.  0.00  0.   88.31 1.0000
  -3   0   2   2797.35   0.00          0.00  1.  0.00  0.  130.11 1.0000
  -3   0   2   2940.89   0.00          0.00  1.  0.00  0.  131.24 1.0000
  -3   0   3   2352.25   0.00          0.00  1.  0.00  0.  106.70 1.0000
  -3   0   3   2257.20   0.00          0.00  1.  0.00  0.  106.42 1.0000
  -3   0   4    421.07   0.00          0.00  1.  0.00  0.   26.27 1.0000
  -3   0   4    430.15   0.00          0.00  1.  0.00  0.   23.23 1.0000
  -3   0   4    408.04   0.00          0.00  1.  0.00  0.   25.86 1.0000
  -3   0   5    131.56   0.00          0.00  1.  0.00  0.   13.99 1.0000
  -3   0   5    132.48   0.00          0.00  1.  0.00  0.   14.73 1.0000
  -3   0   5    117.07   0.00          0.00  1.  0.00  0.   15.15 1.0000
  -3   0   5    122.32   0.00          0.00  1.  0.00  0.    9.29 1.0000
  -3   0   6    170.82   0.00          0.00  1.  0.00  0.   17.51 1.0000
  -3   0   6    170.30   0.00          0.00  1.  0.00  0.   16.44 1.0000
  -3   0   6    159.52   0.00          0.00  1.  0.00  0.   16.17 1.0000
  -3   0   6    157.75   0.00          0.00  1.  0.00  0.   10.55 1.0000
  -3   0   7   2388.28   0.00          0.00  1.  0.00  0.  115.33 1.0000
  -3   0   7   2359.04   0.00          0.00  1.  0.00  0.  114.63 1.0000
  -3   0   7   2310.72   0.00          0.00  1.  0.00  0.  114.41 1.0000
  -3   0   8     58.06   0.00          0.00  1.  0.00  0.   12.95 1.0000
  -3   0   8     60.06   0.00          0.00  1.  0.00  0.   11.32 1.0000
  -3   0   8     54.32   0.00          0.00  1.  0.00  0.   14.74 1.0000
  -3   0   9     -2.79   0.00          0.00  1.  0.00  0.   11.72 1.0000
  -3   0   9     10.18   0.00          0.00  1.  0.00  0.   10.97 1.0000
  -3   0  10     24.40   0.00          0.00  1.  0.00  0.   12.05 1.0000
  -3   0  10     39.19   0.00          0.00  1.  0.00  0.   14.27 1.0000
  -3   0  11    235.32   0.00          0.00  1.  0.00  0.   24.85 1.0000
  -3   0  12    257.92   0.00          0.00  1.  0.00  0.   28.27 1.0000
  -3   1 -13    234.70   0.00          0.00  1.  0.00  0.   25.12 1.0000
  -3   1 -10     24.11   0.00          0.00  1.  0.00  0.   11.39 1.0000
  -3   1 -10     27.56   0.00          0.00  1.  0.00  0.   12.07 1.0000
  -3   1  -8    843.32   0.00          0.00  1.  0.00  0.   45.88 1.0000
  -3   1  -8    829.44   0.00          0.00  1.  0.00  0.   46.66 1.0000
  -3   1  -6    510.76   0.00          0.00  1.  0.00  0.   32.54 1.0000
  -3   1  -6    541.03   0.00          0.00  1.  0.00  0.   32.10 1.0000
  -3   1  -2   3690.56   0.00          0.00  1.  0.00  0.  172.53 1.0000
  -3   1  -2   3673.57   0.00          0.00  1.  0.00  0.  173.34 1.0000
  -3   1   0   1741.39   0.00          0.00  1.  0.00  0.   81.79 1.0000
  -3   1   0   1752.26   0.00          0.00  1.  0.00  0.   82.05 1.0000
  -3   1   1   3263.84   0.00          0.00  1.  0.00  0.  148.54 1.0000
  -3   1   1   3173.07   0.00          0.00  1.  0.00  0.  147.58 1.0000
  -3   1   2   1783.37   0.00          0.00  1.  0.00  0.   81.93 1.0000
  -3   1   2   1720.59   0.00          0.00  1.  0.00  0.   82.13 1.0000
  -3   1   2   1619.26   0.00          0.00  1.  0.00  0.   85.31 1.0000
  -3   1   5   1069.94   0.00          0.00  1.  0.00  0.   54.95 1.0000
  -3   1   5   1053.65   0.00          0.00  1.  0.00  0.   52.59 1.0000
  -3   1   5   1100.25   0.00          0.00  1.  0.00  0.   55.06 1.0000
  -3   1   7   1057.55   0.00          0.00  1.  0.00  0.   57.24 1.0000
  -3   1   7   1038.77   0.00          0.00  1.  0.00  0.   54.79 1.0000
  -3   1   7   1056.25   0.00          0.00  1.  0.00  0.   58.50 1.0000
  -3   1   9     82.81   0.00          0.00  1.  0.00  0.   15.65 1.0000
  -3   1   9    126.56   0.00          0.00  1.  0.00  0.   18.23 1.0000
  -3   1   9     83.17   0.00          0.00  1.  0.00  0.   12.77 1.0000
  -3   1  11     89.49   0.00          0.00  1.  0.00  0.   17.97 1.0000
  -3   2 -13    148.35   0.00          0.00  1.  0.00  0.   22.65 1.0000
  -3   2 -12    188.79   0.00          0.00  1.  0.00  0.   22.81 1.0000
  -3   2 -10    525.33   0.00          0.00  1.  0.00  0.   33.92 1.0000
  -3   2 -10    475.68   0.00          0.00  1.  0.00  0.   33.15 1.0000
  -3   2  -9    291.04   0.00          0.00  1.  0.00  0.   23.54 1.0000
  -3   2  -9    266.02   0.00          0.00  1.  0.00  0.   23.81 1.0000
  -3   2  -7   1963.38   0.00          0.00  1.  0.00  0.  105.46 1.0000
  -3   2  -7   2031.30   0.00          0.00  1.  0.00  0.  105.46 1.0000
  -3   2  -5   1194.39   0.00          0.00  1.  0.00  0.   60.13 1.0000
  -3   2  -5   1162.13   0.00          0.00  1.  0.00  0.   60.68 1.0000
  -3   2  -2   1573.71   0.00          0.00  1.  0.00  0.   75.37 1.0000
  -3   2  -2   1604.80   0.00          0.00  1.  0.00  0.   75.31 1.0000
  -3   2   6    914.46   0.00          0.00  1.  0.00  0.   46.57 1.0000
  -3   2   6    873.20   0.00          0.00  1.  0.00  0.   46.69 1.0000
  -3   2   6    886.25   0.00          0.00  1.  0.00  0.   43.46 1.0000
  -3   2   9    333.79   0.00          0.00  1.  0.00  0.   27.41 1.0000
  -3   2   9    273.57   0.00          0.00  1.  0.00  0.   24.81 1.0000
  -3   2   9    284.93   0.00          0.00  1.  0.00  0.   22.28 1.0000
  -3   2  10    180.90   0.00          0.00  1.  0.00  0.   18.56 1.0000
  -3   2  10    188.51   0.00          0.00  1.  0.00  0.   21.69 1.0000
  -3   2  12    374.81   0.00          0.00  1.  0.00  0.   32.91 1.0000
  -3   2  13    253.45   0.00          0.00  1.  0.00  0.   29.29 1.0000
  -3   3 -12     90.82   0.00          0.00  1.  0.00  0.   16.77 1.0000
  -3   3  -9    220.82   0.00          0.00  1.  0.00  0.   21.70 1.0000
  -3   3  -9    237.78   0.00          0.00  1.  0.00  0.   21.59 1.0000
  -3   3  -8    404.41   0.00          0.00  1.  0.00  0.   28.96 1.0000
  -3   3  -8    394.02   0.00          0.00  1.  0.00  0.   28.98 1.0000
  -3   3  -7   1832.70   0.00          0.00  1.  0.00  0.   91.61 1.0000
  -3   3  -7   1758.12   0.00          0.00  1.  0.00  0.   90.57 1.0000
  -3   3  -6   1394.28   0.00          0.00  1.  0.00  0.   71.69 1.0000
  -3   3  -6   1425.06   0.00          0.00  1.  0.00  0.   72.48 1.0000
  -3   3  -5   1255.99   0.00          0.00  1.  0.00  0.   63.79 1.0000
  -3   3  -5   1208.26   0.00          0.00  1.  0.00  0.   62.57 1.0000
  -3   3  -3    760.10   0.00          0.00  1.  0.00  0.   39.70 1.0000
  -3   3  -3    726.84   0.00          0.00  1.  0.00  0.   38.82 1.0000
  -3   3  -2    684.35   0.00          0.00  1.  0.00  0.   37.15 1.0000
  -3   3  -1   2957.18   0.00          0.00  1.  0.00  0.  132.69 1.0000
  -3   3  -1   2816.42   0.00          0.00  1.  0.00  0.  132.68 1.0000
  -3   3   2     38.32   0.00          0.00  1.  0.00  0.    8.54 1.0000
  -3   3   2     35.76   0.00          0.00  1.  0.00  0.    6.70 1.0000
  -3   3   2     31.81   0.00          0.00  1.  0.00  0.    6.88 1.0000
  -3   3   3    276.56   0.00          0.00  1.  0.00  0.   20.95 1.0000
  -3   3   3    311.17   0.00          0.00  1.  0.00  0.   20.11 1.0000
  -3   3   3    294.81   0.00          0.00  1.  0.00  0.   20.60 1.0000
  -3   3   6   1887.90   0.00          0.00  1.  0.00  0.   90.38 1.0000
  -3   3   6   1748.91   0.00          0.00  1.  0.00  0.   86.15 1.0000
  -3   3   6   1746.40   0.00          0.00  1.  0.00  0.   88.59 1.0000
  -3   3   6   1839.55   0.00          0.00  1.  0.00  0.   95.22 1.0000
  -3   3   7   1701.56   0.00          0.00  1.  0.00  0.   89.10 1.0000
  -3   3   7   1754.77   0.00          0.00  1.  0.00  0.   95.51 1.0000
  -3   3   7   1728.06   0.00          0.00  1.  0.00  0.   89.79 1.0000
  -3   3   7   1663.82   0.00          0.00  1.  0.00  0.   85.66 1.0000
  -3   3   8    416.57   0.00          0.00  1.  0.00  0.   25.31 1.0000
  -3   3   8    370.56   0.00          0.00  1.  0.00  0.   28.11 1.0000
  -3   3   8    408.85   0.00          0.00  1.  0.00  0.   29.52 1.0000
  -3   3   9    215.21   0.00          0.00  1.  0.00  0.   22.30 1.0000
  -3   3   9    230.13   0.00          0.00  1.  0.00  0.   18.20 1.0000
  -3   3   9    211.12   0.00          0.00  1.  0.00  0.   21.21 1.0000
  -3   3  10     19.27   0.00          0.00  1.  0.00  0.    8.69 1.0000
  -3   3  10     -8.53   0.00          0.00  1.  0.00  0.   12.50 1.0000
  -3   3  11    765.63   0.00          0.00  1.  0.00  0.   49.25 1.0000
  -3   3  11    678.60   0.00          0.00  1.  0.00  0.   43.76 1.0000
  -3   3  12    132.02   0.00          0.00  1.  0.00  0.   19.53 1.0000
  -3   4  -8    361.76   0.00          0.00  1.  0.00  0.   28.15 1.0000
  -3   4  -8    437.65   0.00          0.00  1.  0.00  0.   28.87 1.0000
  -3   4  -7    773.40   0.00          0.00  1.  0.00  0.   42.27 1.0000
  -3   4  -7    712.89   0.00          0.00  1.  0.00  0.   41.65 1.0000
  -3   4  -6   1049.11   0.00          0.00  1.  0.00  0.   57.65 1.0000
  -3   4  -6   1041.35   0.00          0.00  1.  0.00  0.   57.44 1.0000
  -3   4  -5    653.82   0.00          0.00  1.  0.00  0.   36.82 1.0000
  -3   4  -5    626.50   0.00          0.00  1.  0.00  0.   36.54 1.0000
  -3   4  -2   1944.81   0.00          0.00  1.  0.00  0.   91.73 1.0000
  -3   4  -2   1952.76   0.00          0.00  1.  0.00  0.   91.92 1.0000
  -3   4   4      4.41   0.00          0.00  1.  0.00  0.    6.47 1.0000
  -3   4   4      2.62   0.00          0.00  1.  0.00  0.    6.35 1.0000
  -3   4   4      9.18   0.00          0.00  1.  0.00  0.    8.91 1.0000
  -3   4  10    -12.89   0.00          0.00  1.  0.00  0.   12.78 1.0000
  -3   4  10     12.04   0.00          0.00  1.  0.00  0.   12.77 1.0000
  -3   4  10      3.17   0.00          0.00  1.  0.00  0.    7.05 1.0000
  -3   4  11    392.83   0.00          0.00  1.  0.00  0.   32.11 1.0000
  -3   4  12    -11.70   0.00          0.00  1.  0.00  0.   15.12 1.0000
  -3   5  -5    354.57   0.00          0.00  1.  0.00  0.   23.73 1.0000
  -3   5  -5    368.64   0.00          0.00  1.  0.00  0.   24.96 1.0000
  -3   5  -4    216.38   0.00          0.00  1.  0.00  0.   16.48 1.0000
  -3   5  -4    205.06   0.00          0.00  1.  0.00  0.   16.90 1.0000
  -3   5  -3     67.57   0.00          0.00  1.  0.00  0.    9.70 1.0000
  -3   5  -3     58.06   0.00          0.00  1.  0.00  0.    8.84 1.0000
  -3   5  -2     55.50   0.00          0.00  1.  0.00  0.    7.90 1.0000
  -3   5  -2     47.20   0.00          0.00  1.  0.00  0.    8.11 1.0000
  -3   5   1    432.22   0.00          0.00  1.  0.00  0.   22.45 1.0000
  -3   5   3    572.17   0.00          0.00  1.  0.00  0.   35.40 1.0000
  -3   5   4    258.57   0.00          0.00  1.  0.00  0.   17.69 1.0000
  -3   5   4    245.55   0.00          0.00  1.  0.00  0.   17.55 1.0000
  -3   5   4    252.49   0.00          0.00  1.  0.00  0.   19.70 1.0000
  -3   5   4    239.01   0.00          0.00  1.  0.00  0.   22.88 1.0000
  -3   5   6    270.27   0.00          0.00  1.  0.00  0.   20.71 1.0000
  -3   5   6    252.49   0.00          0.00  1.  0.00  0.   19.70 1.0000
  -3   5   6    218.45   0.00          0.00  1.  0.00  0.   22.76 1.0000
  -3   5   6    230.74   0.00          0.00  1.  0.00  0.   17.32 1.0000
  -3   5   9    226.80   0.00          0.00  1.  0.00  0.   23.49 1.0000
  -3   5   9    269.29   0.00          0.00  1.  0.00  0.   23.63 1.0000
  -3   5  10    127.01   0.00          0.00  1.  0.00  0.   18.48 1.0000
  -3   5  10     97.61   0.00          0.00  1.  0.00  0.   16.20 1.0000
  -3   6  -7    185.50   0.00          0.00  1.  0.00  0.   19.61 1.0000
  -3   6  -5     34.22   0.00          0.00  1.  0.00  0.    8.77 1.0000
  -3   6  -3    351.19   0.00          0.00  1.  0.00  0.   22.11 1.0000
  -3   6  -3    340.03   0.00          0.00  1.  0.00  0.   21.39 1.0000
  -3   6   3    388.88   0.00          0.00  1.  0.00  0.   30.37 1.0000
  -3   6   3    395.21   0.00          0.00  1.  0.00  0.   29.02 1.0000
  -3   6   3    397.60   0.00          0.00  1.  0.00  0.   23.13 1.0000
  -3   6   3    426.42   0.00          0.00  1.  0.00  0.   23.95 1.0000
  -3   6   5    178.49   0.00          0.00  1.  0.00  0.   16.30 1.0000
  -3   6   5    196.00   0.00          0.00  1.  0.00  0.   15.12 1.0000
  -3   6   5    139.71   0.00          0.00  1.  0.00  0.   19.86 1.0000
  -3   6   5    196.28   0.00          0.00  1.  0.00  0.   15.69 1.0000
  -3   6   6     80.46   0.00          0.00  1.  0.00  0.   16.50 1.0000
  -3   6   6     88.36   0.00          0.00  1.  0.00  0.   11.28 1.0000
  -3   6   6     80.10   0.00          0.00  1.  0.00  0.   10.38 1.0000
  -3   6   7    273.90   0.00          0.00  1.  0.00  0.   21.18 1.0000
  -3   6   7    235.62   0.00          0.00  1.  0.00  0.   24.56 1.0000
  -3   6   7    217.27   0.00          0.00  1.  0.00  0.   17.10 1.0000
  -3   6   7    223.80   0.00          0.00  1.  0.00  0.   19.15 1.0000
  -3   6   9    211.41   0.00          0.00  1.  0.00  0.   21.23 1.0000
  -3   7  -6      0.04   0.00          0.00  1.  0.00  0.    8.45 1.0000
  -3   7  -5      4.97   0.00          0.00  1.  0.00  0.    7.36 1.0000
  -3   7  -4    171.35   0.00          0.00  1.  0.00  0.   14.66 1.0000
  -3   7  -4    150.55   0.00          0.00  1.  0.00  0.   13.74 1.0000
  -3   7  -2    801.46   0.00          0.00  1.  0.00  0.   40.77 1.0000
  -3   7  -2    803.72   0.00          0.00  1.  0.00  0.   40.82 1.0000
  -3   7  -1    457.53   0.00          0.00  1.  0.00  0.   25.67 1.0000
  -3   7  -1    479.17   0.00          0.00  1.  0.00  0.   25.83 1.0000
  -3   7   0    277.56   0.00          0.00  1.  0.00  0.   26.99 1.0000
  -3   7   0    302.06   0.00          0.00  1.  0.00  0.   17.03 1.0000
  -3   7   0    287.30   0.00          0.00  1.  0.00  0.   16.61 1.0000
  -3   7   1    358.34   0.00          0.00  1.  0.00  0.   29.91 1.0000
  -3   7   1    353.06   0.00          0.00  1.  0.00  0.   20.67 1.0000
  -3   7   1    347.08   0.00          0.00  1.  0.00  0.   20.49 1.0000
  -3   7   3    852.64   0.00          0.00  1.  0.00  0.   41.46 1.0000
  -3   7   3    843.90   0.00          0.00  1.  0.00  0.   50.55 1.0000
  -3   7   3    781.76   0.00          0.00  1.  0.00  0.   40.82 1.0000
  -3   7   5    288.66   0.00          0.00  1.  0.00  0.   19.03 1.0000
  -3   7   5    291.38   0.00          0.00  1.  0.00  0.   22.87 1.0000
  -3   7   5    303.11   0.00          0.00  1.  0.00  0.   20.20 1.0000
  -3   7   6    153.26   0.00          0.00  1.  0.00  0.   17.33 1.0000
  -3   7   6    200.79   0.00          0.00  1.  0.00  0.   17.00 1.0000
  -3   7   7    251.22   0.00          0.00  1.  0.00  0.   20.60 1.0000
  -3   8   5     73.27   0.00          0.00  1.  0.00  0.   12.67 1.0000
  -2  -8 -10    133.40   0.00          0.00  1.  0.00  0.   13.17 1.0000
  -2  -8  -9     71.23   0.00          0.00  1.  0.00  0.    8.95 1.0000
  -2  -8  -8    113.42   0.00          0.00  1.  0.00  0.    9.37 1.0000
  -2  -8   4    397.20   0.00          0.00  1.  0.00  0.   23.12 1.0000
  -2  -7 -12      9.67   0.00          0.00  1.  0.00  0.   11.26 1.0000
  -2  -7 -11    128.37   0.00          0.00  1.  0.00  0.   15.18 1.0000
  -2  -7 -10    176.89   0.00          0.00  1.  0.00  0.   19.15 1.0000
  -2  -7 -10    154.75   0.00          0.00  1.  0.00  0.   15.92 1.0000
  -2  -7  -9    123.43   0.00          0.00  1.  0.00  0.   16.89 1.0000
  -2  -7  -9     85.01   0.00          0.00  1.  0.00  0.   11.43 1.0000
  -2  -7  -8   1199.93   0.00          0.00  1.  0.00  0.   63.04 1.0000
  -2  -7  -8   1296.00   0.00          0.00  1.  0.00  0.   63.36 1.0000
  -2  -7  -8   1347.62   0.00          0.00  1.  0.00  0.   73.42 1.0000
  -2  -7  -7    450.71   0.00          0.00  1.  0.00  0.   26.33 1.0000
  -2  -7  -7    497.29   0.00          0.00  1.  0.00  0.   35.23 1.0000
  -2  -7  -6    380.25   0.00          0.00  1.  0.00  0.   32.37 1.0000
  -2  -7   4    576.00   0.00          0.00  1.  0.00  0.   33.12 1.0000
  -2  -6 -13    560.27   0.00          0.00  1.  0.00  0.   38.82 1.0000
  -2  -6 -12    222.61   0.00          0.00  1.  0.00  0.   22.68 1.0000
  -2  -6 -11      2.46   0.00          0.00  1.  0.00  0.    7.60 1.0000
  -2  -6  -9    173.71   0.00          0.00  1.  0.00  0.   16.08 1.0000
  -2  -6  -9    206.78   0.00          0.00  1.  0.00  0.   17.26 1.0000
  -2  -6  -9    168.74   0.00          0.00  1.  0.00  0.   17.93 1.0000
  -2  -6  -6    102.01   0.00          0.00  1.  0.00  0.    9.29 1.0000
  -2  -6  -6     96.63   0.00          0.00  1.  0.00  0.    9.44 1.0000
  -2  -6  -6    127.46   0.00          0.00  1.  0.00  0.   14.90 1.0000
  -2  -6  -5    179.56   0.00          0.00  1.  0.00  0.   11.26 1.0000
  -2  -6  -5    166.93   0.00          0.00  1.  0.00  0.   18.60 1.0000
  -2  -6   2    316.13   0.00          0.00  1.  0.00  0.   18.85 1.0000
  -2  -6   2    357.97   0.00          0.00  1.  0.00  0.   20.06 1.0000
  -2  -6   5   1438.68   0.00          0.00  1.  0.00  0.   72.07 1.0000
  -2  -6   5   1456.95   0.00          0.00  1.  0.00  0.   71.76 1.0000
  -2  -6   5   1476.86   0.00          0.00  1.  0.00  0.   81.47 1.0000
  -2  -6   6    388.48   0.00          0.00  1.  0.00  0.   25.23 1.0000
  -2  -5 -14     47.33   0.00          0.00  1.  0.00  0.   17.06 1.0000
  -2  -5 -13    243.36   0.00          0.00  1.  0.00  0.   24.96 1.0000
  -2  -5 -12    522.58   0.00          0.00  1.  0.00  0.   35.20 1.0000
  -2  -5 -12    517.56   0.00          0.00  1.  0.00  0.   31.40 1.0000
  -2  -5 -10   1544.49   0.00          0.00  1.  0.00  0.   77.81 1.0000
  -2  -5 -10   1521.00   0.00          0.00  1.  0.00  0.   77.22 1.0000
  -2  -5 -10   1496.92   0.00          0.00  1.  0.00  0.   78.15 1.0000
  -2  -5  -9    915.06   0.00          0.00  1.  0.00  0.   49.01 1.0000
  -2  -5  -9    891.62   0.00          0.00  1.  0.00  0.   50.16 1.0000
  -2  -5  -9    896.40   0.00          0.00  1.  0.00  0.   49.10 1.0000
  -2  -5  -6     51.55   0.00          0.00  1.  0.00  0.    9.76 1.0000
  -2  -5  -6     43.69   0.00          0.00  1.  0.00  0.    8.06 1.0000
  -2  -5  -6     55.80   0.00          0.00  1.  0.00  0.    7.92 1.0000
  -2  -5   0    628.50   0.00          0.00  1.  0.00  0.   30.08 1.0000
  -2  -5   0    632.02   0.00          0.00  1.  0.00  0.   39.22 1.0000
  -2  -5   7    102.21   0.00          0.00  1.  0.00  0.   14.56 1.0000
  -2  -5   7    102.41   0.00          0.00  1.  0.00  0.   14.37 1.0000
  -2  -5   7     81.18   0.00          0.00  1.  0.00  0.   14.24 1.0000
  -2  -4 -14    135.96   0.00          0.00  1.  0.00  0.   18.89 1.0000
  -2  -4 -13    176.09   0.00          0.00  1.  0.00  0.   20.17 1.0000
  -2  -4 -13    183.33   0.00          0.00  1.  0.00  0.   22.48 1.0000
  -2  -4 -12    540.10   0.00          0.00  1.  0.00  0.   37.18 1.0000
  -2  -4 -12    548.03   0.00          0.00  1.  0.00  0.   31.37 1.0000
  -2  -4 -12    547.09   0.00          0.00  1.  0.00  0.   36.96 1.0000
  -2  -4 -11    400.00   0.00          0.00  1.  0.00  0.   24.80 1.0000
  -2  -4 -11    398.80   0.00          0.00  1.  0.00  0.   28.36 1.0000
  -2  -4 -11    421.89   0.00          0.00  1.  0.00  0.   28.76 1.0000
  -2  -4 -10    412.50   0.00          0.00  1.  0.00  0.   29.25 1.0000
  -2  -4 -10    421.48   0.00          0.00  1.  0.00  0.   29.15 1.0000
  -2  -4 -10    433.89   0.00          0.00  1.  0.00  0.   26.66 1.0000
  -2  -4   7     16.08   0.00          0.00  1.  0.00  0.    8.50 1.0000
  -2  -4   7     13.91   0.00          0.00  1.  0.00  0.   10.52 1.0000
  -2  -4   7     -6.81   0.00          0.00  1.  0.00  0.   12.21 1.0000
  -2  -4   7     -2.62   0.00          0.00  1.  0.00  0.   10.47 1.0000
  -2  -4   8      7.29   0.00          0.00  1.  0.00  0.    8.69 1.0000
  -2  -4   8     -3.76   0.00          0.00  1.  0.00  0.    7.88 1.0000
  -2  -4   9    132.94   0.00          0.00  1.  0.00  0.   16.83 1.0000
  -2  -4   9    136.89   0.00          0.00  1.  0.00  0.   16.38 1.0000
  -2  -4   9    132.25   0.00          0.00  1.  0.00  0.   18.17 1.0000
  -2  -4  10    320.05   0.00          0.00  1.  0.00  0.   26.12 1.0000
  -2  -4  10    324.36   0.00          0.00  1.  0.00  0.   27.38 1.0000
  -2  -3 -14    413.31   0.00          0.00  1.  0.00  0.   34.15 1.0000
  -2  -3 -13    786.80   0.00          0.00  1.  0.00  0.   49.37 1.0000
  -2  -3 -13    717.70   0.00          0.00  1.  0.00  0.   40.19 1.0000
  -2  -3 -13    791.30   0.00          0.00  1.  0.00  0.   48.38 1.0000
  -2  -3 -12    563.59   0.00          0.00  1.  0.00  0.   37.51 1.0000
  -2  -3 -12    565.96   0.00          0.00  1.  0.00  0.   38.54 1.0000
  -2  -3 -12    552.72   0.00          0.00  1.  0.00  0.   31.50 1.0000
  -2  -3 -11     -0.62   0.00          0.00  1.  0.00  0.   11.64 1.0000
  -2  -3 -11     36.60   0.00          0.00  1.  0.00  0.   12.10 1.0000
  -2  -3 -11     13.47   0.00          0.00  1.  0.00  0.    6.31 1.0000
  -2  -3  -4   2299.20   0.00          0.00  1.  0.00  0.  134.26 1.0000
  -2  -3  -4   2348.37   0.00          0.00  1.  0.00  0.  126.00 1.0000
  -2  -3   0   5105.10   0.00          0.00  1.  0.00  0.  247.22 1.0000
  -2  -3   0   5257.70   0.00          0.00  1.  0.00  0.  232.03 1.0000
  -2  -3   0   5068.02   0.00          0.00  1.  0.00  0.  232.08 1.0000
  -2  -3   1   2019.60   0.00          0.00  1.  0.00  0.   93.48 1.0000
  -2  -3   1   1997.20   0.00          0.00  1.  0.00  0.  101.00 1.0000
  -2  -3   1   2064.79   0.00          0.00  1.  0.00  0.   93.61 1.0000
  -2  -3   2   2516.03   0.00          0.00  1.  0.00  0.  127.41 1.0000
  -2  -3   2   2605.08   0.00          0.00  1.  0.00  0.  125.56 1.0000
  -2  -3   2   2564.41   0.00          0.00  1.  0.00  0.  117.48 1.0000
  -2  -3   2   2586.74   0.00          0.00  1.  0.00  0.  116.98 1.0000
  -2  -3   3    698.02   0.00          0.00  1.  0.00  0.   39.10 1.0000
  -2  -3   3    662.03   0.00          0.00  1.  0.00  0.   36.54 1.0000
  -2  -3   3    663.58   0.00          0.00  1.  0.00  0.   36.58 1.0000
  -2  -3   3    710.76   0.00          0.00  1.  0.00  0.   40.52 1.0000
  -2  -3   5     73.27   0.00          0.00  1.  0.00  0.   11.64 1.0000
  -2  -3   5     89.11   0.00          0.00  1.  0.00  0.   10.76 1.0000
  -2  -3   5     88.17   0.00          0.00  1.  0.00  0.   12.58 1.0000
  -2  -3   5     82.45   0.00          0.00  1.  0.00  0.   12.71 1.0000
  -2  -3   6   1403.25   0.00          0.00  1.  0.00  0.   69.68 1.0000
  -2  -3   6   1456.95   0.00          0.00  1.  0.00  0.   69.47 1.0000
  -2  -3   6   1348.36   0.00          0.00  1.  0.00  0.   70.50 1.0000
  -2  -3   6   1415.26   0.00          0.00  1.  0.00  0.   72.23 1.0000
  -2  -3   8    436.81   0.00          0.00  1.  0.00  0.   32.60 1.0000
  -2  -3   8    451.14   0.00          0.00  1.  0.00  0.   31.86 1.0000
  -2  -3   8    489.74   0.00          0.00  1.  0.00  0.   33.64 1.0000
  -2  -3   9    252.17   0.00          0.00  1.  0.00  0.   24.14 1.0000
  -2  -3   9    209.96   0.00          0.00  1.  0.00  0.   22.60 1.0000
  -2  -3  10    112.57   0.00          0.00  1.  0.00  0.   18.46 1.0000
  -2  -3  10    119.03   0.00          0.00  1.  0.00  0.   18.77 1.0000
  -2  -2 -15     37.45   0.00          0.00  1.  0.00  0.   17.87 1.0000
  -2  -2 -14    107.12   0.00          0.00  1.  0.00  0.   19.46 1.0000
  -2  -2 -13    223.80   0.00          0.00  1.  0.00  0.   24.53 1.0000
  -2  -2 -13    245.24   0.00          0.00  1.  0.00  0.   25.06 1.0000
  -2  -2 -11    221.41   0.00          0.00  1.  0.00  0.   22.02 1.0000
  -2  -2 -11    229.83   0.00          0.00  1.  0.00  0.   20.92 1.0000
  -2  -2 -10      8.82   0.00          0.00  1.  0.00  0.    8.79 1.0000
  -2  -2  -6    723.61   0.00          0.00  1.  0.00  0.   34.97 1.0000
  -2  -2  -6    720.39   0.00          0.00  1.  0.00  0.   35.43 1.0000
  -2  -2   1   1919.32   0.00          0.00  1.  0.00  0.   88.50 1.0000
  -2  -2   1   1907.07   0.00          0.00  1.  0.00  0.   88.21 1.0000
  -2  -2   1   1967.81   0.00          0.00  1.  0.00  0.   94.04 1.0000
  -2  -2   3   2164.11   0.00          0.00  1.  0.00  0.  101.41 1.0000
  -2  -2   3   2152.96   0.00          0.00  1.  0.00  0.  103.01 1.0000
  -2  -2   3   2232.56   0.00          0.00  1.  0.00  0.  101.12 1.0000
  -2  -2   3   2118.76   0.00          0.00  1.  0.00  0.  107.71 1.0000
  -2  -2   3   2171.56   0.00          0.00  1.  0.00  0.  105.32 1.0000
  -2  -2   8    352.31   0.00          0.00  1.  0.00  0.   25.90 1.0000
  -2  -2   8    390.06   0.00          0.00  1.  0.00  0.   28.84 1.0000
  -2  -2   8    336.72   0.00          0.00  1.  0.00  0.   27.89 1.0000
  -2  -1 -15      2.69   0.00          0.00  1.  0.00  0.   15.12 1.0000
  -2  -1 -13    140.19   0.00          0.00  1.  0.00  0.   20.13 1.0000
  -2  -1 -12    316.48   0.00          0.00  1.  0.00  0.   27.04 1.0000
  -2  -1 -12    350.81   0.00          0.00  1.  0.00  0.   27.72 1.0000
  -2  -1 -10    268.63   0.00          0.00  1.  0.00  0.   22.95 1.0000
  -2  -1 -10    291.38   0.00          0.00  1.  0.00  0.   24.92 1.0000
  -2  -1  -7   1041.35   0.00          0.00  1.  0.00  0.   52.92 1.0000
  -2  -1  -7   1169.64   0.00          0.00  1.  0.00  0.   53.35 1.0000
  -2  -1   6   1152.60   0.00          0.00  1.  0.00  0.   63.15 1.0000
  -2  -1   6   1203.40   0.00          0.00  1.  0.00  0.   62.44 1.0000
  -2  -1   6   1188.87   0.00          0.00  1.  0.00  0.   63.44 1.0000
  -2  -1   7    419.02   0.00          0.00  1.  0.00  0.   31.52 1.0000
  -2  -1   7    461.82   0.00          0.00  1.  0.00  0.   31.81 1.0000
  -2  -1   7    440.16   0.00          0.00  1.  0.00  0.   31.05 1.0000
  -2  -1   8    336.72   0.00          0.00  1.  0.00  0.   27.89 1.0000
  -2  -1   8    361.76   0.00          0.00  1.  0.00  0.   28.91 1.0000
  -2  -1   8    339.66   0.00          0.00  1.  0.00  0.   27.28 1.0000
  -2  -1   9    195.16   0.00          0.00  1.  0.00  0.   20.12 1.0000
  -2  -1   9    195.16   0.00          0.00  1.  0.00  0.   19.00 1.0000
  -2  -1   9    200.51   0.00          0.00  1.  0.00  0.   20.96 1.0000
  -2  -1  12    321.13   0.00          0.00  1.  0.00  0.   31.18 1.0000
  -2  -1  13    110.88   0.00          0.00  1.  0.00  0.   22.53 1.0000
  -2   0 -14    108.16   0.00          0.00  1.  0.00  0.   17.89 1.0000
  -2   0 -13    109.62   0.00          0.00  1.  0.00  0.   19.47 1.0000
  -2   0 -12    507.15   0.00          0.00  1.  0.00  0.   35.58 1.0000
  -2   0 -12    479.17   0.00          0.00  1.  0.00  0.   34.59 1.0000
  -2   0 -11    536.39   0.00          0.00  1.  0.00  0.   36.59 1.0000
  -2   0 -11    531.30   0.00          0.00  1.  0.00  0.   36.88 1.0000
  -2   0 -10    857.90   0.00          0.00  1.  0.00  0.   51.55 1.0000
  -2   0 -10    895.80   0.00          0.00  1.  0.00  0.   50.88 1.0000
  -2   0  -9   1609.61   0.00          0.00  1.  0.00  0.   81.04 1.0000
  -2   0  -9   1594.40   0.00          0.00  1.  0.00  0.   81.46 1.0000
  -2   0  -8   1596.00   0.00          0.00  1.  0.00  0.   79.90 1.0000
  -2   0  -8   1584.04   0.00          0.00  1.  0.00  0.   80.40 1.0000
  -2   0  -7    809.97   0.00          0.00  1.  0.00  0.   44.97 1.0000
  -2   0  -7    824.84   0.00          0.00  1.  0.00  0.   44.80 1.0000
  -2   0  -6   1406.25   0.00          0.00  1.  0.00  0.   69.00 1.0000
  -2   0  -6   1376.41   0.00          0.00  1.  0.00  0.   69.01 1.0000
  -2   0  -5    356.83   0.00          0.00  1.  0.00  0.   21.53 1.0000
  -2   0  -5    299.29   0.00          0.00  1.  0.00  0.   20.07 1.0000
  -2   0  -4    589.52   0.00          0.00  1.  0.00  0.   31.56 1.0000
  -2   0  -4    572.17   0.00          0.00  1.  0.00  0.   31.10 1.0000
  -2   0  -3    956.05   0.00          0.00  1.  0.00  0.   47.00 1.0000
  -2   0  -3    956.66   0.00          0.00  1.  0.00  0.   47.01 1.0000
  -2   0  -2   3078.03   0.00          0.00  1.  0.00  0.  137.59 1.0000
  -2   0  -2   3038.21   0.00          0.00  1.  0.00  0.  137.80 1.0000
  -2   0  -1   1697.44   0.00          0.00  1.  0.00  0.   77.46 1.0000
  -2   0  -1   1712.30   0.00          0.00  1.  0.00  0.   77.79 1.0000
  -2   0   0    533.15   0.00          0.00  1.  0.00  0.   26.32 1.0000
  -2   0   0    493.73   0.00          0.00  1.  0.00  0.   26.22 1.0000
  -2   0   1    570.25   0.00          0.00  1.  0.00  0.   29.61 1.0000
  -2   0   1    560.27   0.00          0.00  1.  0.00  0.   29.35 1.0000
  -2   0   2   2809.00   0.00          0.00  1.  0.00  0.  127.20 1.0000
  -2   0   2   2752.05   0.00          0.00  1.  0.00  0.  126.95 1.0000
  -2   0   3   1714.79   0.00          0.00  1.  0.00  0.   79.51 1.0000
  -2   0   3   1674.45   0.00          0.00  1.  0.00  0.   78.57 1.0000
  -2   0   3   1646.74   0.00          0.00  1.  0.00  0.   79.54 1.0000
  -2   0   4   1823.29   0.00          0.00  1.  0.00  0.   87.96 1.0000
  -2   0   4   1892.25   0.00          0.00  1.  0.00  0.   87.87 1.0000
  -2   0   4   1859.33   0.00          0.00  1.  0.00  0.   87.10 1.0000
  -2   0   4   1898.34   0.00          0.00  1.  0.00  0.   88.01 1.0000
  -2   0   5    913.85   0.00          0.00  1.  0.00  0.   45.35 1.0000
  -2   0   5    951.72   0.00          0.00  1.  0.00  0.   48.74 1.0000
  -2   0   5    962.86   0.00          0.00  1.  0.00  0.   49.03 1.0000
  -2   0   5    954.19   0.00          0.00  1.  0.00  0.   50.04 1.0000
  -2   0   6   1324.23   0.00          0.00  1.  0.00  0.   67.69 1.0000
  -2   0   6   1410.00   0.00          0.00  1.  0.00  0.   68.34 1.0000
  -2   0   6   1342.49   0.00          0.00  1.  0.00  0.   67.42 1.0000
  -2   0   7    863.77   0.00          0.00  1.  0.00  0.   47.61 1.0000
  -2   0   7    846.81   0.00          0.00  1.  0.00  0.   47.14 1.0000
  -2   0   7    859.66   0.00          0.00  1.  0.00  0.   48.67 1.0000
  -2   0   8      3.92   0.00          0.00  1.  0.00  0.    8.63 1.0000
  -2   0   8     10.37   0.00          0.00  1.  0.00  0.    9.72 1.0000
  -2   0   8      9.36   0.00          0.00  1.  0.00  0.   10.04 1.0000
  -2   0   9    731.16   0.00          0.00  1.  0.00  0.   45.43 1.0000
  -2   0   9    722.00   0.00          0.00  1.  0.00  0.   44.60 1.0000
  -2   0   9    755.15   0.00          0.00  1.  0.00  0.   45.07 1.0000
  -2   0  10     24.11   0.00          0.00  1.  0.00  0.   10.61 1.0000
  -2   0  10      5.86   0.00          0.00  1.  0.00  0.   11.62 1.0000
  -2   0  11    394.82   0.00          0.00  1.  0.00  0.   32.98 1.0000
  -2   0  12    122.77   0.00          0.00  1.  0.00  0.   18.39 1.0000
  -2   0  13    -17.47   0.00          0.00  1.  0.00  0.   16.39 1.0000
  -2   1 -11    648.72   0.00          0.00  1.  0.00  0.   41.26 1.0000
  -2   1 -11    661.00   0.00          0.00  1.  0.00  0.   42.68 1.0000
  -2   1 -10    317.91   0.00          0.00  1.  0.00  0.   24.25 1.0000
  -2   1 -10    260.50   0.00          0.00  1.  0.00  0.   22.27 1.0000
  -2   1  -8    487.53   0.00          0.00  1.  0.00  0.   31.80 1.0000
  -2   1  -8    515.29   0.00          0.00  1.  0.00  0.   32.69 1.0000
  -2   1  -7    904.81   0.00          0.00  1.  0.00  0.   51.74 1.0000
  -2   1  -7    912.04   0.00          0.00  1.  0.00  0.   51.94 1.0000
  -2   1   6   1264.51   0.00          0.00  1.  0.00  0.   61.16 1.0000
  -2   1   6   1283.79   0.00          0.00  1.  0.00  0.   62.34 1.0000
  -2   1   6   1301.04   0.00          0.00  1.  0.00  0.   63.48 1.0000
  -2   1   7    518.02   0.00          0.00  1.  0.00  0.   30.50 1.0000
  -2   1   7    580.33   0.00          0.00  1.  0.00  0.   33.24 1.0000
  -2   1   8    433.47   0.00          0.00  1.  0.00  0.   29.98 1.0000
  -2   1   8    449.02   0.00          0.00  1.  0.00  0.   27.55 1.0000
  -2   1   8    446.48   0.00          0.00  1.  0.00  0.   29.16 1.0000
  -2   1   9    142.56   0.00          0.00  1.  0.00  0.   16.95 1.0000
  -2   1   9    169.00   0.00          0.00  1.  0.00  0.   19.76 1.0000
  -2   1   9    181.71   0.00          0.00  1.  0.00  0.   19.41 1.0000
  -2   1  12    435.14   0.00          0.00  1.  0.00  0.   33.79 1.0000
  -2   1  13    175.56   0.00          0.00  1.  0.00  0.   24.11 1.0000
  -2   2 -14     66.91   0.00          0.00  1.  0.00  0.   15.54 1.0000
  -2   2 -10     27.88   0.00          0.00  1.  0.00  0.    9.50 1.0000
  -2   2 -10     13.47   0.00          0.00  1.  0.00  0.    8.88 1.0000
  -2   2  -6    581.29   0.00          0.00  1.  0.00  0.   36.65 1.0000
  -2   2  -6    560.27   0.00          0.00  1.  0.00  0.   35.03 1.0000
  -2   2  -6    580.33   0.00          0.00  1.  0.00  0.   34.69 1.0000
  -2   2  -4   1071.91   0.00          0.00  1.  0.00  0.   51.73 1.0000
  -2   2  -4    996.03   0.00          0.00  1.  0.00  0.   51.13 1.0000
  -2   2  10    359.48   0.00          0.00  1.  0.00  0.   27.30 1.0000
  -2   2  10    397.20   0.00          0.00  1.  0.00  0.   31.09 1.0000
  -2   2  10    381.03   0.00          0.00  1.  0.00  0.   28.89 1.0000
  -2   2  12    323.64   0.00          0.00  1.  0.00  0.   27.34 1.0000
  -2   2  12    321.84   0.00          0.00  1.  0.00  0.   30.50 1.0000
  -2   2  13    140.90   0.00          0.00  1.  0.00  0.   20.42 1.0000
  -2   3  -9    271.92   0.00          0.00  1.  0.00  0.   25.06 1.0000
  -2   3  -9    232.87   0.00          0.00  1.  0.00  0.   21.67 1.0000
  -2   3  -9    259.21   0.00          0.00  1.  0.00  0.   21.90 1.0000
  -2   3  -8    130.42   0.00          0.00  1.  0.00  0.   15.76 1.0000
  -2   3  -8    143.52   0.00          0.00  1.  0.00  0.   18.69 1.0000
  -2   3  -8    150.80   0.00          0.00  1.  0.00  0.   17.19 1.0000
  -2   3  -6    604.18   0.00          0.00  1.  0.00  0.   36.87 1.0000
  -2   3  -6    591.95   0.00          0.00  1.  0.00  0.   35.04 1.0000
  -2   3  -6    567.39   0.00          0.00  1.  0.00  0.   34.78 1.0000
  -2   3  -5    497.74   0.00          0.00  1.  0.00  0.   31.23 1.0000
  -2   3  -5    486.64   0.00          0.00  1.  0.00  0.   29.56 1.0000
  -2   3  -5    505.80   0.00          0.00  1.  0.00  0.   29.24 1.0000
  -2   3  -4   2963.71   0.00          0.00  1.  0.00  0.  128.48 1.0000
  -2   3  -4   3101.38   0.00          0.00  1.  0.00  0.  130.31 1.0000
  -2   3  -4   2948.49   0.00          0.00  1.  0.00  0.  128.15 1.0000
  -2   3  -2   2002.56   0.00          0.00  1.  0.00  0.   92.18 1.0000
  -2   3  -2   1968.70   0.00          0.00  1.  0.00  0.   91.40 1.0000
  -2   3  -2   1975.80   0.00          0.00  1.  0.00  0.   91.57 1.0000
  -2   3  -1   1324.96   0.00          0.00  1.  0.00  0.   61.15 1.0000
  -2   3  -1   1316.24   0.00          0.00  1.  0.00  0.   60.95 1.0000
  -2   3   0   5478.96   0.00          0.00  1.  0.00  0.  232.42 1.0000
  -2   3   0   5762.33   0.00          0.00  1.  0.00  0.  233.80 1.0000
  -2   3   0   5393.43   0.00          0.00  1.  0.00  0.  258.51 1.0000
  -2   3   3    885.66   0.00          0.00  1.  0.00  0.   41.07 1.0000
  -2   3   6   1324.23   0.00          0.00  1.  0.00  0.   66.96 1.0000
  -2   3   6   1304.65   0.00          0.00  1.  0.00  0.   64.29 1.0000
  -2   3   6   1225.70   0.00          0.00  1.  0.00  0.   63.72 1.0000
  -2   3   6   1243.27   0.00          0.00  1.  0.00  0.   66.99 1.0000
  -2   3  10     99.60   0.00          0.00  1.  0.00  0.   13.17 1.0000
  -2   3  10    121.22   0.00          0.00  1.  0.00  0.   17.18 1.0000
  -2   3  10    131.79   0.00          0.00  1.  0.00  0.   18.14 1.0000
  -2   3  11    323.64   0.00          0.00  1.  0.00  0.   29.14 1.0000
  -2   3  11    332.33   0.00          0.00  1.  0.00  0.   25.16 1.0000
  -2   3  12    201.36   0.00          0.00  1.  0.00  0.   20.15 1.0000
  -2   3  12    192.93   0.00          0.00  1.  0.00  0.   23.89 1.0000
  -2   3  13     50.69   0.00          0.00  1.  0.00  0.   16.09 1.0000
  -2   4 -11    319.34   0.00          0.00  1.  0.00  0.   29.66 1.0000
  -2   4 -11    371.72   0.00          0.00  1.  0.00  0.   32.00 1.0000
  -2   4  -8    347.08   0.00          0.00  1.  0.00  0.   25.34 1.0000
  -2   4  -8    304.15   0.00          0.00  1.  0.00  0.   24.42 1.0000
  -2   4  -8    312.94   0.00          0.00  1.  0.00  0.   27.60 1.0000
  -2   4  -6    311.17   0.00          0.00  1.  0.00  0.   25.05 1.0000
  -2   4  -6    313.64   0.00          0.00  1.  0.00  0.   21.96 1.0000
  -2   4  -6    311.17   0.00          0.00  1.  0.00  0.   22.58 1.0000
  -2   4  -5   1262.38   0.00          0.00  1.  0.00  0.   63.24 1.0000
  -2   4  -5   1269.50   0.00          0.00  1.  0.00  0.   65.56 1.0000
  -2   4  -5   1294.56   0.00          0.00  1.  0.00  0.   63.32 1.0000
  -2   4  -4    513.48   0.00          0.00  1.  0.00  0.   31.27 1.0000
  -2   4  -4    536.39   0.00          0.00  1.  0.00  0.   29.64 1.0000
  -2   4  -4    544.76   0.00          0.00  1.  0.00  0.   29.41 1.0000
  -2   4  -3   4072.99   0.00          0.00  1.  0.00  0.  187.63 1.0000
  -2   4  -3   4041.14   0.00          0.00  1.  0.00  0.  184.35 1.0000
  -2   4  -3   4051.32   0.00          0.00  1.  0.00  0.  184.59 1.0000
  -2   4  -2    658.95   0.00          0.00  1.  0.00  0.   33.37 1.0000
  -2   4  -2    668.22   0.00          0.00  1.  0.00  0.   33.60 1.0000
  -2   4  -2    652.29   0.00          0.00  1.  0.00  0.   34.22 1.0000
  -2   4   0   1315.51   0.00          0.00  1.  0.00  0.   59.48 1.0000
  -2   4   0   1271.64   0.00          0.00  1.  0.00  0.   59.20 1.0000
  -2   4   0   1214.52   0.00          0.00  1.  0.00  0.   69.00 1.0000
  -2   4   6     43.82   0.00          0.00  1.  0.00  0.    9.27 1.0000
  -2   4   6     33.64   0.00          0.00  1.  0.00  0.    9.28 1.0000
  -2   4   7      6.30   0.00          0.00  1.  0.00  0.    6.22 1.0000
  -2   4   7      8.70   0.00          0.00  1.  0.00  0.    4.66 1.0000
  -2   4   7      6.60   0.00          0.00  1.  0.00  0.    9.87 1.0000
  -2   4   8     -0.48   0.00          0.00  1.  0.00  0.    5.01 1.0000
  -2   4  11    373.65   0.00          0.00  1.  0.00  0.   29.38 1.0000
  -2   4  11    289.00   0.00          0.00  1.  0.00  0.   22.44 1.0000
  -2   4  12    507.15   0.00          0.00  1.  0.00  0.   37.38 1.0000
  -2   4  13    187.14   0.00          0.00  1.  0.00  0.   22.16 1.0000
  -2   5  -6     33.99   0.00          0.00  1.  0.00  0.   11.54 1.0000
  -2   5  -5    510.76   0.00          0.00  1.  0.00  0.   30.74 1.0000
  -2   5  -5    545.69   0.00          0.00  1.  0.00  0.   30.84 1.0000
  -2   5  -5    540.56   0.00          0.00  1.  0.00  0.   33.94 1.0000
  -2   5  -4    470.46   0.00          0.00  1.  0.00  0.   27.33 1.0000
  -2   5  -4    459.67   0.00          0.00  1.  0.00  0.   30.02 1.0000
  -2   5  -4    472.19   0.00          0.00  1.  0.00  0.   27.81 1.0000
  -2   5  -3   3744.22   0.00          0.00  1.  0.00  0.  171.33 1.0000
  -2   5  -3   3936.31   0.00          0.00  1.  0.00  0.  175.67 1.0000
  -2   5  -3   3836.56   0.00          0.00  1.  0.00  0.  172.19 1.0000
  -2   5  -2    599.27   0.00          0.00  1.  0.00  0.   30.84 1.0000
  -2   5  -2    624.50   0.00          0.00  1.  0.00  0.   32.99 1.0000
  -2   5  -2    599.27   0.00          0.00  1.  0.00  0.   30.84 1.0000
  -2   5   9    214.62   0.00          0.00  1.  0.00  0.   20.22 1.0000
  -2   5   9    193.49   0.00          0.00  1.  0.00  0.   22.81 1.0000
  -2   5   9    179.02   0.00          0.00  1.  0.00  0.   13.92 1.0000
  -2   5   9    173.98   0.00          0.00  1.  0.00  0.   17.41 1.0000
  -2   5  11     -1.39   0.00          0.00  1.  0.00  0.   12.27 1.0000
  -2   5  12     44.36   0.00          0.00  1.  0.00  0.   15.85 1.0000
  -2   6  -7    286.62   0.00          0.00  1.  0.00  0.   24.72 1.0000
  -2   6  -7    253.13   0.00          0.00  1.  0.00  0.   21.32 1.0000
  -2   6  -7    249.64   0.00          0.00  1.  0.00  0.   20.86 1.0000
  -2   6  -5    157.75   0.00          0.00  1.  0.00  0.   14.32 1.0000
  -2   6  -5    148.11   0.00          0.00  1.  0.00  0.   21.18 1.0000
  -2   6  -5    155.00   0.00          0.00  1.  0.00  0.   17.43 1.0000
  -2   6  -5    156.50   0.00          0.00  1.  0.00  0.   14.01 1.0000
  -2   6  -4     16.24   0.00          0.00  1.  0.00  0.    9.43 1.0000
  -2   6  -4     26.11   0.00          0.00  1.  0.00  0.    6.64 1.0000
  -2   6  -4     18.23   0.00          0.00  1.  0.00  0.    6.58 1.0000
  -2   6  -4      8.35   0.00          0.00  1.  0.00  0.   13.12 1.0000
  -2   6  -2      9.67   0.00          0.00  1.  0.00  0.   12.07 1.0000
  -2   6  -2     10.96   0.00          0.00  1.  0.00  0.    4.24 1.0000
  -2   6  -2      1.25   0.00          0.00  1.  0.00  0.    6.36 1.0000
  -2   6  -2      7.95   0.00          0.00  1.  0.00  0.    4.29 1.0000
  -2   6  -1    500.42   0.00          0.00  1.  0.00  0.   37.13 1.0000
  -2   6  -1    543.36   0.00          0.00  1.  0.00  0.   26.57 1.0000
  -2   6  -1    518.02   0.00          0.00  1.  0.00  0.   28.22 1.0000
  -2   6  -1    498.63   0.00          0.00  1.  0.00  0.   26.35 1.0000
  -2   6   0     88.74   0.00          0.00  1.  0.00  0.    7.72 1.0000
  -2   6   0     87.61   0.00          0.00  1.  0.00  0.    6.74 1.0000
  -2   6   0     87.98   0.00          0.00  1.  0.00  0.    6.75 1.0000
  -2   6   0    100.20   0.00          0.00  1.  0.00  0.   15.82 1.0000
  -2   6   6    301.37   0.00          0.00  1.  0.00  0.   21.53 1.0000
  -2   6   6    283.25   0.00          0.00  1.  0.00  0.   22.55 1.0000
  -2   6   6    289.34   0.00          0.00  1.  0.00  0.   27.90 1.0000
  -2   6   6    295.15   0.00          0.00  1.  0.00  0.   20.96 1.0000
  -2   6   7    687.49   0.00          0.00  1.  0.00  0.   37.76 1.0000
  -2   6   7    641.10   0.00          0.00  1.  0.00  0.   36.97 1.0000
  -2   6   7    650.25   0.00          0.00  1.  0.00  0.   37.23 1.0000
  -2   6   7    601.72   0.00          0.00  1.  0.00  0.   44.15 1.0000
  -2   6  10     56.70   0.00          0.00  1.  0.00  0.   13.70 1.0000
  -2   7  -6    451.14   0.00          0.00  1.  0.00  0.   28.04 1.0000
  -2   7  -6    463.54   0.00          0.00  1.  0.00  0.   32.73 1.0000
  -2   7  -5    317.91   0.00          0.00  1.  0.00  0.   24.61 1.0000
  -2   7  -5    271.26   0.00          0.00  1.  0.00  0.   19.76 1.0000
  -2   7  -4    414.94   0.00          0.00  1.  0.00  0.   24.04 1.0000
  -2   7  -4    400.00   0.00          0.00  1.  0.00  0.   23.60 1.0000
  -2   7  -4    396.81   0.00          0.00  1.  0.00  0.   27.09 1.0000
  -2   7  -3    320.41   0.00          0.00  1.  0.00  0.   22.20 1.0000
  -2   7  -3    305.55   0.00          0.00  1.  0.00  0.   18.18 1.0000
  -2   7  -3    304.85   0.00          0.00  1.  0.00  0.   18.16 1.0000
  -2   7   1    246.80   0.00          0.00  1.  0.00  0.   25.76 1.0000
  -2   7   1    252.49   0.00          0.00  1.  0.00  0.   24.15 1.0000
  -2   7   2    387.30   0.00          0.00  1.  0.00  0.   29.91 1.0000
  -2   7   2    396.41   0.00          0.00  1.  0.00  0.   33.05 1.0000
  -2   7   4    637.56   0.00          0.00  1.  0.00  0.   30.30 1.0000
  -2   7   4    664.61   0.00          0.00  1.  0.00  0.   39.19 1.0000
  -2   7   4    645.16   0.00          0.00  1.  0.00  0.   30.99 1.0000
  -2   7   4    596.82   0.00          0.00  1.  0.00  0.   43.49 1.0000
  -2   7   6    363.28   0.00          0.00  1.  0.00  0.   27.83 1.0000
  -2   7   6    422.71   0.00          0.00  1.  0.00  0.   24.26 1.0000
  -2   7   6    440.58   0.00          0.00  1.  0.00  0.   25.19 1.0000
  -2   7   8    393.23   0.00          0.00  1.  0.00  0.   27.37 1.0000
  -2   8  -6     88.36   0.00          0.00  1.  0.00  0.   16.54 1.0000
  -2   8  -5     54.46   0.00          0.00  1.  0.00  0.   13.28 1.0000
  -2   8   5     76.04   0.00          0.00  1.  0.00  0.   15.00 1.0000
  -2   8   6    341.88   0.00          0.00  1.  0.00  0.   27.74 1.0000
  -1  -8 -10    131.56   0.00          0.00  1.  0.00  0.   13.53 1.0000
  -1  -8  -9    382.98   0.00          0.00  1.  0.00  0.   22.70 1.0000
  -1  -8  -8    205.64   0.00          0.00  1.  0.00  0.   13.77 1.0000
  -1  -8   4    372.10   0.00          0.00  1.  0.00  0.   32.79 1.0000
  -1  -8   5    128.14   0.00          0.00  1.  0.00  0.   21.28 1.0000
  -1  -8   5    115.78   0.00          0.00  1.  0.00  0.   10.98 1.0000
  -1  -7 -12      9.86   0.00          0.00  1.  0.00  0.   11.24 1.0000
  -1  -7 -11    308.70   0.00          0.00  1.  0.00  0.   23.90 1.0000
  -1  -7 -10    155.50   0.00          0.00  1.  0.00  0.   15.96 1.0000
  -1  -7  -9    207.65   0.00          0.00  1.  0.00  0.   16.43 1.0000
  -1  -7  -8    553.66   0.00          0.00  1.  0.00  0.   31.06 1.0000
  -1  -7  -8    525.33   0.00          0.00  1.  0.00  0.   30.71 1.0000
  -1  -7   4   1114.89   0.00          0.00  1.  0.00  0.   56.10 1.0000
  -1  -7   4   1259.54   0.00          0.00  1.  0.00  0.   71.69 1.0000
  -1  -7   4   1150.57   0.00          0.00  1.  0.00  0.   56.31 1.0000
  -1  -7   5     -9.30   0.00          0.00  1.  0.00  0.   12.38 1.0000
  -1  -7   5     22.47   0.00          0.00  1.  0.00  0.    7.11 1.0000
  -1  -6 -13    106.71   0.00          0.00  1.  0.00  0.   15.91 1.0000
  -1  -6 -12     32.95   0.00          0.00  1.  0.00  0.   13.09 1.0000
  -1  -6 -11     83.72   0.00          0.00  1.  0.00  0.   13.72 1.0000
  -1  -6 -10     42.12   0.00          0.00  1.  0.00  0.   10.77 1.0000
  -1  -6 -10     46.92   0.00          0.00  1.  0.00  0.   11.51 1.0000
  -1  -6  -9     42.90   0.00          0.00  1.  0.00  0.    9.43 1.0000
  -1  -6  -8    112.15   0.00          0.00  1.  0.00  0.   11.65 1.0000
  -1  -6  -8    106.09   0.00          0.00  1.  0.00  0.   11.54 1.0000
  -1  -6  -8     93.70   0.00          0.00  1.  0.00  0.   12.00 1.0000
  -1  -6  -6    316.13   0.00          0.00  1.  0.00  0.   19.20 1.0000
  -1  -6  -6    324.72   0.00          0.00  1.  0.00  0.   25.59 1.0000
  -1  -6  -6    339.66   0.00          0.00  1.  0.00  0.   19.54 1.0000
  -1  -6  -5    450.71   0.00          0.00  1.  0.00  0.   26.33 1.0000
  -1  -6  -5    495.95   0.00          0.00  1.  0.00  0.   35.19 1.0000
  -1  -6   4   1509.32   0.00          0.00  1.  0.00  0.   74.59 1.0000
  -1  -6   4   1569.74   0.00          0.00  1.  0.00  0.   74.49 1.0000
  -1  -6   4   1546.06   0.00          0.00  1.  0.00  0.   86.50 1.0000
  -1  -6   6    474.37   0.00          0.00  1.  0.00  0.   34.85 1.0000
  -1  -6   6    471.76   0.00          0.00  1.  0.00  0.   29.10 1.0000
  -1  -6   6    433.89   0.00          0.00  1.  0.00  0.   28.33 1.0000
  -1  -5 -13    211.12   0.00          0.00  1.  0.00  0.   22.67 1.0000
  -1  -5 -12      1.72   0.00          0.00  1.  0.00  0.    8.54 1.0000
  -1  -5 -11     81.18   0.00          0.00  1.  0.00  0.   14.96 1.0000
  -1  -5 -11    101.61   0.00          0.00  1.  0.00  0.   15.12 1.0000
  -1  -5 -10    414.53   0.00          0.00  1.  0.00  0.   25.25 1.0000
  -1  -5 -10    393.63   0.00          0.00  1.  0.00  0.   28.17 1.0000
  -1  -5 -10    406.02   0.00          0.00  1.  0.00  0.   28.21 1.0000
  -1  -5  -9    812.25   0.00          0.00  1.  0.00  0.   45.03 1.0000
  -1  -5  -9    833.48   0.00          0.00  1.  0.00  0.   45.04 1.0000
  -1  -5  -9    824.84   0.00          0.00  1.  0.00  0.   44.80 1.0000
  -1  -5  -5    701.72   0.00          0.00  1.  0.00  0.   43.44 1.0000
  -1  -5  -5    673.40   0.00          0.00  1.  0.00  0.   37.37 1.0000
  -1  -5  -5    685.39   0.00          0.00  1.  0.00  0.   37.18 1.0000
  -1  -5  -1   1620.87   0.00          0.00  1.  0.00  0.   84.55 1.0000
  -1  -5   1   1018.89   0.00          0.00  1.  0.00  0.   49.80 1.0000
  -1  -5   1   1017.61   0.00          0.00  1.  0.00  0.   61.25 1.0000
  -1  -5   3    819.10   0.00          0.00  1.  0.00  0.   42.36 1.0000
  -1  -5   3    807.70   0.00          0.00  1.  0.00  0.   49.45 1.0000
  -1  -5   3    823.69   0.00          0.00  1.  0.00  0.   42.48 1.0000
  -1  -5   5    771.17   0.00          0.00  1.  0.00  0.   47.21 1.0000
  -1  -5   5    807.13   0.00          0.00  1.  0.00  0.   42.05 1.0000
  -1  -5   5    768.95   0.00          0.00  1.  0.00  0.   41.60 1.0000
  -1  -5   5    774.51   0.00          0.00  1.  0.00  0.   46.20 1.0000
  -1  -5   7     99.40   0.00          0.00  1.  0.00  0.   13.36 1.0000
  -1  -5   9     42.51   0.00          0.00  1.  0.00  0.   13.17 1.0000
  -1  -5   9     50.69   0.00          0.00  1.  0.00  0.   13.96 1.0000
  -1  -4 -14    163.58   0.00          0.00  1.  0.00  0.   23.02 1.0000
  -1  -4 -13    177.69   0.00          0.00  1.  0.00  0.   22.13 1.0000
  -1  -4 -13    213.45   0.00          0.00  1.  0.00  0.   23.67 1.0000
  -1  -4 -12    312.23   0.00          0.00  1.  0.00  0.   27.21 1.0000
  -1  -4 -12    276.22   0.00          0.00  1.  0.00  0.   25.26 1.0000
  -1  -4 -11    467.42   0.00          0.00  1.  0.00  0.   33.29 1.0000
  -1  -4 -11    491.95   0.00          0.00  1.  0.00  0.   27.06 1.0000
  -1  -4 -11    490.62   0.00          0.00  1.  0.00  0.   33.67 1.0000
  -1  -4 -10    629.01   0.00          0.00  1.  0.00  0.   45.14 1.0000
  -1  -4 -10    603.68   0.00          0.00  1.  0.00  0.   39.31 1.0000
  -1  -4 -10    602.70   0.00          0.00  1.  0.00  0.   34.86 1.0000
  -1  -4 -10    623.50   0.00          0.00  1.  0.00  0.   39.95 1.0000
  -1  -4  -8    255.04   0.00          0.00  1.  0.00  0.   19.48 1.0000
  -1  -4  -8    254.08   0.00          0.00  1.  0.00  0.   20.08 1.0000
  -1  -4  -8    240.25   0.00          0.00  1.  0.00  0.   23.25 1.0000
  -1  -4  -8    259.85   0.00          0.00  1.  0.00  0.   17.73 1.0000
  -1  -4  -7     73.96   0.00          0.00  1.  0.00  0.   10.66 1.0000
  -1  -4  -7     91.01   0.00          0.00  1.  0.00  0.   14.88 1.0000
  -1  -4  -7     86.12   0.00          0.00  1.  0.00  0.    9.84 1.0000
  -1  -4  -7     90.25   0.00          0.00  1.  0.00  0.   11.78 1.0000
  -1  -4  -6    308.00   0.00          0.00  1.  0.00  0.   20.36 1.0000
  -1  -4  -6    290.02   0.00          0.00  1.  0.00  0.   24.52 1.0000
  -1  -4  -6    304.15   0.00          0.00  1.  0.00  0.   19.18 1.0000
  -1  -4  -6    281.90   0.00          0.00  1.  0.00  0.   19.14 1.0000
  -1  -4  -4   1897.47   0.00          0.00  1.  0.00  0.   80.15 1.0000
  -1  -4  -4   1858.47   0.00          0.00  1.  0.00  0.   80.18 1.0000
  -1  -4  -4   1921.95   0.00          0.00  1.  0.00  0.   87.68 1.0000
  -1  -4   0   1455.42   0.00          0.00  1.  0.00  0.   83.17 1.0000
  -1  -4   4    828.29   0.00          0.00  1.  0.00  0.   42.02 1.0000
  -1  -4   4    795.80   0.00          0.00  1.  0.00  0.   45.14 1.0000
  -1  -4   4    841.58   0.00          0.00  1.  0.00  0.   42.35 1.0000
  -1  -4   4    823.12   0.00          0.00  1.  0.00  0.   47.63 1.0000
  -1  -4   5   1041.35   0.00          0.00  1.  0.00  0.   60.67 1.0000
  -1  -4   5   1058.85   0.00          0.00  1.  0.00  0.   64.43 1.0000
  -1  -4   5   1089.00   0.00          0.00  1.  0.00  0.   58.08 1.0000
  -1  -4   5   1090.98   0.00          0.00  1.  0.00  0.   58.79 1.0000
  -1  -3 -14    158.76   0.00          0.00  1.  0.00  0.   22.68 1.0000
  -1  -3 -13    464.40   0.00          0.00  1.  0.00  0.   33.19 1.0000
  -1  -3 -13    454.12   0.00          0.00  1.  0.00  0.   34.10 1.0000
  -1  -3 -12    608.12   0.00          0.00  1.  0.00  0.   38.47 1.0000
  -1  -3 -12    605.65   0.00          0.00  1.  0.00  0.   37.90 1.0000
  -1  -3 -11    799.19   0.00          0.00  1.  0.00  0.   47.49 1.0000
  -1  -3 -11    768.95   0.00          0.00  1.  0.00  0.   39.93 1.0000
  -1  -3 -11    785.12   0.00          0.00  1.  0.00  0.   50.44 1.0000
  -1  -3 -11    840.42   0.00          0.00  1.  0.00  0.   48.12 1.0000
  -1  -3 -10    836.37   0.00          0.00  1.  0.00  0.   45.12 1.0000
  -1  -3 -10    799.19   0.00          0.00  1.  0.00  0.   39.58 1.0000
  -1  -3 -10    835.79   0.00          0.00  1.  0.00  0.   49.73 1.0000
  -1  -3 -10    833.48   0.00          0.00  1.  0.00  0.   46.19 1.0000
  -1  -3  -8    541.49   0.00          0.00  1.  0.00  0.   32.11 1.0000
  -1  -3  -8    534.53   0.00          0.00  1.  0.00  0.   31.91 1.0000
  -1  -3  -8    517.56   0.00          0.00  1.  0.00  0.   28.66 1.0000
  -1  -3  -8    510.76   0.00          0.00  1.  0.00  0.   34.80 1.0000
  -1  -3  -7    244.61   0.00          0.00  1.  0.00  0.   20.33 1.0000
  -1  -3  -7    216.38   0.00          0.00  1.  0.00  0.   16.77 1.0000
  -1  -3  -7    229.52   0.00          0.00  1.  0.00  0.   16.97 1.0000
  -1  -3  -7    224.10   0.00          0.00  1.  0.00  0.   15.27 1.0000
  -1  -3  -6    252.81   0.00          0.00  1.  0.00  0.   15.90 1.0000
  -1  -3  -6    260.18   0.00          0.00  1.  0.00  0.   20.00 1.0000
  -1  -3  -6    235.93   0.00          0.00  1.  0.00  0.   16.59 1.0000
  -1  -3  -2    215.21   0.00          0.00  1.  0.00  0.   10.56 1.0000
  -1  -3  -2    218.74   0.00          0.00  1.  0.00  0.   14.79 1.0000
  -1  -3   3   1508.55   0.00          0.00  1.  0.00  0.   74.57 1.0000
  -1  -3   3   1520.22   0.00          0.00  1.  0.00  0.   71.74 1.0000
  -1  -3   3   1540.56   0.00          0.00  1.  0.00  0.   72.22 1.0000
  -1  -3   3   1455.42   0.00          0.00  1.  0.00  0.   78.59 1.0000
  -1  -3   4   3293.61   0.00          0.00  1.  0.00  0.  164.14 1.0000
  -1  -3   4   3183.22   0.00          0.00  1.  0.00  0.  152.33 1.0000
  -1  -3   4   3221.70   0.00          0.00  1.  0.00  0.  149.85 1.0000
  -1  -3   4   3299.35   0.00          0.00  1.  0.00  0.  150.49 1.0000
  -1  -3   5   1340.29   0.00          0.00  1.  0.00  0.   74.68 1.0000
  -1  -3   5   1287.37   0.00          0.00  1.  0.00  0.   71.04 1.0000
  -1  -3   5   1356.45   0.00          0.00  1.  0.00  0.   68.50 1.0000
  -1  -3   5   1272.35   0.00          0.00  1.  0.00  0.   68.49 1.0000
  -1  -3   6    314.00   0.00          0.00  1.  0.00  0.   24.45 1.0000
  -1  -3   6    347.82   0.00          0.00  1.  0.00  0.   24.62 1.0000
  -1  -3   6    351.19   0.00          0.00  1.  0.00  0.   23.24 1.0000
  -1  -3  10    166.67   0.00          0.00  1.  0.00  0.   19.88 1.0000
  -1  -3  10    137.12   0.00          0.00  1.  0.00  0.   18.74 1.0000
  -1  -3  11    230.43   0.00          0.00  1.  0.00  0.   24.90 1.0000
  -1  -3  11    226.80   0.00          0.00  1.  0.00  0.   22.59 1.0000
  -1  -3  12     43.96   0.00          0.00  1.  0.00  0.   13.53 1.0000
  -1  -2 -14    111.72   0.00          0.00  1.  0.00  0.   20.51 1.0000
  -1  -2 -13    258.89   0.00          0.00  1.  0.00  0.   26.07 1.0000
  -1  -2 -13    245.86   0.00          0.00  1.  0.00  0.   23.52 1.0000
  -1  -2 -12    127.92   0.00          0.00  1.  0.00  0.   18.55 1.0000
  -1  -2 -12    113.21   0.00          0.00  1.  0.00  0.   18.09 1.0000
  -1  -2 -11    280.90   0.00          0.00  1.  0.00  0.   16.76 1.0000
  -1  -2 -11    271.92   0.00          0.00  1.  0.00  0.   21.44 1.0000
  -1  -2 -11    315.42   0.00          0.00  1.  0.00  0.   25.57 1.0000
  -1  -2 -11    295.50   0.00          0.00  1.  0.00  0.   24.41 1.0000
  -1  -2  -9     99.60   0.00          0.00  1.  0.00  0.   12.97 1.0000
  -1  -2  -9     99.80   0.00          0.00  1.  0.00  0.   14.98 1.0000
  -1  -2  -9     95.84   0.00          0.00  1.  0.00  0.   11.36 1.0000
  -1  -2  -5   1413.76   0.00          0.00  1.  0.00  0.   71.44 1.0000
  -1  -2  -5   1410.75   0.00          0.00  1.  0.00  0.   71.36 1.0000
  -1  -2  -5   1419.03   0.00          0.00  1.  0.00  0.   84.38 1.0000
  -1  -2   1   3324.68   0.00          0.00  1.  0.00  0.  149.92 1.0000
  -1  -2   1   3421.08   0.00          0.00  1.  0.00  0.  160.26 1.0000
  -1  -2   1   3401.22   0.00          0.00  1.  0.00  0.  150.47 1.0000
  -1  -2   1   3245.58   0.00          0.00  1.  0.00  0.  165.21 1.0000
  -1  -2   2   1493.82   0.00          0.00  1.  0.00  0.   69.57 1.0000
  -1  -2   2   1554.72   0.00          0.00  1.  0.00  0.   74.13 1.0000
  -1  -2   2   1440.96   0.00          0.00  1.  0.00  0.   75.92 1.0000
  -1  -2   2   1519.44   0.00          0.00  1.  0.00  0.   69.38 1.0000
  -1  -2   2   1513.99   0.00          0.00  1.  0.00  0.   71.59 1.0000
  -1  -2   6   1835.27   0.00          0.00  1.  0.00  0.   89.96 1.0000
  -1  -2   6   1870.56   0.00          0.00  1.  0.00  0.   91.69 1.0000
  -1  -2   6   1887.03   0.00          0.00  1.  0.00  0.   91.22 1.0000
  -1  -2   7   1798.61   0.00          0.00  1.  0.00  0.   91.61 1.0000
  -1  -2   7   1845.56   0.00          0.00  1.  0.00  0.   91.08 1.0000
  -1  -2   7   1891.38   0.00          0.00  1.  0.00  0.   90.46 1.0000
  -1  -2   9   1401.75   0.00          0.00  1.  0.00  0.   74.13 1.0000
  -1  -2   9   1523.34   0.00          0.00  1.  0.00  0.   76.50 1.0000
  -1  -2   9   1313.34   0.00          0.00  1.  0.00  0.   75.38 1.0000
  -1  -2  10   1275.20   0.00          0.00  1.  0.00  0.   69.28 1.0000
  -1  -2  10   1234.12   0.00          0.00  1.  0.00  0.   68.15 1.0000
  -1  -1 -14     40.32   0.00          0.00  1.  0.00  0.   16.00 1.0000
  -1  -1 -12    231.65   0.00          0.00  1.  0.00  0.   23.13 1.0000
  -1  -1 -12    275.56   0.00          0.00  1.  0.00  0.   26.56 1.0000
  -1  -1  -5   7953.07   0.00          0.00  1.  0.00  0.  369.21 1.0000
  -1  -1  -5   7974.49   0.00          0.00  1.  0.00  0.  437.57 1.0000
  -1  -1  -5   8403.39   0.00          0.00  1.  0.00  0.  368.51 1.0000
  -1  -1  -4   3841.52   0.00          0.00  1.  0.00  0.  166.11 1.0000
  -1  -1  -4   3847.72   0.00          0.00  1.  0.00  0.  166.24 1.0000
  -1  -1  -2     81.90   0.00          0.00  1.  0.00  0.    6.70 1.0000
  -1  -1   1   8136.04   0.00          0.00  1.  0.00  0.  369.82 1.0000
  -1  -1   1   7447.69   0.00          0.00  1.  0.00  0.  383.17 1.0000
  -1  -1   1   8213.80   0.00          0.00  1.  0.00  0.  353.46 1.0000
  -1  -1   1   7869.46   0.00          0.00  1.  0.00  0.  351.29 1.0000
  -1  -1   1   7972.70   0.00          0.00  1.  0.00  0.  351.80 1.0000
  -1  -1   2   1316.96   0.00          0.00  1.  0.00  0.   64.60 1.0000
  -1  -1   2   1306.10   0.00          0.00  1.  0.00  0.   62.88 1.0000
  -1  -1   2   1343.96   0.00          0.00  1.  0.00  0.   62.32 1.0000
  -1  -1   2   1381.61   0.00          0.00  1.  0.00  0.   61.70 1.0000
  -1  -1   4    514.84   0.00          0.00  1.  0.00  0.   28.59 1.0000
  -1  -1   4    488.85   0.00          0.00  1.  0.00  0.   27.86 1.0000
  -1  -1   4    491.07   0.00          0.00  1.  0.00  0.   27.04 1.0000
  -1  -1   5    787.92   0.00          0.00  1.  0.00  0.   40.42 1.0000
  -1  -1   5    718.78   0.00          0.00  1.  0.00  0.   40.22 1.0000
  -1  -1   5    794.68   0.00          0.00  1.  0.00  0.   41.72 1.0000
  -1  -1   7    927.20   0.00          0.00  1.  0.00  0.   51.16 1.0000
  -1  -1   7    910.23   0.00          0.00  1.  0.00  0.   50.08 1.0000
  -1  -1   7    909.63   0.00          0.00  1.  0.00  0.   49.46 1.0000
  -1  -1   9    155.75   0.00          0.00  1.  0.00  0.   18.97 1.0000
  -1  -1   9    210.25   0.00          0.00  1.  0.00  0.   20.88 1.0000
  -1  -1   9    188.51   0.00          0.00  1.  0.00  0.   19.22 1.0000
  -1  -1  10    320.77   0.00          0.00  1.  0.00  0.   26.86 1.0000
  -1  -1  10    314.00   0.00          0.00  1.  0.00  0.   26.58 1.0000
  -1  -1  10    302.41   0.00          0.00  1.  0.00  0.   27.48 1.0000
  -1  -1  11    187.42   0.00          0.00  1.  0.00  0.   21.90 1.0000
  -1  -1  11    170.82   0.00          0.00  1.  0.00  0.   21.17 1.0000
  -1  -1  12    244.30   0.00          0.00  1.  0.00  0.   26.26 1.0000
  -1   0 -14    102.41   0.00          0.00  1.  0.00  0.   19.84 1.0000
  -1   0 -13     44.49   0.00          0.00  1.  0.00  0.   12.54 1.0000
  -1   0 -12    237.16   0.00          0.00  1.  0.00  0.   24.33 1.0000
  -1   0 -11     59.14   0.00          0.00  1.  0.00  0.   14.76 1.0000
  -1   0 -11     60.53   0.00          0.00  1.  0.00  0.   13.69 1.0000
  -1   0 -10    167.18   0.00          0.00  1.  0.00  0.   17.33 1.0000
  -1   0 -10    159.52   0.00          0.00  1.  0.00  0.   16.92 1.0000
  -1   0  -9     45.97   0.00          0.00  1.  0.00  0.   13.02 1.0000
  -1   0  -9     47.06   0.00          0.00  1.  0.00  0.   11.66 1.0000
  -1   0  -8     68.56   0.00          0.00  1.  0.00  0.   11.59 1.0000
  -1   0  -8     62.41   0.00          0.00  1.  0.00  0.   11.69 1.0000
  -1   0  -8     57.15   0.00          0.00  1.  0.00  0.   10.43 1.0000
  -1   0  -7    986.59   0.00          0.00  1.  0.00  0.   52.14 1.0000
  -1   0  -7   1028.48   0.00          0.00  1.  0.00  0.   53.88 1.0000
  -1   0  -7   1016.97   0.00          0.00  1.  0.00  0.   52.94 1.0000
  -1   0  -6     16.89   0.00          0.00  1.  0.00  0.   10.60 1.0000
  -1   0  -6     33.41   0.00          0.00  1.  0.00  0.    9.13 1.0000
  -1   0  -5   9002.21   0.00          0.00  1.  0.00  0.  396.60 1.0000
  -1   0  -5   9221.76   0.00          0.00  1.  0.00  0.  397.56 1.0000
  -1   0  -5   8635.99   0.00          0.00  1.  0.00  0.  395.88 1.0000
  -1   0  -4   4415.60   0.00          0.00  1.  0.00  0.  204.67 1.0000
  -1   0  -4   4550.85   0.00          0.00  1.  0.00  0.  203.73 1.0000
  -1   0  -3   2724.84   0.00          0.00  1.  0.00  0.  122.15 1.0000
  -1   0  -3   2637.85   0.00          0.00  1.  0.00  0.  121.21 1.0000
  -1   0   0   6485.08   0.00          0.00  1.  0.00  0.  291.52 1.0000
  -1   0   0   6699.42   0.00          0.00  1.  0.00  0.  291.39 1.0000
  -1   0   1   1225.70   0.00          0.00  1.  0.00  0.   55.32 1.0000
  -1   0   1   1226.40   0.00          0.00  1.  0.00  0.   55.33 1.0000
  -1   0   1   1224.30   0.00          0.00  1.  0.00  0.   55.28 1.0000
  -1   0   2    157.75   0.00          0.00  1.  0.00  0.   10.55 1.0000
  -1   0   2    146.41   0.00          0.00  1.  0.00  0.   10.16 1.0000
  -1   0   2    155.75   0.00          0.00  1.  0.00  0.    8.74 1.0000
  -1   0   2    158.51   0.00          0.00  1.  0.00  0.   10.58 1.0000
  -1   0   3    234.09   0.00          0.00  1.  0.00  0.   15.30 1.0000
  -1   0   3    230.74   0.00          0.00  1.  0.00  0.   12.15 1.0000
  -1   0   3    227.71   0.00          0.00  1.  0.00  0.   15.09 1.0000
  -1   0   3    223.80   0.00          0.00  1.  0.00  0.   14.66 1.0000
  -1   0   4   1668.72   0.00          0.00  1.  0.00  0.   76.80 1.0000
  -1   0   4   1652.42   0.00          0.00  1.  0.00  0.   77.24 1.0000
  -1   0   4   1608.01   0.00          0.00  1.  0.00  0.   76.99 1.0000
  -1   0   5   2180.89   0.00          0.00  1.  0.00  0.   99.00 1.0000
  -1   0   5   2055.72   0.00          0.00  1.  0.00  0.   98.84 1.0000
  -1   0   5   2127.98   0.00          0.00  1.  0.00  0.   98.72 1.0000
  -1   0   6   2365.85   0.00          0.00  1.  0.00  0.  107.98 1.0000
  -1   0   6   2242.02   0.00          0.00  1.  0.00  0.  107.96 1.0000
  -1   0   6   2275.29   0.00          0.00  1.  0.00  0.  107.80 1.0000
  -1   0   7   1160.76   0.00          0.00  1.  0.00  0.   58.60 1.0000
  -1   0   7   1118.23   0.00          0.00  1.  0.00  0.   59.52 1.0000
  -1   0   7   1171.01   0.00          0.00  1.  0.00  0.   58.86 1.0000
  -1   0   8    449.02   0.00          0.00  1.  0.00  0.   30.09 1.0000
  -1   0   8    428.08   0.00          0.00  1.  0.00  0.   29.38 1.0000
  -1   0   8    426.42   0.00          0.00  1.  0.00  0.   30.15 1.0000
  -1   0   9    156.75   0.00          0.00  1.  0.00  0.   19.53 1.0000
  -1   0   9    190.72   0.00          0.00  1.  0.00  0.   17.68 1.0000
  -1   0   9    183.87   0.00          0.00  1.  0.00  0.   19.26 1.0000
  -1   0  10    629.51   0.00          0.00  1.  0.00  0.   39.64 1.0000
  -1   0  10    576.96   0.00          0.00  1.  0.00  0.   38.91 1.0000
  -1   0  10    595.85   0.00          0.00  1.  0.00  0.   39.06 1.0000
  -1   0  11    163.84   0.00          0.00  1.  0.00  0.   20.22 1.0000
  -1   0  11    151.29   0.00          0.00  1.  0.00  0.   17.96 1.0000
  -1   0  11    142.56   0.00          0.00  1.  0.00  0.   20.06 1.0000
  -1   0  12     87.80   0.00          0.00  1.  0.00  0.   18.18 1.0000
  -1   0  13     81.18   0.00          0.00  1.  0.00  0.   15.86 1.0000
  -1   0  14     41.60   0.00          0.00  1.  0.00  0.   17.41 1.0000
  -1   1 -14     40.70   0.00          0.00  1.  0.00  0.   16.97 1.0000
  -1   1 -12    282.24   0.00          0.00  1.  0.00  0.   19.49 1.0000
  -1   1 -12    295.15   0.00          0.00  1.  0.00  0.   25.43 1.0000
  -1   1  -9    893.41   0.00          0.00  1.  0.00  0.   49.62 1.0000
  -1   1  -9    847.39   0.00          0.00  1.  0.00  0.   49.49 1.0000
  -1   1  -9    927.20   0.00          0.00  1.  0.00  0.   51.16 1.0000
  -1   1  -7    865.54   0.00          0.00  1.  0.00  0.   47.66 1.0000
  -1   1  -7    844.48   0.00          0.00  1.  0.00  0.   48.24 1.0000
  -1   1  -7    883.87   0.00          0.00  1.  0.00  0.   46.97 1.0000
  -1   1  -5   8275.54   0.00          0.00  1.  0.00  0.  369.34 1.0000
  -1   1  -5   8456.64   0.00          0.00  1.  0.00  0.  369.68 1.0000
  -1   1  -5   8273.72   0.00          0.00  1.  0.00  0.  371.12 1.0000
  -1   1  -4   3561.70   0.00          0.00  1.  0.00  0.  165.91 1.0000
  -1   1  -4   3549.78   0.00          0.00  1.  0.00  0.  165.63 1.0000
  -1   1  -4   3552.16   0.00          0.00  1.  0.00  0.  166.88 1.0000
  -1   1  -2     69.72   0.00          0.00  1.  0.00  0.    7.85 1.0000
  -1   1  -2     58.98   0.00          0.00  1.  0.00  0.    6.91 1.0000
  -1   1  10    405.22   0.00          0.00  1.  0.00  0.   27.78 1.0000
  -1   1  10    396.01   0.00          0.00  1.  0.00  0.   27.06 1.0000
  -1   1  11    196.00   0.00          0.00  1.  0.00  0.   21.84 1.0000
  -1   1  11    194.60   0.00          0.00  1.  0.00  0.   22.04 1.0000
  -1   1  11    197.96   0.00          0.00  1.  0.00  0.   21.10 1.0000
  -1   1  12    211.70   0.00          0.00  1.  0.00  0.   24.15 1.0000
  -1   1  14    167.44   0.00          0.00  1.  0.00  0.   22.77 1.0000
  -1   2 -13    192.10   0.00          0.00  1.  0.00  0.   22.45 1.0000
  -1   2 -12    179.02   0.00          0.00  1.  0.00  0.   23.55 1.0000
  -1   2 -12    175.30   0.00          0.00  1.  0.00  0.   15.89 1.0000
  -1   2 -12    172.92   0.00          0.00  1.  0.00  0.   21.30 1.0000
  -1   2  -9     70.22   0.00          0.00  1.  0.00  0.   16.93 1.0000
  -1   2  -9     98.41   0.00          0.00  1.  0.00  0.   15.28 1.0000
  -1   2  -9    105.88   0.00          0.00  1.  0.00  0.   14.41 1.0000
  -1   2  -7     96.43   0.00          0.00  1.  0.00  0.   16.10 1.0000
  -1   2  -7     77.79   0.00          0.00  1.  0.00  0.   10.76 1.0000
  -1   2  -7     94.28   0.00          0.00  1.  0.00  0.   13.21 1.0000
  -1   2  -6    930.86   0.00          0.00  1.  0.00  0.   49.43 1.0000
  -1   2  -6    975.31   0.00          0.00  1.  0.00  0.   49.97 1.0000
  -1   2  -6   1006.16   0.00          0.00  1.  0.00  0.   51.39 1.0000
  -1   2  -5   1634.58   0.00          0.00  1.  0.00  0.   75.20 1.0000
  -1   2  -5   1527.25   0.00          0.00  1.  0.00  0.   72.69 1.0000
  -1   2  -5   1503.89   0.00          0.00  1.  0.00  0.   72.91 1.0000
  -1   2  -4   6414.41   0.00          0.00  1.  0.00  0.  285.12 1.0000
  -1   2  -4   6465.77   0.00          0.00  1.  0.00  0.  283.04 1.0000
  -1   2  -4   6146.56   0.00          0.00  1.  0.00  0.  282.24 1.0000
  -1   2  -2    198.81   0.00          0.00  1.  0.00  0.   12.41 1.0000
  -1   2  -2    185.50   0.00          0.00  1.  0.00  0.   13.35 1.0000
  -1   2  -2    207.94   0.00          0.00  1.  0.00  0.   12.11 1.0000
  -1   2  -1   3608.40   0.00          0.00  1.  0.00  0.  163.39 1.0000
  -1   2  -1   3729.54   0.00          0.00  1.  0.00  0.  163.67 1.0000
  -1   2  -1   3652.99   0.00          0.00  1.  0.00  0.  164.40 1.0000
  -1   2  -1   3797.02   0.00          0.00  1.  0.00  0.  166.37 1.0000
  -1   2   0    655.87   0.00          0.00  1.  0.00  0.   31.24 1.0000
  -1   2   0    645.67   0.00          0.00  1.  0.00  0.   36.59 1.0000
  -1   2   0    688.54   0.00          0.00  1.  0.00  0.   31.49 1.0000
  -1   2   0    661.00   0.00          0.00  1.  0.00  0.   30.85 1.0000
  -1   2   0    669.26   0.00          0.00  1.  0.00  0.   33.63 1.0000
  -1   2   3    302.06   0.00          0.00  1.  0.00  0.   15.29 1.0000
  -1   2   3    291.73   0.00          0.00  1.  0.00  0.   17.08 1.0000
  -1   2   3    301.72   0.00          0.00  1.  0.00  0.   17.02 1.0000
  -1   2   3    305.20   0.00          0.00  1.  0.00  0.   17.47 1.0000
  -1   2   3    294.12   0.00          0.00  1.  0.00  0.   16.46 1.0000
  -1   2  12     84.27   0.00          0.00  1.  0.00  0.   15.61 1.0000
  -1   2  12     70.22   0.00          0.00  1.  0.00  0.   13.74 1.0000
  -1   2  14    207.07   0.00          0.00  1.  0.00  0.   26.48 1.0000
  -1   3 -13    375.20   0.00          0.00  1.  0.00  0.   32.15 1.0000
  -1   3 -12    524.87   0.00          0.00  1.  0.00  0.   41.24 1.0000
  -1   3 -12    491.51   0.00          0.00  1.  0.00  0.   38.13 1.0000
  -1   3 -10    702.78   0.00          0.00  1.  0.00  0.   46.13 1.0000
  -1   3 -10    693.27   0.00          0.00  1.  0.00  0.   47.92 1.0000
  -1   3 -10    677.56   0.00          0.00  1.  0.00  0.   44.77 1.0000
  -1   3  -6    185.23   0.00          0.00  1.  0.00  0.   16.33 1.0000
  -1   3  -6    189.61   0.00          0.00  1.  0.00  0.   19.83 1.0000
  -1   3  -6    176.89   0.00          0.00  1.  0.00  0.   17.02 1.0000
  -1   3  -3    472.19   0.00          0.00  1.  0.00  0.   27.38 1.0000
  -1   3  -3    484.00   0.00          0.00  1.  0.00  0.   28.60 1.0000
  -1   3  -3    466.99   0.00          0.00  1.  0.00  0.   25.07 1.0000
  -1   3  -3    438.48   0.00          0.00  1.  0.00  0.   24.71 1.0000
  -1   3  -2    172.66   0.00          0.00  1.  0.00  0.   11.83 1.0000
  -1   3  -2    165.38   0.00          0.00  1.  0.00  0.   15.95 1.0000
  -1   3  -2    195.16   0.00          0.00  1.  0.00  0.   14.25 1.0000
  -1   3  -2    170.56   0.00          0.00  1.  0.00  0.   11.75 1.0000
  -1   3  -1    233.17   0.00          0.00  1.  0.00  0.   13.13 1.0000
  -1   3  -1    243.05   0.00          0.00  1.  0.00  0.   14.65 1.0000
  -1   3  -1    244.30   0.00          0.00  1.  0.00  0.   13.44 1.0000
  -1   3  -1    248.38   0.00          0.00  1.  0.00  0.   17.34 1.0000
  -1   3   3   1570.54   0.00          0.00  1.  0.00  0.   80.05 1.0000
  -1   3   3   1531.94   0.00          0.00  1.  0.00  0.   72.02 1.0000
  -1   3   3   1503.89   0.00          0.00  1.  0.00  0.   68.25 1.0000
  -1   3   3   1608.01   0.00          0.00  1.  0.00  0.   70.58 1.0000
  -1   3   3   1571.33   0.00          0.00  1.  0.00  0.   70.56 1.0000
  -1   3   3   1502.34   0.00          0.00  1.  0.00  0.   74.42 1.0000
  -1   3   5   1476.10   0.00          0.00  1.  0.00  0.   65.31 1.0000
  -1   3   5   1473.02   0.00          0.00  1.  0.00  0.   67.55 1.0000
  -1   3   5   1538.21   0.00          0.00  1.  0.00  0.   68.24 1.0000
  -1   3   5   1538.99   0.00          0.00  1.  0.00  0.   68.26 1.0000
  -1   3   5   1506.99   0.00          0.00  1.  0.00  0.   65.99 1.0000
  -1   3  11    169.78   0.00          0.00  1.  0.00  0.   20.85 1.0000
  -1   3  11    163.33   0.00          0.00  1.  0.00  0.   16.87 1.0000
  -1   3  12     12.74   0.00          0.00  1.  0.00  0.    9.85 1.0000
  -1   3  13    251.86   0.00          0.00  1.  0.00  0.   27.30 1.0000
  -1   3  14    202.78   0.00          0.00  1.  0.00  0.   24.21 1.0000
  -1   4 -10    732.24   0.00          0.00  1.  0.00  0.   44.92 1.0000
  -1   4 -10    769.51   0.00          0.00  1.  0.00  0.   43.27 1.0000
  -1   4 -10    733.87   0.00          0.00  1.  0.00  0.   43.34 1.0000
  -1   4  -5    913.25   0.00          0.00  1.  0.00  0.   50.77 1.0000
  -1   4  -5    918.09   0.00          0.00  1.  0.00  0.   47.87 1.0000
  -1   4  -5    935.14   0.00          0.00  1.  0.00  0.   47.70 1.0000
  -1   4  -4   1687.57   0.00          0.00  1.  0.00  0.   82.16 1.0000
  -1   4  -4   1702.39   0.00          0.00  1.  0.00  0.   85.00 1.0000
  -1   4  -4   1690.03   0.00          0.00  1.  0.00  0.   85.51 1.0000
  -1   4  -4   1641.06   0.00          0.00  1.  0.00  0.   81.83 1.0000
  -1   4  -3    687.49   0.00          0.00  1.  0.00  0.   35.13 1.0000
  -1   4  -3    765.08   0.00          0.00  1.  0.00  0.   39.28 1.0000
  -1   4  -3    681.21   0.00          0.00  1.  0.00  0.   34.97 1.0000
  -1   4  -3    722.00   0.00          0.00  1.  0.00  0.   40.84 1.0000
  -1   4  -1    476.11   0.00          0.00  1.  0.00  0.   29.68 1.0000
  -1   4  -1    480.05   0.00          0.00  1.  0.00  0.   23.22 1.0000
  -1   4  -1    472.19   0.00          0.00  1.  0.00  0.   23.03 1.0000
  -1   4  -1    497.74   0.00          0.00  1.  0.00  0.   25.88 1.0000
  -1   4   0   1827.56   0.00          0.00  1.  0.00  0.   81.22 1.0000
  -1   4   0   1726.40   0.00          0.00  1.  0.00  0.   75.62 1.0000
  -1   4   0   1763.16   0.00          0.00  1.  0.00  0.   87.34 1.0000
  -1   4   0   1777.47   0.00          0.00  1.  0.00  0.   73.36 1.0000
  -1   4   0   1707.34   0.00          0.00  1.  0.00  0.   73.55 1.0000
  -1   4   0   1853.30   0.00          0.00  1.  0.00  0.   84.38 1.0000
  -1   4   4    796.37   0.00          0.00  1.  0.00  0.   40.07 1.0000
  -1   4   4    807.70   0.00          0.00  1.  0.00  0.   43.20 1.0000
  -1   4   4    801.46   0.00          0.00  1.  0.00  0.   47.56 1.0000
  -1   4   4    767.84   0.00          0.00  1.  0.00  0.   42.67 1.0000
  -1   4   4    772.84   0.00          0.00  1.  0.00  0.   37.25 1.0000
  -1   4   4    799.19   0.00          0.00  1.  0.00  0.   40.14 1.0000
  -1   4   5   1220.80   0.00          0.00  1.  0.00  0.   54.51 1.0000
  -1   4   5   1265.94   0.00          0.00  1.  0.00  0.   58.35 1.0000
  -1   4   5   1258.83   0.00          0.00  1.  0.00  0.   58.90 1.0000
  -1   4   5   1303.21   0.00          0.00  1.  0.00  0.   57.76 1.0000
  -1   4   5   1258.12   0.00          0.00  1.  0.00  0.   57.46 1.0000
  -1   4   9    110.67   0.00          0.00  1.  0.00  0.   15.57 1.0000
  -1   4   9    105.88   0.00          0.00  1.  0.00  0.   12.14 1.0000
  -1   4   9     89.68   0.00          0.00  1.  0.00  0.   13.64 1.0000
  -1   4  12    229.22   0.00          0.00  1.  0.00  0.   21.50 1.0000
  -1   4  12    252.49   0.00          0.00  1.  0.00  0.   24.15 1.0000
  -1   4  13    109.83   0.00          0.00  1.  0.00  0.   20.33 1.0000
  -1   5 -10    393.63   0.00          0.00  1.  0.00  0.   30.55 1.0000
  -1   5 -10    364.43   0.00          0.00  1.  0.00  0.   33.22 1.0000
  -1   5  -7   1242.56   0.00          0.00  1.  0.00  0.   64.15 1.0000
  -1   5  -7   1264.51   0.00          0.00  1.  0.00  0.   68.28 1.0000
  -1   5  -7   1211.04   0.00          0.00  1.  0.00  0.   63.34 1.0000
  -1   5  -7   1204.78   0.00          0.00  1.  0.00  0.   70.11 1.0000
  -1   5  -6    529.00   0.00          0.00  1.  0.00  0.   37.72 1.0000
  -1   5  -6    576.00   0.00          0.00  1.  0.00  0.   34.08 1.0000
  -1   5  -6    611.57   0.00          0.00  1.  0.00  0.   34.13 1.0000
  -1   5  -6    554.60   0.00          0.00  1.  0.00  0.   37.21 1.0000
  -1   5  -5    826.56   0.00          0.00  1.  0.00  0.   48.30 1.0000
  -1   5  -5    842.16   0.00          0.00  1.  0.00  0.   45.27 1.0000
  -1   5  -5    818.53   0.00          0.00  1.  0.00  0.   40.63 1.0000
  -1   5  -5    816.82   0.00          0.00  1.  0.00  0.   41.16 1.0000
  -1   5  -4    890.43   0.00          0.00  1.  0.00  0.   50.13 1.0000
  -1   5  -4    845.06   0.00          0.00  1.  0.00  0.   43.60 1.0000
  -1   5  -4    861.42   0.00          0.00  1.  0.00  0.   44.03 1.0000
  -1   5  -4    866.12   0.00          0.00  1.  0.00  0.   48.27 1.0000
  -1   5  -4    874.38   0.00          0.00  1.  0.00  0.   52.04 1.0000
  -1   5  -3   1258.83   0.00          0.00  1.  0.00  0.   63.15 1.0000
  -1   5  -3   1253.87   0.00          0.00  1.  0.00  0.   65.86 1.0000
  -1   5  -3   1239.04   0.00          0.00  1.  0.00  0.   59.14 1.0000
  -1   5  -3   1272.35   0.00          0.00  1.  0.00  0.   59.21 1.0000
  -1   5  -3   1212.43   0.00          0.00  1.  0.00  0.   68.94 1.0000
  -1   5  -1   1491.50   0.00          0.00  1.  0.00  0.   72.61 1.0000
  -1   5  -1   1665.46   0.00          0.00  1.  0.00  0.   76.72 1.0000
  -1   5  -1   1663.82   0.00          0.00  1.  0.00  0.   81.58 1.0000
  -1   5  -1   1730.56   0.00          0.00  1.  0.00  0.   84.86 1.0000
  -1   5  -1   1641.06   0.00          0.00  1.  0.00  0.   72.11 1.0000
  -1   5   0    853.81   0.00          0.00  1.  0.00  0.   52.01 1.0000
  -1   5   0    850.89   0.00          0.00  1.  0.00  0.   46.09 1.0000
  -1   5   0    874.98   0.00          0.00  1.  0.00  0.   52.65 1.0000
  -1   5   0    876.16   0.00          0.00  1.  0.00  0.   55.65 1.0000
  -1   5   1   1232.71   0.00          0.00  1.  0.00  0.   58.98 1.0000
  -1   5   1   1193.01   0.00          0.00  1.  0.00  0.   51.12 1.0000
  -1   5   1   1237.63   0.00          0.00  1.  0.00  0.   59.81 1.0000
  -1   5   1   1181.98   0.00          0.00  1.  0.00  0.   62.57 1.0000
  -1   5   7     66.75   0.00          0.00  1.  0.00  0.    7.68 1.0000
  -1   5   7     78.85   0.00          0.00  1.  0.00  0.   10.12 1.0000
  -1   5   7     91.78   0.00          0.00  1.  0.00  0.   11.30 1.0000
  -1   5   7     57.61   0.00          0.00  1.  0.00  0.   10.78 1.0000
  -1   5   9     37.70   0.00          0.00  1.  0.00  0.    9.82 1.0000
  -1   5   9     48.58   0.00          0.00  1.  0.00  0.    8.36 1.0000
  -1   5   9     51.55   0.00          0.00  1.  0.00  0.   10.77 1.0000
  -1   5  11     52.71   0.00          0.00  1.  0.00  0.   10.02 1.0000
  -1   5  11     66.10   0.00          0.00  1.  0.00  0.   14.96 1.0000
  -1   5  12     78.15   0.00          0.00  1.  0.00  0.   16.09 1.0000
  -1   5  13     -9.24   0.00          0.00  1.  0.00  0.   13.38 1.0000
  -1   6  -5    589.03   0.00          0.00  1.  0.00  0.   31.55 1.0000
  -1   6  -5    621.50   0.00          0.00  1.  0.00  0.   31.41 1.0000
  -1   6  -5    630.51   0.00          0.00  1.  0.00  0.   39.67 1.0000
  -1   6  -4    917.48   0.00          0.00  1.  0.00  0.   52.70 1.0000
  -1   6  -4    828.86   0.00          0.00  1.  0.00  0.   43.76 1.0000
  -1   6  -4    849.72   0.00          0.00  1.  0.00  0.   53.64 1.0000
  -1   6  -4    857.32   0.00          0.00  1.  0.00  0.   43.33 1.0000
  -1   6  -4    890.43   0.00          0.00  1.  0.00  0.   48.94 1.0000
  -1   6  -3    487.97   0.00          0.00  1.  0.00  0.   25.62 1.0000
  -1   6  -3    475.68   0.00          0.00  1.  0.00  0.   35.33 1.0000
  -1   6  -3    485.76   0.00          0.00  1.  0.00  0.   26.01 1.0000
  -1   6  -3    497.29   0.00          0.00  1.  0.00  0.   31.22 1.0000
  -1   6  -3    515.29   0.00          0.00  1.  0.00  0.   35.87 1.0000
  -1   6   8   1503.89   0.00          0.00  1.  0.00  0.   75.23 1.0000
  -1   6   8   1713.13   0.00          0.00  1.  0.00  0.   80.30 1.0000
  -1   6   8   1612.02   0.00          0.00  1.  0.00  0.   81.10 1.0000
  -1   6   8   1655.68   0.00          0.00  1.  0.00  0.   94.40 1.0000
  -1   6   8   1635.39   0.00          0.00  1.  0.00  0.   80.07 1.0000
  -1   6   9    208.51   0.00          0.00  1.  0.00  0.   19.06 1.0000
  -1   6   9    199.09   0.00          0.00  1.  0.00  0.   14.67 1.0000
  -1   6   9    231.34   0.00          0.00  1.  0.00  0.   20.08 1.0000
  -1   6  10    402.00   0.00          0.00  1.  0.00  0.   28.87 1.0000
  -1   7  -7    143.52   0.00          0.00  1.  0.00  0.   20.61 1.0000
  -1   7  -6    392.83   0.00          0.00  1.  0.00  0.   25.37 1.0000
  -1   7  -6    364.05   0.00          0.00  1.  0.00  0.   30.15 1.0000
  -1   7  -5    285.27   0.00          0.00  1.  0.00  0.   23.98 1.0000
  -1   7  -5    261.15   0.00          0.00  1.  0.00  0.   17.78 1.0000
  -1   7  -4    586.61   0.00          0.00  1.  0.00  0.   31.49 1.0000
  -1   7  -4    596.34   0.00          0.00  1.  0.00  0.   31.26 1.0000
  -1   7  -4    632.02   0.00          0.00  1.  0.00  0.   41.73 1.0000
  -1   7  -4    653.31   0.00          0.00  1.  0.00  0.   37.83 1.0000
  -1   7  -2    282.58   0.00          0.00  1.  0.00  0.   21.18 1.0000
  -1   7  -2    296.53   0.00          0.00  1.  0.00  0.   26.17 1.0000
  -1   7  -2    262.76   0.00          0.00  1.  0.00  0.   26.58 1.0000
  -1   7   2    405.62   0.00          0.00  1.  0.00  0.   30.21 1.0000
  -1   7   2    401.20   0.00          0.00  1.  0.00  0.   32.85 1.0000
  -1   7   2    372.49   0.00          0.00  1.  0.00  0.   29.34 1.0000
  -1   7   2    406.02   0.00          0.00  1.  0.00  0.   21.36 1.0000
  -1   7   5     32.38   0.00          0.00  1.  0.00  0.   13.54 1.0000
  -1   7   5     24.80   0.00          0.00  1.  0.00  0.   10.06 1.0000
  -1   7   6    190.44   0.00          0.00  1.  0.00  0.   19.32 1.0000
  -1   7   6    232.87   0.00          0.00  1.  0.00  0.   22.58 1.0000
  -1   7   6    212.28   0.00          0.00  1.  0.00  0.   13.99 1.0000
  -1   7   7    434.72   0.00          0.00  1.  0.00  0.   25.44 1.0000
  -1   7   7    431.81   0.00          0.00  1.  0.00  0.   25.35 1.0000
  -1   7   7    408.44   0.00          0.00  1.  0.00  0.   30.31 1.0000
  -1   7   9    320.05   0.00          0.00  1.  0.00  0.   23.97 1.0000
  -1   8  -6    128.82   0.00          0.00  1.  0.00  0.   19.98 1.0000
  -1   8  -4     42.64   0.00          0.00  1.  0.00  0.   12.28 1.0000
  -1   8  -3    104.04   0.00          0.00  1.  0.00  0.   20.81 1.0000
  -1   8  -3    127.69   0.00          0.00  1.  0.00  0.   14.01 1.0000
  -1   8  -2    280.90   0.00          0.00  1.  0.00  0.   27.49 1.0000
  -1   8  -2    312.23   0.00          0.00  1.  0.00  0.   22.62 1.0000
  -1   8   7    142.32   0.00          0.00  1.  0.00  0.   20.04 1.0000
  -1   8   8    431.81   0.00          0.00  1.  0.00  0.   33.25 1.0000
  -1   9  -2    296.87   0.00          0.00  1.  0.00  0.   30.32 1.0000
  -1   9  -1    219.34   0.00          0.00  1.  0.00  0.   27.84 1.0000
  -1   9   3    423.12   0.00          0.00  1.  0.00  0.   35.38 1.0000
  -1   9   4    105.47   0.00          0.00  1.  0.00  0.   20.75 1.0000
  -1   9   5     10.18   0.00          0.00  1.  0.00  0.   16.40 1.0000
  -1   9   6    103.63   0.00          0.00  1.  0.00  0.   18.32 1.0000
  -1   9   7     97.81   0.00          0.00  1.  0.00  0.   20.57 1.0000
   0  -8 -10    171.09   0.00          0.00  1.  0.00  0.   15.96 1.0000
   0  -8  -9    148.35   0.00          0.00  1.  0.00  0.   13.15 1.0000
   0  -8  -8    127.69   0.00          0.00  1.  0.00  0.   10.62 1.0000
   0  -8   3    455.40   0.00          0.00  1.  0.00  0.   37.99 1.0000
   0  -8   5    208.51   0.00          0.00  1.  0.00  0.   15.31 1.0000
   0  -8   5    248.06   0.00          0.00  1.  0.00  0.   28.98 1.0000
   0  -7 -11    167.44   0.00          0.00  1.  0.00  0.   18.37 1.0000
   0  -7 -10    137.59   0.00          0.00  1.  0.00  0.   14.78 1.0000
   0  -7 -10    157.00   0.00          0.00  1.  0.00  0.   22.05 1.0000
   0  -7  -9    118.16   0.00          0.00  1.  0.00  0.   12.83 1.0000
   0  -7  -8     87.80   0.00          0.00  1.  0.00  0.   10.31 1.0000
   0  -7  -8     86.12   0.00          0.00  1.  0.00  0.   10.39 1.0000
   0  -7  -8     91.78   0.00          0.00  1.  0.00  0.   17.44 1.0000
   0  -7  -7     54.32   0.00          0.00  1.  0.00  0.    7.52 1.0000
   0  -7  -7     86.49   0.00          0.00  1.  0.00  0.    8.93 1.0000
   0  -7  -6     39.19   0.00          0.00  1.  0.00  0.    5.26 1.0000
   0  -7  -6     43.56   0.00          0.00  1.  0.00  0.    5.41 1.0000
   0  -7   4    312.94   0.00          0.00  1.  0.00  0.   28.30 1.0000
   0  -7   4    291.04   0.00          0.00  1.  0.00  0.   17.74 1.0000
   0  -7   5      5.81   0.00          0.00  1.  0.00  0.    5.93 1.0000
   0  -7   5     21.53   0.00          0.00  1.  0.00  0.   10.76 1.0000
   0  -7   6     43.43   0.00          0.00  1.  0.00  0.   14.89 1.0000
   0  -7   7     80.28   0.00          0.00  1.  0.00  0.   16.13 1.0000
   0  -7   7     87.24   0.00          0.00  1.  0.00  0.   12.14 1.0000
   0  -6 -12    175.83   0.00          0.00  1.  0.00  0.   24.66 1.0000
   0  -6 -12    207.36   0.00          0.00  1.  0.00  0.   21.60 1.0000
   0  -6 -11    121.22   0.00          0.00  1.  0.00  0.   20.70 1.0000
   0  -6 -11     98.80   0.00          0.00  1.  0.00  0.   15.31 1.0000
   0  -6 -10    404.01   0.00          0.00  1.  0.00  0.   28.14 1.0000
   0  -6 -10    390.85   0.00          0.00  1.  0.00  0.   27.68 1.0000
   0  -6 -10    364.81   0.00          0.00  1.  0.00  0.   35.14 1.0000
   0  -6  -8    113.64   0.00          0.00  1.  0.00  0.   11.51 1.0000
   0  -6  -8    107.54   0.00          0.00  1.  0.00  0.   17.21 1.0000
   0  -6  -8     98.41   0.00          0.00  1.  0.00  0.   12.30 1.0000
   0  -6   3   1081.75   0.00          0.00  1.  0.00  0.   62.49 1.0000
   0  -6   3   1031.05   0.00          0.00  1.  0.00  0.   49.45 1.0000
   0  -6   4    410.87   0.00          0.00  1.  0.00  0.   23.11 1.0000
   0  -6   4    394.82   0.00          0.00  1.  0.00  0.   32.19 1.0000
   0  -6   4    423.54   0.00          0.00  1.  0.00  0.   29.22 1.0000
   0  -6   4    391.64   0.00          0.00  1.  0.00  0.   23.35 1.0000
   0  -5 -13    362.14   0.00          0.00  1.  0.00  0.   33.49 1.0000
   0  -5 -13    373.26   0.00          0.00  1.  0.00  0.   31.68 1.0000
   0  -5 -12    351.56   0.00          0.00  1.  0.00  0.   27.75 1.0000
   0  -5 -12    396.41   0.00          0.00  1.  0.00  0.   33.85 1.0000
   0  -5 -11     72.93   0.00          0.00  1.  0.00  0.   12.30 1.0000
   0  -5 -11     48.02   0.00          0.00  1.  0.00  0.   12.89 1.0000
   0  -5 -11     28.41   0.00          0.00  1.  0.00  0.   12.26 1.0000
   0  -5 -10     45.97   0.00          0.00  1.  0.00  0.   11.80 1.0000
   0  -5 -10     66.75   0.00          0.00  1.  0.00  0.   15.36 1.0000
   0  -5 -10     43.16   0.00          0.00  1.  0.00  0.   11.96 1.0000
   0  -5  -9    103.02   0.00          0.00  1.  0.00  0.   13.19 1.0000
   0  -5  -9     80.10   0.00          0.00  1.  0.00  0.   13.96 1.0000
   0  -5  -9     84.27   0.00          0.00  1.  0.00  0.   11.02 1.0000
   0  -5  -7    514.38   0.00          0.00  1.  0.00  0.   28.12 1.0000
   0  -5  -7    476.55   0.00          0.00  1.  0.00  0.   36.24 1.0000
   0  -5  -7    501.76   0.00          0.00  1.  0.00  0.   28.22 1.0000
   0  -5   0    925.98   0.00          0.00  1.  0.00  0.   53.56 1.0000
   0  -5   1    611.57   0.00          0.00  1.  0.00  0.   39.07 1.0000
   0  -5   2    748.02   0.00          0.00  1.  0.00  0.   41.57 1.0000
   0  -5   2    784.00   0.00          0.00  1.  0.00  0.   47.60 1.0000
   0  -5   2    768.40   0.00          0.00  1.  0.00  0.   37.14 1.0000
   0  -5   3   1177.18   0.00          0.00  1.  0.00  0.   67.25 1.0000
   0  -5   3   1194.39   0.00          0.00  1.  0.00  0.   56.68 1.0000
   0  -5   3   1180.61   0.00          0.00  1.  0.00  0.   56.35 1.0000
   0  -5   3   1136.36   0.00          0.00  1.  0.00  0.   60.00 1.0000
   0  -5   6    543.36   0.00          0.00  1.  0.00  0.   34.97 1.0000
   0  -5   6    498.63   0.00          0.00  1.  0.00  0.   30.82 1.0000
   0  -5   6    509.40   0.00          0.00  1.  0.00  0.   31.15 1.0000
   0  -5   6    520.30   0.00          0.00  1.  0.00  0.   36.95 1.0000
   0  -5   7    432.64   0.00          0.00  1.  0.00  0.   30.37 1.0000
   0  -5   7    419.84   0.00          0.00  1.  0.00  0.   32.37 1.0000
   0  -5   7    453.26   0.00          0.00  1.  0.00  0.   35.34 1.0000
   0  -5   7    467.42   0.00          0.00  1.  0.00  0.   30.70 1.0000
   0  -4 -14    136.19   0.00          0.00  1.  0.00  0.   21.94 1.0000
   0  -4 -13     74.13   0.00          0.00  1.  0.00  0.   15.15 1.0000
   0  -4 -13     81.54   0.00          0.00  1.  0.00  0.   15.89 1.0000
   0  -4 -13     88.17   0.00          0.00  1.  0.00  0.   15.40 1.0000
   0  -4 -12    205.35   0.00          0.00  1.  0.00  0.   21.78 1.0000
   0  -4 -12    209.67   0.00          0.00  1.  0.00  0.   22.88 1.0000
   0  -4 -12    246.49   0.00          0.00  1.  0.00  0.   23.55 1.0000
   0  -4  -8    634.54   0.00          0.00  1.  0.00  0.   37.28 1.0000
   0  -4  -8    611.57   0.00          0.00  1.  0.00  0.   37.10 1.0000
   0  -4   0   1925.45   0.00          0.00  1.  0.00  0.  100.05 1.0000
   0  -4   3    443.52   0.00          0.00  1.  0.00  0.   23.59 1.0000
   0  -4   3    432.22   0.00          0.00  1.  0.00  0.   29.11 1.0000
   0  -4   3    423.54   0.00          0.00  1.  0.00  0.   23.46 1.0000
   0  -4   3    405.22   0.00          0.00  1.  0.00  0.   26.17 1.0000
   0  -4   4    894.01   0.00          0.00  1.  0.00  0.   50.83 1.0000
   0  -4   4    886.25   0.00          0.00  1.  0.00  0.   44.06 1.0000
   0  -4   4    843.32   0.00          0.00  1.  0.00  0.   46.46 1.0000
   0  -4   4    825.99   0.00          0.00  1.  0.00  0.   43.68 1.0000
   0  -4   5   1036.84   0.00          0.00  1.  0.00  0.   53.45 1.0000
   0  -4   5   1088.34   0.00          0.00  1.  0.00  0.   53.44 1.0000
   0  -4   5   1134.34   0.00          0.00  1.  0.00  0.   61.97 1.0000
   0  -4   5   1006.79   0.00          0.00  1.  0.00  0.   55.84 1.0000
   0  -4   6    886.25   0.00          0.00  1.  0.00  0.   47.04 1.0000
   0  -4   6    880.90   0.00          0.00  1.  0.00  0.   49.86 1.0000
   0  -4   6    949.26   0.00          0.00  1.  0.00  0.   54.23 1.0000
   0  -4   6    877.34   0.00          0.00  1.  0.00  0.   47.39 1.0000
   0  -4   8    673.40   0.00          0.00  1.  0.00  0.   42.56 1.0000
   0  -4   8    658.44   0.00          0.00  1.  0.00  0.   40.03 1.0000
   0  -4   8    647.19   0.00          0.00  1.  0.00  0.   39.18 1.0000
   0  -3 -14     15.92   0.00          0.00  1.  0.00  0.   15.96 1.0000
   0  -3 -13    198.25   0.00          0.00  1.  0.00  0.   23.09 1.0000
   0  -3 -13    257.60   0.00          0.00  1.  0.00  0.   25.68 1.0000
   0  -3 -12     91.78   0.00          0.00  1.  0.00  0.   14.37 1.0000
   0  -3 -12     67.08   0.00          0.00  1.  0.00  0.   15.23 1.0000
   0  -3 -11    179.83   0.00          0.00  1.  0.00  0.   19.85 1.0000
   0  -3 -11    188.79   0.00          0.00  1.  0.00  0.   20.06 1.0000
   0  -3   0   2043.94   0.00          0.00  1.  0.00  0.  103.08 1.0000
   0  -3   3    931.47   0.00          0.00  1.  0.00  0.   45.17 1.0000
   0  -3   3    892.81   0.00          0.00  1.  0.00  0.   46.61 1.0000
   0  -3   3    917.48   0.00          0.00  1.  0.00  0.   44.83 1.0000
   0  -3   3    954.81   0.00          0.00  1.  0.00  0.   51.91 1.0000
   0  -3   5    761.76   0.00          0.00  1.  0.00  0.   39.74 1.0000
   0  -3   5    731.16   0.00          0.00  1.  0.00  0.   38.94 1.0000
   0  -3   5    716.10   0.00          0.00  1.  0.00  0.   40.68 1.0000
   0  -3   6   1226.40   0.00          0.00  1.  0.00  0.   60.93 1.0000
   0  -3   6   1136.36   0.00          0.00  1.  0.00  0.   62.70 1.0000
   0  -3   6   1213.83   0.00          0.00  1.  0.00  0.   61.32 1.0000
   0  -3  10     32.83   0.00          0.00  1.  0.00  0.   12.38 1.0000
   0  -3  10     43.43   0.00          0.00  1.  0.00  0.   14.37 1.0000
   0  -3  11    181.71   0.00          0.00  1.  0.00  0.   22.11 1.0000
   0  -3  11    179.29   0.00          0.00  1.  0.00  0.   19.82 1.0000
   0  -2 -14     57.15   0.00          0.00  1.  0.00  0.   14.67 1.0000
   0  -2 -12    388.48   0.00          0.00  1.  0.00  0.   30.35 1.0000
   0  -2 -12    356.08   0.00          0.00  1.  0.00  0.   29.44 1.0000
   0  -2  -8    160.28   0.00          0.00  1.  0.00  0.   16.46 1.0000
   0  -2  -8    159.77   0.00          0.00  1.  0.00  0.   14.41 1.0000
   0  -2  -7    245.24   0.00          0.00  1.  0.00  0.   18.17 1.0000
   0  -2  -7    216.38   0.00          0.00  1.  0.00  0.   17.06 1.0000
   0  -2   0    665.12   0.00          0.00  1.  0.00  0.   38.69 1.0000
   0  -2   0    659.98   0.00          0.00  1.  0.00  0.   35.45 1.0000
   0  -2   5   2458.18   0.00          0.00  1.  0.00  0.  114.03 1.0000
   0  -2   5   2413.76   0.00          0.00  1.  0.00  0.  112.02 1.0000
   0  -2   5   2435.42   0.00          0.00  1.  0.00  0.  111.53 1.0000
   0  -2   7    191.27   0.00          0.00  1.  0.00  0.   19.92 1.0000
   0  -2   7    180.63   0.00          0.00  1.  0.00  0.   18.55 1.0000
   0  -2   7    206.21   0.00          0.00  1.  0.00  0.   18.38 1.0000
   0  -2   8    131.56   0.00          0.00  1.  0.00  0.   16.75 1.0000
   0  -2   8    117.72   0.00          0.00  1.  0.00  0.   14.97 1.0000
   0  -2   8     97.22   0.00          0.00  1.  0.00  0.   13.61 1.0000
   0  -2  10    304.50   0.00          0.00  1.  0.00  0.   26.87 1.0000
   0  -2  10    284.26   0.00          0.00  1.  0.00  0.   25.29 1.0000
   0  -2  10    281.90   0.00          0.00  1.  0.00  0.   24.51 1.0000
   0  -2  11   1021.44   0.00          0.00  1.  0.00  0.   61.36 1.0000
   0  -2  11   1120.24   0.00          0.00  1.  0.00  0.   63.59 1.0000
   0  -2  12    403.61   0.00          0.00  1.  0.00  0.   33.35 1.0000
   0  -2  12    377.91   0.00          0.00  1.  0.00  0.   32.27 1.0000
   0  -1 -14    112.36   0.00          0.00  1.  0.00  0.   21.41 1.0000
   0  -1 -12    431.39   0.00          0.00  1.  0.00  0.   34.89 1.0000
   0  -1 -12    445.21   0.00          0.00  1.  0.00  0.   33.76 1.0000
   0  -1 -10     75.34   0.00          0.00  1.  0.00  0.   15.10 1.0000
   0  -1 -10     82.08   0.00          0.00  1.  0.00  0.   14.50 1.0000
   0  -1   0  10000.00   0.00          0.00  1.  0.00  0.  466.00 1.0000
   0  -1   3    248.06   0.00          0.00  1.  0.00  0.   15.75 1.0000
   0  -1   3    264.06   0.00          0.00  1.  0.00  0.   14.95 1.0000
   0  -1   3    244.61   0.00          0.00  1.  0.00  0.   13.76 1.0000
   0  -1   3    251.86   0.00          0.00  1.  0.00  0.   15.55 1.0000
   0  -1   5   3043.73   0.00          0.00  1.  0.00  0.  139.03 1.0000
   0  -1   5   3037.11   0.00          0.00  1.  0.00  0.  139.98 1.0000
   0  -1   5   3042.63   0.00          0.00  1.  0.00  0.  139.00 1.0000
   0  -1  10    106.09   0.00          0.00  1.  0.00  0.   16.27 1.0000
   0  -1  10     92.74   0.00          0.00  1.  0.00  0.   14.25 1.0000
   0  -1  10     72.08   0.00          0.00  1.  0.00  0.   14.43 1.0000
   0  -1  11    362.90   0.00          0.00  1.  0.00  0.   29.72 1.0000
   0  -1  11    429.73   0.00          0.00  1.  0.00  0.   32.75 1.0000
   0  -1  12    475.24   0.00          0.00  1.  0.00  0.   36.62 1.0000
   0  -1  13    480.05   0.00          0.00  1.  0.00  0.   38.12 1.0000
   0   0 -14     11.49   0.00          0.00  1.  0.00  0.   15.73 1.0000
   0   0 -13     93.12   0.00          0.00  1.  0.00  0.   18.14 1.0000
   0   0 -12    751.86   0.00          0.00  1.  0.00  0.   47.71 1.0000
   0   0 -12    740.38   0.00          0.00  1.  0.00  0.   48.43 1.0000
   0   0 -11     20.07   0.00          0.00  1.  0.00  0.   12.63 1.0000
   0   0 -11     -4.08   0.00          0.00  1.  0.00  0.    7.96 1.0000
   0   0 -11      9.24   0.00          0.00  1.  0.00  0.   13.32 1.0000
   0   0 -10     83.72   0.00          0.00  1.  0.00  0.   12.63 1.0000
   0   0 -10     94.48   0.00          0.00  1.  0.00  0.    7.78 1.0000
   0   0 -10     92.35   0.00          0.00  1.  0.00  0.   16.14 1.0000
   0   0 -10    120.56   0.00          0.00  1.  0.00  0.   17.35 1.0000
   0   0  -9     -0.11   0.00          0.00  1.  0.00  0.   11.99 1.0000
   0   0  -9      6.81   0.00          0.00  1.  0.00  0.    3.86 1.0000
   0   0  -9      1.80   0.00          0.00  1.  0.00  0.   10.56 1.0000
   0   0  -9      8.70   0.00          0.00  1.  0.00  0.    7.61 1.0000
   0   0  -8    129.73   0.00          0.00  1.  0.00  0.   17.09 1.0000
   0   0  -8    133.17   0.00          0.00  1.  0.00  0.   16.16 1.0000
   0   0  -8    135.96   0.00          0.00  1.  0.00  0.   13.99 1.0000
   0   0  -7    652.29   0.00          0.00  1.  0.00  0.   37.80 1.0000
   0   0  -7    616.53   0.00          0.00  1.  0.00  0.   36.25 1.0000
   0   0  -7    667.19   0.00          0.00  1.  0.00  0.   37.71 1.0000
   0   0  -6   3039.32   0.00          0.00  1.  0.00  0.  138.93 1.0000
   0   0  -6   2926.81   0.00          0.00  1.  0.00  0.  138.50 1.0000
   0   0  -6   3061.41   0.00          0.00  1.  0.00  0.  138.33 1.0000
   0   0  -5   3155.07   0.00          0.00  1.  0.00  0.  141.55 1.0000
   0   0  -5   3133.76   0.00          0.00  1.  0.00  0.  142.19 1.0000
   0   0  -5   3084.69   0.00          0.00  1.  0.00  0.  142.18 1.0000
   0   0  -4    582.74   0.00          0.00  1.  0.00  0.   30.90 1.0000
   0   0  -4    576.48   0.00          0.00  1.  0.00  0.   30.25 1.0000
   0   0  -4    606.14   0.00          0.00  1.  0.00  0.   30.53 1.0000
   0   0  -3    185.23   0.00          0.00  1.  0.00  0.   12.79 1.0000
   0   0  -3    170.56   0.00          0.00  1.  0.00  0.   11.75 1.0000
   0   0  -3    180.90   0.00          0.00  1.  0.00  0.   12.10 1.0000
   0   0  -2   8460.32   0.00          0.00  1.  0.00  0.  371.60 1.0000
   0   0  -2   8184.82   0.00          0.00  1.  0.00  0.  372.74 1.0000
   0   0  -2   8445.61   0.00          0.00  1.  0.00  0.  371.28 1.0000
   0   0  -1   5662.56   0.00          0.00  1.  0.00  0.  246.82 1.0000
   0   0   1   5677.62   0.00          0.00  1.  0.00  0.  245.64 1.0000
   0   0   1   5803.39   0.00          0.00  1.  0.00  0.  245.30 1.0000
   0   0   1   5205.62   0.00          0.00  1.  0.00  0.  246.75 1.0000
   0   0   2   8352.13   0.00          0.00  1.  0.00  0.  372.87 1.0000
   0   0   2   8649.00   0.00          0.00  1.  0.00  0.  372.00 1.0000
   0   0   2   8725.43   0.00          0.00  1.  0.00  0.  371.77 1.0000
   0   0   3    172.92   0.00          0.00  1.  0.00  0.    8.94 1.0000
   0   0   3    206.78   0.00          0.00  1.  0.00  0.   12.65 1.0000
   0   0   3    174.77   0.00          0.00  1.  0.00  0.   11.90 1.0000
   0   0   3    176.36   0.00          0.00  1.  0.00  0.   11.95 1.0000
   0   0   4    568.82   0.00          0.00  1.  0.00  0.   26.24 1.0000
   0   0   4    583.71   0.00          0.00  1.  0.00  0.   30.44 1.0000
   0   0   4    565.01   0.00          0.00  1.  0.00  0.   30.43 1.0000
   0   0   4    578.88   0.00          0.00  1.  0.00  0.   30.32 1.0000
   0   0   5   3027.20   0.00          0.00  1.  0.00  0.  141.95 1.0000
   0   0   5   3071.38   0.00          0.00  1.  0.00  0.  141.88 1.0000
   0   0   5   3188.86   0.00          0.00  1.  0.00  0.  142.30 1.0000
   0   0   6   3025.00   0.00          0.00  1.  0.00  0.  138.60 1.0000
   0   0   6   2964.80   0.00          0.00  1.  0.00  0.  138.30 1.0000
   0   0   6   2944.15   0.00          0.00  1.  0.00  0.  138.91 1.0000
   0   0   7    626.00   0.00          0.00  1.  0.00  0.   36.53 1.0000
   0   0   7    629.51   0.00          0.00  1.  0.00  0.   36.63 1.0000
   0   0   7    668.22   0.00          0.00  1.  0.00  0.   37.74 1.0000
   0   0   8    152.52   0.00          0.00  1.  0.00  0.   17.29 1.0000
   0   0   8    136.89   0.00          0.00  1.  0.00  0.   14.51 1.0000
   0   0   8    141.61   0.00          0.00  1.  0.00  0.   14.28 1.0000
   0   0   9     17.64   0.00          0.00  1.  0.00  0.    9.07 1.0000
   0   0   9     19.36   0.00          0.00  1.  0.00  0.   11.97 1.0000
   0   0   9     10.63   0.00          0.00  1.  0.00  0.    7.56 1.0000
   0   0  10     95.65   0.00          0.00  1.  0.00  0.   16.82 1.0000
   0   0  10     99.00   0.00          0.00  1.  0.00  0.   13.53 1.0000
   0   0  10    103.23   0.00          0.00  1.  0.00  0.   14.22 1.0000
   0   0  11      8.64   0.00          0.00  1.  0.00  0.   12.23 1.0000
   0   0  11     -0.04   0.00          0.00  1.  0.00  0.    8.10 1.0000
   0   0  11      7.18   0.00          0.00  1.  0.00  0.    8.20 1.0000
   0   0  12    737.67   0.00          0.00  1.  0.00  0.   48.34 1.0000
   0   0  13     66.91   0.00          0.00  1.  0.00  0.   17.67 1.0000
   0   1 -13    468.72   0.00          0.00  1.  0.00  0.   36.81 1.0000
   0   1 -13    487.97   0.00          0.00  1.  0.00  0.   37.11 1.0000
   0   1 -12    534.53   0.00          0.00  1.  0.00  0.   36.53 1.0000
   0   1 -12    477.86   0.00          0.00  1.  0.00  0.   35.85 1.0000
   0   1 -11    340.40   0.00          0.00  1.  0.00  0.   28.78 1.0000
   0   1 -11    406.43   0.00          0.00  1.  0.00  0.   32.26 1.0000
   0   1 -11    419.43   0.00          0.00  1.  0.00  0.   31.54 1.0000
   0   1 -11    392.04   0.00          0.00  1.  0.00  0.   23.36 1.0000
   0   1 -10    104.86   0.00          0.00  1.  0.00  0.   17.41 1.0000
   0   1 -10     88.92   0.00          0.00  1.  0.00  0.    9.24 1.0000
   0   1 -10    102.41   0.00          0.00  1.  0.00  0.   15.79 1.0000
   0   1 -10     89.49   0.00          0.00  1.  0.00  0.   14.95 1.0000
   0   1  -5   3091.36   0.00          0.00  1.  0.00  0.  139.00 1.0000
   0   1  -5   2983.34   0.00          0.00  1.  0.00  0.  138.73 1.0000
   0   1  -5   3050.35   0.00          0.00  1.  0.00  0.  140.28 1.0000
   0   1  -3    251.86   0.00          0.00  1.  0.00  0.   15.24 1.0000
   0   1  -3    236.54   0.00          0.00  1.  0.00  0.   14.46 1.0000
   0   1  -3    242.74   0.00          0.00  1.  0.00  0.   16.51 1.0000
   0   1  -3    248.69   0.00          0.00  1.  0.00  0.   13.88 1.0000
   0   1   0   9523.81   0.00          0.00  1.  0.00  0.  425.49 1.0000
   0   1   0   9660.92   0.00          0.00  1.  0.00  0.  467.86 1.0000
   0   1  10     73.79   0.00          0.00  1.  0.00  0.   12.20 1.0000
   0   1  10     86.49   0.00          0.00  1.  0.00  0.   14.51 1.0000
   0   1  10    113.64   0.00          0.00  1.  0.00  0.   17.06 1.0000
   0   1  12    491.95   0.00          0.00  1.  0.00  0.   36.38 1.0000
   0   1  14    127.01   0.00          0.00  1.  0.00  0.   22.31 1.0000
   0   2 -12    406.43   0.00          0.00  1.  0.00  0.   33.87 1.0000
   0   2 -12    413.72   0.00          0.00  1.  0.00  0.   32.54 1.0000
   0   2 -11   1105.56   0.00          0.00  1.  0.00  0.   62.51 1.0000
   0   2 -11   1029.13   0.00          0.00  1.  0.00  0.   56.46 1.0000
   0   2 -11   1134.34   0.00          0.00  1.  0.00  0.   63.99 1.0000
   0   2 -10    262.44   0.00          0.00  1.  0.00  0.   23.65 1.0000
   0   2 -10    308.70   0.00          0.00  1.  0.00  0.   21.08 1.0000
   0   2 -10    335.99   0.00          0.00  1.  0.00  0.   27.13 1.0000
   0   2 -10    315.77   0.00          0.00  1.  0.00  0.   28.43 1.0000
   0   2  -8     95.26   0.00          0.00  1.  0.00  0.   12.69 1.0000
   0   2  -8    143.28   0.00          0.00  1.  0.00  0.   18.91 1.0000
   0   2  -8    115.35   0.00          0.00  1.  0.00  0.   15.68 1.0000
   0   2  -7    187.96   0.00          0.00  1.  0.00  0.   17.82 1.0000
   0   2  -7    207.36   0.00          0.00  1.  0.00  0.   19.01 1.0000
   0   2  -7    192.93   0.00          0.00  1.  0.00  0.   20.28 1.0000
   0   2  -7    196.28   0.00          0.00  1.  0.00  0.   16.25 1.0000
   0   2  -5   2411.79   0.00          0.00  1.  0.00  0.  116.88 1.0000
   0   2  -5   2352.25   0.00          0.00  1.  0.00  0.  111.55 1.0000
   0   2  -5   2418.67   0.00          0.00  1.  0.00  0.  110.16 1.0000
   0   2  -5   2357.10   0.00          0.00  1.  0.00  0.  111.66 1.0000
   0   2  -5   2416.71   0.00          0.00  1.  0.00  0.  114.05 1.0000
   0   2   0    656.38   0.00          0.00  1.  0.00  0.   34.33 1.0000
   0   2   0    646.18   0.00          0.00  1.  0.00  0.   35.59 1.0000
   0   2   0    656.38   0.00          0.00  1.  0.00  0.   32.79 1.0000
   0   2   0    672.88   0.00          0.00  1.  0.00  0.   31.65 1.0000
   0   2   7    216.68   0.00          0.00  1.  0.00  0.   17.08 1.0000
   0   2   7    236.24   0.00          0.00  1.  0.00  0.   17.52 1.0000
   0   2   7    231.95   0.00          0.00  1.  0.00  0.   11.57 1.0000
   0   2   8    158.51   0.00          0.00  1.  0.00  0.   15.36 1.0000
   0   2   8    151.78   0.00          0.00  1.  0.00  0.   16.26 1.0000
   0   2   8    147.62   0.00          0.00  1.  0.00  0.   14.09 1.0000
   0   2  12    374.81   0.00          0.00  1.  0.00  0.   30.20 1.0000
   0   2  12    386.12   0.00          0.00  1.  0.00  0.   30.26 1.0000
   0   2  14     44.76   0.00          0.00  1.  0.00  0.   15.25 1.0000
   0   3 -11    229.22   0.00          0.00  1.  0.00  0.   25.44 1.0000
   0   3 -11    174.77   0.00          0.00  1.  0.00  0.   16.92 1.0000
   0   3 -11    172.40   0.00          0.00  1.  0.00  0.   21.01 1.0000
   0   3 -10     32.04   0.00          0.00  1.  0.00  0.   16.53 1.0000
   0   3 -10     32.83   0.00          0.00  1.  0.00  0.    5.84 1.0000
   0   3 -10     38.07   0.00          0.00  1.  0.00  0.   13.33 1.0000
   0   3 -10     21.07   0.00          0.00  1.  0.00  0.    9.18 1.0000
   0   3  -6   1196.47   0.00          0.00  1.  0.00  0.   60.88 1.0000
   0   3  -6   1224.30   0.00          0.00  1.  0.00  0.   63.68 1.0000
   0   3  -6   1178.55   0.00          0.00  1.  0.00  0.   60.42 1.0000
   0   3  -6   1190.94   0.00          0.00  1.  0.00  0.   59.36 1.0000
   0   3  -6   1177.86   0.00          0.00  1.  0.00  0.   63.15 1.0000
   0   3  -5    746.93   0.00          0.00  1.  0.00  0.   39.36 1.0000
   0   3  -5    731.70   0.00          0.00  1.  0.00  0.   41.66 1.0000
   0   3  -5    732.78   0.00          0.00  1.  0.00  0.   41.15 1.0000
   0   3  -5    723.07   0.00          0.00  1.  0.00  0.   39.26 1.0000
   0   3  -5    726.30   0.00          0.00  1.  0.00  0.   39.35 1.0000
   0   3  -3    924.77   0.00          0.00  1.  0.00  0.   49.87 1.0000
   0   3  -3    895.21   0.00          0.00  1.  0.00  0.   44.88 1.0000
   0   3  -3    915.67   0.00          0.00  1.  0.00  0.   44.78 1.0000
   0   3  -3    922.94   0.00          0.00  1.  0.00  0.   48.00 1.0000
   0   3  -3    892.22   0.00          0.00  1.  0.00  0.   53.77 1.0000
   0   3  -3    989.10   0.00          0.00  1.  0.00  0.   47.80 1.0000
   0   3   0   2092.15   0.00          0.00  1.  0.00  0.   95.14 1.0000
   0   3   0   2034.91   0.00          0.00  1.  0.00  0.   99.24 1.0000
   0   3   0   1973.14   0.00          0.00  1.  0.00  0.   92.39 1.0000
   0   3   0   2034.01   0.00          0.00  1.  0.00  0.  102.83 1.0000
   0   3  11    194.88   0.00          0.00  1.  0.00  0.   20.38 1.0000
   0   3  11    201.07   0.00          0.00  1.  0.00  0.   19.57 1.0000
   0   3  12     82.81   0.00          0.00  1.  0.00  0.   14.38 1.0000
   0   3  12     84.09   0.00          0.00  1.  0.00  0.   15.04 1.0000
   0   3  13    231.65   0.00          0.00  1.  0.00  0.   25.57 1.0000
   0   3  14    -18.40   0.00          0.00  1.  0.00  0.   16.30 1.0000
   0   4  -8    641.10   0.00          0.00  1.  0.00  0.   38.99 1.0000
   0   4  -8    613.06   0.00          0.00  1.  0.00  0.   40.11 1.0000
   0   4  -8    669.77   0.00          0.00  1.  0.00  0.   42.96 1.0000
   0   4  -8    667.19   0.00          0.00  1.  0.00  0.   39.78 1.0000
   0   4  -6    832.90   0.00          0.00  1.  0.00  0.   52.53 1.0000
   0   4  -6    928.42   0.00          0.00  1.  0.00  0.   51.19 1.0000
   0   4  -6    876.75   0.00          0.00  1.  0.00  0.   46.78 1.0000
   0   4  -6    838.10   0.00          0.00  1.  0.00  0.   50.37 1.0000
   0   4  -6    845.06   0.00          0.00  1.  0.00  0.   47.67 1.0000
   0   4  -6    903.60   0.00          0.00  1.  0.00  0.   47.49 1.0000
   0   4  -5   1013.15   0.00          0.00  1.  0.00  0.   57.93 1.0000
   0   4  -5    989.10   0.00          0.00  1.  0.00  0.   61.64 1.0000
   0   4  -5   1098.92   0.00          0.00  1.  0.00  0.   57.68 1.0000
   0   4  -5   1070.60   0.00          0.00  1.  0.00  0.   53.66 1.0000
   0   4  -5   1062.11   0.00          0.00  1.  0.00  0.   56.05 1.0000
   0   4  -5   1052.35   0.00          0.00  1.  0.00  0.   53.20 1.0000
   0   4  -4    853.81   0.00          0.00  1.  0.00  0.   47.34 1.0000
   0   4  -4    860.84   0.00          0.00  1.  0.00  0.   49.29 1.0000
   0   4  -4    874.98   0.00          0.00  1.  0.00  0.   47.33 1.0000
   0   4  -4    836.94   0.00          0.00  1.  0.00  0.   43.40 1.0000
   0   4  -4    882.09   0.00          0.00  1.  0.00  0.   43.96 1.0000
   0   4  -3    428.08   0.00          0.00  1.  0.00  0.   23.59 1.0000
   0   4  -3    430.15   0.00          0.00  1.  0.00  0.   23.64 1.0000
   0   4  -3    428.08   0.00          0.00  1.  0.00  0.   27.31 1.0000
   0   4  -3    434.72   0.00          0.00  1.  0.00  0.   28.36 1.0000
   0   4  -3    447.32   0.00          0.00  1.  0.00  0.   29.19 1.0000
   0   4   0   1898.34   0.00          0.00  1.  0.00  0.  100.21 1.0000
   0   4   0   1967.81   0.00          0.00  1.  0.00  0.   93.16 1.0000
   0   4   0   1918.44   0.00          0.00  1.  0.00  0.   96.36 1.0000
   0   4   0   1975.80   0.00          0.00  1.  0.00  0.   89.79 1.0000
   0   4   8    705.43   0.00          0.00  1.  0.00  0.   38.25 1.0000
   0   4   8    650.25   0.00          0.00  1.  0.00  0.   37.23 1.0000
   0   4   8    624.00   0.00          0.00  1.  0.00  0.   35.97 1.0000
   0   4   8    669.26   0.00          0.00  1.  0.00  0.   34.67 1.0000
   0   4  12    211.12   0.00          0.00  1.  0.00  0.   21.21 1.0000
   0   4  12    263.74   0.00          0.00  1.  0.00  0.   25.01 1.0000
   0   4  13     69.72   0.00          0.00  1.  0.00  0.   15.87 1.0000
   0   4  14    150.55   0.00          0.00  1.  0.00  0.   22.33 1.0000
   0   5 -11      6.10   0.00          0.00  1.  0.00  0.   17.88 1.0000
   0   5  -7    444.37   0.00          0.00  1.  0.00  0.   30.36 1.0000
   0   5  -7    419.43   0.00          0.00  1.  0.00  0.   31.95 1.0000
   0   5  -7    441.84   0.00          0.00  1.  0.00  0.   30.27 1.0000
   0   5  -7    474.80   0.00          0.00  1.  0.00  0.   33.56 1.0000
   0   5  -6    513.02   0.00          0.00  1.  0.00  0.   30.80 1.0000
   0   5  -6    528.08   0.00          0.00  1.  0.00  0.   35.85 1.0000
   0   5  -6    523.04   0.00          0.00  1.  0.00  0.   34.31 1.0000
   0   5  -6    513.48   0.00          0.00  1.  0.00  0.   35.35 1.0000
   0   5  -6    461.39   0.00          0.00  1.  0.00  0.   30.07 1.0000
   0   5  -3   1209.65   0.00          0.00  1.  0.00  0.   56.34 1.0000
   0   5  -3   1162.13   0.00          0.00  1.  0.00  0.   60.68 1.0000
   0   5  -3   1226.40   0.00          0.00  1.  0.00  0.   56.03 1.0000
   0   5  -3   1160.76   0.00          0.00  1.  0.00  0.   62.69 1.0000
   0   5  -3   1173.06   0.00          0.00  1.  0.00  0.   65.07 1.0000
   0   5  -2    807.70   0.00          0.00  1.  0.00  0.   44.90 1.0000
   0   5  -2    824.26   0.00          0.00  1.  0.00  0.   47.08 1.0000
   0   5  -2    784.00   0.00          0.00  1.  0.00  0.   42.00 1.0000
   0   5  -2    783.44   0.00          0.00  1.  0.00  0.   37.51 1.0000
   0   5  -2    789.05   0.00          0.00  1.  0.00  0.   37.08 1.0000
   0   5  -1    611.57   0.00          0.00  1.  0.00  0.   33.63 1.0000
   0   5  -1    621.50   0.00          0.00  1.  0.00  0.   38.89 1.0000
   0   5  -1    593.41   0.00          0.00  1.  0.00  0.   37.03 1.0000
   0   5  -1    585.64   0.00          0.00  1.  0.00  0.   36.30 1.0000
   0   5   0    878.53   0.00          0.00  1.  0.00  0.   49.20 1.0000
   0   5   0    902.40   0.00          0.00  1.  0.00  0.   45.66 1.0000
   0   5   0    900.00   0.00          0.00  1.  0.00  0.   52.80 1.0000
   0   5   0    909.63   0.00          0.00  1.  0.00  0.   50.67 1.0000
   0   5   7    508.95   0.00          0.00  1.  0.00  0.   28.43 1.0000
   0   5   7    481.80   0.00          0.00  1.  0.00  0.   26.78 1.0000
   0   5   7    509.40   0.00          0.00  1.  0.00  0.   29.79 1.0000
   0   5   7    523.95   0.00          0.00  1.  0.00  0.   28.38 1.0000
   0   5   9     80.46   0.00          0.00  1.  0.00  0.   10.41 1.0000
   0   5   9     87.61   0.00          0.00  1.  0.00  0.   11.23 1.0000
   0   5   9     85.38   0.00          0.00  1.  0.00  0.   10.72 1.0000
   0   5   9     94.48   0.00          0.00  1.  0.00  0.   13.02 1.0000
   0   5  10     53.58   0.00          0.00  1.  0.00  0.    8.93 1.0000
   0   5  10     45.83   0.00          0.00  1.  0.00  0.   11.78 1.0000
   0   5  10     61.00   0.00          0.00  1.  0.00  0.   10.78 1.0000
   0   5  10     62.73   0.00          0.00  1.  0.00  0.   13.15 1.0000
   0   5  11     47.47   0.00          0.00  1.  0.00  0.   13.09 1.0000
   0   5  11     44.22   0.00          0.00  1.  0.00  0.   10.64 1.0000
   0   5  12    346.33   0.00          0.00  1.  0.00  0.   28.29 1.0000
   0   5  12    337.82   0.00          0.00  1.  0.00  0.   26.10 1.0000
   0   5  13    384.94   0.00          0.00  1.  0.00  0.   32.18 1.0000
   0   6  -4    402.80   0.00          0.00  1.  0.00  0.   23.28 1.0000
   0   6  -4    448.59   0.00          0.00  1.  0.00  0.   29.65 1.0000
   0   6  -4    361.76   0.00          0.00  1.  0.00  0.   30.43 1.0000
   0   6  -4    415.75   0.00          0.00  1.  0.00  0.   30.99 1.0000
   0   6  -4    395.21   0.00          0.00  1.  0.00  0.   23.46 1.0000
   0   6  -3   1008.06   0.00          0.00  1.  0.00  0.   49.53 1.0000
   0   6  -3   1031.05   0.00          0.00  1.  0.00  0.   55.87 1.0000
   0   6  -3   1024.64   0.00          0.00  1.  0.00  0.   58.26 1.0000
   0   6  -3   1064.72   0.00          0.00  1.  0.00  0.   60.69 1.0000
   0   6  -3   1019.52   0.00          0.00  1.  0.00  0.   49.17 1.0000
   0   6   0   1283.07   0.00          0.00  1.  0.00  0.   63.76 1.0000
   0   6   0   1311.89   0.00          0.00  1.  0.00  0.   70.99 1.0000
   0   6   0   1275.92   0.00          0.00  1.  0.00  0.   73.58 1.0000
   0   6   0   1265.94   0.00          0.00  1.  0.00  0.   69.03 1.0000
   0   6   1    843.90   0.00          0.00  1.  0.00  0.   48.22 1.0000
   0   6   1    816.82   0.00          0.00  1.  0.00  0.   49.16 1.0000
   0   6   1    786.80   0.00          0.00  1.  0.00  0.   50.49 1.0000
   0   6   1    814.53   0.00          0.00  1.  0.00  0.   41.67 1.0000
   0   6   8    105.06   0.00          0.00  1.  0.00  0.   10.45 1.0000
   0   6   8    100.00   0.00          0.00  1.  0.00  0.   11.40 1.0000
   0   6   8    106.71   0.00          0.00  1.  0.00  0.   14.26 1.0000
   0   6   8    115.78   0.00          0.00  1.  0.00  0.   12.70 1.0000
   0   6  10    430.56   0.00          0.00  1.  0.00  0.   29.46 1.0000
   0   6  10    378.69   0.00          0.00  1.  0.00  0.   26.08 1.0000
   0   6  10    365.96   0.00          0.00  1.  0.00  0.   24.87 1.0000
   0   6  10    406.02   0.00          0.00  1.  0.00  0.   28.21 1.0000
   0   6  11    129.05   0.00          0.00  1.  0.00  0.   13.18 1.0000
   0   6  11     95.26   0.00          0.00  1.  0.00  0.   15.81 1.0000
   0   7  -7     52.27   0.00          0.00  1.  0.00  0.   15.47 1.0000
   0   7  -6     62.09   0.00          0.00  1.  0.00  0.   15.44 1.0000
   0   7  -6     72.59   0.00          0.00  1.  0.00  0.   17.72 1.0000
   0   7  -6     59.44   0.00          0.00  1.  0.00  0.    9.87 1.0000
   0   7  -5     24.70   0.00          0.00  1.  0.00  0.   11.93 1.0000
   0   7  -5     11.49   0.00          0.00  1.  0.00  0.   12.61 1.0000
   0   7  -5     16.32   0.00          0.00  1.  0.00  0.    6.46 1.0000
   0   7  -4    276.22   0.00          0.00  1.  0.00  0.   17.62 1.0000
   0   7  -4    284.60   0.00          0.00  1.  0.00  0.   23.28 1.0000
   0   7  -4    318.98   0.00          0.00  1.  0.00  0.   28.58 1.0000
   0   7  -4    299.64   0.00          0.00  1.  0.00  0.   18.00 1.0000
   0   7   0     10.76   0.00          0.00  1.  0.00  0.   12.00 1.0000
   0   7   0     19.18   0.00          0.00  1.  0.00  0.   12.79 1.0000
   0   7   0      0.22   0.00          0.00  1.  0.00  0.    7.50 1.0000
   0   7   3    329.06   0.00          0.00  1.  0.00  0.   28.66 1.0000
   0   7   3    357.21   0.00          0.00  1.  0.00  0.   20.41 1.0000
   0   7   3    328.70   0.00          0.00  1.  0.00  0.   29.01 1.0000
   0   7   3    323.64   0.00          0.00  1.  0.00  0.   25.91 1.0000
   0   7   5     32.26   0.00          0.00  1.  0.00  0.   14.43 1.0000
   0   7   5     21.90   0.00          0.00  1.  0.00  0.   10.76 1.0000
   0   7   5     19.71   0.00          0.00  1.  0.00  0.    5.51 1.0000
   0   7   6     49.98   0.00          0.00  1.  0.00  0.   14.28 1.0000
   0   7   6     43.03   0.00          0.00  1.  0.00  0.    5.51 1.0000
   0   7   6     46.38   0.00          0.00  1.  0.00  0.    5.72 1.0000
   0   7   6     40.58   0.00          0.00  1.  0.00  0.    6.12 1.0000
   0   7   7     68.06   0.00          0.00  1.  0.00  0.    8.09 1.0000
   0   7   7     58.98   0.00          0.00  1.  0.00  0.    7.68 1.0000
   0   7   7     60.53   0.00          0.00  1.  0.00  0.   12.76 1.0000
   0   7   7     68.39   0.00          0.00  1.  0.00  0.    8.27 1.0000
   0   7   8     64.00   0.00          0.00  1.  0.00  0.    8.48 1.0000
   0   7   8     94.09   0.00          0.00  1.  0.00  0.   10.67 1.0000
   0   7   8     76.91   0.00          0.00  1.  0.00  0.   14.38 1.0000
   0   7   8     84.64   0.00          0.00  1.  0.00  0.   10.30 1.0000
   0   7   9    113.00   0.00          0.00  1.  0.00  0.   15.52 1.0000
   0   7   9    124.55   0.00          0.00  1.  0.00  0.   13.84 1.0000
   0   7  10    100.20   0.00          0.00  1.  0.00  0.   15.82 1.0000
   0   8  -5    231.04   0.00          0.00  1.  0.00  0.   24.93 1.0000
   0   8  -5    211.41   0.00          0.00  1.  0.00  0.   23.85 1.0000
   0   8  -3    468.29   0.00          0.00  1.  0.00  0.   38.09 1.0000
   0   8  -3    494.17   0.00          0.00  1.  0.00  0.   33.35 1.0000
   0   8   0    414.94   0.00          0.00  1.  0.00  0.   33.41 1.0000
   0   8   0    349.69   0.00          0.00  1.  0.00  0.   24.68 1.0000
   0   8   3    541.03   0.00          0.00  1.  0.00  0.   38.15 1.0000
   0   8   3    499.08   0.00          0.00  1.  0.00  0.   27.70 1.0000
   0   8   5    269.94   0.00          0.00  1.  0.00  0.   15.77 1.0000
   0   8   5    263.41   0.00          0.00  1.  0.00  0.   23.37 1.0000
   0   8   5    255.04   0.00          0.00  1.  0.00  0.   25.55 1.0000
   0   8   7    332.33   0.00          0.00  1.  0.00  0.   29.17 1.0000
   0   8   8    153.26   0.00          0.00  1.  0.00  0.   19.07 1.0000
   0   8   9    163.84   0.00          0.00  1.  0.00  0.   20.22 1.0000
   0   8  10    181.71   0.00          0.00  1.  0.00  0.   21.57 1.0000
   0   9  -3    249.64   0.00          0.00  1.  0.00  0.   23.70 1.0000
   0   9  -3    238.08   0.00          0.00  1.  0.00  0.   27.16 1.0000
   0   9  -2     74.48   0.00          0.00  1.  0.00  0.   17.26 1.0000
   0   9  -2     45.16   0.00          0.00  1.  0.00  0.   11.56 1.0000
   0   9  -1     83.36   0.00          0.00  1.  0.00  0.   13.33 1.0000
   0   9  -1     77.62   0.00          0.00  1.  0.00  0.   21.14 1.0000
   0   9   0     50.13   0.00          0.00  1.  0.00  0.   10.76 1.0000
   0   9   0      6.20   0.00          0.00  1.  0.00  0.   17.38 1.0000
   0   9   1    110.88   0.00          0.00  1.  0.00  0.   13.06 1.0000
   0   9   4    349.32   0.00          0.00  1.  0.00  0.   33.27 1.0000
   0   9   5    388.09   0.00          0.00  1.  0.00  0.   33.88 1.0000
   0   9   6    245.24   0.00          0.00  1.  0.00  0.   27.25 1.0000
   0   9   7    329.42   0.00          0.00  1.  0.00  0.   31.94 1.0000
   0   9   8     44.76   0.00          0.00  1.  0.00  0.   17.26 1.0000
   1  -8 -10     -3.53   0.00          0.00  1.  0.00  0.    8.69 1.0000
   1  -8 -10     -9.30   0.00          0.00  1.  0.00  0.   13.36 1.0000
   1  -8  -9    277.56   0.00          0.00  1.  0.00  0.   19.66 1.0000
   1  -8  -9    273.57   0.00          0.00  1.  0.00  0.   33.08 1.0000
   1  -8  -8    460.96   0.00          0.00  1.  0.00  0.   42.08 1.0000
   1  -8  -8    392.83   0.00          0.00  1.  0.00  0.   24.18 1.0000
   1  -8  -7    163.58   0.00          0.00  1.  0.00  0.   23.02 1.0000
   1  -8  -7    119.03   0.00          0.00  1.  0.00  0.    9.60 1.0000
   1  -8   2    310.46   0.00          0.00  1.  0.00  0.   29.95 1.0000
   1  -8   3    120.56   0.00          0.00  1.  0.00  0.   21.52 1.0000
   1  -8   4     32.49   0.00          0.00  1.  0.00  0.   16.07 1.0000
   1  -8   6    155.25   0.00          0.00  1.  0.00  0.   23.42 1.0000
   1  -8   6    133.63   0.00          0.00  1.  0.00  0.   13.18 1.0000
   1  -7 -11    433.47   0.00          0.00  1.  0.00  0.   30.81 1.0000
   1  -7 -11    407.64   0.00          0.00  1.  0.00  0.   40.78 1.0000
   1  -7 -10     10.96   0.00          0.00  1.  0.00  0.   11.25 1.0000
   1  -7  -9    333.06   0.00          0.00  1.  0.00  0.   24.09 1.0000
   1  -7  -9    366.72   0.00          0.00  1.  0.00  0.   35.62 1.0000
   1  -7  -7    399.60   0.00          0.00  1.  0.00  0.   24.39 1.0000
   1  -7  -7    430.56   0.00          0.00  1.  0.00  0.   38.60 1.0000
   1  -7  -7    448.17   0.00          0.00  1.  0.00  0.   25.40 1.0000
   1  -7  -6    187.42   0.00          0.00  1.  0.00  0.   13.42 1.0000
   1  -7  -6    223.50   0.00          0.00  1.  0.00  0.   25.42 1.0000
   1  -7  -5      9.24   0.00          0.00  1.  0.00  0.   15.32 1.0000
   1  -7   2    332.70   0.00          0.00  1.  0.00  0.   29.18 1.0000
   1  -7   4    632.52   0.00          0.00  1.  0.00  0.   37.72 1.0000
   1  -7   4    664.61   0.00          0.00  1.  0.00  0.   45.37 1.0000
   1  -7   4    603.19   0.00          0.00  1.  0.00  0.   31.44 1.0000
   1  -7   5    277.22   0.00          0.00  1.  0.00  0.   29.30 1.0000
   1  -7   5    252.17   0.00          0.00  1.  0.00  0.   23.18 1.0000
   1  -7   5    247.43   0.00          0.00  1.  0.00  0.   17.93 1.0000
   1  -7   6    393.63   0.00          0.00  1.  0.00  0.   25.40 1.0000
   1  -7   6    416.98   0.00          0.00  1.  0.00  0.   35.53 1.0000
   1  -7   7    118.16   0.00          0.00  1.  0.00  0.   21.74 1.0000
   1  -7   7    137.83   0.00          0.00  1.  0.00  0.   15.26 1.0000
   1  -6 -12    125.44   0.00          0.00  1.  0.00  0.   18.59 1.0000
   1  -6 -11    191.82   0.00          0.00  1.  0.00  0.   20.78 1.0000
   1  -6 -10    364.81   0.00          0.00  1.  0.00  0.   27.89 1.0000
   1  -6  -9    192.10   0.00          0.00  1.  0.00  0.   18.30 1.0000
   1  -6  -9    205.35   0.00          0.00  1.  0.00  0.   19.20 1.0000
   1  -6  -8   1620.06   0.00          0.00  1.  0.00  0.   79.69 1.0000
   1  -6  -8   1596.80   0.00          0.00  1.  0.00  0.   79.12 1.0000
   1  -6   3    476.99   0.00          0.00  1.  0.00  0.   25.77 1.0000
   1  -6   3    513.48   0.00          0.00  1.  0.00  0.   30.82 1.0000
   1  -6   3    517.11   0.00          0.00  1.  0.00  0.   37.29 1.0000
   1  -6   4    873.20   0.00          0.00  1.  0.00  0.   43.73 1.0000
   1  -6   4    856.73   0.00          0.00  1.  0.00  0.   43.32 1.0000
   1  -6   4    850.89   0.00          0.00  1.  0.00  0.   48.42 1.0000
   1  -6   4    916.27   0.00          0.00  1.  0.00  0.   56.30 1.0000
   1  -6   5    601.72   0.00          0.00  1.  0.00  0.   31.40 1.0000
   1  -6   5    606.64   0.00          0.00  1.  0.00  0.   31.03 1.0000
   1  -6   5    628.50   0.00          0.00  1.  0.00  0.   36.60 1.0000
   1  -5 -13     17.47   0.00          0.00  1.  0.00  0.   13.79 1.0000
   1  -5 -12     80.82   0.00          0.00  1.  0.00  0.   16.36 1.0000
   1  -5 -11     58.37   0.00          0.00  1.  0.00  0.   14.36 1.0000
   1  -5 -11     72.25   0.00          0.00  1.  0.00  0.   13.43 1.0000
   1  -5  -9     55.35   0.00          0.00  1.  0.00  0.   10.56 1.0000
   1  -5  -9     66.26   0.00          0.00  1.  0.00  0.   11.88 1.0000
   1  -5  -7     74.13   0.00          0.00  1.  0.00  0.   10.85 1.0000
   1  -5  -7     68.72   0.00          0.00  1.  0.00  0.   10.11 1.0000
   1  -5  -1   1220.10   0.00          0.00  1.  0.00  0.   68.46 1.0000
   1  -5   0    907.82   0.00          0.00  1.  0.00  0.   59.66 1.0000
   1  -5   0    919.91   0.00          0.00  1.  0.00  0.   55.81 1.0000
   1  -5   1   1688.39   0.00          0.00  1.  0.00  0.   72.32 1.0000
   1  -5   1   1584.04   0.00          0.00  1.  0.00  0.   72.44 1.0000
   1  -5   1   1698.26   0.00          0.00  1.  0.00  0.   87.37 1.0000
   1  -5   1   1620.06   0.00          0.00  1.  0.00  0.   75.67 1.0000
   1  -5   3   1211.74   0.00          0.00  1.  0.00  0.   61.96 1.0000
   1  -5   3   1199.24   0.00          0.00  1.  0.00  0.   58.87 1.0000
   1  -5   3   1270.92   0.00          0.00  1.  0.00  0.   71.30 1.0000
   1  -5   3   1273.78   0.00          0.00  1.  0.00  0.   59.25 1.0000
   1  -5   4    927.20   0.00          0.00  1.  0.00  0.   54.81 1.0000
   1  -5   4    874.38   0.00          0.00  1.  0.00  0.   47.31 1.0000
   1  -5   4    864.36   0.00          0.00  1.  0.00  0.   44.69 1.0000
   1  -5   4    862.01   0.00          0.00  1.  0.00  0.   44.04 1.0000
   1  -5   5    794.68   0.00          0.00  1.  0.00  0.   44.54 1.0000
   1  -5   5    797.50   0.00          0.00  1.  0.00  0.   41.23 1.0000
   1  -5   5    799.19   0.00          0.00  1.  0.00  0.   40.71 1.0000
   1  -5   5    880.90   0.00          0.00  1.  0.00  0.   50.46 1.0000
   1  -5   6    633.03   0.00          0.00  1.  0.00  0.   41.77 1.0000
   1  -5   6    552.25   0.00          0.00  1.  0.00  0.   36.19 1.0000
   1  -5   6    571.69   0.00          0.00  1.  0.00  0.   33.95 1.0000
   1  -5   6    587.58   0.00          0.00  1.  0.00  0.   33.94 1.0000
   1  -5   7   1208.95   0.00          0.00  1.  0.00  0.   63.98 1.0000
   1  -5   7   1242.56   0.00          0.00  1.  0.00  0.   64.15 1.0000
   1  -5   7   1311.89   0.00          0.00  1.  0.00  0.   74.61 1.0000
   1  -5   7   1174.43   0.00          0.00  1.  0.00  0.   66.48 1.0000
   1  -5  10    390.06   0.00          0.00  1.  0.00  0.   34.37 1.0000
   1  -5  10    335.26   0.00          0.00  1.  0.00  0.   30.03 1.0000
   1  -4 -13    107.54   0.00          0.00  1.  0.00  0.   19.91 1.0000
   1  -4 -12    254.40   0.00          0.00  1.  0.00  0.   24.56 1.0000
   1  -4 -12    270.93   0.00          0.00  1.  0.00  0.   24.69 1.0000
   1  -4  -9     96.04   0.00          0.00  1.  0.00  0.   14.11 1.0000
   1  -4  -9    102.82   0.00          0.00  1.  0.00  0.   15.01 1.0000
   1  -4  -5   1236.93   0.00          0.00  1.  0.00  0.   56.98 1.0000
   1  -4  -5   1306.10   0.00          0.00  1.  0.00  0.   57.82 1.0000
   1  -4  -4    764.52   0.00          0.00  1.  0.00  0.   39.82 1.0000
   1  -4  -4    804.29   0.00          0.00  1.  0.00  0.   40.27 1.0000
   1  -4   0   1778.31   0.00          0.00  1.  0.00  0.   87.71 1.0000
   1  -4   0   1753.93   0.00          0.00  1.  0.00  0.   73.71 1.0000
   1  -4   0   1760.64   0.00          0.00  1.  0.00  0.   80.56 1.0000
   1  -4   1    464.40   0.00          0.00  1.  0.00  0.   25.00 1.0000
   1  -4   1    473.50   0.00          0.00  1.  0.00  0.   32.20 1.0000
   1  -4   1    467.86   0.00          0.00  1.  0.00  0.   29.42 1.0000
   1  -4   1    466.56   0.00          0.00  1.  0.00  0.   23.33 1.0000
   1  -4   1    470.02   0.00          0.00  1.  0.00  0.   31.22 1.0000
   1  -4   3    713.96   0.00          0.00  1.  0.00  0.   35.80 1.0000
   1  -4   3    705.96   0.00          0.00  1.  0.00  0.   39.85 1.0000
   1  -4   3    669.77   0.00          0.00  1.  0.00  0.   37.78 1.0000
   1  -4   3    695.90   0.00          0.00  1.  0.00  0.   35.35 1.0000
   1  -4   3    700.66   0.00          0.00  1.  0.00  0.   42.88 1.0000
   1  -4   4   1694.97   0.00          0.00  1.  0.00  0.   93.87 1.0000
   1  -4   4   1637.01   0.00          0.00  1.  0.00  0.   84.97 1.0000
   1  -4   4   1611.22   0.00          0.00  1.  0.00  0.   84.29 1.0000
   1  -4   4   1567.37   0.00          0.00  1.  0.00  0.   81.56 1.0000
   1  -4   4   1646.74   0.00          0.00  1.  0.00  0.   81.97 1.0000
   1  -4   5    941.26   0.00          0.00  1.  0.00  0.   47.86 1.0000
   1  -4   5    931.47   0.00          0.00  1.  0.00  0.   50.05 1.0000
   1  -4   5    914.46   0.00          0.00  1.  0.00  0.   47.78 1.0000
   1  -4   5    975.94   0.00          0.00  1.  0.00  0.   56.23 1.0000
   1  -4  10    729.54   0.00          0.00  1.  0.00  0.   43.22 1.0000
   1  -4  10    690.11   0.00          0.00  1.  0.00  0.   43.08 1.0000
   1  -3 -14    221.41   0.00          0.00  1.  0.00  0.   24.11 1.0000
   1  -3 -13    272.58   0.00          0.00  1.  0.00  0.   27.74 1.0000
   1  -3 -12     26.11   0.00          0.00  1.  0.00  0.   13.59 1.0000
   1  -3 -11    178.22   0.00          0.00  1.  0.00  0.   20.03 1.0000
   1  -3 -11    158.26   0.00          0.00  1.  0.00  0.   20.38 1.0000
   1  -3  -5   1478.40   0.00          0.00  1.  0.00  0.   67.67 1.0000
   1  -3  -5   1538.99   0.00          0.00  1.  0.00  0.   68.26 1.0000
   1  -3  -3   1539.78   0.00          0.00  1.  0.00  0.   70.63 1.0000
   1  -3  -3   1585.63   0.00          0.00  1.  0.00  0.   70.88 1.0000
   1  -3   1    241.80   0.00          0.00  1.  0.00  0.   14.31 1.0000
   1  -3   1    239.32   0.00          0.00  1.  0.00  0.   13.30 1.0000
   1  -3   1    242.42   0.00          0.00  1.  0.00  0.   19.00 1.0000
   1  -3   1    249.32   0.00          0.00  1.  0.00  0.   13.26 1.0000
   1  -3   1    252.49   0.00          0.00  1.  0.00  0.   17.16 1.0000
   1  -3   2    179.56   0.00          0.00  1.  0.00  0.   17.15 1.0000
   1  -3   2    192.38   0.00          0.00  1.  0.00  0.   15.26 1.0000
   1  -3   2    195.16   0.00          0.00  1.  0.00  0.   12.01 1.0000
   1  -3   2    193.49   0.00          0.00  1.  0.00  0.   15.86 1.0000
   1  -3   2    177.69   0.00          0.00  1.  0.00  0.   12.00 1.0000
   1  -3   2    183.33   0.00          0.00  1.  0.00  0.   13.81 1.0000
   1  -3   3    467.86   0.00          0.00  1.  0.00  0.   30.71 1.0000
   1  -3   3    457.96   0.00          0.00  1.  0.00  0.   26.96 1.0000
   1  -3   3    481.80   0.00          0.00  1.  0.00  0.   27.22 1.0000
   1  -3   3    454.97   0.00          0.00  1.  0.00  0.   24.74 1.0000
   1  -3   3    487.97   0.00          0.00  1.  0.00  0.   25.18 1.0000
   1  -3   6    196.84   0.00          0.00  1.  0.00  0.   17.96 1.0000
   1  -3   6    189.34   0.00          0.00  1.  0.00  0.   16.79 1.0000
   1  -3   6    178.22   0.00          0.00  1.  0.00  0.   17.35 1.0000
   1  -3  10    666.16   0.00          0.00  1.  0.00  0.   44.91 1.0000
   1  -3  10    630.01   0.00          0.00  1.  0.00  0.   45.68 1.0000
   1  -3  12    449.44   0.00          0.00  1.  0.00  0.   38.16 1.0000
   1  -3  12    463.11   0.00          0.00  1.  0.00  0.   37.01 1.0000
   1  -3  13    333.79   0.00          0.00  1.  0.00  0.   31.79 1.0000
   1  -2 -14    149.33   0.00          0.00  1.  0.00  0.   23.95 1.0000
   1  -2 -12     49.14   0.00          0.00  1.  0.00  0.   15.28 1.0000
   1  -2 -12     72.25   0.00          0.00  1.  0.00  0.   13.94 1.0000
   1  -2  -3    301.72   0.00          0.00  1.  0.00  0.   16.68 1.0000
   1  -2  -3    292.41   0.00          0.00  1.  0.00  0.   17.10 1.0000
   1  -2  -3    284.60   0.00          0.00  1.  0.00  0.   17.21 1.0000
   1  -2  -3    305.90   0.00          0.00  1.  0.00  0.   15.74 1.0000
   1  -2   0    678.60   0.00          0.00  1.  0.00  0.   31.26 1.0000
   1  -2   0    678.60   0.00          0.00  1.  0.00  0.   33.86 1.0000
   1  -2   0    665.64   0.00          0.00  1.  0.00  0.   30.96 1.0000
   1  -2   0    670.29   0.00          0.00  1.  0.00  0.   36.76 1.0000
   1  -2   0    682.25   0.00          0.00  1.  0.00  0.   31.34 1.0000
   1  -2   1   3738.10   0.00          0.00  1.  0.00  0.  163.86 1.0000
   1  -2   1   3837.80   0.00          0.00  1.  0.00  0.  164.79 1.0000
   1  -2   1   3680.85   0.00          0.00  1.  0.00  0.  182.01 1.0000
   1  -2   1   3601.20   0.00          0.00  1.  0.00  0.  165.63 1.0000
   1  -2   1   3744.22   0.00          0.00  1.  0.00  0.  165.21 1.0000
   1  -2   2    195.44   0.00          0.00  1.  0.00  0.   12.02 1.0000
   1  -2   2    217.86   0.00          0.00  1.  0.00  0.   14.76 1.0000
   1  -2   2    199.09   0.00          0.00  1.  0.00  0.   12.70 1.0000
   1  -2   2    201.92   0.00          0.00  1.  0.00  0.   12.50 1.0000
   1  -2   4   6441.67   0.00          0.00  1.  0.00  0.  282.52 1.0000
   1  -2   4   6266.31   0.00          0.00  1.  0.00  0.  283.39 1.0000
   1  -2   4   6603.19   0.00          0.00  1.  0.00  0.  282.78 1.0000
   1  -2   4   6214.17   0.00          0.00  1.  0.00  0.  285.36 1.0000
   1  -2   5   1608.01   0.00          0.00  1.  0.00  0.   73.78 1.0000
   1  -2   5   1569.74   0.00          0.00  1.  0.00  0.   72.11 1.0000
   1  -2   5   1617.65   0.00          0.00  1.  0.00  0.   73.20 1.0000
   1  -2   5   1640.25   0.00          0.00  1.  0.00  0.   75.33 1.0000
   1  -2   6   1014.42   0.00          0.00  1.  0.00  0.   50.32 1.0000
   1  -2   6    927.20   0.00          0.00  1.  0.00  0.   47.50 1.0000
   1  -2   6    903.00   0.00          0.00  1.  0.00  0.   49.28 1.0000
   1  -2   6    948.02   0.00          0.00  1.  0.00  0.   51.73 1.0000
   1  -2   7     96.83   0.00          0.00  1.  0.00  0.   10.63 1.0000
   1  -2   7     94.28   0.00          0.00  1.  0.00  0.   14.18 1.0000
   1  -2   7    100.40   0.00          0.00  1.  0.00  0.   13.43 1.0000
   1  -2   7     98.01   0.00          0.00  1.  0.00  0.   11.68 1.0000
   1  -2   9     94.87   0.00          0.00  1.  0.00  0.   14.42 1.0000
   1  -2   9     99.00   0.00          0.00  1.  0.00  0.   17.11 1.0000
   1  -2   9     66.26   0.00          0.00  1.  0.00  0.   15.30 1.0000
   1  -2  12    184.42   0.00          0.00  1.  0.00  0.   22.54 1.0000
   1  -2  12    161.80   0.00          0.00  1.  0.00  0.   20.86 1.0000
   1  -2  13    212.28   0.00          0.00  1.  0.00  0.   24.19 1.0000
   1  -1 -14    201.64   0.00          0.00  1.  0.00  0.   23.29 1.0000
   1  -1 -12    204.78   0.00          0.00  1.  0.00  0.   24.04 1.0000
   1  -1 -12    246.49   0.00          0.00  1.  0.00  0.   24.49 1.0000
   1  -1 -11    194.60   0.00          0.00  1.  0.00  0.   21.20 1.0000
   1  -1 -11    210.25   0.00          0.00  1.  0.00  0.   20.01 1.0000
   1  -1 -11    196.28   0.00          0.00  1.  0.00  0.   21.86 1.0000
   1  -1 -10    406.02   0.00          0.00  1.  0.00  0.   27.81 1.0000
   1  -1 -10    398.80   0.00          0.00  1.  0.00  0.   27.56 1.0000
   1  -1 -10    420.66   0.00          0.00  1.  0.00  0.   29.94 1.0000
   1  -1   2     52.85   0.00          0.00  1.  0.00  0.    6.98 1.0000
   1  -1   2     75.69   0.00          0.00  1.  0.00  0.    7.13 1.0000
   1  -1   2     68.56   0.00          0.00  1.  0.00  0.    7.62 1.0000
   1  -1   4   3510.56   0.00          0.00  1.  0.00  0.  165.90 1.0000
   1  -1   4   3601.20   0.00          0.00  1.  0.00  0.  164.43 1.0000
   1  -1   4   3553.35   0.00          0.00  1.  0.00  0.  168.10 1.0000
   1  -1   4   3707.59   0.00          0.00  1.  0.00  0.  166.84 1.0000
   1  -1   5   8410.72   0.00          0.00  1.  0.00  0.  372.34 1.0000
   1  -1   5   8652.72   0.00          0.00  1.  0.00  0.  366.50 1.0000
   1  -1   5   8647.14   0.00          0.00  1.  0.00  0.  370.10 1.0000
   1  -1   5   8302.85   0.00          0.00  1.  0.00  0.  369.95 1.0000
   1  -1   7    897.60   0.00          0.00  1.  0.00  0.   47.94 1.0000
   1  -1   7    880.90   0.00          0.00  1.  0.00  0.   43.33 1.0000
   1  -1   7    879.72   0.00          0.00  1.  0.00  0.   47.46 1.0000
   1  -1   7    884.47   0.00          0.00  1.  0.00  0.   48.18 1.0000
   1  -1   9    880.31   0.00          0.00  1.  0.00  0.   43.32 1.0000
   1  -1   9    837.52   0.00          0.00  1.  0.00  0.   49.20 1.0000
   1  -1   9    891.62   0.00          0.00  1.  0.00  0.   50.76 1.0000
   1  -1   9    889.23   0.00          0.00  1.  0.00  0.   50.10 1.0000
   1  -1  12    252.17   0.00          0.00  1.  0.00  0.   24.46 1.0000
   1  -1  12    270.60   0.00          0.00  1.  0.00  0.   25.33 1.0000
   1  -1  14     32.04   0.00          0.00  1.  0.00  0.   17.66 1.0000
   1   0 -14     58.68   0.00          0.00  1.  0.00  0.   19.00 1.0000
   1   0 -13     48.16   0.00          0.00  1.  0.00  0.   16.93 1.0000
   1   0 -13     78.32   0.00          0.00  1.  0.00  0.   15.05 1.0000
   1   0 -12     97.02   0.00          0.00  1.  0.00  0.   18.32 1.0000
   1   0 -12     96.43   0.00          0.00  1.  0.00  0.   16.89 1.0000
   1   0 -11    137.12   0.00          0.00  1.  0.00  0.   19.67 1.0000
   1   0 -11    145.20   0.00          0.00  1.  0.00  0.   20.00 1.0000
   1   0 -11    179.29   0.00          0.00  1.  0.00  0.   20.35 1.0000
   1   0 -10    599.76   0.00          0.00  1.  0.00  0.   38.69 1.0000
   1   0 -10    612.56   0.00          0.00  1.  0.00  0.   40.10 1.0000
   1   0 -10    607.62   0.00          0.00  1.  0.00  0.   38.95 1.0000
   1   0  -9    176.62   0.00          0.00  1.  0.00  0.   19.14 1.0000
   1   0  -9    161.80   0.00          0.00  1.  0.00  0.   16.54 1.0000
   1   0  -9    201.64   0.00          0.00  1.  0.00  0.   18.74 1.0000
   1   0  -8    467.42   0.00          0.00  1.  0.00  0.   30.70 1.0000
   1   0  -8    469.16   0.00          0.00  1.  0.00  0.   29.89 1.0000
   1   0  -8    454.54   0.00          0.00  1.  0.00  0.   29.85 1.0000
   1   0  -7   1073.22   0.00          0.00  1.  0.00  0.   58.31 1.0000
   1   0  -7   1137.04   0.00          0.00  1.  0.00  0.   59.35 1.0000
   1   0  -7   1133.00   0.00          0.00  1.  0.00  0.   58.57 1.0000
   1   0  -6   2222.18   0.00          0.00  1.  0.00  0.  107.48 1.0000
   1   0  -6   2299.20   0.00          0.00  1.  0.00  0.  107.41 1.0000
   1   0  -6   2332.89   0.00          0.00  1.  0.00  0.  107.23 1.0000
   1   0  -6   2226.90   0.00          0.00  1.  0.00  0.  106.65 1.0000
   1   0  -5   2128.90   0.00          0.00  1.  0.00  0.   98.74 1.0000
   1   0  -5   2079.36   0.00          0.00  1.  0.00  0.   98.50 1.0000
   1   0  -5   2042.14   0.00          0.00  1.  0.00  0.   98.51 1.0000
   1   0  -4   1623.28   0.00          0.00  1.  0.00  0.   77.36 1.0000
   1   0  -4   1667.09   0.00          0.00  1.  0.00  0.   76.76 1.0000
   1   0  -4   1566.58   0.00          0.00  1.  0.00  0.   76.79 1.0000
   1   0  -3    223.20   0.00          0.00  1.  0.00  0.   14.64 1.0000
   1   0  -3    234.70   0.00          0.00  1.  0.00  0.   14.71 1.0000
   1   0  -3    237.16   0.00          0.00  1.  0.00  0.   15.09 1.0000
   1   0  -2    145.68   0.00          0.00  1.  0.00  0.   10.14 1.0000
   1   0  -2    162.05   0.00          0.00  1.  0.00  0.   11.20 1.0000
   1   0  -2    144.48   0.00          0.00  1.  0.00  0.   10.34 1.0000
   1   0  -1   1223.60   0.00          0.00  1.  0.00  0.   55.27 1.0000
   1   0  -1   1185.42   0.00          0.00  1.  0.00  0.   55.78 1.0000
   1   0  -1   1202.70   0.00          0.00  1.  0.00  0.   55.49 1.0000
   1   0   0   6774.94   0.00          0.00  1.  0.00  0.  291.38 1.0000
   1   0   3   2793.12   0.00          0.00  1.  0.00  0.  121.55 1.0000
   1   0   3   2646.07   0.00          0.00  1.  0.00  0.  121.40 1.0000
   1   0   3   2714.41   0.00          0.00  1.  0.00  0.  122.96 1.0000
   1   0   4   4653.97   0.00          0.00  1.  0.00  0.  206.02 1.0000
   1   0   4   4507.78   0.00          0.00  1.  0.00  0.  204.11 1.0000
   1   0   4   4730.69   0.00          0.00  1.  0.00  0.  204.96 1.0000
   1   0   5   8807.82   0.00          0.00  1.  0.00  0.  396.05 1.0000
   1   0   5   8613.70   0.00          0.00  1.  0.00  0.  397.23 1.0000
   1   0   5   9329.63   0.00          0.00  1.  0.00  0.  396.02 1.0000
   1   0   6     47.47   0.00          0.00  1.  0.00  0.   11.02 1.0000
   1   0   6     16.73   0.00          0.00  1.  0.00  0.    9.49 1.0000
   1   0   7    988.47   0.00          0.00  1.  0.00  0.   52.19 1.0000
   1   0   7    980.32   0.00          0.00  1.  0.00  0.   52.60 1.0000
   1   0   7   1030.41   0.00          0.00  1.  0.00  0.   53.29 1.0000
   1   0   8     55.80   0.00          0.00  1.  0.00  0.   13.60 1.0000
   1   0   8     60.53   0.00          0.00  1.  0.00  0.    6.69 1.0000
   1   0   8     62.09   0.00          0.00  1.  0.00  0.   11.50 1.0000
   1   0   8     50.55   0.00          0.00  1.  0.00  0.   10.66 1.0000
   1   0   9     60.84   0.00          0.00  1.  0.00  0.   12.32 1.0000
   1   0   9     69.89   0.00          0.00  1.  0.00  0.   14.55 1.0000
   1   0   9     51.70   0.00          0.00  1.  0.00  0.    5.61 1.0000
   1   0   9     50.13   0.00          0.00  1.  0.00  0.   13.74 1.0000
   1   0  10    152.52   0.00          0.00  1.  0.00  0.   19.02 1.0000
   1   0  10    158.00   0.00          0.00  1.  0.00  0.   16.59 1.0000
   1   0  10    137.36   0.00          0.00  1.  0.00  0.   16.88 1.0000
   1   0  11     59.91   0.00          0.00  1.  0.00  0.   15.79 1.0000
   1   0  11     54.32   0.00          0.00  1.  0.00  0.   12.53 1.0000
   1   0  11     67.90   0.00          0.00  1.  0.00  0.   14.34 1.0000
   1   0  12    201.64   0.00          0.00  1.  0.00  0.   23.29 1.0000
   1   0  12    243.05   0.00          0.00  1.  0.00  0.   24.94 1.0000
   1   0  13     47.75   0.00          0.00  1.  0.00  0.   13.27 1.0000
   1   0  14     69.72   0.00          0.00  1.  0.00  0.   19.37 1.0000
   1   1 -12    243.05   0.00          0.00  1.  0.00  0.   25.26 1.0000
   1   1 -12    236.24   0.00          0.00  1.  0.00  0.   26.13 1.0000
   1   1 -11    182.25   0.00          0.00  1.  0.00  0.   21.06 1.0000
   1   1 -11    166.41   0.00          0.00  1.  0.00  0.   21.67 1.0000
   1   1 -10    318.98   0.00          0.00  1.  0.00  0.   20.36 1.0000
   1   1 -10    303.80   0.00          0.00  1.  0.00  0.   26.15 1.0000
   1   1 -10    303.46   0.00          0.00  1.  0.00  0.   28.22 1.0000
   1   1 -10    322.20   0.00          0.00  1.  0.00  0.   27.64 1.0000
   1   1  -9    180.36   0.00          0.00  1.  0.00  0.   19.61 1.0000
   1   1  -9    176.89   0.00          0.00  1.  0.00  0.   18.62 1.0000
   1   1  -9    195.44   0.00          0.00  1.  0.00  0.   20.69 1.0000
   1   1  -9    181.98   0.00          0.00  1.  0.00  0.   12.68 1.0000
   1   1  -7    957.90   0.00          0.00  1.  0.00  0.   50.14 1.0000
   1   1  -7    922.94   0.00          0.00  1.  0.00  0.   50.43 1.0000
   1   1  -7    967.21   0.00          0.00  1.  0.00  0.   52.25 1.0000
   1   1  -7    941.26   0.00          0.00  1.  0.00  0.   47.25 1.0000
   1   1  -5    748.02   0.00          0.00  1.  0.00  0.   36.10 1.0000
   1   1  -5    767.29   0.00          0.00  1.  0.00  0.   40.44 1.0000
   1   1  -5    749.66   0.00          0.00  1.  0.00  0.   38.88 1.0000
   1   1  -5    774.51   0.00          0.00  1.  0.00  0.   40.63 1.0000
   1   1  -5    744.74   0.00          0.00  1.  0.00  0.   40.94 1.0000
   1   1  -4    508.50   0.00          0.00  1.  0.00  0.   27.96 1.0000
   1   1  -4    499.97   0.00          0.00  1.  0.00  0.   27.28 1.0000
   1   1  -4    498.63   0.00          0.00  1.  0.00  0.   29.03 1.0000
   1   1  -4    486.64   0.00          0.00  1.  0.00  0.   24.71 1.0000
   1   1  -4    473.06   0.00          0.00  1.  0.00  0.   26.10 1.0000
   1   1  -2   1350.56   0.00          0.00  1.  0.00  0.   61.74 1.0000
   1   1  -2   1351.30   0.00          0.00  1.  0.00  0.   63.23 1.0000
   1   1  -2   1330.79   0.00          0.00  1.  0.00  0.   62.02 1.0000
   1   1  -2   1320.60   0.00          0.00  1.  0.00  0.   63.96 1.0000
   1   1  -1   8310.15   0.00          0.00  1.  0.00  0.  351.88 1.0000
   1   1  -1   8370.42   0.00          0.00  1.  0.00  0.  353.15 1.0000
   1   1  -1   7869.46   0.00          0.00  1.  0.00  0.  369.03 1.0000
   1   1  -1   7768.66   0.00          0.00  1.  0.00  0.  350.80 1.0000
   1   1   2     72.08   0.00          0.00  1.  0.00  0.    6.28 1.0000
   1   1   4   3906.25   0.00          0.00  1.  0.00  0.  167.50 1.0000
   1   1   4   3826.66   0.00          0.00  1.  0.00  0.  165.78 1.0000
   1   1   4   3916.26   0.00          0.00  1.  0.00  0.  166.46 1.0000
   1   1   5   8317.44   0.00          0.00  1.  0.00  0.  368.45 1.0000
   1   1   5   8585.88   0.00          0.00  1.  0.00  0.  368.79 1.0000
   1   1   5   8105.40   0.00          0.00  1.  0.00  0.  370.92 1.0000
   1   1  12    276.22   0.00          0.00  1.  0.00  0.   26.59 1.0000
   1   1  14     41.47   0.00          0.00  1.  0.00  0.   17.65 1.0000
   1   2 -10   1144.47   0.00          0.00  1.  0.00  0.   66.31 1.0000
   1   2 -10   1251.04   0.00          0.00  1.  0.00  0.   63.67 1.0000
   1   2 -10   1220.10   0.00          0.00  1.  0.00  0.   69.16 1.0000
   1   2 -10   1272.35   0.00          0.00  1.  0.00  0.   68.49 1.0000
   1   2  -9   1434.89   0.00          0.00  1.  0.00  0.   75.76 1.0000
   1   2  -9   1453.90   0.00          0.00  1.  0.00  0.   75.50 1.0000
   1   2  -9   1470.72   0.00          0.00  1.  0.00  0.   72.86 1.0000
   1   2  -9   1398.76   0.00          0.00  1.  0.00  0.   74.05 1.0000
   1   2  -7   1872.29   0.00          0.00  1.  0.00  0.   90.87 1.0000
   1   2  -7   1817.32   0.00          0.00  1.  0.00  0.   85.26 1.0000
   1   2  -7   1824.14   0.00          0.00  1.  0.00  0.   90.55 1.0000
   1   2  -7   1901.83   0.00          0.00  1.  0.00  0.   92.45 1.0000
   1   2  -7   1822.44   0.00          0.00  1.  0.00  0.   90.50 1.0000
   1   2  -6   1836.98   0.00          0.00  1.  0.00  0.   90.86 1.0000
   1   2  -6   1913.19   0.00          0.00  1.  0.00  0.   92.73 1.0000
   1   2  -6   1849.86   0.00          0.00  1.  0.00  0.   86.88 1.0000
   1   2  -6   1974.02   0.00          0.00  1.  0.00  0.   93.30 1.0000
   1   2  -6   1822.44   0.00          0.00  1.  0.00  0.   89.65 1.0000
   1   2  -2   1494.60   0.00          0.00  1.  0.00  0.   71.13 1.0000
   1   2  -2   1493.05   0.00          0.00  1.  0.00  0.   69.55 1.0000
   1   2  -2   1553.15   0.00          0.00  1.  0.00  0.   69.36 1.0000
   1   2  -2   1504.66   0.00          0.00  1.  0.00  0.   73.70 1.0000
   1   2  -1   3449.21   0.00          0.00  1.  0.00  0.  159.75 1.0000
   1   2  -1   3342.00   0.00          0.00  1.  0.00  0.  150.31 1.0000
   1   2  -1   3408.22   0.00          0.00  1.  0.00  0.  165.80 1.0000
   1   2  -1   3431.62   0.00          0.00  1.  0.00  0.  149.96 1.0000
   1   2  -1   3486.90   0.00          0.00  1.  0.00  0.  152.35 1.0000
   1   2   5   1434.14   0.00          0.00  1.  0.00  0.   71.20 1.0000
   1   2   5   1448.56   0.00          0.00  1.  0.00  0.   72.31 1.0000
   1   2   9    101.20   0.00          0.00  1.  0.00  0.   13.28 1.0000
   1   2   9    116.21   0.00          0.00  1.  0.00  0.   15.95 1.0000
   1   2   9     72.76   0.00          0.00  1.  0.00  0.   13.82 1.0000
   1   2  11    257.92   0.00          0.00  1.  0.00  0.   24.41 1.0000
   1   2  11    310.11   0.00          0.00  1.  0.00  0.   25.01 1.0000
   1   2  11    269.29   0.00          0.00  1.  0.00  0.   24.29 1.0000
   1   2  12    108.58   0.00          0.00  1.  0.00  0.   18.55 1.0000
   1   2  13    286.62   0.00          0.00  1.  0.00  0.   27.09 1.0000
   1   2  14     80.46   0.00          0.00  1.  0.00  0.   19.55 1.0000
   1   3 -12     48.02   0.00          0.00  1.  0.00  0.   18.16 1.0000
   1   3 -12     35.16   0.00          0.00  1.  0.00  0.   12.10 1.0000
   1   3 -11    224.10   0.00          0.00  1.  0.00  0.   23.65 1.0000
   1   3 -11    217.56   0.00          0.00  1.  0.00  0.   25.67 1.0000
   1   3 -10    119.90   0.00          0.00  1.  0.00  0.   13.36 1.0000
   1   3 -10    124.10   0.00          0.00  1.  0.00  0.   17.82 1.0000
   1   3 -10    115.13   0.00          0.00  1.  0.00  0.   19.31 1.0000
   1   3  -6    348.57   0.00          0.00  1.  0.00  0.   22.40 1.0000
   1   3  -6    340.77   0.00          0.00  1.  0.00  0.   22.89 1.0000
   1   3  -6    352.69   0.00          0.00  1.  0.00  0.   24.79 1.0000
   1   3  -6    357.97   0.00          0.00  1.  0.00  0.   27.62 1.0000
   1   3  -6    331.60   0.00          0.00  1.  0.00  0.   22.94 1.0000
   1   3  -5   1293.12   0.00          0.00  1.  0.00  0.   68.32 1.0000
   1   3  -5   1306.10   0.00          0.00  1.  0.00  0.   67.94 1.0000
   1   3  -5   1303.93   0.00          0.00  1.  0.00  0.   71.50 1.0000
   1   3  -5   1380.12   0.00          0.00  1.  0.00  0.   72.07 1.0000
   1   3  -5   1290.96   0.00          0.00  1.  0.00  0.   68.27 1.0000
   1   3  -4   3321.22   0.00          0.00  1.  0.00  0.  149.84 1.0000
   1   3  -4   3310.85   0.00          0.00  1.  0.00  0.  149.60 1.0000
   1   3  -4   3264.98   0.00          0.00  1.  0.00  0.  158.85 1.0000
   1   3  -4   3354.73   0.00          0.00  1.  0.00  0.  150.59 1.0000
   1   3  -4   3364.00   0.00          0.00  1.  0.00  0.  153.12 1.0000
   1   3  -3   1462.30   0.00          0.00  1.  0.00  0.   73.42 1.0000
   1   3  -3   1548.42   0.00          0.00  1.  0.00  0.   71.62 1.0000
   1   3  -3   1498.46   0.00          0.00  1.  0.00  0.   77.42 1.0000
   1   3  -3   1521.00   0.00          0.00  1.  0.00  0.   71.76 1.0000
   1   3  -3   1479.17   0.00          0.00  1.  0.00  0.   74.61 1.0000
   1   3   2    225.60   0.00          0.00  1.  0.00  0.   10.81 1.0000
   1   3   2    215.80   0.00          0.00  1.  0.00  0.   10.87 1.0000
   1   3   2    228.92   0.00          0.00  1.  0.00  0.   15.74 1.0000
   1   3   2    214.62   0.00          0.00  1.  0.00  0.   17.29 1.0000
   1   3   6    245.55   0.00          0.00  1.  0.00  0.   16.92 1.0000
   1   3   7    212.58   0.00          0.00  1.  0.00  0.   16.91 1.0000
   1   3   7    237.47   0.00          0.00  1.  0.00  0.   17.26 1.0000
   1   3   7    218.45   0.00          0.00  1.  0.00  0.   17.74 1.0000
   1   3   8    491.07   0.00          0.00  1.  0.00  0.   31.47 1.0000
   1   3   8    490.18   0.00          0.00  1.  0.00  0.   31.44 1.0000
   1   3   8    518.93   0.00          0.00  1.  0.00  0.   31.89 1.0000
   1   3  10    820.82   0.00          0.00  1.  0.00  0.   45.27 1.0000
   1   3  10    823.69   0.00          0.00  1.  0.00  0.   45.35 1.0000
   1   3  10    827.71   0.00          0.00  1.  0.00  0.   46.61 1.0000
   1   3  11    778.97   0.00          0.00  1.  0.00  0.   48.01 1.0000
   1   3  11    775.07   0.00          0.00  1.  0.00  0.   46.77 1.0000
   1   3  11    779.53   0.00          0.00  1.  0.00  0.   47.46 1.0000
   1   3  12    608.61   0.00          0.00  1.  0.00  0.   38.49 1.0000
   1   3  12    582.74   0.00          0.00  1.  0.00  0.   37.66 1.0000
   1   3  14    135.49   0.00          0.00  1.  0.00  0.   21.65 1.0000
   1   4  -5   1118.23   0.00          0.00  1.  0.00  0.   60.19 1.0000
   1   4  -5   1082.41   0.00          0.00  1.  0.00  0.   58.56 1.0000
   1   4  -5   1122.92   0.00          0.00  1.  0.00  0.   58.31 1.0000
   1   4  -5   1069.94   0.00          0.00  1.  0.00  0.   62.80 1.0000
   1   4  -5   1108.22   0.00          0.00  1.  0.00  0.   62.59 1.0000
   1   4  -4    846.23   0.00          0.00  1.  0.00  0.   46.54 1.0000
   1   4  -4    831.17   0.00          0.00  1.  0.00  0.   46.70 1.0000
   1   4  -4    830.59   0.00          0.00  1.  0.00  0.   44.38 1.0000
   1   4  -4    832.90   0.00          0.00  1.  0.00  0.   42.14 1.0000
   1   4  -4    838.10   0.00          0.00  1.  0.00  0.   42.27 1.0000
   1   4   0   1408.50   0.00          0.00  1.  0.00  0.   84.82 1.0000
   1   4   0   1405.50   0.00          0.00  1.  0.00  0.   77.23 1.0000
   1   4   0   1412.26   0.00          0.00  1.  0.00  0.   82.68 1.0000
   1   4   0   1392.04   0.00          0.00  1.  0.00  0.   92.53 1.0000
   1   4   4   1894.86   0.00          0.00  1.  0.00  0.   80.10 1.0000
   1   4   4   1945.69   0.00          0.00  1.  0.00  0.   80.28 1.0000
   1   4   6    306.95   0.00          0.00  1.  0.00  0.   19.27 1.0000
   1   4   6    299.98   0.00          0.00  1.  0.00  0.   19.40 1.0000
   1   4   7    105.47   0.00          0.00  1.  0.00  0.   11.30 1.0000
   1   4   7     87.80   0.00          0.00  1.  0.00  0.   10.31 1.0000
   1   4   7     80.46   0.00          0.00  1.  0.00  0.   11.48 1.0000
   1   4   8    248.06   0.00          0.00  1.  0.00  0.   19.53 1.0000
   1   4   8    238.70   0.00          0.00  1.  0.00  0.   19.47 1.0000
   1   4   8    251.86   0.00          0.00  1.  0.00  0.   20.31 1.0000
   1   4  10    613.55   0.00          0.00  1.  0.00  0.   39.63 1.0000
   1   4  10    599.76   0.00          0.00  1.  0.00  0.   38.20 1.0000
   1   4  10    614.54   0.00          0.00  1.  0.00  0.   40.16 1.0000
   1   4  10    613.06   0.00          0.00  1.  0.00  0.   34.66 1.0000
   1   4  11    489.74   0.00          0.00  1.  0.00  0.   26.56 1.0000
   1   4  11    503.55   0.00          0.00  1.  0.00  0.   34.56 1.0000
   1   4  11    484.00   0.00          0.00  1.  0.00  0.   33.88 1.0000
   1   4  11    457.10   0.00          0.00  1.  0.00  0.   32.50 1.0000
   1   4  12    319.34   0.00          0.00  1.  0.00  0.   26.09 1.0000
   1   4  12    290.02   0.00          0.00  1.  0.00  0.   26.91 1.0000
   1   4  13    238.08   0.00          0.00  1.  0.00  0.   25.00 1.0000
   1   4  14    194.60   0.00          0.00  1.  0.00  0.   24.55 1.0000
   1   5  -9     68.23   0.00          0.00  1.  0.00  0.   14.54 1.0000
   1   5  -9     37.58   0.00          0.00  1.  0.00  0.   13.12 1.0000
   1   5  -9     47.33   0.00          0.00  1.  0.00  0.   15.96 1.0000
   1   5  -5    805.42   0.00          0.00  1.  0.00  0.   47.11 1.0000
   1   5  -5    762.86   0.00          0.00  1.  0.00  0.   41.43 1.0000
   1   5  -5    696.96   0.00          0.00  1.  0.00  0.   45.41 1.0000
   1   5  -5    770.62   0.00          0.00  1.  0.00  0.   45.53 1.0000
   1   5  -5    785.12   0.00          0.00  1.  0.00  0.   42.03 1.0000
   1   5  -5    727.38   0.00          0.00  1.  0.00  0.   50.16 1.0000
   1   5  -3    906.01   0.00          0.00  1.  0.00  0.   42.74 1.0000
   1   5  -3    833.48   0.00          0.00  1.  0.00  0.   54.85 1.0000
   1   5  -3    863.77   0.00          0.00  1.  0.00  0.   49.96 1.0000
   1   5  -3    873.79   0.00          0.00  1.  0.00  0.   42.57 1.0000
   1   5  -3    908.42   0.00          0.00  1.  0.00  0.   48.83 1.0000
   1   5  -3    840.42   0.00          0.00  1.  0.00  0.   47.54 1.0000
   1   5  -1    951.11   0.00          0.00  1.  0.00  0.   49.34 1.0000
   1   5  -1   1128.29   0.00          0.00  1.  0.00  0.   56.43 1.0000
   1   5  -1   1049.76   0.00          0.00  1.  0.00  0.   61.56 1.0000
   1   5  -1    961.00   0.00          0.00  1.  0.00  0.   66.34 1.0000
   1   5  -1   1073.87   0.00          0.00  1.  0.00  0.   57.68 1.0000
   1   5  -1    986.59   0.00          0.00  1.  0.00  0.   49.63 1.0000
   1   5  -1   1015.06   0.00          0.00  1.  0.00  0.   59.26 1.0000
   1   5   0   1084.38   0.00          0.00  1.  0.00  0.   50.05 1.0000
   1   5   0   1083.07   0.00          0.00  1.  0.00  0.   54.63 1.0000
   1   5   0   1030.41   0.00          0.00  1.  0.00  0.   55.85 1.0000
   1   5   0   1087.02   0.00          0.00  1.  0.00  0.   53.41 1.0000
   1   5   1   1583.24   0.00          0.00  1.  0.00  0.   77.19 1.0000
   1   5   1   1562.62   0.00          0.00  1.  0.00  0.   80.64 1.0000
   1   5   1   1495.37   0.00          0.00  1.  0.00  0.   82.75 1.0000
   1   5   1   1498.46   0.00          0.00  1.  0.00  0.   85.94 1.0000
   1   5   5    683.82   0.00          0.00  1.  0.00  0.   37.66 1.0000
   1   5   5    695.38   0.00          0.00  1.  0.00  0.   37.45 1.0000
   1   5   9    816.82   0.00          0.00  1.  0.00  0.   45.73 1.0000
   1   5   9    793.55   0.00          0.00  1.  0.00  0.   45.07 1.0000
   1   5   9    780.64   0.00          0.00  1.  0.00  0.   43.59 1.0000
   1   5   9    801.46   0.00          0.00  1.  0.00  0.   44.73 1.0000
   1   5  10    438.48   0.00          0.00  1.  0.00  0.   29.73 1.0000
   1   5  10    438.48   0.00          0.00  1.  0.00  0.   25.97 1.0000
   1   5  10    424.36   0.00          0.00  1.  0.00  0.   28.43 1.0000
   1   5  10    381.42   0.00          0.00  1.  0.00  0.   26.95 1.0000
   1   5  11    124.77   0.00          0.00  1.  0.00  0.   16.98 1.0000
   1   5  11    110.25   0.00          0.00  1.  0.00  0.   11.76 1.0000
   1   5  11    120.78   0.00          0.00  1.  0.00  0.   15.61 1.0000
   1   5  12     -4.45   0.00          0.00  1.  0.00  0.    9.28 1.0000
   1   5  13    212.28   0.00          0.00  1.  0.00  0.   23.60 1.0000
   1   6  -9    260.18   0.00          0.00  1.  0.00  0.   28.71 1.0000
   1   6  -6    426.42   0.00          0.00  1.  0.00  0.   28.50 1.0000
   1   6  -6    472.63   0.00          0.00  1.  0.00  0.   34.78 1.0000
   1   6  -6    457.10   0.00          0.00  1.  0.00  0.   29.50 1.0000
   1   6  -6    468.72   0.00          0.00  1.  0.00  0.   33.77 1.0000
   1   6  -4   1515.54   0.00          0.00  1.  0.00  0.   84.87 1.0000
   1   6  -4   1615.24   0.00          0.00  1.  0.00  0.   81.99 1.0000
   1   6  -4   1506.22   0.00          0.00  1.  0.00  0.   74.52 1.0000
   1   6  -4   1656.49   0.00          0.00  1.  0.00  0.   82.21 1.0000
   1   6  -4   1619.26   0.00          0.00  1.  0.00  0.   74.85 1.0000
   1   6   5    460.96   0.00          0.00  1.  0.00  0.   26.19 1.0000
   1   6   5    467.42   0.00          0.00  1.  0.00  0.   35.02 1.0000
   1   6   5    452.84   0.00          0.00  1.  0.00  0.   26.39 1.0000
   1   6   6    335.99   0.00          0.00  1.  0.00  0.   19.43 1.0000
   1   6   6    333.43   0.00          0.00  1.  0.00  0.   28.12 1.0000
   1   6   6    342.62   0.00          0.00  1.  0.00  0.   26.65 1.0000
   1   6   6    338.56   0.00          0.00  1.  0.00  0.   19.50 1.0000
   1   6   8    119.68   0.00          0.00  1.  0.00  0.   14.88 1.0000
   1   6   8     79.39   0.00          0.00  1.  0.00  0.   11.23 1.0000
   1   6   8     91.97   0.00          0.00  1.  0.00  0.   11.32 1.0000
   1   6   8    104.24   0.00          0.00  1.  0.00  0.   12.05 1.0000
   1   6  10     57.00   0.00          0.00  1.  0.00  0.   12.08 1.0000
   1   6  10     71.23   0.00          0.00  1.  0.00  0.   12.32 1.0000
   1   6  10     62.09   0.00          0.00  1.  0.00  0.   11.35 1.0000
   1   6  10     63.04   0.00          0.00  1.  0.00  0.   11.43 1.0000
   1   6  11     55.35   0.00          0.00  1.  0.00  0.   11.76 1.0000
   1   6  11     91.20   0.00          0.00  1.  0.00  0.   12.99 1.0000
   1   6  11     67.90   0.00          0.00  1.  0.00  0.   13.35 1.0000
   1   7  -5     32.38   0.00          0.00  1.  0.00  0.   11.95 1.0000
   1   7  -5      6.35   0.00          0.00  1.  0.00  0.   12.75 1.0000
   1   7  -5      8.76   0.00          0.00  1.  0.00  0.    6.63 1.0000
   1   7  -4   1185.42   0.00          0.00  1.  0.00  0.   56.47 1.0000
   1   7  -4   1156.68   0.00          0.00  1.  0.00  0.   65.30 1.0000
   1   7  -4   1190.25   0.00          0.00  1.  0.00  0.   56.58 1.0000
   1   7  -4   1092.30   0.00          0.00  1.  0.00  0.   65.44 1.0000
   1   7   1     67.24   0.00          0.00  1.  0.00  0.   12.79 1.0000
   1   7   1     60.84   0.00          0.00  1.  0.00  0.   10.76 1.0000
   1   7   1     84.82   0.00          0.00  1.  0.00  0.   15.84 1.0000
   1   7   1     71.40   0.00          0.00  1.  0.00  0.   17.07 1.0000
   1   7   3    175.83   0.00          0.00  1.  0.00  0.   20.42 1.0000
   1   7   3    177.96   0.00          0.00  1.  0.00  0.   19.48 1.0000
   1   7   3    178.76   0.00          0.00  1.  0.00  0.   14.97 1.0000
   1   7   3    201.36   0.00          0.00  1.  0.00  0.   22.70 1.0000
   1   7   4    533.61   0.00          0.00  1.  0.00  0.   40.66 1.0000
   1   7   4    555.54   0.00          0.00  1.  0.00  0.   33.47 1.0000
   1   7   4    560.27   0.00          0.00  1.  0.00  0.   40.24 1.0000
   1   7   8    567.39   0.00          0.00  1.  0.00  0.   31.44 1.0000
   1   7   8    553.19   0.00          0.00  1.  0.00  0.   37.16 1.0000
   1   7   8    596.34   0.00          0.00  1.  0.00  0.   32.23 1.0000
   1   7   8    564.06   0.00          0.00  1.  0.00  0.   32.78 1.0000
   1   7   9    188.51   0.00          0.00  1.  0.00  0.   16.75 1.0000
   1   7   9    209.09   0.00          0.00  1.  0.00  0.   20.82 1.0000
   1   7   9    201.92   0.00          0.00  1.  0.00  0.   17.05 1.0000
   1   7  10    154.75   0.00          0.00  1.  0.00  0.   18.41 1.0000
   1   7  10    159.52   0.00          0.00  1.  0.00  0.   16.67 1.0000
   1   7  11    273.90   0.00          0.00  1.  0.00  0.   23.83 1.0000
   1   8  -5    134.79   0.00          0.00  1.  0.00  0.   22.06 1.0000
   1   8  -4    321.48   0.00          0.00  1.  0.00  0.   29.76 1.0000
   1   8  -4    323.64   0.00          0.00  1.  0.00  0.   28.42 1.0000
   1   8  -3    993.51   0.00          0.00  1.  0.00  0.   58.00 1.0000
   1   8  -3   1015.06   0.00          0.00  1.  0.00  0.   61.17 1.0000
   1   8   3     96.63   0.00          0.00  1.  0.00  0.   12.58 1.0000
   1   8   3    120.12   0.00          0.00  1.  0.00  0.   19.95 1.0000
   1   8   5     41.99   0.00          0.00  1.  0.00  0.    9.07 1.0000
   1   8   5     69.39   0.00          0.00  1.  0.00  0.   16.99 1.0000
   1   8   6    150.80   0.00          0.00  1.  0.00  0.   21.37 1.0000
   1   8   6    154.26   0.00          0.00  1.  0.00  0.   14.16 1.0000
   1   8   7    115.35   0.00          0.00  1.  0.00  0.   18.90 1.0000
   1   8   8    268.96   0.00          0.00  1.  0.00  0.   26.24 1.0000
   1   8   9    374.42   0.00          0.00  1.  0.00  0.   31.73 1.0000
   1   8  10    133.86   0.00          0.00  1.  0.00  0.   20.13 1.0000
   1   9  -3    422.30   0.00          0.00  1.  0.00  0.   33.29 1.0000
   1   9  -3    375.20   0.00          0.00  1.  0.00  0.   37.19 1.0000
   1   9  -2    194.60   0.00          0.00  1.  0.00  0.   21.48 1.0000
   1   9  -2    216.68   0.00          0.00  1.  0.00  0.   27.97 1.0000
   1   9   0     35.64   0.00          0.00  1.  0.00  0.   10.51 1.0000
   1   9   0     50.41   0.00          0.00  1.  0.00  0.   15.48 1.0000
   1   9   1    151.04   0.00          0.00  1.  0.00  0.   25.81 1.0000
   1   9   1    166.93   0.00          0.00  1.  0.00  0.   18.86 1.0000
   1   9   2    292.75   0.00          0.00  1.  0.00  0.   29.77 1.0000
   1   9   2    312.94   0.00          0.00  1.  0.00  0.   23.70 1.0000
   1   9   3    163.84   0.00          0.00  1.  0.00  0.   16.13 1.0000
   1   9   3    108.99   0.00          0.00  1.  0.00  0.   22.76 1.0000
   1   9   4      4.33   0.00          0.00  1.  0.00  0.   16.43 1.0000
   1   9   5     90.63   0.00          0.00  1.  0.00  0.   20.94 1.0000
   1   9   6    146.17   0.00          0.00  1.  0.00  0.   23.70 1.0000
   1   9   7    345.96   0.00          0.00  1.  0.00  0.   31.25 1.0000
   1   9   8    129.50   0.00          0.00  1.  0.00  0.   22.99 1.0000
   2  -9  -6     59.91   0.00          0.00  1.  0.00  0.   18.11 1.0000
   2  -9  -5      2.99   0.00          0.00  1.  0.00  0.   19.24 1.0000
   2  -9  -4    186.87   0.00          0.00  1.  0.00  0.   27.34 1.0000
   2  -9   2    302.06   0.00          0.00  1.  0.00  0.   31.98 1.0000
   2  -8  -9    128.37   0.00          0.00  1.  0.00  0.   25.61 1.0000
   2  -8  -9    146.41   0.00          0.00  1.  0.00  0.   15.25 1.0000
   2  -8  -8    124.10   0.00          0.00  1.  0.00  0.   24.06 1.0000
   2  -8  -8     95.06   0.00          0.00  1.  0.00  0.   11.11 1.0000
   2  -8  -7    149.33   0.00          0.00  1.  0.00  0.   12.46 1.0000
   2  -8  -7    190.99   0.00          0.00  1.  0.00  0.   27.36 1.0000
   2  -8  -6    341.14   0.00          0.00  1.  0.00  0.   19.58 1.0000
   2  -8  -6    397.20   0.00          0.00  1.  0.00  0.   38.27 1.0000
   2  -8  -5    102.01   0.00          0.00  1.  0.00  0.   19.19 1.0000
   2  -8   5     60.37   0.00          0.00  1.  0.00  0.   15.70 1.0000
   2  -8   5     44.76   0.00          0.00  1.  0.00  0.    7.49 1.0000
   2  -8   6    106.50   0.00          0.00  1.  0.00  0.   12.38 1.0000
   2  -8   6    100.60   0.00          0.00  1.  0.00  0.   19.46 1.0000
   2  -7 -10    167.44   0.00          0.00  1.  0.00  0.   17.86 1.0000
   2  -7  -9    807.13   0.00          0.00  1.  0.00  0.   45.46 1.0000
   2  -7  -8    447.32   0.00          0.00  1.  0.00  0.   27.92 1.0000
   2  -7  -6    391.25   0.00          0.00  1.  0.00  0.   23.74 1.0000
   2  -7  -6    433.47   0.00          0.00  1.  0.00  0.   24.57 1.0000
   2  -7  -4    586.12   0.00          0.00  1.  0.00  0.   30.02 1.0000
   2  -7  -4    644.65   0.00          0.00  1.  0.00  0.   30.47 1.0000
   2  -7  -2    421.48   0.00          0.00  1.  0.00  0.   36.54 1.0000
   2  -7  -1    278.89   0.00          0.00  1.  0.00  0.   28.72 1.0000
   2  -7   3    335.62   0.00          0.00  1.  0.00  0.   29.31 1.0000
   2  -7   3    292.07   0.00          0.00  1.  0.00  0.   22.22 1.0000
   2  -7   3    304.50   0.00          0.00  1.  0.00  0.   17.80 1.0000
   2  -7   4    472.63   0.00          0.00  1.  0.00  0.   37.39 1.0000
   2  -7   4    368.26   0.00          0.00  1.  0.00  0.   26.87 1.0000
   2  -7   4    376.75   0.00          0.00  1.  0.00  0.   23.29 1.0000
   2  -7   4    388.88   0.00          0.00  1.  0.00  0.   22.88 1.0000
   2  -7   5    303.11   0.00          0.00  1.  0.00  0.   20.54 1.0000
   2  -7   5    340.77   0.00          0.00  1.  0.00  0.   32.12 1.0000
   2  -7   5    289.00   0.00          0.00  1.  0.00  0.   24.48 1.0000
   2  -7   6    504.90   0.00          0.00  1.  0.00  0.   40.00 1.0000
   2  -7   6    456.25   0.00          0.00  1.  0.00  0.   28.62 1.0000
   2  -7   6    470.46   0.00          0.00  1.  0.00  0.   33.40 1.0000
   2  -6 -11     76.91   0.00          0.00  1.  0.00  0.   14.73 1.0000
   2  -6 -10     61.94   0.00          0.00  1.  0.00  0.   14.17 1.0000
   2  -6  -7    617.03   0.00          0.00  1.  0.00  0.   36.76 1.0000
   2  -6  -7    669.26   0.00          0.00  1.  0.00  0.   37.25 1.0000
   2  -6  -6    296.18   0.00          0.00  1.  0.00  0.   21.34 1.0000
   2  -6  -6    294.81   0.00          0.00  1.  0.00  0.   20.60 1.0000
   2  -6   0     91.97   0.00          0.00  1.  0.00  0.    7.29 1.0000
   2  -6   0     71.40   0.00          0.00  1.  0.00  0.   16.06 1.0000
   2  -6   0    110.46   0.00          0.00  1.  0.00  0.   17.24 1.0000
   2  -6   0     92.74   0.00          0.00  1.  0.00  0.    6.93 1.0000
   2  -6   1    526.70   0.00          0.00  1.  0.00  0.   26.62 1.0000
   2  -6   1    534.07   0.00          0.00  1.  0.00  0.   38.36 1.0000
   2  -6   1    571.69   0.00          0.00  1.  0.00  0.   40.65 1.0000
   2  -6   2      4.71   0.00          0.00  1.  0.00  0.    4.47 1.0000
   2  -6   2     -2.62   0.00          0.00  1.  0.00  0.    6.16 1.0000
   2  -6   2     -7.78   0.00          0.00  1.  0.00  0.    9.82 1.0000
   2  -6   4     20.70   0.00          0.00  1.  0.00  0.    6.19 1.0000
   2  -6   4     27.46   0.00          0.00  1.  0.00  0.    7.44 1.0000
   2  -6   4     22.28   0.00          0.00  1.  0.00  0.    9.72 1.0000
   2  -6   4     46.51   0.00          0.00  1.  0.00  0.   14.46 1.0000
   2  -6   5    144.24   0.00          0.00  1.  0.00  0.   13.45 1.0000
   2  -6   5    151.04   0.00          0.00  1.  0.00  0.   21.14 1.0000
   2  -6   5    166.41   0.00          0.00  1.  0.00  0.   17.54 1.0000
   2  -6   5    145.20   0.00          0.00  1.  0.00  0.   14.22 1.0000
   2  -6   7    252.49   0.00          0.00  1.  0.00  0.   24.47 1.0000
   2  -6   7    279.22   0.00          0.00  1.  0.00  0.   21.39 1.0000
   2  -6   7    272.91   0.00          0.00  1.  0.00  0.   22.14 1.0000
   2  -6   7    252.17   0.00          0.00  1.  0.00  0.   26.36 1.0000
   2  -5 -12     36.36   0.00          0.00  1.  0.00  0.   15.80 1.0000
   2  -5 -11     21.07   0.00          0.00  1.  0.00  0.   13.86 1.0000
   2  -5  -9    188.24   0.00          0.00  1.  0.00  0.   17.84 1.0000
   2  -5  -9    217.27   0.00          0.00  1.  0.00  0.   20.34 1.0000
   2  -5   2    600.74   0.00          0.00  1.  0.00  0.   30.88 1.0000
   2  -5   2    574.08   0.00          0.00  1.  0.00  0.   30.67 1.0000
   2  -5   2    612.56   0.00          0.00  1.  0.00  0.   38.11 1.0000
   2  -5   2    619.01   0.00          0.00  1.  0.00  0.   41.30 1.0000
   2  -5   2    615.54   0.00          0.00  1.  0.00  0.   41.18 1.0000
   2  -5   2    580.81   0.00          0.00  1.  0.00  0.   32.29 1.0000
   2  -5   3   3920.01   0.00          0.00  1.  0.00  0.  179.06 1.0000
   2  -5   3   3674.78   0.00          0.00  1.  0.00  0.  170.95 1.0000
   2  -5   3   4037.33   0.00          0.00  1.  0.00  0.  195.70 1.0000
   2  -5   3   3827.90   0.00          0.00  1.  0.00  0.  172.00 1.0000
   2  -5   3   3595.20   0.00          0.00  1.  0.00  0.  173.88 1.0000
   2  -5   4    521.67   0.00          0.00  1.  0.00  0.   36.54 1.0000
   2  -5   4    468.29   0.00          0.00  1.  0.00  0.   27.70 1.0000
   2  -5   4    503.55   0.00          0.00  1.  0.00  0.   30.07 1.0000
   2  -5   4    463.97   0.00          0.00  1.  0.00  0.   27.14 1.0000
   2  -5   4    503.55   0.00          0.00  1.  0.00  0.   32.76 1.0000
   2  -5   5    546.62   0.00          0.00  1.  0.00  0.   39.28 1.0000
   2  -5   5    535.92   0.00          0.00  1.  0.00  0.   31.48 1.0000
   2  -5   5    549.90   0.00          0.00  1.  0.00  0.   33.77 1.0000
   2  -5   5    491.51   0.00          0.00  1.  0.00  0.   30.59 1.0000
   2  -5   5    562.16   0.00          0.00  1.  0.00  0.   36.51 1.0000
   2  -5   6     36.36   0.00          0.00  1.  0.00  0.   14.83 1.0000
   2  -4 -13    175.83   0.00          0.00  1.  0.00  0.   21.48 1.0000
   2  -4 -12    466.99   0.00          0.00  1.  0.00  0.   35.44 1.0000
   2  -4 -12    510.76   0.00          0.00  1.  0.00  0.   37.52 1.0000
   2  -4 -11    326.52   0.00          0.00  1.  0.00  0.   28.19 1.0000
   2  -4 -11    349.32   0.00          0.00  1.  0.00  0.   28.41 1.0000
   2  -4  -8      2.79   0.00          0.00  1.  0.00  0.   10.32 1.0000
   2  -4  -8      9.67   0.00          0.00  1.  0.00  0.    9.33 1.0000
   2  -4  -7     15.84   0.00          0.00  1.  0.00  0.   10.27 1.0000
   2  -4  -7      1.04   0.00          0.00  1.  0.00  0.    6.12 1.0000
   2  -4  -6     53.29   0.00          0.00  1.  0.00  0.   11.10 1.0000
   2  -4  -6     55.35   0.00          0.00  1.  0.00  0.    9.97 1.0000
   2  -4   0   1314.79   0.00          0.00  1.  0.00  0.   59.47 1.0000
   2  -4   0   1255.99   0.00          0.00  1.  0.00  0.   59.54 1.0000
   2  -4   0   1251.74   0.00          0.00  1.  0.00  0.   64.39 1.0000
   2  -4   0   1255.99   0.00          0.00  1.  0.00  0.   58.12 1.0000
   2  -4   0   1282.36   0.00          0.00  1.  0.00  0.   69.47 1.0000
   2  -4   2    688.54   0.00          0.00  1.  0.00  0.   41.98 1.0000
   2  -4   2    656.38   0.00          0.00  1.  0.00  0.   34.33 1.0000
   2  -4   2    637.56   0.00          0.00  1.  0.00  0.   33.33 1.0000
   2  -4   2    655.36   0.00          0.00  1.  0.00  0.   37.89 1.0000
   2  -4   2    663.58   0.00          0.00  1.  0.00  0.   34.00 1.0000
   2  -4   3   4238.01   0.00          0.00  1.  0.00  0.  222.64 1.0000
   2  -4   3   4041.14   0.00          0.00  1.  0.00  0.  189.44 1.0000
   2  -4   3   4147.36   0.00          0.00  1.  0.00  0.  185.47 1.0000
   2  -4   3   4034.79   0.00          0.00  1.  0.00  0.  185.48 1.0000
   2  -4   3   4341.49   0.00          0.00  1.  0.00  0.  208.21 1.0000
   2  -4   3   4156.38   0.00          0.00  1.  0.00  0.  186.96 1.0000
   2  -4   4    513.02   0.00          0.00  1.  0.00  0.   29.90 1.0000
   2  -4   4    529.00   0.00          0.00  1.  0.00  0.   29.44 1.0000
   2  -4   4    562.64   0.00          0.00  1.  0.00  0.   37.48 1.0000
   2  -4   4    499.08   0.00          0.00  1.  0.00  0.   33.06 1.0000
   2  -4   4    516.20   0.00          0.00  1.  0.00  0.   31.35 1.0000
   2  -4   5   1324.96   0.00          0.00  1.  0.00  0.   66.25 1.0000
   2  -4   5   1252.45   0.00          0.00  1.  0.00  0.   62.99 1.0000
   2  -4   5   1298.16   0.00          0.00  1.  0.00  0.   67.02 1.0000
   2  -4   5   1275.92   0.00          0.00  1.  0.00  0.   64.30 1.0000
   2  -4   6    330.88   0.00          0.00  1.  0.00  0.   23.65 1.0000
   2  -4   6    321.84   0.00          0.00  1.  0.00  0.   22.60 1.0000
   2  -4   6    317.20   0.00          0.00  1.  0.00  0.   24.22 1.0000
   2  -4   6    320.77   0.00          0.00  1.  0.00  0.   25.07 1.0000
   2  -4   8    349.32   0.00          0.00  1.  0.00  0.   25.79 1.0000
   2  -4   8    325.44   0.00          0.00  1.  0.00  0.   25.62 1.0000
   2  -4   8    354.95   0.00          0.00  1.  0.00  0.   26.38 1.0000
   2  -4   8    322.56   0.00          0.00  1.  0.00  0.   28.02 1.0000
   2  -4  11    360.24   0.00          0.00  1.  0.00  0.   31.13 1.0000
   2  -4  11    319.69   0.00          0.00  1.  0.00  0.   30.40 1.0000
   2  -3 -13     75.34   0.00          0.00  1.  0.00  0.   16.49 1.0000
   2  -3 -12    193.77   0.00          0.00  1.  0.00  0.   23.11 1.0000
   2  -3 -12    219.04   0.00          0.00  1.  0.00  0.   23.98 1.0000
   2  -3 -11    334.52   0.00          0.00  1.  0.00  0.   27.80 1.0000
   2  -3 -11    337.46   0.00          0.00  1.  0.00  0.   29.02 1.0000
   2  -3 -10    145.20   0.00          0.00  1.  0.00  0.   18.08 1.0000
   2  -3 -10    120.56   0.00          0.00  1.  0.00  0.   18.01 1.0000
   2  -3  -6   1246.09   0.00          0.00  1.  0.00  0.   67.07 1.0000
   2  -3  -6   1329.33   0.00          0.00  1.  0.00  0.   67.09 1.0000
   2  -3  -6   1344.69   0.00          0.00  1.  0.00  0.   64.54 1.0000
   2  -3   0   5513.06   0.00          0.00  1.  0.00  0.  258.39 1.0000
   2  -3   0   5331.92   0.00          0.00  1.  0.00  0.  235.12 1.0000
   2  -3   0   5431.69   0.00          0.00  1.  0.00  0.  232.89 1.0000
   2  -3   0   5228.74   0.00          0.00  1.  0.00  0.  231.39 1.0000
   2  -3   1   1336.63   0.00          0.00  1.  0.00  0.   61.42 1.0000
   2  -3   1   1276.63   0.00          0.00  1.  0.00  0.   64.31 1.0000
   2  -3   1   1268.78   0.00          0.00  1.  0.00  0.   69.10 1.0000
   2  -3   1   1348.36   0.00          0.00  1.  0.00  0.   61.69 1.0000
   2  -3   1   1275.20   0.00          0.00  1.  0.00  0.   60.71 1.0000
   2  -3   2   1980.25   0.00          0.00  1.  0.00  0.   91.67 1.0000
   2  -3   2   2066.61   0.00          0.00  1.  0.00  0.  103.65 1.0000
   2  -3   2   1981.14   0.00          0.00  1.  0.00  0.   94.36 1.0000
   2  -3   2   2011.52   0.00          0.00  1.  0.00  0.   91.49 1.0000
   2  -3   2   1946.57   0.00          0.00  1.  0.00  0.   91.77 1.0000
   2  -3   4   3063.62   0.00          0.00  1.  0.00  0.  131.73 1.0000
   2  -3   4   2995.37   0.00          0.00  1.  0.00  0.  129.16 1.0000
   2  -3   4   3123.69   0.00          0.00  1.  0.00  0.  130.78 1.0000
   2  -3   4   3028.30   0.00          0.00  1.  0.00  0.  128.77 1.0000
   2  -3   4   3054.77   0.00          0.00  1.  0.00  0.  151.44 1.0000
   2  -3   5    536.39   0.00          0.00  1.  0.00  0.   30.11 1.0000
   2  -3   5    495.06   0.00          0.00  1.  0.00  0.   30.70 1.0000
   2  -3   5    512.57   0.00          0.00  1.  0.00  0.   30.34 1.0000
   2  -3   5    506.25   0.00          0.00  1.  0.00  0.   31.50 1.0000
   2  -3   6    613.55   0.00          0.00  1.  0.00  0.   37.65 1.0000
   2  -3   6    613.06   0.00          0.00  1.  0.00  0.   35.16 1.0000
   2  -3   6    567.39   0.00          0.00  1.  0.00  0.   35.25 1.0000
   2  -3   6    582.74   0.00          0.00  1.  0.00  0.   35.73 1.0000
   2  -3   8    127.01   0.00          0.00  1.  0.00  0.   15.78 1.0000
   2  -3   8    155.75   0.00          0.00  1.  0.00  0.   17.72 1.0000
   2  -3   8    125.22   0.00          0.00  1.  0.00  0.   16.56 1.0000
   2  -3   8    136.89   0.00          0.00  1.  0.00  0.   14.98 1.0000
   2  -3   9    202.49   0.00          0.00  1.  0.00  0.   21.63 1.0000
   2  -3   9    226.80   0.00          0.00  1.  0.00  0.   22.29 1.0000
   2  -3   9    229.22   0.00          0.00  1.  0.00  0.   21.50 1.0000
   2  -3   9    210.83   0.00          0.00  1.  0.00  0.   18.30 1.0000
   2  -3  11     26.32   0.00          0.00  1.  0.00  0.   13.54 1.0000
   2  -2 -13    160.53   0.00          0.00  1.  0.00  0.   20.78 1.0000
   2  -2 -12    330.88   0.00          0.00  1.  0.00  0.   30.56 1.0000
   2  -2 -12    362.52   0.00          0.00  1.  0.00  0.   28.94 1.0000
   2  -2 -10    427.25   0.00          0.00  1.  0.00  0.   28.52 1.0000
   2  -2 -10    417.38   0.00          0.00  1.  0.00  0.   31.05 1.0000
   2  -2 -10    410.47   0.00          0.00  1.  0.00  0.   29.58 1.0000
   2  -2   4   1034.27   0.00          0.00  1.  0.00  0.   51.46 1.0000
   2  -2   4   1042.00   0.00          0.00  1.  0.00  0.   52.29 1.0000
   2  -2   4   1030.41   0.00          0.00  1.  0.00  0.   52.64 1.0000
   2  -2   4   1058.85   0.00          0.00  1.  0.00  0.   52.71 1.0000
   2  -2   6    549.90   0.00          0.00  1.  0.00  0.   35.64 1.0000
   2  -2   6    599.76   0.00          0.00  1.  0.00  0.   35.27 1.0000
   2  -2   6    578.88   0.00          0.00  1.  0.00  0.   36.57 1.0000
   2  -2   6    583.71   0.00          0.00  1.  0.00  0.   35.27 1.0000
   2  -2  10      3.03   0.00          0.00  1.  0.00  0.    8.53 1.0000
   2  -2  10      6.40   0.00          0.00  1.  0.00  0.    9.01 1.0000
   2  -2  10      3.20   0.00          0.00  1.  0.00  0.    6.77 1.0000
   2  -2  10      9.06   0.00          0.00  1.  0.00  0.    9.87 1.0000
   2  -2  14     64.00   0.00          0.00  1.  0.00  0.   16.48 1.0000
   2  -1 -13    179.29   0.00          0.00  1.  0.00  0.   22.50 1.0000
   2  -1 -13    191.55   0.00          0.00  1.  0.00  0.   24.64 1.0000
   2  -1  -9    165.38   0.00          0.00  1.  0.00  0.   18.78 1.0000
   2  -1  -9    166.41   0.00          0.00  1.  0.00  0.   19.87 1.0000
   2  -1  -9    168.48   0.00          0.00  1.  0.00  0.   18.69 1.0000
   2  -1  -8    453.26   0.00          0.00  1.  0.00  0.   28.95 1.0000
   2  -1  -8    440.16   0.00          0.00  1.  0.00  0.   28.11 1.0000
   2  -1  -8    443.10   0.00          0.00  1.  0.00  0.   29.89 1.0000
   2  -1  -7    584.19   0.00          0.00  1.  0.00  0.   31.90 1.0000
   2  -1  -7    545.69   0.00          0.00  1.  0.00  0.   32.70 1.0000
   2  -1  -7    547.09   0.00          0.00  1.  0.00  0.   31.81 1.0000
   2  -1  -6   1312.61   0.00          0.00  1.  0.00  0.   61.59 1.0000
   2  -1  -6   1250.33   0.00          0.00  1.  0.00  0.   62.94 1.0000
   2  -1  -6   1265.22   0.00          0.00  1.  0.00  0.   61.89 1.0000
   2  -1   7    904.81   0.00          0.00  1.  0.00  0.   52.34 1.0000
   2  -1   7    891.62   0.00          0.00  1.  0.00  0.   51.36 1.0000
   2  -1   7    918.09   0.00          0.00  1.  0.00  0.   53.93 1.0000
   2  -1   8    515.74   0.00          0.00  1.  0.00  0.   32.25 1.0000
   2  -1   8    503.55   0.00          0.00  1.  0.00  0.   33.66 1.0000
   2  -1   8    491.51   0.00          0.00  1.  0.00  0.   28.82 1.0000
   2  -1   8    481.36   0.00          0.00  1.  0.00  0.   32.91 1.0000
   2  -1  10    327.97   0.00          0.00  1.  0.00  0.   19.92 1.0000
   2  -1  10    308.35   0.00          0.00  1.  0.00  0.   24.58 1.0000
   2  -1  10    307.65   0.00          0.00  1.  0.00  0.   27.01 1.0000
   2  -1  10    277.56   0.00          0.00  1.  0.00  0.   22.99 1.0000
   2  -1  11    683.82   0.00          0.00  1.  0.00  0.   43.41 1.0000
   2  -1  11    627.00   0.00          0.00  1.  0.00  0.   41.57 1.0000
   2  -1  11    633.03   0.00          0.00  1.  0.00  0.   34.72 1.0000
   2  -1  14     21.90   0.00          0.00  1.  0.00  0.   17.41 1.0000
   2   0 -13      4.93   0.00          0.00  1.  0.00  0.   14.61 1.0000
   2   0 -13      5.86   0.00          0.00  1.  0.00  0.   14.33 1.0000
   2   0 -12    138.77   0.00          0.00  1.  0.00  0.   18.38 1.0000
   2   0 -12    122.99   0.00          0.00  1.  0.00  0.   17.97 1.0000
   2   0 -11    389.67   0.00          0.00  1.  0.00  0.   31.98 1.0000
   2   0 -11    401.60   0.00          0.00  1.  0.00  0.   32.06 1.0000
   2   0 -10     26.11   0.00          0.00  1.  0.00  0.   13.18 1.0000
   2   0 -10     25.40   0.00          0.00  1.  0.00  0.   12.90 1.0000
   2   0  -9    787.92   0.00          0.00  1.  0.00  0.   45.47 1.0000
   2   0  -9    750.76   0.00          0.00  1.  0.00  0.   44.94 1.0000
   2   0  -9    746.93   0.00          0.00  1.  0.00  0.   44.27 1.0000
   2   0  -8     -7.73   0.00          0.00  1.  0.00  0.    8.34 1.0000
   2   0  -8     28.52   0.00          0.00  1.  0.00  0.   12.28 1.0000
   2   0  -8     12.32   0.00          0.00  1.  0.00  0.    9.97 1.0000
   2   0  -7    888.04   0.00          0.00  1.  0.00  0.   47.68 1.0000
   2   0  -7    857.90   0.00          0.00  1.  0.00  0.   48.62 1.0000
   2   0  -7    855.56   0.00          0.00  1.  0.00  0.   47.38 1.0000
   2   0  -6   1357.19   0.00          0.00  1.  0.00  0.   67.79 1.0000
   2   0  -6   1296.72   0.00          0.00  1.  0.00  0.   67.70 1.0000
   2   0  -6   1314.79   0.00          0.00  1.  0.00  0.   67.44 1.0000
   2   0  -5    940.65   0.00          0.00  1.  0.00  0.   48.46 1.0000
   2   0  -5    960.38   0.00          0.00  1.  0.00  0.   49.58 1.0000
   2   0  -5    941.26   0.00          0.00  1.  0.00  0.   49.09 1.0000
   2   0  -4   1823.29   0.00          0.00  1.  0.00  0.   87.11 1.0000
   2   0  -4   1846.42   0.00          0.00  1.  0.00  0.   87.66 1.0000
   2   0  -4   1825.00   0.00          0.00  1.  0.00  0.   88.00 1.0000
   2   0  -3   1677.72   0.00          0.00  1.  0.00  0.   78.64 1.0000
   2   0  -3   1694.97   0.00          0.00  1.  0.00  0.   79.05 1.0000
   2   0  -3   1702.39   0.00          0.00  1.  0.00  0.   79.22 1.0000
   2   0  -2   2804.76   0.00          0.00  1.  0.00  0.  127.10 1.0000
   2   0  -2   2895.52   0.00          0.00  1.  0.00  0.  128.07 1.0000
   2   0  -2   2798.41   0.00          0.00  1.  0.00  0.  126.96 1.0000
   2   0  -1    602.21   0.00          0.00  1.  0.00  0.   29.94 1.0000
   2   0  -1    554.13   0.00          0.00  1.  0.00  0.   29.19 1.0000
   2   0   0    491.51   0.00          0.00  1.  0.00  0.   26.60 1.0000
   2   0   1   1676.08   0.00          0.00  1.  0.00  0.   77.79 1.0000
   2   0   1   1705.69   0.00          0.00  1.  0.00  0.   77.64 1.0000
   2   0   2   3095.81   0.00          0.00  1.  0.00  0.  137.99 1.0000
   2   0   2   3058.09   0.00          0.00  1.  0.00  0.  138.25 1.0000
   2   0   3    979.06   0.00          0.00  1.  0.00  0.   46.94 1.0000
   2   0   3    962.24   0.00          0.00  1.  0.00  0.   47.15 1.0000
   2   0   4    579.85   0.00          0.00  1.  0.00  0.   31.30 1.0000
   2   0   4    588.55   0.00          0.00  1.  0.00  0.   31.54 1.0000
   2   0   5    315.06   0.00          0.00  1.  0.00  0.   20.94 1.0000
   2   0   5    345.22   0.00          0.00  1.  0.00  0.   22.30 1.0000
   2   0   5    321.48   0.00          0.00  1.  0.00  0.   20.80 1.0000
   2   0   6   1438.68   0.00          0.00  1.  0.00  0.   70.55 1.0000
   2   0   6   1397.26   0.00          0.00  1.  0.00  0.   68.78 1.0000
   2   0   6   1399.51   0.00          0.00  1.  0.00  0.   69.58 1.0000
   2   0   7    840.42   0.00          0.00  1.  0.00  0.   45.22 1.0000
   2   0   7    837.52   0.00          0.00  1.  0.00  0.   45.15 1.0000
   2   0   7    813.96   0.00          0.00  1.  0.00  0.   45.65 1.0000
   2   0   8   1607.21   0.00          0.00  1.  0.00  0.   80.98 1.0000
   2   0   8   1654.86   0.00          0.00  1.  0.00  0.   80.55 1.0000
   2   0   8   1617.65   0.00          0.00  1.  0.00  0.   81.24 1.0000
   2   0   9   1587.23   0.00          0.00  1.  0.00  0.   81.27 1.0000
   2   0   9   1620.87   0.00          0.00  1.  0.00  0.   82.13 1.0000
   2   0   9   1614.43   0.00          0.00  1.  0.00  0.   81.97 1.0000
   2   0  10    877.34   0.00          0.00  1.  0.00  0.   52.13 1.0000
   2   0  10    923.55   0.00          0.00  1.  0.00  0.   44.37 1.0000
   2   0  10    871.43   0.00          0.00  1.  0.00  0.   51.96 1.0000
   2   0  10    885.66   0.00          0.00  1.  0.00  0.   51.19 1.0000
   2   0  11    530.38   0.00          0.00  1.  0.00  0.   38.23 1.0000
   2   0  11    567.39   0.00          0.00  1.  0.00  0.   37.16 1.0000
   2   0  11    518.02   0.00          0.00  1.  0.00  0.   37.33 1.0000
   2   0  11    547.09   0.00          0.00  1.  0.00  0.   29.00 1.0000
   2   0  12    461.82   0.00          0.00  1.  0.00  0.   34.81 1.0000
   2   0  12    476.55   0.00          0.00  1.  0.00  0.   35.36 1.0000
   2   0  12    530.84   0.00          0.00  1.  0.00  0.   26.27 1.0000
   2   0  13    118.81   0.00          0.00  1.  0.00  0.   20.71 1.0000
   2   0  14    119.46   0.00          0.00  1.  0.00  0.   19.24 1.0000
   2   1 -13    161.04   0.00          0.00  1.  0.00  0.   23.60 1.0000
   2   1 -13    127.24   0.00          0.00  1.  0.00  0.   20.08 1.0000
   2   1 -12    288.66   0.00          0.00  1.  0.00  0.   30.24 1.0000
   2   1  -9    181.98   0.00          0.00  1.  0.00  0.   21.04 1.0000
   2   1  -9    197.12   0.00          0.00  1.  0.00  0.   20.22 1.0000
   2   1  -9    213.16   0.00          0.00  1.  0.00  0.   21.32 1.0000
   2   1  -8    338.56   0.00          0.00  1.  0.00  0.   27.60 1.0000
   2   1  -8    353.44   0.00          0.00  1.  0.00  0.   28.20 1.0000
   2   1  -8    407.64   0.00          0.00  1.  0.00  0.   29.88 1.0000
   2   1  -7    446.90   0.00          0.00  1.  0.00  0.   24.10 1.0000
   2   1  -7    467.42   0.00          0.00  1.  0.00  0.   31.13 1.0000
   2   1  -7    421.89   0.00          0.00  1.  0.00  0.   32.04 1.0000
   2   1  -7    466.99   0.00          0.00  1.  0.00  0.   32.42 1.0000
   2   1  -6   1164.17   0.00          0.00  1.  0.00  0.   62.78 1.0000
   2   1  -6   1173.75   0.00          0.00  1.  0.00  0.   62.35 1.0000
   2   1  -6   1213.13   0.00          0.00  1.  0.00  0.   63.39 1.0000
   2   1  -6   1151.92   0.00          0.00  1.  0.00  0.   56.34 1.0000
   2   1   7   1060.15   0.00          0.00  1.  0.00  0.   53.40 1.0000
   2   1   7   1096.27   0.00          0.00  1.  0.00  0.   52.98 1.0000
   2   1   7   1114.22   0.00          0.00  1.  0.00  0.   53.41 1.0000
   2   1  10    256.32   0.00          0.00  1.  0.00  0.   24.66 1.0000
   2   1  10    264.71   0.00          0.00  1.  0.00  0.   23.43 1.0000
   2   1  10    235.01   0.00          0.00  1.  0.00  0.   23.61 1.0000
   2   1  12    316.48   0.00          0.00  1.  0.00  0.   18.15 1.0000
   2   1  12    330.15   0.00          0.00  1.  0.00  0.   27.62 1.0000
   2   1  13    120.78   0.00          0.00  1.  0.00  0.   20.44 1.0000
   2   1  15      5.57   0.00          0.00  1.  0.00  0.   16.99 1.0000
   2   2  -8    370.95   0.00          0.00  1.  0.00  0.   20.80 1.0000
   2   2  -8    344.84   0.00          0.00  1.  0.00  0.   27.85 1.0000
   2   2  -8    368.26   0.00          0.00  1.  0.00  0.   29.55 1.0000
   2   2  -8    348.20   0.00          0.00  1.  0.00  0.   25.75 1.0000
   2   2  -3   2215.58   0.00          0.00  1.  0.00  0.  101.67 1.0000
   2   2  -3   2181.82   0.00          0.00  1.  0.00  0.  100.89 1.0000
   2   2  -3   2186.50   0.00          0.00  1.  0.00  0.  102.87 1.0000
   2   2  -1   1824.14   0.00          0.00  1.  0.00  0.   94.82 1.0000
   2   2  -1   1893.99   0.00          0.00  1.  0.00  0.   87.91 1.0000
   2   2  -1   2024.10   0.00          0.00  1.  0.00  0.   90.88 1.0000
   2   2  -1   1936.00   0.00          0.00  1.  0.00  0.   88.00 1.0000
   2   2   6    732.24   0.00          0.00  1.  0.00  0.   36.26 1.0000
   2   2   6    720.39   0.00          0.00  1.  0.00  0.   34.89 1.0000
   2   2  10     -4.16   0.00          0.00  1.  0.00  0.    9.14 1.0000
   2   2  10     20.34   0.00          0.00  1.  0.00  0.    9.56 1.0000
   2   2  10     15.13   0.00          0.00  1.  0.00  0.    8.87 1.0000
   2   2  11    199.94   0.00          0.00  1.  0.00  0.   21.78 1.0000
   2   2  11    224.40   0.00          0.00  1.  0.00  0.   20.67 1.0000
   2   2  11    202.21   0.00          0.00  1.  0.00  0.   21.90 1.0000
   2   2  13    234.40   0.00          0.00  1.  0.00  0.   25.41 1.0000
   2   2  14     68.89   0.00          0.00  1.  0.00  0.   18.59 1.0000
   2   2  15     73.62   0.00          0.00  1.  0.00  0.   19.91 1.0000
   2   3 -10    135.49   0.00          0.00  1.  0.00  0.   21.88 1.0000
   2   3 -10    163.33   0.00          0.00  1.  0.00  0.   19.94 1.0000
   2   3  -9    241.18   0.00          0.00  1.  0.00  0.   23.92 1.0000
   2   3  -9    238.08   0.00          0.00  1.  0.00  0.   16.97 1.0000
   2   3  -9    254.40   0.00          0.00  1.  0.00  0.   24.24 1.0000
   2   3  -8    469.16   0.00          0.00  1.  0.00  0.   27.29 1.0000
   2   3  -8    449.86   0.00          0.00  1.  0.00  0.   29.69 1.0000
   2   3  -8    460.10   0.00          0.00  1.  0.00  0.   33.46 1.0000
   2   3  -8    456.68   0.00          0.00  1.  0.00  0.   32.48 1.0000
   2   3  -8    461.39   0.00          0.00  1.  0.00  0.   31.79 1.0000
   2   3  -6   1401.75   0.00          0.00  1.  0.00  0.   72.63 1.0000
   2   3  -6   1317.69   0.00          0.00  1.  0.00  0.   66.07 1.0000
   2   3  -6   1425.06   0.00          0.00  1.  0.00  0.   69.46 1.0000
   2   3  -6   1408.50   0.00          0.00  1.  0.00  0.   69.06 1.0000
   2   3  -6   1380.87   0.00          0.00  1.  0.00  0.   70.60 1.0000
   2   3  -5     87.98   0.00          0.00  1.  0.00  0.   12.76 1.0000
   2   3  -5     70.56   0.00          0.00  1.  0.00  0.   11.42 1.0000
   2   3  -5     81.18   0.00          0.00  1.  0.00  0.   16.22 1.0000
   2   3  -5     96.04   0.00          0.00  1.  0.00  0.   12.15 1.0000
   2   3  -5     73.79   0.00          0.00  1.  0.00  0.   10.14 1.0000
   2   3  -3    665.64   0.00          0.00  1.  0.00  0.   39.73 1.0000
   2   3  -3    648.72   0.00          0.00  1.  0.00  0.   36.17 1.0000
   2   3  -3    658.44   0.00          0.00  1.  0.00  0.   36.44 1.0000
   2   3  -3    711.29   0.00          0.00  1.  0.00  0.   40.01 1.0000
   2   3  -2   2560.36   0.00          0.00  1.  0.00  0.  117.39 1.0000
   2   3  -2   2601.00   0.00          0.00  1.  0.00  0.  120.36 1.0000
   2   3  -2   2566.44   0.00          0.00  1.  0.00  0.  117.53 1.0000
   2   3  -2   2563.40   0.00          0.00  1.  0.00  0.  125.56 1.0000
   2   3  -1   2007.04   0.00          0.00  1.  0.00  0.   93.18 1.0000
   2   3  -1   2155.74   0.00          0.00  1.  0.00  0.   97.50 1.0000
   2   3  -1   2028.60   0.00          0.00  1.  0.00  0.   93.68 1.0000
   2   3  -1   2024.10   0.00          0.00  1.  0.00  0.  102.58 1.0000
   2   3   0   4820.52   0.00          0.00  1.  0.00  0.  255.50 1.0000
   2   3   0   4963.20   0.00          0.00  1.  0.00  0.  235.30 1.0000
   2   3   0   5035.32   0.00          0.00  1.  0.00  0.  232.75 1.0000
   2   3   0   5160.98   0.00          0.00  1.  0.00  0.  232.76 1.0000
   2   3   4   2354.19   0.00          0.00  1.  0.00  0.  126.15 1.0000
   2   3   4   2391.21   0.00          0.00  1.  0.00  0.  126.16 1.0000
   2   3   6    738.21   0.00          0.00  1.  0.00  0.   34.23 1.0000
   2   3  11     16.89   0.00          0.00  1.  0.00  0.   11.92 1.0000
   2   3  11      5.62   0.00          0.00  1.  0.00  0.   10.62 1.0000
   2   3  11     -1.93   0.00          0.00  1.  0.00  0.   11.12 1.0000
   2   3  12    577.92   0.00          0.00  1.  0.00  0.   38.46 1.0000
   2   3  12    519.84   0.00          0.00  1.  0.00  0.   38.30 1.0000
   2   3  13    772.84   0.00          0.00  1.  0.00  0.   50.04 1.0000
   2   3  14    459.67   0.00          0.00  1.  0.00  0.   36.02 1.0000
   2   4 -10    242.11   0.00          0.00  1.  0.00  0.   29.56 1.0000
   2   4 -10    259.53   0.00          0.00  1.  0.00  0.   25.45 1.0000
   2   4  -9    116.86   0.00          0.00  1.  0.00  0.   13.62 1.0000
   2   4  -9    137.12   0.00          0.00  1.  0.00  0.   16.86 1.0000
   2   4  -9    118.37   0.00          0.00  1.  0.00  0.   20.67 1.0000
   2   4  -9    126.11   0.00          0.00  1.  0.00  0.   16.17 1.0000
   2   4  -8     16.16   0.00          0.00  1.  0.00  0.   11.26 1.0000
   2   4  -8     11.97   0.00          0.00  1.  0.00  0.    9.83 1.0000
   2   4  -8      4.16   0.00          0.00  1.  0.00  0.    7.67 1.0000
   2   4  -8     18.75   0.00          0.00  1.  0.00  0.    9.44 1.0000
   2   4  -7      4.58   0.00          0.00  1.  0.00  0.    9.42 1.0000
   2   4  -7     20.70   0.00          0.00  1.  0.00  0.   10.56 1.0000
   2   4  -7     29.16   0.00          0.00  1.  0.00  0.   11.77 1.0000
   2   4  -7     -3.06   0.00          0.00  1.  0.00  0.    7.03 1.0000
   2   4  -7      4.49   0.00          0.00  1.  0.00  0.    9.62 1.0000
   2   4  -6     22.85   0.00          0.00  1.  0.00  0.   10.23 1.0000
   2   4  -6     11.16   0.00          0.00  1.  0.00  0.    9.55 1.0000
   2   4  -6     10.43   0.00          0.00  1.  0.00  0.   10.59 1.0000
   2   4  -6     14.06   0.00          0.00  1.  0.00  0.    8.25 1.0000
   2   4  10    420.66   0.00          0.00  1.  0.00  0.   29.12 1.0000
   2   4  10    414.53   0.00          0.00  1.  0.00  0.   29.73 1.0000
   2   4  10    394.82   0.00          0.00  1.  0.00  0.   29.81 1.0000
   2   4  11    389.27   0.00          0.00  1.  0.00  0.   28.41 1.0000
   2   4  11    419.02   0.00          0.00  1.  0.00  0.   29.07 1.0000
   2   4  11    373.26   0.00          0.00  1.  0.00  0.   27.82 1.0000
   2   4  12    473.93   0.00          0.00  1.  0.00  0.   35.70 1.0000
   2   4  12    575.52   0.00          0.00  1.  0.00  0.   38.38 1.0000
   2   4  13    190.16   0.00          0.00  1.  0.00  0.   22.62 1.0000
   2   4  14     98.01   0.00          0.00  1.  0.00  0.   18.02 1.0000
   2   5  -7     81.00   0.00          0.00  1.  0.00  0.   14.58 1.0000
   2   5  -7     75.52   0.00          0.00  1.  0.00  0.   14.25 1.0000
   2   5  -7     76.74   0.00          0.00  1.  0.00  0.   13.49 1.0000
   2   5  -7    109.62   0.00          0.00  1.  0.00  0.   19.26 1.0000
   2   5  -7     76.56   0.00          0.00  1.  0.00  0.   14.52 1.0000
   2   5   0    625.50   0.00          0.00  1.  0.00  0.   38.52 1.0000
   2   5   0    625.00   0.00          0.00  1.  0.00  0.   30.50 1.0000
   2   5   0    594.87   0.00          0.00  1.  0.00  0.   30.24 1.0000
   2   5   0    627.50   0.00          0.00  1.  0.00  0.   36.57 1.0000
   2   5   0    602.21   0.00          0.00  1.  0.00  0.   38.28 1.0000
   2   5   6     55.06   0.00          0.00  1.  0.00  0.    7.72 1.0000
   2   5   6     60.22   0.00          0.00  1.  0.00  0.    8.69 1.0000
   2   5   9    886.25   0.00          0.00  1.  0.00  0.   48.82 1.0000
   2   5   9    898.20   0.00          0.00  1.  0.00  0.   49.75 1.0000
   2   5   9    927.20   0.00          0.00  1.  0.00  0.   50.55 1.0000
   2   5  10   1531.94   0.00          0.00  1.  0.00  0.   78.28 1.0000
   2   5  10   1469.96   0.00          0.00  1.  0.00  0.   77.45 1.0000
   2   5  10   1588.82   0.00          0.00  1.  0.00  0.   78.92 1.0000
   2   5  12    456.68   0.00          0.00  1.  0.00  0.   34.62 1.0000
   2   5  12    563.11   0.00          0.00  1.  0.00  0.   36.54 1.0000
   2   5  12    537.31   0.00          0.00  1.  0.00  0.   31.52 1.0000
   2   5  13    244.61   0.00          0.00  1.  0.00  0.   25.02 1.0000
   2   6  -6    361.00   0.00          0.00  1.  0.00  0.   25.08 1.0000
   2   6  -6    381.81   0.00          0.00  1.  0.00  0.   32.44 1.0000
   2   6  -6    393.23   0.00          0.00  1.  0.00  0.   32.12 1.0000
   2   6  -6    390.85   0.00          0.00  1.  0.00  0.   25.70 1.0000
   2   6  -5   1497.69   0.00          0.00  1.  0.00  0.   77.40 1.0000
   2   6  -5   1494.60   0.00          0.00  1.  0.00  0.   72.68 1.0000
   2   6  -5   1308.27   0.00          0.00  1.  0.00  0.   79.57 1.0000
   2   6  -5   1406.25   0.00          0.00  1.  0.00  0.   90.00 1.0000
   2   6  -5   1444.76   0.00          0.00  1.  0.00  0.   72.22 1.0000
   2   6  -5   1440.20   0.00          0.00  1.  0.00  0.   78.94 1.0000
   2   6  -2    367.49   0.00          0.00  1.  0.00  0.   27.60 1.0000
   2   6  -2    334.89   0.00          0.00  1.  0.00  0.   28.18 1.0000
   2   6  -2    329.42   0.00          0.00  1.  0.00  0.   28.31 1.0000
   2   6  -2    354.57   0.00          0.00  1.  0.00  0.   19.58 1.0000
   2   6  -2    314.35   0.00          0.00  1.  0.00  0.   30.85 1.0000
   2   6  -2    325.08   0.00          0.00  1.  0.00  0.   19.11 1.0000
   2   6   5    184.14   0.00          0.00  1.  0.00  0.   11.67 1.0000
   2   6   5    190.16   0.00          0.00  1.  0.00  0.   20.96 1.0000
   2   6   5    186.60   0.00          0.00  1.  0.00  0.   10.93 1.0000
   2   6   6    110.04   0.00          0.00  1.  0.00  0.    9.44 1.0000
   2   6   6    102.41   0.00          0.00  1.  0.00  0.    9.72 1.0000
   2   6   9    199.94   0.00          0.00  1.  0.00  0.   17.25 1.0000
   2   6   9    175.03   0.00          0.00  1.  0.00  0.   17.46 1.0000
   2   6   9    176.62   0.00          0.00  1.  0.00  0.   16.48 1.0000
   2   6  11      0.81   0.00          0.00  1.  0.00  0.   10.24 1.0000
   2   6  11     -4.97   0.00          0.00  1.  0.00  0.   10.70 1.0000
   2   6  11      7.45   0.00          0.00  1.  0.00  0.    9.94 1.0000
   2   6  12    253.13   0.00          0.00  1.  0.00  0.   21.00 1.0000
   2   7  -4    586.12   0.00          0.00  1.  0.00  0.   41.64 1.0000
   2   7  -4    541.49   0.00          0.00  1.  0.00  0.   33.04 1.0000
   2   7  -4    566.92   0.00          0.00  1.  0.00  0.   41.91 1.0000
   2   7  -2    409.66   0.00          0.00  1.  0.00  0.   31.57 1.0000
   2   7  -2    367.11   0.00          0.00  1.  0.00  0.   29.89 1.0000
   2   7  -1    232.87   0.00          0.00  1.  0.00  0.   24.11 1.0000
   2   7  -1    246.18   0.00          0.00  1.  0.00  0.   22.91 1.0000
   2   7   0    726.84   0.00          0.00  1.  0.00  0.   48.53 1.0000
   2   7   0    799.76   0.00          0.00  1.  0.00  0.   49.21 1.0000
   2   7   0    754.05   0.00          0.00  1.  0.00  0.   44.49 1.0000
   2   7   0    777.29   0.00          0.00  1.  0.00  0.   49.63 1.0000
   2   7   7    515.74   0.00          0.00  1.  0.00  0.   27.25 1.0000
   2   7   7    548.96   0.00          0.00  1.  0.00  0.   36.55 1.0000
   2   7   7    471.32   0.00          0.00  1.  0.00  0.   26.92 1.0000
   2   7   8   1362.35   0.00          0.00  1.  0.00  0.   64.22 1.0000
   2   7   8   1265.22   0.00          0.00  1.  0.00  0.   64.03 1.0000
   2   7   8   1360.87   0.00          0.00  1.  0.00  0.   73.04 1.0000
   2   7   9    126.34   0.00          0.00  1.  0.00  0.   18.88 1.0000
   2   7   9    126.34   0.00          0.00  1.  0.00  0.   13.26 1.0000
   2   7  10    208.80   0.00          0.00  1.  0.00  0.   21.96 1.0000
   2   7  11    125.89   0.00          0.00  1.  0.00  0.   17.95 1.0000
   2   8  -4    420.25   0.00          0.00  1.  0.00  0.   36.90 1.0000
   2   8  -4    467.42   0.00          0.00  1.  0.00  0.   36.32 1.0000
   2   8  -3     71.57   0.00          0.00  1.  0.00  0.   19.12 1.0000
   2   8  -1    132.94   0.00          0.00  1.  0.00  0.   19.37 1.0000
   2   8  -1    120.12   0.00          0.00  1.  0.00  0.   16.44 1.0000
   2   8   0     15.52   0.00          0.00  1.  0.00  0.   11.27 1.0000
   2   8   4    177.16   0.00          0.00  1.  0.00  0.   17.84 1.0000
   2   8   4    167.18   0.00          0.00  1.  0.00  0.   24.31 1.0000
   2   8   5     14.59   0.00          0.00  1.  0.00  0.   15.36 1.0000
   2   8   7     -0.59   0.00          0.00  1.  0.00  0.   14.80 1.0000
   2   8   8    157.50   0.00          0.00  1.  0.00  0.   19.83 1.0000
   2   8   9     74.48   0.00          0.00  1.  0.00  0.   18.30 1.0000
   2   8  10    115.35   0.00          0.00  1.  0.00  0.   19.98 1.0000
   2   9  -2      9.42   0.00          0.00  1.  0.00  0.   13.20 1.0000
   2   9  -1    280.90   0.00          0.00  1.  0.00  0.   27.15 1.0000
   2   9  -1    214.04   0.00          0.00  1.  0.00  0.   28.67 1.0000
   2   9   0     94.48   0.00          0.00  1.  0.00  0.   23.13 1.0000
   2   9   1    338.19   0.00          0.00  1.  0.00  0.   27.95 1.0000
   2   9   1    338.19   0.00          0.00  1.  0.00  0.   34.94 1.0000
   2   9   2    347.45   0.00          0.00  1.  0.00  0.   34.30 1.0000
   2   9   3    134.10   0.00          0.00  1.  0.00  0.   23.16 1.0000
   2   9   3    104.86   0.00          0.00  1.  0.00  0.   15.36 1.0000
   2   9   4    182.79   0.00          0.00  1.  0.00  0.   18.93 1.0000
   2   9   4    214.33   0.00          0.00  1.  0.00  0.   28.11 1.0000
   2   9   5    118.37   0.00          0.00  1.  0.00  0.   22.63 1.0000
   2   9   5    107.74   0.00          0.00  1.  0.00  0.   15.15 1.0000
   2   9   6     -0.05   0.00          0.00  1.  0.00  0.   16.10 1.0000
   2   9   7     10.89   0.00          0.00  1.  0.00  0.   16.30 1.0000
   2   9   8     76.56   0.00          0.00  1.  0.00  0.   20.47 1.0000
   3  -9  -5    190.16   0.00          0.00  1.  0.00  0.   28.41 1.0000
   3  -9  -4    305.55   0.00          0.00  1.  0.00  0.   38.11 1.0000
   3  -9  -3    246.80   0.00          0.00  1.  0.00  0.   33.62 1.0000
   3  -9  -2     50.98   0.00          0.00  1.  0.00  0.   19.56 1.0000
   3  -8  -8    112.57   0.00          0.00  1.  0.00  0.   13.58 1.0000
   3  -8  -7     57.46   0.00          0.00  1.  0.00  0.    9.55 1.0000
   3  -8  -5     70.06   0.00          0.00  1.  0.00  0.    7.87 1.0000
   3  -8   0     74.65   0.00          0.00  1.  0.00  0.   19.53 1.0000
   3  -8   5    259.21   0.00          0.00  1.  0.00  0.   30.59 1.0000
   3  -8   5    204.20   0.00          0.00  1.  0.00  0.   16.86 1.0000
   3  -8   6    213.45   0.00          0.00  1.  0.00  0.   18.41 1.0000
   3  -8   6    250.59   0.00          0.00  1.  0.00  0.   31.66 1.0000
   3  -7  -9     68.23   0.00          0.00  1.  0.00  0.   14.54 1.0000
   3  -7  -8    257.92   0.00          0.00  1.  0.00  0.   21.84 1.0000
   3  -7  -7    283.59   0.00          0.00  1.  0.00  0.   20.54 1.0000
   3  -7  -6    180.10   0.00          0.00  1.  0.00  0.   15.84 1.0000
   3  -7  -5    290.36   0.00          0.00  1.  0.00  0.   19.43 1.0000
   3  -7  -5    289.00   0.00          0.00  1.  0.00  0.   19.04 1.0000
   3  -7  -3    775.62   0.00          0.00  1.  0.00  0.   40.10 1.0000
   3  -7  -3    834.63   0.00          0.00  1.  0.00  0.   41.02 1.0000
   3  -7  -1    342.99   0.00          0.00  1.  0.00  0.   20.37 1.0000
   3  -7   0    265.36   0.00          0.00  1.  0.00  0.   28.34 1.0000
   3  -7   0    321.13   0.00          0.00  1.  0.00  0.   17.20 1.0000
   3  -7   0    240.87   0.00          0.00  1.  0.00  0.   16.45 1.0000
   3  -7   1    508.50   0.00          0.00  1.  0.00  0.   39.69 1.0000
   3  -7   1    472.63   0.00          0.00  1.  0.00  0.   25.65 1.0000
   3  -7   1    515.29   0.00          0.00  1.  0.00  0.   41.31 1.0000
   3  -7   2    804.29   0.00          0.00  1.  0.00  0.   40.84 1.0000
   3  -7   2    780.64   0.00          0.00  1.  0.00  0.   41.35 1.0000
   3  -7   2    870.84   0.00          0.00  1.  0.00  0.   57.84 1.0000
   3  -7   2    808.83   0.00          0.00  1.  0.00  0.   54.60 1.0000
   3  -7   4    171.09   0.00          0.00  1.  0.00  0.   16.74 1.0000
   3  -7   4    172.13   0.00          0.00  1.  0.00  0.   14.96 1.0000
   3  -7   4    191.55   0.00          0.00  1.  0.00  0.   25.19 1.0000
   3  -7   5      9.67   0.00          0.00  1.  0.00  0.    8.52 1.0000
   3  -7   6     -3.06   0.00          0.00  1.  0.00  0.   14.56 1.0000
   3  -7   8    177.42   0.00          0.00  1.  0.00  0.   19.45 1.0000
   3  -7   8    142.09   0.00          0.00  1.  0.00  0.   24.32 1.0000
   3  -6 -11     79.21   0.00          0.00  1.  0.00  0.   17.98 1.0000
   3  -6 -10    128.60   0.00          0.00  1.  0.00  0.   18.60 1.0000
   3  -6  -9    224.10   0.00          0.00  1.  0.00  0.   21.56 1.0000
   3  -6  -7    213.74   0.00          0.00  1.  0.00  0.   19.59 1.0000
   3  -6  -7    199.37   0.00          0.00  1.  0.00  0.   18.36 1.0000
   3  -6  -6    109.62   0.00          0.00  1.  0.00  0.   12.98 1.0000
   3  -6  -6     95.06   0.00          0.00  1.  0.00  0.   11.31 1.0000
   3  -6  -5    183.06   0.00          0.00  1.  0.00  0.   15.15 1.0000
   3  -6  -5    167.96   0.00          0.00  1.  0.00  0.   14.77 1.0000
   3  -6  -3    428.90   0.00          0.00  1.  0.00  0.   30.24 1.0000
   3  -6  -3    410.06   0.00          0.00  1.  0.00  0.   23.49 1.0000
   3  -6  -3    368.26   0.00          0.00  1.  0.00  0.   23.03 1.0000
   3  -6   3    364.81   0.00          0.00  1.  0.00  0.   22.54 1.0000
   3  -6   3    340.77   0.00          0.00  1.  0.00  0.   29.54 1.0000
   3  -6   3    358.34   0.00          0.00  1.  0.00  0.   31.42 1.0000
   3  -6   3    345.22   0.00          0.00  1.  0.00  0.   21.55 1.0000
   3  -6   3    339.30   0.00          0.00  1.  0.00  0.   22.47 1.0000
   3  -6   3    369.41   0.00          0.00  1.  0.00  0.   30.37 1.0000
   3  -6   5     34.46   0.00          0.00  1.  0.00  0.   15.38 1.0000
   3  -6   5     24.70   0.00          0.00  1.  0.00  0.   10.83 1.0000
   3  -6   5     40.07   0.00          0.00  1.  0.00  0.   12.53 1.0000
   3  -6   5     20.79   0.00          0.00  1.  0.00  0.    8.48 1.0000
   3  -6   5     25.00   0.00          0.00  1.  0.00  0.    9.60 1.0000
   3  -6   7    200.51   0.00          0.00  1.  0.00  0.   20.11 1.0000
   3  -6   7    179.02   0.00          0.00  1.  0.00  0.   25.69 1.0000
   3  -6   7    201.92   0.00          0.00  1.  0.00  0.   22.74 1.0000
   3  -5 -11     31.81   0.00          0.00  1.  0.00  0.   15.23 1.0000
   3  -5 -10    100.20   0.00          0.00  1.  0.00  0.   18.42 1.0000
   3  -5  -9    220.52   0.00          0.00  1.  0.00  0.   21.38 1.0000
   3  -5  -9    221.71   0.00          0.00  1.  0.00  0.   22.63 1.0000
   3  -5  -6    267.32   0.00          0.00  1.  0.00  0.   19.95 1.0000
   3  -5  -6    244.61   0.00          0.00  1.  0.00  0.   19.39 1.0000
   3  -5  -4    276.89   0.00          0.00  1.  0.00  0.   20.30 1.0000
   3  -5  -4    237.16   0.00          0.00  1.  0.00  0.   17.56 1.0000
   3  -5  -4    238.39   0.00          0.00  1.  0.00  0.   17.29 1.0000
   3  -5  -1    438.06   0.00          0.00  1.  0.00  0.   22.60 1.0000
   3  -5  -1    448.59   0.00          0.00  1.  0.00  0.   28.80 1.0000
   3  -5   2     40.07   0.00          0.00  1.  0.00  0.   14.56 1.0000
   3  -5   2     40.20   0.00          0.00  1.  0.00  0.    7.73 1.0000
   3  -5   2     55.06   0.00          0.00  1.  0.00  0.    9.05 1.0000
   3  -5   2     42.51   0.00          0.00  1.  0.00  0.    7.69 1.0000
   3  -5   2     54.46   0.00          0.00  1.  0.00  0.   13.87 1.0000
   3  -5   3     67.24   0.00          0.00  1.  0.00  0.    9.68 1.0000
   3  -5   3     39.94   0.00          0.00  1.  0.00  0.   14.92 1.0000
   3  -5   3     59.14   0.00          0.00  1.  0.00  0.    9.69 1.0000
   3  -5   3     53.44   0.00          0.00  1.  0.00  0.    8.48 1.0000
   3  -5   3     50.55   0.00          0.00  1.  0.00  0.   11.38 1.0000
   3  -5   4    224.70   0.00          0.00  1.  0.00  0.   20.69 1.0000
   3  -5   4    229.22   0.00          0.00  1.  0.00  0.   23.92 1.0000
   3  -5   4    227.41   0.00          0.00  1.  0.00  0.   17.79 1.0000
   3  -5   4    209.96   0.00          0.00  1.  0.00  0.   22.31 1.0000
   3  -5   4    204.49   0.00          0.00  1.  0.00  0.   16.30 1.0000
   3  -5   4    208.22   0.00          0.00  1.  0.00  0.   17.89 1.0000
   3  -5   5    395.21   0.00          0.00  1.  0.00  0.   29.42 1.0000
   3  -5   5    351.56   0.00          0.00  1.  0.00  0.   24.75 1.0000
   3  -5   5    360.62   0.00          0.00  1.  0.00  0.   23.93 1.0000
   3  -5   5    375.58   0.00          0.00  1.  0.00  0.   32.17 1.0000
   3  -5   5    377.91   0.00          0.00  1.  0.00  0.   26.44 1.0000
   3  -4 -12     -7.18   0.00          0.00  1.  0.00  0.   14.79 1.0000
   3  -4 -11    368.26   0.00          0.00  1.  0.00  0.   31.47 1.0000
   3  -4 -11    361.76   0.00          0.00  1.  0.00  0.   29.29 1.0000
   3  -4 -10      8.29   0.00          0.00  1.  0.00  0.   12.38 1.0000
   3  -4 -10      6.66   0.00          0.00  1.  0.00  0.   12.33 1.0000
   3  -4  -4     -6.76   0.00          0.00  1.  0.00  0.    6.45 1.0000
   3  -4  -4     -5.11   0.00          0.00  1.  0.00  0.    8.72 1.0000
   3  -4  -4      5.62   0.00          0.00  1.  0.00  0.    6.40 1.0000
   3  -4   2   2001.67   0.00          0.00  1.  0.00  0.   92.16 1.0000
   3  -4   2   1917.56   0.00          0.00  1.  0.00  0.   96.34 1.0000
   3  -4   2   2015.11   0.00          0.00  1.  0.00  0.   92.47 1.0000
   3  -4   2   2042.14   0.00          0.00  1.  0.00  0.  105.74 1.0000
   3  -4   2   1946.57   0.00          0.00  1.  0.00  0.   91.77 1.0000
   3  -4   5    661.00   0.00          0.00  1.  0.00  0.   40.62 1.0000
   3  -4   5    630.01   0.00          0.00  1.  0.00  0.   37.15 1.0000
   3  -4   5    657.92   0.00          0.00  1.  0.00  0.   38.99 1.0000
   3  -4   5    669.26   0.00          0.00  1.  0.00  0.   37.25 1.0000
   3  -4   5    697.49   0.00          0.00  1.  0.00  0.   40.67 1.0000
   3  -4   6   1035.55   0.00          0.00  1.  0.00  0.   57.92 1.0000
   3  -4   6   1009.33   0.00          0.00  1.  0.00  0.   58.46 1.0000
   3  -4   6    989.73   0.00          0.00  1.  0.00  0.   59.77 1.0000
   3  -4   6   1023.36   0.00          0.00  1.  0.00  0.   59.50 1.0000
   3  -4   7    782.88   0.00          0.00  1.  0.00  0.   45.33 1.0000
   3  -4   7    731.70   0.00          0.00  1.  0.00  0.   43.28 1.0000
   3  -4   7    749.66   0.00          0.00  1.  0.00  0.   42.17 1.0000
   3  -4   7    727.38   0.00          0.00  1.  0.00  0.   43.69 1.0000
   3  -4   8    446.48   0.00          0.00  1.  0.00  0.   32.96 1.0000
   3  -4   8    426.01   0.00          0.00  1.  0.00  0.   29.31 1.0000
   3  -4   8    408.04   0.00          0.00  1.  0.00  0.   29.09 1.0000
   3  -4   8    404.41   0.00          0.00  1.  0.00  0.   30.57 1.0000
   3  -4   9    284.60   0.00          0.00  1.  0.00  0.   23.28 1.0000
   3  -3 -12    195.72   0.00          0.00  1.  0.00  0.   22.66 1.0000
   3  -3 -11    819.68   0.00          0.00  1.  0.00  0.   45.81 1.0000
   3  -3 -11    810.54   0.00          0.00  1.  0.00  0.   49.54 1.0000
   3  -3 -11    755.15   0.00          0.00  1.  0.00  0.   48.36 1.0000
   3  -3 -10      9.18   0.00          0.00  1.  0.00  0.    9.57 1.0000
   3  -3 -10     20.25   0.00          0.00  1.  0.00  0.   13.68 1.0000
   3  -3 -10      5.57   0.00          0.00  1.  0.00  0.   12.89 1.0000
   3  -3  -9    231.04   0.00          0.00  1.  0.00  0.   18.54 1.0000
   3  -3  -9    215.21   0.00          0.00  1.  0.00  0.   21.12 1.0000
   3  -3  -9    241.80   0.00          0.00  1.  0.00  0.   23.01 1.0000
   3  -3  -8    377.52   0.00          0.00  1.  0.00  0.   24.48 1.0000
   3  -3  -8    411.68   0.00          0.00  1.  0.00  0.   29.62 1.0000
   3  -3  -8    370.56   0.00          0.00  1.  0.00  0.   28.11 1.0000
   3  -3  -7   1750.59   0.00          0.00  1.  0.00  0.   86.19 1.0000
   3  -3  -7   1726.40   0.00          0.00  1.  0.00  0.   89.75 1.0000
   3  -3  -7   1727.23   0.00          0.00  1.  0.00  0.   89.77 1.0000
   3  -3  -6   1758.96   0.00          0.00  1.  0.00  0.   84.72 1.0000
   3  -3  -6   1776.62   0.00          0.00  1.  0.00  0.   88.51 1.0000
   3  -3  -6   1874.89   0.00          0.00  1.  0.00  0.   84.87 1.0000
   3  -3  -6   1899.22   0.00          0.00  1.  0.00  0.   90.65 1.0000
   3  -3  -3    301.02   0.00          0.00  1.  0.00  0.   20.47 1.0000
   3  -3  -3    292.41   0.00          0.00  1.  0.00  0.   15.39 1.0000
   3  -3  -3    314.71   0.00          0.00  1.  0.00  0.   20.58 1.0000
   3  -3  -3    329.06   0.00          0.00  1.  0.00  0.   21.41 1.0000
   3  -3  -2     22.75   0.00          0.00  1.  0.00  0.    8.49 1.0000
   3  -3  -2     37.82   0.00          0.00  1.  0.00  0.    6.89 1.0000
   3  -3  -2     14.52   0.00          0.00  1.  0.00  0.    8.69 1.0000
   3  -3   1   3039.32   0.00          0.00  1.  0.00  0.  132.31 1.0000
   3  -3   1   2879.40   0.00          0.00  1.  0.00  0.  136.30 1.0000
   3  -3   1   2834.50   0.00          0.00  1.  0.00  0.  133.10 1.0000
   3  -3   1   3027.20   0.00          0.00  1.  0.00  0.  133.15 1.0000
   3  -3   1   2884.76   0.00          0.00  1.  0.00  0.  147.17 1.0000
   3  -3   2    682.25   0.00          0.00  1.  0.00  0.   40.75 1.0000
   3  -3   2    636.55   0.00          0.00  1.  0.00  0.   37.34 1.0000
   3  -3   2    699.60   0.00          0.00  1.  0.00  0.   37.56 1.0000
   3  -3   2    681.21   0.00          0.00  1.  0.00  0.   43.33 1.0000
   3  -3   2    685.92   0.00          0.00  1.  0.00  0.   36.67 1.0000
   3  -3   3    719.85   0.00          0.00  1.  0.00  0.   38.64 1.0000
   3  -3   3    766.74   0.00          0.00  1.  0.00  0.   39.87 1.0000
   3  -3   3    774.51   0.00          0.00  1.  0.00  0.   40.08 1.0000
   3  -3   3    765.08   0.00          0.00  1.  0.00  0.   43.15 1.0000
   3  -3   5   1242.56   0.00          0.00  1.  0.00  0.   63.45 1.0000
   3  -3   5   1338.10   0.00          0.00  1.  0.00  0.   67.31 1.0000
   3  -3   5   1283.07   0.00          0.00  1.  0.00  0.   64.48 1.0000
   3  -3   5   1258.12   0.00          0.00  1.  0.00  0.   64.56 1.0000
   3  -3   6   1395.02   0.00          0.00  1.  0.00  0.   72.46 1.0000
   3  -3   6   1488.42   0.00          0.00  1.  0.00  0.   74.85 1.0000
   3  -3   6   1503.89   0.00          0.00  1.  0.00  0.   74.46 1.0000
   3  -3   6   1470.72   0.00          0.00  1.  0.00  0.   72.86 1.0000
   3  -3   7   1821.58   0.00          0.00  1.  0.00  0.   91.34 1.0000
   3  -3   7   1930.72   0.00          0.00  1.  0.00  0.   94.03 1.0000
   3  -3   7   1936.88   0.00          0.00  1.  0.00  0.   92.42 1.0000
   3  -3   7   1863.65   0.00          0.00  1.  0.00  0.   92.38 1.0000
   3  -3   8    377.52   0.00          0.00  1.  0.00  0.   29.15 1.0000
   3  -3   8    388.09   0.00          0.00  1.  0.00  0.   29.16 1.0000
   3  -3   8    418.61   0.00          0.00  1.  0.00  0.   29.87 1.0000
   3  -3   8    386.12   0.00          0.00  1.  0.00  0.   31.44 1.0000
   3  -3   9    240.56   0.00          0.00  1.  0.00  0.   24.82 1.0000
   3  -3   9    259.53   0.00          0.00  1.  0.00  0.   20.94 1.0000
   3  -3   9    248.69   0.00          0.00  1.  0.00  0.   23.97 1.0000
   3  -3   9    243.67   0.00          0.00  1.  0.00  0.   22.17 1.0000
   3  -3  12    100.80   0.00          0.00  1.  0.00  0.   17.67 1.0000
   3  -3  12     85.01   0.00          0.00  1.  0.00  0.   15.67 1.0000
   3  -2 -13    260.50   0.00          0.00  1.  0.00  0.   25.50 1.0000
   3  -2 -13    230.43   0.00          0.00  1.  0.00  0.   28.84 1.0000
   3  -2 -12    334.16   0.00          0.00  1.  0.00  0.   32.17 1.0000
   3  -2 -12    305.20   0.00          0.00  1.  0.00  0.   27.60 1.0000
   3  -2 -10    219.63   0.00          0.00  1.  0.00  0.   20.75 1.0000
   3  -2 -10    190.72   0.00          0.00  1.  0.00  0.   21.82 1.0000
   3  -2 -10    198.53   0.00          0.00  1.  0.00  0.   22.83 1.0000
   3  -2  -9    273.24   0.00          0.00  1.  0.00  0.   24.80 1.0000
   3  -2  -9    304.50   0.00          0.00  1.  0.00  0.   23.38 1.0000
   3  -2  -9    342.62   0.00          0.00  1.  0.00  0.   27.76 1.0000
   3  -2  -6    831.75   0.00          0.00  1.  0.00  0.   43.26 1.0000
   3  -2  -6    916.88   0.00          0.00  1.  0.00  0.   46.63 1.0000
   3  -2  -6    853.81   0.00          0.00  1.  0.00  0.   46.75 1.0000
   3  -2  -6    841.00   0.00          0.00  1.  0.00  0.   40.02 1.0000
   3  -2   2   1602.40   0.00          0.00  1.  0.00  0.   75.26 1.0000
   3  -2   2   1565.78   0.00          0.00  1.  0.00  0.   75.18 1.0000
   3  -2   5   1236.23   0.00          0.00  1.  0.00  0.   61.88 1.0000
   3  -2   5   1239.74   0.00          0.00  1.  0.00  0.   60.56 1.0000
   3  -2   5   1168.96   0.00          0.00  1.  0.00  0.   60.86 1.0000
   3  -2   7   2154.82   0.00          0.00  1.  0.00  0.  108.62 1.0000
   3  -2   7   2012.42   0.00          0.00  1.  0.00  0.  105.87 1.0000
   3  -2   7   2037.62   0.00          0.00  1.  0.00  0.  106.53 1.0000
   3  -2   7   2127.98   0.00          0.00  1.  0.00  0.  106.10 1.0000
   3  -2   9    309.06   0.00          0.00  1.  0.00  0.   23.21 1.0000
   3  -2   9    272.25   0.00          0.00  1.  0.00  0.   24.09 1.0000
   3  -2   9    327.97   0.00          0.00  1.  0.00  0.   27.17 1.0000
   3  -2   9    303.11   0.00          0.00  1.  0.00  0.   24.37 1.0000
   3  -2  10    549.90   0.00          0.00  1.  0.00  0.   36.11 1.0000
   3  -2  10    508.95   0.00          0.00  1.  0.00  0.   31.13 1.0000
   3  -2  10    496.40   0.00          0.00  1.  0.00  0.   33.87 1.0000
   3  -2  10    495.51   0.00          0.00  1.  0.00  0.   33.84 1.0000
   3  -2  12    207.65   0.00          0.00  1.  0.00  0.   22.77 1.0000
   3  -2  12    221.12   0.00          0.00  1.  0.00  0.   18.44 1.0000
   3  -2  12    212.28   0.00          0.00  1.  0.00  0.   25.06 1.0000
   3  -2  13    153.51   0.00          0.00  1.  0.00  0.   23.29 1.0000
   3  -1 -11     68.72   0.00          0.00  1.  0.00  0.   15.92 1.0000
   3  -1 -11    109.62   0.00          0.00  1.  0.00  0.   19.47 1.0000
   3  -1  -9     94.28   0.00          0.00  1.  0.00  0.   15.73 1.0000
   3  -1  -9    114.49   0.00          0.00  1.  0.00  0.   16.05 1.0000
   3  -1  -9     98.41   0.00          0.00  1.  0.00  0.   17.06 1.0000
   3  -1  -7   1036.20   0.00          0.00  1.  0.00  0.   56.65 1.0000
   3  -1  -7   1069.29   0.00          0.00  1.  0.00  0.   58.86 1.0000
   3  -1  -7   1046.52   0.00          0.00  1.  0.00  0.   55.64 1.0000
   3  -1  -5   1104.23   0.00          0.00  1.  0.00  0.   53.17 1.0000
   3  -1  -5   1059.50   0.00          0.00  1.  0.00  0.   54.68 1.0000
   3  -1  -5   1117.56   0.00          0.00  1.  0.00  0.   54.83 1.0000
   3  -1  -2   1696.62   0.00          0.00  1.  0.00  0.   79.91 1.0000
   3  -1  -2   1723.08   0.00          0.00  1.  0.00  0.   82.19 1.0000
   3  -1  -2   1690.85   0.00          0.00  1.  0.00  0.   82.24 1.0000
   3  -1  -1   3433.96   0.00          0.00  1.  0.00  0.  148.84 1.0000
   3  -1  -1   3176.45   0.00          0.00  1.  0.00  0.  158.94 1.0000
   3  -1  -1   3235.33   0.00          0.00  1.  0.00  0.  147.89 1.0000
   3  -1   0   1730.56   0.00          0.00  1.  0.00  0.   81.54 1.0000
   3  -1   0   1745.57   0.00          0.00  1.  0.00  0.   81.89 1.0000
   3  -1   0   1725.57   0.00          0.00  1.  0.00  0.   87.23 1.0000
   3  -1   2   3674.78   0.00          0.00  1.  0.00  0.  172.16 1.0000
   3  -1   2   3702.72   0.00          0.00  1.  0.00  0.  172.81 1.0000
   3  -1   6    567.39   0.00          0.00  1.  0.00  0.   33.82 1.0000
   3  -1   6    586.12   0.00          0.00  1.  0.00  0.   34.38 1.0000
   3  -1   6    539.17   0.00          0.00  1.  0.00  0.   32.04 1.0000
   3  -1   8    828.86   0.00          0.00  1.  0.00  0.   47.22 1.0000
   3  -1   8    812.25   0.00          0.00  1.  0.00  0.   47.31 1.0000
   3  -1   8    854.98   0.00          0.00  1.  0.00  0.   46.78 1.0000
   3  -1  10     22.85   0.00          0.00  1.  0.00  0.    7.36 1.0000
   3  -1  10     20.79   0.00          0.00  1.  0.00  0.   11.67 1.0000
   3  -1  10     34.81   0.00          0.00  1.  0.00  0.   11.45 1.0000
   3  -1  10     25.91   0.00          0.00  1.  0.00  0.   12.01 1.0000
   3  -1  13    243.98   0.00          0.00  1.  0.00  0.   26.55 1.0000
   3   0 -12    246.80   0.00          0.00  1.  0.00  0.   26.71 1.0000
   3   0 -12    279.89   0.00          0.00  1.  0.00  0.   28.78 1.0000
   3   0 -11    172.66   0.00          0.00  1.  0.00  0.   22.86 1.0000
   3   0 -11    187.14   0.00          0.00  1.  0.00  0.   22.44 1.0000
   3   0 -10     35.16   0.00          0.00  1.  0.00  0.   13.64 1.0000
   3   0 -10     40.96   0.00          0.00  1.  0.00  0.   14.72 1.0000
   3   0  -9    -12.60   0.00          0.00  1.  0.00  0.   13.06 1.0000
   3   0  -9     33.06   0.00          0.00  1.  0.00  0.   13.57 1.0000
   3   0  -9     11.63   0.00          0.00  1.  0.00  0.    8.93 1.0000
   3   0  -8     64.32   0.00          0.00  1.  0.00  0.   11.55 1.0000
   3   0  -8     45.97   0.00          0.00  1.  0.00  0.   13.83 1.0000
   3   0  -8     49.98   0.00          0.00  1.  0.00  0.   14.00 1.0000
   3   0  -7   2394.15   0.00          0.00  1.  0.00  0.  114.50 1.0000
   3   0  -7   2309.76   0.00          0.00  1.  0.00  0.  113.42 1.0000
   3   0  -7   2460.16   0.00          0.00  1.  0.00  0.  116.06 1.0000
   3   0  -6    143.76   0.00          0.00  1.  0.00  0.   15.83 1.0000
   3   0  -6    167.18   0.00          0.00  1.  0.00  0.   17.07 1.0000
   3   0  -6    160.53   0.00          0.00  1.  0.00  0.   17.48 1.0000
   3   0  -5    111.94   0.00          0.00  1.  0.00  0.   14.39 1.0000
   3   0  -5    113.85   0.00          0.00  1.  0.00  0.   14.94 1.0000
   3   0  -5    116.21   0.00          0.00  1.  0.00  0.   14.01 1.0000
   3   0  -4    402.40   0.00          0.00  1.  0.00  0.   25.68 1.0000
   3   0  -4    417.79   0.00          0.00  1.  0.00  0.   25.75 1.0000
   3   0  -4    415.34   0.00          0.00  1.  0.00  0.   26.49 1.0000
   3   0  -3   2210.88   0.00          0.00  1.  0.00  0.  105.32 1.0000
   3   0  -3   2186.50   0.00          0.00  1.  0.00  0.  106.61 1.0000
   3   0  -3   2316.50   0.00          0.00  1.  0.00  0.  105.89 1.0000
   3   0  -2   2901.98   0.00          0.00  1.  0.00  0.  130.37 1.0000
   3   0  -2   2781.51   0.00          0.00  1.  0.00  0.  130.80 1.0000
   3   0  -2   2780.45   0.00          0.00  1.  0.00  0.  129.72 1.0000
   3   0  -1   1858.47   0.00          0.00  1.  0.00  0.   87.94 1.0000
   3   0  -1   1861.92   0.00          0.00  1.  0.00  0.   88.03 1.0000
   3   0   0   3607.20   0.00          0.00  1.  0.00  0.  166.97 1.0000
   3   0   0   3716.12   0.00          0.00  1.  0.00  0.  167.03 1.0000
   3   0   1   1469.96   0.00          0.00  1.  0.00  0.   69.01 1.0000
   3   0   1   1400.26   0.00          0.00  1.  0.00  0.   69.60 1.0000
   3   0   2    217.86   0.00          0.00  1.  0.00  0.   15.35 1.0000
   3   0   2    235.93   0.00          0.00  1.  0.00  0.   16.28 1.0000
   3   0   3    749.66   0.00          0.00  1.  0.00  0.   39.43 1.0000
   3   0   3    756.25   0.00          0.00  1.  0.00  0.   39.60 1.0000
   3   0   4    431.81   0.00          0.00  1.  0.00  0.   27.01 1.0000
   3   0   4    471.76   0.00          0.00  1.  0.00  0.   26.93 1.0000
   3   0   5    832.32   0.00          0.00  1.  0.00  0.   45.01 1.0000
   3   0   5    886.85   0.00          0.00  1.  0.00  0.   45.27 1.0000
   3   0   6   1460.77   0.00          0.00  1.  0.00  0.   72.62 1.0000
   3   0   6   1431.87   0.00          0.00  1.  0.00  0.   71.90 1.0000
   3   0   6   1531.94   0.00          0.00  1.  0.00  0.   73.58 1.0000
   3   0   7    249.96   0.00          0.00  1.  0.00  0.   19.92 1.0000
   3   0   7    284.60   0.00          0.00  1.  0.00  0.   21.59 1.0000
   3   0   7    276.89   0.00          0.00  1.  0.00  0.   22.63 1.0000
   3   0   8   2718.58   0.00          0.00  1.  0.00  0.  128.26 1.0000
   3   0   8   2693.61   0.00          0.00  1.  0.00  0.  127.67 1.0000
   3   0   8   2650.19   0.00          0.00  1.  0.00  0.  126.64 1.0000
   3   0   9    211.99   0.00          0.00  1.  0.00  0.   20.38 1.0000
   3   0   9    221.71   0.00          0.00  1.  0.00  0.   22.34 1.0000
   3   0   9    228.92   0.00          0.00  1.  0.00  0.   22.39 1.0000
   3   0  10   1566.58   0.00          0.00  1.  0.00  0.   80.74 1.0000
   3   0  10   1516.32   0.00          0.00  1.  0.00  0.   81.00 1.0000
   3   0  10   1522.56   0.00          0.00  1.  0.00  0.   79.60 1.0000
   3   0  11   1545.28   0.00          0.00  1.  0.00  0.   84.91 1.0000
   3   0  11   1614.43   0.00          0.00  1.  0.00  0.   84.38 1.0000
   3   0  11   1594.40   0.00          0.00  1.  0.00  0.   84.65 1.0000
   3   0  12   1508.55   0.00          0.00  1.  0.00  0.   80.79 1.0000
   3   0  12   1411.50   0.00          0.00  1.  0.00  0.   71.38 1.0000
   3   0  13   1235.52   0.00          0.00  1.  0.00  0.   71.71 1.0000
   3   0  14    181.44   0.00          0.00  1.  0.00  0.   22.63 1.0000
   3   1 -12    264.39   0.00          0.00  1.  0.00  0.   28.62 1.0000
   3   1 -12    329.79   0.00          0.00  1.  0.00  0.   31.60 1.0000
   3   1  -5   1009.97   0.00          0.00  1.  0.00  0.   54.66 1.0000
   3   1  -5   1045.88   0.00          0.00  1.  0.00  0.   54.98 1.0000
   3   1  -5    989.73   0.00          0.00  1.  0.00  0.   54.74 1.0000
   3   1  -4    681.21   0.00          0.00  1.  0.00  0.   39.15 1.0000
   3   1  -2   1682.64   0.00          0.00  1.  0.00  0.   82.04 1.0000
   3   1  -2   1754.77   0.00          0.00  1.  0.00  0.   82.10 1.0000
   3   1  -2   1775.78   0.00          0.00  1.  0.00  0.   82.59 1.0000
   3   1   2   3947.61   0.00          0.00  1.  0.00  0.  173.41 1.0000
   3   1   2   3990.45   0.00          0.00  1.  0.00  0.  173.09 1.0000
   3   1   3   6905.61   0.00          0.00  1.  0.00  0.  307.47 1.0000
   3   1   3   6960.56   0.00          0.00  1.  0.00  0.  307.02 1.0000
   3   1   4    204.78   0.00          0.00  1.  0.00  0.   15.17 1.0000
   3   1   4    194.04   0.00          0.00  1.  0.00  0.   15.32 1.0000
   3   1   6    536.39   0.00          0.00  1.  0.00  0.   31.03 1.0000
   3   1   6    541.96   0.00          0.00  1.  0.00  0.   32.59 1.0000
   3   1   8    816.24   0.00          0.00  1.  0.00  0.   45.71 1.0000
   3   1   8    737.12   0.00          0.00  1.  0.00  0.   45.07 1.0000
   3   1   8    780.08   0.00          0.00  1.  0.00  0.   45.81 1.0000
   3   1  13    187.96   0.00          0.00  1.  0.00  0.   24.13 1.0000
   3   2  -6    759.00   0.00          0.00  1.  0.00  0.   46.83 1.0000
   3   2  -6    809.40   0.00          0.00  1.  0.00  0.   48.93 1.0000
   3   2  -6    748.57   0.00          0.00  1.  0.00  0.   45.42 1.0000
   3   2  -4    251.54   0.00          0.00  1.  0.00  0.   19.98 1.0000
   3   2  -4    269.29   0.00          0.00  1.  0.00  0.   22.65 1.0000
   3   2  -4    226.80   0.00          0.00  1.  0.00  0.   18.98 1.0000
   3   2  -1   7014.06   0.00          0.00  1.  0.00  0.  365.15 1.0000
   3   2  -1   7456.32   0.00          0.00  1.  0.00  0.  336.77 1.0000
   3   2  -1   7752.80   0.00          0.00  1.  0.00  0.  336.35 1.0000
   3   2  -1   7779.24   0.00          0.00  1.  0.00  0.  340.45 1.0000
   3   2   0    882.09   0.00          0.00  1.  0.00  0.   43.96 1.0000
   3   2   0    897.60   0.00          0.00  1.  0.00  0.   43.74 1.0000
   3   2   7   2439.37   0.00          0.00  1.  0.00  0.  106.68 1.0000
   3   2   7   2542.18   0.00          0.00  1.  0.00  0.  106.89 1.0000
   3   2  10    418.20   0.00          0.00  1.  0.00  0.   31.49 1.0000
   3   2  10    424.36   0.00          0.00  1.  0.00  0.   31.72 1.0000
   3   2  10    433.47   0.00          0.00  1.  0.00  0.   33.31 1.0000
   3   2  11   1207.56   0.00          0.00  1.  0.00  0.   66.72 1.0000
   3   2  11   1175.12   0.00          0.00  1.  0.00  0.   66.50 1.0000
   3   2  11   1267.36   0.00          0.00  1.  0.00  0.   68.35 1.0000
   3   2  13    229.22   0.00          0.00  1.  0.00  0.   24.83 1.0000
   3   2  14    233.78   0.00          0.00  1.  0.00  0.   25.08 1.0000
   3   3 -10     44.49   0.00          0.00  1.  0.00  0.   16.01 1.0000
   3   3  -9    210.54   0.00          0.00  1.  0.00  0.   16.25 1.0000
   3   3  -9    211.70   0.00          0.00  1.  0.00  0.   23.86 1.0000
   3   3  -9    203.06   0.00          0.00  1.  0.00  0.   22.80 1.0000
   3   3  -7   1856.75   0.00          0.00  1.  0.00  0.   87.04 1.0000
   3   3  -7   1943.05   0.00          0.00  1.  0.00  0.   93.45 1.0000
   3   3  -7   2057.53   0.00          0.00  1.  0.00  0.   96.16 1.0000
   3   3  -7   1752.26   0.00          0.00  1.  0.00  0.   90.42 1.0000
   3   3  -4    618.02   0.00          0.00  1.  0.00  0.   37.79 1.0000
   3   3  -4    620.01   0.00          0.00  1.  0.00  0.   35.36 1.0000
   3   3  -4    575.04   0.00          0.00  1.  0.00  0.   34.53 1.0000
   3   3  -2     42.38   0.00          0.00  1.  0.00  0.   12.50 1.0000
   3   3  -2     17.81   0.00          0.00  1.  0.00  0.    7.26 1.0000
   3   3  -2     24.11   0.00          0.00  1.  0.00  0.    8.64 1.0000
   3   3   2    876.16   0.00          0.00  1.  0.00  0.   37.30 1.0000
   3   3   8    487.97   0.00          0.00  1.  0.00  0.   29.16 1.0000
   3   3   8    502.21   0.00          0.00  1.  0.00  0.   30.03 1.0000
   3   3  10    690.11   0.00          0.00  1.  0.00  0.   42.56 1.0000
   3   3  10    667.71   0.00          0.00  1.  0.00  0.   41.34 1.0000
   3   3  10    701.72   0.00          0.00  1.  0.00  0.   42.38 1.0000
   3   3  11    474.37   0.00          0.00  1.  0.00  0.   34.41 1.0000
   3   3  11    494.62   0.00          0.00  1.  0.00  0.   32.92 1.0000
   3   3  11    446.05   0.00          0.00  1.  0.00  0.   33.37 1.0000
   3   3  13    148.60   0.00          0.00  1.  0.00  0.   19.75 1.0000
   3   3  14     47.61   0.00          0.00  1.  0.00  0.   18.22 1.0000
   3   4 -10     16.16   0.00          0.00  1.  0.00  0.   14.47 1.0000
   3   4 -10     19.01   0.00          0.00  1.  0.00  0.   13.08 1.0000
   3   4  -7    110.04   0.00          0.00  1.  0.00  0.   18.04 1.0000
   3   4  -7    134.10   0.00          0.00  1.  0.00  0.   17.37 1.0000
   3   4  -7    113.42   0.00          0.00  1.  0.00  0.   14.70 1.0000
   3   4  -7     83.36   0.00          0.00  1.  0.00  0.   14.97 1.0000
   3   4  -5     87.80   0.00          0.00  1.  0.00  0.   13.31 1.0000
   3   4  -5     59.44   0.00          0.00  1.  0.00  0.   16.50 1.0000
   3   4  -5     63.84   0.00          0.00  1.  0.00  0.   11.19 1.0000
   3   4  -4     14.98   0.00          0.00  1.  0.00  0.   10.68 1.0000
   3   4  -4     25.91   0.00          0.00  1.  0.00  0.    9.47 1.0000
   3   4  -4     17.81   0.00          0.00  1.  0.00  0.    8.95 1.0000
   3   4  -1    238.70   0.00          0.00  1.  0.00  0.   17.92 1.0000
   3   4  -1    246.49   0.00          0.00  1.  0.00  0.   20.72 1.0000
   3   4  -1    239.32   0.00          0.00  1.  0.00  0.   16.40 1.0000
   3   4  -1    246.18   0.00          0.00  1.  0.00  0.   16.63 1.0000
   3   4   6   1226.40   0.00          0.00  1.  0.00  0.   56.73 1.0000
   3   4   6   1254.58   0.00          0.00  1.  0.00  0.   56.67 1.0000
   3   4   7    690.64   0.00          0.00  1.  0.00  0.   39.95 1.0000
   3   4   7    695.90   0.00          0.00  1.  0.00  0.   39.04 1.0000
   3   4   9    219.34   0.00          0.00  1.  0.00  0.   18.96 1.0000
   3   4   9    217.56   0.00          0.00  1.  0.00  0.   19.17 1.0000
   3   4  12   1262.38   0.00          0.00  1.  0.00  0.   68.93 1.0000
   3   4  13     67.24   0.00          0.00  1.  0.00  0.   16.24 1.0000
   3   4  14    241.80   0.00          0.00  1.  0.00  0.   27.06 1.0000
   3   5  -9    186.05   0.00          0.00  1.  0.00  0.   27.83 1.0000
   3   5  -5    451.14   0.00          0.00  1.  0.00  0.   31.86 1.0000
   3   5  -5    424.36   0.00          0.00  1.  0.00  0.   28.84 1.0000
   3   5  -5    443.10   0.00          0.00  1.  0.00  0.   29.47 1.0000
   3   5  -5    456.68   0.00          0.00  1.  0.00  0.   35.05 1.0000
   3   5  -1    326.89   0.00          0.00  1.  0.00  0.   21.70 1.0000
   3   5  -1    329.06   0.00          0.00  1.  0.00  0.   26.12 1.0000
   3   5  -1    328.70   0.00          0.00  1.  0.00  0.   21.39 1.0000
   3   5   0    598.29   0.00          0.00  1.  0.00  0.   36.69 1.0000
   3   5   0    611.08   0.00          0.00  1.  0.00  0.   31.64 1.0000
   3   5   0    582.74   0.00          0.00  1.  0.00  0.   36.69 1.0000
   3   5   0    633.53   0.00          0.00  1.  0.00  0.   32.22 1.0000
   3   5   4    212.87   0.00          0.00  1.  0.00  0.   14.88 1.0000
   3   5   4    227.71   0.00          0.00  1.  0.00  0.   14.79 1.0000
   3   5   4    246.49   0.00          0.00  1.  0.00  0.   24.18 1.0000
   3   5  10     79.21   0.00          0.00  1.  0.00  0.   15.31 1.0000
   3   5  10     51.70   0.00          0.00  1.  0.00  0.   12.08 1.0000
   3   5  10     77.62   0.00          0.00  1.  0.00  0.   11.98 1.0000
   3   5  11     28.52   0.00          0.00  1.  0.00  0.   12.07 1.0000
   3   5  12   1620.87   0.00          0.00  1.  0.00  0.   83.74 1.0000
   3   5  13    148.84   0.00          0.00  1.  0.00  0.   20.98 1.0000
   3   6  -4     71.40   0.00          0.00  1.  0.00  0.   11.32 1.0000
   3   6  -4     94.67   0.00          0.00  1.  0.00  0.   17.12 1.0000
   3   6  -4    117.07   0.00          0.00  1.  0.00  0.   19.91 1.0000
   3   6  -4     80.64   0.00          0.00  1.  0.00  0.   11.67 1.0000
   3   6  -1    742.02   0.00          0.00  1.  0.00  0.   44.67 1.0000
   3   6  -1    705.43   0.00          0.00  1.  0.00  0.   44.62 1.0000
   3   6  -1    727.92   0.00          0.00  1.  0.00  0.   37.23 1.0000
   3   6  -1    754.60   0.00          0.00  1.  0.00  0.   37.36 1.0000
   3   6   0    908.42   0.00          0.00  1.  0.00  0.   52.44 1.0000
   3   6   0    878.53   0.00          0.00  1.  0.00  0.   53.94 1.0000
   3   6   0    947.41   0.00          0.00  1.  0.00  0.   44.94 1.0000
   3   6   0    905.41   0.00          0.00  1.  0.00  0.   44.53 1.0000
   3   6   5     38.19   0.00          0.00  1.  0.00  0.    6.06 1.0000
   3   6   6     53.88   0.00          0.00  1.  0.00  0.    8.22 1.0000
   3   6   6     63.52   0.00          0.00  1.  0.00  0.    8.45 1.0000
   3   6   7    270.27   0.00          0.00  1.  0.00  0.   17.76 1.0000
   3   6   7    259.53   0.00          0.00  1.  0.00  0.   18.04 1.0000
   3   6   8    333.43   0.00          0.00  1.  0.00  0.   23.37 1.0000
   3   6   8    336.72   0.00          0.00  1.  0.00  0.   23.85 1.0000
   3   6   9    576.48   0.00          0.00  1.  0.00  0.   34.57 1.0000
   3   6   9    595.36   0.00          0.00  1.  0.00  0.   35.62 1.0000
   3   6  10    394.82   0.00          0.00  1.  0.00  0.   28.22 1.0000
   3   6  10    385.34   0.00          0.00  1.  0.00  0.   27.48 1.0000
   3   6  11    357.97   0.00          0.00  1.  0.00  0.   26.87 1.0000
   3   6  11    284.93   0.00          0.00  1.  0.00  0.   26.67 1.0000
   3   7  -6    259.21   0.00          0.00  1.  0.00  0.   29.30 1.0000
   3   7  -5    239.63   0.00          0.00  1.  0.00  0.   26.94 1.0000
   3   7  -5    286.96   0.00          0.00  1.  0.00  0.   30.15 1.0000
   3   7  -1    444.79   0.00          0.00  1.  0.00  0.   34.17 1.0000
   3   7  -1    388.48   0.00          0.00  1.  0.00  0.   30.35 1.0000
   3   7  -1    412.09   0.00          0.00  1.  0.00  0.   21.11 1.0000
   3   7  -1    390.06   0.00          0.00  1.  0.00  0.   20.93 1.0000
   3   7   7     48.02   0.00          0.00  1.  0.00  0.    7.76 1.0000
   3   7   7     46.38   0.00          0.00  1.  0.00  0.    7.63 1.0000
   3   7   8    157.75   0.00          0.00  1.  0.00  0.   14.32 1.0000
   3   7   9     41.86   0.00          0.00  1.  0.00  0.    9.70 1.0000
   3   8  -3     15.44   0.00          0.00  1.  0.00  0.   16.82 1.0000
   3   8  -3     11.63   0.00          0.00  1.  0.00  0.   12.75 1.0000
   3   8  -1    248.06   0.00          0.00  1.  0.00  0.   29.30 1.0000
   3   8  -1    266.67   0.00          0.00  1.  0.00  0.   26.45 1.0000
   3   8   0    110.46   0.00          0.00  1.  0.00  0.   18.29 1.0000
   3   8   0    127.92   0.00          0.00  1.  0.00  0.   22.39 1.0000
   3   8   2    -24.80   0.00          0.00  1.  0.00  0.   17.53 1.0000
   3   8   2     11.29   0.00          0.00  1.  0.00  0.   11.96 1.0000
   3   8   9     15.13   0.00          0.00  1.  0.00  0.   16.88 1.0000
   3   8  10     -2.25   0.00          0.00  1.  0.00  0.   11.49 1.0000
   3   9  -1    149.08   0.00          0.00  1.  0.00  0.   23.20 1.0000
   3   9  -1    113.21   0.00          0.00  1.  0.00  0.   20.64 1.0000
   3   9   0    381.03   0.00          0.00  1.  0.00  0.   36.70 1.0000
   3   9   0    375.58   0.00          0.00  1.  0.00  0.   32.95 1.0000
   3   9   1     16.56   0.00          0.00  1.  0.00  0.   14.41 1.0000
   3   9   1     26.63   0.00          0.00  1.  0.00  0.   20.12 1.0000
   3   9   2     87.61   0.00          0.00  1.  0.00  0.   23.40 1.0000
   3   9   2     84.09   0.00          0.00  1.  0.00  0.   16.32 1.0000
   3   9   3    283.25   0.00          0.00  1.  0.00  0.   33.32 1.0000
   3   9   3    282.91   0.00          0.00  1.  0.00  0.   25.90 1.0000
   3   9   4    143.52   0.00          0.00  1.  0.00  0.   18.93 1.0000
   3   9   4    187.14   0.00          0.00  1.  0.00  0.   25.44 1.0000
   3   9   5    340.03   0.00          0.00  1.  0.00  0.   28.03 1.0000
   3   9   5    326.16   0.00          0.00  1.  0.00  0.   34.31 1.0000
   3   9   6     35.05   0.00          0.00  1.  0.00  0.   18.35 1.0000
   3   9   6     26.83   0.00          0.00  1.  0.00  0.   13.16 1.0000
   3   9   7     42.51   0.00          0.00  1.  0.00  0.   16.69 1.0000
   3   9   7     54.76   0.00          0.00  1.  0.00  0.   14.06 1.0000
   4  -9  -1    244.30   0.00          0.00  1.  0.00  0.   33.14 1.0000
   4  -8  -6     71.40   0.00          0.00  1.  0.00  0.   10.98 1.0000
   4  -8  -5    125.44   0.00          0.00  1.  0.00  0.   12.54 1.0000
   4  -8  -4    233.48   0.00          0.00  1.  0.00  0.   16.50 1.0000
   4  -8   0    166.67   0.00          0.00  1.  0.00  0.   13.17 1.0000
   4  -8   0    180.90   0.00          0.00  1.  0.00  0.   24.21 1.0000
   4  -8   1    176.62   0.00          0.00  1.  0.00  0.   25.52 1.0000
   4  -8   1    165.38   0.00          0.00  1.  0.00  0.   13.37 1.0000
   4  -8   1    195.16   0.00          0.00  1.  0.00  0.   26.82 1.0000
   4  -8   2    325.08   0.00          0.00  1.  0.00  0.   32.45 1.0000
   4  -8   2    320.05   0.00          0.00  1.  0.00  0.   20.75 1.0000
   4  -8   2    348.57   0.00          0.00  1.  0.00  0.   35.10 1.0000
   4  -8   4    225.90   0.00          0.00  1.  0.00  0.   17.43 1.0000
   4  -8   4    208.22   0.00          0.00  1.  0.00  0.   25.97 1.0000
   4  -8   5    189.61   0.00          0.00  1.  0.00  0.   17.63 1.0000
   4  -8   5    219.93   0.00          0.00  1.  0.00  0.   28.77 1.0000
   4  -7  -7     24.50   0.00          0.00  1.  0.00  0.   11.19 1.0000
   4  -7  -6      9.06   0.00          0.00  1.  0.00  0.    9.21 1.0000
   4  -7  -5     52.85   0.00          0.00  1.  0.00  0.   10.32 1.0000
   4  -7  -4    171.35   0.00          0.00  1.  0.00  0.   15.71 1.0000
   4  -7  -3    430.56   0.00          0.00  1.  0.00  0.   25.73 1.0000
   4  -7   2    435.14   0.00          0.00  1.  0.00  0.   27.12 1.0000
   4  -7   2    407.64   0.00          0.00  1.  0.00  0.   24.23 1.0000
   4  -7   2    449.02   0.00          0.00  1.  0.00  0.   37.72 1.0000
   4  -7   3    237.78   0.00          0.00  1.  0.00  0.   25.29 1.0000
   4  -7   3    272.91   0.00          0.00  1.  0.00  0.   26.76 1.0000
   4  -7   3    236.54   0.00          0.00  1.  0.00  0.   17.84 1.0000
   4  -7   3    239.94   0.00          0.00  1.  0.00  0.   17.04 1.0000
   4  -6 -10    370.56   0.00          0.00  1.  0.00  0.   31.57 1.0000
   4  -6  -9    376.36   0.00          0.00  1.  0.00  0.   30.65 1.0000
   4  -6  -8    303.11   0.00          0.00  1.  0.00  0.   26.11 1.0000
   4  -6  -6     19.98   0.00          0.00  1.  0.00  0.   10.55 1.0000
   4  -6  -5    205.35   0.00          0.00  1.  0.00  0.   17.48 1.0000
   4  -6  -5    180.10   0.00          0.00  1.  0.00  0.   17.45 1.0000
   4  -6  -5    196.84   0.00          0.00  1.  0.00  0.   20.48 1.0000
   4  -6  -4    226.50   0.00          0.00  1.  0.00  0.   21.37 1.0000
   4  -6  -4    237.16   0.00          0.00  1.  0.00  0.   18.48 1.0000
   4  -6  -4    228.01   0.00          0.00  1.  0.00  0.   18.42 1.0000
   4  -6  -2    276.56   0.00          0.00  1.  0.00  0.   24.61 1.0000
   4  -6  -2    272.58   0.00          0.00  1.  0.00  0.   20.14 1.0000
   4  -6  -2    292.07   0.00          0.00  1.  0.00  0.   20.85 1.0000
   4  -6   1    175.56   0.00          0.00  1.  0.00  0.   11.40 1.0000
   4  -6   1    174.77   0.00          0.00  1.  0.00  0.   22.21 1.0000
   4  -6   1    179.29   0.00          0.00  1.  0.00  0.   14.73 1.0000
   4  -6   1    196.56   0.00          0.00  1.  0.00  0.   22.15 1.0000
   4  -6   1    201.64   0.00          0.00  1.  0.00  0.   15.34 1.0000
   4  -6   2    526.24   0.00          0.00  1.  0.00  0.   34.87 1.0000
   4  -6   2    539.63   0.00          0.00  1.  0.00  0.   44.14 1.0000
   4  -6   3   1519.44   0.00          0.00  1.  0.00  0.   84.20 1.0000
   4  -6   3   1555.51   0.00          0.00  1.  0.00  0.   76.51 1.0000
   4  -6   3   1498.46   0.00          0.00  1.  0.00  0.   75.87 1.0000
   4  -6   3   1567.37   0.00          0.00  1.  0.00  0.   76.01 1.0000
   4  -6   3   1578.47   0.00          0.00  1.  0.00  0.   91.38 1.0000
   4  -6   6    256.32   0.00          0.00  1.  0.00  0.   28.18 1.0000
   4  -6   6    225.30   0.00          0.00  1.  0.00  0.   22.82 1.0000
   4  -6   6    253.45   0.00          0.00  1.  0.00  0.   22.61 1.0000
   4  -6   9     81.54   0.00          0.00  1.  0.00  0.   17.52 1.0000
   4  -6   9    110.67   0.00          0.00  1.  0.00  0.   19.99 1.0000
   4  -5 -10    508.95   0.00          0.00  1.  0.00  0.   37.00 1.0000
   4  -5  -9    354.57   0.00          0.00  1.  0.00  0.   28.62 1.0000
   4  -5  -8    722.00   0.00          0.00  1.  0.00  0.   44.60 1.0000
   4  -5  -8    766.74   0.00          0.00  1.  0.00  0.   45.41 1.0000
   4  -5  -7    717.17   0.00          0.00  1.  0.00  0.   42.85 1.0000
   4  -5  -7    677.56   0.00          0.00  1.  0.00  0.   43.73 1.0000
   4  -5  -5    106.50   0.00          0.00  1.  0.00  0.   14.65 1.0000
   4  -5  -5    118.37   0.00          0.00  1.  0.00  0.   13.93 1.0000
   4  -5  -5    131.10   0.00          0.00  1.  0.00  0.   15.34 1.0000
   4  -5  -4    160.53   0.00          0.00  1.  0.00  0.   15.20 1.0000
   4  -5  -4    147.38   0.00          0.00  1.  0.00  0.   16.51 1.0000
   4  -5  -4    165.64   0.00          0.00  1.  0.00  0.   16.22 1.0000
   4  -5  -3     83.72   0.00          0.00  1.  0.00  0.   12.08 1.0000
   4  -5  -3     73.79   0.00          0.00  1.  0.00  0.   11.34 1.0000
   4  -5  -3     55.35   0.00          0.00  1.  0.00  0.   13.24 1.0000
   4  -5   2     84.46   0.00          0.00  1.  0.00  0.   14.15 1.0000
   4  -5   2     88.74   0.00          0.00  1.  0.00  0.    9.23 1.0000
   4  -5   2     82.81   0.00          0.00  1.  0.00  0.   10.56 1.0000
   4  -5   2     91.58   0.00          0.00  1.  0.00  0.   11.68 1.0000
   4  -5   2     82.26   0.00          0.00  1.  0.00  0.   16.51 1.0000
   4  -5   4    150.06   0.00          0.00  1.  0.00  0.   15.92 1.0000
   4  -5   4    167.96   0.00          0.00  1.  0.00  0.   15.29 1.0000
   4  -5   4    135.02   0.00          0.00  1.  0.00  0.   20.68 1.0000
   4  -5   4    160.02   0.00          0.00  1.  0.00  0.   15.18 1.0000
   4  -5   4    187.96   0.00          0.00  1.  0.00  0.   22.48 1.0000
   4  -5   6    268.96   0.00          0.00  1.  0.00  0.   28.21 1.0000
   4  -5   6    269.94   0.00          0.00  1.  0.00  0.   22.34 1.0000
   4  -5   6    324.36   0.00          0.00  1.  0.00  0.   29.18 1.0000
   4  -5   6    336.72   0.00          0.00  1.  0.00  0.   24.96 1.0000
   4  -5   6    373.65   0.00          0.00  1.  0.00  0.   27.06 1.0000
   4  -5   7    116.21   0.00          0.00  1.  0.00  0.   15.31 1.0000
   4  -5   7    152.03   0.00          0.00  1.  0.00  0.   17.02 1.0000
   4  -5   7     91.01   0.00          0.00  1.  0.00  0.   19.08 1.0000
   4  -5   7    111.51   0.00          0.00  1.  0.00  0.   16.05 1.0000
   4  -5   7    109.20   0.00          0.00  1.  0.00  0.   17.97 1.0000
   4  -5   8    247.75   0.00          0.00  1.  0.00  0.   24.55 1.0000
   4  -5   8    243.98   0.00          0.00  1.  0.00  0.   26.87 1.0000
   4  -5   8    253.13   0.00          0.00  1.  0.00  0.   23.86 1.0000
   4  -5   8    274.56   0.00          0.00  1.  0.00  0.   29.49 1.0000
   4  -4 -11      5.02   0.00          0.00  1.  0.00  0.   13.17 1.0000
   4  -4 -10    230.43   0.00          0.00  1.  0.00  0.   24.59 1.0000
   4  -4 -10    204.49   0.00          0.00  1.  0.00  0.   23.45 1.0000
   4  -4  -7    665.12   0.00          0.00  1.  0.00  0.   41.26 1.0000
   4  -4  -7    696.43   0.00          0.00  1.  0.00  0.   42.22 1.0000
   4  -4  -7    726.30   0.00          0.00  1.  0.00  0.   36.11 1.0000
   4  -4  -7    732.78   0.00          0.00  1.  0.00  0.   38.44 1.0000
   4  -4  -6   1339.56   0.00          0.00  1.  0.00  0.   69.54 1.0000
   4  -4  -6   1444.76   0.00          0.00  1.  0.00  0.   73.74 1.0000
   4  -4  -6   1465.36   0.00          0.00  1.  0.00  0.   66.61 1.0000
   4  -4  -6   1466.89   0.00          0.00  1.  0.00  0.   74.30 1.0000
   4  -4  -3    286.29   0.00          0.00  1.  0.00  0.   21.66 1.0000
   4  -4  -3    294.12   0.00          0.00  1.  0.00  0.   23.67 1.0000
   4  -4  -3    303.80   0.00          0.00  1.  0.00  0.   24.05 1.0000
   4  -4   0    963.48   0.00          0.00  1.  0.00  0.   49.04 1.0000
   4  -4   0    952.96   0.00          0.00  1.  0.00  0.   45.07 1.0000
   4  -4   0    957.28   0.00          0.00  1.  0.00  0.   55.69 1.0000
   4  -4   0    875.57   0.00          0.00  1.  0.00  0.   48.53 1.0000
   4  -4   0    892.81   0.00          0.00  1.  0.00  0.   51.99 1.0000
   4  -4   3    372.88   0.00          0.00  1.  0.00  0.   24.72 1.0000
   4  -4   3    435.56   0.00          0.00  1.  0.00  0.   30.05 1.0000
   4  -4   3    386.91   0.00          0.00  1.  0.00  0.   25.96 1.0000
   4  -4   3    412.90   0.00          0.00  1.  0.00  0.   31.29 1.0000
   4  -4   3    398.00   0.00          0.00  1.  0.00  0.   25.14 1.0000
   4  -4   8    218.74   0.00          0.00  1.  0.00  0.   22.78 1.0000
   4  -4   8    231.65   0.00          0.00  1.  0.00  0.   24.35 1.0000
   4  -4   8    205.64   0.00          0.00  1.  0.00  0.   20.08 1.0000
   4  -4   8    170.30   0.00          0.00  1.  0.00  0.   19.58 1.0000
   4  -4   9    138.53   0.00          0.00  1.  0.00  0.   19.07 1.0000
   4  -4   9    134.79   0.00          0.00  1.  0.00  0.   18.58 1.0000
   4  -4   9    115.13   0.00          0.00  1.  0.00  0.   18.67 1.0000
   4  -4  10    117.72   0.00          0.00  1.  0.00  0.   19.31 1.0000
   4  -3 -11    207.07   0.00          0.00  1.  0.00  0.   19.86 1.0000
   4  -3 -11    192.65   0.00          0.00  1.  0.00  0.   24.98 1.0000
   4  -3 -10     65.29   0.00          0.00  1.  0.00  0.   15.84 1.0000
   4  -3 -10     47.89   0.00          0.00  1.  0.00  0.   11.76 1.0000
   4  -3 -10     58.06   0.00          0.00  1.  0.00  0.   15.39 1.0000
   4  -3  -7    128.60   0.00          0.00  1.  0.00  0.   11.34 1.0000
   4  -3  -7    136.42   0.00          0.00  1.  0.00  0.   12.85 1.0000
   4  -3  -7    138.77   0.00          0.00  1.  0.00  0.   16.73 1.0000
   4  -3  -7    143.52   0.00          0.00  1.  0.00  0.   16.77 1.0000
   4  -3  -3   1950.11   0.00          0.00  1.  0.00  0.   87.44 1.0000
   4  -3  -3   2032.21   0.00          0.00  1.  0.00  0.   88.36 1.0000
   4  -3  -3   1953.64   0.00          0.00  1.  0.00  0.   82.21 1.0000
   4  -3  -3   1965.15   0.00          0.00  1.  0.00  0.   88.66 1.0000
   4  -3   2   1104.90   0.00          0.00  1.  0.00  0.   59.17 1.0000
   4  -3   2   1090.32   0.00          0.00  1.  0.00  0.   52.17 1.0000
   4  -3   2    967.83   0.00          0.00  1.  0.00  0.   52.89 1.0000
   4  -3   2   1020.80   0.00          0.00  1.  0.00  0.   52.40 1.0000
   4  -3   6   3338.53   0.00          0.00  1.  0.00  0.  153.69 1.0000
   4  -3   6   3085.80   0.00          0.00  1.  0.00  0.  149.99 1.0000
   4  -3   6   3289.02   0.00          0.00  1.  0.00  0.  152.55 1.0000
   4  -3   6   3205.82   0.00          0.00  1.  0.00  0.  150.61 1.0000
   4  -3   8    282.24   0.00          0.00  1.  0.00  0.   25.20 1.0000
   4  -3   8    327.97   0.00          0.00  1.  0.00  0.   27.17 1.0000
   4  -3   8    279.89   0.00          0.00  1.  0.00  0.   26.10 1.0000
   4  -3   8    292.75   0.00          0.00  1.  0.00  0.   27.38 1.0000
   4  -3   9    508.95   0.00          0.00  1.  0.00  0.   36.10 1.0000
   4  -3   9    495.51   0.00          0.00  1.  0.00  0.   34.28 1.0000
   4  -3   9    509.86   0.00          0.00  1.  0.00  0.   35.22 1.0000
   4  -3   9    493.28   0.00          0.00  1.  0.00  0.   35.54 1.0000
   4  -3  11    610.09   0.00          0.00  1.  0.00  0.   40.51 1.0000
   4  -3  11    584.67   0.00          0.00  1.  0.00  0.   41.59 1.0000
   4  -3  11    596.82   0.00          0.00  1.  0.00  0.   41.53 1.0000
   4  -2 -12     19.18   0.00          0.00  1.  0.00  0.   12.18 1.0000
   4  -2 -11     41.47   0.00          0.00  1.  0.00  0.   14.55 1.0000
   4  -2 -11     19.01   0.00          0.00  1.  0.00  0.   15.26 1.0000
   4  -2 -10     -1.28   0.00          0.00  1.  0.00  0.   11.19 1.0000
   4  -2 -10      8.47   0.00          0.00  1.  0.00  0.   11.93 1.0000
   4  -2  -9     70.06   0.00          0.00  1.  0.00  0.   13.56 1.0000
   4  -2  -9     65.45   0.00          0.00  1.  0.00  0.   16.83 1.0000
   4  -2  -9     59.60   0.00          0.00  1.  0.00  0.   15.13 1.0000
   4  -2  -8    990.99   0.00          0.00  1.  0.00  0.   56.66 1.0000
   4  -2  -8    967.83   0.00          0.00  1.  0.00  0.   55.38 1.0000
   4  -2  -8    994.77   0.00          0.00  1.  0.00  0.   52.99 1.0000
   4  -2  -7    285.61   0.00          0.00  1.  0.00  0.   17.58 1.0000
   4  -2  -7    288.32   0.00          0.00  1.  0.00  0.   21.73 1.0000
   4  -2  -7    321.13   0.00          0.00  1.  0.00  0.   24.73 1.0000
   4  -2  -7    311.52   0.00          0.00  1.  0.00  0.   26.47 1.0000
   4  -2  -6   1126.27   0.00          0.00  1.  0.00  0.   57.05 1.0000
   4  -2  -6   1177.86   0.00          0.00  1.  0.00  0.   61.09 1.0000
   4  -2  -6   1102.90   0.00          0.00  1.  0.00  0.   60.44 1.0000
   4  -2  -6   1083.73   0.00          0.00  1.  0.00  0.   54.65 1.0000
   4  -2  -2    919.91   0.00          0.00  1.  0.00  0.   46.71 1.0000
   4  -2  -2    921.73   0.00          0.00  1.  0.00  0.   51.00 1.0000
   4  -2  -2    929.03   0.00          0.00  1.  0.00  0.   50.60 1.0000
   4  -2   1   3663.88   0.00          0.00  1.  0.00  0.  175.54 1.0000
   4  -2   1   3425.76   0.00          0.00  1.  0.00  0.  160.37 1.0000
   4  -2   1   3418.74   0.00          0.00  1.  0.00  0.  160.21 1.0000
   4  -2   5   1398.01   0.00          0.00  1.  0.00  0.   71.04 1.0000
   4  -2   5   1424.31   0.00          0.00  1.  0.00  0.   70.20 1.0000
   4  -2   5   1407.75   0.00          0.00  1.  0.00  0.   71.29 1.0000
   4  -2   6    908.42   0.00          0.00  1.  0.00  0.   50.64 1.0000
   4  -2   6    924.16   0.00          0.00  1.  0.00  0.   49.86 1.0000
   4  -2   6    942.49   0.00          0.00  1.  0.00  0.   51.58 1.0000
   4  -2   7   1314.06   0.00          0.00  1.  0.00  0.   68.88 1.0000
   4  -2   7   1349.09   0.00          0.00  1.  0.00  0.   68.32 1.0000
   4  -2   7   1390.54   0.00          0.00  1.  0.00  0.   69.36 1.0000
   4  -2   8    776.18   0.00          0.00  1.  0.00  0.   44.58 1.0000
   4  -2   8    720.92   0.00          0.00  1.  0.00  0.   44.57 1.0000
   4  -2   8    729.00   0.00          0.00  1.  0.00  0.   44.82 1.0000
   4  -2   9    820.82   0.00          0.00  1.  0.00  0.   49.28 1.0000
   4  -2   9    878.53   0.00          0.00  1.  0.00  0.   51.57 1.0000
   4  -2   9    850.31   0.00          0.00  1.  0.00  0.   51.90 1.0000
   4  -2   9    885.06   0.00          0.00  1.  0.00  0.   49.38 1.0000
   4  -2  10    242.74   0.00          0.00  1.  0.00  0.   24.30 1.0000
   4  -2  10    231.65   0.00          0.00  1.  0.00  0.   21.00 1.0000
   4  -2  10    202.49   0.00          0.00  1.  0.00  0.   21.63 1.0000
   4  -2  11    556.02   0.00          0.00  1.  0.00  0.   39.61 1.0000
   4  -2  11    547.09   0.00          0.00  1.  0.00  0.   35.08 1.0000
   4  -2  11    517.56   0.00          0.00  1.  0.00  0.   37.76 1.0000
   4  -1 -12    407.23   0.00          0.00  1.  0.00  0.   33.90 1.0000
   4  -1 -12    388.48   0.00          0.00  1.  0.00  0.   34.69 1.0000
   4  -1 -11     95.45   0.00          0.00  1.  0.00  0.   17.20 1.0000
   4  -1 -10     39.82   0.00          0.00  1.  0.00  0.   13.76 1.0000
   4  -1 -10      0.12   0.00          0.00  1.  0.00  0.   13.29 1.0000
   4  -1  -9     19.10   0.00          0.00  1.  0.00  0.   12.67 1.0000
   4  -1  -9     13.18   0.00          0.00  1.  0.00  0.   13.79 1.0000
   4  -1  -9     46.51   0.00          0.00  1.  0.00  0.   14.32 1.0000
   4  -1  -8   1314.06   0.00          0.00  1.  0.00  0.   68.15 1.0000
   4  -1  -8   1314.79   0.00          0.00  1.  0.00  0.   70.34 1.0000
   4  -1  -8   1274.49   0.00          0.00  1.  0.00  0.   70.69 1.0000
   4  -1  -5    183.33   0.00          0.00  1.  0.00  0.   17.87 1.0000
   4  -1  -5    154.01   0.00          0.00  1.  0.00  0.   15.14 1.0000
   4  -1  -5    170.04   0.00          0.00  1.  0.00  0.   18.26 1.0000
   4  -1  -2   2281.97   0.00          0.00  1.  0.00  0.  100.32 1.0000
   4  -1  -2   2260.05   0.00          0.00  1.  0.00  0.  101.74 1.0000
   4  -1  -2   2209.00   0.00          0.00  1.  0.00  0.  102.46 1.0000
   4  -1  -1   2204.30   0.00          0.00  1.  0.00  0.  103.29 1.0000
   4  -1  -1   2082.10   0.00          0.00  1.  0.00  0.  107.69 1.0000
   4  -1  -1   2197.73   0.00          0.00  1.  0.00  0.  104.07 1.0000
   4  -1   0   3244.44   0.00          0.00  1.  0.00  0.  145.82 1.0000
   4  -1   0   3111.41   0.00          0.00  1.  0.00  0.  146.14 1.0000
   4  -1   0   3129.28   0.00          0.00  1.  0.00  0.  156.63 1.0000
   4  -1   2    470.89   0.00          0.00  1.  0.00  0.   30.81 1.0000
   4  -1   2    528.54   0.00          0.00  1.  0.00  0.   30.35 1.0000
   4  -1  14     58.06   0.00          0.00  1.  0.00  0.   19.81 1.0000
   4   0 -11    248.38   0.00          0.00  1.  0.00  0.   24.27 1.0000
   4   0 -11    243.36   0.00          0.00  1.  0.00  0.   25.27 1.0000
   4   0 -10    229.52   0.00          0.00  1.  0.00  0.   23.33 1.0000
   4   0 -10    194.88   0.00          0.00  1.  0.00  0.   21.22 1.0000
   4   0  -9    244.92   0.00          0.00  1.  0.00  0.   23.79 1.0000
   4   0  -9    263.09   0.00          0.00  1.  0.00  0.   25.30 1.0000
   4   0  -8   1066.02   0.00          0.00  1.  0.00  0.   60.08 1.0000
   4   0  -8   1032.34   0.00          0.00  1.  0.00  0.   58.48 1.0000
   4   0  -8    985.96   0.00          0.00  1.  0.00  0.   57.15 1.0000
   4   0  -7    451.14   0.00          0.00  1.  0.00  0.   33.13 1.0000
   4   0  -7    474.80   0.00          0.00  1.  0.00  0.   31.38 1.0000
   4   0  -7    444.79   0.00          0.00  1.  0.00  0.   32.06 1.0000
   4   0  -6     64.32   0.00          0.00  1.  0.00  0.   11.71 1.0000
   4   0  -6     70.73   0.00          0.00  1.  0.00  0.   11.77 1.0000
   4   0  -6     59.75   0.00          0.00  1.  0.00  0.   15.00 1.0000
   4   0  -5     86.30   0.00          0.00  1.  0.00  0.   13.93 1.0000
   4   0  -5     85.38   0.00          0.00  1.  0.00  0.   15.15 1.0000
   4   0  -5     95.06   0.00          0.00  1.  0.00  0.   12.67 1.0000
   4   0  -4    108.37   0.00          0.00  1.  0.00  0.   15.41 1.0000
   4   0  -4    115.78   0.00          0.00  1.  0.00  0.   12.91 1.0000
   4   0  -4     79.03   0.00          0.00  1.  0.00  0.   13.34 1.0000
   4   0  -3     13.47   0.00          0.00  1.  0.00  0.    8.07 1.0000
   4   0  -3     23.33   0.00          0.00  1.  0.00  0.    8.40 1.0000
   4   0  -3     38.44   0.00          0.00  1.  0.00  0.   10.79 1.0000
   4   0  -2   1844.70   0.00          0.00  1.  0.00  0.   91.05 1.0000
   4   0  -2   1903.58   0.00          0.00  1.  0.00  0.   89.88 1.0000
   4   0  -2   1849.86   0.00          0.00  1.  0.00  0.   90.32 1.0000
   4   0  -1     40.32   0.00          0.00  1.  0.00  0.   11.18 1.0000
   4   0  -1     51.27   0.00          0.00  1.  0.00  0.   10.17 1.0000
   4   0   0   1884.43   0.00          0.00  1.  0.00  0.   92.03 1.0000
   4   0   0   2000.77   0.00          0.00  1.  0.00  0.   92.14 1.0000
   4   0   1    740.93   0.00          0.00  1.  0.00  0.   40.83 1.0000
   4   0   1    819.10   0.00          0.00  1.  0.00  0.   42.36 1.0000
   4   0   2    397.60   0.00          0.00  1.  0.00  0.   25.12 1.0000
   4   0   2    415.34   0.00          0.00  1.  0.00  0.   25.27 1.0000
   4   0   3    402.40   0.00          0.00  1.  0.00  0.   25.68 1.0000
   4   0   3    406.83   0.00          0.00  1.  0.00  0.   25.41 1.0000
   4   0   4   2510.01   0.00          0.00  1.  0.00  0.  117.23 1.0000
   4   0   4   2455.20   0.00          0.00  1.  0.00  0.  116.94 1.0000
   4   0   5   1826.71   0.00          0.00  1.  0.00  0.   86.33 1.0000
   4   0   5   1739.72   0.00          0.00  1.  0.00  0.   85.09 1.0000
   4   0   6   3166.31   0.00          0.00  1.  0.00  0.  145.18 1.0000
   4   0   6   3071.38   0.00          0.00  1.  0.00  0.  145.20 1.0000
   4   0   7    996.03   0.00          0.00  1.  0.00  0.   54.91 1.0000
   4   0   7    983.45   0.00          0.00  1.  0.00  0.   54.57 1.0000
   4   0   7   1027.84   0.00          0.00  1.  0.00  0.   55.78 1.0000
   4   0   8    147.87   0.00          0.00  1.  0.00  0.   16.29 1.0000
   4   0   8    144.96   0.00          0.00  1.  0.00  0.   16.37 1.0000
   4   0   8    116.21   0.00          0.00  1.  0.00  0.   15.95 1.0000
   4   0   9    211.70   0.00          0.00  1.  0.00  0.   22.70 1.0000
   4   0   9    217.27   0.00          0.00  1.  0.00  0.   22.40 1.0000
   4   0   9    213.74   0.00          0.00  1.  0.00  0.   20.76 1.0000
   4   0  10    813.39   0.00          0.00  1.  0.00  0.   49.05 1.0000
   4   0  10    815.10   0.00          0.00  1.  0.00  0.   50.25 1.0000
   4   0  10    754.05   0.00          0.00  1.  0.00  0.   47.23 1.0000
   4   0  11     60.37   0.00          0.00  1.  0.00  0.   13.36 1.0000
   4   0  11     65.29   0.00          0.00  1.  0.00  0.   16.81 1.0000
   4   0  12    646.18   0.00          0.00  1.  0.00  0.   45.25 1.0000
   4   0  13    665.64   0.00          0.00  1.  0.00  0.   47.99 1.0000
   4   0  14    -13.91   0.00          0.00  1.  0.00  0.   16.19 1.0000
   4   1 -11    133.86   0.00          0.00  1.  0.00  0.   19.21 1.0000
   4   1 -11    117.07   0.00          0.00  1.  0.00  0.   21.64 1.0000
   4   1 -10     52.27   0.00          0.00  1.  0.00  0.   17.21 1.0000
   4   1 -10     32.38   0.00          0.00  1.  0.00  0.   12.06 1.0000
   4   1  -5    121.66   0.00          0.00  1.  0.00  0.   17.43 1.0000
   4   1  -5    110.88   0.00          0.00  1.  0.00  0.   17.06 1.0000
   4   1  -5    109.83   0.00          0.00  1.  0.00  0.   15.30 1.0000
   4   1  -4    102.21   0.00          0.00  1.  0.00  0.   14.56 1.0000
   4   1  -4     78.85   0.00          0.00  1.  0.00  0.   14.21 1.0000
   4   1  -4     78.85   0.00          0.00  1.  0.00  0.   13.14 1.0000
   4   1  -2   2011.52   0.00          0.00  1.  0.00  0.  101.36 1.0000
   4   1  -2   1951.87   0.00          0.00  1.  0.00  0.  100.73 1.0000
   4   1  -2   1982.03   0.00          0.00  1.  0.00  0.  101.51 1.0000
   4   1   2    535.46   0.00          0.00  1.  0.00  0.   31.01 1.0000
   4   1   2    576.96   0.00          0.00  1.  0.00  0.   30.75 1.0000
   4   1   9    235.01   0.00          0.00  1.  0.00  0.   20.85 1.0000
   4   1   9    211.41   0.00          0.00  1.  0.00  0.   21.81 1.0000
   4   1   9    217.56   0.00          0.00  1.  0.00  0.   21.83 1.0000
   4   1  11    158.76   0.00          0.00  1.  0.00  0.   20.41 1.0000
   4   1  11    121.22   0.00          0.00  1.  0.00  0.   16.07 1.0000
   4   1  14     19.18   0.00          0.00  1.  0.00  0.   12.96 1.0000
   4   2 -11     35.52   0.00          0.00  1.  0.00  0.   17.05 1.0000
   4   2 -10     16.32   0.00          0.00  1.  0.00  0.   14.38 1.0000
   4   2 -10      8.76   0.00          0.00  1.  0.00  0.   11.72 1.0000
   4   2  -9     82.63   0.00          0.00  1.  0.00  0.   17.27 1.0000
   4   2  -9     86.68   0.00          0.00  1.  0.00  0.   17.69 1.0000
   4   2  -9     72.42   0.00          0.00  1.  0.00  0.    8.85 1.0000
   4   2  -4     44.09   0.00          0.00  1.  0.00  0.   11.16 1.0000
   4   2  -4     46.79   0.00          0.00  1.  0.00  0.   12.59 1.0000
   4   2  -4     36.84   0.00          0.00  1.  0.00  0.    8.86 1.0000
   4   2  -2   1036.84   0.00          0.00  1.  0.00  0.   51.52 1.0000
   4   2  -2   1036.20   0.00          0.00  1.  0.00  0.   52.79 1.0000
   4   2  -2    956.66   0.00          0.00  1.  0.00  0.   50.11 1.0000
   4   2   7   1290.25   0.00          0.00  1.  0.00  0.   66.81 1.0000
   4   2   7   1236.93   0.00          0.00  1.  0.00  0.   66.82 1.0000
   4   2  13    119.25   0.00          0.00  1.  0.00  0.   20.31 1.0000
   4   2  14     12.18   0.00          0.00  1.  0.00  0.   16.19 1.0000
   4   3  -8    188.79   0.00          0.00  1.  0.00  0.   21.98 1.0000
   4   3  -8    164.87   0.00          0.00  1.  0.00  0.   15.41 1.0000
   4   3  -8    175.03   0.00          0.00  1.  0.00  0.   24.34 1.0000
   4   3  -3   1624.09   0.00          0.00  1.  0.00  0.   87.85 1.0000
   4   3  -3   1516.32   0.00          0.00  1.  0.00  0.   86.45 1.0000
   4   3  -3   1690.85   0.00          0.00  1.  0.00  0.   90.46 1.0000
   4   3  -2   1089.00   0.00          0.00  1.  0.00  0.   59.40 1.0000
   4   3  -2   1084.38   0.00          0.00  1.  0.00  0.   55.98 1.0000
   4   3   1    114.70   0.00          0.00  1.  0.00  0.   12.42 1.0000
   4   3   1    108.16   0.00          0.00  1.  0.00  0.   10.61 1.0000
   4   3   8    397.20   0.00          0.00  1.  0.00  0.   24.71 1.0000
   4   3   8    379.86   0.00          0.00  1.  0.00  0.   25.34 1.0000
   4   3  13    271.59   0.00          0.00  1.  0.00  0.   25.38 1.0000
   4   3  14     24.50   0.00          0.00  1.  0.00  0.   15.74 1.0000
   4   4  -8    147.87   0.00          0.00  1.  0.00  0.   18.00 1.0000
   4   4  -8    103.43   0.00          0.00  1.  0.00  0.   14.44 1.0000
   4   4  -8    142.09   0.00          0.00  1.  0.00  0.   23.12 1.0000
   4   4  -5    163.58   0.00          0.00  1.  0.00  0.   19.70 1.0000
   4   4  -5    159.01   0.00          0.00  1.  0.00  0.   17.40 1.0000
   4   4  -5    168.74   0.00          0.00  1.  0.00  0.   17.67 1.0000
   4   4  -3    412.50   0.00          0.00  1.  0.00  0.   25.59 1.0000
   4   4  -2   1027.20   0.00          0.00  1.  0.00  0.   51.28 1.0000
   4   4  -1   1704.04   0.00          0.00  1.  0.00  0.   82.56 1.0000
   4   4  -1   1643.49   0.00          0.00  1.  0.00  0.   81.89 1.0000
   4   4  -1   1743.06   0.00          0.00  1.  0.00  0.   86.84 1.0000
   4   4  -1   1685.10   0.00          0.00  1.  0.00  0.   87.03 1.0000
   4   4   0   1004.26   0.00          0.00  1.  0.00  0.   53.24 1.0000
   4   4   0    929.64   0.00          0.00  1.  0.00  0.   48.17 1.0000
   4   4   0    949.87   0.00          0.00  1.  0.00  0.   48.70 1.0000
   4   4   0    959.76   0.00          0.00  1.  0.00  0.   51.43 1.0000
   4   4  10     95.45   0.00          0.00  1.  0.00  0.   15.05 1.0000
   4   4  10    102.21   0.00          0.00  1.  0.00  0.   15.16 1.0000
   4   4  11    301.02   0.00          0.00  1.  0.00  0.   26.37 1.0000
   4   4  12    488.41   0.00          0.00  1.  0.00  0.   35.36 1.0000
   4   4  13    237.16   0.00          0.00  1.  0.00  0.   24.02 1.0000
   4   4  14    132.02   0.00          0.00  1.  0.00  0.   21.37 1.0000
   4   5  -4    162.31   0.00          0.00  1.  0.00  0.   22.42 1.0000
   4   5  -4    147.38   0.00          0.00  1.  0.00  0.   14.81 1.0000
   4   5  -4    135.96   0.00          0.00  1.  0.00  0.   16.09 1.0000
   4   5  -3     50.13   0.00          0.00  1.  0.00  0.   15.29 1.0000
   4   5  -1     72.08   0.00          0.00  1.  0.00  0.   10.36 1.0000
   4   5  -1     57.61   0.00          0.00  1.  0.00  0.   10.17 1.0000
   4   5  -1     54.91   0.00          0.00  1.  0.00  0.    8.74 1.0000
   4   5  -1     56.85   0.00          0.00  1.  0.00  0.   12.82 1.0000
   4   5   2     53.44   0.00          0.00  1.  0.00  0.   11.26 1.0000
   4   5   8    324.36   0.00          0.00  1.  0.00  0.   22.33 1.0000
   4   5   8    313.64   0.00          0.00  1.  0.00  0.   23.02 1.0000
   4   5   9    145.93   0.00          0.00  1.  0.00  0.   16.43 1.0000
   4   5   9    146.17   0.00          0.00  1.  0.00  0.   16.93 1.0000
   4   5  10     71.23   0.00          0.00  1.  0.00  0.   12.83 1.0000
   4   5  11     63.84   0.00          0.00  1.  0.00  0.   13.58 1.0000
   4   5  12    192.10   0.00          0.00  1.  0.00  0.   21.90 1.0000
   4   5  13    128.14   0.00          0.00  1.  0.00  0.   19.70 1.0000
   4   6  -6     -5.11   0.00          0.00  1.  0.00  0.   12.70 1.0000
   4   6  -6    -13.10   0.00          0.00  1.  0.00  0.   14.77 1.0000
   4   6  -2    351.19   0.00          0.00  1.  0.00  0.   22.11 1.0000
   4   6  -2    381.03   0.00          0.00  1.  0.00  0.   23.03 1.0000
   4   6   2    720.39   0.00          0.00  1.  0.00  0.   33.82 1.0000
   4   6   2    721.46   0.00          0.00  1.  0.00  0.   40.83 1.0000
   4   6   2    682.25   0.00          0.00  1.  0.00  0.   40.75 1.0000
   4   6   4    935.75   0.00          0.00  1.  0.00  0.   45.27 1.0000
   4   6   4    880.90   0.00          0.00  1.  0.00  0.   44.52 1.0000
   4   6   4    845.65   0.00          0.00  1.  0.00  0.   52.93 1.0000
   4   6   4    906.61   0.00          0.00  1.  0.00  0.   62.63 1.0000
   4   6   6    291.04   0.00          0.00  1.  0.00  0.   19.11 1.0000
   4   6   6    283.92   0.00          0.00  1.  0.00  0.   19.21 1.0000
   4   6   7    433.47   0.00          0.00  1.  0.00  0.   26.65 1.0000
   4   6   7    401.20   0.00          0.00  1.  0.00  0.   26.04 1.0000
   4   6   8     93.32   0.00          0.00  1.  0.00  0.   12.75 1.0000
   4   6   8     54.76   0.00          0.00  1.  0.00  0.   11.54 1.0000
   4   6   9     83.36   0.00          0.00  1.  0.00  0.   13.51 1.0000
   4   6   9     77.79   0.00          0.00  1.  0.00  0.   12.52 1.0000
   4   6  10    142.80   0.00          0.00  1.  0.00  0.   17.45 1.0000
   4   7  -5     47.61   0.00          0.00  1.  0.00  0.   17.39 1.0000
   4   7  -4    238.08   0.00          0.00  1.  0.00  0.   27.47 1.0000
   4   7  -4    207.36   0.00          0.00  1.  0.00  0.   23.04 1.0000
   4   7  -3    372.49   0.00          0.00  1.  0.00  0.   35.51 1.0000
   4   7  -3    345.59   0.00          0.00  1.  0.00  0.   34.21 1.0000
   4   7  -1    480.92   0.00          0.00  1.  0.00  0.   35.09 1.0000
   4   7  -1    470.02   0.00          0.00  1.  0.00  0.   27.32 1.0000
   4   7   1    223.20   0.00          0.00  1.  0.00  0.   14.94 1.0000
   4   7   1    222.31   0.00          0.00  1.  0.00  0.   14.61 1.0000
   4   7   1    203.92   0.00          0.00  1.  0.00  0.   22.28 1.0000
   4   7   1    200.79   0.00          0.00  1.  0.00  0.   20.97 1.0000
   4   7   2    468.29   0.00          0.00  1.  0.00  0.   24.24 1.0000
   4   7   2    464.83   0.00          0.00  1.  0.00  0.   24.15 1.0000
   4   7   2    497.74   0.00          0.00  1.  0.00  0.   33.02 1.0000
   4   7   2    410.06   0.00          0.00  1.  0.00  0.   31.59 1.0000
   4   7   3    212.87   0.00          0.00  1.  0.00  0.   14.01 1.0000
   4   7   3    190.16   0.00          0.00  1.  0.00  0.   21.24 1.0000
   4   7   3    188.24   0.00          0.00  1.  0.00  0.   21.13 1.0000
   4   7   3    222.61   0.00          0.00  1.  0.00  0.   14.32 1.0000
   4   7   4   1740.56   0.00          0.00  1.  0.00  0.   75.10 1.0000
   4   7   4   1491.50   0.00          0.00  1.  0.00  0.   89.60 1.0000
   4   7   4   1559.46   0.00          0.00  1.  0.00  0.   74.24 1.0000
   4   7   8     76.74   0.00          0.00  1.  0.00  0.   11.39 1.0000
   4   8  -3      7.13   0.00          0.00  1.  0.00  0.   12.55 1.0000
   4   8  -2     19.18   0.00          0.00  1.  0.00  0.   18.92 1.0000
   4   8  -1    125.44   0.00          0.00  1.  0.00  0.   23.74 1.0000
   4   8   4    169.52   0.00          0.00  1.  0.00  0.   21.09 1.0000
   4   9   2     47.75   0.00          0.00  1.  0.00  0.   21.70 1.0000
   4   9   2     58.37   0.00          0.00  1.  0.00  0.   14.52 1.0000
   4   9   3     -7.08   0.00          0.00  1.  0.00  0.   20.80 1.0000
   4   9   3     19.89   0.00          0.00  1.  0.00  0.   14.36 1.0000
   4   9   4     -8.47   0.00          0.00  1.  0.00  0.   15.07 1.0000
   4   9   5    140.42   0.00          0.00  1.  0.00  0.   20.15 1.0000
   5  -8  -4     33.41   0.00          0.00  1.  0.00  0.    9.13 1.0000
   5  -8  -3     64.32   0.00          0.00  1.  0.00  0.   10.59 1.0000
   5  -8  -2    163.58   0.00          0.00  1.  0.00  0.   14.84 1.0000
   5  -8   0     12.18   0.00          0.00  1.  0.00  0.    8.24 1.0000
   5  -7  -7     15.44   0.00          0.00  1.  0.00  0.   12.73 1.0000
   5  -7  -5     56.55   0.00          0.00  1.  0.00  0.   11.13 1.0000
   5  -7  -4     38.44   0.00          0.00  1.  0.00  0.   10.79 1.0000
   5  -7  -2     82.08   0.00          0.00  1.  0.00  0.   11.60 1.0000
   5  -7   1    207.65   0.00          0.00  1.  0.00  0.   27.67 1.0000
   5  -7   2    104.45   0.00          0.00  1.  0.00  0.   20.44 1.0000
   5  -7   5    276.56   0.00          0.00  1.  0.00  0.   31.60 1.0000
   5  -7   5    235.62   0.00          0.00  1.  0.00  0.   22.41 1.0000
   5  -7   5    266.34   0.00          0.00  1.  0.00  0.   26.76 1.0000
   5  -6  -8    143.28   0.00          0.00  1.  0.00  0.   20.11 1.0000
   5  -6  -7    345.59   0.00          0.00  1.  0.00  0.   27.89 1.0000
   5  -6  -6     15.52   0.00          0.00  1.  0.00  0.   10.40 1.0000
   5  -6  -6     42.90   0.00          0.00  1.  0.00  0.   12.71 1.0000
   5  -6  -5    780.64   0.00          0.00  1.  0.00  0.   45.26 1.0000
   5  -6  -5    734.95   0.00          0.00  1.  0.00  0.   46.63 1.0000
   5  -6  -4    246.80   0.00          0.00  1.  0.00  0.   21.05 1.0000
   5  -6  -4    234.70   0.00          0.00  1.  0.00  0.   20.84 1.0000
   5  -6  -4    228.92   0.00          0.00  1.  0.00  0.   22.39 1.0000
   5  -6  -3    544.29   0.00          0.00  1.  0.00  0.   34.53 1.0000
   5  -6  -3    563.59   0.00          0.00  1.  0.00  0.   34.66 1.0000
   5  -6  -3    535.92   0.00          0.00  1.  0.00  0.   38.43 1.0000
   5  -6   2    140.66   0.00          0.00  1.  0.00  0.   21.35 1.0000
   5  -6   2    108.58   0.00          0.00  1.  0.00  0.   14.17 1.0000
   5  -6   2    105.47   0.00          0.00  1.  0.00  0.   10.68 1.0000
   5  -6   2    143.04   0.00          0.00  1.  0.00  0.   15.07 1.0000
   5  -6   3    337.82   0.00          0.00  1.  0.00  0.   25.00 1.0000
   5  -6   3    311.88   0.00          0.00  1.  0.00  0.   23.66 1.0000
   5  -6   3    326.52   0.00          0.00  1.  0.00  0.   22.41 1.0000
   5  -6   3    340.77   0.00          0.00  1.  0.00  0.   32.86 1.0000
   5  -5  -9    107.95   0.00          0.00  1.  0.00  0.   17.25 1.0000
   5  -5  -8    406.43   0.00          0.00  1.  0.00  0.   31.45 1.0000
   5  -5  -7    231.65   0.00          0.00  1.  0.00  0.   23.13 1.0000
   5  -5  -7    203.63   0.00          0.00  1.  0.00  0.   18.84 1.0000
   5  -5  -7    230.74   0.00          0.00  1.  0.00  0.   22.48 1.0000
   5  -5  -6     65.45   0.00          0.00  1.  0.00  0.   11.16 1.0000
   5  -5  -6     55.50   0.00          0.00  1.  0.00  0.   11.32 1.0000
   5  -5  -6     47.61   0.00          0.00  1.  0.00  0.   11.18 1.0000
   5  -5  -5    388.88   0.00          0.00  1.  0.00  0.   27.61 1.0000
   5  -5  -5    355.32   0.00          0.00  1.  0.00  0.   26.39 1.0000
   5  -5  -5    372.88   0.00          0.00  1.  0.00  0.   27.81 1.0000
   5  -5   4    655.36   0.00          0.00  1.  0.00  0.   37.38 1.0000
   5  -5   4    642.12   0.00          0.00  1.  0.00  0.   44.60 1.0000
   5  -5   4    602.21   0.00          0.00  1.  0.00  0.   37.30 1.0000
   5  -5   4    614.05   0.00          0.00  1.  0.00  0.   43.12 1.0000
   5  -5   4    665.64   0.00          0.00  1.  0.00  0.   38.18 1.0000
   5  -5   5   1110.89   0.00          0.00  1.  0.00  0.   58.66 1.0000
   5  -5   5   1090.32   0.00          0.00  1.  0.00  0.   68.68 1.0000
   5  -5   5   1050.41   0.00          0.00  1.  0.00  0.   57.69 1.0000
   5  -5   5   1038.77   0.00          0.00  1.  0.00  0.   64.46 1.0000
   5  -5   5   1128.96   0.00          0.00  1.  0.00  0.   59.14 1.0000
   5  -5   7     86.86   0.00          0.00  1.  0.00  0.   15.66 1.0000
   5  -5   7     77.26   0.00          0.00  1.  0.00  0.   18.99 1.0000
   5  -4 -10    167.96   0.00          0.00  1.  0.00  0.   24.11 1.0000
   5  -4  -9    180.63   0.00          0.00  1.  0.00  0.   23.12 1.0000
   5  -4  -8     72.76   0.00          0.00  1.  0.00  0.    9.72 1.0000
   5  -4  -8     84.46   0.00          0.00  1.  0.00  0.   14.89 1.0000
   5  -4  -8     53.88   0.00          0.00  1.  0.00  0.   15.71 1.0000
   5  -4  -7    290.36   0.00          0.00  1.  0.00  0.   18.40 1.0000
   5  -4  -7    251.86   0.00          0.00  1.  0.00  0.   20.31 1.0000
   5  -4  -7    340.40   0.00          0.00  1.  0.00  0.   27.68 1.0000
   5  -4  -7    296.18   0.00          0.00  1.  0.00  0.   25.47 1.0000
   5  -4  -6    282.24   0.00          0.00  1.  0.00  0.   24.86 1.0000
   5  -4  -6    251.54   0.00          0.00  1.  0.00  0.   20.62 1.0000
   5  -4  -6    236.54   0.00          0.00  1.  0.00  0.   15.69 1.0000
   5  -4  -6    253.76   0.00          0.00  1.  0.00  0.   22.62 1.0000
   5  -4   0    822.54   0.00          0.00  1.  0.00  0.   37.28 1.0000
   5  -4   0    732.78   0.00          0.00  1.  0.00  0.   44.39 1.0000
   5  -4   0    784.56   0.00          0.00  1.  0.00  0.   41.45 1.0000
   5  -4   0    765.63   0.00          0.00  1.  0.00  0.   45.38 1.0000
   5  -4   0    765.08   0.00          0.00  1.  0.00  0.   41.49 1.0000
   5  -4   4     75.17   0.00          0.00  1.  0.00  0.   12.14 1.0000
   5  -4   4     79.03   0.00          0.00  1.  0.00  0.   16.54 1.0000
   5  -4   4     73.96   0.00          0.00  1.  0.00  0.   12.38 1.0000
   5  -4   4     90.63   0.00          0.00  1.  0.00  0.   16.95 1.0000
   5  -4   4     76.04   0.00          0.00  1.  0.00  0.   12.56 1.0000
   5  -4   5    119.25   0.00          0.00  1.  0.00  0.   15.94 1.0000
   5  -4   5    106.71   0.00          0.00  1.  0.00  0.   14.26 1.0000
   5  -4   5    108.16   0.00          0.00  1.  0.00  0.   17.26 1.0000
   5  -4   5    143.76   0.00          0.00  1.  0.00  0.   17.51 1.0000
   5  -4   5    113.85   0.00          0.00  1.  0.00  0.   18.99 1.0000
   5  -4   6    130.42   0.00          0.00  1.  0.00  0.   18.27 1.0000
   5  -4   6    138.30   0.00          0.00  1.  0.00  0.   17.17 1.0000
   5  -4   6    136.66   0.00          0.00  1.  0.00  0.   17.77 1.0000
   5  -4   6    164.35   0.00          0.00  1.  0.00  0.   22.31 1.0000
   5  -4   7    111.30   0.00          0.00  1.  0.00  0.   16.46 1.0000
   5  -4   7    167.96   0.00          0.00  1.  0.00  0.   22.03 1.0000
   5  -4   7    158.26   0.00          0.00  1.  0.00  0.   19.12 1.0000
   5  -4   7    157.25   0.00          0.00  1.  0.00  0.   17.81 1.0000
   5  -4   9     17.81   0.00          0.00  1.  0.00  0.   14.18 1.0000
   5  -3 -10     15.92   0.00          0.00  1.  0.00  0.   14.84 1.0000
   5  -3  -9    245.86   0.00          0.00  1.  0.00  0.   25.72 1.0000
   5  -3  -9    239.01   0.00          0.00  1.  0.00  0.   20.41 1.0000
   5  -3  -9    209.38   0.00          0.00  1.  0.00  0.   23.44 1.0000
   5  -3  -8    172.13   0.00          0.00  1.  0.00  0.   15.48 1.0000
   5  -3  -8    165.12   0.00          0.00  1.  0.00  0.   21.33 1.0000
   5  -3  -8    140.42   0.00          0.00  1.  0.00  0.   17.30 1.0000
   5  -3  -8    151.29   0.00          0.00  1.  0.00  0.   12.55 1.0000
   5  -3  -7    223.80   0.00          0.00  1.  0.00  0.   23.64 1.0000
   5  -3  -7    203.92   0.00          0.00  1.  0.00  0.   22.28 1.0000
   5  -3  -7    193.21   0.00          0.00  1.  0.00  0.   16.68 1.0000
   5  -3  -7    207.07   0.00          0.00  1.  0.00  0.   16.69 1.0000
   5  -3  -6     31.70   0.00          0.00  1.  0.00  0.    7.99 1.0000
   5  -3  -6     39.56   0.00          0.00  1.  0.00  0.   12.08 1.0000
   5  -3  -6     27.56   0.00          0.00  1.  0.00  0.    8.82 1.0000
   5  -3  -6     31.25   0.00          0.00  1.  0.00  0.   10.73 1.0000
   5  -3   0    926.59   0.00          0.00  1.  0.00  0.   54.79 1.0000
   5  -3   0    872.02   0.00          0.00  1.  0.00  0.   57.29 1.0000
   5  -3   0    897.60   0.00          0.00  1.  0.00  0.   53.93 1.0000
   5  -3   4   1118.90   0.00          0.00  1.  0.00  0.   60.21 1.0000
   5  -3   4   1179.92   0.00          0.00  1.  0.00  0.   59.08 1.0000
   5  -3   4   1106.23   0.00          0.00  1.  0.00  0.   59.20 1.0000
   5  -3   6    730.62   0.00          0.00  1.  0.00  0.   43.25 1.0000
   5  -3   6    736.58   0.00          0.00  1.  0.00  0.   43.97 1.0000
   5  -3   6    697.49   0.00          0.00  1.  0.00  0.   41.73 1.0000
   5  -3   7    147.87   0.00          0.00  1.  0.00  0.   18.48 1.0000
   5  -3   7    117.72   0.00          0.00  1.  0.00  0.   16.49 1.0000
   5  -3   7    151.78   0.00          0.00  1.  0.00  0.   18.73 1.0000
   5  -3  10    910.23   0.00          0.00  1.  0.00  0.   56.12 1.0000
   5  -3  10    904.81   0.00          0.00  1.  0.00  0.   55.95 1.0000
   5  -3  10    933.30   0.00          0.00  1.  0.00  0.   56.82 1.0000
   5  -3  11    507.60   0.00          0.00  1.  0.00  0.   37.85 1.0000
   5  -3  11    567.87   0.00          0.00  1.  0.00  0.   40.03 1.0000
   5  -3  11    490.62   0.00          0.00  1.  0.00  0.   38.54 1.0000
   5  -2 -11      1.77   0.00          0.00  1.  0.00  0.   11.89 1.0000
   5  -2 -11     11.02   0.00          0.00  1.  0.00  0.    9.96 1.0000
   5  -2 -10    114.06   0.00          0.00  1.  0.00  0.   15.38 1.0000
   5  -2 -10    106.50   0.00          0.00  1.  0.00  0.   20.43 1.0000
   5  -2  -8    239.32   0.00          0.00  1.  0.00  0.   24.44 1.0000
   5  -2  -8    197.40   0.00          0.00  1.  0.00  0.   23.60 1.0000
   5  -2  -8    218.45   0.00          0.00  1.  0.00  0.   15.08 1.0000
   5  -2  -8    257.28   0.00          0.00  1.  0.00  0.   21.49 1.0000
   5  -2  -7    119.46   0.00          0.00  1.  0.00  0.   17.93 1.0000
   5  -2  -7     73.27   0.00          0.00  1.  0.00  0.   16.44 1.0000
   5  -2  -7    104.65   0.00          0.00  1.  0.00  0.   11.25 1.0000
   5  -2  -7    118.59   0.00          0.00  1.  0.00  0.   14.16 1.0000
   5  -2  -6    105.06   0.00          0.00  1.  0.00  0.   13.94 1.0000
   5  -2  -6     73.96   0.00          0.00  1.  0.00  0.   16.00 1.0000
   5  -2  -6     95.84   0.00          0.00  1.  0.00  0.   12.73 1.0000
   5  -2  -5    171.61   0.00          0.00  1.  0.00  0.   18.34 1.0000
   5  -2  -5    182.79   0.00          0.00  1.  0.00  0.   18.39 1.0000
   5  -2  -5    185.50   0.00          0.00  1.  0.00  0.   15.53 1.0000
   5  -2  -4   1146.50   0.00          0.00  1.  0.00  0.   63.66 1.0000
   5  -2  -4   1147.18   0.00          0.00  1.  0.00  0.   63.00 1.0000
   5  -2  -4   1133.67   0.00          0.00  1.  0.00  0.   59.26 1.0000
   5  -2  -2    588.06   0.00          0.00  1.  0.00  0.   35.41 1.0000
   5  -2  -2    599.76   0.00          0.00  1.  0.00  0.   39.18 1.0000
   5  -2  -2    610.58   0.00          0.00  1.  0.00  0.   39.04 1.0000
   5  -2  -1    784.56   0.00          0.00  1.  0.00  0.   45.94 1.0000
   5  -2  -1    740.38   0.00          0.00  1.  0.00  0.   45.71 1.0000
   5  -2  -1    847.97   0.00          0.00  1.  0.00  0.   46.59 1.0000
   5  -2   1    172.40   0.00          0.00  1.  0.00  0.   17.59 1.0000
   5  -2   1    193.77   0.00          0.00  1.  0.00  0.   16.15 1.0000
   5  -2   2    573.12   0.00          0.00  1.  0.00  0.   34.47 1.0000
   5  -2   2    572.17   0.00          0.00  1.  0.00  0.   34.92 1.0000
   5  -2   5   2114.16   0.00          0.00  1.  0.00  0.  103.91 1.0000
   5  -2   5   1932.48   0.00          0.00  1.  0.00  0.  103.75 1.0000
   5  -2   5   1937.76   0.00          0.00  1.  0.00  0.  103.01 1.0000
   5  -2   6    595.85   0.00          0.00  1.  0.00  0.   36.13 1.0000
   5  -2   6    522.58   0.00          0.00  1.  0.00  0.   34.75 1.0000
   5  -2   6    603.19   0.00          0.00  1.  0.00  0.   37.82 1.0000
   5  -2   8     41.47   0.00          0.00  1.  0.00  0.   14.81 1.0000
   5  -2   8     60.84   0.00          0.00  1.  0.00  0.   16.54 1.0000
   5  -2   8     59.75   0.00          0.00  1.  0.00  0.   13.60 1.0000
   5  -2  11    401.60   0.00          0.00  1.  0.00  0.   30.46 1.0000
   5  -2  11    393.63   0.00          0.00  1.  0.00  0.   33.33 1.0000
   5  -2  11    446.90   0.00          0.00  1.  0.00  0.   34.67 1.0000
   5  -2  12    146.65   0.00          0.00  1.  0.00  0.   20.34 1.0000
   5  -2  12    139.95   0.00          0.00  1.  0.00  0.   17.51 1.0000
   5  -2  13     19.71   0.00          0.00  1.  0.00  0.   13.76 1.0000
   5  -1 -11     64.64   0.00          0.00  1.  0.00  0.   20.10 1.0000
   5  -1 -11    110.67   0.00          0.00  1.  0.00  0.   18.94 1.0000
   5  -1  -9    217.27   0.00          0.00  1.  0.00  0.   22.11 1.0000
   5  -1  -9    188.79   0.00          0.00  1.  0.00  0.   22.26 1.0000
   5  -1  -8     54.61   0.00          0.00  1.  0.00  0.   14.19 1.0000
   5  -1  -7    138.77   0.00          0.00  1.  0.00  0.   19.79 1.0000
   5  -1  -7    165.64   0.00          0.00  1.  0.00  0.   18.02 1.0000
   5  -1  -7    157.50   0.00          0.00  1.  0.00  0.   19.83 1.0000
   5  -1  -1    536.39   0.00          0.00  1.  0.00  0.   30.11 1.0000
   5  -1  -1    569.78   0.00          0.00  1.  0.00  0.   34.85 1.0000
   5  -1  -1    541.49   0.00          0.00  1.  0.00  0.   33.04 1.0000
   5  -1   1    821.40   0.00          0.00  1.  0.00  0.   47.58 1.0000
   5   0 -10     41.73   0.00          0.00  1.  0.00  0.   17.44 1.0000
   5   0  -9    299.64   0.00          0.00  1.  0.00  0.   28.73 1.0000
   5   0  -9    262.44   0.00          0.00  1.  0.00  0.   25.92 1.0000
   5   0  -8    629.51   0.00          0.00  1.  0.00  0.   40.65 1.0000
   5   0  -8    633.03   0.00          0.00  1.  0.00  0.   43.78 1.0000
   5   0  -7    899.40   0.00          0.00  1.  0.00  0.   53.98 1.0000
   5   0  -7    956.66   0.00          0.00  1.  0.00  0.   53.20 1.0000
   5   0  -7    879.72   0.00          0.00  1.  0.00  0.   52.79 1.0000
   5   0  -6    456.68   0.00          0.00  1.  0.00  0.   32.06 1.0000
   5   0  -6    484.88   0.00          0.00  1.  0.00  0.   33.47 1.0000
   5   0  -6    425.60   0.00          0.00  1.  0.00  0.   32.18 1.0000
   5   0  -5    589.52   0.00          0.00  1.  0.00  0.   39.33 1.0000
   5   0  -5    615.54   0.00          0.00  1.  0.00  0.   38.21 1.0000
   5   0  -5    626.00   0.00          0.00  1.  0.00  0.   38.03 1.0000
   5   0  -4    619.51   0.00          0.00  1.  0.00  0.   38.33 1.0000
   5   0  -4    649.74   0.00          0.00  1.  0.00  0.   37.73 1.0000
   5   0  -4    644.14   0.00          0.00  1.  0.00  0.   39.59 1.0000
   5   0  -3    692.74   0.00          0.00  1.  0.00  0.   40.01 1.0000
   5   0  -3    714.49   0.00          0.00  1.  0.00  0.   41.16 1.0000
   5   0  -3    653.31   0.00          0.00  1.  0.00  0.   41.41 1.0000
   5   0  -2     78.32   0.00          0.00  1.  0.00  0.   14.34 1.0000
   5   0  -2     78.15   0.00          0.00  1.  0.00  0.   12.91 1.0000
   5   0  -2     92.16   0.00          0.00  1.  0.00  0.   13.44 1.0000
   5   0  -1    557.90   0.00          0.00  1.  0.00  0.   34.01 1.0000
   5   0  -1    551.31   0.00          0.00  1.  0.00  0.   34.75 1.0000
   5   0   0     84.27   0.00          0.00  1.  0.00  0.   11.93 1.0000
   5   0   0     77.79   0.00          0.00  1.  0.00  0.   11.47 1.0000
   5   0   1    162.05   0.00          0.00  1.  0.00  0.   14.77 1.0000
   5   0   1    164.35   0.00          0.00  1.  0.00  0.   17.18 1.0000
   5   0   2    342.25   0.00          0.00  1.  0.00  0.   24.79 1.0000
   5   0   2    351.56   0.00          0.00  1.  0.00  0.   23.25 1.0000
   5   0   3    141.37   0.00          0.00  1.  0.00  0.   16.17 1.0000
   5   0   3    135.02   0.00          0.00  1.  0.00  0.   15.11 1.0000
   5   0   4    697.49   0.00          0.00  1.  0.00  0.   41.20 1.0000
   5   0   4    735.49   0.00          0.00  1.  0.00  0.   40.68 1.0000
   5   0   5   1340.29   0.00          0.00  1.  0.00  0.   68.09 1.0000
   5   0   5   1264.51   0.00          0.00  1.  0.00  0.   67.56 1.0000
   5   0   6    627.50   0.00          0.00  1.  0.00  0.   38.08 1.0000
   5   0   6    634.03   0.00          0.00  1.  0.00  0.   39.28 1.0000
   5   0   7    401.60   0.00          0.00  1.  0.00  0.   27.25 1.0000
   5   0   7    404.01   0.00          0.00  1.  0.00  0.   28.94 1.0000
   5   0   8    425.18   0.00          0.00  1.  0.00  0.   31.75 1.0000
   5   0   8    414.94   0.00          0.00  1.  0.00  0.   30.15 1.0000
   5   0   8    466.99   0.00          0.00  1.  0.00  0.   31.98 1.0000
   5   0   9    539.63   0.00          0.00  1.  0.00  0.   38.10 1.0000
   5   0   9    614.05   0.00          0.00  1.  0.00  0.   39.65 1.0000
   5   0   9    563.11   0.00          0.00  1.  0.00  0.   33.70 1.0000
   5   0   9    572.64   0.00          0.00  1.  0.00  0.   37.81 1.0000
   5   0  10    610.58   0.00          0.00  1.  0.00  0.   40.52 1.0000
   5   0  10    611.08   0.00          0.00  1.  0.00  0.   41.04 1.0000
   5   0  11    164.61   0.00          0.00  1.  0.00  0.   22.58 1.0000
   5   0  12     45.43   0.00          0.00  1.  0.00  0.   17.25 1.0000
   5   0  13     85.19   0.00          0.00  1.  0.00  0.   21.04 1.0000
   5   0  14      3.35   0.00          0.00  1.  0.00  0.   18.34 1.0000
   5   1  -9    235.01   0.00          0.00  1.  0.00  0.   25.14 1.0000
   5   1  -9    233.17   0.00          0.00  1.  0.00  0.   25.96 1.0000
   5   1  -8     90.25   0.00          0.00  1.  0.00  0.   17.86 1.0000
   5   1  -8     89.30   0.00          0.00  1.  0.00  0.   15.50 1.0000
   5   1  -7    185.50   0.00          0.00  1.  0.00  0.   19.89 1.0000
   5   1  -5     79.57   0.00          0.00  1.  0.00  0.   15.70 1.0000
   5   1  -5     89.68   0.00          0.00  1.  0.00  0.   13.26 1.0000
   5   1  -5     97.81   0.00          0.00  1.  0.00  0.   14.04 1.0000
   5   1  -4   1170.32   0.00          0.00  1.  0.00  0.   63.63 1.0000
   5   1  -4   1203.40   0.00          0.00  1.  0.00  0.   64.52 1.0000
   5   1  -4   1207.56   0.00          0.00  1.  0.00  0.   63.94 1.0000
   5   1   1    833.48   0.00          0.00  1.  0.00  0.   46.77 1.0000
   5   1   1    883.87   0.00          0.00  1.  0.00  0.   46.38 1.0000
   5   1   9    515.29   0.00          0.00  1.  0.00  0.   35.41 1.0000
   5   1   9    473.50   0.00          0.00  1.  0.00  0.   33.51 1.0000
   5   1   9    471.76   0.00          0.00  1.  0.00  0.   31.28 1.0000
   5   1   9    487.08   0.00          0.00  1.  0.00  0.   32.66 1.0000
   5   1  11    931.47   0.00          0.00  1.  0.00  0.   56.77 1.0000
   5   1  14    257.92   0.00          0.00  1.  0.00  0.   29.87 1.0000
   5   2  -5    119.90   0.00          0.00  1.  0.00  0.   16.86 1.0000
   5   2  -5    132.25   0.00          0.00  1.  0.00  0.   19.09 1.0000
   5   2  -4   1257.41   0.00          0.00  1.  0.00  0.   64.54 1.0000
   5   2  -4   1268.07   0.00          0.00  1.  0.00  0.   65.52 1.0000
   5   2  -4   1180.61   0.00          0.00  1.  0.00  0.   63.22 1.0000
   5   2  -3    669.26   0.00          0.00  1.  0.00  0.   40.36 1.0000
   5   2  -3    699.60   0.00          0.00  1.  0.00  0.   41.79 1.0000
   5   2  -3    665.12   0.00          0.00  1.  0.00  0.   40.23 1.0000
   5   2  -2    749.12   0.00          0.00  1.  0.00  0.   41.06 1.0000
   5   2  -2    767.84   0.00          0.00  1.  0.00  0.   40.46 1.0000
   5   2  -1    903.00   0.00          0.00  1.  0.00  0.   48.68 1.0000
   5   2  -1    852.06   0.00          0.00  1.  0.00  0.   46.70 1.0000
   5   2  -1    915.67   0.00          0.00  1.  0.00  0.   47.81 1.0000
   5   2   1    156.25   0.00          0.00  1.  0.00  0.   15.75 1.0000
   5   2   1    143.04   0.00          0.00  1.  0.00  0.   16.74 1.0000
   5   2   5   2342.56   0.00          0.00  1.  0.00  0.  104.54 1.0000
   5   2   5   2217.47   0.00          0.00  1.  0.00  0.  103.60 1.0000
   5   2  10    171.09   0.00          0.00  1.  0.00  0.   18.84 1.0000
   5   2  10    131.79   0.00          0.00  1.  0.00  0.   18.37 1.0000
   5   2  13     50.41   0.00          0.00  1.  0.00  0.   17.61 1.0000
   5   2  14     80.46   0.00          0.00  1.  0.00  0.   20.27 1.0000
   5   3  -8    104.04   0.00          0.00  1.  0.00  0.   22.44 1.0000
   5   3  -8    103.84   0.00          0.00  1.  0.00  0.   19.36 1.0000
   5   3  -6     14.14   0.00          0.00  1.  0.00  0.    9.93 1.0000
   5   3  -4     67.90   0.00          0.00  1.  0.00  0.   13.51 1.0000
   5   3  -4     89.68   0.00          0.00  1.  0.00  0.   15.15 1.0000
   5   3  -4     69.89   0.00          0.00  1.  0.00  0.   16.89 1.0000
   5   3  -1    687.49   0.00          0.00  1.  0.00  0.   36.71 1.0000
   5   3  -1    766.18   0.00          0.00  1.  0.00  0.   43.73 1.0000
   5   3  -1    663.06   0.00          0.00  1.  0.00  0.   39.65 1.0000
   5   3  -1    715.03   0.00          0.00  1.  0.00  0.   39.58 1.0000
   5   3   0   1092.30   0.00          0.00  1.  0.00  0.   53.54 1.0000
   5   3   0   1169.64   0.00          0.00  1.  0.00  0.   55.40 1.0000
   5   3   0   1154.64   0.00          0.00  1.  0.00  0.   55.73 1.0000
   5   3   8    347.45   0.00          0.00  1.  0.00  0.   27.96 1.0000
   5   3   8    328.70   0.00          0.00  1.  0.00  0.   26.47 1.0000
   5   3   8    337.09   0.00          0.00  1.  0.00  0.   25.70 1.0000
   5   3  11    553.19   0.00          0.00  1.  0.00  0.   37.63 1.0000
   5   3  12    496.40   0.00          0.00  1.  0.00  0.   36.98 1.0000
   5   3  13     17.81   0.00          0.00  1.  0.00  0.   15.45 1.0000
   5   3  14    257.92   0.00          0.00  1.  0.00  0.   28.27 1.0000
   5   4  -7    289.68   0.00          0.00  1.  0.00  0.   26.89 1.0000
   5   4  -7    289.00   0.00          0.00  1.  0.00  0.   31.28 1.0000
   5   4  -4    770.06   0.00          0.00  1.  0.00  0.   46.06 1.0000
   5   4  -4    782.32   0.00          0.00  1.  0.00  0.   45.31 1.0000
   5   4  -4    842.74   0.00          0.00  1.  0.00  0.   51.09 1.0000
   5   4  -3    930.86   0.00          0.00  1.  0.00  0.   51.26 1.0000
   5   4  -3    881.50   0.00          0.00  1.  0.00  0.   50.47 1.0000
   5   4  -3   1004.26   0.00          0.00  1.  0.00  0.   55.77 1.0000
   5   4   0    677.04   0.00          0.00  1.  0.00  0.   43.71 1.0000
   5   4   0    731.16   0.00          0.00  1.  0.00  0.   41.64 1.0000
   5   4   0    668.74   0.00          0.00  1.  0.00  0.   39.82 1.0000
   5   4   0    641.10   0.00          0.00  1.  0.00  0.   40.01 1.0000
   5   4   5    150.55   0.00          0.00  1.  0.00  0.   14.97 1.0000
   5   4   5    135.26   0.00          0.00  1.  0.00  0.   14.19 1.0000
   5   4   8    239.63   0.00          0.00  1.  0.00  0.   24.77 1.0000
   5   4   8    245.86   0.00          0.00  1.  0.00  0.   21.32 1.0000
   5   4   8    246.80   0.00          0.00  1.  0.00  0.   22.31 1.0000
   5   4   9     11.29   0.00          0.00  1.  0.00  0.   10.55 1.0000
   5   4   9    -10.69   0.00          0.00  1.  0.00  0.   10.40 1.0000
   5   4  12    135.02   0.00          0.00  1.  0.00  0.   19.06 1.0000
   5   4  13    -14.75   0.00          0.00  1.  0.00  0.   13.98 1.0000
   5   5  -7    145.93   0.00          0.00  1.  0.00  0.   27.06 1.0000
   5   5  -7    161.80   0.00          0.00  1.  0.00  0.   20.61 1.0000
   5   5   6    123.65   0.00          0.00  1.  0.00  0.   14.46 1.0000
   5   5   6    128.14   0.00          0.00  1.  0.00  0.   13.81 1.0000
   5   5   7    120.78   0.00          0.00  1.  0.00  0.   12.97 1.0000
   5   5   7    123.65   0.00          0.00  1.  0.00  0.   17.57 1.0000
   5   5   7     87.80   0.00          0.00  1.  0.00  0.   13.68 1.0000
   5   5   8    165.89   0.00          0.00  1.  0.00  0.   17.77 1.0000
   5   5   8    154.75   0.00          0.00  1.  0.00  0.   17.17 1.0000
   5   5  11    103.84   0.00          0.00  1.  0.00  0.   17.32 1.0000
   5   5  12     79.21   0.00          0.00  1.  0.00  0.   17.27 1.0000
   5   6   0    157.50   0.00          0.00  1.  0.00  0.   15.06 1.0000
   5   6   0    130.42   0.00          0.00  1.  0.00  0.   14.85 1.0000
   5   6   0    140.90   0.00          0.00  1.  0.00  0.   13.53 1.0000
   5   6   0    145.68   0.00          0.00  1.  0.00  0.   18.35 1.0000
   5   6   1     29.16   0.00          0.00  1.  0.00  0.    7.99 1.0000
   5   6   1     28.09   0.00          0.00  1.  0.00  0.    9.54 1.0000
   5   6   1     21.90   0.00          0.00  1.  0.00  0.    8.14 1.0000
   5   6   1     10.76   0.00          0.00  1.  0.00  0.   13.84 1.0000
   5   6   2    162.56   0.00          0.00  1.  0.00  0.   14.28 1.0000
   5   6   2    119.90   0.00          0.00  1.  0.00  0.   15.11 1.0000
   5   6   2    139.95   0.00          0.00  1.  0.00  0.   16.80 1.0000
   5   6   2    149.08   0.00          0.00  1.  0.00  0.   13.19 1.0000
   5   6   3    379.86   0.00          0.00  1.  0.00  0.   23.00 1.0000
   5   6   3    402.40   0.00          0.00  1.  0.00  0.   27.68 1.0000
   5   6   7    962.86   0.00          0.00  1.  0.00  0.   52.13 1.0000
   5   6   7    968.45   0.00          0.00  1.  0.00  0.   52.28 1.0000
   5   6   8    572.64   0.00          0.00  1.  0.00  0.   36.37 1.0000
   5   6   8    598.78   0.00          0.00  1.  0.00  0.   36.22 1.0000
   5   6   9    467.42   0.00          0.00  1.  0.00  0.   31.57 1.0000
   5   7  -3      4.33   0.00          0.00  1.  0.00  0.   16.72 1.0000
   5   7  -2     89.11   0.00          0.00  1.  0.00  0.   20.20 1.0000
   5   7   0    119.25   0.00          0.00  1.  0.00  0.   12.89 1.0000
   5   7   0    132.71   0.00          0.00  1.  0.00  0.   20.51 1.0000
   5   7   0    110.46   0.00          0.00  1.  0.00  0.   14.92 1.0000
   5   7   1    333.06   0.00          0.00  1.  0.00  0.   27.38 1.0000
   5   7   1    281.90   0.00          0.00  1.  0.00  0.   23.51 1.0000
   5   7   1    284.26   0.00          0.00  1.  0.00  0.   19.56 1.0000
   5   7   2     56.55   0.00          0.00  1.  0.00  0.    9.02 1.0000
   5   7   2     60.06   0.00          0.00  1.  0.00  0.   12.86 1.0000
   5   7   3     17.89   0.00          0.00  1.  0.00  0.    6.51 1.0000
   5   7   3      1.12   0.00          0.00  1.  0.00  0.   12.72 1.0000
   5   7   3     27.35   0.00          0.00  1.  0.00  0.   11.72 1.0000
   5   7   5    242.11   0.00          0.00  1.  0.00  0.   17.74 1.0000
   5   7   6    871.43   0.00          0.00  1.  0.00  0.   47.23 1.0000
   5   7   7     83.36   0.00          0.00  1.  0.00  0.   11.50 1.0000
   5   8   0     17.64   0.00          0.00  1.  0.00  0.   16.46 1.0000
   5   8   1    202.78   0.00          0.00  1.  0.00  0.   25.06 1.0000
   5   8   2    144.48   0.00          0.00  1.  0.00  0.   22.36 1.0000
   5   8   4    502.21   0.00          0.00  1.  0.00  0.   37.20 1.0000
   6  -7  -4    130.42   0.00          0.00  1.  0.00  0.   16.67 1.0000
   6  -7  -3    207.36   0.00          0.00  1.  0.00  0.   19.58 1.0000
   6  -7  -2    171.09   0.00          0.00  1.  0.00  0.   17.27 1.0000
   6  -7   1     31.36   0.00          0.00  1.  0.00  0.   13.33 1.0000
   6  -7   5      6.92   0.00          0.00  1.  0.00  0.   17.83 1.0000
   6  -7   5     10.11   0.00          0.00  1.  0.00  0.   12.72 1.0000
   6  -7   5     19.54   0.00          0.00  1.  0.00  0.   10.70 1.0000
   6  -6  -6     -7.18   0.00          0.00  1.  0.00  0.   12.54 1.0000
   6  -6  -5     66.91   0.00          0.00  1.  0.00  0.   12.76 1.0000
   6  -6  -4    109.83   0.00          0.00  1.  0.00  0.   17.19 1.0000
   6  -5  -8     70.56   0.00          0.00  1.  0.00  0.   16.63 1.0000
   6  -5  -7    111.72   0.00          0.00  1.  0.00  0.   18.18 1.0000
   6  -5  -6    115.35   0.00          0.00  1.  0.00  0.   19.55 1.0000
   6  -5  -6     91.78   0.00          0.00  1.  0.00  0.   15.52 1.0000
   6  -5  -5    123.21   0.00          0.00  1.  0.00  0.   18.20 1.0000
   6  -5  -5    106.92   0.00          0.00  1.  0.00  0.   17.58 1.0000
   6  -5  -5     96.83   0.00          0.00  1.  0.00  0.   17.71 1.0000
   6  -5  -4    215.80   0.00          0.00  1.  0.00  0.   20.27 1.0000
   6  -5  -4    220.23   0.00          0.00  1.  0.00  0.   22.26 1.0000
   6  -5  -4    212.87   0.00          0.00  1.  0.00  0.   22.18 1.0000
   6  -5   2    247.43   0.00          0.00  1.  0.00  0.   17.62 1.0000
   6  -5   2    256.32   0.00          0.00  1.  0.00  0.   25.30 1.0000
   6  -5   2    227.41   0.00          0.00  1.  0.00  0.   21.11 1.0000
   6  -5   2    217.56   0.00          0.00  1.  0.00  0.   19.77 1.0000
   6  -5   5    823.69   0.00          0.00  1.  0.00  0.   57.40 1.0000
   6  -5   5    862.60   0.00          0.00  1.  0.00  0.   49.93 1.0000
   6  -5   5    824.84   0.00          0.00  1.  0.00  0.   50.55 1.0000
   6  -5   5    758.45   0.00          0.00  1.  0.00  0.   48.47 1.0000
   6  -5   6    110.25   0.00          0.00  1.  0.00  0.   16.59 1.0000
   6  -5   6     98.21   0.00          0.00  1.  0.00  0.   19.23 1.0000
   6  -5   6     93.70   0.00          0.00  1.  0.00  0.   16.07 1.0000
   6  -5   6     82.63   0.00          0.00  1.  0.00  0.   17.09 1.0000
   6  -5   7    257.60   0.00          0.00  1.  0.00  0.   25.04 1.0000
   6  -5   7    248.06   0.00          0.00  1.  0.00  0.   23.00 1.0000
   6  -5   7    246.49   0.00          0.00  1.  0.00  0.   28.89 1.0000
   6  -4  -8    132.94   0.00          0.00  1.  0.00  0.   19.37 1.0000
   6  -4  -7    223.20   0.00          0.00  1.  0.00  0.   24.20 1.0000
   6  -4  -7    211.12   0.00          0.00  1.  0.00  0.   24.12 1.0000
   6  -4  -6    198.25   0.00          0.00  1.  0.00  0.   20.28 1.0000
   6  -4  -6    182.79   0.00          0.00  1.  0.00  0.   22.17 1.0000
   6  -4  -6    177.16   0.00          0.00  1.  0.00  0.   13.58 1.0000
   6  -4  -6    170.04   0.00          0.00  1.  0.00  0.   18.26 1.0000
   6  -4  -5    310.82   0.00          0.00  1.  0.00  0.   19.04 1.0000
   6  -4  -5    308.35   0.00          0.00  1.  0.00  0.   25.64 1.0000
   6  -4  -5    324.00   0.00          0.00  1.  0.00  0.   27.72 1.0000
   6  -4  -5    303.46   0.00          0.00  1.  0.00  0.   26.83 1.0000
   6  -4  -4    163.58   0.00          0.00  1.  0.00  0.   18.42 1.0000
   6  -4  -4    165.12   0.00          0.00  1.  0.00  0.   12.08 1.0000
   6  -4  -4    170.30   0.00          0.00  1.  0.00  0.   18.53 1.0000
   6  -4  -4    159.26   0.00          0.00  1.  0.00  0.   19.18 1.0000
   6  -4  -3    310.11   0.00          0.00  1.  0.00  0.   17.96 1.0000
   6  -4  -3    291.73   0.00          0.00  1.  0.00  0.   25.96 1.0000
   6  -4  -3    267.98   0.00          0.00  1.  0.00  0.   23.25 1.0000
   6  -4  -3    335.99   0.00          0.00  1.  0.00  0.   27.13 1.0000
   6  -4  -2     62.09   0.00          0.00  1.  0.00  0.   11.82 1.0000
   6  -4  -2     76.91   0.00          0.00  1.  0.00  0.   16.31 1.0000
   6  -4  -2     68.72   0.00          0.00  1.  0.00  0.   14.59 1.0000
   6  -4  -2     82.26   0.00          0.00  1.  0.00  0.    7.62 1.0000
   6  -4  -1    235.93   0.00          0.00  1.  0.00  0.   20.89 1.0000
   6  -4  -1    244.30   0.00          0.00  1.  0.00  0.   22.82 1.0000
   6  -4  -1    221.71   0.00          0.00  1.  0.00  0.   19.65 1.0000
   6  -4  -1    224.70   0.00          0.00  1.  0.00  0.   14.69 1.0000
   6  -4  -1    221.41   0.00          0.00  1.  0.00  0.   21.72 1.0000
   6  -4   1    200.51   0.00          0.00  1.  0.00  0.   14.73 1.0000
   6  -4   1    186.60   0.00          0.00  1.  0.00  0.   18.85 1.0000
   6  -4   1    190.44   0.00          0.00  1.  0.00  0.   19.04 1.0000
   6  -4   1    178.49   0.00          0.00  1.  0.00  0.   18.97 1.0000
   6  -4   3    583.71   0.00          0.00  1.  0.00  0.   36.72 1.0000
   6  -4   3    618.52   0.00          0.00  1.  0.00  0.   42.28 1.0000
   6  -4   3    588.55   0.00          0.00  1.  0.00  0.   36.88 1.0000
   6  -4   3    666.67   0.00          0.00  1.  0.00  0.   36.15 1.0000
   6  -4   4    261.47   0.00          0.00  1.  0.00  0.   21.02 1.0000
   6  -4   4    247.75   0.00          0.00  1.  0.00  0.   20.78 1.0000
   6  -4   4    252.49   0.00          0.00  1.  0.00  0.   26.06 1.0000
   6  -4   4    208.80   0.00          0.00  1.  0.00  0.   21.39 1.0000
   6  -4   8     98.60   0.00          0.00  1.  0.00  0.   18.87 1.0000
   6  -4   8     95.45   0.00          0.00  1.  0.00  0.   17.98 1.0000
   6  -3  -9      2.96   0.00          0.00  1.  0.00  0.   14.41 1.0000
   6  -3  -8     70.22   0.00          0.00  1.  0.00  0.   18.60 1.0000
   6  -3  -8     55.06   0.00          0.00  1.  0.00  0.   11.72 1.0000
   6  -3  -7    -15.44   0.00          0.00  1.  0.00  0.   14.70 1.0000
   6  -3  -4     33.18   0.00          0.00  1.  0.00  0.   12.33 1.0000
   6  -3  -3    172.13   0.00          0.00  1.  0.00  0.   14.43 1.0000
   6  -3  -3    164.87   0.00          0.00  1.  0.00  0.   19.00 1.0000
   6  -3  -2    100.20   0.00          0.00  1.  0.00  0.   17.02 1.0000
   6  -3  -2     93.12   0.00          0.00  1.  0.00  0.   15.44 1.0000
   6  -3  -2    140.19   0.00          0.00  1.  0.00  0.   11.84 1.0000
   6  -3  -1    241.18   0.00          0.00  1.  0.00  0.   19.88 1.0000
   6  -3  -1    256.96   0.00          0.00  1.  0.00  0.   22.12 1.0000
   6  -3  -1    269.94   0.00          0.00  1.  0.00  0.   23.99 1.0000
   6  -3   0    220.23   0.00          0.00  1.  0.00  0.   19.00 1.0000
   6  -3   0    209.96   0.00          0.00  1.  0.00  0.   21.45 1.0000
   6  -3   0    220.23   0.00          0.00  1.  0.00  0.   19.29 1.0000
   6  -3   1    412.90   0.00          0.00  1.  0.00  0.   29.26 1.0000
   6  -3   1    428.08   0.00          0.00  1.  0.00  0.   28.97 1.0000
   6  -3   1    400.00   0.00          0.00  1.  0.00  0.   29.20 1.0000
   6  -3   3    762.86   0.00          0.00  1.  0.00  0.   46.95 1.0000
   6  -3   3    681.21   0.00          0.00  1.  0.00  0.   43.33 1.0000
   6  -3   3    739.84   0.00          0.00  1.  0.00  0.   42.98 1.0000
   6  -3   5    732.78   0.00          0.00  1.  0.00  0.   43.85 1.0000
   6  -3   5    710.76   0.00          0.00  1.  0.00  0.   44.26 1.0000
   6  -3   5    719.31   0.00          0.00  1.  0.00  0.   42.38 1.0000
   6  -3   6    637.56   0.00          0.00  1.  0.00  0.   39.39 1.0000
   6  -3   6    661.00   0.00          0.00  1.  0.00  0.   41.14 1.0000
   6  -3   6    625.00   0.00          0.00  1.  0.00  0.   40.50 1.0000
   6  -3  10     66.10   0.00          0.00  1.  0.00  0.   13.98 1.0000
   6  -3  10     92.54   0.00          0.00  1.  0.00  0.   19.62 1.0000
   6  -2  -9    245.55   0.00          0.00  1.  0.00  0.   26.01 1.0000
   6  -2  -9    210.54   0.00          0.00  1.  0.00  0.   22.35 1.0000
   6  -2  -8    404.01   0.00          0.00  1.  0.00  0.   35.38 1.0000
   6  -2  -8    422.30   0.00          0.00  1.  0.00  0.   30.41 1.0000
   6  -2  -2    382.59   0.00          0.00  1.  0.00  0.   26.21 1.0000
   6  -2  -2    368.64   0.00          0.00  1.  0.00  0.   26.88 1.0000
   6  -2  -2    358.34   0.00          0.00  1.  0.00  0.   23.09 1.0000
   6  -2  -1    177.96   0.00          0.00  1.  0.00  0.   20.54 1.0000
   6  -2  -1    184.96   0.00          0.00  1.  0.00  0.   18.77 1.0000
   6  -2  -1    197.40   0.00          0.00  1.  0.00  0.   15.46 1.0000
   6  -2   0    969.70   0.00          0.00  1.  0.00  0.   54.18 1.0000
   6  -2   0    932.08   0.00          0.00  1.  0.00  0.   51.90 1.0000
   6  -2   0    925.98   0.00          0.00  1.  0.00  0.   52.34 1.0000
   6  -2   2    115.13   0.00          0.00  1.  0.00  0.   14.38 1.0000
   6  -2   2    132.71   0.00          0.00  1.  0.00  0.   16.82 1.0000
   6  -2   3     70.06   0.00          0.00  1.  0.00  0.   12.22 1.0000
   6  -2   3     68.72   0.00          0.00  1.  0.00  0.   13.10 1.0000
   6  -2   7    438.90   0.00          0.00  1.  0.00  0.   31.84 1.0000
   6  -2   7    431.81   0.00          0.00  1.  0.00  0.   32.83 1.0000
   6  -2   7    421.48   0.00          0.00  1.  0.00  0.   30.80 1.0000
   6  -2  11    112.57   0.00          0.00  1.  0.00  0.   21.64 1.0000
   6  -2  12    192.10   0.00          0.00  1.  0.00  0.   26.33 1.0000
   6  -1  -7    223.80   0.00          0.00  1.  0.00  0.   21.84 1.0000
   6  -1  -7    207.36   0.00          0.00  1.  0.00  0.   25.63 1.0000
   6  -1  -6    199.37   0.00          0.00  1.  0.00  0.   23.44 1.0000
   6  -1  -6    221.41   0.00          0.00  1.  0.00  0.   20.24 1.0000
   6  -1  -6    221.41   0.00          0.00  1.  0.00  0.   23.21 1.0000
   6  -1  -4    148.60   0.00          0.00  1.  0.00  0.   19.50 1.0000
   6  -1  -4    186.32   0.00          0.00  1.  0.00  0.   17.47 1.0000
   6  -1  -4    163.33   0.00          0.00  1.  0.00  0.   17.64 1.0000
   6  -1  -2   1143.12   0.00          0.00  1.  0.00  0.   58.15 1.0000
   6  -1  -2   1068.64   0.00          0.00  1.  0.00  0.   60.15 1.0000
   6  -1  -2   1123.59   0.00          0.00  1.  0.00  0.   60.34 1.0000
   6  -1   2    422.30   0.00          0.00  1.  0.00  0.   31.65 1.0000
   6  -1   3    487.53   0.00          0.00  1.  0.00  0.   34.00 1.0000
   6  -1   3    493.28   0.00          0.00  1.  0.00  0.   32.43 1.0000
   6  -1   4    655.87   0.00          0.00  1.  0.00  0.   40.98 1.0000
   6  -1   4    675.48   0.00          0.00  1.  0.00  0.   41.58 1.0000
   6  -1   8    430.15   0.00          0.00  1.  0.00  0.   33.18 1.0000
   6  -1   8    412.09   0.00          0.00  1.  0.00  0.   31.26 1.0000
   6  -1   8    403.61   0.00          0.00  1.  0.00  0.   30.94 1.0000
   6   0  -9      9.49   0.00          0.00  1.  0.00  0.   15.15 1.0000
   6   0  -9     30.36   0.00          0.00  1.  0.00  0.   12.89 1.0000
   6   0  -8     35.28   0.00          0.00  1.  0.00  0.   16.39 1.0000
   6   0  -8     -1.64   0.00          0.00  1.  0.00  0.   13.59 1.0000
   6   0  -7     65.61   0.00          0.00  1.  0.00  0.   16.20 1.0000
   6   0  -7     56.70   0.00          0.00  1.  0.00  0.   17.17 1.0000
   6   0  -6    245.55   0.00          0.00  1.  0.00  0.   22.88 1.0000
   6   0  -6    241.18   0.00          0.00  1.  0.00  0.   25.78 1.0000
   6   0  -5   1490.73   0.00          0.00  1.  0.00  0.   80.31 1.0000
   6   0  -5   1569.74   0.00          0.00  1.  0.00  0.   81.62 1.0000
   6   0  -5   1564.20   0.00          0.00  1.  0.00  0.   79.10 1.0000
   6   0  -4    183.33   0.00          0.00  1.  0.00  0.   19.77 1.0000
   6   0  -4    218.45   0.00          0.00  1.  0.00  0.   21.87 1.0000
   6   0  -4    197.40   0.00          0.00  1.  0.00  0.   21.08 1.0000
   6   0  -3    535.00   0.00          0.00  1.  0.00  0.   34.23 1.0000
   6   0  -3    523.95   0.00          0.00  1.  0.00  0.   34.79 1.0000
   6   0  -3    497.74   0.00          0.00  1.  0.00  0.   34.36 1.0000
   6   0  -2    542.89   0.00          0.00  1.  0.00  0.   36.81 1.0000
   6   0  -2    548.03   0.00          0.00  1.  0.00  0.   36.52 1.0000
   6   0  -2    567.39   0.00          0.00  1.  0.00  0.   35.73 1.0000
   6   0  -1    613.55   0.00          0.00  1.  0.00  0.   39.14 1.0000
   6   0  -1    646.18   0.00          0.00  1.  0.00  0.   40.67 1.0000
   6   0   0   1113.56   0.00          0.00  1.  0.00  0.   60.07 1.0000
   6   0   0   1164.17   0.00          0.00  1.  0.00  0.   62.78 1.0000
   6   0   0   1209.65   0.00          0.00  1.  0.00  0.   64.00 1.0000
   6   0   1   1956.29   0.00          0.00  1.  0.00  0.   97.31 1.0000
   6   0   1   1919.32   0.00          0.00  1.  0.00  0.   95.51 1.0000
   6   0   2      6.15   0.00          0.00  1.  0.00  0.   11.26 1.0000
   6   0   3     87.61   0.00          0.00  1.  0.00  0.   12.92 1.0000
   6   0   3     80.64   0.00          0.00  1.  0.00  0.   13.65 1.0000
   6   0   4    427.66   0.00          0.00  1.  0.00  0.   30.61 1.0000
   6   0   4    414.94   0.00          0.00  1.  0.00  0.   28.93 1.0000
   6   0   5     51.98   0.00          0.00  1.  0.00  0.   12.69 1.0000
   6   0   5     35.52   0.00          0.00  1.  0.00  0.   13.35 1.0000
   6   0   6    391.64   0.00          0.00  1.  0.00  0.   28.89 1.0000
   6   0   6    381.42   0.00          0.00  1.  0.00  0.   29.69 1.0000
   6   0   7     28.20   0.00          0.00  1.  0.00  0.   12.64 1.0000
   6   0   7     38.07   0.00          0.00  1.  0.00  0.   13.82 1.0000
   6   0   8     -0.72   0.00          0.00  1.  0.00  0.   10.54 1.0000
   6   0   8     -3.76   0.00          0.00  1.  0.00  0.   13.62 1.0000
   6   0   9     75.69   0.00          0.00  1.  0.00  0.   16.53 1.0000
   6   0   9     55.95   0.00          0.00  1.  0.00  0.   13.16 1.0000
   6   0  10    462.68   0.00          0.00  1.  0.00  0.   36.57 1.0000
   6   0  11    144.24   0.00          0.00  1.  0.00  0.   19.22 1.0000
   6   0  12    198.25   0.00          0.00  1.  0.00  0.   26.19 1.0000
   6   0  13     89.30   0.00          0.00  1.  0.00  0.   21.55 1.0000
   6   1  -9    181.98   0.00          0.00  1.  0.00  0.   24.82 1.0000
   6   1  -9    169.26   0.00          0.00  1.  0.00  0.   22.12 1.0000
   6   1  -8     50.13   0.00          0.00  1.  0.00  0.   17.70 1.0000
   6   1  -8     53.00   0.00          0.00  1.  0.00  0.   17.76 1.0000
   6   1  -7    272.58   0.00          0.00  1.  0.00  0.   25.10 1.0000
   6   1  -7    268.96   0.00          0.00  1.  0.00  0.   27.55 1.0000
   6   1  -6    187.42   0.00          0.00  1.  0.00  0.   23.00 1.0000
   6   1  -6    189.89   0.00          0.00  1.  0.00  0.   23.15 1.0000
   6   1   2    499.97   0.00          0.00  1.  0.00  0.   32.65 1.0000
   6   1   3    546.16   0.00          0.00  1.  0.00  0.   34.59 1.0000
   6   1   3    564.54   0.00          0.00  1.  0.00  0.   33.74 1.0000
   6   1   5    217.86   0.00          0.00  1.  0.00  0.   21.84 1.0000
   6   1   5    271.26   0.00          0.00  1.  0.00  0.   22.40 1.0000
   6   1   6    522.12   0.00          0.00  1.  0.00  0.   36.10 1.0000
   6   1   6    535.92   0.00          0.00  1.  0.00  0.   34.26 1.0000
   6   1   7    247.12   0.00          0.00  1.  0.00  0.   23.58 1.0000
   6   1   7    227.10   0.00          0.00  1.  0.00  0.   22.30 1.0000
   6   1   9    222.01   0.00          0.00  1.  0.00  0.   21.75 1.0000
   6   1   9    195.72   0.00          0.00  1.  0.00  0.   21.26 1.0000
   6   1  10    286.29   0.00          0.00  1.  0.00  0.   21.32 1.0000
   6   1  10    292.07   0.00          0.00  1.  0.00  0.   27.69 1.0000
   6   2  -7     16.16   0.00          0.00  1.  0.00  0.   15.12 1.0000
   6   2  -6    106.09   0.00          0.00  1.  0.00  0.   19.16 1.0000
   6   2  -6    113.42   0.00          0.00  1.  0.00  0.   19.38 1.0000
   6   2  -4    157.00   0.00          0.00  1.  0.00  0.   18.80 1.0000
   6   2  -4    126.56   0.00          0.00  1.  0.00  0.   18.23 1.0000
   6   2  -4    111.51   0.00          0.00  1.  0.00  0.   15.00 1.0000
   6   2  -3     82.99   0.00          0.00  1.  0.00  0.   13.85 1.0000
   6   2  -3     67.40   0.00          0.00  1.  0.00  0.   12.48 1.0000
   6   2  -3     61.00   0.00          0.00  1.  0.00  0.   13.12 1.0000
   6   2  -2    266.67   0.00          0.00  1.  0.00  0.   24.82 1.0000
   6   2  -2    309.06   0.00          0.00  1.  0.00  0.   25.32 1.0000
   6   2   1   3064.73   0.00          0.00  1.  0.00  0.  143.94 1.0000
   6   2   1   2884.76   0.00          0.00  1.  0.00  0.  141.79 1.0000
   6   2  11     85.38   0.00          0.00  1.  0.00  0.   15.52 1.0000
   6   2  13    498.63   0.00          0.00  1.  0.00  0.   41.09 1.0000
   6   3  -7     41.47   0.00          0.00  1.  0.00  0.   19.06 1.0000
   6   3  -7     12.82   0.00          0.00  1.  0.00  0.   14.46 1.0000
   6   3  -4      4.62   0.00          0.00  1.  0.00  0.   11.52 1.0000
   6   3  -4     13.84   0.00          0.00  1.  0.00  0.   14.36 1.0000
   6   3  -3    216.38   0.00          0.00  1.  0.00  0.   19.42 1.0000
   6   3  -3    233.48   0.00          0.00  1.  0.00  0.   24.45 1.0000
   6   3  -1    249.32   0.00          0.00  1.  0.00  0.   20.53 1.0000
   6   3  -1    242.74   0.00          0.00  1.  0.00  0.   24.62 1.0000
   6   3  -1    267.65   0.00          0.00  1.  0.00  0.   21.60 1.0000
   6   3  11    254.40   0.00          0.00  1.  0.00  0.   25.52 1.0000
   6   3  12    232.87   0.00          0.00  1.  0.00  0.   26.25 1.0000
   6   3  13    116.64   0.00          0.00  1.  0.00  0.   20.52 1.0000
   6   4  -7    176.89   0.00          0.00  1.  0.00  0.   24.21 1.0000
   6   4  -7    197.96   0.00          0.00  1.  0.00  0.   25.89 1.0000
   6   4  -5    377.91   0.00          0.00  1.  0.00  0.   33.83 1.0000
   6   4  -5    351.19   0.00          0.00  1.  0.00  0.   28.86 1.0000
   6   4  -3    341.51   0.00          0.00  1.  0.00  0.   29.94 1.0000
   6   4   1    185.23   0.00          0.00  1.  0.00  0.   18.51 1.0000
   6   4   1    161.80   0.00          0.00  1.  0.00  0.   13.74 1.0000
   6   4   1    153.51   0.00          0.00  1.  0.00  0.   15.36 1.0000
   6   4   2    190.99   0.00          0.00  1.  0.00  0.   18.52 1.0000
   6   4   2    231.34   0.00          0.00  1.  0.00  0.   19.16 1.0000
   6   4   6    403.21   0.00          0.00  1.  0.00  0.   28.92 1.0000
   6   4   6    388.88   0.00          0.00  1.  0.00  0.   28.40 1.0000
   6   4  10    315.77   0.00          0.00  1.  0.00  0.   27.01 1.0000
   6   4  11     54.91   0.00          0.00  1.  0.00  0.   16.15 1.0000
   6   4  12     91.58   0.00          0.00  1.  0.00  0.   19.33 1.0000
   6   5   0    255.68   0.00          0.00  1.  0.00  0.   18.87 1.0000
   6   5   0    283.59   0.00          0.00  1.  0.00  0.   23.58 1.0000
   6   5   0    225.00   0.00          0.00  1.  0.00  0.   20.70 1.0000
   6   5   0    295.50   0.00          0.00  1.  0.00  0.   25.44 1.0000
   6   5   1    473.06   0.00          0.00  1.  0.00  0.   31.32 1.0000
   6   5   1    501.76   0.00          0.00  1.  0.00  0.   31.81 1.0000
   6   5   1    557.43   0.00          0.00  1.  0.00  0.   34.00 1.0000
   6   5   1    531.76   0.00          0.00  1.  0.00  0.   37.82 1.0000
   6   5   5    927.81   0.00          0.00  1.  0.00  0.   49.35 1.0000
   6   5   6     55.65   0.00          0.00  1.  0.00  0.   12.83 1.0000
   6   5   6     73.10   0.00          0.00  1.  0.00  0.   13.51 1.0000
   6   5   8    216.97   0.00          0.00  1.  0.00  0.   21.21 1.0000
   6   5  10    140.66   0.00          0.00  1.  0.00  0.   19.21 1.0000
   6   5  11     19.89   0.00          0.00  1.  0.00  0.   12.49 1.0000
   6   6  -4    140.90   0.00          0.00  1.  0.00  0.   25.40 1.0000
   6   6   0     96.83   0.00          0.00  1.  0.00  0.   16.73 1.0000
   6   6   1     94.28   0.00          0.00  1.  0.00  0.   20.00 1.0000
   6   6   1     67.73   0.00          0.00  1.  0.00  0.   11.19 1.0000
   6   6   1     66.75   0.00          0.00  1.  0.00  0.   12.09 1.0000
   6   6   2     15.68   0.00          0.00  1.  0.00  0.    9.19 1.0000
   6   6   2      9.73   0.00          0.00  1.  0.00  0.   14.98 1.0000
   6   6   2     22.47   0.00          0.00  1.  0.00  0.    9.57 1.0000
   6   6   2     50.55   0.00          0.00  1.  0.00  0.   10.66 1.0000
   6   6   4    138.77   0.00          0.00  1.  0.00  0.   14.84 1.0000
   6   6   4    144.72   0.00          0.00  1.  0.00  0.   15.64 1.0000
   6   6   4    118.16   0.00          0.00  1.  0.00  0.   16.31 1.0000
   6   6   5    154.26   0.00          0.00  1.  0.00  0.   16.39 1.0000
   6   6   5    166.41   0.00          0.00  1.  0.00  0.   16.77 1.0000
   6   6   6     43.30   0.00          0.00  1.  0.00  0.   11.71 1.0000
   6   6   7    202.21   0.00          0.00  1.  0.00  0.   19.34 1.0000
   6   7  -1     14.29   0.00          0.00  1.  0.00  0.   12.47 1.0000
   6   7   0     81.00   0.00          0.00  1.  0.00  0.   16.38 1.0000
   6   7   1     59.14   0.00          0.00  1.  0.00  0.   14.61 1.0000
   6   7   2    116.86   0.00          0.00  1.  0.00  0.   20.54 1.0000
   7  -6  -3     -0.28   0.00          0.00  1.  0.00  0.   11.90 1.0000
   7  -6  -2    244.92   0.00          0.00  1.  0.00  0.   23.47 1.0000
   7  -6   1    188.51   0.00          0.00  1.  0.00  0.   19.50 1.0000
   7  -6   1    190.99   0.00          0.00  1.  0.00  0.   22.11 1.0000
   7  -6   5     59.91   0.00          0.00  1.  0.00  0.   15.63 1.0000
   7  -5  -5     82.08   0.00          0.00  1.  0.00  0.   18.84 1.0000
   7  -5  -4    262.76   0.00          0.00  1.  0.00  0.   26.58 1.0000
   7  -5   2    294.81   0.00          0.00  1.  0.00  0.   25.76 1.0000
   7  -5   2    293.44   0.00          0.00  1.  0.00  0.   25.01 1.0000
   7  -5   2    306.25   0.00          0.00  1.  0.00  0.   29.05 1.0000
   7  -4  -7    641.61   0.00          0.00  1.  0.00  0.   47.11 1.0000
   7  -4  -6    115.78   0.00          0.00  1.  0.00  0.   18.72 1.0000
   7  -4  -4     92.16   0.00          0.00  1.  0.00  0.   17.28 1.0000
   7  -4  -4     90.63   0.00          0.00  1.  0.00  0.   17.33 1.0000
   7  -4  -4     81.54   0.00          0.00  1.  0.00  0.   16.07 1.0000
   7  -4  -2    203.63   0.00          0.00  1.  0.00  0.   21.98 1.0000
   7  -4  -2    240.56   0.00          0.00  1.  0.00  0.   16.13 1.0000
   7  -4  -2    256.96   0.00          0.00  1.  0.00  0.   25.01 1.0000
   7  -4  -2    224.40   0.00          0.00  1.  0.00  0.   23.07 1.0000
   7  -4   1     33.41   0.00          0.00  1.  0.00  0.   13.06 1.0000
   7  -4   1     28.94   0.00          0.00  1.  0.00  0.   12.27 1.0000
   7  -4   2     51.98   0.00          0.00  1.  0.00  0.   14.28 1.0000
   7  -4   2     53.44   0.00          0.00  1.  0.00  0.   14.33 1.0000
   7  -4   2     30.36   0.00          0.00  1.  0.00  0.   12.23 1.0000
   7  -4   2     41.09   0.00          0.00  1.  0.00  0.    9.49 1.0000
   7  -4   3     41.47   0.00          0.00  1.  0.00  0.   11.46 1.0000
   7  -4   3     57.00   0.00          0.00  1.  0.00  0.   10.57 1.0000
   7  -4   3     54.46   0.00          0.00  1.  0.00  0.   14.61 1.0000
   7  -4   4    985.33   0.00          0.00  1.  0.00  0.   62.15 1.0000
   7  -4   4    975.94   0.00          0.00  1.  0.00  0.   56.86 1.0000
   7  -4   4    949.26   0.00          0.00  1.  0.00  0.   56.07 1.0000
   7  -4   4   1022.72   0.00          0.00  1.  0.00  0.   55.65 1.0000
   7  -4   5    560.74   0.00          0.00  1.  0.00  0.   39.31 1.0000
   7  -4   5    634.03   0.00          0.00  1.  0.00  0.   44.82 1.0000
   7  -4   5    595.85   0.00          0.00  1.  0.00  0.   40.03 1.0000
   7  -4   5    576.00   0.00          0.00  1.  0.00  0.   37.44 1.0000
   7  -4   6    208.80   0.00          0.00  1.  0.00  0.   21.96 1.0000
   7  -4   6    216.68   0.00          0.00  1.  0.00  0.   24.14 1.0000
   7  -4   6    256.00   0.00          0.00  1.  0.00  0.   24.32 1.0000
   7  -4   6    256.64   0.00          0.00  1.  0.00  0.   27.23 1.0000
   7  -4   7     52.56   0.00          0.00  1.  0.00  0.   15.95 1.0000
   7  -4   7     52.56   0.00          0.00  1.  0.00  0.   13.48 1.0000
   7  -3  -7    195.44   0.00          0.00  1.  0.00  0.   26.00 1.0000
   7  -3  -5     64.48   0.00          0.00  1.  0.00  0.   11.40 1.0000
   7  -3  -5     78.32   0.00          0.00  1.  0.00  0.   15.40 1.0000
   7  -3  -5     31.70   0.00          0.00  1.  0.00  0.   15.09 1.0000
   7  -3   2     35.76   0.00          0.00  1.  0.00  0.   10.64 1.0000
   7  -3   4    234.09   0.00          0.00  1.  0.00  0.   22.03 1.0000
   7  -3   4    233.48   0.00          0.00  1.  0.00  0.   22.00 1.0000
   7  -3   4    201.92   0.00          0.00  1.  0.00  0.   18.47 1.0000
   7  -3   4    234.09   0.00          0.00  1.  0.00  0.   22.64 1.0000
   7  -3   8    181.98   0.00          0.00  1.  0.00  0.   22.93 1.0000
   7  -3   8    161.80   0.00          0.00  1.  0.00  0.   19.84 1.0000
   7  -3   9    404.41   0.00          0.00  1.  0.00  0.   36.20 1.0000
   7  -3  10    -12.04   0.00          0.00  1.  0.00  0.   16.45 1.0000
   7  -2  -7    184.96   0.00          0.00  1.  0.00  0.   20.40 1.0000
   7  -2  -7    185.23   0.00          0.00  1.  0.00  0.   25.04 1.0000
   7  -2  -5      5.71   0.00          0.00  1.  0.00  0.    9.70 1.0000
   7  -2  -5      6.60   0.00          0.00  1.  0.00  0.   14.55 1.0000
   7  -2  -4     38.44   0.00          0.00  1.  0.00  0.   16.12 1.0000
   7  -2  -2     50.13   0.00          0.00  1.  0.00  0.   13.03 1.0000
   7  -2  -2     61.62   0.00          0.00  1.  0.00  0.   15.07 1.0000
   7  -2  -2     58.52   0.00          0.00  1.  0.00  0.   11.17 1.0000
   7  -2   0    297.56   0.00          0.00  1.  0.00  0.   24.84 1.0000
   7  -2   0    299.29   0.00          0.00  1.  0.00  0.   27.33 1.0000
   7  -2   0    287.98   0.00          0.00  1.  0.00  0.   21.04 1.0000
   7  -2   1     34.81   0.00          0.00  1.  0.00  0.    7.79 1.0000
   7  -2   1     29.27   0.00          0.00  1.  0.00  0.   13.96 1.0000
   7  -2   2    181.44   0.00          0.00  1.  0.00  0.   17.24 1.0000
   7  -2   2    170.56   0.00          0.00  1.  0.00  0.   19.85 1.0000
   7  -2   2    175.30   0.00          0.00  1.  0.00  0.   18.80 1.0000
   7  -2   6     50.55   0.00          0.00  1.  0.00  0.   12.51 1.0000
   7  -2   6     53.00   0.00          0.00  1.  0.00  0.   16.31 1.0000
   7  -2   7    254.72   0.00          0.00  1.  0.00  0.   24.58 1.0000
   7  -2   7    259.53   0.00          0.00  1.  0.00  0.   23.52 1.0000
   7  -2   7    260.82   0.00          0.00  1.  0.00  0.   23.58 1.0000
   7  -2   9    423.95   0.00          0.00  1.  0.00  0.   32.12 1.0000
   7  -2  10    119.46   0.00          0.00  1.  0.00  0.   21.64 1.0000
   7  -1  -8     66.10   0.00          0.00  1.  0.00  0.   16.91 1.0000
   7  -1  -8     72.42   0.00          0.00  1.  0.00  0.   18.89 1.0000
   7  -1  -7    168.74   0.00          0.00  1.  0.00  0.   24.42 1.0000
   7  -1  -7    173.98   0.00          0.00  1.  0.00  0.   21.37 1.0000
   7  -1  -6    347.45   0.00          0.00  1.  0.00  0.   27.21 1.0000
   7  -1  -6    286.29   0.00          0.00  1.  0.00  0.   29.10 1.0000
   7  -1  -4     77.97   0.00          0.00  1.  0.00  0.   17.84 1.0000
   7  -1  -4     51.27   0.00          0.00  1.  0.00  0.   12.60 1.0000
   7  -1   0   2466.12   0.00          0.00  1.  0.00  0.  123.16 1.0000
   7  -1   0   2608.14   0.00          0.00  1.  0.00  0.  125.63 1.0000
   7  -1   0   2527.07   0.00          0.00  1.  0.00  0.  126.68 1.0000
   7  -1   1    350.44   0.00          0.00  1.  0.00  0.   23.21 1.0000
   7  -1   1    361.38   0.00          0.00  1.  0.00  0.   28.13 1.0000
   7  -1   1    330.51   0.00          0.00  1.  0.00  0.   35.27 1.0000
   7  -1   4    327.97   0.00          0.00  1.  0.00  0.   28.25 1.0000
   7  -1   4    318.98   0.00          0.00  1.  0.00  0.   27.15 1.0000
   7  -1   5   1324.23   0.00          0.00  1.  0.00  0.   69.14 1.0000
   7  -1   5   1288.09   0.00          0.00  1.  0.00  0.   70.34 1.0000
   7  -1  11    177.42   0.00          0.00  1.  0.00  0.   24.51 1.0000
   7   0  -7     61.62   0.00          0.00  1.  0.00  0.   19.00 1.0000
   7   0  -7     27.67   0.00          0.00  1.  0.00  0.   15.57 1.0000
   7   0  -6      5.90   0.00          0.00  1.  0.00  0.   13.27 1.0000
   7   0  -6     -4.54   0.00          0.00  1.  0.00  0.   14.87 1.0000
   7   0  -5     -3.42   0.00          0.00  1.  0.00  0.   13.47 1.0000
   7   0  -5      5.29   0.00          0.00  1.  0.00  0.   11.91 1.0000
   7   0  -4      4.75   0.00          0.00  1.  0.00  0.   11.95 1.0000
   7   0  -4     -7.78   0.00          0.00  1.  0.00  0.   11.22 1.0000
   7   0  -3    195.44   0.00          0.00  1.  0.00  0.   20.69 1.0000
   7   0  -3    207.94   0.00          0.00  1.  0.00  0.   21.05 1.0000
   7   0  -3    223.50   0.00          0.00  1.  0.00  0.   24.22 1.0000
   7   0  -2    283.92   0.00          0.00  1.  0.00  0.   26.29 1.0000
   7   0  -2    272.58   0.00          0.00  1.  0.00  0.   23.77 1.0000
   7   0  -2    261.47   0.00          0.00  1.  0.00  0.   25.55 1.0000
   7   0  -1    953.57   0.00          0.00  1.  0.00  0.   56.20 1.0000
   7   0  -1    930.25   0.00          0.00  1.  0.00  0.   54.90 1.0000
   7   0  -1    997.30   0.00          0.00  1.  0.00  0.   53.69 1.0000
   7   0   0   1671.99   0.00          0.00  1.  0.00  0.   86.69 1.0000
   7   0   0   1742.23   0.00          0.00  1.  0.00  0.   90.16 1.0000
   7   0   0   1701.56   0.00          0.00  1.  0.00  0.   89.93 1.0000
   7   0   1     52.42   0.00          0.00  1.  0.00  0.   16.07 1.0000
   7   0   1     56.55   0.00          0.00  1.  0.00  0.    8.12 1.0000
   7   0   1     64.64   0.00          0.00  1.  0.00  0.   13.99 1.0000
   7   0   2    377.91   0.00          0.00  1.  0.00  0.   28.77 1.0000
   7   0   2    372.10   0.00          0.00  1.  0.00  0.   28.16 1.0000
   7   0   3    552.72   0.00          0.00  1.  0.00  0.   36.68 1.0000
   7   0   4    751.31   0.00          0.00  1.  0.00  0.   45.50 1.0000
   7   0   4    733.87   0.00          0.00  1.  0.00  0.   46.59 1.0000
   7   0   5    879.12   0.00          0.00  1.  0.00  0.   53.96 1.0000
   7   0   5    917.48   0.00          0.00  1.  0.00  0.   53.31 1.0000
   7   0   6    915.67   0.00          0.00  1.  0.00  0.   53.26 1.0000
   7   0   6    888.64   0.00          0.00  1.  0.00  0.   54.85 1.0000
   7   0   7     30.69   0.00          0.00  1.  0.00  0.   14.74 1.0000
   7   0   7      8.12   0.00          0.00  1.  0.00  0.    9.80 1.0000
   7   0   8     65.77   0.00          0.00  1.  0.00  0.   14.11 1.0000
   7   0  11     29.81   0.00          0.00  1.  0.00  0.   16.60 1.0000
   7   0  12    399.20   0.00          0.00  1.  0.00  0.   36.36 1.0000
   7   1  -6    309.76   0.00          0.00  1.  0.00  0.   29.57 1.0000
   7   1  -6    348.94   0.00          0.00  1.  0.00  0.   29.89 1.0000
   7   1  -5    258.24   0.00          0.00  1.  0.00  0.   27.00 1.0000
   7   1  -5    292.07   0.00          0.00  1.  0.00  0.   27.00 1.0000
   7   1  -4     49.56   0.00          0.00  1.  0.00  0.   15.77 1.0000
   7   1  -1    575.04   0.00          0.00  1.  0.00  0.   38.37 1.0000
   7   1  -1    583.22   0.00          0.00  1.  0.00  0.   37.67 1.0000
   7   1  -1    516.20   0.00          0.00  1.  0.00  0.   36.35 1.0000
   7   1   1    368.26   0.00          0.00  1.  0.00  0.   27.63 1.0000
   7   1   1    315.42   0.00          0.00  1.  0.00  0.   26.64 1.0000
   7   1   5   1227.80   0.00          0.00  1.  0.00  0.   69.38 1.0000
   7   1   5   1222.20   0.00          0.00  1.  0.00  0.   68.52 1.0000
   7   1   8    189.89   0.00          0.00  1.  0.00  0.   22.60 1.0000
   7   1   9     33.18   0.00          0.00  1.  0.00  0.   15.67 1.0000
   7   1  10    173.19   0.00          0.00  1.  0.00  0.   23.42 1.0000
   7   1  11    185.50   0.00          0.00  1.  0.00  0.   22.06 1.0000
   7   2  -6    340.03   0.00          0.00  1.  0.00  0.   29.50 1.0000
   7   2  -6    297.22   0.00          0.00  1.  0.00  0.   29.65 1.0000
   7   2  -5     23.72   0.00          0.00  1.  0.00  0.   16.56 1.0000
   7   2  -4     27.14   0.00          0.00  1.  0.00  0.   11.98 1.0000
   7   2  -4     30.25   0.00          0.00  1.  0.00  0.   11.66 1.0000
   7   2   1     40.96   0.00          0.00  1.  0.00  0.   10.37 1.0000
   7   2   1     15.13   0.00          0.00  1.  0.00  0.   12.14 1.0000
   7   2   4    179.56   0.00          0.00  1.  0.00  0.   20.64 1.0000
   7   2   4    148.35   0.00          0.00  1.  0.00  0.   18.03 1.0000
   7   2   5    284.60   0.00          0.00  1.  0.00  0.   25.98 1.0000
   7   2   5    277.22   0.00          0.00  1.  0.00  0.   23.64 1.0000
   7   2   6     66.59   0.00          0.00  1.  0.00  0.   15.34 1.0000
   7   2   6     87.24   0.00          0.00  1.  0.00  0.   15.88 1.0000
   7   2   9    289.68   0.00          0.00  1.  0.00  0.   28.93 1.0000
   7   2  10     87.61   0.00          0.00  1.  0.00  0.   18.72 1.0000
   7   2  11    289.68   0.00          0.00  1.  0.00  0.   27.23 1.0000
   7   2  12    136.66   0.00          0.00  1.  0.00  0.   22.44 1.0000
   7   3  -2    102.82   0.00          0.00  1.  0.00  0.   19.27 1.0000
   7   3  -2     92.93   0.00          0.00  1.  0.00  0.   16.77 1.0000
   7   3   1    133.63   0.00          0.00  1.  0.00  0.   17.80 1.0000
   7   3   1    118.16   0.00          0.00  1.  0.00  0.    9.78 1.0000
   7   3   1    126.34   0.00          0.00  1.  0.00  0.   17.08 1.0000
   7   3   3     22.37   0.00          0.00  1.  0.00  0.   11.82 1.0000
   7   3   3      6.66   0.00          0.00  1.  0.00  0.    8.20 1.0000
   7   3   8    190.99   0.00          0.00  1.  0.00  0.   22.39 1.0000
   7   3   9    515.29   0.00          0.00  1.  0.00  0.   36.77 1.0000
   7   3  10     32.95   0.00          0.00  1.  0.00  0.   13.32 1.0000
   7   3  10     -6.30   0.00          0.00  1.  0.00  0.   13.65 1.0000
   7   3  11    107.74   0.00          0.00  1.  0.00  0.   19.72 1.0000
   7   3  12     67.73   0.00          0.00  1.  0.00  0.   18.44 1.0000
   7   4  -5      6.71   0.00          0.00  1.  0.00  0.   18.34 1.0000
   7   4  -5     46.79   0.00          0.00  1.  0.00  0.   15.18 1.0000
   7   4  -4     54.17   0.00          0.00  1.  0.00  0.   16.93 1.0000
   7   4  -3      5.57   0.00          0.00  1.  0.00  0.   12.08 1.0000
   7   4  -1    292.75   0.00          0.00  1.  0.00  0.   25.67 1.0000
   7   4  -1    266.34   0.00          0.00  1.  0.00  0.   27.74 1.0000
   7   4   1     51.27   0.00          0.00  1.  0.00  0.    7.16 1.0000
   7   4   1     60.68   0.00          0.00  1.  0.00  0.   14.02 1.0000
   7   4   8     63.84   0.00          0.00  1.  0.00  0.   14.86 1.0000
   7   4   9    183.87   0.00          0.00  1.  0.00  0.   21.42 1.0000
   7   4   9    144.24   0.00          0.00  1.  0.00  0.   21.38 1.0000
   7   4  10    381.81   0.00          0.00  1.  0.00  0.   31.26 1.0000
   7   4  11    314.71   0.00          0.00  1.  0.00  0.   29.45 1.0000
   7   5  -3    442.26   0.00          0.00  1.  0.00  0.   38.70 1.0000
   7   5  -2    334.16   0.00          0.00  1.  0.00  0.   28.88 1.0000
   7   5  -2    381.42   0.00          0.00  1.  0.00  0.   32.81 1.0000
   7   5  -1    295.84   0.00          0.00  1.  0.00  0.   30.27 1.0000
   7   5  -1    277.56   0.00          0.00  1.  0.00  0.   25.99 1.0000
   7   5   0    158.26   0.00          0.00  1.  0.00  0.   19.37 1.0000
   7   5   0    121.00   0.00          0.00  1.  0.00  0.   21.12 1.0000
   7   5   1    144.72   0.00          0.00  1.  0.00  0.   20.45 1.0000
   7   5   1    165.64   0.00          0.00  1.  0.00  0.   18.53 1.0000
   7   5   3    156.75   0.00          0.00  1.  0.00  0.   18.28 1.0000
   7   5   3    148.11   0.00          0.00  1.  0.00  0.   15.09 1.0000
   7   5   4    264.39   0.00          0.00  1.  0.00  0.   23.41 1.0000
   7   5   5    179.83   0.00          0.00  1.  0.00  0.   19.31 1.0000
   7   5   9     49.00   0.00          0.00  1.  0.00  0.   12.18 1.0000
   7   6  -1     47.33   0.00          0.00  1.  0.00  0.   18.71 1.0000
   7   6   0    112.57   0.00          0.00  1.  0.00  0.   21.64 1.0000
   7   6   1    183.33   0.00          0.00  1.  0.00  0.   22.48 1.0000
   7   6   2     54.32   0.00          0.00  1.  0.00  0.   14.89 1.0000
   7   7   3      2.99   0.00          0.00  1.  0.00  0.   17.23 1.0000
   8  -5  -2    885.66   0.00          0.00  1.  0.00  0.   55.95 1.0000
   8  -5  -1     45.70   0.00          0.00  1.  0.00  0.   17.17 1.0000
   8  -5   0    174.50   0.00          0.00  1.  0.00  0.   20.87 1.0000
   8  -5   0    166.41   0.00          0.00  1.  0.00  0.   19.87 1.0000
   8  -5   2     53.88   0.00          0.00  1.  0.00  0.   17.47 1.0000
   8  -5   2     70.90   0.00          0.00  1.  0.00  0.   16.84 1.0000
   8  -5   5     80.10   0.00          0.00  1.  0.00  0.   15.39 1.0000
   8  -4  -4     71.23   0.00          0.00  1.  0.00  0.   19.24 1.0000
   8  -4  -3    165.89   0.00          0.00  1.  0.00  0.   23.96 1.0000
   8  -4   0    106.71   0.00          0.00  1.  0.00  0.   19.83 1.0000
   8  -4   1    101.20   0.00          0.00  1.  0.00  0.   18.71 1.0000
   8  -4   1    117.94   0.00          0.00  1.  0.00  0.   16.72 1.0000
   8  -4   1    111.94   0.00          0.00  1.  0.00  0.   19.04 1.0000
   8  -4   3     83.17   0.00          0.00  1.  0.00  0.   16.23 1.0000
   8  -4   3     73.79   0.00          0.00  1.  0.00  0.   14.77 1.0000
   8  -4   3     63.20   0.00          0.00  1.  0.00  0.   17.97 1.0000
   8  -4   7    306.95   0.00          0.00  1.  0.00  0.   31.54 1.0000
   8  -4   7    296.53   0.00          0.00  1.  0.00  0.   29.62 1.0000
   8  -3  -5     20.34   0.00          0.00  1.  0.00  0.   17.68 1.0000
   8  -3   1    274.90   0.00          0.00  1.  0.00  0.   27.19 1.0000
   8  -3   1    261.79   0.00          0.00  1.  0.00  0.   26.21 1.0000
   8  -3   1    310.46   0.00          0.00  1.  0.00  0.   24.67 1.0000
   8  -3   3    312.94   0.00          0.00  1.  0.00  0.   27.24 1.0000
   8  -3   3    340.77   0.00          0.00  1.  0.00  0.   29.17 1.0000
   8  -3   3    308.70   0.00          0.00  1.  0.00  0.   29.17 1.0000
   8  -3   5      7.90   0.00          0.00  1.  0.00  0.   10.73 1.0000
   8  -3   5      5.11   0.00          0.00  1.  0.00  0.   14.33 1.0000
   8  -3   5     -6.76   0.00          0.00  1.  0.00  0.   13.42 1.0000
   8  -3   5     -7.73   0.00          0.00  1.  0.00  0.    9.17 1.0000
   8  -3   8     44.62   0.00          0.00  1.  0.00  0.   17.90 1.0000
   8  -2  -5      8.82   0.00          0.00  1.  0.00  0.   15.80 1.0000
   8  -2  -5     16.65   0.00          0.00  1.  0.00  0.   11.75 1.0000
   8  -2  -1    200.79   0.00          0.00  1.  0.00  0.   18.70 1.0000
   8  -2  -1    181.17   0.00          0.00  1.  0.00  0.   23.42 1.0000
   8  -2  -1    148.60   0.00          0.00  1.  0.00  0.   20.48 1.0000
   8  -2   0     28.52   0.00          0.00  1.  0.00  0.   12.18 1.0000
   8  -2   0     53.14   0.00          0.00  1.  0.00  0.   15.60 1.0000
   8  -2   0     46.10   0.00          0.00  1.  0.00  0.    8.96 1.0000
   8  -2   1     57.46   0.00          0.00  1.  0.00  0.   14.86 1.0000
   8  -2   1     27.77   0.00          0.00  1.  0.00  0.   13.70 1.0000
   8  -2   2    129.96   0.00          0.00  1.  0.00  0.   15.05 1.0000
   8  -2   2    128.82   0.00          0.00  1.  0.00  0.   19.98 1.0000
   8  -2   2    118.59   0.00          0.00  1.  0.00  0.   20.47 1.0000
   8  -2   3    686.44   0.00          0.00  1.  0.00  0.   42.97 1.0000
   8  -2   3    671.85   0.00          0.00  1.  0.00  0.   43.55 1.0000
   8  -2   3    596.34   0.00          0.00  1.  0.00  0.   42.98 1.0000
   8  -1  -6    122.99   0.00          0.00  1.  0.00  0.   16.64 1.0000
   8  -1  -6    116.86   0.00          0.00  1.  0.00  0.   22.92 1.0000
   8  -1  -1    224.10   0.00          0.00  1.  0.00  0.   22.16 1.0000
   8  -1  -1    221.71   0.00          0.00  1.  0.00  0.   24.12 1.0000
   8  -1   0    139.95   0.00          0.00  1.  0.00  0.   12.07 1.0000
   8  -1   0    155.25   0.00          0.00  1.  0.00  0.   19.44 1.0000
   8  -1   1     52.56   0.00          0.00  1.  0.00  0.    8.55 1.0000
   8  -1   1     58.52   0.00          0.00  1.  0.00  0.   16.06 1.0000
   8  -1   1     57.15   0.00          0.00  1.  0.00  0.   15.42 1.0000
   8  -1   2    168.48   0.00          0.00  1.  0.00  0.   21.81 1.0000
   8  -1   2    177.69   0.00          0.00  1.  0.00  0.   15.73 1.0000
   8  -1   2    160.78   0.00          0.00  1.  0.00  0.   21.30 1.0000
   8  -1   4    249.96   0.00          0.00  1.  0.00  0.   26.56 1.0000
   8  -1   4    263.09   0.00          0.00  1.  0.00  0.   24.01 1.0000
   8  -1   5    170.30   0.00          0.00  1.  0.00  0.   20.62 1.0000
   8  -1   8     56.25   0.00          0.00  1.  0.00  0.   17.70 1.0000
   8  -1  10    202.78   0.00          0.00  1.  0.00  0.   25.63 1.0000
   8   0  -5     57.15   0.00          0.00  1.  0.00  0.   15.12 1.0000
   8   0  -5     51.55   0.00          0.00  1.  0.00  0.   16.08 1.0000
   8   0  -4     -4.62   0.00          0.00  1.  0.00  0.   14.36 1.0000
   8   0  -4     12.04   0.00          0.00  1.  0.00  0.   12.91 1.0000
   8   0  -3      3.72   0.00          0.00  1.  0.00  0.   12.39 1.0000
   8   0  -3      8.12   0.00          0.00  1.  0.00  0.   14.71 1.0000
   8   0  -2    273.24   0.00          0.00  1.  0.00  0.   25.46 1.0000
   8   0  -2    275.56   0.00          0.00  1.  0.00  0.   27.56 1.0000
   8   0  -1    260.18   0.00          0.00  1.  0.00  0.   27.10 1.0000
   8   0  -1    273.90   0.00          0.00  1.  0.00  0.   25.16 1.0000
   8   0   0    133.86   0.00          0.00  1.  0.00  0.   20.83 1.0000
   8   0   1     30.80   0.00          0.00  1.  0.00  0.   14.65 1.0000
   8   0   1     32.95   0.00          0.00  1.  0.00  0.    6.31 1.0000
   8   0   2    182.25   0.00          0.00  1.  0.00  0.   21.06 1.0000
   8   0   3    466.99   0.00          0.00  1.  0.00  0.   35.87 1.0000
   8   0   4    896.40   0.00          0.00  1.  0.00  0.   56.29 1.0000
   8   0   5    746.93   0.00          0.00  1.  0.00  0.   48.10 1.0000
   8   0   6    252.81   0.00          0.00  1.  0.00  0.   25.44 1.0000
   8   0   7    252.81   0.00          0.00  1.  0.00  0.   27.35 1.0000
   8   0   8    305.20   0.00          0.00  1.  0.00  0.   29.70 1.0000
   8   0   9    264.71   0.00          0.00  1.  0.00  0.   28.96 1.0000
   8   0  10    239.32   0.00          0.00  1.  0.00  0.   28.77 1.0000
   8   0  11     57.00   0.00          0.00  1.  0.00  0.   19.63 1.0000
   8   1  -5     98.01   0.00          0.00  1.  0.00  0.   19.80 1.0000
   8   1  -5     97.42   0.00          0.00  1.  0.00  0.   18.16 1.0000
   8   1  -4    102.01   0.00          0.00  1.  0.00  0.   18.99 1.0000
   8   1  -4    114.28   0.00          0.00  1.  0.00  0.   19.88 1.0000
   8   1  -2    216.38   0.00          0.00  1.  0.00  0.   25.30 1.0000
   8   1  -2    261.15   0.00          0.00  1.  0.00  0.   25.53 1.0000
   8   1  -1    263.09   0.00          0.00  1.  0.00  0.   24.65 1.0000
   8   1   1     95.45   0.00          0.00  1.  0.00  0.   17.78 1.0000
   8   1   2    147.14   0.00          0.00  1.  0.00  0.   20.86 1.0000
   8   1   3    203.63   0.00          0.00  1.  0.00  0.   21.12 1.0000
   8   1   5    234.09   0.00          0.00  1.  0.00  0.   22.64 1.0000
   8   1   6    161.80   0.00          0.00  1.  0.00  0.   21.37 1.0000
   8   1   7    127.92   0.00          0.00  1.  0.00  0.   18.55 1.0000
   8   1   9     87.98   0.00          0.00  1.  0.00  0.   16.51 1.0000
   8   1  11     69.22   0.00          0.00  1.  0.00  0.   20.30 1.0000
   8   2  -4    206.50   0.00          0.00  1.  0.00  0.   25.29 1.0000
   8   2  -4    235.32   0.00          0.00  1.  0.00  0.   26.69 1.0000
   8   2  -3     69.89   0.00          0.00  1.  0.00  0.   17.72 1.0000
   8   2  -3     55.95   0.00          0.00  1.  0.00  0.   16.90 1.0000
   8   2  -2    207.36   0.00          0.00  1.  0.00  0.   24.48 1.0000
   8   2  -2    265.04   0.00          0.00  1.  0.00  0.   27.02 1.0000
   8   2  -1    159.77   0.00          0.00  1.  0.00  0.   22.25 1.0000
   8   2  -1    162.31   0.00          0.00  1.  0.00  0.   22.17 1.0000
   8   2   0     12.25   0.00          0.00  1.  0.00  0.   10.43 1.0000
   8   2   1     33.87   0.00          0.00  1.  0.00  0.   14.20 1.0000
   8   2   4    356.45   0.00          0.00  1.  0.00  0.   30.59 1.0000
   8   2   6    140.90   0.00          0.00  1.  0.00  0.   20.65 1.0000
   8   2   7     54.76   0.00          0.00  1.  0.00  0.   16.28 1.0000
   8   2   9    108.37   0.00          0.00  1.  0.00  0.   17.49 1.0000
   8   2  10    331.60   0.00          0.00  1.  0.00  0.   31.69 1.0000
   8   2  11    157.00   0.00          0.00  1.  0.00  0.   25.31 1.0000
   8   3  -4     11.36   0.00          0.00  1.  0.00  0.   11.26 1.0000
   8   3  -4     26.11   0.00          0.00  1.  0.00  0.   13.80 1.0000
   8   3  -3     37.82   0.00          0.00  1.  0.00  0.   18.57 1.0000
   8   3  -3     87.24   0.00          0.00  1.  0.00  0.   19.05 1.0000
   8   3  -2    284.93   0.00          0.00  1.  0.00  0.   27.68 1.0000
   8   3  -2    249.64   0.00          0.00  1.  0.00  0.   24.33 1.0000
   8   3   0    302.41   0.00          0.00  1.  0.00  0.   28.52 1.0000
   8   3   0    269.62   0.00          0.00  1.  0.00  0.   28.57 1.0000
   8   3   5    -10.11   0.00          0.00  1.  0.00  0.   12.91 1.0000
   8   3   6    206.50   0.00          0.00  1.  0.00  0.   21.84 1.0000
   8   3   8     84.46   0.00          0.00  1.  0.00  0.   16.36 1.0000
   8   3  10    391.64   0.00          0.00  1.  0.00  0.   34.83 1.0000
   8   4   4    143.76   0.00          0.00  1.  0.00  0.   18.46 1.0000
   8   4   8    174.24   0.00          0.00  1.  0.00  0.   20.86 1.0000
   8   4   9    131.33   0.00          0.00  1.  0.00  0.   21.54 1.0000
   8   5   0    159.26   0.00          0.00  1.  0.00  0.   24.23 1.0000
   8   5   1    436.39   0.00          0.00  1.  0.00  0.   35.93 1.0000
   8   5   4     60.68   0.00          0.00  1.  0.00  0.   15.74 1.0000
   9  -3  -1     59.60   0.00          0.00  1.  0.00  0.   19.30 1.0000
   9  -3   1     13.40   0.00          0.00  1.  0.00  0.   16.62 1.0000
   9  -3   2    162.82   0.00          0.00  1.  0.00  0.   23.22 1.0000
   9  -3   2    152.03   0.00          0.00  1.  0.00  0.   18.25 1.0000
   9  -3   3     78.32   0.00          0.00  1.  0.00  0.   19.82 1.0000
   9  -3   3    103.84   0.00          0.00  1.  0.00  0.   16.71 1.0000
   9  -3   4     91.01   0.00          0.00  1.  0.00  0.   19.84 1.0000
   9  -3   4    109.62   0.00          0.00  1.  0.00  0.   18.01 1.0000
   9  -3   5    170.04   0.00          0.00  1.  0.00  0.   22.17 1.0000
   9  -3   5    140.42   0.00          0.00  1.  0.00  0.   20.62 1.0000
   9  -3   6    131.56   0.00          0.00  1.  0.00  0.   23.63 1.0000
   9  -3   6    187.14   0.00          0.00  1.  0.00  0.   24.35 1.0000
   9  -2  -2    305.90   0.00          0.00  1.  0.00  0.   33.23 1.0000
   9  -2  -2    324.36   0.00          0.00  1.  0.00  0.   26.65 1.0000
   9  -2   0    187.42   0.00          0.00  1.  0.00  0.   24.92 1.0000
   9  -2   0    162.82   0.00          0.00  1.  0.00  0.   18.37 1.0000
   9  -2   2    305.90   0.00          0.00  1.  0.00  0.   24.49 1.0000
   9  -2   2    334.52   0.00          0.00  1.  0.00  0.   31.46 1.0000
   9  -2   3     64.00   0.00          0.00  1.  0.00  0.   19.04 1.0000
   9  -2   4    247.12   0.00          0.00  1.  0.00  0.   28.92 1.0000
   9  -2   4    253.76   0.00          0.00  1.  0.00  0.   24.85 1.0000
   9  -2   5    139.00   0.00          0.00  1.  0.00  0.   19.34 1.0000
   9  -2   5    120.34   0.00          0.00  1.  0.00  0.   19.09 1.0000
   9  -2   7     15.21   0.00          0.00  1.  0.00  0.   17.47 1.0000
   9  -1  -3      0.42   0.00          0.00  1.  0.00  0.   16.29 1.0000
   9  -1  -3     -2.19   0.00          0.00  1.  0.00  0.    8.52 1.0000
   9  -1  -2     10.89   0.00          0.00  1.  0.00  0.   13.73 1.0000
   9  -1   0    112.57   0.00          0.00  1.  0.00  0.   21.22 1.0000
   9  -1   2     68.56   0.00          0.00  1.  0.00  0.   18.38 1.0000
   9  -1   3    342.25   0.00          0.00  1.  0.00  0.   31.08 1.0000
   9  -1   3    321.13   0.00          0.00  1.  0.00  0.   24.73 1.0000
   9  -1   4     -9.24   0.00          0.00  1.  0.00  0.   15.56 1.0000
   9  -1   5     94.28   0.00          0.00  1.  0.00  0.   17.09 1.0000
   9  -1   6    116.86   0.00          0.00  1.  0.00  0.   22.05 1.0000
   9   0  -3    152.52   0.00          0.00  1.  0.00  0.   21.74 1.0000
   9   0  -3    142.09   0.00          0.00  1.  0.00  0.   20.98 1.0000
   9   0  -2    121.00   0.00          0.00  1.  0.00  0.   19.80 1.0000
   9   0  -2    139.95   0.00          0.00  1.  0.00  0.   22.95 1.0000
   9   0  -1    211.12   0.00          0.00  1.  0.00  0.   22.67 1.0000
   9   0  -1    221.41   0.00          0.00  1.  0.00  0.   25.00 1.0000
   9   0   0    226.20   0.00          0.00  1.  0.00  0.   24.06 1.0000
   9   0   0    219.34   0.00          0.00  1.  0.00  0.   26.07 1.0000
   9   0   1    101.20   0.00          0.00  1.  0.00  0.   19.72 1.0000
   9   0   2     24.11   0.00          0.00  1.  0.00  0.   16.20 1.0000
   9   0   3    216.09   0.00          0.00  1.  0.00  0.   18.52 1.0000
   9   0   3    210.83   0.00          0.00  1.  0.00  0.   23.52 1.0000
   9   0   4     34.22   0.00          0.00  1.  0.00  0.   15.80 1.0000
   9   0   5    202.78   0.00          0.00  1.  0.00  0.   25.06 1.0000
   9   0   6     96.83   0.00          0.00  1.  0.00  0.   19.88 1.0000
   9   0   7    113.00   0.00          0.00  1.  0.00  0.   18.92 1.0000
   9   0   8    344.84   0.00          0.00  1.  0.00  0.   33.80 1.0000
   9   1  -2     53.44   0.00          0.00  1.  0.00  0.   16.23 1.0000
   9   1  -2      9.42   0.00          0.00  1.  0.00  0.   16.89 1.0000
   9   1   0    140.66   0.00          0.00  1.  0.00  0.   22.30 1.0000
   9   1   2     70.06   0.00          0.00  1.  0.00  0.   18.25 1.0000
   9   1   5     53.44   0.00          0.00  1.  0.00  0.   16.37 1.0000
   9   1   7     96.24   0.00          0.00  1.  0.00  0.   20.80 1.0000
   9   1   9    333.79   0.00          0.00  1.  0.00  0.   33.62 1.0000
   9   2  -1    177.16   0.00          0.00  1.  0.00  0.   22.63 1.0000
   9   2  -1    177.96   0.00          0.00  1.  0.00  0.   22.68 1.0000
   9   2   3     57.61   0.00          0.00  1.  0.00  0.   16.39 1.0000
   9   2   7     31.02   0.00          0.00  1.  0.00  0.   17.16 1.0000
   9   2   8    108.16   0.00          0.00  1.  0.00  0.   18.30 1.0000
   9   3   0    282.91   0.00          0.00  1.  0.00  0.   28.93 1.0000
   9   3   0    302.06   0.00          0.00  1.  0.00  0.   30.94 1.0000
   9   3   1     18.23   0.00          0.00  1.  0.00  0.   13.75 1.0000
   9   3   1     21.34   0.00          0.00  1.  0.00  0.   17.19 1.0000
   9   3   3     41.99   0.00          0.00  1.  0.00  0.   15.81 1.0000
   9   3   4    135.49   0.00          0.00  1.  0.00  0.   20.95 1.0000
   9   4   2     36.24   0.00          0.00  1.  0.00  0.   12.64 1.0000
   9   4   3    128.82   0.00          0.00  1.  0.00  0.   18.39 1.0000
   9   4   4    109.62   0.00          0.00  1.  0.00  0.   20.10 1.0000
   9   4   5     75.69   0.00          0.00  1.  0.00  0.   18.27 1.0000
-512
#   6230 reflections output
;
loop_
_symmetry_equiv_pos_as_xyz
x,y,z
-x,-y,-z
loop_
_atom_site_label
_atom_site_type_symbol
_atom_site_fract_x
_atom_site_fract_y
_atom_site_fract_z
_atom_site_U_iso_or_equiv
_atom_site_occupancy
_atom_site_adp_type
_atom_site_refinement_flags_posn
_atom_site_refinement_flags_adp
_atom_site_refinement_flags_occupancy
_atom_site_disorder_assembly
_atom_site_disorder_group
_atom_site_attached_hydrogens
Cu1 Cu 0.5000 0.5000 1.0000 0.0186 1.0000 Uani S . . . . .
O1 O 0.4784(2) 0.5463(2) 0.83178(14) 0.0235 1.0000 Uani . . . . . .
O2 O 0.1918(3) 0.4683(3) 0.84459(16) 0.0313 1.0000 Uani . . . . . .
O3 O 0.2011(2) 0.3477(2) 1.06913(16) 0.0230 1.0000 Uani D . . . . .
O4 O 0.0473(3) 0.5461(3) 0.66389(17) 0.0293 1.0000 Uani D . . . . .
N1 N 0.3553(3) 0.7171(3) 1.03032(16) 0.0179 1.0000 Uani . . . . . .
C1 C 0.3407(3) 0.5390(3) 0.7875(2) 0.0210 1.0000 Uani . . . . . .
C2 C 0.3571(3) 0.6214(3) 0.6599(2) 0.0198 1.0000 Uani . . . . . .
C3 C 0.2098(3) 0.6196(4) 0.6046(2) 0.0229 1.0000 Uani . . . . . .
C4 C 0.2300(4) 0.6947(4) 0.4845(2) 0.0286 1.0000 Uani . . . . . .
C5 C 0.3927(4) 0.7708(4) 0.4210(2) 0.0288 1.0000 Uani . . . . . .
C6 C 0.5412(3) 0.7750(4) 0.4730(2) 0.0247 1.0000 Uani . . . . . .
C7 C 0.5211(3) 0.6987(3) 0.5922(2) 0.0220 1.0000 Uani . . . . . .
C8 C 0.7193(4) 0.8564(4) 0.4009(2) 0.0323 1.0000 Uani . . . . . .
C9 C 0.3644(3) 0.8648(3) 0.9476(2) 0.0191 1.0000 Uani . . . . . .
C10 C 0.2806(3) 1.0195(3) 0.9728(2) 0.0208 1.0000 Uani . . . . . .
C11 C 0.1813(3) 0.0251(3) 1.0881(2) 0.0193 1.0000 Uani . . . . . .
C12 C 0.1659(3) 0.8705(3) 1.1711(2) 0.0225 1.0000 Uani . . . . . .
C13 C 0.2532(3) 0.7200(3) 1.1400(2) 0.0203 1.0000 Uani . . . . . .
C14 C 0.0976(4) 0.1944(3) 1.1245(2) 0.0274 1.0000 Uani . . . . . .
H31 H 0.172(5) 0.380(5) 1.005(2) 0.034(2) 1.0000 Uiso D . . . . .
H41 H 0.061(5) 0.506(6) 0.731(2) 0.045(2) 1.0000 Uiso D . . . . .
H42 H 0.1319 0.6932 0.4461 0.0340 1.0000 Uiso R . . . . .
H51 H 0.4038 0.8222 0.3392 0.0350 1.0000 Uiso R . . . . .
H71 H 0.6209 0.6987 0.6294 0.0270 1.0000 Uiso R . . . . .
H81 H 0.8093 0.8400 0.4506 0.0490 1.0000 Uiso R . . . . .
H82 H 0.7052 0.9835 0.3746 0.0490 1.0000 Uiso R . . . . .
H83 H 0.7584 0.7979 0.3306 0.0490 1.0000 Uiso R . . . . .
H91 H 0.4313 0.8622 0.8687 0.0230 1.0000 Uiso R . . . . .
H101 H 0.2903 1.1213 0.9120 0.0250 1.0000 Uiso R . . . . .
H121 H 0.0951 0.8678 1.2495 0.0270 1.0000 Uiso R . . . . .
H131 H 0.2411 0.6151 1.1984 0.0240 1.0000 Uiso R . . . . .
H141 H -0.0223 0.2056 1.1040 0.0330 1.0000 Uiso R . . . . .
H142 H 0.0801 0.1856 1.2124 0.0330 1.0000 Uiso R . . . . .
loop_
_atom_site_aniso_label
_atom_site_aniso_U_11
_atom_site_aniso_U_22
_atom_site_aniso_U_33
_atom_site_aniso_U_23
_atom_site_aniso_U_13
_atom_site_aniso_U_12
Cu1 0.0224(2) 0.0180(2) 0.0170(2) -0.00408(15) -0.00695(15) 0.00624(16)
O1 0.0247(8) 0.0286(10) 0.0186(8) -0.0042(7) -0.0082(6) 0.0089(8)
O2 0.0295(10) 0.0368(11) 0.0247(9) 0.0053(8) -0.0068(7) -0.0030(9)
O3 0.0252(9) 0.0172(9) 0.0269(9) -0.0021(7) -0.0073(7) -0.0017(7)
O4 0.0235(9) 0.0385(12) 0.0259(9) -0.0011(8) -0.0078(7) -0.0043(8)
N1 0.0161(9) 0.0186(10) 0.0189(9) -0.0028(7) -0.0037(7) 0.0018(7)
C1 0.0260(12) 0.0163(11) 0.0212(11) -0.0038(9) -0.0062(9) 0.0060(9)
C2 0.0233(11) 0.0182(11) 0.0189(10) -0.0041(8) -0.0060(9) 0.0042(9)
C3 0.0232(11) 0.0239(13) 0.0221(11) -0.0048(9) -0.0055(9) 0.0015(10)
C4 0.0293(13) 0.0364(15) 0.0234(11) -0.0045(11) -0.0134(10) 0.0032(11)
C5 0.0342(14) 0.0339(15) 0.0174(11) -0.0002(10) -0.0063(10) 0.0020(12)
C6 0.0256(12) 0.0244(13) 0.0234(12) -0.0040(10) -0.0035(9) 0.0037(10)
C7 0.0221(11) 0.0230(12) 0.0222(11) -0.0055(9) -0.0062(9) 0.0032(9)
C8 0.0278(13) 0.0374(16) 0.0271(12) -0.0023(11) 0.0019(10) -0.0007(12)
C9 0.0192(10) 0.0204(11) 0.0174(10) -0.0024(8) -0.0039(8) 0.0003(9)
C10 0.0231(11) 0.0174(11) 0.0207(11) -0.0001(9) -0.0043(9) 0.0001(9)
C11 0.0139(10) 0.0187(12) 0.0247(11) -0.0042(9) -0.0021(8) -0.0007(9)
C12 0.0196(11) 0.0243(13) 0.0216(11) -0.0037(9) 0.0001(9) 0.0017(9)
C13 0.0204(10) 0.0194(11) 0.0193(10) 0.0006(8) -0.0036(8) 0.0006(9)
C14 0.0280(12) 0.0167(12) 0.0319(13) -0.0037(10) 0.0055(10) 0.0000(10)
loop_
_atom_type_symbol
_atom_type_scat_dispersion_real
_atom_type_scat_dispersion_imag
_atom_type_scat_Cromer_Mann_a1
_atom_type_scat_Cromer_Mann_b1
_atom_type_scat_Cromer_Mann_a2
_atom_type_scat_Cromer_Mann_b2
_atom_type_scat_Cromer_Mann_a3
_atom_type_scat_Cromer_Mann_b3
_atom_type_scat_Cromer_Mann_a4
_atom_type_scat_Cromer_Mann_b4
_atom_type_scat_Cromer_Mann_c
_atom_type_scat_source
C 0.0033 0.0016 2.3100 20.8439 1.0200 10.2075 1.5886 0.5687 0.8650 51.6512
0.2156 'International Tables Vol C 4.2.6.8 and 6.1.1.4'
H 0.0000 0.0000 0.4930 10.5109 0.3229 26.1257 0.1402 3.1424 0.0408 57.7998
0.0030 'International Tables Vol C 4.2.6.8 and 6.1.1.4'
N 0.0061 0.0033 12.2126 0.0057 3.1322 9.8933 2.0125 28.9975 1.1663 0.5826
-11.5290 'International Tables Vol C 4.2.6.8 and 6.1.1.4'
O 0.0106 0.0060 3.0485 13.2771 2.2868 5.7011 1.5463 0.3239 0.8670 32.9089
0.2508 'International Tables Vol C 4.2.6.8 and 6.1.1.4'
Cu 0.3201 1.2651 13.3380 3.5828 7.1676 0.2470 5.6158 11.3966 1.6735 64.8126
1.1910 'International Tables Vol C 4.2.6.8 and 6.1.1.4'
loop_
_geom_angle_atom_site_label_1
_geom_angle_site_symmetry_1
_geom_angle_atom_site_label_2
_geom_angle_site_symmetry_2
_geom_angle_atom_site_label_3
_geom_angle_site_symmetry_3
_geom_angle
_geom_angle_publ_flag
O3 2_667 Cu1 . N1 2_667 82.81(7) yes
O3 2_667 Cu1 . O1 2_667 93.14(7) yes
N1 2_667 Cu1 . O1 2_667 89.78(7) yes
O3 2_667 Cu1 . O1 . 86.86(7) yes
N1 2_667 Cu1 . O1 . 90.22(7) yes
O1 2_667 Cu1 . O1 . 179.99 yes
O3 2_667 Cu1 . O3 . 180.00 yes
N1 2_667 Cu1 . O3 . 97.19(7) yes
O1 2_667 Cu1 . O3 . 86.86(7) yes
O1 . Cu1 . O3 . 93.14(7) yes
O3 2_667 Cu1 . N1 . 97.19(7) yes
N1 2_667 Cu1 . N1 . 179.99 yes
O1 2_667 Cu1 . N1 . 90.22(7) yes
O1 . Cu1 . N1 . 89.78(7) yes
O3 . Cu1 . N1 . 82.81(7) yes
Cu1 . O1 . C1 . 129.71(16) yes
Cu1 . O3 . C14 . 149.29(15) yes
Cu1 . O3 . H31 . 93(3) no
C14 . O3 . H31 . 107(3) no
C3 . O4 . H41 . 105(3) no
Cu1 . N1 . C9 . 122.98(15) yes
Cu1 . N1 . C13 . 118.96(16) yes
C9 . N1 . C13 . 117.9(2) yes
O1 . C1 . O2 . 124.4(2) yes
O1 . C1 . C2 . 117.2(2) yes
O2 . C1 . C2 . 118.4(2) yes
C1 . C2 . C3 . 120.6(2) yes
C1 . C2 . C7 . 120.4(2) yes
C3 . C2 . C7 . 119.0(2) yes
C2 . C3 . O4 . 122.4(2) yes
C2 . C3 . C4 . 119.3(2) yes
O4 . C3 . C4 . 118.3(2) yes
C3 . C4 . C5 . 120.1(2) yes
C3 . C4 . H42 . 120.0 no
C5 . C4 . H42 . 119.8 no
C4 . C5 . C6 . 122.0(2) yes
C4 . C5 . H51 . 119.0 no
C6 . C5 . H51 . 119.0 no
C5 . C6 . C7 . 117.7(2) yes
C5 . C6 . C8 . 121.1(2) yes
C7 . C6 . C8 . 121.2(2) yes
C2 . C7 . C6 . 121.8(2) yes
C2 . C7 . H71 . 119.0 no
C6 . C7 . H71 . 119.2 no
C6 . C8 . H81 . 109.4 no
C6 . C8 . H82 . 109.4 no
H81 . C8 . H82 . 109.7 no
C6 . C8 . H83 . 109.3 no
H81 . C8 . H83 . 109.5 no
H82 . C8 . H83 . 109.5 no
N1 . C9 . C10 . 122.7(2) yes
N1 . C9 . H91 . 118.6 no
C10 . C9 . H91 . 118.7 no
C11 1_565 C10 . C9 . 119.3(2) yes
C11 1_565 C10 . H101 . 120.4 no
C9 . C10 . H101 . 120.3 no
C10 1_545 C11 . C12 1_545 117.6(2) yes
C10 1_545 C11 . C14 . 122.1(2) yes
C12 1_545 C11 . C14 . 120.3(2) yes
C11 1_565 C12 . C13 . 120.1(2) yes
C11 1_565 C12 . H121 . 120.0 no
C13 . C12 . H121 . 119.9 no
C12 . C13 . N1 . 122.2(2) yes
C12 . C13 . H131 . 118.8 no
N1 . C13 . H131 . 119.0 no
C11 . C14 . O3 . 113.48(19) yes
C11 . C14 . H141 . 108.8 no
O3 . C14 . H141 . 108.8 no
C11 . C14 . H142 . 108.9 no
O3 . C14 . H142 . 108.9 no
H141 . C14 . H142 . 107.9 no
loop_
_geom_bond_atom_site_label_1
_geom_bond_site_symmetry_1
_geom_bond_atom_site_label_2
_geom_bond_site_symmetry_2
_geom_bond_distance
_geom_bond_publ_flag
Cu1 . O3 2_667 2.4781(18) yes
Cu1 . N1 2_667 2.0143(19) yes
Cu1 . O1 2_667 1.9629(16) yes
Cu1 . O1 . 1.9629(16) yes
Cu1 . O3 . 2.4781(18) yes
Cu1 . N1 . 2.0143(19) yes
O1 . C1 . 1.267(3) yes
O2 . C1 . 1.260(3) yes
O3 . C14 . 1.400(3) yes
O3 . H31 . 0.817(18) no
O4 . C3 . 1.357(3) yes
O4 . H41 . 0.817(18) no
N1 . C9 . 1.346(3) yes
N1 . C13 . 1.343(3) yes
C1 . C2 . 1.488(3) yes
C2 . C3 . 1.406(3) yes
C2 . C7 . 1.402(3) yes
C3 . C4 . 1.390(4) yes
C4 . C5 . 1.378(4) yes
C4 . H42 . 0.948 no
C5 . C6 . 1.392(4) yes
C5 . H51 . 0.950 no
C6 . C7 . 1.383(3) yes
C6 . C8 . 1.512(4) yes
C7 . H71 . 0.949 no
C8 . H81 . 0.979 no
C8 . H82 . 0.979 no
C8 . H83 . 0.981 no
C9 . C10 . 1.378(3) yes
C9 . H91 . 0.949 no
C10 . C11 1_565 1.393(3) yes
C10 . H101 . 0.950 no
C11 . C12 1_545 1.382(4) yes
C11 . C14 . 1.514(3) yes
C12 . C13 . 1.380(4) yes
C12 . H121 . 0.948 no
C13 . H131 . 0.950 no
C14 . H141 . 0.990 no
C14 . H142 . 0.988 no
loop_
_geom_hbond_atom_site_label_D
_geom_hbond_site_symmetry_D
_geom_hbond_atom_site_label_H
_geom_hbond_site_symmetry_H
_geom_hbond_atom_site_label_A
_geom_hbond_site_symmetry_A
_geom_hbond_angle_DHA
_geom_hbond_distance_DH
_geom_hbond_distance_HA
_geom_hbond_distance_DA
_geom_hbond_publ_flag
O3 . H31 . O2 . 160(4) 0.817 1.844 2.627(4) yes
O4 . H41 . O2 . 152(4) 0.817 1.797 2.549(4) yes
O4 . H41 . C1 . 121(3) 0.817 2.384 2.893(4) yes
