#------------------------------------------------------------------------------
#$Date: 2021-07-13 12:41:13 +0300 (Tue, 13 Jul 2021) $
#$Revision: 267504 $
#$URL: file:///home/coder/svn-repositories/cod/cif/1/56/41/1564132.cif $
#------------------------------------------------------------------------------
#
# This file is available in the Crystallography Open Database (COD),
# http://www.crystallography.net/
#
# All data on this site have been placed in the public domain by the
# contributors.
#
data_1564132
loop_
_publ_author_name
'Saleh, Hatem A.M.'
'Mantasha, I.'
'Qasem, Khalil M.A.'
'Shahid, M.'
'Akhtar, Muhammad Nadeem'
'AlDamen, Murad A.'
'Ahmad, Musheer'
_publ_section_title
;
 A two dimensional Co(II) metal--organic framework with bey topology for
 excellent dye adsorption and separation: Exploring kinetics and mechanism
 of adsorption
;
_journal_name_full               'Inorganica Chimica Acta'
_journal_page_first              119900
_journal_paper_doi               10.1016/j.ica.2020.119900
_journal_volume                  512
_journal_year                    2020
_chemical_formula_moiety         'C6 H5 Cl Co N'
_chemical_formula_sum            'C6 H5 Cl Co N'
_chemical_formula_weight         185.50
_space_group_crystal_system      monoclinic
_space_group_IT_number           14
_space_group_name_Hall           '-P 2ybc'
_space_group_name_H-M_alt        'P 1 21/c 1'
_symmetry_Int_Tables_number      14
_atom_sites_solution_primary     iterative
_cell_angle_alpha                90
_cell_angle_beta                 95.551(2)
_cell_angle_gamma                90
_cell_formula_units_Z            4
_cell_length_a                   3.7418(2)
_cell_length_b                   15.0487(10)
_cell_length_c                   10.7259(7)
_cell_measurement_reflns_used    5614
_cell_measurement_temperature    100(2)
_cell_measurement_theta_max      28.30
_cell_measurement_theta_min      2.71
_cell_volume                     601.13(6)
_computing_cell_refinement       'SAINT V8.38A (?, 2016)'
_computing_data_reduction        'SAINT V8.38A (?, 2016)'
_computing_molecular_graphics    'Olex2 (Dolomanov et al., 2009)'
_computing_publication_material  'Olex2 (Dolomanov et al., 2009)'
_computing_structure_refinement  'olex2.refine (Bourhis et al., 2015)'
_computing_structure_solution    'olex2.solve (Bourhis et al., 2015)'
_diffrn_ambient_temperature      100(2)
_diffrn_measured_fraction_theta_full 0.9972
_diffrn_measured_fraction_theta_max 0.9972
_diffrn_measurement_device_type  'Bruker APEX-II CCD'
_diffrn_measurement_method       '\f and \w scans'
_diffrn_radiation_type           'Mo K\a'
_diffrn_radiation_wavelength     0.71073
_diffrn_reflns_av_R_equivalents  0.0449
_diffrn_reflns_av_unetI/netI     0.0299
_diffrn_reflns_limit_h_max       4
_diffrn_reflns_limit_h_min       -4
_diffrn_reflns_limit_k_max       20
_diffrn_reflns_limit_k_min       -20
_diffrn_reflns_limit_l_max       14
_diffrn_reflns_limit_l_min       -14
_diffrn_reflns_number            8986
_diffrn_reflns_theta_full        25.0477
_diffrn_reflns_theta_max         25.05
_diffrn_reflns_theta_min         3.31
_exptl_absorpt_coefficient_mu    3.181
_exptl_absorpt_correction_T_max  0.7457
_exptl_absorpt_correction_T_min  0.6355
_exptl_absorpt_correction_type   multi-scan
_exptl_absorpt_process_details
;
SADABS-2016/2 (Bruker,2016/2) was used for absorption correction.
wR2(int) was 0.1104 before and 0.0564 after correction.
The Ratio of minimum to maximum transmission is 0.8522.
The \l/2 correction factor is Not present.
;
_exptl_crystal_colour            red
_exptl_crystal_colour_primary    red
_exptl_crystal_density_diffrn    2.0495
_exptl_crystal_description       block
_exptl_crystal_F_000             370.0747
_exptl_crystal_size_max          0.46
_exptl_crystal_size_mid          0.28
_exptl_crystal_size_min          0.17
_refine_diff_density_max         0.5517
_refine_diff_density_min         -0.6360
_refine_diff_density_rms         0.1054
_refine_ls_d_res_high            0.8394
_refine_ls_d_res_low             6.1502
_refine_ls_goodness_of_fit_ref   1.0523
_refine_ls_hydrogen_treatment    mixed
_refine_ls_matrix_type           full
_refine_ls_number_constraints    10
_refine_ls_number_parameters     82
_refine_ls_number_reflns         1068
_refine_ls_number_restraints     0
_refine_ls_restrained_S_all      1.0523
_refine_ls_R_factor_all          0.0314
_refine_ls_R_factor_gt           0.0293
_refine_ls_shift/su_max          0.0000
_refine_ls_shift/su_mean         0.0000
_refine_ls_structure_factor_coef Fsqd
_refine_ls_weighting_details
'w=1/[\s^2^(Fo^2^)+(0.0299P)^2^+1.9534P] where P=(Fo^2^+2Fc^2^)/3'
_refine_ls_weighting_scheme      calc
_refine_ls_wR_factor_gt          0.0728
_refine_ls_wR_factor_ref         0.0744
_reflns_Friedel_coverage         0.0
_reflns_limit_h_max              4
_reflns_limit_h_min              -4
_reflns_limit_k_max              17
_reflns_limit_k_min              0
_reflns_limit_l_max              12
_reflns_limit_l_min              0
_reflns_number_gt                1004
_reflns_number_total             1068
_reflns_threshold_expression     I>=2u(I)
_iucr_refine_instructions_details
;
TITL HAM43_0m_a.res in P2(1)/c
REM Old TITL HAM43_0m in P2(1)/c
REM SHELXT solution in P2(1)/c
REM R1 0.237, Rweak 0.014, Alpha 0.017, Orientation as input
REM Formula found by SHELXT: C6 Cu N O
CELL 0.71073 3.7418 15.0487 10.7259 90 95.551 90
ZERR 4 0.0002 0.001 0.0007 0 0.002 0
LATT 1
SYMM -X,0.5+Y,0.5-Z
SFAC C H Cl Co N
UNIT 24 20 4 4 4

L.S. 10
PLAN  20
SIZE 0.46 0.28 0.17
TEMP -173(2)
BOND $H
LIST 6
FMAP 2
ACTA 
OMIT -3 50.1
OMIT 0 1 1
OMIT 0 2 0
WGHT 0.029878 1.953409
FVAR 0.879293
REM <olex2.extras>
REM <HklSrc "%.\\HAM43_0m_a.hkl">
REM </olex2.extras>

Co01  4     0.23245  0.43814  0.44086  11.00000  0.01763  0.00773  0.01511 =
 0.00324 -0.00003 -0.00195 
Cl00  3     0.69443  0.50016  0.34048  11.00000  0.01491  0.01771  0.01452 =
 0.00037  0.00027 -0.00110 
N003  5     0.18806  0.30813  0.47006  11.00000  0.01534  0.01456  0.01643 =
 0.00029  0.00300  0.00115 
C004  1     0.09111  0.02937  0.53698  11.00000  0.01527  0.01463  0.01407 =
 0.00085  0.00286  0.00212 
AFIX 43
H004  2     0.20794  0.00817  0.61383  11.00000 -1.20000 
AFIX 0
C005  1     0.12566  0.12370  0.50941  11.00000  0.01231  0.01607  0.01478 =
 -0.00042  0.00429  0.00094 
C006  1    -0.01863  0.16404  0.39824  11.00000  0.01530  0.01591  0.01460 =
 -0.00026  0.00121 -0.00109 
AFIX 43
H006  2    -0.13960  0.12937  0.33321  11.00000 -1.20000 
AFIX 0
C007  1     0.01621  0.25424  0.38398  11.00000  0.01540  0.01916  0.01266 =
 0.00075  0.00105  0.00022 
AFIX 43
H007  2    -0.08794  0.28028  0.30833  11.00000 -1.20000 
AFIX 0
C008  1     0.33127  0.26928  0.57624  11.00000  0.01533  0.01848  0.01450 =
 -0.00113  0.00056 -0.00041 
AFIX 43
H008  2     0.45544  0.30553  0.63873  11.00000 -1.20000 
AFIX 0
C009  1     0.30669  0.17928  0.59889  11.00000  0.01692  0.01659  0.01634 =
 0.00205  0.00194  0.00030 
AFIX 43
H009  2     0.41307  0.15507  0.67546  11.00000 -1.20000 
AFIX 0
HKLF 4

END
Q1 1 0.083333 0.433333 0.46875 11 0.05 0.55
Q2 1 0.166667 0.433333 0.375 11 0.05 0.42
Q3 1 -0.166667 0.222222 0.5625 11 0.05 0.31
Q4 1 0.666667 0.422222 0.34375 11 0.05 0.3
Q5 1 0.916667 0.455556 0.3125 11 0.05 0.27
Q6 1 0 0.344444 0.46875 11 0.05 0.27
Q7 1 0.5 0.222222 0.5625 11 0.05 0.27
Q8 1 -0.083333 0.155556 0.625 11 0.05 0.27
Q9 1 0.5 0.544444 0.40625 11 0.05 0.26
Q10 1 0.583333 0.122222 0.46875 11 0.05 0.25
Q11 1 0.583333 0.477778 0.4375 11 0.05 0.25
Q12 1 -0.416667 0.288889 0.4375 11 0.05 0.24
Q13 1 -0.166667 0.222222 0.4375 11 0.05 0.24
Q14 1 0.083333 0.388889 0.5625 11 0.05 0.24
Q15 1 0.75 0.588889 0.34375 11 0.05 0.24
Q16 1 -0.166667 0.166667 0.5 11 0.05 0.24
Q17 1 0 0.322222 0.59375 11 0.05 0.23
Q18 1 0.333333 0.177778 0.375 11 0.05 0.23
Q19 1 -0.25 0.077778 0.1875 11 0.05 0.23
Q20 1 0.166667 0.522222 0.5 11 0.05 0.22

  REM The information below was added by Olex2.
  REM
  REM R1 = 0.0293 for 1004 Fo > 4sig(Fo) and 0.0314 for all 1068 data
  REM 82 parameters refined using 0 restraints
  REM Highest difference peak 0.5517, deepest hole -0.6360
  REM Mean Shift 0.0000, Max Shift 0.0000.

  REM +++ Tabular Listing of Refinement Information +++
  REM R1_all = 0.0314
  REM R1_gt = 0.0293
  REM wR_ref = 0.0744
  REM GOOF = 1.0523
  REM Shift_max = 0.0000
  REM Shift_mean = 0.0000
  REM Reflections_all = 1068
  REM Reflections_gt = 1004
  REM Parameters = 82
  REM Hole = -0.6360
  REM Peak = 0.5517
  REM Flack = n/a

  
;
_cod_data_source_file            ICA-2020-512-119900.cif
_cod_data_source_block           HAM43_0m_a
_cod_original_cell_volume        601.13(7)
_cod_database_code               1564132
_olex2_refinement_description
;
1. Fixed Uiso
 At 1.2 times of:
  All C(H) groups
2.a Aromatic/amide H refined with riding coordinates:
 C004(H004), C006(H006), C007(H007), C008(H008), C009(H009)
;
_iucr_refine_fcf_details
;
data_HAM43_0m_a
_computing_structure_refinement   'olex2.refine (Bourhis et al., 2015)'
_shelx_refln_list_code            4
loop_
  _space_group_symop_id
  _space_group_symop_operation_xyz
  1  x,y,z
  2  -x,y+1/2,-z+1/2
  3  -x,-y,-z
  4  x,-y-1/2,z-1/2

_space_group_crystal_system       monoclinic
_space_group_IT_number            14
_space_group_name_H-M_alt         'P 1 21/c 1'
_space_group_name_Hall            '-P 2ybc'
_symmetry_space_group_name_H-M    'P 1 21/c 1'
_symmetry_space_group_name_Hall   '-P 2ybc'
_symmetry_Int_Tables_number       14
_cell_length_a                    3.7418(2)
_cell_length_b                    15.0487(10)
_cell_length_c                    10.7259(7)
_cell_angle_alpha                 90
_cell_angle_beta                  95.551(2)
_cell_angle_gamma                 90
_cell_volume                      601.13(7)
loop_
  _refln_index_h
  _refln_index_k
  _refln_index_l
  _refln_F_squared_calc
  _refln_F_squared_meas
  _refln_F_squared_sigma
  _refln_F_squared_weight
  _refln_observed_status
-4 0 2 2561.420 2491.040 64.256 0.918 o
-4 0 4 6.764 9.137 4.346 404.013 o
-4 0 6 74.843 78.036 14.921 36.197 o
-4 1 1 2583.810 2629.280 50.476 0.997 o
-4 1 2 152.089 175.532 13.530 26.268 o
-4 1 3 594.942 601.413 16.603 7.733 o
-4 1 4 62.579 65.182 5.150 88.365 o
-4 1 5 49.220 65.222 6.101 92.954 o
-4 1 6 1.914 4.742 3.325 817.978 o
-4 2 1 65.110 119.218 9.289 53.411 o
-4 2 2 902.418 895.178 22.627 4.548 o
-4 2 3 43.383 43.553 6.259 108.281 o
-4 2 4 61.529 79.147 6.155 78.414 o
-4 2 5 255.305 240.100 10.035 21.092 o
-4 2 6 30.177 31.410 5.223 154.925 o
-4 3 1 1230.170 1295.710 31.110 2.828 o
-4 3 2 31.471 37.741 5.364 142.781 o
-4 3 3 49.614 42.042 5.893 105.778 o
-4 3 4 845.554 845.080 21.153 4.974 o
-4 3 5 772.391 778.163 19.301 5.624 o
-4 3 6 1226.070 1149.340 26.329 3.148 o
-4 4 1 3.386 2.401 3.779 671.797 o
-4 4 2 358.100 352.152 13.676 13.669 o
-4 4 3 390.242 394.835 14.852 12.123 o
-4 4 4 89.851 110.325 8.479 50.590 o
-4 4 5 634.846 658.969 18.299 6.947 o
-4 5 1 2.712 3.694 4.824 465.872 o
-4 5 2 259.854 260.649 12.472 18.800 o
-4 5 3 118.075 113.453 8.929 42.608 o
-4 5 4 585.801 569.859 17.000 7.897 o
-4 5 5 171.163 226.322 16.021 20.656 o
-4 6 1 48.527 36.179 5.451 115.146 o
-4 6 2 13.035 9.427 4.441 316.864 o
-4 6 3 79.726 81.836 8.358 58.488 o
-4 6 4 422.507 435.166 14.710 11.227 o
-4 7 1 78.120 63.176 6.621 71.093 o
-4 7 2 0.421 0.174 4.030 805.584 o
-4 7 3 416.691 410.375 15.472 11.319 o
-3 0 2 23.939 17.498 3.716 239.673 o
-3 0 4 242.796 273.805 11.272 20.056 o
-3 0 6 2395.890 2525.580 57.729 1.015 o
-3 0 8 158.206 142.929 13.247 27.473 o
-3 0 10 0.795 3.092 4.965 491.312 o
-3 1 1 0.035 5.285 1.669 2169.370 o
-3 1 2 280.793 279.972 9.906 19.003 o
-3 1 3 27.030 35.907 3.783 184.717 o
-3 1 4 115.977 116.453 5.560 50.452 o
-3 1 5 3256.120 3381.630 46.276 0.744 o
-3 1 6 1.082 -2.532 1.926 2658.360 o
-3 1 7 847.502 862.429 19.193 5.075 o
-3 1 8 121.693 139.283 8.866 39.769 o
-3 1 9 443.239 482.023 13.918 10.714 o
-3 1 10 222.130 243.503 10.223 22.717 o
-3 2 1 1629.350 1673.080 32.165 2.044 o
-3 2 2 57.351 58.558 4.673 98.907 o
-3 2 3 1353.010 1398.310 26.849 2.688 o
-3 2 4 1895.290 1960.530 32.811 1.680 o
-3 2 5 284.313 296.065 9.614 18.657 o
-3 2 6 3932.610 3987.810 66.194 0.523 o
-3 2 7 57.664 75.888 6.130 82.147 o
-3 2 8 3.890 15.089 3.164 545.569 o
-3 2 9 287.341 275.840 13.739 16.717 o
-3 2 10 270.073 311.368 14.666 16.177 o
-3 3 1 108.206 108.824 6.431 51.638 o
-3 3 2 884.374 910.535 22.570 4.590 o
-3 3 3 308.938 301.567 10.887 16.994 o
-3 3 4 1.110 13.853 2.415 833.933 o
-3 3 5 389.810 425.292 13.359 12.297 o
-3 3 6 604.254 616.886 19.737 7.132 o
-3 3 7 115.003 151.749 12.597 32.279 o
-3 3 8 774.224 813.430 25.835 4.935 o
-3 3 9 250.116 299.005 12.468 18.415 o
-3 4 1 2403.160 2437.150 67.484 0.940 o
-3 4 2 313.736 310.475 11.230 16.518 o
-3 4 3 686.676 683.588 18.053 6.529 o
-3 4 4 6.423 10.251 2.395 653.610 o
-3 4 5 82.507 97.492 7.128 59.555 o
-3 4 6 784.144 806.778 23.393 5.131 o
-3 4 7 787.967 803.113 23.783 5.087 o
-3 4 8 28.911 23.919 6.946 133.290 o
-3 4 9 844.884 798.033 22.836 4.941 o
-3 5 1 100.191 110.914 8.532 47.748 o
-3 5 2 1141.100 1158.760 25.703 3.340 o
-3 5 3 1556.780 1515.050 32.917 2.188 o
-3 5 4 503.453 494.051 14.553 9.637 o
-3 5 5 1.749 6.636 2.564 1032.510 o
-3 5 6 8.646 19.361 9.807 113.276 o
-3 5 7 53.834 49.412 7.253 86.520 o
-3 5 8 693.267 681.413 21.476 6.099 o
-3 5 9 539.675 630.785 20.751 7.422 o
-3 6 1 1135.660 1169.380 26.068 3.325 o
-3 6 2 1082.170 1086.360 26.844 3.504 o
-3 6 3 718.354 735.821 20.375 5.924 o
-3 6 4 909.977 932.848 21.963 4.498 o
-3 6 5 73.516 84.452 9.931 53.452 o
-3 6 6 8.871 13.830 7.244 186.142 o
-3 6 7 143.186 163.825 14.845 25.510 o
-3 6 8 280.092 256.670 12.315 18.157 o
-3 6 9 586.740 575.125 23.120 6.888 o
-3 7 1 8.995 8.853 3.293 479.427 o
-3 7 2 494.242 509.075 16.401 9.282 o
-3 7 3 1930.130 1972.630 40.928 1.539 o
-3 7 4 44.989 38.252 4.485 129.349 o
-3 7 5 96.886 84.410 7.790 54.561 o
-3 7 6 22.168 24.586 4.347 211.893 o
-3 7 7 146.520 135.463 11.362 31.931 o
-3 7 8 0.697 -0.563 4.675 598.007 o
-3 8 1 17.241 16.671 3.845 281.565 o
-3 8 2 1093.220 1099.950 27.352 3.438 o
-3 8 3 31.573 30.777 4.903 158.150 o
-3 8 4 1439.140 1405.890 29.486 2.484 o
-3 8 5 2.983 2.370 3.355 815.639 o
-3 8 6 155.513 115.719 11.418 31.932 o
-3 8 7 1.710 22.231 5.493 290.029 o
-3 8 8 751.856 693.960 32.748 4.564 o
-3 9 1 211.499 209.459 10.573 24.167 o
-3 9 2 799.091 822.503 23.012 5.066 o
-3 9 3 1913.440 1906.710 53.301 1.384 o
-3 9 4 178.653 190.053 14.430 22.904 o
-3 9 5 685.405 634.882 20.668 6.385 o
-3 9 6 12.409 12.841 6.024 223.359 o
-3 9 7 377.790 353.002 19.339 11.179 o
-3 10 1 186.415 161.567 10.968 27.413 o
-3 10 2 1022.460 1080.990 27.887 3.599 o
-3 10 3 43.394 56.404 11.451 60.127 o
-3 10 4 509.305 513.753 15.793 9.197 o
-3 10 5 26.349 23.647 6.588 145.286 o
-3 10 6 6.011 23.285 7.386 175.270 o
-3 10 7 216.020 237.020 21.252 14.611 o
-3 11 1 120.478 137.336 9.735 38.316 o
-3 11 2 692.021 663.458 20.761 6.244 o
-3 11 3 635.527 647.286 21.745 6.523 o
-3 11 4 145.521 124.455 9.053 36.829 o
-3 11 5 64.399 68.436 9.842 59.404 o
-3 11 6 12.401 23.730 6.997 168.491 o
-3 12 1 930.015 897.299 25.768 4.236 o
-3 12 2 78.816 87.851 9.334 53.816 o
-3 12 3 431.557 400.387 21.173 9.524 o
-3 12 4 111.010 118.506 13.397 32.984 o
-3 13 1 51.030 59.034 8.407 76.412 o
-3 13 2 847.507 836.098 32.014 4.115 o
-2 0 2 7321.140 7336.880 133.625 0.170 o
-2 0 4 20.619 39.358 3.888 199.475 o
-2 0 6 93.433 125.582 8.576 47.484 o
-2 0 8 1859.560 1849.590 50.603 1.470 o
-2 0 10 3847.110 3690.320 90.123 0.479 o
-2 1 1 12150.500 11569.700 144.410 0.079 o
-2 1 2 465.816 456.854 10.262 11.338 o
-2 1 3 787.393 884.682 16.219 5.524 o
-2 1 4 30.492 25.557 2.823 209.230 o
-2 1 5 12.099 9.686 1.960 523.164 o
-2 1 6 373.532 376.827 10.160 14.175 o
-2 1 7 27.049 22.181 3.248 223.919 o
-2 1 8 252.530 252.991 9.520 21.230 o
-2 1 9 1480.090 1491.740 29.853 2.365 o
-2 1 10 0.650 1.233 2.883 1366.430 o
-2 1 11 871.797 894.117 25.901 4.422 o
-2 2 1 336.515 351.144 8.758 16.060 o
-2 2 2 447.256 496.369 12.068 10.950 o
-2 2 3 3497.910 3614.280 56.119 0.641 o
-2 2 4 2703.800 2554.240 35.609 1.069 o
-2 2 5 2594.350 2638.840 41.096 1.058 o
-2 2 6 63.195 75.499 4.416 87.826 o
-2 2 7 461.410 458.891 11.864 11.069 o
-2 2 8 107.371 114.136 5.570 53.196 o
-2 2 9 0.025 -1.708 2.082 3116.600 o
-2 2 10 1737.620 1711.780 36.864 1.838 o
-2 2 11 51.771 51.853 8.142 80.137 o
-2 3 1 2963.020 2842.550 48.257 0.869 o
-2 3 2 1005.960 1041.720 19.388 4.139 o
-2 3 3 100.834 86.065 4.223 63.791 o
-2 3 4 2735.530 2863.980 41.035 0.972 o
-2 3 5 195.553 177.192 6.720 30.438 o
-2 3 6 1400.600 1388.960 28.646 2.573 o
-2 3 7 113.532 114.271 7.374 47.235 o
-2 3 8 92.054 96.053 5.891 60.524 o
-2 3 9 822.296 839.196 25.605 4.719 o
-2 3 10 172.919 213.151 13.131 23.992 o
-2 3 11 507.838 529.922 20.634 8.156 o
-2 4 1 320.648 338.551 10.368 16.191 o
-2 4 2 269.839 272.347 8.582 20.385 o
-2 4 3 1607.880 1732.140 28.825 2.100 o
-2 4 4 541.554 480.682 10.709 9.897 o
-2 4 5 2486.040 2532.290 42.022 1.112 o
-2 4 6 141.151 145.735 6.781 39.703 o
-2 4 7 1223.180 1181.850 25.337 3.158 o
-2 4 8 15.201 15.855 4.469 270.625 o
-2 4 9 0.043 3.482 4.906 515.767 o
-2 4 10 499.260 536.413 20.205 8.294 o
-2 4 11 843.469 821.123 27.384 4.527 o
-2 5 1 376.617 304.111 8.786 15.530 o
-2 5 2 975.430 1021.070 20.671 4.203 o
-2 5 3 275.480 260.747 8.528 20.421 o
-2 5 4 3461.130 3551.810 51.977 0.667 o
-2 5 5 36.273 41.040 3.651 153.698 o
-2 5 6 1996.850 1994.100 34.562 1.574 o
-2 5 7 1947.270 1824.500 62.154 1.257 o
-2 5 8 154.524 158.325 9.087 33.318 o
-2 5 9 17.884 17.352 5.288 216.659 o
-2 5 10 85.260 119.684 15.216 31.743 o
-2 5 11 51.218 72.597 9.918 63.206 o
-2 6 1 3.009 4.772 2.007 1230.050 o
-2 6 2 752.814 818.333 17.986 5.738 o
-2 6 3 519.038 534.894 13.345 9.403 o
-2 6 4 1921.000 1865.560 30.239 1.732 o
-2 6 5 872.548 841.088 17.774 5.111 o
-2 6 6 1018.230 954.628 19.345 4.242 o
-2 6 7 228.241 237.312 10.277 22.496 o
-2 6 8 1937.810 1847.600 49.522 1.444 o
-2 6 9 21.588 18.664 4.506 223.347 o
-2 6 10 15.909 11.891 9.446 115.477 o
-2 6 11 221.366 206.577 13.335 21.190 o
-2 7 1 598.240 694.394 17.979 7.130 o
-2 7 2 43.550 46.039 3.800 132.302 o
-2 7 3 3430.380 3395.480 54.610 0.677 o
-2 7 4 238.753 238.027 6.564 24.318 o
-2 7 5 165.724 172.877 8.368 32.133 o
-2 7 6 620.017 611.257 17.327 7.376 o
-2 7 7 2793.060 2761.360 74.439 0.761 o
-2 7 8 700.687 728.964 31.364 4.825 o
-2 7 9 803.746 767.590 34.027 4.171 o
-2 7 10 183.124 201.568 20.588 16.489 o
-2 8 1 26.917 28.192 4.038 193.409 o
-2 8 2 2363.200 2356.940 59.534 1.037 o
-2 8 3 225.308 234.580 8.765 23.901 o
-2 8 4 1848.120 1814.570 37.694 1.697 o
-2 8 5 47.442 48.845 6.019 103.235 o
-2 8 6 704.047 708.352 22.591 5.835 o
-2 8 7 11.342 9.715 5.188 282.943 o
-2 8 8 1058.020 1027.560 39.753 2.955 o
-2 8 9 51.182 98.979 35.186 9.914 o
-2 8 10 4.456 10.377 8.774 151.956 o
-2 9 1 418.315 447.854 14.463 11.258 o
-2 9 2 440.044 443.643 12.809 11.346 o
-2 9 3 1443.010 1420.340 29.297 2.474 o
-2 9 4 432.223 434.347 18.289 10.102 o
-2 9 5 13.091 6.414 3.262 425.814 o
-2 9 6 130.753 123.678 12.984 31.359 o
-2 9 7 1789.920 1723.440 55.106 1.467 o
-2 9 8 52.731 45.634 9.350 72.380 o
-2 9 9 227.838 195.694 17.319 17.768 o
-2 10 1 46.736 45.820 5.298 112.788 o
-2 10 2 301.284 316.341 11.325 16.799 o
-2 10 3 869.011 856.189 28.168 4.321 o
-2 10 4 1345.240 1345.100 38.180 2.388 o
-2 10 5 983.340 901.905 22.276 4.280 o
-2 10 6 580.754 608.169 17.936 7.628 o
-2 10 7 123.860 113.195 14.358 29.979 o
-2 10 8 1707.440 1663.220 56.225 1.508 o
-2 10 9 40.736 66.787 12.259 54.667 o
-2 11 1 1.619 -1.277 3.199 1102.690 o
-2 11 2 424.444 411.540 13.294 11.786 o
-2 11 3 1175.490 1270.960 37.572 2.684 o
-2 11 4 1331.380 1268.320 39.590 2.405 o
-2 11 5 69.438 119.321 34.160 10.146 o
-2 11 6 1289.570 1242.520 35.610 2.615 o
-2 11 7 1201.590 1301.250 47.571 2.255 o
-2 11 8 173.152 187.362 18.694 18.771 o
-2 12 1 49.034 33.479 6.982 100.002 o
-2 12 2 29.555 30.025 4.093 180.117 o
-2 12 3 668.820 655.475 25.458 5.818 o
-2 12 4 223.058 216.520 16.764 18.005 o
-2 12 5 933.973 905.300 30.812 3.870 o
-2 12 6 181.651 211.720 14.706 21.833 o
-2 12 7 391.309 361.707 23.570 9.516 o
-2 12 8 35.236 25.593 8.684 98.015 o
-2 13 1 1135.090 1167.960 31.814 3.078 o
-2 13 2 690.269 658.405 18.203 6.572 o
-2 13 3 123.416 165.077 18.146 22.159 o
-2 13 4 1395.670 1318.970 40.805 2.262 o
-2 13 5 520.220 539.778 26.567 6.867 o
-2 13 6 404.804 340.600 16.673 11.754 o
-2 13 7 49.525 50.358 11.473 58.894 o
-2 14 1 0.053 5.996 3.889 712.664 o
-2 14 2 565.392 572.057 25.094 6.719 o
-2 14 3 471.967 455.629 28.931 7.008 o
-2 14 4 215.776 216.428 15.424 19.406 o
-2 14 5 1019.810 976.526 34.273 3.369 o
-2 14 6 8.415 3.301 6.492 246.184 o
-2 15 1 1962.370 1979.660 55.141 1.316 o
-2 15 2 5.054 5.180 5.536 335.045 o
-2 15 3 11.709 15.667 5.520 242.789 o
-2 15 4 62.348 67.222 12.132 49.358 o
-2 16 1 0.318 -1.246 4.270 730.195 o
-1 0 2 3879.850 3102.320 48.668 0.644 o
-1 0 4 6688.470 6561.730 100.030 0.218 o
-1 0 6 5577.170 5331.390 100.933 0.284 o
-1 0 8 227.835 192.771 10.181 23.984 o
-1 0 10 127.725 132.407 14.319 28.810 o
-1 0 12 61.860 48.679 9.328 67.321 o
-1 1 1 691.637 720.377 9.439 7.173 o
-1 1 2 12800.100 11691.300 117.212 0.077 o
-1 1 3 5029.330 5060.040 67.447 0.367 o
-1 1 4 529.075 519.528 8.878 10.061 o
-1 1 5 13034.600 12419.200 147.608 0.070 o
-1 1 6 948.957 936.396 16.444 4.674 o
-1 1 7 813.877 897.960 18.621 5.188 o
-1 1 8 820.436 819.995 24.094 4.890 o
-1 1 9 184.424 195.716 7.714 29.676 o
-1 1 10 42.335 36.742 5.145 127.240 o
-1 1 11 10.472 23.916 4.113 293.870 o
-1 1 12 28.934 18.619 5.220 175.343 o
-1 2 1 2060.430 2276.930 26.856 1.522 o
-1 2 2 162.808 95.921 2.643 45.514 o
-1 2 3 620.770 662.845 9.138 8.087 o
-1 2 4 3731.540 3780.710 43.997 0.625 o
-1 2 5 2.714 2.440 0.876 2308.090 o
-1 2 6 2258.820 2235.010 34.835 1.343 o
-1 2 7 442.672 449.953 11.673 11.511 o
-1 2 8 522.086 499.026 12.839 9.683 o
-1 2 9 849.917 832.607 18.919 5.150 o
-1 2 10 122.441 115.109 8.907 41.681 o
-1 2 11 436.234 435.562 18.467 9.992 o
-1 2 12 120.739 90.258 12.777 34.890 o
-1 3 1 949.112 834.941 12.345 5.093 o
-1 3 2 1033.060 1236.180 14.706 3.948 o
-1 3 3 2.108 7.000 1.072 1608.390 o
-1 3 4 69.076 77.771 3.027 88.174 o
-1 3 5 4731.970 4509.900 72.053 0.404 o
-1 3 6 372.506 372.591 11.046 13.982 o
-1 3 7 1.716 2.020 2.159 1656.900 o
-1 3 8 1542.770 1618.390 41.152 1.958 o
-1 3 9 772.583 780.197 23.523 5.228 o
-1 3 10 1419.730 1446.280 36.998 2.276 o
-1 3 11 23.330 21.688 5.215 188.645 o
-1 3 12 235.799 229.058 13.617 19.719 o
-1 4 1 4890.380 5074.660 59.609 0.388 o
-1 4 2 1980.880 1718.300 21.128 1.853 o
-1 4 3 1031.890 1130.430 19.793 3.908 o
-1 4 4 382.862 371.866 10.373 13.938 o
-1 4 5 530.740 524.335 14.565 9.111 o
-1 4 6 321.225 284.990 9.047 17.655 o
-1 4 7 2567.090 2533.810 58.651 0.954 o
-1 4 8 541.673 505.782 19.263 8.219 o
-1 4 9 1544.180 1559.510 41.593 1.973 o
-1 4 10 265.255 297.823 14.101 16.884 o
-1 4 11 166.830 184.837 11.249 27.735 o
-1 4 12 846.280 855.651 30.657 4.197 o
-1 5 1 993.319 926.170 14.178 4.631 o
-1 5 2 3088.840 3163.440 58.277 0.751 o
-1 5 3 1187.070 1185.010 25.100 3.238 o
-1 5 4 15.200 17.851 4.069 282.378 o
-1 5 5 89.175 74.612 7.802 58.695 o
-1 5 6 1597.470 1663.280 31.121 2.103 o
-1 5 7 576.707 541.074 18.647 7.842 o
-1 5 8 2527.590 2474.580 52.894 1.022 o
-1 5 9 128.801 135.447 9.892 36.882 o
-1 5 10 1279.640 1301.230 38.093 2.501 o
-1 5 11 1146.700 1134.630 32.708 3.047 o
-1 5 12 195.945 187.571 13.311 23.159 o
-1 6 1 5899.330 5914.360 76.558 0.281 o
-1 6 2 7404.170 7188.990 120.200 0.177 o
-1 6 3 2805.480 2833.610 52.483 0.888 o
-1 6 4 983.290 1091.330 23.835 3.904 o
-1 6 5 55.926 57.443 7.609 79.621 o
-1 6 6 6.880 25.449 8.498 139.044 o
-1 6 7 383.432 399.072 14.707 12.260 o
-1 6 8 441.991 406.096 13.094 11.570 o
-1 6 9 666.981 623.836 24.211 6.074 o
-1 6 10 296.895 300.727 15.323 15.182 o
-1 6 11 190.284 160.462 13.861 23.739 o
-1 7 1 475.520 441.466 10.405 11.275 o
-1 7 2 860.888 872.094 18.864 5.019 o
-1 7 3 3443.510 3436.330 62.940 0.640 o
-1 7 4 34.280 31.582 4.344 160.024 o
-1 7 5 392.962 473.615 20.803 9.653 o
-1 7 6 124.750 114.373 11.069 36.535 o
-1 7 7 1154.800 1188.650 59.152 1.947 o
-1 7 8 391.391 407.424 21.892 9.760 o
-1 7 9 93.428 89.444 9.128 50.269 o
-1 7 10 309.235 266.471 12.492 16.807 o
-1 7 11 1439.750 1395.820 40.690 2.177 o
-1 8 1 446.615 470.168 12.751 11.025 o
-1 8 2 5739.660 5633.860 98.551 0.273 o
-1 8 3 115.981 114.454 7.606 46.096 o
-1 8 4 2102.600 2263.410 45.203 1.308 o
-1 8 5 102.529 119.381 11.328 38.891 o
-1 8 6 1960.010 2050.610 58.089 1.261 o
-1 8 7 269.634 232.633 16.008 16.642 o
-1 8 8 2944.600 2888.560 78.306 0.698 o
-1 8 9 69.926 93.833 12.212 44.383 o
-1 8 10 126.112 126.451 13.000 31.673 o
-1 8 11 12.629 13.795 7.853 156.014 o
-1 9 1 1533.520 1522.310 30.098 2.275 o
-1 9 2 187.597 184.911 7.415 30.196 o
-1 9 3 4138.350 4116.060 76.081 0.468 o
-1 9 4 38.379 34.895 4.325 146.944 o
-1 9 5 337.641 363.761 11.754 14.768 o
-1 9 6 2.274 3.360 2.757 1067.190 o
-1 9 7 857.325 846.846 33.948 3.922 o
-1 9 8 14.340 2.731 4.099 364.436 o
-1 9 9 68.424 74.738 11.771 48.483 o
-1 9 10 24.703 23.178 8.689 110.420 o
-1 10 1 1035.240 1047.450 23.522 3.837 o
-1 10 2 2547.370 2536.220 45.704 1.061 o
-1 10 3 259.581 251.972 13.081 18.592 o
-1 10 4 890.082 943.335 24.962 4.346 o
-1 10 5 5.534 6.301 2.327 812.529 o
-1 10 6 177.754 201.118 15.284 21.719 o
-1 10 7 156.488 137.509 15.257 24.922 o
-1 10 8 375.863 356.073 22.563 10.068 o
-1 10 9 506.530 478.522 26.790 7.129 o
-1 10 10 374.113 333.382 24.583 9.555 o
-1 11 1 549.347 532.148 15.326 8.723 o
-1 11 2 1828.200 1885.260 33.189 1.755 o
-1 11 3 666.134 663.754 23.587 6.047 o
-1 11 4 56.313 74.215 10.486 57.910 o
-1 11 5 34.427 65.773 4.840 120.595 o
-1 11 6 995.060 970.055 37.969 3.212 o
-1 11 7 554.593 536.370 27.712 6.458 o
-1 11 8 1467.980 1400.360 50.320 1.885 o
-1 11 9 294.437 297.957 21.215 12.313 o
-1 12 1 2992.880 3008.070 50.536 0.828 o
-1 12 2 500.095 516.401 16.587 9.131 o
-1 12 3 520.384 526.611 21.554 7.874 o
-1 12 4 515.999 508.982 20.721 8.160 o
-1 12 5 442.126 440.777 15.985 10.533 o
-1 12 6 423.402 430.205 24.414 8.565 o
-1 12 7 1917.670 1863.920 60.502 1.285 o
-1 12 8 445.934 453.861 26.898 7.650 o
-1 12 9 1329.850 1230.580 48.588 2.129 o
-1 13 1 184.621 178.047 7.681 30.586 o
-1 13 2 692.759 756.832 19.268 6.128 o
-1 13 3 111.667 112.747 10.883 39.063 o
-1 13 4 126.603 176.947 11.436 31.715 o
-1 13 5 282.319 315.372 16.306 14.866 o
-1 13 6 21.895 12.393 4.715 230.238 o
-1 13 7 165.575 183.350 17.737 20.141 o
-1 13 8 457.023 423.265 26.526 7.771 o
-1 14 1 964.701 926.861 27.197 3.994 o
-1 14 2 30.218 39.303 10.293 79.204 o
-1 14 3 414.817 408.970 19.583 10.142 o
-1 14 4 1519.760 1508.530 44.062 1.957 o
-1 14 5 0.294 12.071 5.837 321.594 o
-1 14 6 813.059 750.227 27.113 4.789 o
-1 14 7 338.622 339.745 23.689 10.267 o
-1 15 1 65.795 86.070 8.575 61.886 o
-1 15 2 648.385 601.535 18.941 6.973 o
-1 15 3 441.404 398.533 20.703 9.548 o
-1 15 4 89.593 80.918 11.691 43.524 o
-1 15 5 3165.980 3131.100 75.526 0.656 o
-1 15 6 43.838 30.282 9.442 81.353 o
-1 16 1 0.359 6.936 6.035 328.689 o
-1 16 2 18.441 18.855 6.273 179.241 o
-1 16 3 0.923 5.845 4.459 546.849 o
-1 16 4 2057.230 1971.350 55.360 1.272 o
-1 16 5 0.791 -11.131 6.310 333.290 o
-1 17 1 7.262 19.588 7.445 175.063 o
-1 17 2 175.605 195.466 18.627 18.582 o
-1 17 3 381.682 334.046 19.758 11.118 o
0 0 4 1322.990 1111.450 23.689 3.088 o
0 0 6 216.417 302.297 11.863 20.227 o
0 0 8 2271.130 2432.850 61.050 1.040 o
0 0 10 1694.390 1798.430 59.811 1.415 o
0 0 12 60.847 72.193 16.323 34.339 o
0 1 2 1052.750 1064.890 13.237 4.206 o
0 1 3 687.515 498.445 7.925 8.347 o
0 1 4 698.032 732.015 10.856 6.971 o
0 1 5 45.673 68.163 3.163 116.955 o
0 1 6 259.072 277.827 8.034 21.083 o
0 1 7 710.008 833.178 18.452 5.890 o
0 1 8 79.347 84.534 5.695 69.216 o
0 1 9 5245.460 5270.200 131.202 0.261 o
0 1 10 21.845 30.691 5.634 168.640 o
0 1 11 481.865 495.185 19.107 8.920 o
0 1 12 23.441 39.981 7.874 114.098 o
0 2 1 826.893 841.111 11.477 5.735 o
0 2 2 122.841 189.520 3.504 43.292 o
0 2 3 4176.660 4245.400 46.017 0.522 o
0 2 4 10.690 21.148 1.522 450.948 o
0 2 5 4214.690 4339.520 64.515 0.475 o
0 2 6 477.868 449.760 17.595 9.582 o
0 2 7 1230.610 1322.010 25.956 2.987 o
0 2 8 2150.390 2205.210 41.831 1.337 o
0 2 9 9.698 14.242 3.539 394.148 o
0 2 10 3039.410 3140.230 59.510 0.757 o
0 2 11 167.504 162.791 13.558 25.562 o
0 2 12 56.932 69.126 9.089 66.377 o
0 3 1 4354.700 4133.670 45.878 0.507 o
0 3 2 2496.870 2624.280 31.750 1.161 o
0 3 3 3329.800 2843.350 34.787 0.832 o
0 3 4 5165.370 5316.350 68.159 0.348 o
0 3 5 207.145 256.760 7.167 25.541 o
0 3 6 1929.570 1967.100 30.998 1.676 o
0 3 7 24.627 11.270 1.982 311.510 o
0 3 8 16.297 16.986 2.906 332.250 o
0 3 9 677.795 684.185 15.754 6.844 o
0 3 10 1335.980 1265.100 30.575 2.703 o
0 3 11 50.644 69.059 6.606 86.469 o
0 3 12 1269.700 1243.480 35.531 2.646 o
0 4 0 5715.480 5206.270 85.303 0.299 o
0 4 1 1075.910 1131.440 15.733 3.940 o
0 4 2 253.881 227.051 4.876 24.492 o
0 4 3 5989.440 6090.320 83.647 0.266 o
0 4 4 1577.630 1493.310 26.124 2.326 o
0 4 5 4397.130 4375.030 68.751 0.446 o
0 4 6 398.443 328.941 9.049 14.472 o
0 4 7 631.150 673.829 16.398 7.159 o
0 4 8 133.467 144.164 7.745 39.523 o
0 4 9 167.520 148.367 7.170 34.962 o
0 4 10 755.926 772.795 19.161 5.738 o
0 4 11 1061.620 1006.040 32.828 3.331 o
0 4 12 47.075 100.026 10.343 57.399 o
0 5 1 168.003 111.394 3.422 42.161 o
0 5 2 2355.550 2397.980 29.170 1.297 o
0 5 3 1369.230 1256.370 20.412 2.959 o
0 5 4 2764.550 2874.220 43.644 0.947 o
0 5 5 1479.570 1524.500 26.303 2.429 o
0 5 6 1065.200 1090.150 20.807 3.825 o
0 5 7 2161.430 2048.960 41.674 1.373 o
0 5 8 29.803 29.326 5.066 161.371 o
0 5 9 92.894 99.746 9.625 47.489 o
0 5 10 193.510 203.414 13.364 22.778 o
0 5 11 38.505 39.031 6.561 113.494 o
0 5 12 556.467 532.654 21.366 7.577 o
0 6 0 115.111 66.690 3.685 63.124 o
0 6 1 864.525 916.012 14.348 5.192 o
0 6 2 2069.310 2059.790 29.424 1.562 o
0 6 3 3490.410 3547.490 53.553 0.657 o
0 6 4 629.902 600.823 12.837 7.916 o
0 6 5 2830.400 2901.590 45.795 0.911 o
0 6 6 3114.040 3021.560 63.676 0.733 o
0 6 7 776.385 795.804 21.853 5.330 o
0 6 8 881.824 897.805 27.928 4.234 o
0 6 9 7.404 15.284 4.283 357.942 o
0 6 10 41.778 33.200 8.476 91.222 o
0 6 11 115.175 107.511 11.391 37.701 o
0 7 1 6615.010 7062.700 101.522 0.211 o
0 7 2 113.623 118.487 4.811 52.334 o
0 7 3 5377.360 5162.570 71.377 0.335 o
0 7 4 1044.980 1076.980 20.306 3.924 o
0 7 5 685.605 648.087 12.972 7.212 o
0 7 6 887.463 933.348 18.779 4.787 o
0 7 7 3660.030 3450.540 93.984 0.498 o
0 7 8 61.571 60.607 7.109 78.443 o
0 7 9 138.327 135.341 10.421 34.576 o
0 7 10 100.194 109.680 9.941 43.875 o
0 7 11 174.771 161.838 11.592 27.595 o
0 8 0 1152.020 1415.780 31.832 2.831 o
0 8 1 2.111 2.042 1.685 1966.980 o
0 8 2 4686.300 4567.310 69.067 0.411 o
0 8 3 60.257 69.389 4.288 93.482 o
0 8 4 704.997 644.298 13.061 7.065 o
0 8 5 154.419 153.652 6.484 37.356 o
0 8 6 4136.280 3856.490 72.356 0.491 o
0 8 7 104.538 102.232 6.855 52.498 o
0 8 8 1928.470 1886.100 42.043 1.551 o
0 8 9 3.925 11.029 6.282 262.811 o
0 8 10 216.925 197.757 21.003 15.262 o
0 8 11 15.662 16.310 6.965 170.694 o
0 9 1 794.317 887.507 20.245 5.175 o
0 9 2 170.265 174.651 7.141 32.978 o
0 9 3 4876.250 4658.850 71.341 0.388 o
0 9 4 1071.530 1034.040 23.510 3.758 o
0 9 5 1.547 1.943 2.037 1832.410 o
0 9 6 1347.350 1363.890 29.315 2.651 o
0 9 7 1859.580 1806.370 39.680 1.660 o
0 9 8 297.143 275.053 11.847 17.422 o
0 9 9 319.186 333.764 13.921 14.788 o
0 9 10 20.459 15.411 6.092 183.704 o
0 9 11 505.790 479.642 21.780 8.171 o
0 10 0 411.289 507.287 23.599 8.517 o
0 10 1 298.923 302.226 10.511 17.522 o
0 10 2 1825.420 1785.500 45.086 1.601 o
0 10 3 1557.150 1567.250 31.188 2.197 o
0 10 4 93.514 89.395 4.946 64.202 o
0 10 5 1148.380 1134.500 25.427 3.362 o
0 10 6 2749.030 2695.320 42.162 0.989 o
0 10 7 88.190 85.871 6.057 63.531 o
0 10 8 528.519 471.206 15.760 9.228 o
0 10 9 235.407 202.405 13.717 20.273 o
0 10 10 4.042 -0.891 6.855 260.446 o
0 11 1 70.306 86.937 6.203 70.982 o
0 11 2 2212.350 2189.000 41.773 1.310 o
0 11 3 589.894 567.725 15.606 8.082 o
0 11 4 2781.670 2832.280 51.165 0.903 o
0 11 5 1052.690 1034.150 29.348 3.506 o
0 11 6 655.667 644.135 17.640 6.932 o
0 11 7 1678.830 1629.150 42.082 1.819 o
0 11 8 7.609 7.030 7.635 186.896 o
0 11 9 42.215 57.240 11.110 62.538 o
0 11 10 81.749 58.949 12.068 46.083 o
0 12 0 749.876 732.512 31.556 4.625 o
0 12 1 166.629 176.470 9.818 29.980 o
0 12 2 439.721 449.825 14.151 10.969 o
0 12 3 842.889 855.644 21.214 4.958 o
0 12 4 1580.450 1577.470 32.593 2.135 o
0 12 5 883.957 879.191 29.040 4.173 o
0 12 6 32.023 41.741 6.222 125.229 o
0 12 7 238.164 223.092 9.250 23.092 o
0 12 8 0.520 10.036 5.850 328.483 o
0 12 9 57.959 63.743 14.016 42.992 o
0 13 1 1252.600 1257.820 32.811 2.760 o
0 13 2 847.498 909.435 26.310 4.447 o
0 13 3 232.534 229.172 9.680 22.935 o
0 13 4 1897.040 1891.830 38.233 1.626 o
0 13 5 2.701 0.496 4.126 652.409 o
0 13 6 1317.540 1314.010 38.766 2.422 o
0 13 7 0.568 9.482 3.411 733.576 o
0 13 8 81.974 81.445 13.177 40.111 o
0 14 0 1316.920 1472.160 52.553 1.915 o
0 14 1 274.307 268.378 13.648 17.353 o
0 14 2 10.636 13.129 4.952 289.390 o
0 14 3 1553.860 1463.320 32.561 2.228 o
0 14 4 72.262 80.281 6.035 72.479 o
0 14 5 1284.960 1237.090 38.543 2.520 o
0 14 6 31.919 39.946 7.210 112.844 o
0 14 7 213.948 237.450 15.185 19.234 o
0 15 1 2798.880 2690.820 58.842 0.869 o
0 15 2 191.534 213.489 12.708 23.260 o
0 15 3 4.351 3.844 3.889 583.978 o
0 15 4 346.992 327.251 18.095 12.422 o
0 15 5 26.579 25.773 6.975 135.233 o
0 15 6 262.219 274.053 17.331 15.407 o
0 16 0 4427.630 4234.970 120.170 0.341 o
0 16 1 0.263 -2.126 4.905 557.836 o
0 16 2 635.444 607.360 21.843 6.640 o
0 16 3 5.140 14.333 6.073 256.970 o
0 16 4 51.891 65.664 16.859 34.253 o
0 16 5 6.673 14.300 10.473 106.548 o
0 17 1 1858.920 1783.340 45.336 1.576 o
0 17 2 89.536 75.056 11.415 45.049 o
0 17 3 2.185 12.553 6.854 234.586 o
0 17 4 176.977 174.789 14.768 23.069 o
1 0 0 2263.820 2131.910 36.795 1.349 o
1 0 2 806.242 1028.330 22.394 4.674 o
1 0 4 11137.700 11319.000 199.182 0.078 o
1 0 6 2686.060 2756.080 63.468 0.858 o
1 0 8 4.124 -3.655 3.711 710.778 o
1 0 10 43.126 51.946 12.250 56.262 o
1 0 12 1147.840 1203.250 49.582 2.287 o
1 1 0 8727.810 8283.440 86.339 0.151 o
1 1 1 794.185 599.362 9.832 6.820 o
1 1 2 185.345 224.584 5.232 30.242 o
1 1 3 7031.730 7037.090 77.795 0.213 o
1 1 4 85.811 82.132 3.146 74.997 o
1 1 5 8610.420 8609.680 115.427 0.141 o
1 1 6 86.826 92.429 5.645 64.167 o
1 1 7 6.802 3.235 2.350 824.209 o
1 1 8 51.284 52.228 6.004 97.782 o
1 1 9 106.344 150.702 23.577 16.898 o
1 1 10 74.360 100.360 8.985 54.656 o
1 1 11 6.875 3.955 6.901 229.998 o
1 1 12 21.793 40.784 9.900 88.597 o
1 2 0 229.124 201.599 4.137 27.784 o
1 2 1 3154.730 3212.600 52.744 0.757 o
1 2 2 771.672 921.008 15.986 5.528 o
1 2 3 550.778 574.181 9.262 9.353 o
1 2 4 10451.500 10276.600 122.230 0.103 o
1 2 5 640.306 644.475 12.476 7.662 o
1 2 6 385.702 439.416 12.867 12.382 o
1 2 7 2470.840 2615.850 47.721 1.058 o
1 2 8 2049.620 2119.500 45.503 1.367 o
1 2 9 1831.340 1901.330 43.239 1.590 o
1 2 10 234.176 241.680 14.515 18.828 o
1 2 11 272.838 315.076 18.387 14.005 o
1 2 12 283.510 296.505 27.438 9.800 o
1 3 0 4478.260 4734.140 57.690 0.441 o
1 3 1 1683.280 1425.820 19.122 2.362 o
1 3 2 4957.480 5040.600 70.142 0.369 o
1 3 3 397.589 398.340 7.967 13.864 o
1 3 4 413.944 426.001 9.762 12.750 o
1 3 5 1676.100 1583.850 26.198 2.155 o
1 3 6 810.864 808.527 22.701 5.073 o
1 3 7 229.462 223.311 9.168 23.697 o
1 3 8 1482.980 1600.250 33.769 2.202 o
1 3 9 1.330 4.005 3.779 730.868 o
1 3 10 398.254 382.687 18.417 10.935 o
1 3 11 67.961 109.110 12.180 43.374 o
1 4 0 181.459 165.363 4.391 34.821 o
1 4 1 2499.730 2693.810 35.294 1.123 o
1 4 2 1641.970 1587.230 22.674 2.254 o
1 4 3 8.276 8.208 1.373 753.343 o
1 4 4 505.489 416.958 9.402 11.154 o
1 4 5 1297.680 1414.390 30.694 2.644 o
1 4 6 20.749 29.442 5.469 177.720 o
1 4 7 1886.070 2000.770 38.902 1.587 o
1 4 8 334.512 323.570 12.224 15.236 o
1 4 9 1004.270 1039.070 27.724 3.705 o
1 4 10 330.251 339.869 14.013 14.375 o
1 4 11 185.935 212.880 13.475 22.831 o
1 5 0 5574.300 5518.200 89.351 0.293 o
1 5 1 2262.970 2106.180 29.065 1.429 o
1 5 2 2310.460 2361.440 40.877 1.232 o
1 5 3 1.362 5.747 1.339 1861.190 o
1 5 4 2.991 6.634 1.730 1212.880 o
1 5 5 390.986 378.590 11.287 13.389 o
1 5 6 1376.370 1409.870 29.253 2.576 o
1 5 7 556.280 587.052 18.276 7.881 o
1 5 8 2179.930 2172.210 43.020 1.317 o
1 5 9 170.616 170.186 9.911 29.776 o
1 5 10 964.202 944.367 25.442 4.080 o
1 5 11 1398.760 1452.810 35.210 2.347 o
1 6 0 181.910 163.010 5.383 34.071 o
1 6 1 2916.160 2989.760 48.402 0.861 o
1 6 2 3650.290 3446.370 84.112 0.533 o
1 6 3 471.530 534.006 13.838 9.939 o
1 6 4 21.092 42.190 3.828 193.645 o
1 6 5 201.518 205.171 7.900 27.494 o
1 6 6 547.735 562.991 17.511 8.204 o
1 6 7 1137.260 1180.500 29.498 3.163 o
1 6 8 492.802 482.876 17.261 9.273 o
1 6 9 809.547 791.007 21.998 5.177 o
1 6 10 931.736 992.047 25.777 4.085 o
1 6 11 103.984 100.664 8.641 47.752 o
1 7 0 1866.400 1945.650 33.317 1.700 o
1 7 1 5388.330 5204.660 73.078 0.331 o
1 7 2 745.539 785.094 18.373 5.834 o
1 7 3 2373.190 2610.880 46.415 1.105 o
1 7 4 3.049 4.076 2.916 899.080 o
1 7 5 646.500 759.477 18.855 6.452 o
1 7 6 163.787 173.326 9.014 31.490 o
1 7 7 2137.450 2091.180 45.182 1.334 o
1 7 8 204.704 207.367 10.986 24.308 o
1 7 9 0.756 3.613 3.201 1002.020 o
1 7 10 128.395 165.738 10.281 34.158 o
1 7 11 1351.790 1371.940 37.703 2.379 o
1 8 0 78.381 76.385 4.606 76.299 o
1 8 1 15.730 19.771 2.959 321.228 o
1 8 2 5151.420 5229.060 84.767 0.330 o
1 8 3 19.858 14.250 2.993 306.700 o
1 8 4 1598.400 1731.220 37.754 1.933 o
1 8 5 0.004 1.238 2.103 2600.860 o
1 8 6 2136.250 2153.300 41.949 1.356 o
1 8 7 45.002 49.316 5.990 105.921 o
1 8 8 566.411 577.332 19.684 7.600 o
1 8 9 49.409 37.306 5.599 111.739 o
1 8 10 1385.020 1390.790 36.308 2.370 o
1 9 0 598.533 600.999 14.765 7.963 o
1 9 1 4390.640 4352.380 74.262 0.437 o
1 9 2 322.935 327.116 11.300 15.919 o
1 9 3 3871.150 4166.790 76.931 0.491 o
1 9 4 64.486 71.837 5.980 79.833 o
1 9 5 1154.400 1236.560 31.500 2.993 o
1 9 6 646.616 620.801 17.713 7.077 o
1 9 7 1207.370 1282.020 32.486 2.825 o
1 9 8 484.750 436.150 16.819 9.764 o
1 9 9 294.396 271.128 13.273 16.817 o
1 9 10 89.962 63.877 11.182 46.993 o
1 10 0 582.839 575.892 16.102 8.035 o
1 10 1 2244.980 2324.610 44.056 1.239 o
1 10 2 2439.250 2462.690 46.092 1.111 o
1 10 3 1453.420 1433.630 30.679 2.415 o
1 10 4 14.620 18.282 4.173 280.227 o
1 10 5 48.663 52.187 5.400 105.749 o
1 10 6 196.681 211.412 9.557 26.108 o
1 10 7 365.567 377.310 15.061 12.717 o
1 10 8 461.743 494.630 20.791 8.753 o
1 10 9 457.793 443.031 17.697 9.858 o
1 11 0 1639.370 1731.140 39.143 1.869 o
1 11 1 503.984 508.630 17.366 8.972 o
1 11 2 69.297 86.058 7.050 67.728 o
1 11 3 30.688 22.861 4.140 187.267 o
1 11 4 338.202 347.298 12.628 14.638 o
1 11 5 90.164 92.786 7.815 55.268 o
1 11 6 839.720 853.490 22.767 4.855 o
1 11 7 966.793 1022.140 25.633 3.948 o
1 11 8 966.577 921.144 26.959 4.012 o
1 11 9 20.052 22.944 6.399 165.222 o
1 12 0 77.376 80.104 7.909 61.609 o
1 12 1 2419.610 2505.700 52.973 1.052 o
1 12 2 766.689 764.043 23.130 5.329 o
1 12 3 160.196 178.186 10.331 29.851 o
1 12 4 13.364 23.023 4.213 270.135 o
1 12 5 507.630 527.569 18.136 8.673 o
1 12 6 91.431 99.946 6.309 58.704 o
1 12 7 1026.820 979.570 25.443 3.851 o
1 12 8 106.858 130.467 16.597 26.622 o
1 13 0 1566.430 1604.690 39.024 1.992 o
1 13 1 446.246 457.805 17.265 10.023 o
1 13 2 1360.190 1376.740 35.087 2.447 o
1 13 3 120.678 121.865 11.353 35.968 o
1 13 4 38.194 62.156 5.985 106.404 o
1 13 5 662.611 695.707 20.306 6.381 o
1 13 6 837.599 831.402 21.198 5.033 o
1 13 7 174.781 209.171 9.146 28.454 o
1 13 8 1283.500 1261.760 39.329 2.478 o
1 14 0 197.911 199.193 11.007 25.037 o
1 14 1 727.839 761.006 23.993 5.431 o
1 14 2 26.332 37.089 5.807 146.429 o
1 14 3 127.809 135.892 10.324 36.136 o
1 14 4 2423.590 2430.340 54.569 1.050 o
1 14 5 34.892 43.629 5.377 130.844 o
1 14 6 172.192 155.123 8.530 32.200 o
1 14 7 354.924 321.566 13.533 14.176 o
1 15 0 692.306 683.339 23.161 5.900 o
1 15 1 21.592 11.392 4.653 236.820 o
1 15 2 168.484 164.872 13.478 25.520 o
1 15 3 1724.700 1748.840 43.517 1.710 o
1 15 4 0.324 -7.415 3.430 1117.030 o
1 15 5 1864.700 1827.560 45.240 1.560 o
1 15 6 36.268 13.040 6.016 146.950 o
1 16 0 0.895 4.821 3.871 705.522 o
1 16 1 4.231 2.104 6.076 310.772 o
1 16 2 292.219 302.636 15.936 14.966 o
1 16 3 5.960 15.460 5.672 271.860 o
1 16 4 3116.490 3194.790 69.556 0.688 o
1 17 0 322.533 360.486 16.724 13.156 o
1 17 1 1.032 4.144 5.084 455.451 o
1 17 2 149.821 190.136 19.041 19.302 o
2 0 0 8847.620 8798.290 157.409 0.122 o
2 0 2 8.840 19.575 7.566 166.730 o
2 0 4 12.424 12.251 6.920 188.607 o
2 0 6 57.930 66.195 6.995 79.717 o
2 0 8 3187.880 3115.130 91.710 0.579 o
2 0 10 632.218 612.099 30.756 5.408 o
2 1 0 21.222 23.587 2.495 274.159 o
2 1 1 2656.550 2785.540 47.279 0.971 o
2 1 2 78.663 80.517 4.544 75.156 o
2 1 3 312.507 273.832 15.066 15.255 o
2 1 4 963.524 943.887 27.318 3.965 o
2 1 5 40.834 54.965 4.709 120.477 o
2 1 6 1669.070 1658.320 35.993 1.938 o
2 1 7 1963.860 1871.710 49.147 1.429 o
2 1 8 482.478 472.356 16.575 9.617 o
2 1 9 3399.340 3410.110 68.792 0.627 o
2 1 10 85.928 96.985 10.371 46.976 o
2 2 0 5255.670 5207.990 76.290 0.336 o
2 2 1 965.117 994.159 21.081 4.258 o
2 2 2 0.767 -0.266 1.294 5092.590 o
2 2 3 2018.390 2155.150 45.422 1.375 o
2 2 4 2.808 5.464 2.410 1044.250 o
2 2 5 668.017 696.489 18.618 6.545 o
2 2 6 25.130 16.871 3.171 251.080 o
2 2 7 0.473 3.025 3.048 1145.980 o
2 2 8 1268.240 1227.390 27.600 2.948 o
2 2 9 151.679 203.104 15.058 23.391 o
2 2 10 223.781 230.899 14.941 19.155 o
2 3 0 776.505 813.232 16.541 5.744 o
2 3 1 69.463 77.452 4.711 81.157 o
2 3 2 5001.190 5251.460 90.825 0.330 o
2 3 3 620.809 587.264 15.312 7.747 o
2 3 4 3549.990 3582.250 66.196 0.601 o
2 3 5 273.632 244.823 10.303 19.898 o
2 3 6 413.663 405.908 16.735 11.032 o
2 3 7 98.781 99.623 9.786 45.677 o
2 3 8 78.512 101.759 12.064 42.448 o
2 3 9 1049.390 1066.990 29.252 3.481 o
2 3 10 313.853 295.237 16.662 14.135 o
2 4 0 628.249 570.979 14.157 7.907 o
2 4 1 128.102 138.437 5.057 45.682 o
2 4 2 1154.180 1097.250 23.959 3.453 o
2 4 3 1283.290 1279.140 27.120 2.892 o
2 4 4 4.701 13.312 2.687 617.083 o
2 4 5 1453.670 1514.190 38.643 2.157 o
2 4 6 496.274 478.199 18.895 8.902 o
2 4 7 170.891 189.887 11.800 26.511 o
2 4 8 381.096 423.093 18.330 10.915 o
2 4 9 317.210 301.300 13.957 15.280 o
2 4 10 14.131 15.421 5.731 221.431 o
2 5 0 181.970 180.065 6.546 31.923 o
2 5 1 271.577 277.654 8.367 20.279 o
2 5 2 1704.770 1741.660 37.610 1.839 o
2 5 3 804.322 766.084 21.365 5.313 o
2 5 4 2070.600 2149.440 45.265 1.352 o
2 5 5 822.019 817.013 25.552 4.766 o
2 5 6 655.346 687.067 24.002 5.990 o
2 5 7 126.393 141.524 10.002 36.572 o
2 5 8 11.824 2.076 4.344 381.464 o
2 5 9 215.096 189.824 11.513 23.699 o
2 5 10 505.360 491.770 22.321 8.005 o
2 6 0 126.977 164.177 6.489 41.039 o
2 6 1 802.223 843.521 19.260 5.319 o
2 6 2 2180.090 2135.180 39.132 1.369 o
2 6 3 2104.900 2229.050 46.675 1.299 o
2 6 4 38.375 38.246 5.183 132.099 o
2 6 5 1322.630 1302.420 35.784 2.522 o
2 6 6 2341.870 2310.060 73.478 0.920 o
2 6 7 348.153 320.955 16.198 13.250 o
2 6 8 155.147 132.494 10.670 32.288 o
2 6 9 0.958 1.459 3.837 804.447 o
2 7 0 74.753 69.321 5.067 78.729 o
2 7 1 2167.980 2173.730 40.466 1.351 o
2 7 2 666.523 723.956 22.127 6.054 o
2 7 3 1320.370 1316.520 25.986 2.833 o
2 7 4 830.892 801.169 25.064 4.804 o
2 7 5 1662.230 1622.130 38.477 1.910 o
2 7 6 280.805 282.791 14.855 16.182 o
2 7 7 1391.630 1428.310 40.670 2.211 o
2 7 8 0.343 1.095 5.284 468.104 o
2 7 9 79.134 87.844 15.412 33.712 o
2 8 0 1850.300 2018.770 39.492 1.596 o
2 8 1 59.217 70.630 6.244 82.183 o
2 8 2 3286.930 3234.740 93.811 0.550 o
2 8 3 19.212 27.933 3.551 241.986 o
2 8 4 129.935 133.825 7.902 40.737 o
2 8 5 50.055 57.181 6.894 89.323 o
2 8 6 3197.290 3094.000 56.734 0.743 o
2 8 7 157.735 151.206 12.350 28.480 o
2 8 8 375.103 333.816 14.670 13.120 o
2 8 9 12.481 13.687 5.279 255.971 o
2 9 0 5.580 7.097 2.573 734.207 o
2 9 1 2327.690 2334.420 45.208 1.190 o
2 9 2 250.090 261.270 11.761 19.682 o
2 9 3 1302.880 1244.560 29.124 2.821 o
2 9 4 284.547 289.230 10.589 18.295 o
2 9 5 1349.510 1368.350 28.703 2.662 o
2 9 6 21.827 26.720 4.478 205.125 o
2 9 7 1122.410 1112.790 30.578 3.211 o
2 9 8 24.908 28.753 7.101 133.197 o
2 10 0 4.353 7.944 4.304 463.127 o
2 10 1 2225.910 2316.890 45.714 1.233 o
2 10 2 1370.250 1456.730 32.650 2.454 o
2 10 3 2853.630 2925.780 60.045 0.819 o
2 10 4 16.693 22.379 3.854 264.478 o
2 10 5 844.359 828.566 23.067 4.862 o
2 10 6 1146.620 1155.670 29.015 3.190 o
2 10 7 4.593 16.184 6.362 238.586 o
2 10 8 119.639 112.950 9.561 40.871 o
2 11 0 23.309 22.557 3.990 221.587 o
2 11 1 230.979 247.032 10.586 21.830 o
2 11 2 67.832 87.010 7.999 63.641 o
2 11 3 195.773 218.102 10.389 25.127 o
2 11 4 433.802 458.488 16.243 10.457 o
2 11 5 1038.310 1102.370 28.577 3.500 o
2 11 6 424.045 414.463 15.721 11.091 o
2 11 7 280.326 274.144 14.208 16.712 o
2 12 0 72.619 85.354 7.810 62.903 o
2 12 1 209.956 224.587 10.426 23.900 o
2 12 2 637.042 668.801 21.191 6.518 o
2 12 3 994.942 1020.760 36.977 3.221 o
2 12 4 7.108 8.485 2.879 588.749 o
2 12 5 1136.050 1106.300 29.244 3.251 o
2 12 6 315.226 355.792 14.489 14.351 o
2 13 0 132.388 144.799 10.492 34.602 o
2 13 1 55.184 62.901 6.458 86.425 o
2 13 2 1686.540 1759.710 39.539 1.811 o
2 13 3 395.991 447.084 21.406 9.605 o
2 13 4 1271.500 1181.460 30.502 2.877 o
2 13 5 41.024 59.851 6.560 99.052 o
2 13 6 118.998 137.818 18.374 22.828 o
2 14 0 1752.350 1719.830 42.928 1.712 o
2 14 1 409.860 408.149 17.588 10.818 o
2 14 2 2.415 18.302 4.558 379.304 o
2 14 3 786.908 807.233 24.149 5.050 o
2 14 4 43.270 50.615 8.550 82.865 o
2 15 0 76.624 85.369 8.475 58.463 o
2 15 1 539.571 581.336 25.960 6.711 o
2 15 2 145.073 172.156 12.614 28.281 o
2 15 3 8.327 10.285 5.684 272.707 o
2 16 0 2533.810 2459.500 65.340 0.920 o
3 0 0 323.066 278.689 10.945 16.872 o
3 0 2 1934.660 1998.110 78.434 1.017 o
3 0 4 8272.990 8073.460 248.916 0.099 o
3 0 6 1064.430 1026.450 54.904 2.248 o
3 0 8 10.661 3.704 7.963 170.661 o
3 1 0 340.071 325.501 8.936 16.303 o
3 1 1 19.779 43.928 6.516 139.599 o
3 1 2 50.957 64.343 7.921 78.350 o
3 1 3 2938.020 2897.420 74.506 0.720 o
3 1 4 180.507 192.719 13.244 24.035 o
3 1 5 597.017 579.890 26.760 6.235 o
3 1 6 620.680 626.824 28.910 5.676 o
3 1 7 443.670 482.597 25.738 7.821 o
3 1 8 229.200 197.767 16.669 18.204 o
3 2 0 2.742 6.018 2.765 898.592 o
3 2 1 797.879 794.998 20.149 5.381 o
3 2 2 989.823 976.090 30.123 3.681 o
3 2 3 49.502 43.382 7.474 90.401 o
3 2 4 1717.100 1663.560 50.579 1.610 o
3 2 5 141.474 140.498 15.826 25.025 o
3 2 6 134.278 159.532 16.167 24.383 o
3 2 7 487.459 473.646 25.632 7.528 o
3 2 8 53.266 50.518 8.985 73.408 o
3 3 0 1124.860 1132.410 23.290 3.509 o
3 3 1 528.096 519.568 17.573 8.610 o
3 3 2 212.034 213.663 9.844 24.639 o
3 3 3 1117.390 1107.500 27.217 3.382 o
3 3 4 61.303 54.455 7.357 78.906 o
3 3 5 363.998 340.293 20.099 11.225 o
3 3 6 478.971 456.669 26.151 7.548 o
3 3 7 379.559 404.704 23.233 9.507 o
3 3 8 647.290 617.384 30.722 5.336 o
3 4 0 992.464 942.533 20.802 4.269 o
3 4 1 1620.720 1637.190 38.132 1.947 o
3 4 2 62.399 55.272 6.501 83.650 o
3 4 3 85.681 91.965 7.953 56.346 o
3 4 4 615.016 613.669 19.874 7.044 o
3 4 5 403.825 400.335 15.175 11.719 o
3 4 6 108.771 127.407 11.104 37.843 o
3 4 7 822.046 761.435 33.301 4.190 o
3 4 8 36.208 43.895 9.380 82.468 o
3 5 0 1015.910 1006.550 22.081 4.026 o
3 5 1 422.196 424.059 16.115 10.932 o
3 5 2 244.526 244.283 12.210 20.021 o
3 5 3 100.477 98.245 9.104 47.502 o
3 5 4 68.759 65.443 8.391 65.875 o
3 5 5 14.163 16.972 6.338 194.837 o
3 5 6 650.088 624.099 24.264 6.163 o
3 5 7 315.509 283.543 30.449 8.478 o
3 6 0 687.992 700.030 17.712 6.504 o
3 6 1 568.208 578.886 19.907 7.542 o
3 6 2 426.634 437.355 16.775 10.577 o
3 6 3 7.623 6.301 3.101 574.614 o
3 6 4 3.792 17.253 5.167 317.083 o
3 6 5 365.010 323.805 17.096 12.505 o
3 6 6 501.905 491.796 21.363 8.240 o
3 6 7 840.934 797.202 29.324 4.414 o
3 7 0 415.283 426.388 14.582 11.461 o
3 7 1 2125.110 2137.010 39.139 1.398 o
3 7 2 25.680 20.027 4.641 198.639 o
3 7 3 598.596 605.180 21.489 6.954 o
3 7 4 64.231 63.062 9.074 64.614 o
3 7 5 1046.060 990.238 32.815 3.381 o
3 7 6 121.067 101.517 11.685 36.593 o
3 7 7 1008.290 1070.190 35.485 3.230 o
3 8 0 1274.430 1292.290 30.338 2.787 o
3 8 1 2.912 4.357 3.049 854.172 o
3 8 2 1431.190 1362.340 36.091 2.337 o
3 8 3 17.923 15.829 5.445 214.188 o
3 8 4 193.920 171.215 11.363 25.971 o
3 8 5 41.505 58.531 10.452 66.929 o
3 8 6 821.547 812.836 30.377 4.363 o
3 9 0 635.131 619.755 19.279 6.957 o
3 9 1 3157.790 3285.570 58.161 0.725 o
3 9 2 63.485 69.010 7.679 71.500 o
3 9 3 320.090 307.686 15.619 14.325 o
3 9 4 17.028 21.121 5.177 215.971 o
3 9 5 171.737 146.321 12.663 27.059 o
3 9 6 36.535 28.829 7.612 108.624 o
3 10 0 238.072 228.049 12.441 20.548 o
3 10 1 137.604 138.153 8.401 38.165 o
3 10 2 368.649 370.917 14.428 12.945 o
3 10 3 3.636 16.020 5.649 288.806 o
3 10 4 71.660 52.993 10.329 57.118 o
3 10 5 101.768 85.668 10.521 44.297 o
3 11 0 1277.550 1190.350 33.463 2.750 o
3 11 1 109.015 115.662 8.868 44.347 o
3 11 2 726.582 719.445 21.017 5.856 o
3 11 3 79.326 110.008 11.770 42.456 o
3 11 4 1.908 2.589 4.108 646.640 o
3 12 0 1126.830 1226.050 31.844 3.038 o
3 12 1 347.080 300.455 14.031 14.442 o
3 12 2 173.908 219.270 10.341 26.792 o
3 12 3 25.418 40.411 5.136 157.167 o
3 13 0 733.084 727.738 22.986 5.592 o
3 13 1 239.612 310.525 14.260 17.465 o
4 0 0 957.945 931.882 36.172 3.431 o
4 0 2 587.128 672.780 43.153 4.000 o
4 0 4 495.132 442.595 44.810 4.329 o
4 1 0 2.803 2.373 4.502 534.370 o
4 1 1 118.880 98.857 12.749 34.642 o
4 1 2 397.473 372.007 27.084 8.359 o
4 1 3 12.032 -0.338 6.795 219.902 o
4 1 4 492.818 446.926 25.928 7.527 o
4 2 0 273.351 248.066 12.035 18.777 o
4 2 1 340.197 303.736 12.902 15.070 o
4 2 2 77.328 72.558 11.230 48.759 o
4 2 3 399.811 376.851 22.133 9.771 o
4 2 4 167.758 137.371 15.922 23.326 o
4 3 0 202.846 206.146 19.488 16.697 o
4 3 1 27.484 49.053 11.655 66.516 o
4 3 2 432.255 399.870 23.134 8.973 o
4 3 3 74.084 72.302 12.618 44.255 o
4 3 4 307.292 280.779 20.022 12.801 o
4 4 0 39.594 38.889 6.531 112.574 o
4 4 1 387.447 381.127 17.562 11.404 o
4 4 2 325.082 332.943 21.004 11.564 o
4 4 3 736.092 685.119 32.166 4.692 o
4 5 0 17.285 8.767 4.149 298.411 o
4 5 1 615.843 581.506 21.936 6.848 o
4 5 2 531.928 487.042 20.878 8.082 o
4 5 3 46.206 32.807 8.345 89.129 o
4 6 0 199.552 200.815 13.329 22.538 o
4 6 1 494.787 477.683 19.909 8.697 o
4 6 2 900.430 956.800 30.031 3.944 o
4 7 0 69.107 58.989 8.574 66.151 o
4 7 1 704.785 680.605 24.742 5.657 o
;
loop_
_space_group_symop_id
_space_group_symop_operation_xyz
1 x,y,z
2 -x,y+1/2,-z+1/2
3 -x,-y,-z
4 x,-y-1/2,z-1/2
loop_
_atom_site_label
_atom_site_type_symbol
_atom_site_fract_x
_atom_site_fract_y
_atom_site_fract_z
_atom_site_U_iso_or_equiv
_atom_site_adp_type
_atom_site_occupancy
_atom_site_refinement_flags_posn
Co01 Co 0.23245(12) 0.43814(3) 0.44086(4) 0.01359(17) Uani 1.000000 .
Cl00 Cl 0.6944(2) 0.50016(5) 0.34048(7) 0.0158(2) Uani 1.000000 .
N003 N 0.1881(7) 0.30813(19) 0.4701(3) 0.0153(6) Uani 1.000000 .
C004 C 0.0911(9) 0.0294(2) 0.5370(3) 0.0146(7) Uani 1.000000 .
H004 H 0.2079(9) 0.0082(2) 0.6138(3) 0.0175(8) Uiso 1.000000 R
C005 C 0.1257(8) 0.1237(2) 0.5094(3) 0.0142(7) Uani 1.000000 .
C006 C -0.0186(9) 0.1640(2) 0.3982(3) 0.0153(7) Uani 1.000000 .
H006 H -0.1396(9) 0.1294(2) 0.3332(3) 0.0183(8) Uiso 1.000000 R
C007 C 0.0162(9) 0.2542(2) 0.3840(3) 0.0158(7) Uani 1.000000 .
H007 H -0.0879(9) 0.2803(2) 0.3083(3) 0.0189(8) Uiso 1.000000 R
C008 C 0.3313(9) 0.2693(2) 0.5762(3) 0.0162(7) Uani 1.000000 .
H008 H 0.4554(9) 0.3055(2) 0.6387(3) 0.0194(9) Uiso 1.000000 R
C009 C 0.3067(9) 0.1793(2) 0.5989(3) 0.0166(7) Uani 1.000000 .
H009 H 0.4131(9) 0.1551(2) 0.6755(3) 0.0199(9) Uiso 1.000000 R
loop_
_atom_site_aniso_label
_atom_site_aniso_U_11
_atom_site_aniso_U_22
_atom_site_aniso_U_33
_atom_site_aniso_U_12
_atom_site_aniso_U_13
_atom_site_aniso_U_23
Co01 0.0176(3) 0.0077(3) 0.0151(3) -0.00195(17) -0.00003(18) 0.00324(17)
Cl00 0.0149(4) 0.0177(4) 0.0145(4) -0.0011(3) 0.0003(3) 0.0004(3)
N003 0.0153(14) 0.0146(14) 0.0164(14) 0.0012(11) 0.0030(11) 0.0003(12)
C004 0.0153(16) 0.0146(17) 0.0141(16) 0.0021(13) 0.0029(13) 0.0008(13)
C005 0.0123(15) 0.0161(17) 0.0148(16) 0.0009(13) 0.0043(13) -0.0004(13)
C006 0.0153(16) 0.0159(17) 0.0146(17) -0.0011(13) 0.0012(13) -0.0003(13)
C007 0.0154(16) 0.0192(17) 0.0127(16) 0.0002(13) 0.0010(13) 0.0007(14)
C008 0.0153(16) 0.0185(19) 0.0145(16) -0.0004(13) 0.0006(13) -0.0011(14)
C009 0.0169(16) 0.0166(18) 0.0163(17) 0.0003(13) 0.0019(13) 0.0021(14)
loop_
_atom_type_symbol
_atom_type_scat_dispersion_real
_atom_type_scat_dispersion_imag
_atom_type_scat_Cromer_Mann_a1
_atom_type_scat_Cromer_Mann_a2
_atom_type_scat_Cromer_Mann_a3
_atom_type_scat_Cromer_Mann_a4
_atom_type_scat_Cromer_Mann_b1
_atom_type_scat_Cromer_Mann_b2
_atom_type_scat_Cromer_Mann_b3
_atom_type_scat_Cromer_Mann_b4
_atom_type_scat_Cromer_Mann_c
_atom_type_scat_source
_atom_type_scat_dispersion_source
H 0.00000 0.00000 0.49300 0.32291 0.14019 0.04081 10.51090 26.12570 3.14236
57.79970 0.0030380000826
'International Tables Volume C Table 6.1.1.4 (pp. 500-502)'
'Henke, Gullikson and Davis, At. Data and Nucl. Data Tables, 1993, 54, 2'
C 0.00347 0.00161 2.31000 1.02000 1.58860 0.86500 20.84390 10.20750 0.56870
51.65120 0.215599998832
'International Tables Volume C Table 6.1.1.4 (pp. 500-502)'
'Henke, Gullikson and Davis, At. Data and Nucl. Data Tables, 1993, 54, 2'
Cl 0.14873 0.16029 11.46040 7.19640 6.25560 1.64550 0.01040 1.16620 18.51940
47.77840 -9.55739974976
'International Tables Volume C Table 6.1.1.4 (pp. 500-502)'
'Henke, Gullikson and Davis, At. Data and Nucl. Data Tables, 1993, 54, 2'
Co 0.35655 0.96576 12.28410 7.34090 4.00340 2.34880 4.27910 0.27840 13.53590
71.16920 1.01180005074
'International Tables Volume C Table 6.1.1.4 (pp. 500-502)'
'Henke, Gullikson and Davis, At. Data and Nucl. Data Tables, 1993, 54, 2'
N 0.00653 0.00323 12.21260 3.13220 2.01250 1.16630 0.00570 9.89330 28.99750
0.58260 -11.5290002823
'International Tables Volume C Table 6.1.1.4 (pp. 500-502)'
'Henke, Gullikson and Davis, At. Data and Nucl. Data Tables, 1993, 54, 2'
loop_
_geom_angle_atom_site_label_1
_geom_angle_atom_site_label_2
_geom_angle_atom_site_label_3
_geom_angle
_geom_angle_site_symmetry_1
_geom_angle_site_symmetry_3
N003 Co01 Cl00 102.68(8) . 3_666
N003 Co01 Cl00 112.14(8) . 1_455
N003 Co01 Cl00 123.08(8) . .
C007 N003 Co01 121.7(2) . .
C008 N003 Co01 121.9(2) . .
C008 N003 C007 116.4(3) . .
C005 C004 H004 117.41(19) . .
C006 C005 C004 124.1(3) . .
C009 C005 C004 119.3(3) . .
C009 C005 C006 116.5(3) . .
H006 C006 C005 120.3(2) . .
C007 C006 C005 119.4(3) . .
C007 C006 H006 120.3(2) . .
C006 C007 N003 124.3(3) . .
H007 C007 N003 117.85(19) . .
H007 C007 C006 117.8(2) . .
H008 C008 N003 118.40(19) . .
C009 C008 N003 123.2(3) . .
C009 C008 H008 118.4(2) . .
C008 C009 C005 120.2(3) . .
H009 C009 C005 119.9(2) . .
H009 C009 C008 119.9(2) . .
loop_
_geom_bond_atom_site_label_1
_geom_bond_atom_site_label_2
_geom_bond_distance
_geom_bond_site_symmetry_2
Co01 Co01 2.9205(9) 3_566
Co01 Co01 2.9315(9) 3_666
Co01 Cl00 2.3192(9) .
Co01 Cl00 2.3799(9) 1_455
Co01 Cl00 2.5126(9) 3_666
Co01 N003 1.991(3) .
N003 C007 1.345(4) .
N003 C008 1.345(4) .
C004 C004 1.331(7) 3_556
C004 H004 0.9500 .
C004 C005 1.458(5) .
C005 C006 1.399(5) .
C005 C009 1.398(5) .
C006 H006 0.9500 .
C006 C007 1.374(5) .
C007 H007 0.9500 .
C008 H008 0.9500 .
C008 C009 1.381(5) .
C009 H009 0.9500 .
loop_
_refln_index_h
_refln_index_k
_refln_index_l
_refln_F_squared_meas
_refln_F_squared_sigma
-1 0 0 1680.43 71.19
-1 0 0 1650.53 67.29
1 0 0 1660.83 70.79
1 0 0 1601.54 67.09
1 0 0 1709.03 71.09
1 0 0 1586.14 71.09
-2 0 0 6899.51 275.47
-2 0 0 6811.52 275.87
-2 0 0 6828.22 267.17
2 0 0 6701.43 267.07
2 0 0 6773.22 275.57
-3 0 0 195.98 16
-3 0 0 227.08 23.3
3 0 0 228.28 17.6
3 0 0 215.98 17.5
3 0 0 216.18 24.1
-4 0 0 790.62 55.69
4 0 0 702.73 57.99
4 0 0 689.73 38.7
-4 1 0 2.6 6.1
-4 1 0 0.2 6.5
3 -1 0 204.68 18.8
3 -1 0 241.38 26.1
-3 1 0 261.57 25.9
-3 1 0 262.57 20.4
2 -1 0 17.5 6.4
2 -1 0 22 5.2
-2 1 0 22.5 6.8
1 -1 0 5987.1 249.28
1 -1 0 6716.03 249.97
1 -1 0 6016.5 246.48
1 -1 0 6654.13 250.37
-1 1 0 6373.46 249.78
-1 1 0 6320.27 249.28
-1 1 0 6434.86 247.28
-1 -1 0 6612.44 253.87
-1 -1 0 6262.17 247.78
-1 -1 0 6595.54 252.17
1 1 0 6479.95 247.68
1 1 0 6464.65 248.28
1 1 0 6144.08 251.87
1 1 0 6516.25 253.07
-2 -1 0 19.5 4.7
-2 -1 0 18.4 6.5
-2 -1 0 21.3 7.2
2 1 0 10 3.7
2 1 0 17 6.4
-3 -1 0 272.17 18.8
-3 -1 0 244.08 24.7
-3 -1 0 290.07 26.8
3 1 0 269.77 27.1
3 1 0 262.57 18.8
3 1 0 217.98 17.9
-4 -1 0 7.5 8.7
4 1 0 -2 7.3
4 -2 0 197.48 17.8
4 -2 0 203.58 27.5
-4 2 0 175.08 25.4
-4 2 0 172.88 19.3
-3 2 0 20.1 6.2
-3 2 0 3.2 4.3
2 -2 0 4157.78 173.38
2 -2 0 4104.19 166.88
-2 2 0 3960.1 166.88
1 -2 0 158.58 12.6
1 -2 0 158.18 12.7
1 -2 0 147.59 11.4
-1 2 0 161.08 12.1
-1 2 0 158.08 12.4
-1 2 0 154.18 12.2
0 2 0 0.9 0.9
-1 -2 0 164.28 13.5
-1 -2 0 149.49 9.6
-1 -2 0 145.29 11.5
1 2 0 165.58 13.6
1 2 0 158.78 9.8
1 2 0 147.79 11.5
1 2 0 160.78 9.9
-2 -2 0 3962.2 167.68
-2 -2 0 3979 171.18
2 2 0 3849.61 159.68
2 2 0 4111.29 159.58
2 2 0 4087.19 171.08
-3 -2 0 1.3 4.5
-3 -2 0 -3.7 3.6
3 2 0 3.5 4.8
3 2 0 3.2 4.6
3 2 0 10.1 4.3
-4 -2 0 220.98 26.6
4 2 0 182.08 26.5
4 -3 0 148.49 24.2
-4 3 0 129.39 16.9
-4 3 0 134.39 22.2
3 -3 0 825.92 56.59
-3 3 0 903.61 50.39
-3 3 0 908.31 55.89
2 -3 0 674.33 40.5
2 -3 0 577.94 34.6
-2 3 0 638.54 36.5
-2 3 0 603.74 38.2
1 -3 0 3601.94 150.58
1 -3 0 4021.9 153.08
1 -3 0 3665.53 151.08
-1 3 0 3582.34 150.48
-1 3 0 3752.82 151.38
-1 3 0 3696.73 150.98
0 -3 0 0.6 1
0 3 0 0.8 0.7
-1 -3 0 3478.05 141.79
-1 -3 0 3546.85 143.89
1 3 0 3758.32 142.59
1 3 0 3368.46 148.29
1 3 0 3744.63 144.79
-2 -3 0 640.04 40.7
-2 -3 0 643.34 37.8
2 3 0 643.24 32.5
2 3 0 615.04 31.9
-3 -3 0 880.91 56.49
-3 -3 0 879.51 53.79
3 3 0 924.81 43.2
3 3 0 798.82 42.7
3 3 0 874.71 56.39
-4 -3 0 227.98 24.2
4 3 0 143.19 25.6
4 -4 0 30.7 13.1
-4 4 0 22.1 12.3
-4 4 0 28.7 10.9
3 -4 0 756.02 51.59
-3 4 0 690.63 48.5
-3 4 0 719.83 44.9
2 -4 0 442.86 31.8
-2 4 0 435.16 31.1
-2 4 0 456.85 30.6
1 -4 0 130.39 12.5
1 -4 0 122.49 11.6
1 -4 0 129.49 12.2
-1 4 0 107.79 10.9
-1 4 0 120.29 11.7
-1 4 0 125.49 12.3
0 -4 0 4076.69 164.98
0 -4 0 3914.11 161.58
0 -4 0 4208.48 158.88
0 4 0 3843.32 164.48
0 4 0 3966.3 161.78
0 4 0 4105.49 157.98
-1 -4 0 122.69 10.6
-1 -4 0 139.49 13.8
-1 -4 0 137.29 11.1
1 4 0 138.39 11.2
1 4 0 115.69 13.1
1 4 0 138.29 11.3
-2 -4 0 439.06 33
-2 -4 0 457.05 29.5
2 4 0 439.36 25.4
2 4 0 425.56 24.7
-3 -4 0 751.52 47.8
-3 -4 0 748.83 52.19
3 4 0 744.23 37.7
3 4 0 770.52 52.39
3 4 0 672.63 37.9
-4 -4 0 42.9 16.2
-4 -4 0 26.3 10.6
4 4 0 33.9 13.3
4 -5 0 -6.1 8
-4 5 0 12.7 9.1
-4 5 0 11.3 6.2
3 -5 0 800.02 55.49
-3 5 0 824.12 49.3
-3 5 0 815.52 53.79
2 -5 0 154.78 17.9
-2 5 0 143.39 16.4
-2 5 0 159.08 16.5
1 -5 0 4283.07 174.18
1 -5 0 4816.62 175.68
1 -5 0 4293.47 175.88
1 -5 0 3658.53 175.58
-1 5 0 3896.91 173.88
-1 5 0 4525.85 177.78
-1 5 0 4368.86 173.78
0 -5 0 0.8 2.1
0 -5 0 2.4 1.7
0 -5 0 0.6 1.1
0 5 0 -0.8 1.2
0 5 0 4.5 2.5
0 5 0 0.8 2.5
-1 -5 0 4411.76 177.78
-1 -5 0 4181.88 170.68
-1 -5 0 4461.35 170.68
1 5 0 4003 177.68
1 5 0 3906.91 170.58
1 5 0 4396.56 171.18
-2 -5 0 158.68 18.4
-2 -5 0 138.99 11.9
-2 -5 0 130.69 14.2
2 5 0 114.89 12
2 5 0 133.19 12.3
-3 -5 0 777.82 54.19
-3 -5 0 812.32 49.5
3 5 0 802.62 55.19
3 5 0 743.73 39.5
3 5 0 704.13 39.8
-4 -5 0 15.3 9.2
-4 -5 0 6.6 7.1
4 5 0 0.6 9.2
-4 6 0 128.09 22.7
-4 6 0 166.18 21.4
3 -6 0 522.95 42.4
-3 6 0 551.24 42.3
-3 6 0 540.15 40.4
2 -6 0 127.39 16.8
-2 6 0 134.59 16
-2 6 0 123.89 16.1
1 -6 0 132.99 15.6
1 -6 0 150.68 13.6
-1 6 0 113.39 14
-1 6 0 119.79 13.6
-1 6 0 125.49 12.4
0 -6 0 45.5 6.5
0 -6 0 53.09 8.4
0 -6 0 50.69 6.1
0 -6 0 59.89 9.2
0 6 0 55.19 8.6
0 6 0 51.99 6.4
0 6 0 45 10.7
-1 -6 0 120.59 12.5
-1 -6 0 120.39 11.6
-1 -6 0 126.39 15
1 6 0 120.79 12.1
1 6 0 127.69 12.8
-2 -6 0 146.59 12.2
-2 -6 0 136.69 17.6
-2 -6 0 115.49 13.6
2 6 0 123.49 12.9
2 6 0 104.19 11.9
-3 -6 0 541.15 44.5
-3 -6 0 571.84 39.6
3 6 0 559.54 32
3 6 0 523.15 43.8
3 6 0 513.75 32.2
-4 -6 0 139.89 24
-4 -6 0 165.18 20.9
4 6 0 168.28 28.1
4 -7 0 39.5 15.6
-4 7 0 48.4 15.8
-4 7 0 58.79 16.9
3 -7 0 347.77 32
-3 7 0 321.27 31.1
-3 7 0 323.17 31.6
2 -7 0 49.5 12
2 -7 0 50.79 12.8
-2 7 0 45.6 10.7
-2 7 0 54.19 13.4
1 -7 0 1507.85 78.09
1 -7 0 1513.85 71.39
-1 7 0 1497.95 70.59
-1 7 0 1550.04 76.49
0 -7 0 0.5 2
0 -7 0 2.3 2.1
0 -7 0 -0.4 1.7
0 7 0 -1.3 1.2
0 7 0 5.2 4.9
-1 -7 0 1467.55 68.19
-1 -7 0 1464.35 71.99
-1 -7 0 1514.15 76.59
1 7 0 1525.65 71.29
-2 -7 0 45.8 9.5
-2 -7 0 54.79 14.1
-2 -7 0 54.09 9.6
2 7 0 65.69 9.6
-3 -7 0 335.07 34.2
-3 -7 0 317.97 28.5
3 7 0 339.07 23.5
3 7 0 316.47 32.3
-4 -7 0 47.3 17.6
-4 -7 0 34.4 14.3
4 7 0 45.5 18.2
4 -8 0 454.15 46.3
4 -8 0 439.26 46.1
-4 8 0 558.24 43
-4 8 0 489.35 45.1
3 -8 0 986.2 66.39
3 -8 0 1057.79 69.09
-3 8 0 1008 64.59
-3 8 0 1049.2 65.89
2 -8 0 1556.74 81.69
2 -8 0 1578.24 86.59
-2 8 0 1561.14 81.29
-2 8 0 1709.33 86.89
1 -8 0 55.19 9.1
1 -8 0 81.19 12.1
-1 8 0 49.7 12.2
-1 8 0 64.29 9.3
0 -8 0 1090.79 53.99
0 -8 0 1067.69 50.79
0 -8 0 1065.89 61.79
0 8 0 1103.79 51.59
0 8 0 1146.49 59.49
-1 -8 0 61.19 9
-1 -8 0 54.49 12.9
1 8 0 43.3 9.8
1 8 0 54.09 8.8
-2 -8 0 1484.55 73.69
-2 -8 0 1581.84 84.89
2 8 0 1486.55 73.99
-3 -8 0 930.21 56.59
-3 -8 0 945.61 65.89
3 8 0 1018.7 52.09
-4 -8 0 521.95 50.49
-4 -8 0 551.34 44.6
4 8 0 444.56 48.2
4 -9 0 117.69 27.8
4 -9 0 87.09 21.2
-4 9 0 68.19 20.3
-4 9 0 54.19 17.2
3 -9 0 494.15 45.9
3 -9 0 529.65 44.2
-3 9 0 506.85 43.7
-3 9 0 485.35 41.6
2 -9 0 0.7 3.8
2 -9 0 6 8.6
-2 9 0 11.1 6.9
-2 9 0 7.6 5.7
1 -9 0 461.55 31.6
1 -9 0 478.15 38.3
-1 9 0 498.95 30.9
-1 9 0 433.86 35.1
0 -9 0 -2.4 2.2
0 -9 0 -0.4 2.7
0 -9 0 -4.3 2.7
0 9 0 1.6 3.8
0 9 0 -1 2.6
-1 -9 0 474.55 29.3
-1 -9 0 464.65 35.6
1 9 0 461.15 32.5
1 9 0 438.86 28.5
-2 -9 0 6.3 4.7
-2 -9 0 8.9 7.3
2 9 0 2.8 4.3
-3 -9 0 478.15 44.1
-3 -9 0 520.15 35.8
3 9 0 378.36 29.9
-4 -9 0 80.99 23.5
-4 -9 0 96.59 20.6
4 9 0 112.59 20.7
4 -10 0 250.47 35.2
4 -10 0 259.87 34.2
-4 10 0 291.67 34.4
-4 10 0 198.98 30.7
3 -10 0 204.08 27.1
3 -10 0 173.58 25
-3 10 0 168.68 26.3
-3 10 0 171.38 24.1
2 -10 0 13.3 6.9
2 -10 0 -6 3.7
-2 10 0 -1.6 6
-2 10 0 10.8 6.5
1 -10 0 463.05 32.1
1 -10 0 463.55 39.1
-1 10 0 443.56 36.3
0 -10 0 386.36 28.2
0 -10 0 380.36 34.3
0 10 0 410.36 33.4
-1 -10 0 438.66 29.3
-1 -10 0 437.56 36.6
1 10 0 437.16 33.5
1 10 0 438.16 28.1
-2 -10 0 3 6
-2 -10 0 22.8 7.4
2 10 0 11.7 5.4
-3 -10 0 165.88 24.8
3 10 0 174.78 18.1
-4 -10 0 220.28 28.4
-4 -10 0 213.08 32.6
4 10 0 219.48 33.1
4 -11 0 31.6 19
4 -11 0 46.7 14.9
-4 11 0 48 14.5
3 -11 0 943.41 72.69
3 -11 0 992.8 67.39
-3 11 0 1005.5 70.79
-3 11 0 977.9 65.59
2 -11 0 24 12.8
2 -11 0 15.2 7.5
-2 11 0 17.8 10
-2 11 0 25.9 8.4
1 -11 0 1423.06 82.69
1 -11 0 1280.47 69.69
-1 11 0 1362.66 78.39
0 -11 0 1.8 4.2
0 11 0 -4 2.5
-1 -11 0 1349.77 77.99
-1 -11 0 1329.97 66.69
1 11 0 1307.17 72.99
-2 -11 0 10.3 5.5
-2 -11 0 10 8.8
2 11 0 25.6 9.5
-3 -11 0 768.82 51.09
-3 -11 0 876.61 65.99
3 11 0 930.41 53.49
-4 -11 0 40.6 16.5
-4 -11 0 38.2 11.8
4 11 0 44 17
3 -12 0 950.4 66.29
3 -12 0 982.9 76.29
-3 12 0 911.81 63.69
-3 12 0 932.11 69.49
2 -12 0 61.39 15.5
2 -12 0 64.69 18
-2 12 0 61.09 18.1
1 -12 0 64.09 14.2
1 -12 0 39.1 13.3
-1 12 0 67.09 18.4
0 -12 0 562.24 37.8
0 -12 0 558.24 46.1
0 12 0 579.04 44.3
-1 -12 0 74.79 18.3
-1 -12 0 63.89 13
1 12 0 61.29 15.3
-2 -12 0 58.09 11.6
-2 -12 0 62.89 18
2 12 0 78.29 12.3
-3 -12 0 941.31 71.09
-3 -12 0 970.5 57.89
3 12 0 945.91 57.69
3 -13 0 566.24 57.39
3 -13 0 592.44 50.89
-3 13 0 612.44 47.9
-3 13 0 544.85 51.99
2 -13 0 125.69 28.8
2 -13 0 98.69 21
-2 13 0 91.89 22.3
1 -13 0 1290.27 70.19
1 -13 0 1210.28 81.09
-1 13 0 1209.08 77.79
0 -13 0 5.7 4.1
0 13 0 0.4 5
-1 -13 0 1257.67 65.79
-1 -13 0 1245.78 78.09
1 13 0 1208.78 73.89
-2 -13 0 110.99 14.4
-2 -13 0 116.29 25.1
2 13 0 122.59 17.4
-3 -13 0 588.84 38.8
-3 -13 0 568.04 53.29
3 13 0 470.15 39.1
3 -14 0 31 11.1
3 -14 0 20.2 12.7
-3 14 0 37.1 13.8
-3 14 0 26.6 15.1
2 -14 0 1377.16 92.39
2 -14 0 1314.77 78.99
-2 14 0 1284.07 87.09
1 -14 0 157.98 18.7
1 -14 0 164.98 25.9
-1 14 0 135.39 27.9
0 -14 0 1117.09 75.09
0 -14 0 1131.29 63.99
0 14 0 1166.58 73.69
-1 -14 0 117.59 16.5
-1 -14 0 187.48 21.6
1 14 0 156.78 20.6
-2 -14 0 1379.06 87.29
-2 -14 0 1368.96 69.99
2 14 0 1247.68 78.29
-3 -14 0 9.1 12.3
-3 -14 0 15.1 10.8
3 14 0 20.9 10
3 -15 0 122.89 27.1
3 -15 0 74.49 27.8
-3 15 0 107.29 25.4
2 -15 0 45.5 15.4
2 -15 0 62.59 26.1
-2 15 0 51.19 18
1 -15 0 561.94 41
1 -15 0 491.05 48.4
-1 15 0 487.25 47
0 -15 0 -1.7 6.7
0 -15 0 5 3.7
0 15 0 3.1 6.6
-1 -15 0 552.54 36.9
-1 -15 0 523.25 48.3
1 15 0 516.05 45.6
-2 -15 0 45.6 16.7
-2 -15 0 77.79 11.7
2 15 0 79.29 16.6
-3 -15 0 88.89 25.5
-3 16 0 11.7 10.9
2 -16 0 1946.71 120.49
2 -16 0 1817.62 104.09
-2 16 0 1877.71 117.29
1 -16 0 0.1 10.3
1 -16 0 8.8 7
-1 16 0 -3.9 6.9
0 -16 0 3295.67 151.68
0 -16 0 3182.88 166.28
0 16 0 3336.07 166.18
-1 -16 0 18.2 6.6
-1 -16 0 -5.5 6.4
1 16 0 3.6 7.1
-2 -16 0 1871.71 114.89
2 16 0 1996.2 110.29
2 -17 0 49.2 16.6
2 -17 0 33.6 21.6
-2 17 0 58.29 22.7
1 -17 0 313.87 29
1 -17 0 255.37 37.9
-1 17 0 216.38 33.2
0 -17 0 -4.6 6.5
0 -17 0 17.3 5.7
0 17 0 9.2 9.7
-1 -17 0 272.67 24.8
-1 -17 0 311.17 33.1
1 17 0 264.57 33.8
-2 -17 0 64.39 21
2 17 0 72.79 18.9
2 -18 0 733.33 60.49
2 -18 0 657.63 64.89
-2 18 0 790.82 70.59
1 -18 0 47.6 20.8
1 -18 0 69.69 18.6
-1 18 0 40.9 17.1
0 -18 0 1111.89 80.19
0 -18 0 1029 65.09
0 18 0 1033.2 79.09
-1 -18 0 52.99 20.3
1 18 0 81.39 20
-2 -18 0 761.82 67.49
2 18 0 858.51 63.99
1 -19 0 635.44 52.79
1 -19 0 565.14 58.79
-1 19 0 695.43 63.29
0 -19 0 -13.1 7.7
0 -19 0 10.7 9.4
0 19 0 -2.6 10.5
-1 -19 0 570.84 58.49
1 19 0 668.23 57.09
0 -20 0 51.99 20.3
0 20 0 54.29 16.5
0 20 -1 44.2 13.2
0 -20 1 8.1 14.1
1 19 -1 46.3 19.7
-1 -19 1 99.09 24.4
0 19 -1 362.26 45.4
0 -19 1 372.96 47.9
-1 19 -1 51.89 19.5
1 -19 1 55.99 22.5
1 -19 1 72.09 25.3
-2 -18 1 45.3 17.2
1 18 -1 320.37 38.5
-1 -18 1 283.07 39.5
0 18 -1 82.19 23.5
0 -18 1 100.59 25.4
0 -18 1 89.89 20
-1 18 -1 113.89 26.9
1 -18 1 124.99 33.3
1 -18 1 110.89 22.6
-2 18 -1 13.3 15.8
2 -18 1 -6.3 17.6
2 17 -1 976.4 73.49
-2 -17 1 1125.99 82.49
-1 -17 1 8.8 10.2
0 17 -1 1398.76 91.29
0 -17 1 1355.26 73.59
0 -17 1 1316.07 92.69
-1 17 -1 3.7 8.5
1 -17 1 1.2 8.5
1 -17 1 -2.2 9.3
-2 17 -1 227.58 36.1
2 -17 1 229.68 41
2 -17 1 175.48 29.4
3 16 -1 12.7 13.1
-3 -16 1 3.2 9.9
2 16 -1 10 9.2
-2 -16 1 -3.1 5.2
-2 -16 1 -8.4 7.1
1 16 -1 -2.1 8.4
-1 -16 1 14 6
-1 -16 1 1.1 8.2
0 16 -1 -6.6 7.1
0 -16 1 -3.3 8.9
-1 16 -1 3 8.5
1 -16 1 11.8 9.8
-2 16 -1 9 13.4
2 -16 1 -17.1 12.1
3 15 -1 10.6 9
-3 -15 1 -15.8 8.3
2 15 -1 1533.55 90.99
-2 -15 1 1480.85 97.19
1 15 -1 53.19 15.8
-1 -15 1 66.59 19.3
-1 -15 1 49.5 10.8
0 15 -1 2039.3 115.79
0 -15 1 2125.29 120.69
0 -15 1 2090.89 100.29
-1 15 -1 1.8 8.4
1 -15 1 23.2 11.3
1 -15 1 10.5 7.3
-2 15 -1 389.66 43.4
2 -15 1 406.86 49.1
2 -15 1 429.86 37
-3 15 -1 15.4 11.9
-3 15 -1 8.5 16.2
3 -15 1 8.9 19.4
3 -15 1 12 13.8
3 14 -1 312.97 33.2
-3 -14 1 403.06 45.4
2 14 -1 -5.2 7.1
-2 -14 1 7.5 5.2
1 14 -1 738.33 53.29
-1 -14 1 691.43 56.89
-1 -14 1 688.63 40.9
0 14 -1 213.18 27.7
0 -14 1 230.18 31.1
0 -14 1 196.38 21.7
-1 14 -1 588.14 50.19
1 -14 1 587.04 41.3
1 -14 1 619.84 52.39
-2 14 -1 351.26 39.5
2 -14 1 317.57 40.1
2 -14 1 313.37 32
-3 14 -1 406.06 40.4
-3 14 -1 397.26 46.2
3 -14 1 357.76 48.5
3 -14 1 403.86 41
3 13 -1 60.49 13.8
-3 -13 1 36.6 15.2
-3 -13 1 37.5 11.4
2 13 -1 906.31 59.69
-2 -13 1 875.61 47.3
-2 -13 1 869.91 66.39
1 13 -1 130.79 19.8
1 13 -1 115.09 13.2
-1 -13 1 168.48 12.9
-1 -13 1 131.99 14.7
-1 -13 1 121.19 22.2
0 13 -1 942.01 64.69
0 -13 1 1033.8 70.49
0 -13 1 943.01 53.89
-1 13 -1 322.87 34.4
1 -13 1 348.87 28.3
1 -13 1 333.87 38.5
-2 13 -1 45.3 12.6
-2 13 -1 42.1 15.4
2 -13 1 32.8 11.2
2 -13 1 52.39 16.1
-3 13 -1 215.88 30.9
-3 13 -1 237.38 28.7
3 -13 1 268.17 38.7
3 -13 1 210.88 28
4 12 -1 51.29 21.4
3 12 -1 665.73 47.7
-3 -12 1 740.73 43.7
-3 -12 1 650.93 58.69
2 12 -1 19.4 9
-2 -12 1 17.4 10.8
1 12 -1 2270.07 116.19
1 12 -1 2347.86 99.99
-1 -12 1 2372.96 124.29
-1 -12 1 2322.17 102.69
-1 -12 1 2358.86 98.99
0 12 -1 133.69 19.5
0 -12 1 120.29 15.1
0 -12 1 141.29 22.7
-1 12 -1 1998.8 106.49
1 -12 1 2037.2 114.29
1 -12 1 1961.7 96.09
-2 12 -1 180.48 19.7
-2 12 -1 209.38 24.2
2 -12 1 171.68 20.7
2 -12 1 172.38 24.4
-3 12 -1 219.18 31.4
-3 12 -1 257.47 29.3
3 -12 1 222.68 28.8
3 -12 1 241.68 35.9
4 11 -1 -4.2 9.3
-4 -11 1 -8.7 7.6
-4 -11 1 4.8 10.1
3 11 -1 119.59 17.7
-3 -11 1 96.79 14.2
-3 -11 1 92.59 24.1
2 11 -1 14.2 4.7
-2 -11 1 3.1 4.7
-2 -11 1 0.3 5.4
1 11 -1 431.96 24.5
1 11 -1 412.86 34.4
-1 -11 1 380.86 37.1
-1 -11 1 392.46 25.9
0 11 -1 63.29 15.1
0 -11 1 76.39 11.2
0 -11 1 83.79 19.5
0 -11 1 53.59 8.7
-1 11 -1 401.16 35
1 -11 1 432.86 41.4
1 -11 1 386.96 29.2
-2 11 -1 195.38 25.7
-2 11 -1 219.28 20.5
2 -11 1 222.78 26.4
2 -11 1 159.88 20.7
-3 11 -1 81.69 19.9
-3 11 -1 100.19 24.2
3 -11 1 72.69 19.3
3 -11 1 101.09 27.4
-4 11 -1 296.37 32.5
-4 11 -1 240.58 35.9
4 -11 1 220.88 33.8
4 -11 1 275.67 43.1
4 10 -1 55.79 14.1
4 10 -1 28.2 16.4
-4 -10 1 37.7 11.5
-4 -10 1 26.8 14.5
-3 -10 1 120.39 16.3
-3 -10 1 125.89 22
2 10 -1 54.89 13.1
-2 -10 1 37.3 9
-2 -10 1 20.5 9.9
1 10 -1 710.63 38.4
1 10 -1 848.12 51.19
-1 -10 1 811.82 55.39
-1 -10 1 803.52 40.8
0 10 -1 219.98 23.6
0 -10 1 210.18 26.1
0 -10 1 240.58 19.1
0 -10 1 248.88 17.2
-1 10 -1 1794.12 84.19
-1 10 -1 1741.13 92.89
1 -10 1 1835.62 85.29
1 -10 1 1747.13 99.49
-2 10 -1 1839.92 97.69
-2 10 -1 1683.83 89.59
2 -10 1 1830.42 92.09
2 -10 1 1823.82 103.89
-3 10 -1 148.79 20.9
-3 10 -1 102.99 18.4
3 -10 1 69.39 23.2
3 -10 1 96.69 21.2
-4 10 -1 141.99 30.3
-4 10 -1 140.29 25
4 -10 1 135.79 32.3
4 -10 1 129.59 28.9
4 9 -1 9 10.9
-4 -9 1 5.8 9.4
-4 -9 1 35.6 14.1
3 9 -1 167.58 18.5
-3 -9 1 174.28 18.8
-3 -9 1 175.98 26.6
2 9 -1 350.46 28.8
-2 -9 1 347.67 24.1
-2 -9 1 354.16 34.2
1 9 -1 1121.59 52.69
1 9 -1 1095.19 62.69
-1 -9 1 1257.87 54.39
-1 -9 1 1118.39 67.99
0 9 -1 681.93 44.6
0 -9 1 673.63 37.3
0 -9 1 719.53 35.7
0 -9 1 733.23 50.59
-1 9 -1 3461.35 145.69
-1 9 -1 3223.68 153.58
1 -9 1 3377.46 161.98
1 -9 1 3616.24 147.39
-2 9 -1 1803.02 90.59
-2 9 -1 1835.92 95.29
2 -9 1 1750.52 91.89
2 -9 1 1824.12 101.59
-3 9 -1 2539.25 129.49
-3 9 -1 2663.83 130.99
3 -9 1 2630.54 140.19
3 -9 1 2536.05 132.19
-4 9 -1 577.64 51.49
-4 9 -1 555.24 48
4 -9 1 534.55 56.39
4 -9 1 589.44 54.39
4 8 -1 49.9 12.2
4 8 -1 54.59 20.2
-4 -8 1 54.69 15.8
-4 -8 1 53.89 19.1
3 8 -1 10 6.5
-3 -8 1 11.5 8.4
-3 -8 1 26.2 7.3
2 8 -1 28.2 9.5
-2 -8 1 15.7 9.1
-2 -8 1 25.4 7.3
1 8 -1 340.87 26.9
1 8 -1 331.07 20.8
-1 -8 1 361.26 31.3
-1 -8 1 378.06 21.7
0 8 -1 10 4.3
0 -8 1 -1.1 2.9
0 -8 1 5.8 2.7
-1 8 -1 15.2 5.4
-1 8 -1 7.9 4.8
1 -8 1 15.5 5.6
1 -8 1 16 7.9
-2 8 -1 65.29 11.6
-2 8 -1 35.4 9.9
2 -8 1 47 14.6
-3 8 -1 3 5.7
-3 8 -1 7 4.1
3 -8 1 16.6 6
-4 8 -1 11.7 9.2
-4 8 -1 17 10.2
4 7 -1 33.4 11.2
4 7 -1 54.09 15.8
-4 -7 1 50.79 12.1
-4 -7 1 29.6 15.4
3 7 -1 5.1 5.9
-3 -7 1 -5.9 3.7
-3 -7 1 1.9 4.6
2 7 -1 549.65 35
-2 -7 1 516.25 40.4
-2 -7 1 516.15 31.4
1 7 -1 348.97 25.9
1 7 -1 332.87 20.2
-1 -7 1 358.66 29.6
-1 -7 1 347.87 20.1
0 7 -1 5523.75 226.98
0 -7 1 5490.25 215.98
0 -7 1 5511.65 233.78
0 -7 1 5505.65 217.58
-1 7 -1 3917.71 168.28
-1 7 -1 4117.99 175.78
1 -7 1 4134.59 169.98
1 -7 1 4220.98 181.78
-2 7 -1 1716.03 88.19
-2 7 -1 1748.43 87.39
2 -7 1 1832.82 94.89
-3 7 -1 1635.64 86.69
-3 7 -1 1609.54 89.89
3 -7 1 1674.03 94.29
-4 7 -1 552.44 48.1
-4 7 -1 513.45 40.6
4 -7 1 516.15 50.59
4 6 -1 29.7 8.1
4 6 -1 38.9 15.9
-4 -6 1 22.9 10.5
-4 -6 1 20.8 11
3 6 -1 907.51 49.5
3 6 -1 908.51 60.59
-3 -6 1 889.81 60.19
-3 -6 1 824.22 51.19
2 6 -1 -1.1 3
-2 -6 1 9.6 5
-2 -6 1 -0.9 2.8
1 6 -1 4616.14 184.88
1 6 -1 4488.05 177.68
-1 -6 1 4551.04 190.58
-1 -6 1 4596.64 176.48
-1 -6 1 4078.29 182.68
0 6 -1 663.23 43.2
0 6 -1 706.53 39.7
0 -6 1 731.03 44.8
0 -6 1 745.63 33.5
0 -6 1 650.23 38.6
0 -6 1 704.63 32.4
-1 6 -1 2234.48 101.69
-1 6 -1 2346.87 106.89
1 -6 1 2377.66 102.89
1 -6 1 2507.35 112.09
-2 6 -1 636.64 41.5
-2 6 -1 661.93 42.1
2 -6 1 696.83 46.4
-3 6 -1 395.66 36
-3 6 -1 471.55 34.5
3 -6 1 439.36 40.3
-4 6 -1 370.46 37.9
-4 6 -1 352.36 31.3
4 -6 1 350.06 39.3
4 5 -1 16.2 6.5
4 5 -1 -0.9 8.9
-4 -5 1 -1.1 6.7
-4 -5 1 8.7 8.1
3 5 -1 53.49 14.9
3 5 -1 79.09 11.6
-3 -5 1 75.99 12.4
-3 -5 1 91.89 16.7
2 5 -1 230.98 18.9
2 5 -1 223.88 18.6
-2 -5 1 251.37 24.3
-2 -5 1 241.98 18.7
-2 -5 1 218.58 18.3
1 5 -1 696.43 34.1
1 5 -1 793.12 39.5
-1 -5 1 763.52 43.3
-1 -5 1 640.24 32.7
-1 -5 1 713.83 37.8
0 5 -1 93.69 10.6
0 5 -1 89.89 12.4
0 -5 1 98.29 7.5
0 -5 1 84.59 11.9
0 -5 1 88.29 6.8
0 -5 1 78.19 9.6
-1 5 -1 1538.85 74.89
-1 5 -1 1602.24 71.69
-1 5 -1 1621.94 74.99
1 -5 1 1570.54 73.59
1 -5 1 1539.15 71.59
1 -5 1 1662.43 78.59
-2 5 -1 229.68 21.7
-2 5 -1 229.88 21
2 -5 1 229.58 23.5
-3 5 -1 332.27 28.1
-3 5 -1 327.87 30.8
3 -5 1 307.87 32.9
-4 5 -1 479.05 35
-4 5 -1 453.85 42.9
4 -5 1 428.16 46
4 4 -1 -2.9 7.6
4 4 -1 -9.6 5.1
-4 -4 1 13.6 7
-4 -4 1 4.5 7.9
3 4 -1 2048 91.29
3 4 -1 1949.7 104.39
-3 -4 1 2034.4 97.09
-3 -4 1 1937.41 104.09
2 4 -1 238.78 18.8
2 4 -1 263.97 19.7
-2 -4 1 271.67 20.2
-2 -4 1 265.97 24.5
1 4 -1 3955.6 163.88
1 4 -1 3778.92 153.28
1 4 -1 3939.11 157.78
-1 -4 1 3822.92 156.78
-1 -4 1 3951.2 163.48
-1 -4 1 3810.32 152.78
0 4 -1 823.82 45.8
0 4 -1 926.61 36.8
0 4 -1 816.92 42.2
0 -4 1 964.7 37.2
0 -4 1 866.21 36.4
0 -4 1 856.41 46.4
0 -4 1 786.82 41.5
-1 4 -1 1913.51 90.79
-1 4 -1 2137.59 91.19
1 -4 1 2191.38 94.69
1 -4 1 2090.89 89.99
1 -4 1 2034.6 89.69
-2 4 -1 106.19 14
-2 4 -1 123.19 13
2 -4 1 102.09 12.3
2 -4 1 131.19 16.2
-3 4 -1 1259.77 65.79
-3 4 -1 1301.07 73.79
3 -4 1 1276.67 76.19
-4 4 -1 264.27 31.5
-4 4 -1 318.17 23.9
4 -4 1 254.27 33.1
4 3 -1 1000.5 52.89
4 3 -1 1023.5 71.19
-4 -3 1 1066.29 65.39
-4 -3 1 929.71 68.19
3 3 -1 82.89 18.5
3 3 -1 81.09 14.8
3 3 -1 71.09 10.7
-3 -3 1 102.29 13.4
-3 -3 1 74.79 17
2 3 -1 2210.78 95.39
2 3 -1 2146.59 96.09
-2 -3 1 2220.08 104.19
-2 -3 1 2274.07 98.09
1 3 -1 612.74 36.1
1 3 -1 695.53 33.1
1 3 -1 647.54 30.4
-1 -3 1 632.74 36
-1 -3 1 593.34 31.6
-1 -3 1 662.13 30.3
0 3 -1 3347.36 129.69
0 3 -1 3051.39 123.59
0 3 -1 3152.78 133.19
0 -3 1 3136.19 133.29
0 -3 1 3200.88 129.09
0 -3 1 3375.36 123.89
0 -3 1 3126.69 123.69
-1 3 -1 1181.58 52.69
-1 3 -1 1070.39 52.89
-1 3 -1 1152.08 51.69
1 -3 1 1124.99 54.69
1 -3 1 1034.9 50.09
1 -3 1 1077.09 51.89
-2 3 -1 65.09 10.4
-2 3 -1 45.8 7.4
2 -3 1 60.39 8.5
2 -3 1 43.7 11.1
-3 3 -1 421.86 35.6
-3 3 -1 384.56 27.4
3 -3 1 426.76 37.3
-4 3 -1 1.2 9.8
-4 3 -1 32 8.5
4 -3 1 25.2 10.5
4 2 -1 93.29 10.3
4 2 -1 79.39 20.1
-4 -2 1 51.39 15.3
3 2 -1 1342.87 64.09
3 2 -1 1279.87 74.59
3 2 -1 1335.67 74.69
-3 -2 1 1333.87 75.09
-3 -2 1 1296.87 70.49
2 2 -1 299.17 23.8
2 2 -1 220.58 18.1
2 2 -1 263.67 18.9
-2 -2 1 258.47 18.2
-2 -2 1 333.47 22.6
-2 -2 1 285.67 23.7
1 2 -1 1668.93 77.19
1 2 -1 1891.31 73.99
1 2 -1 1753.02 72.79
1 2 -1 1731.33 73.89
-1 -2 1 1720.03 72.19
-1 -2 1 1682.33 72.89
0 2 -1 648.44 26.5
0 2 -1 661.43 30.3
0 2 -1 641.24 32.7
0 -2 1 641.24 32.7
0 -2 1 639.64 26.5
0 -2 1 670.73 30.2
-1 2 -1 2496.65 102.29
-1 2 -1 2478.95 99.09
-1 2 -1 2124.89 101.09
1 -2 1 2624.14 103.89
1 -2 1 2367.26 98.49
-2 2 -1 770.12 39.2
-2 2 -1 751.42 45.2
2 -2 1 846.42 47.7
2 -2 1 740.43 38.2
-3 2 -1 627.24 44.3
-3 2 -1 605.54 35.4
3 -2 1 634.64 35.2
3 -2 1 600.94 45.5
-4 2 -1 200.28 18.9
-4 2 -1 248.48 29.8
4 -2 1 226.68 31.1
4 -2 1 256.17 18.5
4 1 -1 2126.29 97.59
4 1 -1 2174.88 117.59
-4 -1 1 2096.09 110.59
3 1 -1 5.7 4.2
-3 -1 1 5.7 3.5
-3 -1 1 0 4.1
-3 -1 1 3.2 3.9
2 1 -1 7865.71 347.07
2 1 -1 8876.41 347.27
2 1 -1 9332.07 355.56
-2 -1 1 9222.38 348.67
-2 -1 1 9012.9 355.56
-2 -1 1 8982.6 351.66
1 1 -1 527.25 27.8
1 1 -1 551.44 27.6
1 1 -1 568.14 30.1
1 1 -1 585.84 27.6
-1 -1 1 578.44 30.2
-1 -1 1 535.95 27.7
-1 -1 1 570.74 27.5
0 1 -1 -0.2 0.3
0 1 -1 -0.2 0.5
0 1 -1 0.8 0.5
0 -1 1 0 0.4
0 -1 1 -0.1 0.4
0 -1 1 0.8 0.8
-1 1 -1 469.25 22.4
-1 1 -1 470.75 26.3
1 -1 1 431.46 25.9
1 -1 1 470.65 26.6
1 -1 1 483.85 22.2
-2 1 -1 2135.79 89.99
-2 1 -1 2224.98 99.69
2 -1 1 2111.19 89.39
2 -1 1 2123.69 100.39
-3 1 -1 23.4 7
3 -1 1 20.3 7.9
3 -1 1 28.1 6
-4 1 -1 83.19 20.8
4 -1 1 83.79 21.8
4 0 -1 3.4 8.5
-4 0 1 5.2 6.6
-4 0 1 -6.4 6
3 0 -1 -1.2 2.6
3 0 -1 3.1 4.7
-3 0 1 -1.1 3.7
-3 0 1 -1.8 3.1
2 0 -1 7.2 3.3
2 0 -1 2.3 3.4
-2 0 1 -1 2
-2 0 1 -1.2 2.2
-2 0 1 0.5 1.7
-1 0 1 19.1 4.3
-1 0 -1 -1.3 0.8
-1 0 -1 4.3 1.5
1 0 1 0.7 1
1 0 1 0.9 1.6
1 0 1 0 1.2
-2 0 -1 -1.7 2.4
2 0 1 0.8 2.9
2 0 1 5.6 2.2
-3 0 -1 2.6 3.1
-3 0 -1 1.1 2.7
3 0 1 -1 2.9
3 0 1 6.4 2.8
3 0 1 0.1 4.5
-4 0 -1 -2.1 4.6
4 -1 -1 2017.3 111.49
4 -1 -1 1860.91 92.79
-4 1 1 1994.1 94.39
-4 1 1 2000.8 106.19
3 -1 -1 7.4 3.2
-3 1 1 4.1 2.4
-3 1 1 1.5 3.9
2 -1 -1 8773.22 354.16
2 -1 -1 9129.09 358.36
-2 1 1 9248.67 358.16
-2 1 1 8881.21 354.96
1 -1 -1 562.94 28
1 -1 -1 536.75 28.4
1 -1 -1 565.44 28.2
1 -1 -1 566.04 28.8
-1 1 1 553.34 27.6
-1 1 1 547.85 27.9
-1 1 1 580.84 29.1
-1 1 1 519.75 28
0 -1 -1 0 0.2
0 -1 -1 0.5 0.6
0 -1 -1 -0.1 0.5
0 1 1 -0.1 0.3
0 1 1 -0.6 0.6
0 1 1 0.1 0.3
0 1 1 0 0.2
-1 -1 -1 463.45 25.7
-1 -1 -1 464.85 25.9
-1 -1 -1 459.65 26
1 1 1 451.45 25.8
1 1 1 459.25 26.4
1 1 1 459.85 25.7
-2 -1 -1 2231.78 100.69
-2 -1 -1 2097.39 99.09
2 1 1 2158.78 100.29
-3 -1 -1 30.9 10.6
3 1 1 51.19 7.5
-4 -1 -1 77.09 18.6
4 1 1 61.49 18.3
4 -2 -1 102.29 11.9
4 -2 -1 99.19 14.8
3 -2 -1 1187.68 70.69
-3 2 1 1303.27 65.79
-3 2 1 1249.68 69.89
2 -2 -1 267.97 22.1
2 -2 -1 265.47 20.7
-2 2 1 275.47 22.1
-2 2 1 257.47 20.4
1 -2 -1 1737.63 76.19
1 -2 -1 1710.43 76.69
1 -2 -1 1817.92 74.89
1 -2 -1 1826.72 75.29
-1 2 1 1810.32 77.39
-1 2 1 1802.92 74.69
-1 2 1 1701.83 75.89
0 -2 -1 638.44 27.9
0 -2 -1 688.73 30.9
0 2 1 621.84 29.6
0 2 1 654.93 30.4
0 2 1 648.14 28.4
-1 -2 -1 2530.65 106.49
-1 -2 -1 2685.63 107.49
1 2 1 2483.45 106.59
1 2 1 2665.13 106.79
1 2 1 2324.27 106.89
-2 -2 -1 775.72 44.5
-2 -2 -1 724.13 44.6
2 2 1 780.12 45.1
-3 -2 -1 613.14 43.6
-3 -2 -1 580.04 44.4
3 2 1 630.24 45.2
-4 -2 -1 216.58 27.7
4 2 1 263.97 34
4 -3 -1 987 68.99
-4 3 1 1019.7 59.09
-4 3 1 966.6 66.19
3 -3 -1 75.19 16.6
-3 3 1 95.09 14.2
-3 3 1 82.09 12.3
2 -3 -1 2187.88 99.59
-2 3 1 2184.88 98.89
-2 3 1 2157.18 99.49
1 -3 -1 651.03 32.6
1 -3 -1 622.84 33.5
1 -3 -1 613.24 34
-1 3 1 674.03 33.8
-1 3 1 656.43 35
-1 3 1 663.23 32.2
0 -3 -1 3129.39 126.69
0 -3 -1 3284.87 128.99
0 -3 -1 3242.68 128.19
0 3 1 3239.08 128.29
0 3 1 3172.58 127.79
0 3 1 3052.09 127.59
-1 -3 -1 1135.59 52.29
-1 -3 -1 1092.99 52.89
-1 -3 -1 1061.09 46.1
1 3 1 1079.19 51.99
1 3 1 1098.39 53.39
1 3 1 1117.49 46.4
-2 -3 -1 73.59 10.6
-2 -3 -1 66.09 10.7
2 3 1 62.59 11
-3 -3 -1 420.06 34.1
-3 -3 -1 394.06 34.9
3 3 1 372.46 33.4
-4 -3 -1 42.7 10.5
4 3 1 67.89 11.4
-4 4 1 9.4 7.3
-4 4 1 0.8 6.1
3 -4 -1 1547.95 89.29
-3 4 1 1809.12 88.29
-3 4 1 1833.52 91.69
2 -4 -1 270.67 22
-2 4 1 277.07 22.9
-2 4 1 246.98 22
1 -4 -1 4314.27 162.58
1 -4 -1 4070.99 161.28
1 -4 -1 3785.82 161.28
1 -4 -1 3878.21 163.48
-1 4 1 3894.01 161.28
-1 4 1 3859.31 159.48
0 -4 -1 942.11 42.6
0 -4 -1 897.41 41.9
0 -4 -1 862.41 42
0 4 1 847.52 40.9
0 4 1 849.81 42.5
0 4 1 847.02 41.9
-1 -4 -1 2019.6 85.99
-1 -4 -1 2187.98 91.89
-1 -4 -1 2076.29 92.49
1 4 1 2189.38 86.39
1 4 1 2047 90.79
1 4 1 1986.7 92.79
-2 -4 -1 94.69 13.6
-2 -4 -1 105.49 13.5
2 4 1 95.89 8.1
2 4 1 116.39 14.7
2 4 1 105.89 8.7
-3 -4 -1 1277.87 71.39
-3 -4 -1 1228.98 73.39
3 4 1 1249.57 74.19
-4 -4 -1 292.47 32
4 4 1 315.17 35.9
4 -5 -1 -5.2 10
-4 5 1 17.9 11.3
-4 5 1 -11.1 6.1
-3 5 1 89.29 15.3
-3 5 1 115.89 16.3
2 -5 -1 247.38 21.9
2 -5 -1 217.88 21.4
-2 5 1 251.07 22.1
-2 5 1 240.58 21.7
1 -5 -1 736.63 39.5
1 -5 -1 742.43 38.9
1 -5 -1 719.53 38.4
1 -5 -1 655.73 39.2
-1 5 1 704.53 36.6
-1 5 1 723.53 38.1
-1 5 1 724.53 41.3
0 -5 -1 79.69 9.2
0 -5 -1 72.19 8.9
0 -5 -1 87.89 9.6
0 5 1 71.99 9.8
0 5 1 92.69 8.8
0 5 1 79.09 9.3
-1 -5 -1 1737.03 73.09
-1 -5 -1 1778.22 76.79
-1 -5 -1 1642.14 78.09
1 5 1 1546.05 75.19
1 5 1 1651.83 72.49
-2 -5 -1 225.08 22.4
-2 -5 -1 188.08 13.9
-2 -5 -1 193.38 18.8
2 5 1 202.28 14.3
2 5 1 235.78 14.5
-3 -5 -1 343.87 29.6
-3 -5 -1 315.57 31.7
3 5 1 331.87 30.7
-4 -5 -1 460.35 42
-4 -5 -1 458.35 44.5
4 5 1 391.26 41.8
4 -6 -1 13.5 13
4 -6 -1 41.4 11.5
-4 6 1 26.7 12.6
3 -6 -1 935.41 60.89
3 -6 -1 919.71 60.39
-3 6 1 924.21 58.99
-3 6 1 937.41 58.49
2 -6 -1 6.7 4.5
2 -6 -1 9.2 4.6
-2 6 1 2.8 3.9
-2 6 1 5.6 4.6
1 -6 -1 4797.02 191.98
1 -6 -1 4839.52 194.98
-1 6 1 4816.52 195.88
-1 6 1 4522.15 190.48
-1 6 1 4395.56 189.58
0 -6 -1 778.02 40.9
0 -6 -1 743.53 39
0 -6 -1 662.73 38.6
0 6 1 692.43 36.5
0 6 1 647.64 39.8
0 6 1 739.73 39.7
-1 -6 -1 2361.66 103.39
-1 -6 -1 2076.09 99.39
-1 -6 -1 2190.48 97.49
1 6 1 2438.36 98.49
1 6 1 2266.67 100.49
-2 -6 -1 617.14 43.2
-2 -6 -1 635.94 33.3
-2 -6 -1 678.93 40.9
2 6 1 648.04 34
-3 -6 -1 438.36 39.6
-3 -6 -1 461.05 36.6
3 6 1 470.25 40.5
-4 -6 -1 378.96 40.9
-4 -6 -1 364.86 37.2
4 6 1 410.96 43.2
4 -7 -1 55.39 15.5
4 -7 -1 50.39 16.6
-4 7 1 54.69 16.4
-4 7 1 62.49 16.6
3 -7 -1 12.1 6
3 -7 -1 21.8 5.7
-3 7 1 9.9 6.7
-3 7 1 7.8 6.9
2 -7 -1 560.34 38.7
2 -7 -1 544.15 37.9
-2 7 1 529.35 37
-2 7 1 545.55 39.6
1 -7 -1 354.66 25.3
1 -7 -1 347.47 27
-1 7 1 333.47 23.8
-1 7 1 307.47 23.3
-1 7 1 349.07 27.2
0 -7 -1 5482.65 220.28
0 7 1 5070.49 223.78
0 7 1 5667.93 222.48
0 7 1 5396.06 216.88
-1 -7 -1 3675.93 163.78
-1 -7 -1 3908.71 169.78
-1 -7 -1 4182.08 167.08
1 7 1 3901.71 166.08
1 7 1 4143.59 165.18
-2 -7 -1 1644.24 86.29
-2 -7 -1 1642.74 80.89
-2 -7 -1 1669.43 74.49
2 7 1 1564.44 73.79
-3 -7 -1 1665.53 94.69
-3 -7 -1 1649.63 87.99
3 7 1 1584.24 73.49
3 7 1 1679.93 72.99
3 7 1 1743.23 95.69
-4 -7 -1 537.75 49.2
-4 -7 -1 542.35 45.4
4 7 1 490.65 49.7
4 -8 -1 49.7 17.9
4 -8 -1 66.19 22
-4 8 1 75.19 17.3
-4 8 1 61.69 19.8
3 -8 -1 0.9 4.3
3 -8 -1 29 9.2
-3 8 1 10.9 9.6
-3 8 1 9.6 7.9
2 -8 -1 16.1 8.2
2 -8 -1 27.4 10
-2 8 1 21.5 6.7
-2 8 1 18.4 8.6
1 -8 -1 386.86 30.8
1 -8 -1 408.66 28.3
-1 8 1 343.47 29.5
0 -8 -1 -0.2 2.7
0 8 1 0.7 4
0 8 1 -1.4 2.6
0 8 1 0.2 2.4
-1 -8 -1 16.7 6.6
-1 -8 -1 20.3 7.3
1 8 1 18.7 6.5
-2 -8 -1 61.29 10.4
-2 -8 -1 39.2 11.9
2 8 1 59.79 8.9
-3 -8 -1 6.9 6.3
-3 -8 -1 9.1 8.5
3 8 1 -11.7 5.7
3 8 1 -0.4 4.7
3 8 1 -1.2 5.6
-4 -8 -1 5.3 9.6
-4 -8 -1 5 8.4
4 8 1 0.2 8.4
4 -9 -1 -12.7 10.4
-4 9 1 18.1 12.8
-4 9 1 -3.2 8.4
3 -9 -1 151.88 23.8
3 -9 -1 143.59 22.1
-3 9 1 164.88 22.4
-3 9 1 143.79 22.4
2 -9 -1 343.07 32.1
2 -9 -1 365.76 30.9
-2 9 1 340.97 29
-2 9 1 317.27 31.5
1 -9 -1 1251.27 63.89
1 -9 -1 1162.98 68.19
-1 9 1 1198.78 67.79
0 -9 -1 650.23 40.5
0 -9 -1 690.53 43.9
0 9 1 652.93 42.4
-1 -9 -1 3468.55 144.09
-1 -9 -1 3248.58 147.69
1 9 1 3101.79 143.39
-2 -9 -1 1738.83 95.89
-2 -9 -1 1828.92 88.99
2 9 1 1840.52 85.69
-3 -9 -1 2681.33 122.89
-3 -9 -1 2488.65 130.29
3 9 1 2339.17 109.09
3 9 1 2482.85 129.79
-4 -9 -1 553.84 53.39
-4 -9 -1 589.74 48.3
4 9 1 531.15 52.09
4 -10 -1 57.59 15.1
4 -10 -1 35.5 13.9
-4 10 1 21.2 13.2
-4 10 1 38.7 16.5
3 -10 -1 122.69 22.8
3 -10 -1 124.79 21.8
-3 10 1 123.49 26.3
-3 10 1 132.49 19.6
2 -10 -1 23.6 11.3
2 -10 -1 35.2 10.7
-2 10 1 33.6 10.4
-2 10 1 40.9 13.6
1 -10 -1 877.41 50.89
1 -10 -1 846.42 55.99
-1 10 1 828.72 54.89
0 -10 -1 219.98 22.9
0 -10 -1 221.58 21.6
0 10 1 249.58 24.2
-1 -10 -1 1780.02 87.69
-1 -10 -1 1917.31 94.59
1 10 1 1749.53 89.59
-2 -10 -1 1763.72 88.59
-2 -10 -1 1844.12 98.49
2 10 1 1771.42 87.69
-3 -10 -1 99.09 22.6
-3 -10 -1 97.99 14.8
3 10 1 105.09 13.7
3 10 1 107.89 19.9
-4 -10 -1 148.49 31.7
4 10 1 114.89 26.7
4 -11 -1 -4.8 11.3
4 -11 -1 14.8 7.6
-4 11 1 7.1 10.1
3 -11 -1 124.79 21.7
3 -11 -1 89.09 23.6
-3 11 1 96.39 20.3
-3 11 1 116.09 26.4
2 -11 -1 -6.8 4.1
2 -11 -1 -9.7 6.8
-2 11 1 -6.1 4.5
-2 11 1 -3.2 4.2
1 -11 -1 403.66 37
1 -11 -1 406.16 32.4
-1 11 1 439.06 37.5
0 -11 -1 73.99 16.5
0 -11 -1 74.49 12.4
0 11 1 52.89 14
-1 -11 -1 379.86 30.1
-1 -11 -1 350.46 32.5
1 11 1 419.26 32.9
-2 -11 -1 165.08 19.3
-2 -11 -1 176.68 23.9
2 11 1 193.38 18.8
-3 -11 -1 102.29 14.9
-3 -11 -1 55.79 17.7
3 11 1 92.49 13.7
-4 -11 -1 258.67 32.2
-4 -11 -1 303.77 40.1
4 11 1 262.27 37.9
4 -12 -1 50.89 21.4
4 -12 -1 70.99 25.7
3 -12 -1 633.24 53.39
3 -12 -1 697.13 59.79
-3 12 1 705.23 53.99
-3 12 1 731.53 58.49
2 -12 -1 19 12
2 -12 -1 34.2 12.4
-2 12 1 49.7 16.9
1 -12 -1 2305.67 120.29
1 -12 -1 2330.47 112.09
-1 12 1 2275.97 118.99
0 -12 -1 141.09 19
0 -12 -1 160.78 18.9
0 12 1 123.19 18.8
-1 -12 -1 1972 93.59
-1 -12 -1 1661.63 97.59
1 12 1 1979.5 98.09
-2 -12 -1 159.18 19.6
-2 -12 -1 150.98 23.2
2 12 1 168.08 19.5
-3 -12 -1 209.68 30.8
-3 -12 -1 234.68 26.2
3 12 1 233.18 23.4
3 -13 -1 38.8 19.5
-3 13 1 48.2 16.3
2 -13 -1 943.11 61.89
2 -13 -1 895.21 66.99
-2 13 1 943.11 68.29
1 -13 -1 130.19 18.1
1 -13 -1 133.89 22.4
-1 13 1 129.39 20.6
0 -13 -1 991.2 59.69
0 -13 -1 930.91 63.09
0 13 1 1006.8 64.89
-1 -13 -1 342.87 30.5
-1 -13 -1 413.16 36.1
1 13 1 355.46 31.6
-2 -13 -1 58.29 9.3
2 13 1 45.8 12.7
-3 -13 -1 218.68 31.9
-3 -13 -1 240.58 26.6
3 13 1 270.77 24.8
3 -14 -1 362.16 40.6
3 -14 -1 417.46 45
-3 14 1 399.46 45.5
2 -14 -1 13.5 7.5
2 -14 -1 5.8 6.5
-2 14 1 -0.1 9
1 -14 -1 711.63 56.59
1 -14 -1 746.43 51.49
-1 14 1 733.83 56.49
0 -14 -1 240.78 25.4
0 -14 -1 181.98 25.9
0 14 1 177.68 26
-1 -14 -1 562.54 40.6
-1 -14 -1 552.54 46.4
1 14 1 625.84 45.3
-2 -14 -1 293.87 34.3
-2 -14 -1 315.67 28.2
2 14 1 308.27 30.7
-3 -14 -1 378.66 34
-3 -14 -1 363.86 41.7
3 14 1 432.16 34.6
3 -15 -1 -3.2 8
3 -15 -1 -4.8 15
2 -15 -1 1532.35 98.69
2 -15 -1 1548.45 90.89
-2 15 1 1553.94 100.09
1 -15 -1 82.39 14.2
-1 15 1 83.59 19.9
0 -15 -1 2054.99 106.19
0 -15 -1 2061.99 113.69
0 15 1 2112.89 115.89
-1 -15 -1 7.4 6.8
1 15 1 5 8.2
-2 -15 -1 466.95 35.1
-2 -15 -1 550.74 45.4
2 15 1 420.96 38.8
-3 -15 -1 0 9.9
-3 -15 -1 11.8 10.1
3 15 1 5.9 11.4
3 -16 -1 -16.5 11.3
3 -16 -1 26.3 14.3
-3 16 1 8.8 10.9
2 -16 -1 -3 8.2
-2 16 1 4.7 11
1 -16 -1 20.4 8.7
-1 16 1 -5.9 6.4
0 -16 -1 9 7.2
0 16 1 -6.1 7.5
-1 -16 -1 17.5 7.4
-1 -16 -1 -9.7 5.5
1 16 1 -6.6 6.4
-2 -16 -1 -12.5 7.2
2 16 1 -7.9 9
2 -17 -1 1168.58 77.59
2 -17 -1 1083.89 83.49
-2 17 1 1216.38 89.29
1 -17 -1 19.1 12.7
1 -17 -1 19.8 11.9
-1 17 1 14.2 11.7
0 -17 -1 1398.36 81.59
0 -17 -1 1412.06 90.99
0 17 1 1392.76 90.59
-1 -17 -1 -6.9 7.6
1 17 1 24.5 10.2
-2 -17 -1 254.47 33.9
2 17 1 269.07 31.7
2 -18 -1 58.19 21.4
2 -18 -1 -4.3 14.5
-2 18 1 14.6 17.4
1 -18 -1 317.07 37.7
1 -18 -1 325.17 37.6
-1 18 1 244.48 37.6
0 -18 -1 106.69 18.9
0 -18 -1 108.79 27.2
0 18 1 81.39 22.6
-1 -18 -1 132.39 21.7
-1 -18 -1 114.29 26.7
1 18 1 177.58 23.6
-2 -18 -1 8 8
-2 -18 -1 25.8 15.1
2 18 1 16.8 14.3
1 -19 -1 83.09 21.9
1 -19 -1 30.6 18.2
-1 19 1 41.3 20.1
0 -19 -1 333.47 41.2
0 -19 -1 382.06 33.2
0 19 1 325.17 42.6
-1 -19 -1 138.59 20.9
1 19 1 115.99 25.7
0 -20 -1 -5.7 16.9
0 -20 -1 14.6 13.2
1 19 -2 420.46 44.5
-1 -19 2 417.06 48.3
0 19 -2 130.99 33.1
0 -19 2 56.29 22.7
-1 19 -2 228.98 37.5
1 -19 2 201.88 42.7
2 18 -2 476.75 47.3
-2 -18 2 469.45 49.2
1 18 -2 6.4 10.8
-1 -18 2 15.7 11.4
0 18 -2 26.4 13.2
0 -18 2 29.9 16.7
-1 18 -2 5 10.5
1 -18 2 2.7 14.9
-2 18 -2 16.6 13.6
2 -18 2 21.4 13.4
2 -18 2 10.4 19.9
2 17 -2 -0.5 8.3
-2 -17 2 2.5 11.1
1 17 -2 139.79 22.8
-1 -17 2 95.89 25.8
0 -17 2 49.1 13
0 -17 2 61.19 22.5
-1 17 -2 107.89 26.7
1 -17 2 80.59 27.1
1 -17 2 152.78 19.2
-2 17 -2 167.38 34.7
2 -17 2 225.68 26.9
2 -17 2 174.78 40.5
2 16 -2 1245.58 83.29
-2 -16 2 1232.88 90.79
1 16 -2 3.9 7.7
-1 -16 2 13.3 12.4
0 16 -2 445.76 45.7
0 -16 2 479.15 48.4
0 -16 2 433.66 32.8
1 -16 2 240.38 24.4
1 -16 2 232.38 31.6
-2 16 -2 6.1 12.6
2 -16 2 11.2 13.5
2 -16 2 -1.7 9.6
3 15 -2 178.78 24.2
-3 -15 2 106.89 29.9
2 15 -2 3.5 10.3
-2 -15 2 3.5 9.5
1 15 -2 489.25 44.3
-1 -15 2 382.46 24.4
-1 -15 2 507.05 26.9
-1 -15 2 517.25 49.1
0 15 -2 148.59 25.7
0 -15 2 180.78 16.8
0 -15 2 131.49 29.9
-1 15 -2 117.99 25.5
1 -15 2 116.59 30
-2 15 -2 100.29 25.5
2 -15 2 96.99 30.4
2 -15 2 129.19 20.2
-3 15 -2 17.6 11.6
-3 15 -2 9.4 11.5
3 -15 2 -26.4 14.9
3 -15 2 5.9 11.5
3 14 -2 -2.2 10
-3 -14 2 -14.1 10.8
-3 -14 2 -4.5 10.7
2 14 -2 462.55 43.1
-2 -14 2 442.86 47
1 14 -2 11.2 8.3
-1 -14 2 17.3 10.9
-1 -14 2 19.3 5.4
-1 -14 2 17.7 5.4
0 14 -2 1.4 7.3
0 -14 2 10.8 10.4
-1 14 -2 25 12.3
1 -14 2 39.7 14.7
1 -14 2 30 10.7
-2 14 -2 5.3 12.5
-2 14 -2 9.9 6.3
2 -14 2 12.3 9.1
2 -14 2 11.3 12.2
-3 14 -2 133.09 22.4
-3 14 -2 183.28 28.2
3 -14 2 109.59 32.1
3 -14 2 119.39 28.4
3 13 -2 691.23 50.89
-3 -13 2 616.54 58.79
2 13 -2 528.25 43
2 13 -2 447.36 26.7
-2 -13 2 523.95 49.4
-2 -13 2 506.95 27.1
1 13 -2 550.94 46.6
-1 -13 2 593.14 29
-1 -13 2 589.94 52.39
-1 -13 2 612.64 31.3
0 13 -2 635.54 50.89
0 -13 2 708.93 41.1
0 -13 2 719.53 59.39
-1 13 -2 1089.59 71.39
1 -13 2 1002.5 76.89
1 -13 2 1106.69 60.19
-2 13 -2 1350.56 75.99
-2 13 -2 1273.77 84.89
2 -13 2 1400.96 78.89
2 -13 2 1413.56 97.39
-3 13 -2 78.49 19.7
-3 13 -2 90.99 21.8
3 -13 2 76.19 26.1
3 -13 2 52.79 18.5
3 12 -2 67.89 17.4
-3 -12 2 67.79 13
-3 -12 2 75.29 21.3
2 12 -2 17.6 6.8
-2 -12 2 32.8 5.6
-2 -12 2 19.8 11.5
1 12 -2 422.36 37.1
-1 -12 2 393.36 23.1
-1 -12 2 362.96 39.5
-1 -12 2 444.26 22
0 12 -2 324.37 31.3
0 -12 2 352.56 25.2
0 -12 2 347.57 21.9
0 -12 2 337.07 37.6
-1 12 -2 549.85 46.4
1 -12 2 644.44 54.29
1 -12 2 605.64 38
-2 12 -2 564.84 46.1
-2 12 -2 482.85 38.3
2 -12 2 538.75 41
2 -12 2 565.94 52.89
-3 12 -2 185.88 22.8
-3 12 -2 175.28 25.6
3 -12 2 191.38 27.6
3 -12 2 187.68 24.3
4 11 -2 86.69 24.4
-4 -11 2 106.59 26
3 11 -2 562.84 39.8
-3 -11 2 490.55 49.1
-3 -11 2 481.35 31.9
2 11 -2 327.97 30.5
2 11 -2 278.37 21
-2 -11 2 348.27 20.1
-2 -11 2 321.27 35.6
1 11 -2 1513.45 81.99
1 11 -2 1345.87 60.79
-1 -11 2 1495.75 62.79
-1 -11 2 1428.26 60.79
-1 -11 2 1488.25 88.59
0 11 -2 1599.54 88.89
0 -11 2 1609.34 75.39
0 -11 2 1774.42 99.49
0 -11 2 1669.93 73.19
-1 11 -2 74.19 18
1 -11 2 52.59 11.4
1 -11 2 49.6 16.9
-2 11 -2 52.19 15.3
-2 11 -2 50.59 13.1
2 -11 2 55.69 17.3
2 -11 2 52.29 13.5
-3 11 -2 534.85 44.9
-3 11 -2 559.74 49.3
3 -11 2 569.64 56.89
3 -11 2 538.45 47.2
-4 11 -2 433.06 42.3
-4 11 -2 476.55 44
4 -11 2 452.85 46.1
4 -11 2 454.65 54.09
4 10 -2 9.3 7.1
-4 -10 2 4.5 9
-4 -10 2 24.4 9.1
3 10 -2 955.4 57.39
-3 -10 2 812.82 47.2
-3 -10 2 855.21 66.19
2 10 -2 222.68 19.1
2 10 -2 278.17 25.4
-2 -10 2 234.38 29.2
-2 -10 2 255.77 17.4
1 10 -2 2017.9 80.89
1 10 -2 2009.6 99.69
-1 -10 2 1817.82 81.09
-1 -10 2 2117.89 80.59
-1 -10 2 1928.71 106.59
0 10 -2 1398.06 75.29
0 -10 2 1120.19 58.49
0 -10 2 1466.15 84.29
0 -10 2 1427.26 62.39
-1 10 -2 1878.61 99.59
-1 10 -2 2066.99 89.49
1 -10 2 1891.41 89.09
1 -10 2 1810.62 106.29
-2 10 -2 1079.49 63.49
-2 10 -2 1054.39 68.39
2 -10 2 1172.68 65.89
2 -10 2 1117.79 75.99
-3 10 -2 241.08 29.1
-3 10 -2 286.07 32.3
3 -10 2 261.57 36.2
-4 10 -2 412.66 42.4
-4 10 -2 392.06 42.4
4 -10 2 448.06 46.6
4 -10 2 367.66 46.8
4 9 -2 62.29 15.5
4 9 -2 60.89 21.5
-4 -9 2 50.09 19.8
3 9 -2 636.54 44
-3 -9 2 670.73 39.1
-3 -9 2 628.74 53.99
2 9 -2 397.76 30.1
2 9 -2 308.27 23.1
-2 -9 2 329.57 21.3
-2 -9 2 327.07 33.5
1 9 -2 130.89 17.6
1 9 -2 143.99 9.6
-1 -9 2 170.78 22.3
-1 -9 2 148.89 9.9
0 9 -2 148.59 17.8
0 -9 2 134.39 11
0 -9 2 137.59 11.8
0 -9 2 129.89 20.1
-1 9 -2 228.58 24.2
-1 9 -2 255.17 20.4
1 -9 2 237.38 20
1 -9 2 257.57 29.6
-2 9 -2 181.88 22.9
-2 9 -2 206.88 21.3
2 -9 2 168.58 26
-3 9 -2 38 13.5
-4 9 -2 27.7 13.3
-4 9 -2 17.6 12.7
4 8 -2 401.66 30.1
4 8 -2 359.36 41.5
-4 -8 2 337.67 40.6
-4 -8 2 383.36 31.9
3 8 -2 810.32 51.59
-3 -8 2 812.82 61.49
-3 -8 2 871.91 47.8
2 8 -2 1716.53 82.29
2 8 -2 1848.81 90.99
-2 -8 2 1906.41 80.79
-2 -8 2 1911.31 100.19
1 8 -2 4428.06 189.78
-1 -8 2 4454.15 197.88
0 8 -2 3554.04 155.68
0 -8 2 3722.33 142.59
0 -8 2 3490.55 140.99
0 -8 2 3339.37 162.98
-1 8 -2 4043.4 169.08
-1 8 -2 3985 176.88
1 -8 2 4206.38 170.38
1 -8 2 4039.2 186.08
-2 8 -2 2533.15 115.89
-2 8 -2 2628.04 119.89
2 -8 2 2146.19 122.09
-3 8 -2 928.71 62.59
-3 8 -2 1161.78 69.39
3 -8 2 1075.29 74.79
-4 8 -2 528.55 42.6
-4 8 -2 594.94 50.99
4 -8 2 463.55 50.29
4 7 -2 12.1 7.2
4 7 -2 -5.8 9.3
-4 -7 2 -2.6 6.5
3 7 -2 432.86 32.2
-3 -7 2 393.46 29.1
-3 -7 2 392.56 38.7
2 7 -2 32.3 7.4
2 7 -2 22.5 8.1
-2 -7 2 27 9.6
-2 -7 2 39.9 5.6
1 7 -2 706.13 41.9
-1 -7 2 675.83 46.3
-1 -7 2 648.74 29.1
0 7 -2 100.29 12.9
0 -7 2 104.69 15.6
0 -7 2 81.39 7.5
0 -7 2 92.59 8.1
-1 7 -2 576.04 38.4
-1 7 -2 611.94 34.5
1 -7 2 586.74 43.8
-2 7 -2 480.65 36.6
-2 7 -2 623.14 40.1
2 -7 2 537.55 43.9
-3 7 -2 26 9.1
-3 7 -2 18 8.3
3 -7 2 10.4 9.8
-4 7 -2 67.19 17
-4 7 -2 73.39 19.7
4 -7 2 111.19 26
4 6 -2 9.2 9.1
-4 -6 2 5.6 9.5
-4 -6 2 17.6 8.9
3 6 -2 883.01 49.8
-3 -6 2 796.22 57.59
-3 -6 2 787.42 47.2
2 6 -2 567.34 34.4
2 6 -2 663.53 39.9
-2 -6 2 643.74 34.2
-2 -6 2 654.93 45.3
1 6 -2 5519.55 227.68
-1 -6 2 5585.54 234.48
0 6 -2 1673.43 77.99
0 6 -2 1614.04 66.79
0 -6 2 1607.64 66.99
0 -6 2 1654.23 84.69
0 -6 2 1604.74 66.89
-1 6 -2 2715.83 118.19
-1 6 -2 2869.61 123.79
1 -6 2 2695.43 118.89
1 -6 2 2861.91 130.29
-2 6 -2 1681.03 83.09
2 -6 2 1676.53 90.49
-3 6 -2 348.27 28
-3 6 -2 318.57 31.1
3 -6 2 307.37 34.4
-4 6 -2 760.62 47.2
-4 6 -2 708.33 56.99
4 -6 2 743.73 64.69
4 5 -2 170.88 27.2
4 5 -2 209.38 21.6
-4 -5 2 228.08 23.6
-4 -5 2 174.78 27.6
3 5 -2 927.91 60.49
3 5 -2 903.11 51.49
-3 -5 2 918.91 61.29
-3 -5 2 840.42 50.69
2 5 -2 763.12 44
2 5 -2 701.93 40.4
-2 -5 2 823.52 51.19
-2 -5 2 827.02 40.5
1 5 -2 2511.95 94.19
1 5 -2 2513.15 105.09
-1 -5 2 2171.78 92.79
-1 -5 2 2133.69 102.19
-1 -5 2 2502.35 110.69
0 5 -2 1776.12 88.69
0 5 -2 1925.21 84.39
0 5 -2 1851.11 74.19
0 -5 2 1929.31 91.19
0 -5 2 1860.31 74.29
0 -5 2 1741.83 82.39
0 -5 2 1862.41 74.59
-1 5 -2 1926.41 86.09
-1 5 -2 1917.51 83.59
1 -5 2 1823.32 84.29
1 -5 2 1770.82 82.69
1 -5 2 1904.21 91.09
-2 5 -2 1322.27 70.49
-2 5 -2 1371.66 68.09
2 -5 2 1354.76 75.19
-3 5 -2 195.68 24.1
-3 5 -2 175.98 19.6
3 -5 2 179.38 24.9
-4 5 -2 389.46 39.1
-4 5 -2 364.76 27.6
4 -5 2 395.96 43
4 4 -2 270.27 33.7
4 4 -2 274.17 25
-4 -4 2 264.47 33.3
-4 -4 2 267.07 27.8
3 4 -2 233.78 21.6
3 4 -2 244.98 27.3
-3 -4 2 226.18 26.1
-3 -4 2 255.57 22.9
2 4 -2 209.08 17.8
2 4 -2 187.38 16.9
-2 -4 2 221.18 16.6
-2 -4 2 215.58 21.8
1 4 -2 1299.27 66.49
1 4 -2 1478.25 54.29
1 4 -2 1243.98 61.19
-1 -4 2 1149.89 52.79
-1 -4 2 1263.77 60.59
-1 -4 2 1354.46 66.19
0 4 -2 166.98 16.8
0 4 -2 186.38 15.1
0 4 -2 173.48 9.8
0 -4 2 165.98 14
0 -4 2 190.08 18.1
0 -4 2 187.68 10.2
-1 4 -2 1290.27 59.29
-1 4 -2 1263.07 59.29
1 -4 2 1188.18 57.99
1 -4 2 1261.37 63.99
1 -4 2 1187.78 58.09
-2 4 -2 889.51 50.89
-2 4 -2 840.72 45.5
2 -4 2 886.01 53.99
2 -4 2 790.42 43.9
-3 4 -2 28.5 9.9
-3 4 -2 43.2 12.9
3 -4 2 48.9 14.1
-4 4 -2 261.77 31.8
4 -4 2 235.68 33.6
4 3 -2 43.3 9.4
-4 -3 2 20.4 9.4
-4 -3 2 21.3 10.6
3 3 -2 699.93 49.99
3 3 -2 710.23 43.1
-3 -3 2 742.33 50.59
-3 -3 2 730.73 44.2
2 3 -2 858.01 44
2 3 -2 777.02 44.1
2 3 -2 779.72 43.1
-2 -3 2 836.72 48.9
-2 -3 2 762.92 41.7
1 3 -2 945.31 46.6
1 3 -2 928.31 49.8
1 3 -2 989.1 41.4
1 3 -2 922.11 46.5
-1 -3 2 898.41 45.8
-1 -3 2 989.3 50.09
-1 -3 2 987.5 40.7
0 3 -2 2041.9 86.99
0 3 -2 1970.9 90.59
0 3 -2 2100.99 80.99
0 -3 2 1919.81 86.29
0 -3 2 2142.59 80.99
0 -3 2 2058.79 92.09
-1 3 -2 3442.06 152.88
-1 3 -2 4001.5 152.98
-1 3 -2 3288.57 154.18
1 -3 2 3873.21 151.88
1 -3 2 3871.21 154.38
1 -3 2 3969.1 158.18
-2 3 -2 4150.18 165.08
-2 3 -2 4053.39 172.68
2 -3 2 3692.03 162.58
2 -3 2 4123.09 175.88
-3 3 -2 141.29 19.2
-3 3 -2 183.58 16.4
3 -3 2 171.98 15.4
3 -3 2 158.58 22.8
-4 3 -2 334.77 36.2
4 -3 2 277.97 36.6
4 2 -2 748.23 54.99
4 2 -2 670.73 43.7
-4 -2 2 669.13 54.19
-4 -2 2 678.03 49.5
3 2 -2 42.7 11.3
3 2 -2 38.1 12
-3 -2 2 48 8.4
-3 -2 2 52.39 8
-3 -2 2 35.8 11.8
2 2 -2 375.06 24.9
2 2 -2 358.16 26
-2 -2 2 408.06 25.6
-2 -2 2 375.76 28.7
-2 -2 2 397.96 26.2
1 2 -2 73.69 9.3
1 2 -2 74.79 6.7
1 2 -2 71.19 8.3
1 2 -2 68.59 8.1
-1 -2 2 71.69 8.1
-1 -2 2 77.19 6.5
-1 -2 2 77.79 9.4
-1 -2 2 75.69 8.6
0 2 -2 144.49 8.5
0 2 -2 131.69 10.8
0 2 -2 122.39 11.8
0 -2 2 146.19 8.8
0 -2 2 158.88 13.6
0 -2 2 147.69 10.8
-1 2 -2 651.13 37.4
-1 2 -2 822.12 35.6
-1 2 -2 730.53 38
1 -2 2 696.93 34
1 -2 2 689.43 39.1
1 -2 2 719.53 37.7
-2 2 -2 3.2 3.4
-2 2 -2 -4 2.2
2 -2 2 -1.6 2.6
2 -2 2 0.1 2.3
-3 2 -2 740.13 38.6
-3 2 -2 810.02 52.79
3 -2 2 859.01 56.29
3 -2 2 654.23 37.2
-4 2 -2 52.79 17
4 -2 2 45.5 15.9
4 1 -2 98.89 24.3
4 1 -2 178.88 16
-4 -1 2 146.69 20
3 1 -2 187.68 21.3
3 1 -2 214.88 20.2
-3 -1 2 238.28 20.5
-3 -1 2 178.58 21.3
-3 -1 2 228.18 22.2
2 1 -2 342.17 23.8
2 1 -2 317.17 24.2
2 1 -2 360.66 26.2
-2 -1 2 376.36 25.2
-2 -1 2 353.06 24.2
-2 -1 2 358.16 26.5
1 1 -2 8670.33 342.87
1 1 -2 8716.43 342.67
1 1 -2 8516.05 346.47
1 1 -2 8894.01 346.67
1 1 -2 9066.19 345.97
-1 -1 2 9190.28 346.97
-1 -1 2 9072.29 346.87
0 1 -2 785.22 36.9
0 1 -2 811.52 36
0 1 -2 823.82 38.4
0 1 -2 845.22 37.2
0 -1 2 814.12 36
0 -1 2 804.32 38.7
0 -1 2 826.52 36.9
-1 1 -2 164.18 14.1
-1 1 -2 172.98 14.3
-1 1 -2 151.38 10.4
1 -1 2 170.98 14.1
1 -1 2 184.48 10.8
1 -1 2 194.68 15.3
-2 1 -2 62.89 10.5
-2 1 -2 53.29 6.5
2 -1 2 78.79 12
2 -1 2 61.19 6.5
-3 1 -2 62.99 11.2
3 -1 2 43.8 13.1
-4 1 -2 334.47 34.4
4 -1 2 249.38 33.4
4 0 -2 1997.9 95.09
4 0 -2 1913.41 107.39
-4 0 2 1907.21 102.39
-4 0 2 1876.71 94.29
3 0 -2 9.9 6.6
3 0 -2 13.5 5.7
-3 0 2 21.3 8.6
-3 0 2 14.4 5.9
-3 0 2 10.4 6.3
2 0 -2 5904.21 232.18
2 0 -2 5509.95 230.38
-2 0 2 5585.14 231.98
-2 0 2 5649.83 229.78
-2 0 2 5700.73 230.78
1 0 -2 2399.76 98.39
1 0 -2 2330.47 99.39
1 0 -2 2342.27 98.49
1 0 -2 2324.37 101.09
-1 0 2 2446.96 101.59
-1 0 2 2494.45 98.59
-1 0 2 2439.86 99.49
-1 0 -2 827.52 41.2
1 0 2 766.72 32.7
1 0 2 834.42 41.2
1 0 2 805.62 40.5
1 0 2 751.52 40.4
-2 0 -2 9.9 5.2
2 0 2 21.6 6.8
-3 0 -2 1560.34 84.49
3 0 2 1528.05 87.09
-4 0 -2 509.95 45.8
4 0 2 531.25 48.7
4 -1 -2 117.89 25.6
4 -1 -2 131.69 16.2
-4 1 2 114.89 19.8
-4 1 2 89.99 15.7
3 -1 -2 223.08 23.6
-3 1 2 210.18 22.3
-3 1 2 237.48 22.5
2 -1 -2 378.76 25.6
-2 1 2 357.16 25.3
-2 1 2 329.17 25
-2 1 2 356.56 25.3
1 -1 -2 9363.46 356.16
1 -1 -2 9176.48 358.66
1 -1 -2 9766.32 354.56
1 -1 -2 8528.75 355.66
1 -1 -2 9116.69 354.66
-1 1 2 9011.5 358.46
-1 1 2 9065.09 355.56
-1 1 2 9330.37 354.46
0 -1 -2 805.42 38.9
0 -1 -2 849.02 37.5
0 -1 -2 823.32 33.9
0 1 2 872.71 34.3
0 1 2 763.52 38.6
0 1 2 853.01 37.7
-1 -1 -2 162.98 14.5
-1 -1 -2 173.38 14
1 1 2 182.98 14.5
1 1 2 183.88 14.4
1 1 2 171.68 14.7
-2 -1 -2 69.09 10.9
2 1 2 61.29 10.4
-3 -1 -2 33.5 11.2
3 1 2 46.3 14.3
-4 -1 -2 307.87 34.1
4 1 2 247.88 31.3
4 -2 -2 724.93 46.4
4 -2 -2 625.14 52.39
-4 2 2 671.43 51.49
-4 2 2 728.63 46.7
3 -2 -2 40 11.1
-3 2 2 41 10.6
-3 2 2 47.4 11.3
2 -2 -2 392.46 26.1
-2 2 2 401.96 27.9
-2 2 2 353.96 26.3
1 -2 -2 68.59 6.8
1 -2 -2 84.09 8.5
1 -2 -2 67.09 8.8
1 -2 -2 68.39 6.5
1 -2 -2 85.49 8.9
-1 2 2 66.89 8.8
-1 2 2 80.09 8.3
0 -2 -2 140.69 11.9
0 -2 -2 135.09 10.7
0 -2 -2 156.88 7.9
0 2 2 154.28 7.7
0 2 2 145.69 8
0 2 2 148.69 11.1
0 2 2 149.29 11.7
-1 -2 -2 644.14 37.1
-1 -2 -2 715.33 36.4
1 2 2 671.33 37.6
1 2 2 736.23 37.5
-2 -2 -2 2 3.3
-2 -2 -2 -1.9 2.4
2 2 2 3.4 3.1
-3 -2 -2 761.42 51.99
3 2 2 785.72 53.79
-4 -2 -2 60.79 17.7
4 2 2 65.79 19.4
4 -3 -2 37.8 14.2
-4 3 2 17.6 8.1
-4 3 2 31.6 12.5
3 -3 -2 677.33 45.4
-3 3 2 694.23 45.4
-3 3 2 671.43 46
2 -3 -2 858.91 47.6
2 -3 -2 789.82 44.4
-2 3 2 797.12 46.7
-2 3 2 793.62 45.6
1 -3 -2 978.9 43
1 -3 -2 876.21 45.9
1 -3 -2 981.3 42.5
1 -3 -2 923.81 48.3
1 -3 -2 985.4 47
-1 3 2 946.51 46.9
-1 3 2 856.71 47.9
-1 3 2 997.2 42.6
-1 3 2 1014.2 46.9
0 -3 -2 2081.69 80.29
0 -3 -2 1983.5 87.19
0 -3 -2 2066.89 85.39
0 3 2 1957.3 86.39
0 3 2 1994.7 85.09
0 3 2 1974.3 80.99
-1 -3 -2 4112.29 164.58
-1 -3 -2 3999.6 156.38
-1 -3 -2 4014.1 166.88
1 3 2 3892.61 164.88
1 3 2 4205.58 156.58
1 3 2 3723.43 165.08
1 3 2 4128.29 164.08
-2 -3 -2 4023.2 178.48
2 3 2 4320.97 179.58
-3 -3 -2 148.89 20.4
3 3 2 163.98 20.9
-4 -3 -2 324.97 35.9
4 3 2 292.67 34.5
4 -4 -2 273.07 33.5
4 -4 -2 225.28 30.1
-4 4 2 314.07 28.4
-4 4 2 266.87 31.1
3 -4 -2 268.67 26.4
3 -4 -2 238.88 26
-3 4 2 234.98 24.4
-3 4 2 214.08 23.5
2 -4 -2 231.08 20.7
2 -4 -2 210.68 18.4
-2 4 2 206.38 20.5
-2 4 2 203.78 19.4
1 -4 -2 1326.07 59.09
1 -4 -2 1283.97 64.49
1 -4 -2 1375.56 63.69
1 -4 -2 1319.27 62.69
-1 4 2 1392.86 62.89
-1 4 2 1390.66 58.29
-1 4 2 1325.77 63.39
-1 4 2 1342.07 65.69
0 -4 -2 180.08 11.5
0 -4 -2 171.88 13.8
0 -4 -2 166.68 14.8
0 4 2 135.99 13.2
0 4 2 175.58 14.1
0 4 2 186.48 12.8
-1 -4 -2 1231.08 52.89
-1 -4 -2 1278.07 60.99
-1 -4 -2 1183.48 58.29
1 4 2 1280.37 52.89
1 4 2 1155.68 59.79
1 4 2 1154.88 58.79
-2 -4 -2 895.61 50.89
-2 -4 -2 815.12 50.29
2 4 2 835.32 49.9
-3 -4 -2 56.29 14.3
-3 -4 -2 49.7 13.7
3 4 2 32 11.1
-4 -4 -2 294.87 32.5
4 4 2 225.18 32.1
4 -5 -2 233.38 27.2
4 -5 -2 157.98 24.7
-4 5 2 220.68 26.9
-4 5 2 183.78 23.7
3 -5 -2 846.82 55.59
3 -5 -2 936.51 59.49
-3 5 2 883.41 56.39
-3 5 2 924.61 57.19
2 -5 -2 804.62 47.4
2 -5 -2 851.01 46.1
-2 5 2 749.03 46
-2 5 2 797.42 49.6
1 -5 -2 2476.15 110.29
1 -5 -2 2467.15 107.19
-1 5 2 2732.43 105.59
-1 5 2 2478.45 112.89
0 -5 -2 1933.31 79.39
0 -5 -2 1956.1 85.19
0 -5 -2 1776.42 82.09
0 5 2 1854.71 82.99
0 5 2 1782.42 81.09
0 5 2 1829.92 82.69
-1 -5 -2 1699.23 81.19
-1 -5 -2 1793.02 84.09
-1 -5 -2 1941.91 77.29
1 5 2 1707.33 82.49
1 5 2 1568.44 81.49
1 5 2 1945.71 77.19
-2 -5 -2 1364.26 72.19
-2 -5 -2 1324.57 70.49
2 5 2 1340.17 71.49
-3 -5 -2 208.08 24.1
-3 -5 -2 187.88 23.8
3 5 2 188.28 23.6
-4 -5 -2 364.66 37.1
4 5 2 382.46 40.7
4 -6 -2 9 10
4 -6 -2 -3.9 8.7
-4 6 2 8.4 7.9
-4 6 2 5.1 10.1
3 -6 -2 944.61 58.19
3 -6 -2 841.32 56.49
-3 6 2 864.01 55.99
-3 6 2 753.52 53.79
2 -6 -2 633.94 39.6
2 -6 -2 621.14 41
-2 6 2 635.74 43.4
-2 6 2 653.53 41.1
1 -6 -2 5662.73 227.18
1 -6 -2 5592.04 225.48
-1 6 2 5627.14 231.08
-1 6 2 5366.66 220.68
0 -6 -2 1496.45 72.99
0 -6 -2 1657.43 70.69
0 6 2 1478.35 71.69
0 6 2 1523.15 72.59
0 6 2 1607.04 73.39
-1 -6 -2 2817.22 116.09
-1 -6 -2 2735.13 113.89
-1 -6 -2 2417.66 107.69
1 6 2 2242.68 106.89
-2 -6 -2 1762.12 84.89
-2 -6 -2 1722.73 85.39
-2 -6 -2 1618.24 70.19
2 6 2 1640.14 83.79
2 6 2 1509.25 69.99
-3 -6 -2 338.27 33.4
-3 -6 -2 372.96 32.8
3 6 2 331.37 32.2
-4 -6 -2 744.53 60.49
-4 -6 -2 757.92 57.69
4 6 2 709.73 59.19
4 -7 -2 4.9 11.9
4 -7 -2 -6.1 6.5
-4 7 2 -0.2 7.5
3 -7 -2 326.57 32.6
3 -7 -2 360.76 34
-3 7 2 430.56 36.4
-3 7 2 401.76 34.4
2 -7 -2 48.5 7.9
2 -7 -2 37.4 9.8
-2 7 2 31 7.8
-2 7 2 22 9.3
1 -7 -2 724.93 41.3
1 -7 -2 693.43 40.8
-1 7 2 639.74 36.3
-1 7 2 655.83 43.1
0 -7 -2 98.69 10.6
0 -7 -2 99.69 12.9
0 7 2 79.79 11.9
0 7 2 88.69 11.8
-1 -7 -2 612.74 38.3
-1 -7 -2 586.44 38.9
-1 -7 -2 618.84 35.7
1 7 2 637.94 35.6
-2 -7 -2 553.04 39.3
-2 -7 -2 520.15 39.8
-2 -7 -2 538.75 29.7
2 7 2 621.14 31.6
-3 -7 -2 11.4 8.7
-3 -7 -2 12.4 8
3 7 2 14.7 9.2
-4 -7 -2 106.49 19.1
-4 -7 -2 99.99 24.3
4 7 2 124.19 20.6
4 -8 -2 343.17 36.9
4 -8 -2 363.76 36.4
-4 8 2 311.37 37
-4 8 2 329.27 36.9
3 -8 -2 822.72 57.69
3 -8 -2 796.82 57.69
-3 8 2 917.51 58.79
-3 8 2 907.91 61.09
2 -8 -2 1608.94 88.79
2 -8 -2 1956.5 92.49
-2 8 2 1644.64 88.19
-2 8 2 1965.9 97.39
1 -8 -2 4468.95 183.98
1 -8 -2 4470.45 184.88
-1 8 2 4192.18 187.08
-1 8 2 4122.49 177.98
0 -8 -2 3607.54 153.78
0 -8 -2 3721.73 150.58
0 8 2 3422.56 152.38
0 8 2 3290.47 152.78
-1 -8 -2 3817.52 171.08
-1 -8 -2 4122.89 173.58
1 8 2 4060.29 168.58
-2 -8 -2 2680.13 120.29
-2 -8 -2 2187.08 107.69
-2 -8 -2 2591.24 122.69
2 8 2 2647.24 109.59
-3 -8 -2 1068.49 66.19
-3 -8 -2 1007.2 68.79
3 8 2 1077.29 70.19
-4 -8 -2 510.85 50.29
-4 -8 -2 577.14 47.8
4 8 2 502.25 50.99
4 -9 -2 64.89 19.4
4 -9 -2 58.49 19.7
-4 9 2 76.29 17.6
-4 9 2 74.69 19.3
3 -9 -2 619.24 49.3
3 -9 -2 629.44 49.8
-3 9 2 646.24 51.69
-3 9 2 597.34 46.8
2 -9 -2 355.46 31.1
2 -9 -2 331.57 31
-2 9 2 360.36 29.6
-2 9 2 351.36 33.2
1 -9 -2 130.09 16.5
1 -9 -2 113.49 16.1
-1 9 2 152.08 18.6
0 -9 -2 127.99 15.2
0 -9 -2 136.89 16.7
0 9 2 127.79 16.2
-1 -9 -2 257.37 23.4
-1 -9 -2 265.17 24.5
1 9 2 269.77 23.2
-2 -9 -2 212.58 22.9
-2 -9 -2 192.48 23.4
2 9 2 221.78 19
-3 -9 -2 41.6 14.4
3 9 2 51.69 16.8
3 9 2 60.39 8.3
-4 -9 -2 34.9 13.6
-4 -9 -2 67.59 14.8
4 9 2 14.4 13.9
4 -10 -2 12.5 9.6
4 -10 -2 28 15.6
-4 10 2 9.3 10.3
-4 10 2 13.3 9.7
3 -10 -2 853.81 58.89
3 -10 -2 819.02 59.29
-3 10 2 723.63 59.09
-3 10 2 806.22 56.69
2 -10 -2 230.38 26.6
2 -10 -2 221.58 24.5
-2 10 2 261.67 28.9
1 -10 -2 1960.9 96.29
1 -10 -2 2017 95.29
-1 10 2 1707.03 96.99
0 -10 -2 1453.85 76.89
0 -10 -2 1398.26 74.09
0 10 2 1476.65 77.79
-1 -10 -2 1767.62 92.89
-1 -10 -2 1886.91 93.69
1 10 2 1957.9 92.29
-2 -10 -2 1103.09 69.19
-2 -10 -2 1125.09 65.99
2 10 2 1200.08 61.39
-3 -10 -2 300.47 30.6
-3 -10 -2 308.87 32.9
3 10 2 254.17 32.3
3 10 2 309.67 21.4
-4 -10 -2 376.76 39
-4 -10 -2 391.56 43.2
4 10 2 362.56 43.8
4 -11 -2 115.59 29.7
4 -11 -2 90.19 26.8
-4 11 2 138.89 31.4
-4 11 2 150.78 23.4
3 -11 -2 512.05 46.4
3 -11 -2 463.35 46
-3 11 2 552.04 45.5
-3 11 2 523.75 48.1
2 -11 -2 334.67 34.2
2 -11 -2 279.77 29.5
-2 11 2 327.47 34.2
1 -11 -2 1558.94 80.19
1 -11 -2 1424.16 80.99
-1 11 2 1466.75 84.59
0 -11 -2 1711.83 88.69
0 -11 -2 1804.22 90.69
0 11 2 1721.13 91.39
-1 -11 -2 66.79 14.7
-1 -11 -2 51.79 12.9
1 11 2 82.39 10.7
-2 -11 -2 93.59 12.4
-2 -11 -2 78.39 18.8
2 11 2 56.99 12.5
-3 -11 -2 579.24 46.6
-3 -11 -2 587.74 49.99
3 11 2 559.34 49.6
3 11 2 540.15 34.2
-4 -11 -2 333.07 41.4
-4 -11 -2 345.77 39.2
4 11 2 458.15 44.9
3 -12 -2 56.09 19.1
3 -12 -2 48.6 17.7
-3 12 2 91.49 23.3
2 -12 -2 16.2 11.7
2 -12 -2 20.8 7
-2 12 2 11.1 9.5
1 -12 -2 327.47 30.7
1 -12 -2 364.06 33.5
-1 12 2 401.86 37.1
0 -12 -2 356.86 31.8
0 -12 -2 343.37 30.5
0 12 2 366.66 33.3
-1 -12 -2 596.54 43.6
-1 -12 -2 583.44 42.6
1 12 2 568.34 42.5
-2 -12 -2 558.74 44
-2 -12 -2 495.15 37.7
2 12 2 452.25 36
-3 -12 -2 169.98 21.8
-3 -12 -2 141.09 22.2
3 12 2 163.98 23.4
3 12 2 151.08 17.6
3 -13 -2 639.44 54.69
3 -13 -2 623.14 55.29
-3 13 2 644.44 58.19
2 -13 -2 539.35 47.6
2 -13 -2 556.04 44.8
-2 13 2 560.04 50.39
1 -13 -2 548.75 45.2
1 -13 -2 595.74 43.4
-1 13 2 549.85 47.1
0 -13 -2 741.23 51.09
0 -13 -2 682.63 49.2
0 13 2 725.33 52.79
-1 -13 -2 1104.99 66.99
-1 -13 -2 1070.39 63.79
1 13 2 985.6 63.39
-2 -13 -2 1244.88 81.19
-2 -13 -2 1459.05 77.89
2 13 2 1355.56 75.49
-3 -13 -2 72.99 21.1
-3 -13 -2 89.89 20.3
3 13 2 68.59 15.4
3 13 2 48 17.3
3 -14 -2 1 13.2
3 -14 -2 -3.6 10
-3 14 2 5.3 12.3
2 -14 -2 422.66 42.2
2 -14 -2 415.66 39.3
-2 14 2 473.15 46.8
1 -14 -2 70.59 11.1
-1 14 2 40.9 13
0 -14 -2 3.8 7.8
0 -14 -2 27.4 10.6
0 14 2 12.8 8.2
-1 -14 -2 17.9 10.4
-1 -14 -2 35 10.8
1 14 2 27.1 9.2
-2 -14 -2 30 8
-2 -14 -2 8.7 8.3
-3 -14 -2 108.69 22.4
-3 -14 -2 154.08 25.8
3 14 2 156.78 21.1
3 14 2 127.59 23.5
3 -15 -2 122.49 32.2
3 -15 -2 145.59 31.7
-3 15 2 82.99 25.6
2 -15 -2 0.6 8.6
2 -15 -2 6.1 9.2
-2 15 2 6.9 10.7
1 -15 -2 472.25 41.8
1 -15 -2 493.05 42.3
-1 15 2 450.05 46
0 -15 -2 186.88 19.7
0 -15 -2 138.89 21.8
0 15 2 146.99 24.9
-1 -15 -2 134.09 21.9
-1 -15 -2 142.29 19.8
1 15 2 107.69 22.8
-2 -15 -2 127.99 20.2
-2 -15 -2 112.29 26
2 15 2 165.18 18.7
-3 -15 -2 5.4 12.4
2 -16 -2 1206.08 83.29
2 -16 -2 1164.68 78.89
-2 16 2 1249.77 87.69
1 -16 -2 18.9 9.8
1 -16 -2 25.8 10.7
0 -16 -2 450.45 41.6
0 -16 -2 534.65 41
0 16 2 477.55 44.8
-1 -16 -2 219.78 29.3
-1 -16 -2 255.77 26.2
1 16 2 209.08 27.9
-2 -16 -2 4.2 8.3
2 16 2 5.7 9.9
2 -17 -2 -19.8 10.5
2 -17 -2 -5.6 8.4
-2 17 2 25.4 11.5
1 -17 -2 191.88 22.8
1 -17 -2 123.99 25.2
-1 17 2 160.68 34.9
0 -17 -2 78.29 20.9
0 17 2 48.6 19.4
-1 -17 -2 108.89 22.9
-1 -17 -2 146.69 22.8
1 17 2 194.78 22.2
-2 -17 -2 161.68 29.3
-2 -17 -2 235.88 25.5
2 17 2 276.87 29.3
2 -18 -2 323.37 41.3
2 -18 -2 329.77 41.7
-2 18 2 380.06 46.1
1 -18 -2 31.9 13.6
1 -18 -2 -1.1 11.5
-1 18 2 -12.7 10.3
0 -18 -2 19.3 13.4
0 -18 -2 34.8 13.6
0 18 2 61.49 17.3
-1 -18 -2 0.3 10.7
-1 -18 -2 -0.5 11.2
-2 -18 -2 11.8 14
-2 -18 -2 34.5 11
2 18 2 8.7 12.7
1 -19 -2 307.57 39.4
1 -19 -2 323.07 38.6
-1 19 2 355.66 42.5
0 -19 -2 63.79 19.2
0 -19 -2 95.29 25.3
-1 -19 -2 180.48 27.7
-1 -19 -2 173.18 29.3
1 19 2 214.18 32.7
1 19 -3 114.59 18.7
0 19 -3 33.7 12.3
0 -19 3 14.1 12.7
-1 19 -3 178.88 37.8
1 -19 3 166.78 39.1
2 18 -3 221.98 35.8
-2 -18 3 216.58 37.7
1 18 -3 104.99 23.7
-1 -18 3 123.99 30.5
0 18 -3 418.46 49.6
0 -18 3 514.15 56.09
-1 18 -3 17.3 12.6
1 -18 3 18.7 9.3
1 -18 3 29.4 12.7
2 17 -3 32.9 15.1
-2 -17 3 18.2 14.3
1 17 -3 273.27 35.7
-1 -17 3 244.78 37.5
0 17 -3 -4.5 8.3
0 -17 3 16.3 13.9
-1 17 -3 757.52 63.89
1 -17 3 706.63 69.69
1 -17 3 714.83 46.8
-2 17 -3 11.1 12.1
2 -17 3 60.29 15
2 -17 3 38.7 18.1
2 16 -3 14 12.1
-2 -16 3 6.2 11.3
1 16 -3 -3.8 8.2
-1 -16 3 0 9.4
0 16 -3 -4.1 6.8
0 -16 3 12.4 7.2
0 -16 3 7 10.6
-1 16 -3 15.5 11.3
1 -16 3 0.6 13
-2 16 -3 -8.5 9.9
2 -16 3 22.5 13.7
2 -16 3 17.4 9.9
3 15 -3 8.1 11.6
-3 -15 3 4.3 11.8
2 15 -3 23.4 9.6
-2 -15 3 -3.6 8.8
1 15 -3 358.16 39.8
-1 -15 3 318.27 41.3
0 15 -3 1.2 7.4
0 -15 3 9 10.1
0 -15 3 2.8 6.8
-1 15 -3 1347.67 88.79
1 -15 3 1488.15 99.99
1 -15 3 1277.87 71.29
-2 15 -3 8.4 9
-2 15 -3 -7.9 10.3
2 -15 3 -5.8 7.4
2 -15 3 20.2 16
-3 15 -3 1237.28 80.49
-3 15 -3 1337.47 91.59
3 -15 3 1177.38 81.29
3 -15 3 1166.78 100.89
3 14 -3 170.18 25.5
-3 -14 3 116.99 29
2 14 -3 422.16 37.8
-2 -14 3 310.87 39.6
1 14 -3 309.37 34.6
-1 -14 3 284.97 37.6
0 14 -3 1176.98 76.19
0 -14 3 1162.28 84.69
0 -14 3 1106.59 55.69
0 -14 3 1093.09 53.59
-1 14 -3 103.89 26
1 -14 3 103.59 14.8
1 -14 3 90.09 25.1
-2 14 -3 620.94 45.8
-2 14 -3 612.64 55.79
2 -14 3 655.63 46.1
2 -14 3 668.03 62.79
-3 14 -3 78.49 19.2
-3 14 -3 77.49 19.1
3 -14 3 67.69 22.5
3 13 -3 53.39 17.5
-3 -13 3 39.7 16.7
2 13 -3 149.79 20.4
1 13 -3 118.79 18.3
-1 -13 3 81.09 21.6
0 13 -3 192.98 24.5
0 -13 3 182.88 14.8
0 -13 3 151.98 14.4
0 -13 3 178.18 29.2
-1 13 -3 69.79 19.4
1 -13 3 62.19 22.2
1 -13 3 88.69 11.6
-2 13 -3 350.26 31.1
-2 13 -3 273.67 33.6
2 -13 3 298.37 30.6
2 -13 3 389.26 43.2
-3 13 -3 356.76 36.7
3 -13 3 339.57 46.9
3 -13 3 341.27 38
3 12 -3 341.57 35.2
-3 -12 3 300.17 39.5
2 12 -3 517.85 43.4
-2 -12 3 515.95 49
1 12 -3 423.16 38.8
-1 -12 3 422.76 43.2
0 12 -3 637.94 49.99
0 -12 3 674.53 57.29
0 -12 3 675.23 34.3
0 -12 3 658.53 35.6
-1 12 -3 141.29 15.7
-1 12 -3 111.79 19.1
1 -12 3 135.19 14.6
1 -12 3 117.59 26.9
-2 12 -3 739.73 49.5
-2 12 -3 689.23 55.09
2 -12 3 712.93 49.4
2 -12 3 771.22 66.39
-3 12 -3 16.1 8.7
-3 12 -3 31.4 10.6
3 -12 3 16.1 11.6
3 -12 3 47.6 15.3
4 11 -3 277.97 27.2
-4 -11 3 198.58 33.7
3 11 -3 452.15 41.1
-3 -11 3 461.45 48.5
-3 -11 3 509.55 29.5
2 11 -3 1066.99 64.99
-2 -11 3 897.71 68.19
1 11 -3 476.35 40.2
-1 -11 3 542.65 46.1
0 11 -3 459.65 38.1
0 -11 3 436.76 25.3
0 -11 3 393.56 23.8
0 -11 3 474.65 44.8
-1 11 -3 17 8.5
-1 11 -3 13.3 6.1
1 -11 3 20.5 11.1
1 -11 3 22.5 7.1
-2 11 -3 172.08 21.6
-2 11 -3 171.88 19.6
2 -11 3 140.89 19.9
2 -11 3 139.49 25.9
-3 11 -3 60.39 19
3 -11 3 68.89 23.3
4 10 -3 45.4 18.6
3 10 -3 74.69 11.4
-3 -10 3 57.49 8.2
-3 -10 3 31.1 13.7
2 10 -3 652.83 46.9
-2 -10 3 641.04 52.09
1 10 -3 235.38 24.2
-1 -10 3 186.18 25.6
0 10 -3 1164.28 69.39
0 -10 3 1193.58 53.29
0 -10 3 1208.68 54.19
0 -10 3 1198.48 77.99
-1 10 -3 1173.08 57.69
-1 10 -3 1064.29 66.09
1 -10 3 1020.9 73.89
1 -10 3 1121.29 57.19
-2 10 -3 2271.17 117.09
-2 10 -3 2342.67 112.09
2 -10 3 2268.87 129.09
-3 10 -3 29.3 9.3
-3 10 -3 22.1 6
3 -10 3 14.1 10
-4 10 -3 118.69 26.3
4 -10 3 97.39 25.9
4 9 -3 70.19 22.8
4 9 -3 119.29 19.3
-4 -9 3 83.29 23.9
3 9 -3 1619.74 85.69
-3 -9 3 1459.15 94.79
-3 -9 3 1513.35 72.19
2 9 -3 1047.5 49.9
2 9 -3 1074.69 64.79
-2 -9 3 1133.39 48.1
-2 -9 3 1119.89 72.39
1 9 -3 3227.28 149.29
-1 -9 3 3308.67 158.08
0 9 -3 3653.93 162.08
0 -9 3 3638.84 144.59
0 -9 3 3526.05 143.69
0 -9 3 3587.24 172.78
-1 9 -3 3207.68 136.39
-1 9 -3 3179.58 146.69
1 -9 3 3135.39 157.78
-2 9 -3 942.61 57.99
-2 9 -3 1012 62.39
2 -9 3 1029.5 72.09
-3 9 -3 243.18 28.2
-3 9 -3 205.48 26.6
3 -9 3 224.58 34.4
-4 9 -3 61.39 19.2
4 -9 3 56.69 20.9
4 8 -3 55.59 20
-4 -8 3 49.99 16.6
-4 -8 3 58.79 13.5
3 8 -3 44.1 11.4
-3 -8 3 31 8
-3 -8 3 26.9 9
2 8 -3 169.08 14.3
2 8 -3 172.68 20.4
-2 -8 3 183.48 12.8
-2 -8 3 193.68 24.2
1 8 -3 88.29 13.8
-1 -8 3 97.29 16.8
0 8 -3 46 11.9
0 -8 3 63.69 5.9
0 -8 3 45 5.7
0 -8 3 51.39 15.2
-1 8 -3 15.9 7.4
-1 8 -3 5.4 4
1 -8 3 5.1 6.6
-2 8 -3 22.3 8.6
-2 8 -3 26.9 8.4
2 -8 3 25.6 11
-3 8 -3 32.1 9.7
-3 8 -3 4 7.6
3 -8 3 9.9 10.7
-4 8 -3 23.2 12.4
-4 8 -3 -1.3 9.5
4 -8 3 25.5 14.6
4 7 -3 383.36 29.9
4 7 -3 289.67 38.2
-4 -7 3 307.27 38.7
-4 -7 3 285.47 27.8
3 7 -3 1518.95 81.99
-3 -7 3 1602.44 92.79
-3 -7 3 1497.65 73.39
2 7 -3 2406.56 106.29
2 7 -3 2443.46 118.19
-2 -7 3 2644.24 127.49
-2 -7 3 2641.64 104.79
1 7 -3 2701.43 127.19
-1 -7 3 2951.7 135.89
0 7 -3 4216.58 156.58
0 7 -3 4021.9 171.58
0 -7 3 3973.2 156.38
0 -7 3 3786.12 156.48
0 -7 3 3894.41 180.78
-1 7 -3 2101.39 98.49
-1 7 -3 1964 90.69
1 -7 3 2035.1 106.19
-2 7 -3 969.8 58.39
-2 7 -3 1090.99 60.89
2 -7 3 1033.9 68.39
-3 7 -3 414.06 35.3
-3 7 -3 468.95 40.3
3 -7 3 506.55 47.7
-4 7 -3 19.1 10.2
4 -7 3 11 15.3
4 6 -3 88.49 14.5
4 6 -3 57.19 19
-4 -6 3 94.39 24.5
-4 -6 3 65.49 15.2
3 6 -3 532.55 40
-3 -6 3 577.04 35.5
-3 -6 3 595.54 47.9
2 6 -3 374.76 24.2
2 6 -3 384.66 30.3
-2 -6 3 413.66 35
-2 -6 3 427.06 23.4
1 6 -3 2096.09 100.49
-1 -6 3 2265.17 107.99
0 6 -3 2754.72 122.69
0 6 -3 2878.21 109.69
0 -6 3 2652.83 130.29
0 -6 3 2722.03 109.79
-1 6 -3 410.36 26.7
-1 6 -3 415.36 29.8
1 -6 3 404.46 34.6
-2 6 -3 1659.93 85.29
-2 6 -3 1681.33 83.39
2 -6 3 1738.13 94.29
-3 6 -3 2.9 5.4
-3 6 -3 4.6 4.8
3 -6 3 -0.3 5.5
-4 6 -3 434.26 43.6
4 -6 3 447.46 49
4 5 -3 125.69 20.7
4 5 -3 88.49 18
-4 -5 3 79.19 20
-4 -5 3 84.89 13.8
3 5 -3 1117.39 64.99
-3 -5 3 1183.38 60.69
-3 -5 3 1194.68 73.49
2 5 -3 184.78 15.8
2 5 -3 219.68 20.5
-2 -5 3 204.18 15.2
-2 -5 3 218.28 23.5
1 5 -3 896.81 49.2
-1 -5 3 903.51 53.59
0 5 -3 994.7 42.1
0 5 -3 929.11 50.99
0 -5 3 1023.6 58.59
0 -5 3 984.4 42.4
-1 5 -3 2.4 2.6
-1 5 -3 7.4 4.4
1 -5 3 0.7 2.4
1 -5 3 2.2 3.1
-2 5 -3 566.64 36.7
-2 5 -3 615.34 40.7
2 -5 3 600.64 44.2
-3 5 -3 71.09 14.4
-3 5 -3 72.89 17
3 -5 3 109.89 25
-4 5 -3 38.6 13.3
4 -5 3 12.6 11.4
4 4 -3 281.97 28.7
4 4 -3 347.27 35.4
-4 -4 3 296.37 35.3
-4 -4 3 302.47 28.8
3 4 -3 523.45 37.5
3 4 -3 549.35 43
-3 -4 3 530.55 35.2
-3 -4 3 543.25 43.5
2 4 -3 1319.87 62.19
2 4 -3 1309.27 66.89
-2 -4 3 1288.07 71.39
-2 -4 3 1322.67 60.19
1 4 -3 949.01 48.1
1 4 -3 778.42 36.6
1 4 -3 956.4 37.5
-1 -4 3 860.01 50.49
0 4 -3 4557.24 180.18
0 4 -3 4691.93 189.38
0 4 -3 4517.05 194.18
0 -4 3 4735.33 196.78
0 -4 3 4445.16 187.58
0 -4 3 4784.52 180.78
-1 4 -3 5.5 3
-1 4 -3 14.5 5.2
1 -4 3 5.9 3
1 -4 3 7.4 4.9
1 -4 3 4.2 3.3
-2 4 -3 960.2 50.99
-2 4 -3 971.4 56.39
2 -4 3 955 49.9
2 -4 3 1093.29 63.19
-3 4 -3 56.49 15
-3 4 -3 78.89 9.1
3 -4 3 69.69 18.9
-4 4 -3 515.65 47.6
4 -4 3 548.45 53.39
4 3 -3 17.2 10
-4 -3 3 46.4 15.6
-4 -3 3 35.6 10.5
3 3 -3 256.27 23.2
3 3 -3 233.78 26
-3 -3 3 216.88 20.8
-3 -3 3 211.18 25
2 3 -3 63.29 9.7
2 3 -3 58.99 9.4
-2 -3 3 70.09 8.3
-2 -3 3 73.79 11
1 3 -3 4.9 2
1 3 -3 5.9 3.7
1 3 -3 3 3.2
1 3 -3 3 2.5
-1 -3 3 2 2.6
-1 -3 3 -0.4 1.9
0 3 -3 2275.07 94.79
0 3 -3 2090.79 97.79
0 3 -3 2177.18 88.19
0 -3 3 2139.09 93.59
0 -3 3 2260.67 88.99
0 -3 3 2116.39 99.49
-1 3 -3 302.27 21.7
-1 3 -3 299.37 20.6
1 -3 3 288.57 21.3
1 -3 3 313.57 19.9
1 -3 3 335.67 25.3
-2 3 -3 469.55 34
-2 3 -3 480.85 27.8
2 -3 3 408.86 25.7
2 -3 3 437.56 34.5
-3 3 -3 906.31 44
-3 3 -3 855.71 57.79
3 -3 3 824.52 59.59
3 -3 3 811.12 42.2
-4 3 -3 40.9 15.5
4 -3 3 47.3 19.9
4 2 -3 34.1 13.6
-4 -2 3 26.6 12.6
-4 -2 3 42.3 13.7
3 2 -3 1146.69 66.59
3 2 -3 1060.99 59.99
-3 -2 3 1064.29 65.19
-3 -2 3 1047.2 59.99
-3 -2 3 1092.29 58.89
2 2 -3 2822.62 123.99
-2 -2 3 2826.72 119.49
-2 -2 3 2765.92 123.89
-2 -2 3 2844.12 126.99
1 2 -3 511.15 24.9
1 2 -3 537.45 25.3
1 2 -3 500.45 30.1
1 2 -3 505.05 30.3
1 2 -3 480.85 31
-1 -2 3 479.75 29
-1 -2 3 501.05 30.4
-1 -2 3 503.95 30.8
0 2 -3 3361.36 132.39
0 2 -3 3046.5 134.29
0 2 -3 3280.87 128.89
0 2 -3 3273.87 132.39
0 -2 3 2936.31 130.99
0 -2 3 3247.38 129.29
0 -2 3 3370.16 137.29
-1 2 -3 429.86 27.4
-1 2 -3 456.35 24.7
-1 2 -3 433.86 28.1
1 -2 3 417.46 27
1 -2 3 433.86 24
-2 2 -3 1649.44 71.39
2 -2 3 1630.04 84.29
2 -2 3 1646.14 70.79
-3 2 -3 35.7 10.4
3 -2 3 22.4 10.2
-4 2 -3 303.77 31.9
4 -2 3 274.87 34.7
4 1 -3 446.26 41.8
4 1 -3 486.85 36.6
-4 -1 3 475.45 35.9
-4 -1 3 435.66 37.9
3 1 -3 19.6 8.9
3 1 -3 17.8 7.4
-3 -1 3 41.3 10.3
-3 -1 3 34.5 8.8
-3 -1 3 23 8.8
2 1 -3 695.13 40.2
2 1 -3 693.33 38.6
-2 -1 3 669.73 41
-2 -1 3 668.43 37.6
-2 -1 3 675.43 40.8
1 1 -3 3784.02 155.68
1 1 -3 3988.4 151.58
1 1 -3 4240.68 152.18
1 1 -3 3824.72 157.28
1 1 -3 3450.65 154.98
-1 -1 3 3986.5 155.78
-1 -1 3 3232.78 155.18
0 1 -3 409.36 22.9
0 1 -3 408.16 22.1
0 1 -3 409.46 23
0 1 -3 378.86 22.8
0 -1 3 399.56 24.2
0 -1 3 367.46 21.8
0 -1 3 373.36 21.9
-1 1 -3 5345.46 221.78
-1 1 -3 5409.16 221.58
-1 1 -3 5803.92 215.68
1 -1 3 5264.37 222.08
1 -1 3 5316.57 214.28
1 -1 3 5812.92 223.68
-2 1 -3 182.28 19.9
2 -1 3 241.18 22.8
-3 1 -3 2337.47 116.09
3 -1 3 2193.08 116.99
-4 1 -3 -12.2 6
4 -1 3 11.1 9.5
4 0 -3 -1.2 6
4 0 -3 -0.7 7.3
-4 0 3 2.3 5.4
-4 0 3 11.9 5.9
3 0 -3 12.1 4.3
3 0 -3 -3.5 4.1
-3 0 3 8.2 5.2
-3 0 3 1.8 4
-3 0 3 -2.5 2.8
2 0 -3 -0.8 2.5
-2 0 3 -0.5 2.3
-2 0 3 1.5 4.3
-2 0 3 3.5 3
1 0 -3 2.2 2.6
1 0 -3 -1.4 1.1
1 0 -3 2.3 1.9
1 0 -3 1 2
-1 0 3 0 1.5
-1 0 3 0.7 1.2
0 0 -3 -1.4 0.8
0 0 -3 -1.2 1
0 0 -3 -0.6 1.2
0 0 -3 3.1 2.1
0 0 3 0.4 1.6
0 0 3 -1.1 1.2
0 0 3 1.6 1.4
-1 0 -3 1.4 2
-1 0 -3 0.5 1.2
-1 0 -3 -0.3 1.8
1 0 3 4.2 1.6
1 0 3 -1.1 1.7
1 0 3 2.3 0.8
2 0 3 -0.7 2.6
-3 0 -3 7.8 5.5
3 0 3 9.5 7.5
-4 0 -3 -8.4 6.3
4 0 3 -3.6 7.3
4 -1 -3 446.36 42.3
4 -1 -3 434.46 35.7
4 -1 -3 489.75 41.1
-4 1 3 503.45 38.4
-4 1 3 453.75 38.8
3 -1 -3 25.7 8.3
3 -1 -3 22.6 8.1
-3 1 3 33.3 10.3
-3 1 3 30.8 9.3
2 -1 -3 697.83 38.7
2 -1 -3 708.53 40.2
-2 1 3 702.93 39.8
-2 1 3 665.13 41.6
-2 1 3 659.23 38.6
1 -1 -3 4026 166.08
1 -1 -3 4104.49 162.58
1 -1 -3 4028.4 162.08
1 -1 -3 4032.5 159.58
-1 1 3 4067.89 158.98
-1 1 3 3851.31 165.68
-1 1 3 3949.7 162.08
0 -1 -3 399.66 22.4
0 -1 -3 393.36 23.9
0 -1 -3 315.37 17.7
0 1 3 408.96 22.4
0 1 3 359.46 23.2
0 1 3 398.06 19.3
-1 -1 -3 5351.76 215.48
-1 -1 -3 5439.86 219.48
-1 -1 -3 5762.22 208.28
-1 -1 -3 5433.36 207.78
1 1 3 5391.86 216.48
1 1 3 5166.18 218.58
1 1 3 5096.19 216.18
-2 -1 -3 222.48 22
2 1 3 200.68 20.9
-3 -1 -3 2178.28 112.89
3 1 3 2247.48 114.99
-4 -1 -3 9.7 8.5
4 1 3 -3.4 8.3
4 -2 -3 39 13.2
4 -2 -3 31.5 14.1
-4 2 3 42.5 13.3
-4 2 3 22.5 10.4
3 -2 -3 1064.49 63.99
3 -2 -3 1087.49 62.49
-3 2 3 1084.89 61.89
-3 2 3 1084.79 62.69
2 -2 -3 2766.52 119.19
2 -2 -3 2805.72 122.29
-2 2 3 2748.72 121.29
-2 2 3 2775.32 125.29
1 -2 -3 502.45 31.7
1 -2 -3 517.75 25.2
1 -2 -3 508.65 29.6
1 -2 -3 528.75 29.4
1 -2 -3 552.24 25
-1 2 3 474.25 28.7
-1 2 3 524.85 24.7
-1 2 3 522.95 32
0 -2 -3 3301.77 139.29
0 -2 -3 3324.77 136.59
0 -2 -3 3394.86 129.69
0 2 3 3514.55 129.99
0 2 3 3347.87 129.89
0 2 3 3098.69 138.39
0 2 3 3347.57 136.29
-1 -2 -3 450.45 26.7
-1 -2 -3 464.55 21.2
-1 -2 -3 461.95 20.8
-1 -2 -3 439.56 30
1 2 3 468.95 21.2
1 2 3 371.66 25.5
1 2 3 443.46 27.3
-2 -2 -3 1652.23 85.69
2 2 3 1762.92 85.09
-3 -2 -3 35.7 12.5
3 2 3 43.5 14.6
-4 -2 -3 319.97 35.9
4 2 3 258.37 34.8
4 -3 -3 40.2 15.7
4 -3 -3 30.9 12.8
-4 3 3 46.7 13.6
-4 3 3 19.6 10.3
3 -3 -3 236.78 24
3 -3 -3 230.38 24.6
-3 3 3 222.78 23.5
-3 3 3 252.47 24.5
2 -3 -3 71.09 9
2 -3 -3 54.59 9.2
2 -3 -3 72.59 10.7
-2 3 3 55.69 12.5
-2 3 3 70.79 10.1
1 -3 -3 5.4 2.1
1 -3 -3 18.2 4.6
1 -3 -3 7.6 2.2
1 -3 -3 6.8 3.4
1 -3 -3 9.2 4.4
-1 3 3 6.8 4
-1 3 3 4.7 3.4
0 -3 -3 2181.98 87.09
0 -3 -3 2278.77 94.99
0 -3 -3 2269.77 98.39
0 3 3 2213.88 94.69
0 3 3 2025.2 96.49
0 3 3 2283.97 87.19
-1 -3 -3 302.37 20.9
-1 -3 -3 328.77 24.4
-1 -3 -3 313.87 16.6
1 3 3 306.27 21.9
1 3 3 280.77 20.4
1 3 3 315.47 16.9
-2 -3 -3 447.96 34.4
-2 -3 -3 454.35 33.4
2 3 3 485.05 33.7
-3 -3 -3 887.01 58.59
3 3 3 843.62 56.99
-4 -3 -3 88.39 21.3
4 3 3 44.4 16.2
4 -4 -3 258.27 32.7
4 -4 -3 304.57 34.8
-4 4 3 301.07 32
-4 4 3 347.87 34.8
3 -4 -3 494.65 38.2
3 -4 -3 508.25 39.8
-3 4 3 542.25 39.8
-3 4 3 540.55 40.9
2 -4 -3 1365.86 66.79
2 -4 -3 1371.46 70.29
2 -4 -3 1376.06 65.99
-2 4 3 1378.96 72.49
-2 4 3 1321.97 68.59
1 -4 -3 877.01 38
1 -4 -3 905.81 46.6
1 -4 -3 836.52 38.8
-1 4 3 863.71 37.6
-1 4 3 834.02 47.9
0 -4 -3 4175.78 192.68
0 -4 -3 5122.49 186.28
0 -4 -3 4939.61 198.18
0 4 3 5015.1 194.68
0 4 3 4669.03 187.38
-1 -4 -3 5.3 3
-1 -4 -3 5.1 2.5
-1 -4 -3 4.7 3.4
1 4 3 7.5 4.1
1 4 3 7.6 3.6
-2 -4 -3 982.1 56.19
-2 -4 -3 1072.19 59.69
2 4 3 913.61 55.39
-3 -4 -3 72.09 18.2
3 4 3 54.69 15.6
-4 -4 -3 542.85 48.9
4 4 3 513.45 49.6
4 -5 -3 69.89 19.9
4 -5 -3 63.39 18.2
-4 5 3 84.59 21
3 -5 -3 1179.08 69.69
3 -5 -3 1176.18 66.89
-3 5 3 1121.29 67.19
-3 5 3 1230.68 70.79
2 -5 -3 179.08 17.2
2 -5 -3 197.58 20.4
-2 5 3 210.58 19.5
-2 5 3 212.28 22
1 -5 -3 925.21 43.6
1 -5 -3 946.01 50.09
-1 5 3 884.81 40.7
-1 5 3 951.6 52.29
0 -5 -3 984.1 52.49
0 -5 -3 913.01 48.8
0 -5 -3 983.7 43.1
0 5 3 964.7 49.5
0 5 3 956.9 45.2
-1 -5 -3 7 1.9
-1 -5 -3 6.3 3.9
1 5 3 11.4 4.4
1 5 3 2.5 3.5
1 5 3 2.4 2.7
-2 -5 -3 617.74 42.4
-2 -5 -3 594.44 40.5
2 5 3 565.14 39.5
-3 -5 -3 69.59 16.8
-3 -5 -3 77.89 18
3 5 3 65.99 16.5
-4 -5 -3 23.1 13
4 5 3 29.7 14.5
4 -6 -3 39 14.7
4 -6 -3 66.29 20.3
-4 6 3 54.69 15.6
-4 6 3 27 12.4
3 -6 -3 590.34 42
3 -6 -3 570.14 43.9
-3 6 3 557.34 43.3
-3 6 3 560.44 42.4
2 -6 -3 432.96 33
2 -6 -3 455.85 29.2
-2 6 3 401.86 31.2
-2 6 3 416.06 34.6
1 -6 -3 2243.98 95.09
1 -6 -3 2251.37 101.39
-1 6 3 2106.59 90.59
-1 6 3 2192.78 103.79
0 -6 -3 2852.91 123.09
0 -6 -3 2736.63 111.99
0 6 3 2544.75 114.79
0 6 3 2758.22 119.29
-1 -6 -3 436.36 32.3
-1 -6 -3 356.56 24.5
-1 -6 -3 408.86 27.6
1 6 3 456.95 26.4
-2 -6 -3 1694.83 88.49
-2 -6 -3 1724.33 90.49
2 6 3 1844.52 89.69
-3 -6 -3 7.3 6.3
-3 -6 -3 10.2 7.2
3 6 3 6.6 7.3
-4 -6 -3 499.65 47.4
4 6 3 497.05 49
4 -7 -3 320.17 34.5
4 -7 -3 299.67 36.4
-4 7 3 316.27 34.9
-4 7 3 293.77 35.2
3 -7 -3 1496.85 83.09
3 -7 -3 1544.95 86.99
-3 7 3 1539.55 87.69
-3 7 3 1496.15 84.19
2 -7 -3 2707.13 127.59
2 -7 -3 2779.52 123.19
-2 7 3 2683.63 125.29
-2 7 3 2749.12 132.19
1 -7 -3 2552.94 111.79
1 -7 -3 2668.43 118.39
-1 7 3 2534.85 107.29
-1 7 3 2607.74 121.19
0 -7 -3 3960 162.78
0 -7 -3 4077.99 173.28
0 7 3 4013.6 170.38
0 7 3 3944.11 167.18
-1 -7 -3 2043.9 99.09
-1 -7 -3 2033.9 93.19
-1 -7 -3 1925.41 89.59
1 7 3 2041.4 90.69
-2 -7 -3 973.6 47.2
-2 -7 -3 1025.2 60.49
-2 -7 -3 1035 61.79
2 7 3 1015.7 47.7
2 7 3 1025.8 60.09
-3 -7 -3 503.65 40.8
-3 -7 -3 479.45 41.6
3 7 3 448.76 41.3
-4 -7 -3 3.1 8.9
4 7 3 5.3 10.7
4 -8 -3 121.09 19.6
4 -8 -3 65.89 20.8
-4 8 3 117.49 19
3 -8 -3 17 9.7
3 -8 -3 2.9 7
-3 8 3 27.3 10.4
-3 8 3 20.6 7
2 -8 -3 185.68 20
2 -8 -3 205.68 21.6
-2 8 3 165.28 22.2
1 -8 -3 70.99 12
-1 8 3 88.59 10.7
-1 8 3 100.99 15
0 -8 -3 47.5 7.8
0 -8 -3 60.99 13.8
0 8 3 37.6 10.8
0 8 3 65.69 13.7
-1 -8 -3 15.9 7.7
-1 -8 -3 14.6 5.6
1 8 3 13 5.4
-2 -8 -3 20.4 8.6
-2 -8 -3 13 6.7
-2 -8 -3 23.5 6.4
2 8 3 23.6 6.8
2 8 3 18.3 8.2
-3 -8 -3 23.1 10.3
-3 -8 -3 0.7 7.5
3 8 3 8.6 7.7
-4 -8 -3 -7.3 8.2
-4 -8 -3 -9.2 8.6
4 8 3 1.5 12.3
4 -9 -3 134.09 22.9
4 -9 -3 122.89 28.6
-4 9 3 114.29 20.6
-4 9 3 116.19 20.4
3 -9 -3 1350.16 83.19
3 -9 -3 1233.68 79.59
-3 9 3 1518.55 88.89
-3 9 3 1572.14 84.69
2 -9 -3 1115.09 63.99
2 -9 -3 1094.29 65.09
-2 9 3 1105.99 69.69
1 -9 -3 3220.38 143.49
1 -9 -3 3131.79 137.99
-1 9 3 3181.28 146.39
-1 9 3 3062.49 133.19
0 -9 -3 3779.22 162.38
0 -9 -3 3627.24 152.38
0 9 3 3324.87 156.48
0 9 3 3667.83 160.08
-1 -9 -3 3195.88 143.89
-1 -9 -3 3074.49 147.99
1 9 3 3483.55 143.89
-2 -9 -3 1015.7 60.99
-2 -9 -3 987.1 60.79
-2 -9 -3 925.31 61.09
2 9 3 872.21 48.9
-3 -9 -3 247.78 28.9
-3 -9 -3 264.97 31
3 9 3 237.58 30.1
-4 -9 -3 65.09 18.6
-4 -9 -3 75.49 21.5
4 -10 -3 42.8 20.8
4 -10 -3 74.19 23.3
-4 10 3 74.09 18.9
-4 10 3 102.69 24.9
3 -10 -3 25.8 13.2
3 -10 -3 13.2 8.5
-3 10 3 25.5 13.4
-3 10 3 15.6 10.3
2 -10 -3 693.93 46.2
2 -10 -3 613.24 46.8
-2 10 3 704.93 52.69
1 -10 -3 181.98 21.4
1 -10 -3 200.38 20.2
-1 10 3 161.28 21.7
0 -10 -3 1309.57 71.79
0 -10 -3 1261.77 63.59
0 10 3 1139.89 68.39
-1 -10 -3 1154.88 66.69
-1 -10 -3 1074.59 61.49
1 10 3 1099.89 60.89
-2 -10 -3 2232.88 112.99
-2 -10 -3 2143.79 112.49
2 10 3 2297.67 103.09
-3 -10 -3 4.4 9.4
-3 -10 -3 0.2 6.5
3 10 3 2.3 7.5
-4 -10 -3 111.99 26.6
-4 -10 -3 162.78 25.8
4 10 3 93.69 25.1
4 -11 -3 164.48 37.4
4 -11 -3 159.18 34.1
-4 11 3 226.68 29.6
-4 11 3 204.98 29.7
3 -11 -3 497.85 45.8
3 -11 -3 519.55 44.2
-3 11 3 551.54 51.09
2 -11 -3 954.4 62.69
2 -11 -3 963.5 62.19
-2 11 3 1012.8 67.39
1 -11 -3 507.95 36.6
1 -11 -3 486.45 39.3
-1 11 3 560.04 43.7
0 -11 -3 449.46 37.7
0 -11 -3 459.85 32.9
0 11 3 456.45 37.1
-1 -11 -3 15.2 7.7
1 11 3 19 9.1
-2 -11 -3 168.18 23.3
-2 -11 -3 189.68 21.4
2 11 3 178.18 19.2
-3 -11 -3 98.79 17.4
-3 -11 -3 81.49 20.5
3 11 3 98.79 23.7
3 -12 -3 321.67 35.8
3 -12 -3 299.97 35.7
-3 12 3 269.27 37.3
2 -12 -3 481.25 42.2
2 -12 -3 526.95 41.2
-2 12 3 488.25 45.5
1 -12 -3 413.96 33.2
1 -12 -3 375.56 35.1
-1 12 3 403.66 38.3
0 -12 -3 657.43 48.6
0 -12 -3 649.74 43.3
0 12 3 669.83 49
-1 -12 -3 103.59 17.6
-1 -12 -3 171.78 20.6
1 12 3 154.28 17.3
-2 -12 -3 781.02 56.19
-2 -12 -3 761.12 56.49
2 12 3 999.4 54.09
-3 -12 -3 32.1 15
-3 -12 -3 33 13.1
3 12 3 16.9 12.2
3 12 3 46.2 8.9
3 -13 -3 39 15.3
3 -13 -3 42.2 18.1
-3 13 3 64.89 22.1
2 -13 -3 97.09 22.3
2 -13 -3 96.59 22.2
-2 13 3 141.09 21.6
1 -13 -3 80.29 20.3
1 -13 -3 72.39 16.6
-1 13 3 62.39 17.7
0 -13 -3 169.68 20
0 -13 -3 205.98 25.7
0 13 3 185.98 24.9
-1 -13 -3 82.89 15.6
-1 -13 -3 115.09 18.7
1 13 3 117.79 17.1
-2 -13 -3 304.07 32.9
-2 -13 -3 348.67 34.9
2 13 3 417.36 30.3
-3 -13 -3 335.47 39.4
-3 -13 -3 311.47 36.4
3 13 3 407.16 30.4
3 13 3 276.37 37.1
3 -14 -3 150.58 33
-3 14 3 124.99 30.4
2 -14 -3 373.46 30.5
2 -14 -3 279.27 34.6
-2 14 3 334.07 39.4
1 -14 -3 311.57 29.9
1 -14 -3 327.47 32.1
-1 14 3 340.67 37
0 -14 -3 1160.18 73.19
0 -14 -3 1074.59 65.79
0 14 3 1210.48 74.99
-1 -14 -3 106.09 17.4
-1 -14 -3 111.49 19.4
1 14 3 108.39 21.8
-2 -14 -3 619.34 49.6
-2 -14 -3 609.64 48.2
2 14 3 594.54 44.3
-3 -14 -3 58.69 15.9
-3 -14 -3 60.49 15.7
3 -15 -3 0 13
3 -15 -3 24.2 14.9
-3 15 3 29.3 12.3
2 -15 -3 15 9.4
2 -15 -3 13.4 8.4
-2 15 3 14.1 13.3
1 -15 -3 310.97 35.5
1 -15 -3 268.87 29.6
-1 15 3 299.87 36.5
0 -15 -3 16.9 7.2
0 -15 -3 -3.3 8.5
0 15 3 -6.2 6
-1 -15 -3 1325.17 80.19
-1 -15 -3 1262.97 78.29
1 15 3 1464.05 84.19
-2 -15 -3 29.2 8.6
-2 -15 -3 13.9 10.9
2 15 3 2.1 7.7
-3 -15 -3 1261.67 80.09
-3 -15 -3 1114.59 81.59
3 15 3 1199.28 84.19
2 -16 -3 13.4 12.4
2 -16 -3 13.7 13.1
-2 16 3 4.1 11.6
1 -16 -3 10.7 7.9
1 -16 -3 10.5 5.9
-1 16 3 1.9 8.7
0 -16 -3 22.1 7.1
0 -16 -3 24.9 6.4
0 16 3 -6.5 8.9
-1 -16 -3 28.4 8.5
-1 -16 -3 4.6 7.1
1 16 3 6.8 9.2
-2 -16 -3 -4.7 10.4
-2 -16 -3 -1.1 8.5
2 16 3 0.5 7.4
2 -17 -3 26.9 15.2
2 -17 -3 47.1 16.6
-2 17 3 -1.5 11.4
1 -17 -3 277.67 32.4
1 -17 -3 242.98 30.4
-1 17 3 247.68 36.4
0 -17 -3 16.7 11.6
0 -17 -3 24.5 8
0 17 3 -0.7 8.3
-1 -17 -3 732.93 54.89
-1 -17 -3 684.53 55.89
1 17 3 685.73 58.29
-2 -17 -3 -1.6 12
-2 -17 -3 31.6 15.6
2 17 3 33.5 16
2 -18 -3 206.48 30.8
2 -18 -3 274.87 33.4
-2 18 3 192.08 41.9
1 -18 -3 206.58 21.9
1 -18 -3 159.68 24.7
-1 18 3 127.69 29.1
0 -18 -3 382.36 42.1
0 -18 -3 416.06 40.2
0 18 3 395.26 44.6
-1 -18 -3 -6.4 10.4
-1 -18 -3 -7.8 8
1 -19 -3 17.5 13.8
1 -19 -3 11.2 15.3
-1 19 3 32.8 18.1
0 -19 -3 10.8 12
0 19 3 8.1 10.3
-1 -19 -3 207.98 31
-1 -19 -3 248.38 31.5
1 19 3 268.97 35.4
0 19 -4 240.58 40.1
0 -19 4 326.67 38.9
1 18 -4 501.65 52.69
-1 -18 4 565.84 61.59
0 18 -4 198.38 29.1
0 -18 4 139.79 34
-1 18 -4 650.93 63.39
1 -18 4 699.53 68.29
2 17 -4 45.7 19.6
-2 -17 4 29.8 20.2
1 17 -4 -5.7 10.9
-1 -17 4 -6.5 8.5
0 17 -4 146.09 25.2
0 -17 4 112.49 29.9
-1 17 -4 9.7 12.1
1 -17 4 10.8 16.7
-2 17 -4 195.18 33.6
2 -17 4 242.38 38.1
2 -17 4 213.78 28.3
2 16 -4 18 12.1
-2 -16 4 -9 11.3
1 16 -4 1506.35 98.39
-1 -16 4 1550.84 107.79
0 16 -4 17.2 13
0 -16 4 12 12.8
-1 16 -4 2443.86 139.59
1 -16 4 2481.25 152.98
1 -16 4 2404.26 113.89
-2 16 -4 13.9 11.6
2 -16 4 0.8 14.3
2 -16 4 8.8 12.3
3 15 -4 82.19 22.6
-3 -15 4 33.7 17.1
2 15 -4 70.49 22.1
-2 -15 4 77.39 26.4
1 15 -4 53.29 18.8
-1 -15 4 61.79 22.3
0 15 -4 268.67 34.4
0 -15 4 253.37 39
-1 15 -4 -7.4 7
1 -15 4 -9.6 10.7
1 -15 4 -2.1 5.2
-2 15 -4 257.47 27.2
-2 15 -4 330.77 35
2 -15 4 287.87 44.1
2 -15 4 195.68 26.3
3 14 -4 362.36 37.9
-3 -14 4 324.77 43.8
2 14 -4 193.48 27
-2 -14 4 165.18 33.9
1 14 -4 1179.68 78.69
-1 -14 4 1111.99 84.29
0 14 -4 59.69 19
0 -14 4 43.7 8.3
0 -14 4 42.2 18.6
0 -14 4 67.99 8.6
-1 14 -4 1926.61 110.09
1 -14 4 1813.52 89.79
1 -14 4 1898.11 122.89
-2 14 -4 49.8 13.9
2 -14 4 45.3 9.9
2 -14 4 11.4 13.3
-3 14 -4 299.57 40.6
-3 14 -4 321.17 35.3
3 -14 4 346.47 45.4
3 -14 4 298.47 35.8
3 13 -4 184.48 25.9
-3 -13 4 109.09 27.4
2 13 -4 1063.79 71.89
-2 -13 4 1068.29 80.29
1 13 -4 118.59 21.3
-1 -13 4 140.89 24.5
0 13 -4 1527.15 90.69
0 -13 4 1541.75 65.39
0 -13 4 1523.45 99.99
0 -13 4 1388.26 66.09
-1 13 -4 52.69 8.4
-1 13 -4 35 13.6
1 -13 4 43.8 17
1 -13 4 52.59 8.9
-2 13 -4 935.91 66.99
-2 13 -4 943.91 57.89
2 -13 4 816.32 56.19
2 -13 4 833.42 76.09
-3 13 -4 27.8 13.4
-3 13 -4 11.8 17.1
3 -13 4 17.9 17.6
3 -13 4 39.7 12.4
3 12 -4 119.89 27
-3 -12 4 67.39 21.7
2 12 -4 173.48 24.6
-2 -12 4 170.48 29
1 12 -4 380.16 37.7
-1 -12 4 380.36 41.4
0 12 -4 1221.08 75.89
0 -12 4 1200.68 53.99
0 -12 4 1185.58 55.09
0 -12 4 1272.07 86.49
-1 12 -4 26.8 6.6
1 -12 4 14.4 10.2
-2 12 -4 10.6 5.7
-2 12 -4 -0.4 6.6
2 -12 4 10.8 12.4
2 -12 4 12.1 6.3
-3 12 -4 179.38 28.7
-3 12 -4 239.88 28.7
3 -12 4 201.68 29.4
3 -12 4 254.37 41.6
4 11 -4 321.27 32.8
-4 -11 4 242.08 37.6
3 11 -4 91.09 9.7
3 11 -4 91.79 21.6
-3 -11 4 123.99 29
2 11 -4 1044.5 67.39
-2 -11 4 1083.99 77.19
1 11 -4 28.1 11.8
-1 -11 4 51.19 15.6
0 11 -4 2232.58 116.49
0 -11 4 2296.07 94.29
0 -11 4 2392.86 128.79
0 -11 4 2146.29 92.99
-1 11 -4 269.07 29.2
-1 11 -4 239.78 20.9
1 -11 4 266.67 35
1 -11 4 260.57 21.6
-2 11 -4 325.87 29.9
-2 11 -4 384.76 35.9
2 -11 4 306.07 41.1
-3 11 -4 3.7 6
-3 11 -4 -6.6 9.7
3 -11 4 -3.2 13.2
4 10 -4 272.17 27
4 10 -4 279.77 28.9
-4 -10 4 234.58 35.4
3 10 -4 438.16 25.3
3 10 -4 404.96 38.4
-3 -10 4 377.36 23.8
-3 -10 4 386.56 42.2
2 10 -4 1101.09 66.79
-2 -10 4 994.8 72.19
1 10 -4 669.83 49.3
-1 -10 4 741.23 57.29
0 10 -4 67.79 16.9
0 -10 4 76.49 7.2
0 -10 4 42.9 14.5
0 -10 4 54.59 7.1
-1 10 -4 6.6 6.6
1 -10 4 7.6 8.6
-2 10 -4 15.3 8.4
-2 10 -4 17.6 5.9
2 -10 4 12.1 12.1
-3 10 -4 38.2 15.1
3 -10 4 40.1 19.2
4 9 -4 35.1 10.3
-4 -9 4 15.9 13.7
3 9 -4 130.19 19.5
3 9 -4 123.39 13.3
-3 -9 4 176.08 27.7
-3 -9 4 176.18 13.5
2 9 -4 354.46 32.6
-2 -9 4 303.97 34.6
1 9 -4 20.1 9
-1 -9 4 35.4 9.4
0 9 -4 747.53 51.29
0 -9 4 898.11 63.09
0 -9 4 855.41 37.3
0 -9 4 725.03 36.3
-1 9 -4 59.79 9.2
-1 9 -4 49.2 13.2
1 -9 4 46.8 16.3
-2 9 -4 215.08 25.4
-2 9 -4 239.18 24.3
2 -9 4 255.87 33.6
-3 9 -4 7.2 8.4
-3 9 -4 21.3 5.3
3 -9 4 9.8 10.9
4 -9 4 37.2 17
4 8 -4 1115.79 79.39
4 8 -4 1010.5 66.89
4 8 -4 972.8 59.89
-4 -8 4 1093.39 80.09
-4 -8 4 1048.3 58.79
3 8 -4 1065.59 66.59
3 8 -4 1029.9 53.69
-3 -8 4 1079.49 52.69
-3 -8 4 1053.99 74.59
2 8 -4 1284.87 75.49
-2 -8 4 1465.75 84.49
1 8 -4 1802.22 91.69
-1 -8 4 1732.13 96.99
0 8 -4 518.05 37.5
0 8 -4 495.45 24.5
0 -8 4 523.05 44.6
0 -8 4 479.65 25
0 -8 4 494.85 24.5
-1 8 -4 1295.47 64.99
-1 8 -4 1333.47 73.29
1 -8 4 1393.46 83.89
-2 8 -4 104.89 16.7
-2 8 -4 108.29 15.9
2 -8 4 88.49 21.8
-3 8 -4 121.99 18.5
-3 8 -4 135.99 21.7
3 -8 4 106.69 25.7
-4 8 -4 229.58 28.9
4 -8 4 198.98 36.5
4 7 -4 34.9 16.3
4 7 -4 23.9 10.7
4 7 -4 46 16.7
-4 -7 4 50.49 18.7
-4 -7 4 55.79 12.4
3 7 -4 15.9 9.3
3 7 -4 37.8 7.5
-3 -7 4 25.4 8.2
-3 -7 4 25.9 11.8
2 7 -4 196.38 20.5
2 7 -4 185.98 13.5
2 7 -4 169.38 12.1
-2 -7 4 177.48 11.9
-2 -7 4 173.88 23
1 7 -4 39.3 11.1
-1 -7 4 24 9.3
0 7 -4 839.32 50.39
0 7 -4 838.42 37.4
0 -7 4 851.91 38.4
0 -7 4 804.22 57.39
-1 7 -4 -5.2 2.5
-1 7 -4 0.1 3.2
1 -7 4 4.2 4.6
-2 7 -4 633.64 43.9
-2 7 -4 685.23 45.6
2 -7 4 693.23 54.09
-3 7 -4 64.19 17.7
3 -7 4 38.2 15.5
-4 7 -4 89.29 21.9
4 -7 4 66.39 24.9
4 6 -4 296.07 29.2
4 6 -4 347.77 31.9
4 6 -4 333.07 39.6
-4 -6 4 340.47 29.6
-4 -6 4 302.57 37.9
3 6 -4 688.93 40.9
3 6 -4 648.84 48.1
-3 -6 4 698.43 40.1
-3 -6 4 748.33 55.79
2 6 -4 1405.56 63.59
2 6 -4 1475.15 62.59
2 6 -4 1407.16 76.59
-2 -6 4 1439.96 81.89
-2 -6 4 1409.06 61.79
1 6 -4 859.31 50.49
-1 -6 4 813.32 53.89
0 6 -4 461.95 23.4
0 6 -4 490.55 33.8
0 -6 4 464.15 38.7
0 -6 4 450.75 23.9
-1 6 -4 41.9 6.7
-1 6 -4 36.1 9.9
1 -6 4 27.2 10.9
-2 6 -4 38.9 10.5
-2 6 -4 25.6 9.4
2 -6 4 30.9 11.8
-3 6 -4 22.4 6.8
3 -6 4 6.1 8.3
-4 6 -4 124.29 26.8
4 -6 4 107.79 27.1
4 5 -4 416.86 42.4
4 5 -4 417.46 34.2
4 5 -4 453.35 37.5
-4 -5 4 439.56 44.1
-4 -5 4 430.06 34.2
3 5 -4 384.46 28.3
3 5 -4 381.46 32.3
-3 -5 4 361.66 35.6
-3 -5 4 356.46 26.2
2 5 -4 2708.33 127.39
2 5 -4 2680.03 116.49
2 5 -4 3004.9 115.89
-2 -5 4 2752.32 114.49
-2 -5 4 2754.12 132.49
1 5 -4 6.1 4.4
-1 -5 4 15.2 6.8
0 5 -4 2169.88 90.49
0 5 -4 2131.49 100.79
0 -5 4 2227.78 91.39
0 -5 4 2323.17 110.49
-1 5 -4 2 4
-1 5 -4 5.8 3.7
1 -5 4 4.7 5.3
-2 5 -4 1632.04 84.09
-2 5 -4 1768.42 81.39
2 -5 4 1474.15 88.99
-3 5 -4 43.3 11.6
-3 5 -4 57.59 16.5
3 -5 4 76.99 20.3
-4 5 -4 447.36 45.2
4 -5 4 362.16 46.3
4 4 -4 84.59 22.6
4 4 -4 65.69 15.9
-4 -4 4 108.89 15.3
-4 -4 4 79.39 20.9
3 4 -4 19.3 5.5
3 4 -4 1.8 4.8
-3 -4 4 11.2 4.8
-3 -4 4 5.6 6.9
2 4 -4 352.06 23.3
2 4 -4 354.96 22.2
2 4 -4 382.66 29.6
-2 -4 4 394.56 32.2
-2 -4 4 345.97 21.9
1 4 -4 273.47 23
1 4 -4 287.87 15.8
1 4 -4 300.97 15.2
-1 -4 4 295.97 25.9
0 4 -4 1185.18 59.69
0 4 -4 1179.88 51.79
0 -4 4 1120.89 52.49
0 -4 4 1246.08 66.59
-1 4 -4 325.77 23.5
-1 4 -4 327.87 23.9
1 -4 4 329.37 28.8
1 -4 4 310.27 22.8
-2 4 -4 17.6 4.2
-2 4 -4 10.5 4
2 -4 4 7.6 6.7
-3 4 -4 452.65 30.4
-3 4 -4 488.05 41.6
3 -4 4 509.75 33.6
3 -4 4 457.45 43.7
-4 4 -4 54.49 16.6
4 -4 4 69.09 22.2
4 3 -4 654.43 52.29
4 3 -4 641.84 45.8
4 3 -4 632.64 47.7
-4 -3 4 657.43 45.2
-4 -3 4 694.93 52.69
3 3 -4 8 3.8
3 3 -4 12.8 3.9
-3 -3 4 1.8 3.8
-3 -3 4 17.7 4.4
2 3 -4 2282.37 95.59
2 3 -4 2214.88 103.79
2 3 -4 2136.19 96.19
-2 -3 4 2213.98 94.69
-2 -3 4 2125.79 105.09
1 3 -4 61.89 10.2
1 3 -4 54.19 6.4
1 3 -4 60.99 9.4
1 3 -4 59.19 6.1
-1 -3 4 55.39 10.1
0 3 -4 4009.2 164.98
0 3 -4 3814.32 168.48
0 3 -4 4020.8 159.78
0 3 -4 3800.02 165.48
0 -3 4 4081.69 160.48
0 -3 4 4221.38 173.08
0 -3 4 3950.9 164.78
-1 3 -4 337.57 23.7
-1 3 -4 294.07 21.9
1 -3 4 326.77 21.8
1 -3 4 330.27 26.9
-2 3 -4 2742.43 127.99
-2 3 -4 2844.82 118.09
2 -3 4 2787.12 132.59
2 -3 4 2667.73 116.19
-3 3 -4 33.7 8
-3 3 -4 54.19 14.4
3 -3 4 26.7 12.3
-4 3 -4 254.87 30.2
4 -3 4 194.08 32.4
4 2 -4 57.89 14.9
4 2 -4 61.89 14.5
4 2 -4 65.99 19.8
-4 -2 4 50.49 13.3
-4 -2 4 60.49 15.1
3 2 -4 1548.45 81.39
3 2 -4 1580.54 78.89
3 2 -4 1491.95 83.49
-3 -2 4 1628.64 77.99
-3 -2 4 1492.75 80.99
-3 -2 4 1459.25 83.39
2 2 -4 1952.7 94.39
2 2 -4 2015.6 88.19
-2 -2 4 1979.7 95.29
-2 -2 4 1904.31 86.69
-2 -2 4 2031.5 95.29
1 2 -4 2991.5 125.99
1 2 -4 2740.13 125.79
1 2 -4 2841.82 117.89
1 2 -4 2894.21 117.29
-1 -2 4 2894.11 117.19
-1 -2 4 2979.9 126.39
0 2 -4 13.2 4.7
0 2 -4 20.9 5.1
0 2 -4 10.4 4.4
0 -2 4 20.4 7
0 -2 4 8 3.7
0 -2 4 13 4.7
-1 2 -4 8116.39 312.87
-1 2 -4 7936.71 317.17
1 -2 4 7647.73 311.17
1 -2 4 8090.69 320.37
-2 2 -4 12.8 6.2
-2 2 -4 0.5 2.5
2 -2 4 1.4 4
2 -2 4 2.2 2.6
-3 2 -4 1320.67 78.39
3 -2 4 1277.47 80.09
-4 2 -4 91.49 21.2
4 -2 4 91.19 24.4
4 1 -4 38.4 13.1
4 1 -4 50.39 13.6
4 1 -4 64.99 12.8
-4 -1 4 51.49 13
-4 -1 4 49.7 14.7
-4 -1 4 46.1 15.1
3 1 -4 89.29 14.2
3 1 -4 90.39 13.5
3 1 -4 92.29 14.2
-3 -1 4 96.89 14.3
-3 -1 4 72.99 16.3
-3 -1 4 91.29 13.4
2 1 -4 21.3 6.3
2 1 -4 18.3 7.1
-2 -1 4 23.2 7.6
-2 -1 4 22.5 6.5
-2 -1 4 17.8 5.8
1 1 -4 381.36 26.1
1 1 -4 400.56 22.9
1 1 -4 405.66 27.2
1 1 -4 386.86 23.1
-1 -1 4 412.86 28
-1 -1 4 411.86 26
-1 -1 4 411.46 23.2
0 1 -4 575.84 31.9
0 1 -4 585.44 31.9
0 1 -4 606.04 32.6
0 1 -4 539.45 30.9
0 -1 4 563.24 31.5
0 -1 4 550.64 30.9
0 -1 4 559.54 31.8
0 -1 4 537.75 32.9
-1 1 -4 65.39 7.6
-1 1 -4 67.39 10.1
-1 1 -4 75.99 7.4
1 -1 4 51.09 6.7
1 -1 4 57.89 9.8
-2 1 -4 749.33 47.2
2 -1 4 691.63 32.7
-3 1 -4 159.38 21.9
3 -1 4 137.19 19.9
-4 1 -4 345.67 39.2
4 -1 4 352.56 41.4
4 0 -4 4.8 5.7
4 0 -4 5.7 8.7
4 0 -4 12.4 7.4
-4 0 4 18.9 9.2
-4 0 4 -5 8.3
3 0 -4 227.18 21.4
3 0 -4 233.68 21.4
3 0 -4 192.68 21
-3 0 4 211.78 21.4
-3 0 4 208.98 21.4
-3 0 4 188.68 21.5
2 0 -4 26.2 8.7
2 0 -4 21 6
2 0 -4 41.1 7.1
-2 0 4 29.3 7.5
-2 0 4 24.9 6.8
-2 0 4 35.4 9.8
1 0 -4 5204.88 207.78
1 0 -4 5163.98 204.08
1 0 -4 4900.01 202.28
1 0 -4 4931.51 203.68
-1 0 4 4964.3 203.08
-1 0 4 5190.48 209.18
-1 0 4 5150.38 202.58
0 0 -4 900.01 45.2
0 0 -4 886.31 42.9
0 0 -4 849.52 43.3
0 0 -4 841.92 40.5
0 0 4 899.41 43.9
0 0 4 898.61 43.2
0 0 4 719.53 42.7
-1 0 -4 8373.46 338.97
-1 0 -4 9080.69 339.67
-1 0 -4 8606.04 347.07
-1 0 -4 8710.43 348.97
1 0 4 8952.8 347.47
-2 0 -4 4.9 4.7
2 0 4 15.6 6.3
-3 0 -4 6273.37 271.47
3 0 4 6210.08 272.87
-4 0 -4 375.26 40.1
4 0 4 305.97 37.9
4 -1 -4 34.6 12
4 -1 -4 33.8 13.7
4 -1 -4 40.9 13.1
-4 1 4 43 15
-4 1 4 66.69 11
3 -1 -4 97.79 13.3
3 -1 -4 78.49 13.2
-3 1 4 86.89 17.6
-3 1 4 91.79 14
-3 1 4 92.09 14.5
2 -1 -4 22.1 7.3
2 -1 -4 18.7 5.9
-2 1 4 20 6.4
-2 1 4 14.1 6.7
1 -1 -4 382.66 22.7
1 -1 -4 409.36 24.9
1 -1 -4 418.06 25.8
-1 1 4 416.46 22
-1 1 4 378.26 24.9
-1 1 4 404.66 28
0 -1 -4 566.14 27.4
0 -1 -4 582.64 33.6
0 -1 -4 562.54 31.9
0 1 4 521.35 33
0 1 4 573.94 29
0 1 4 587.74 32.2
-1 -1 -4 58.99 8.4
-1 -1 -4 79.39 10.7
-1 -1 -4 56.19 6.5
-1 -1 -4 61.79 6.8
1 1 4 69.29 9.8
1 1 4 57.99 9
-2 -1 -4 757.62 48.8
2 1 4 757.62 47.8
-3 -1 -4 130.09 20
3 1 4 165.88 20.3
-4 -1 -4 353.16 39.3
4 1 4 329.47 40.6
4 -2 -4 25.9 12.8
4 -2 -4 52.09 16
4 -2 -4 65.69 17.1
-4 2 4 61.39 15.7
-4 2 4 89.39 14.4
3 -2 -4 1387.36 76.29
3 -2 -4 1533.45 80.19
-3 2 4 1547.05 79.09
-3 2 4 1454.75 81.39
2 -2 -4 1860.51 88.99
2 -2 -4 2044.3 88.59
2 -2 -4 2079.59 93.39
-2 2 4 1982.5 91.69
-2 2 4 1905.51 87.49
-2 2 4 1963.6 96.59
1 -2 -4 2751.92 117.59
1 -2 -4 2837.52 125.59
1 -2 -4 2887.71 130.29
1 -2 -4 3156.88 116.79
-1 2 4 2962.4 129.39
-1 2 4 2986.7 132.49
-1 2 4 3016.1 116.79
0 -2 -4 18.2 2.7
0 -2 -4 21.2 6.8
0 -2 -4 15.6 5.1
0 2 4 14.8 4.9
0 2 4 19.6 6.3
0 2 4 18.8 3.4
0 2 4 15.4 3.2
-1 -2 -4 7946.4 307.97
-1 -2 -4 7469.85 313.17
-1 -2 -4 8078.09 321.77
-1 -2 -4 8111.59 307.27
1 2 4 8168.98 314.87
1 2 4 7575.54 314.27
1 2 4 8177.58 307.97
-2 -2 -4 5.2 4
2 2 4 11.1 5.1
-3 -2 -4 1235.98 76.69
3 2 4 1308.77 77.79
-4 -2 -4 124.29 26.3
4 2 4 119.89 28.3
4 -3 -4 697.03 50.79
4 -3 -4 642.94 50.79
-4 3 4 669.33 49.8
-4 3 4 589.44 48.3
3 -3 -4 19.8 4.9
3 -3 -4 3 4.3
-3 3 4 10.4 6
-3 3 4 9 5.5
2 -3 -4 2296.87 98.09
2 -3 -4 2203.18 103.79
2 -3 -4 2174.08 98.49
-2 3 4 2218.98 107.59
-2 3 4 2255.07 102.69
1 -3 -4 55.29 4.6
1 -3 -4 66.49 10.1
1 -3 -4 62.99 5.3
-1 3 4 79.89 11.3
0 -3 -4 4207.18 174.28
0 -3 -4 4200.98 178.58
0 3 4 4286.97 164.98
0 3 4 4568.94 165.58
0 3 4 4290.67 174.38
0 3 4 3836.42 183.98
-1 -3 -4 341.77 27.4
-1 -3 -4 333.27 19.6
1 3 4 331.57 23.7
1 3 4 330.57 19.5
1 3 4 339.97 23.2
-2 -3 -4 2809.72 131.89
2 3 4 2770.32 128.49
-3 -3 -4 47 14.3
3 3 4 58.19 15.5
-4 -3 -4 184.48 29.6
4 3 4 219.68 31.9
4 -4 -4 77.49 19.8
4 -4 -4 79.99 17.9
-4 4 4 99.09 21.8
-4 4 4 58.89 18.2
3 -4 -4 9.8 6.5
3 -4 -4 -1.6 5.6
-3 4 4 7.5 6.2
-3 4 4 7.9 3.8
2 -4 -4 354.66 24.8
2 -4 -4 402.26 24.9
2 -4 -4 400.96 30.5
-2 4 4 384.46 28.6
-2 4 4 374.26 31.8
1 -4 -4 271.67 22
-1 4 4 276.17 23.8
0 -4 -4 1199.18 61.39
0 -4 -4 1109.59 56.49
0 4 4 1252.07 57.89
0 4 4 1033.1 47.1
0 4 4 1130.09 48.5
-1 -4 -4 283.17 19.2
-1 -4 -4 348.27 22.8
-1 -4 -4 343.87 28.3
1 4 4 351.96 23
1 4 4 282.37 22.6
1 4 4 328.77 20
-2 -4 -4 7.6 5.7
2 4 4 3.7 4.1
-3 -4 -4 490.75 42.4
3 4 4 439.16 40.5
-4 -4 -4 80.19 22.9
4 4 4 40.3 16.9
4 -5 -4 495.65 41.1
4 -5 -4 468.75 43.7
-4 5 4 445.56 41.3
-4 5 4 395.46 41
3 -5 -4 367.36 31.3
3 -5 -4 444.06 37
-3 5 4 346.97 34.5
-3 5 4 419.86 34.2
2 -5 -4 2769.32 124.89
2 -5 -4 2435.46 114.39
2 -5 -4 2750.82 115.19
-2 5 4 2814.52 128.79
1 -5 -4 26.2 8.5
-1 5 4 14.1 6.5
0 -5 -4 2308.47 90.19
0 -5 -4 2260.27 105.19
0 5 4 2264.27 89.69
0 5 4 2093.69 91.89
-1 -5 -4 7.7 3.6
-1 -5 -4 1.1 4
1 5 4 8.2 3
1 5 4 5 2.7
-2 -5 -4 1689.63 90.09
-2 -5 -4 1665.43 85.19
2 5 4 1691.13 85.49
-3 -5 -4 40.4 13.6
3 5 4 41.9 14.4
-4 -5 -4 414.16 44.2
4 5 4 399.36 44.4
4 -6 -4 388.16 33.8
4 -6 -4 311.77 37.5
-4 6 4 358.26 36.7
-4 6 4 330.77 36
3 -6 -4 783.02 48.4
3 -6 -4 748.03 53.09
-3 6 4 738.03 51.39
-3 6 4 739.63 54.69
2 -6 -4 1517.65 69.69
2 -6 -4 1464.35 77.39
2 -6 -4 1422.86 67.69
-2 6 4 1437.26 80.49
1 -6 -4 840.62 38.6
1 -6 -4 830.02 49.6
-1 6 4 856.11 36.3
-1 6 4 849.12 51.89
0 -6 -4 447.16 34.1
0 -6 -4 474.15 24.1
0 6 4 456.35 26.1
0 6 4 477.95 31.9
-1 -6 -4 26.3 8.9
-1 -6 -4 32.8 7
1 6 4 26.7 7
1 6 4 26.5 7.1
-2 -6 -4 20.5 9.5
-2 -6 -4 32.7 9.2
2 6 4 27.4 9.2
-3 -6 -4 14.6 9
3 6 4 7.2 8.4
-4 -6 -4 145.59 29.9
4 6 4 86.59 26.5
4 -7 -4 58.39 15.9
4 -7 -4 68.19 16.6
-4 7 4 66.69 17.6
-4 7 4 53.49 18.9
3 -7 -4 19.8 10.6
3 -7 -4 43.9 12.1
-3 7 4 36.6 11.7
-3 7 4 22.4 10.7
2 -7 -4 186.18 21.5
2 -7 -4 217.78 18.7
2 -7 -4 204.38 16.9
-2 7 4 156.88 14.9
-2 7 4 192.48 21.6
1 -7 -4 17.4 4.9
1 -7 -4 24.5 7.9
-1 7 4 25.8 9.4
0 -7 -4 868.11 40.1
0 -7 -4 817.92 51.39
0 7 4 858.81 49.1
0 7 4 751.32 42.6
-1 -7 -4 10.5 2.8
1 7 4 5.9 3.5
-2 -7 -4 594.44 42.1
-2 -7 -4 544.95 30
-2 -7 -4 576.84 45.1
2 7 4 714.23 44.6
2 7 4 599.94 30.8
-3 -7 -4 48.4 17
-3 -7 -4 45.9 13.9
3 7 4 46.9 15.2
-4 -7 -4 75.59 21.5
4 7 4 81.69 23.4
4 -8 -4 1019 69.49
4 -8 -4 1012.3 74.19
-4 8 4 1054.09 72.09
-4 8 4 1019.6 72.79
3 -8 -4 1116.69 71.99
3 -8 -4 1132.89 66.09
-3 8 4 1121.89 69.39
-3 8 4 1127.09 74.09
2 -8 -4 1524.95 80.19
2 -8 -4 1408.06 73.79
2 -8 -4 1392.36 71.19
-2 8 4 1350.86 81.69
-2 8 4 1390.36 75.49
1 -8 -4 1807.22 89.89
1 -8 -4 1677.03 76.69
-1 8 4 1798.42 91.69
-1 8 4 1716.83 74.39
0 -8 -4 509.45 28.6
0 -8 -4 506.95 38.3
0 8 4 473.35 35.4
0 8 4 507.45 32.3
-1 -8 -4 1388.66 76.99
-1 -8 -4 1377.86 68.19
1 8 4 1268.97 66.69
-2 -8 -4 105.79 15.8
-2 -8 -4 104.99 21.7
2 8 4 102.39 11.9
2 8 4 102.59 15.9
-3 -8 -4 155.08 23.6
-3 -8 -4 146.19 20.9
3 8 4 117.09 20.8
-4 -8 -4 221.88 32.5
4 8 4 203.68 32
4 -9 -4 -2.8 8.2
4 -9 -4 -0.7 11.8
-4 9 4 7.9 7.9
-4 9 4 -13 7
3 -9 -4 118.09 19.9
-3 9 4 124.79 25.7
2 -9 -4 351.76 32.3
2 -9 -4 321.77 26.3
-2 9 4 346.47 34.9
1 -9 -4 14.3 7.7
1 -9 -4 22.3 6.4
-1 9 4 22 8.5
-1 9 4 34.2 5.5
0 -9 -4 800.22 53.09
0 -9 -4 811.42 42.2
0 9 4 746.13 46.1
0 9 4 837.22 50.99
-1 -9 -4 63.99 16.9
-1 -9 -4 41.2 10.2
1 9 4 61.09 9
-2 -9 -4 229.28 23.8
-2 -9 -4 229.68 27.5
-2 -9 -4 228.58 18.4
2 9 4 196.88 18.6
2 9 4 216.08 23.2
-3 -9 -4 27.5 12.8
-3 -9 -4 26.3 10.2
3 9 4 4.4 8.4
-4 -9 -4 74.59 17.9
4 9 4 30.3 16.1
4 -10 -4 269.67 35.6
4 -10 -4 242.08 30.2
-4 10 4 269.27 35.9
3 -10 -4 403.76 38.4
3 -10 -4 375.56 35.2
-3 10 4 354.76 39.1
2 -10 -4 1060.69 65.79
2 -10 -4 1051.69 59.19
-2 10 4 967.6 68.19
1 -10 -4 727.13 50.79
1 -10 -4 689.73 41.1
-1 10 4 793.02 40.1
-1 10 4 726.03 52.19
0 -10 -4 73.79 10.3
0 -10 -4 81.99 18.2
0 10 4 80.39 17.1
0 10 4 71.79 13.5
-1 -10 -4 19.6 6.9
-1 -10 -4 19.7 7.3
1 10 4 16.6 7.1
-2 -10 -4 16.3 7.4
-2 -10 -4 21.2 6.1
2 10 4 17.4 7.5
-3 -10 -4 48 15.9
3 10 4 37.8 14.7
4 -11 -4 228.58 36.7
4 -11 -4 187.58 32.3
-4 11 4 227.98 33.9
3 -11 -4 104.19 18.7
3 -11 -4 84.39 22.4
-3 11 4 104.39 25
2 -11 -4 887.51 61.89
2 -11 -4 951.6 57.39
-2 11 4 963.9 67.39
1 -11 -4 39.1 12.2
1 -11 -4 68.89 8.8
-1 11 4 73.19 18.7
0 -11 -4 2119.29 109.99
0 -11 -4 2133.09 97.09
0 11 4 2034.9 106.49
-1 -11 -4 255.67 29.2
-1 -11 -4 284.47 25.7
1 11 4 309.27 26.9
-2 -11 -4 339.77 34.4
-2 -11 -4 357.96 32.4
2 11 4 367.06 33.8
2 11 4 375.16 29.1
-3 -11 -4 -6.9 6.8
-3 -11 -4 6.2 9
3 11 4 14.7 6.9
3 -12 -4 80.89 20.5
3 -12 -4 86.59 22.3
-3 12 4 103.49 26.4
2 -12 -4 135.89 23.4
-2 12 4 189.78 27.9
1 -12 -4 378.96 28.1
1 -12 -4 440.26 39
-1 12 4 393.36 38.2
0 -12 -4 1272.27 64.89
0 -12 -4 1231.98 76.09
0 12 4 1189.38 73.59
-1 -12 -4 13.3 7
-1 -12 -4 13.1 6.2
1 12 4 16.9 8.1
-2 -12 -4 8.8 6.8
-2 -12 -4 -0.2 8.8
2 12 4 1 5.1
2 12 4 9.7 4.8
-3 -12 -4 211.38 30.1
-3 -12 -4 213.98 29.1
3 12 4 197.38 29.2
3 -13 -4 80.29 23.2
-3 13 4 115.49 28.9
2 -13 -4 977.2 68.39
2 -13 -4 972.5 61.89
-2 13 4 1039.9 74.29
1 -13 -4 129.79 16.1
1 -13 -4 158.48 19.3
-1 13 4 130.69 20.5
0 -13 -4 1405.96 73.89
0 -13 -4 1500.95 86.59
0 13 4 1364.96 83.49
-1 -13 -4 38.6 14.1
1 13 4 45 12.9
-2 -13 -4 912.81 64.59
-2 -13 -4 892.51 62.69
2 13 4 1009 58.39
-3 -13 -4 19.5 13.3
-3 -13 -4 32.7 13.6
3 13 4 7.4 12.1
3 -14 -4 294.47 33.1
3 -14 -4 251.67 36.4
-3 14 4 344.67 44.3
2 -14 -4 141.09 21.6
2 -14 -4 167.98 26.5
-2 14 4 172.78 28.6
1 -14 -4 1245.28 79.69
1 -14 -4 1114.49 64.49
-1 14 4 1189.08 78.69
0 -14 -4 64.69 14.4
0 -14 -4 58.59 18.2
0 14 4 87.19 15.1
-1 -14 -4 1757.52 103.89
-1 -14 -4 1917.51 98.79
1 14 4 1970.9 103.19
-2 -14 -4 27.3 12.9
-2 -14 -4 26.9 14.8
2 14 4 59.19 14.2
-3 -14 -4 300.77 36.7
-3 -14 -4 263.37 35.8
3 14 4 281.77 35.3
3 -15 -4 33.7 17.1
3 -15 -4 23.5 15.4
-3 15 4 58.69 14.8
2 -15 -4 39.1 14.6
2 -15 -4 25.4 14.7
-2 15 4 62.39 16.1
1 -15 -4 64.29 15
-1 15 4 67.99 18.4
0 -15 -4 247.58 24.3
0 -15 -4 254.17 33
0 15 4 246.48 31.7
-1 -15 -4 -12.8 7.3
-1 -15 -4 -2.2 5
1 15 4 -4.5 7.6
-2 -15 -4 263.07 32.1
-2 -15 -4 286.87 33.1
2 15 4 270.87 29
2 -16 -4 16.9 7.4
2 -16 -4 -2.8 10.1
-2 16 4 -7.8 9.6
1 -16 -4 1441.66 82.29
1 -16 -4 1601.34 96.69
-1 16 4 1546.75 99.09
0 -16 -4 59.59 11.1
0 -16 -4 86.99 14.4
0 16 4 37.8 14.8
-1 -16 -4 2395.16 125.59
-1 -16 -4 2541.35 134.29
1 16 4 2578.74 133.89
-2 -16 -4 21 15.4
-2 -16 -4 17.1 11.8
2 16 4 36.4 12.2
2 -17 -4 65.09 22.3
-2 17 4 72.49 22.5
1 -17 -4 8 11.8
1 -17 -4 -9.2 6.7
-1 17 4 7.4 10.3
0 -17 -4 115.69 27.1
0 -17 -4 142.99 20.3
0 17 4 139.19 29
-1 -17 -4 39 14.4
-1 -17 -4 13.6 9.9
1 17 4 12.7 12.9
-2 -17 -4 169.78 27.8
-2 -17 -4 166.98 28.1
2 17 4 189.58 27.2
1 -18 -4 621.04 56.39
1 -18 -4 557.64 44
-1 18 4 603.24 55.99
0 -18 -4 119.49 21
0 -18 -4 130.69 30.2
0 18 4 136.69 30.2
-1 -18 -4 739.33 55.99
-1 -18 -4 715.43 59.79
1 18 4 678.33 59.39
0 -19 -4 389.06 42
0 -19 -4 298.17 32.4
0 19 4 292.87 39.1
1 18 -5 26.3 17.8
0 18 -5 241.48 33
0 -18 5 161.78 39.9
-1 18 -5 76.29 23.8
1 -18 5 34.6 14.1
2 17 -5 134.09 21.3
1 17 -5 1418.66 98.09
-1 -17 5 1386.36 105.69
0 17 -5 3.3 9.7
0 -17 5 -14.8 11.3
-1 17 -5 828.42 71.89
1 -17 5 730.93 75.99
2 16 -5 31.3 12.1
-2 -16 5 3.7 12.7
1 16 -5 1.3 12.9
-1 -16 5 -15.5 8.6
0 16 -5 -5.9 8.6
0 -16 5 2.7 10.7
-1 16 -5 5.8 11.3
1 -16 5 -5.3 11.9
1 -16 5 -11.1 6.4
-2 16 -5 -10.2 12.8
-2 16 -5 10.4 7.7
2 -16 5 7.6 14.6
2 -16 5 4.2 10.2
2 15 -5 187.68 21.1
1 15 -5 2297.77 132.39
-1 -15 5 2469.85 144.79
0 15 -5 21.6 12.3
0 -15 5 7.8 12.6
-1 15 -5 1344.27 92.69
1 -15 5 1466.35 108.59
1 -15 5 1532.45 74.59
-2 15 -5 39.6 13.3
-2 15 -5 26 15.2
2 -15 5 67.29 24.7
2 -15 5 36.5 14.7
3 14 -5 26 14.9
-3 -14 5 15.6 13.9
2 14 -5 839.82 65.79
-2 -14 5 759.22 69.39
1 14 -5 5.6 10.4
-1 -14 5 -3.1 8.9
0 14 -5 960.5 69.99
0 -14 5 945.51 79.09
-1 14 -5 52.99 8.5
-1 14 -5 26.5 12.9
1 -14 5 32.2 13.6
1 -14 5 34.2 9.3
-2 14 -5 419.16 43.3
-2 14 -5 315.57 30.6
2 -14 5 353.66 33.3
2 -14 5 308.57 47.2
3 13 -5 380.66 38
-3 -13 5 285.37 41.7
2 13 -5 425.96 43.2
-2 -13 5 470.15 48.1
1 13 -5 262.37 32.4
-1 -13 5 250.27 36.3
0 13 -5 -3.6 4.7
0 -13 5 6.9 9.1
-1 13 -5 496.85 47
-1 13 -5 547.25 34.3
1 -13 5 481.35 54.69
1 -13 5 571.44 36.2
-2 13 -5 37 15.8
-2 13 -5 55.09 14.6
2 -13 5 62.49 10.2
2 -13 5 45 20.5
-3 13 -5 201.08 28.3
-3 13 -5 212.98 33.6
3 -13 5 179.58 28.7
3 -13 5 172.78 41.6
3 12 -5 6.1 10.3
-3 -12 5 3.2 12
2 12 -5 682.73 55.19
-2 -12 5 685.13 60.29
1 12 -5 333.27 34.9
-1 -12 5 330.97 40.4
0 12 -5 677.73 53.69
0 -12 5 746.53 63.89
-1 12 -5 349.96 37.7
-1 12 -5 376.46 28.1
1 -12 5 438.86 29.2
1 -12 5 406.96 46.4
-2 12 -5 854.41 62.89
-2 12 -5 849.72 54.89
2 -12 5 766.72 72.29
-3 12 -5 260.77 31.9
-3 12 -5 267.77 34.9
3 -12 5 246.58 43.3
3 11 -5 50.49 17.2
-3 -11 5 39.2 16.2
2 11 -5 121.79 14.8
1 11 -5 72.39 11.3
-1 -11 5 54.89 15.4
0 11 -5 814.72 57.19
0 -11 5 807.32 66.49
-1 11 -5 63.99 11
-1 11 -5 84.79 20.3
1 -11 5 76.89 20.3
-2 11 -5 846.12 54.39
-2 11 -5 839.52 61.99
2 -11 5 814.42 71.89
-3 11 -5 57.49 16.6
-3 11 -5 25.9 15.4
3 -11 5 26.7 17.8
4 10 -5 431.06 43.3
-4 -10 5 393.96 46.5
3 10 -5 1.3 8.9
-3 -10 5 31.6 14.5
2 10 -5 784.02 56.99
-2 -10 5 738.13 59.19
1 10 -5 5.7 5.4
-1 -10 5 -0.1 4.7
0 10 -5 960.5 61.29
0 -10 5 897.61 68.59
0 -10 5 858.11 40.9
-1 10 -5 45.3 14.3
-1 10 -5 40.6 9.7
1 -10 5 49.7 18
-2 10 -5 602.44 49.6
-2 10 -5 652.53 44.9
2 -10 5 616.54 59.19
-3 10 -5 82.09 18.5
-3 10 -5 70.29 18.6
3 -10 5 53.59 22.9
4 9 -5 224.38 24
4 9 -5 281.57 31.2
-4 -9 5 184.58 33.3
3 9 -5 463.15 27.2
3 9 -5 490.15 43.6
-3 -9 5 493.65 48.8
2 9 -5 -4.5 6.7
-2 -9 5 14 8.4
1 9 -5 262.47 28.4
-1 -9 5 309.17 34.4
0 9 -5 5.5 2.6
0 9 -5 2.8 4.3
0 -9 5 -3.3 3.7
0 -9 5 -0.3 2
-1 9 -5 771.02 55.59
-1 9 -5 1000.6 50.39
1 -9 5 901.01 67.99
-2 9 -5 1036.1 62.99
-2 9 -5 1114.89 68.89
2 -9 5 1074.19 79.69
-3 9 -5 112.99 19.8
3 -9 5 78.19 26.2
4 8 -5 10.8 7.4
4 8 -5 -4.4 11.4
-4 -8 5 -9.5 7.9
-4 -8 5 15.3 6.7
3 8 -5 3.5 6.9
3 8 -5 0.4 3.5
-3 -8 5 9.5 3.5
-3 -8 5 7.1 8.5
2 8 -5 45.5 13.9
-2 -8 5 32.6 12.1
1 8 -5 84.59 18.5
-1 -8 5 81.79 19.1
0 8 -5 121.79 17.1
0 8 -5 116.69 9.3
0 -8 5 101.19 9.9
0 -8 5 106.79 20
-1 8 -5 -2 3.9
-1 8 -5 5.9 4
1 -8 5 -0.6 5.9
-2 8 -5 27.7 8.7
-2 8 -5 32.6 11.8
2 -8 5 18.4 11.5
-3 8 -5 33.7 12.5
-3 8 -5 43.3 13.7
3 -8 5 60.19 16.7
-4 8 -5 28.5 7.1
4 -8 5 27.3 17.3
4 7 -5 206.98 23.6
4 7 -5 266.77 34.9
4 7 -5 221.98 30.6
-4 -7 5 221.88 33.6
-4 -7 5 237.68 22.9
3 7 -5 63.29 10.5
3 7 -5 48.6 15.7
-3 -7 5 77.59 18.8
2 7 -5 105.29 16
-2 -7 5 120.19 19.9
1 7 -5 337.37 30.5
-1 -7 5 369.66 35.4
0 7 -5 461.55 25.2
0 7 -5 496.85 37.1
0 -7 5 572.04 45
0 -7 5 487.15 26.4
-1 7 -5 580.04 40.9
-1 7 -5 587.04 36.2
1 -7 5 599.24 47.2
-2 7 -5 1268.47 70.69
-2 7 -5 1245.58 71.19
2 -7 5 1293.57 82.79
-3 7 -5 801.62 49.6
-3 7 -5 732.33 55.49
3 -7 5 712.53 63.79
-4 7 -5 1149.19 79.79
4 -7 5 1136.69 91.19
4 6 -5 145.39 19.5
4 6 -5 186.28 23.9
4 6 -5 179.98 26.8
-4 -6 5 171.78 28.5
-4 -6 5 157.48 18.3
3 6 -5 69.99 10.1
3 6 -5 89.09 13.1
-3 -6 5 60.29 17.6
2 6 -5 642.24 33.2
2 6 -5 656.03 46.5
2 6 -5 658.13 32.7
-2 -6 5 705.63 50.79
1 6 -5 45.7 12
-1 -6 5 57.89 14.3
0 6 -5 2300.47 108.09
0 6 -5 2253.67 94.49
0 -6 5 2292.67 95.99
0 -6 5 2246.58 116.99
-1 6 -5 166.18 16.6
-1 6 -5 134.69 17.5
1 -6 5 190.88 24
-2 6 -5 993.3 59.69
-2 6 -5 1020.4 57.59
2 -6 5 1015.1 70.19
-3 6 -5 272.57 30.1
-3 6 -5 237.78 23.9
3 -6 5 265.57 36.2
-4 6 -5 170.38 28.9
4 -6 5 168.88 31.3
4 5 -5 174.48 23.6
4 5 -5 149.88 19.6
-4 -5 5 151.38 23.9
-4 -5 5 141.59 19.3
3 5 -5 1.5 3.9
3 5 -5 0.7 5.3
-3 -5 5 7.3 3.6
2 5 -5 31.4 7.1
2 5 -5 25.2 6
2 5 -5 29.2 9.3
-2 -5 5 22.9 10.2
1 5 -5 64.89 9
-1 -5 5 35.1 11.1
0 5 -5 1138.09 62.19
0 5 -5 1112.09 52.09
0 -5 5 1141.99 53.29
0 -5 5 1219.78 70.29
-1 5 -5 321.77 25
-1 5 -5 279.37 22.8
1 -5 5 297.47 28.9
-2 5 -5 645.24 39.9
-2 5 -5 561.64 42.3
2 -5 5 681.93 50.69
-3 5 -5 16 10.6
3 -5 5 15.4 10
-4 5 -5 295.57 36.4
4 -5 5 267.97 38.2
4 4 -5 472.15 46.7
4 4 -5 559.44 38.6
4 4 -5 429.06 40.7
-4 -4 5 530.05 47.8
-4 -4 5 488.45 36.2
3 4 -5 105.19 11.6
3 4 -5 78.19 13.6
-3 -4 5 64.59 10.5
-3 -4 5 77.29 18.3
2 4 -5 1941.41 87.19
2 4 -5 1951.4 88.09
2 4 -5 2067.19 100.29
-2 -4 5 2079.79 102.49
1 4 -5 419.46 20.9
1 4 -5 404.16 30.6
1 4 -5 422.06 22.3
-1 -4 5 434.76 33.5
-1 -4 5 329.97 20.1
0 4 -5 3324.57 138.79
0 4 -5 3405.46 147.99
0 -4 5 3591.84 156.58
0 -4 5 3302.57 139.69
-1 4 -5 1073.09 56.79
-1 4 -5 1077.29 57.49
1 -4 5 1144.49 66.09
-2 4 -5 1201.68 60.29
-2 4 -5 1125.09 66.49
2 -4 5 1179.68 72.49
-3 4 -5 316.67 33.3
-3 4 -5 290.47 22.7
3 -4 5 303.97 22
3 -4 5 307.47 35.9
-4 4 -5 169.88 28
4 -4 5 175.98 31.9
4 3 -5 550.24 49.8
4 3 -5 629.54 44.5
4 3 -5 602.04 46.8
-4 -3 5 565.14 42
-4 -3 5 619.94 51.29
3 3 -5 344.27 31.9
3 3 -5 333.17 27.3
-3 -3 5 306.67 31.2
-3 -3 5 324.07 25.7
2 3 -5 152.18 18.4
2 3 -5 114.39 13.6
2 3 -5 153.18 13.5
-2 -3 5 144.99 17.6
1 3 -5 3604.34 151.28
1 3 -5 3383.86 140.59
1 3 -5 3299.17 138.19
-1 -3 5 3566.64 152.88
-1 -3 5 3389.36 138.59
0 3 -5 198.88 18.5
0 3 -5 204.18 15.5
0 -3 5 203.38 15.4
0 -3 5 213.88 22.1
-1 3 -5 1160.88 61.09
-1 3 -5 1193.78 59.89
1 -3 5 1228.78 67.69
1 -3 5 1171.28 59.19
-2 3 -5 192.68 16.8
-2 3 -5 213.28 22.3
2 -3 5 161.38 15.4
2 -3 5 196.78 22.1
-3 3 -5 275.37 30.9
3 -3 5 256.17 32.8
-4 3 -5 90.39 23.8
4 -3 5 85.59 24.7
4 2 -5 156.98 26.2
4 2 -5 167.98 23
4 2 -5 184.78 23.7
-4 -2 5 216.78 28.5
-4 -2 5 169.78 21.3
3 2 -5 195.58 23.8
3 2 -5 203.98 23.9
3 2 -5 240.48 21.8
-3 -2 5 252.37 25.5
-3 -2 5 258.87 25.3
-3 -2 5 210.98 20.5
2 2 -5 2064.39 101.39
2 2 -5 2064.99 92.79
-2 -2 5 2078.69 99.89
-2 -2 5 2110.89 101.99
1 2 -5 1.1 2.2
1 2 -5 -0.9 2.5
1 2 -5 2.1 4.7
1 2 -5 2.4 3.6
-1 -2 5 3.3 2
-1 -2 5 4.7 4.1
-1 -2 5 0.6 2.2
0 2 -5 3414.96 138.99
0 2 -5 3039.8 139.99
0 2 -5 3475.75 141.89
0 -2 5 3395.96 146.09
0 -2 5 3150.38 137.99
-1 2 -5 514.95 30.2
-1 2 -5 508.05 29.4
-1 2 -5 464.55 32.4
1 -2 5 461.65 34.5
1 -2 5 457.15 28.1
-2 2 -5 550.04 30.9
-2 2 -5 576.14 41
-2 2 -5 571.44 30.2
2 -2 5 517.15 29.7
2 -2 5 561.54 42.9
-3 2 -5 97.19 22.4
3 -2 5 93.09 21.9
-4 2 -5 145.99 23.7
4 -2 5 136.39 24.3
4 1 -5 60.09 17.9
4 1 -5 38.3 13.6
4 1 -5 40.8 15.7
-4 -1 5 75.09 16.5
-4 -1 5 41.2 14.7
-4 -1 5 78.09 16.7
3 1 -5 2494.55 123.99
3 1 -5 2583.94 124.39
3 1 -5 2585.44 120.49
-3 -1 5 2550.44 125.09
-3 -1 5 2599.04 124.49
-3 -1 5 2683.83 119.29
2 1 -5 11.8 5.3
2 1 -5 5.9 4.4
-2 -1 5 12.5 4.3
-2 -1 5 7.8 3.6
1 1 -5 9551.84 380.16
1 1 -5 9527.45 376.66
1 1 -5 9266.47 373.96
1 1 -5 9916.31 382.36
-1 -1 5 9570.04 382.96
-1 -1 5 9999 379.56
-1 -1 5 9286.87 374.66
0 1 -5 53.39 8.3
0 1 -5 45.2 8.3
0 1 -5 47 8
0 1 -5 56.39 8.6
0 -1 5 55.49 10.6
0 -1 5 45.2 10.3
-1 1 -5 6627.74 259.07
-1 1 -5 6661.53 259.47
-1 1 -5 6500.45 266.67
1 -1 5 6872.31 267.77
1 -1 5 5921.51 257.07
-2 1 -5 44.2 6.5
-2 1 -5 46.4 12.6
-2 1 -5 39.9 6.5
2 -1 5 40.2 11.2
-3 1 -5 433.96 39.8
3 -1 5 425.56 41
-4 1 -5 56.89 18.9
4 -1 5 70.19 21.2
4 0 -5 6.1 9.2
4 0 -5 3.5 6.3
4 0 -5 -3.3 6.8
-4 0 5 15.3 5.7
3 0 -5 11 3.1
3 0 -5 -2.7 3.4
-3 0 5 6.2 5.3
-3 0 5 3.9 5.7
2 0 -5 -0.9 2.9
-2 0 5 1.6 3.3
-2 0 5 -3 2.7
1 0 -5 -0.4 2.5
1 0 -5 0.7 2.7
1 0 -5 0.8 3.1
1 0 -5 -2.6 2.4
-1 0 5 -0.3 2.4
-1 0 5 1 2.1
-1 0 5 -1 2.7
0 0 -5 26.1 7
0 0 5 20.2 6.4
-1 0 -5 -3.5 1.9
-1 0 -5 -2.1 1.9
-1 0 -5 1.6 2.9
1 0 5 0.3 3
-2 0 -5 1.6 4
-3 0 -5 1.3 5.3
3 0 5 -7 5.2
-4 0 -5 2.9 8.9
4 0 5 3.6 10.5
4 -1 -5 52.79 14.7
4 -1 -5 28.8 12.3
-4 1 5 29.1 14
-4 1 5 47.2 14.8
3 -1 -5 2784.82 128.99
3 -1 -5 2543.45 122.29
3 -1 -5 2745.03 126.09
-3 1 5 2719.73 123.59
-3 1 5 2561.44 127.99
-3 1 5 2498.05 121.69
2 -1 -5 4.4 4
2 -1 -5 7.2 6.6
2 -1 -5 7.1 5.3
-2 1 5 7.7 4.9
-2 1 5 3.8 4.3
1 -1 -5 9979.5 381.56
1 -1 -5 9356.36 374.66
-1 1 5 9544.65 384.96
-1 1 5 9584.74 372.76
0 -1 -5 68.39 9.4
0 -1 -5 65.89 8.8
0 -1 -5 46.6 6.3
0 -1 -5 42.4 10.2
0 1 5 51.69 8.5
0 1 5 48.4 7.5
-1 -1 -5 6703.33 281.27
-1 -1 -5 6409.76 268.17
-1 -1 -5 6876.91 268.37
1 1 5 7273.77 276.17
-2 -1 -5 36.2 11.3
2 1 5 49.4 12.9
-3 -1 -5 461.45 42.3
3 1 5 472.65 42.6
-4 -1 -5 60.49 18.9
4 1 5 88.09 25.2
4 -2 -5 184.58 23
4 -2 -5 207.98 26.3
4 -2 -5 166.98 25.4
-4 2 5 183.58 25.5
-4 2 5 212.08 24.8
3 -2 -5 244.68 23.4
3 -2 -5 234.88 24.3
-3 2 5 233.68 25.8
-3 2 5 207.48 22.5
2 -2 -5 1983.9 91.09
2 -2 -5 2001.6 95.59
2 -2 -5 2004.6 88.89
-2 2 5 1996.2 88.69
-2 2 5 2084.79 101.49
1 -2 -5 6.4 2.3
1 -2 -5 3.1 1.7
-1 2 5 0.6 1.4
-1 2 5 -1.7 2.8
0 -2 -5 3405.96 134.99
0 -2 -5 3483.75 148.09
0 -2 -5 3119.59 143.09
0 2 5 3314.37 143.99
0 2 5 3654.43 138.09
-1 -2 -5 533.35 37.8
-1 -2 -5 534.75 28.2
-1 -2 -5 459.75 28
1 2 5 507.45 32.1
1 2 5 526.45 28.5
-2 -2 -5 421.96 36.9
2 2 5 542.25 38.1
-3 -2 -5 141.49 21.2
3 2 5 83.69 20.2
-4 -2 -5 90.59 25
4 2 5 131.79 30.7
4 -3 -5 646.44 45.3
4 -3 -5 567.64 47.9
4 -3 -5 642.74 50.79
-4 3 5 622.94 47.8
-4 3 5 551.34 48.2
3 -3 -5 347.77 27.8
3 -3 -5 314.27 29.9
-3 3 5 324.07 29.5
-3 3 5 330.37 32.5
2 -3 -5 131.39 13.7
2 -3 -5 133.99 11.3
2 -3 -5 124.79 15.9
-2 3 5 144.09 18.7
1 -3 -5 3508.25 155.78
-1 3 5 3715.03 159.08
0 -3 -5 177.18 19.2
0 3 5 196.08 12
0 3 5 198.88 12.6
0 3 5 194.08 17.5
-1 -3 -5 1303.17 58.29
-1 -3 -5 1215.18 69.09
-1 -3 -5 1280.47 56.89
1 3 5 1183.48 56.99
1 3 5 1259.87 61.29
-2 -3 -5 209.88 24
2 3 5 178.78 21.3
-3 -3 -5 264.37 30.3
3 3 5 254.87 30.5
-4 -3 -5 101.19 25.1
4 3 5 98.69 26.4
4 -4 -5 584.04 44.8
4 -4 -5 516.45 43.6
-4 4 5 521.35 45.6
-4 4 5 457.05 42.4
3 -4 -5 46.2 14.3
3 -4 -5 65.19 11
-3 4 5 43.6 14.7
-3 4 5 75.19 16.2
2 -4 -5 1952.6 94.89
2 -4 -5 1866.61 83.99
2 -4 -5 1876.11 84.79
-2 4 5 1987.1 99.79
1 -4 -5 413.46 31.5
-1 4 5 453.65 33.3
0 -4 -5 3509.75 151.18
0 4 5 3615.24 145.79
0 4 5 3052.59 132.29
0 4 5 3317.47 133.09
-1 -4 -5 1100.69 64.49
1 4 5 1097.19 54.99
1 4 5 1082.19 52.49
-2 -4 -5 1238.28 72.19
2 4 5 1106.99 64.99
-3 -4 -5 333.57 36.3
3 4 5 333.57 34.9
-4 -4 -5 171.28 33.6
4 4 5 183.88 30.4
4 -5 -5 219.98 22.6
4 -5 -5 240.38 24.4
-4 5 5 138.89 24.9
-4 5 5 141.89 23.1
3 -5 -5 8.6 5.6
3 -5 -5 0.2 4.7
-3 5 5 13.1 5
2 -5 -5 29.4 6.3
2 -5 -5 47.9 12.7
2 -5 -5 31.6 7.1
-2 5 5 50.59 13.5
1 -5 -5 50.39 12.4
-1 5 5 62.39 9.8
0 -5 -5 1160.08 66.69
0 5 5 1209.98 62.39
0 5 5 1146.59 52.09
0 5 5 1284.57 50.89
-1 -5 -5 293.57 27.3
-1 -5 -5 251.97 19.8
1 5 5 310.47 20.7
1 5 5 298.07 21.4
-2 -5 -5 605.14 47
2 5 5 661.23 43.3
-3 -5 -5 15.6 10.8
3 5 5 7 8.4
-4 -5 -5 347.27 41.4
4 5 5 320.57 40.1
4 -6 -5 144.79 30.6
-4 6 5 154.58 24.7
-4 6 5 184.58 24.3
3 -6 -5 40.2 10.8
-3 6 5 47.1 12
2 -6 -5 654.13 35.1
2 -6 -5 607.54 34
2 -6 -5 641.64 45
-2 6 5 671.53 48.1
1 -6 -5 31 10
-1 6 5 44.2 11.9
0 -6 -5 2223.68 108.99
0 6 5 2273.97 103.69
0 6 5 2198.88 89.39
0 6 5 2175.48 92.79
-1 -6 -5 180.78 21.8
-1 -6 -5 159.38 15.2
-1 -6 -5 133.59 14.7
1 6 5 150.88 14.9
1 6 5 168.48 15.3
-2 -6 -5 1033.8 66.09
2 6 5 977.8 58.49
-3 -6 -5 242.38 31.7
3 6 5 240.58 30
-4 -6 -5 146.59 31.3
4 6 5 179.48 32.4
4 -7 -5 235.08 34.1
4 -7 -5 253.07 29.3
-4 7 5 263.67 31.2
3 -7 -5 57.79 16.7
3 -7 -5 75.09 14
-3 7 5 62.49 18.5
2 -7 -5 143.69 12.8
2 -7 -5 126.99 17.3
2 -7 -5 148.69 13.5
-2 7 5 125.89 19.9
1 -7 -5 384.16 31.1
-1 7 5 372.56 32.3
0 -7 -5 518.35 39.8
0 -7 -5 525.95 25.8
0 7 5 523.35 25.3
0 7 5 504.05 36.3
0 7 5 458.15 28.2
-1 -7 -5 606.04 35.6
-1 -7 -5 531.25 43.5
1 7 5 569.54 35.7
1 7 5 615.64 35.5
-2 -7 -5 1219.88 69.19
-2 -7 -5 1253.57 77.09
2 7 5 1253.77 69.09
-3 -7 -5 835.12 62.59
3 7 5 725.53 55.79
-4 -7 -5 1344.97 90.59
4 7 5 1217.58 87.79
4 -8 -5 -3.9 8
-4 8 5 1.9 9.7
3 -8 -5 -5.5 7.1
-3 8 5 -9.6 7.1
2 -8 -5 36.8 7.7
2 -8 -5 39.2 11.4
-2 8 5 36.7 10.2
1 -8 -5 107.49 15.4
-1 8 5 82.19 17.8
0 -8 -5 142.19 10.5
0 -8 -5 138.19 18.7
0 8 5 101.29 15.1
0 8 5 107.69 13
-1 -8 -5 4 3.6
-1 -8 -5 -4.1 3.5
1 8 5 2.5 4
-2 -8 -5 35.7 10
-2 -8 -5 59.29 8.9
-2 -8 -5 34 12.5
2 8 5 29.7 10.3
2 8 5 54.79 6.4
-4 -8 -5 -2.3 12.7
4 8 5 35.9 11.2
4 -9 -5 296.07 31.4
4 -9 -5 224.68 32.5
-4 9 5 197.88 32.8
3 -9 -5 522.05 37.9
3 -9 -5 491.45 45
-3 9 5 515.65 48.3
2 -9 -5 7.4 4.7
2 -9 -5 1.2 5.1
2 -9 -5 14.2 6
-2 9 5 8.1 6.1
-2 9 5 -1.2 4.1
1 -9 -5 297.57 29.6
1 -9 -5 281.87 16.2
-1 9 5 273.87 29.3
-1 9 5 276.57 16
0 -9 -5 6 5.1
0 9 5 5.1 4.1
0 9 5 -5.5 5
-1 -9 -5 965.7 53.89
-1 -9 -5 1008.5 65.59
1 9 5 980 55.89
1 9 5 1003 53.69
-2 -9 -5 1053.09 70.29
-2 -9 -5 1031 62.69
-2 -9 -5 1024.7 53.49
2 9 5 1044 62.69
2 9 5 1092.79 53.49
-3 -9 -5 113.59 20.4
-3 -9 -5 89.79 22.2
3 9 5 141.99 22.4
4 -10 -5 430.16 38.4
4 -10 -5 369.26 41.8
-4 10 5 366.16 44.2
3 -10 -5 30.2 13.8
3 -10 -5 22.7 10.1
-3 10 5 14.3 12.8
2 -10 -5 699.73 51.69
2 -10 -5 669.13 37
2 -10 -5 716.73 41.8
-2 10 5 658.23 36.3
-2 10 5 676.43 54.09
1 -10 -5 3.9 7
1 -10 -5 10.7 3.5
-1 10 5 8.1 5.8
-1 10 5 1 3.2
0 -10 -5 852.31 44.3
0 -10 -5 922.71 60.89
0 10 5 806.42 54.79
0 10 5 885.61 50.09
-1 -10 -5 26.6 13.3
-1 -10 -5 36.7 9.8
1 10 5 37.1 11.3
1 10 5 44.4 8.2
-2 -10 -5 619.74 52.09
-2 -10 -5 663.03 46.3
2 10 5 667.03 39.4
2 10 5 627.94 45.8
-3 -10 -5 70.09 17.9
3 10 5 47.4 15.3
3 -11 -5 45.4 16.3
3 -11 -5 74.19 17.6
-3 11 5 48.4 18
2 -11 -5 40.2 13.8
-2 11 5 61.79 19.2
1 -11 -5 49.99 15.8
1 -11 -5 43.3 6.7
-1 11 5 42.6 10.3
-1 11 5 48.8 6.5
0 -11 -5 786.92 43
0 -11 -5 766.52 56.89
0 11 5 738.83 65.79
0 11 5 864.11 55.09
-1 -11 -5 69.29 18.5
-1 -11 -5 67.89 11.2
1 11 5 82.59 17.2
-2 -11 -5 904.91 57.79
-2 -11 -5 855.81 63.89
2 11 5 873.21 51.19
2 11 5 809.62 54.99
-3 -11 -5 43 16.6
-3 -11 -5 44.1 15.9
3 11 5 28.2 12.8
3 -12 -5 -11.1 8.8
-3 12 5 0 11.9
2 -12 -5 679.53 54.69
2 -12 -5 723.13 43
-2 12 5 710.93 59.39
1 -12 -5 360.86 37.4
1 -12 -5 351.46 23.3
-1 12 5 365.66 35.9
-1 12 5 313.77 23.7
0 -12 -5 676.23 39.7
0 -12 -5 667.13 53.39
0 12 5 652.33 49.6
-1 -12 -5 438.26 41.2
-1 -12 -5 454.45 33.5
1 12 5 365.66 34.2
-2 -12 -5 844.02 65.19
-2 -12 -5 847.42 58.39
2 12 5 942.91 53.79
2 12 5 817.22 57.19
-3 -12 -5 277.57 33.5
-3 -12 -5 320.87 35.4
3 12 5 280.87 32.7
3 -13 -5 306.47 38
3 -13 -5 316.47 31.7
-3 13 5 279.97 39.6
2 -13 -5 331.17 38.6
2 -13 -5 443.86 30.5
-2 13 5 386.06 44.1
1 -13 -5 251.97 32.2
1 -13 -5 239.88 20.2
-1 13 5 222.58 29.3
0 -13 -5 -4.8 6.6
0 13 5 6.8 7
-1 -13 -5 554.14 39.9
-1 -13 -5 565.34 48
1 13 5 493.45 41
-2 -13 -5 30.2 12
-2 -13 -5 46.4 17.5
2 13 5 23.6 11.2
-3 -13 -5 152.18 32.1
-3 -13 -5 191.68 28.6
3 13 5 198.48 30.2
3 -14 -5 35.1 15
-3 14 5 8.4 14
2 -14 -5 704.03 45.8
2 -14 -5 750.82 60.89
-2 14 5 759.62 64.69
1 -14 -5 15.9 3.4
-1 14 5 0.8 6.8
0 -14 -5 912.31 68.69
0 -14 -5 981.5 54.89
0 14 5 962.4 67.69
-1 -14 -5 25.6 9.4
-1 -14 -5 21.6 12.4
1 14 5 11.2 10
-2 -14 -5 319.87 35
-2 -14 -5 415.46 41.3
2 14 5 380.96 38.5
2 14 5 384.96 32.5
2 -15 -5 29.3 12.8
2 -15 -5 54.99 21
-2 15 5 50.79 18.9
1 -15 -5 2439.06 112.39
1 -15 -5 2479.65 135.59
-1 15 5 2412.56 134.89
0 -15 -5 12.6 11.4
0 -15 -5 13.6 6.9
0 15 5 46.4 13.1
-1 -15 -5 1407.46 89.89
-1 -15 -5 1346.07 76.49
1 15 5 1347.97 83.99
-2 -15 -5 24.3 13.3
-2 -15 -5 23.7 15.3
2 15 5 39.4 14.3
2 -16 -5 16 11.7
2 -16 -5 29.7 8.2
-2 16 5 1.5 11.5
1 -16 -5 -15 8.3
-1 16 5 0.4 11.2
0 -16 -5 32.6 10.8
0 16 5 20.3 12.4
-1 -16 -5 -0.8 9.9
-1 -16 -5 -6.5 6.6
1 16 5 24.4 11.5
-2 -16 -5 19.1 8.3
-2 -16 -5 -14.2 10.4
2 16 5 -3.7 7.4
2 -17 -5 -1.5 14.7
-2 17 5 28.6 16.4
1 -17 -5 1390.56 75.19
1 -17 -5 1466.75 95.69
-1 17 5 1412.66 97.29
0 -17 -5 12 9.6
0 -17 -5 27.7 9.3
0 17 5 15.3 14.5
-1 -17 -5 783.42 56.29
-1 -17 -5 878.71 65.49
1 17 5 795.62 62.69
1 -18 -5 17.8 15.3
-1 18 5 45.5 17.8
0 -18 -5 183.78 37.7
0 -18 -5 220.38 24.8
0 18 5 218.08 33.7
-1 -18 -5 33.8 15.6
-1 -18 -5 29.1 18.1
1 18 5 52.89 19.7
0 18 -6 8.6 11
0 -18 6 -10.6 13.4
1 17 -6 10.5 12.4
-1 -17 6 28.8 13.4
0 17 -6 65.59 22.2
0 -17 6 105.09 31.2
-1 17 -6 5.8 13.4
1 -17 6 -3.4 14.2
2 16 -6 17.6 12.2
-2 -16 6 15.8 10.7
1 16 -6 1140.89 84.19
-1 -16 6 1044.2 88.09
0 16 -6 12.9 10.3
0 -16 6 -1 12
-1 16 -6 661.43 62.09
1 -16 6 718.43 74.79
2 15 -6 160.28 28.6
-2 -15 6 168.78 30.3
1 15 -6 33.4 14.5
-1 -15 6 0.8 11.5
0 15 -6 196.18 29.1
0 -15 6 242.68 37.8
-1 15 -6 6.7 11.9
1 -15 6 -5.2 12.7
-2 15 -6 300.07 29.4
-2 15 -6 250.67 37.8
2 -15 6 284.77 32.2
2 -15 6 272.07 44.5
3 14 -6 608.74 57.49
-3 -14 6 586.94 62.89
2 14 -6 -4.7 9.4
-2 -14 6 13.8 13.8
1 14 -6 589.14 53.39
-1 -14 6 544.25 57.89
0 14 -6 19 14.3
0 -14 6 32.1 16.7
-1 14 -6 133.99 14.6
-1 14 -6 106.79 25.8
1 -14 6 135.59 15
1 -14 6 108.19 34.1
-2 14 -6 13.1 13
-2 14 -6 10.2 10
2 -14 6 15.4 9.4
2 -14 6 5.9 16.3
3 13 -6 55.69 20.7
-3 -13 6 72.19 23.1
2 13 -6 272.57 33.7
-2 -13 6 275.67 39.2
1 13 -6 5.3 9.8
-1 -13 6 19.2 11.6
0 13 -6 1070.29 73.39
0 -13 6 1028.5 83.09
-1 13 -6 656.63 38.8
-1 13 -6 579.44 53.29
1 -13 6 599.74 37.9
1 -13 6 671.93 66.09
-2 13 -6 72.29 21.2
-2 13 -6 94.39 15
2 -13 6 47.5 14.6
2 -13 6 61.69 23.9
3 12 -6 60.39 21.2
-3 -12 6 74.39 24.4
2 12 -6 212.28 27.1
-2 -12 6 159.38 27.8
1 12 -6 281.17 34.1
-1 -12 6 317.77 40
0 12 -6 21.2 11.9
0 -12 6 26.2 14.8
-1 12 -6 62.79 16.7
-1 12 -6 70.19 9.8
1 -12 6 61.19 23.3
1 -12 6 65.49 13.1
-2 12 -6 235.58 25.9
-2 12 -6 240.08 33.6
2 -12 6 228.68 39.3
-3 12 -6 118.89 27.7
-3 12 -6 136.19 23.1
3 -12 6 80.59 32.4
3 11 -6 15.1 9.3
-3 -11 6 4.7 11.4
2 11 -6 1023 71.19
-2 -11 6 959.9 74.89
1 11 -6 790.62 58.89
-1 -11 6 702.93 62.09
0 11 -6 505.05 45
0 -11 6 534.55 51.49
-1 11 -6 708.53 52.29
-1 11 -6 587.24 38.4
1 -11 6 632.04 60.79
-2 11 -6 309.37 29.5
-2 11 -6 296.27 35.2
2 -11 6 269.97 41.9
-3 11 -6 378.26 42.8
-3 11 -6 351.46 38
3 -11 6 409.96 54.49
3 10 -6 27.8 9
-3 -10 6 10.5 11.1
2 10 -6 488.15 44.9
-2 -10 6 486.85 48.6
1 10 -6 148.69 23
-1 -10 6 166.28 25.8
0 10 -6 2086.59 110.59
0 -10 6 2081.99 86.59
0 -10 6 1982.4 84.99
0 -10 6 2206.58 124.99
-1 10 -6 145.79 21
-1 10 -6 153.68 16.5
1 -10 6 170.78 25.9
-2 10 -6 929.61 62.39
-2 10 -6 871.41 56.69
2 -10 6 816.62 72.79
-3 10 -6 458.85 41.7
-3 10 -6 460.25 42
3 -10 6 454.65 57.19
4 9 -6 28.1 12.8
-4 -9 6 10.2 12.5
3 9 -6 30.9 12.6
-3 -9 6 13.6 11.4
2 9 -6 108.99 18.3
-2 -9 6 67.59 18.9
1 9 -6 1.6 4.8
-1 -9 6 -3.7 4.3
0 9 -6 1036.7 45.5
0 9 -6 992.6 63.99
0 -9 6 995.2 71.99
0 -9 6 975.4 46.1
-1 9 -6 464.85 39.7
-1 9 -6 469.75 32.1
1 -9 6 488.35 47.2
-2 9 -6 21.1 7.1
-2 9 -6 13.3 7.7
2 -9 6 8.5 11.3
-3 9 -6 34.2 11.7
-3 9 -6 31.1 14.9
3 -9 6 13.5 15.6
4 8 -6 23.5 8.8
-4 -8 6 0.4 8.4
3 8 -6 60.29 9.9
-3 -8 6 87.79 22
2 8 -6 556.14 46.1
-2 -8 6 596.04 50.29
1 8 -6 1526.25 85.99
-1 -8 6 1544.45 92.99
0 8 -6 3070.19 117.69
0 8 -6 2570.94 134.69
0 -8 6 3028.8 118.99
0 -8 6 2717.23 146.59
-1 8 -6 1556.04 79.09
-1 8 -6 1722.03 90.29
1 -8 6 1628.74 100.29
-2 8 -6 2407.16 115.69
-2 8 -6 2130.09 114.79
2 -8 6 2520.45 137.49
-3 8 -6 627.94 46.4
-3 8 -6 640.04 50.49
3 -8 6 628.64 62.19
4 7 -6 142.19 18.1
4 7 -6 83.89 23.4
4 7 -6 126.89 22.9
-4 -7 6 97.69 25.9
3 7 -6 14.2 6
3 7 -6 25.4 8.8
-3 -7 6 21.4 11.3
2 7 -6 449.95 39.5
-2 -7 6 501.95 44.5
1 7 -6 87.19 15.4
-1 -7 6 86.19 20.1
0 7 -6 701.33 35.7
0 7 -6 682.03 48
0 -7 6 772.02 57.49
0 -7 6 701.73 36.8
-1 7 -6 135.09 18.9
-1 7 -6 114.19 14.5
1 -7 6 154.28 21.4
-2 7 -6 209.78 24
-2 7 -6 220.28 24.1
2 -7 6 196.58 29.1
-3 7 -6 69.59 17.6
-3 7 -6 93.49 18.4
3 -7 6 79.09 25.7
4 6 -6 2.6 9.1
4 6 -6 3.1 8.3
4 6 -6 -0.2 6.7
-4 -6 6 -11.8 7.7
-4 -6 6 5.7 5.8
3 6 -6 21.4 7.5
3 6 -6 29.3 9
2 6 -6 714.03 36.1
2 6 -6 837.72 54.49
2 6 -6 714.63 36
-2 -6 6 704.43 52.99
1 6 -6 14.6 7.3
-1 -6 6 11.6 7.6
0 6 -6 2323.67 110.79
0 6 -6 2389.36 96.89
0 -6 6 2504.75 122.49
0 -6 6 1901.11 96.19
-1 6 -6 408.26 33.5
-1 6 -6 447.06 31.4
1 -6 6 476.25 42.6
-2 6 -6 1919.11 93.49
-2 6 -6 1815.72 95.29
2 -6 6 1831.52 107.79
-3 6 -6 339.17 36.8
-3 6 -6 372.46 29.8
3 -6 6 414.76 43.8
-4 6 -6 301.27 34.3
4 -6 6 225.58 38
4 5 -6 334.67 40.2
4 5 -6 297.87 29.5
4 5 -6 370.06 36.1
-4 -5 6 353.36 29.5
-4 -5 6 333.97 40.2
-3 -5 6 30.5 7.5
2 5 -6 1448.76 82.29
2 5 -6 1411.56 66.89
2 5 -6 1555.64 67.89
-2 -5 6 1537.35 84.99
1 5 -6 1221.38 54.99
1 5 -6 1343.97 72.19
1 5 -6 1271.07 56.59
-1 -5 6 1349.47 55.49
-1 -5 6 1276.07 75.19
0 5 -6 896.81 52.59
0 5 -6 871.71 43
0 -5 6 863.11 58.59
0 -5 6 786.52 43.9
-1 5 -6 1079.19 58.39
-1 5 -6 1122.69 61.79
1 -5 6 1068.49 69.79
-2 5 -6 488.35 39.3
-2 5 -6 543.15 37.4
2 -5 6 547.55 48.1
-3 5 -6 462.05 42.9
-3 5 -6 465.05 32.2
3 -5 6 496.65 49.4
-4 5 -6 87.99 24.8
4 -5 6 114.39 29.4
4 4 -6 78.79 19.7
4 4 -6 124.29 16.6
4 4 -6 107.99 24.8
-4 -4 6 87.49 23.2
-4 -4 6 85.49 14
3 4 -6 632.04 46.9
3 4 -6 650.83 39.4
-3 -4 6 646.94 50.29
2 4 -6 106.29 11.8
2 4 -6 89.69 19
2 4 -6 96.99 11.4
-2 -4 6 108.19 15.6
1 4 -6 225.48 14.9
1 4 -6 214.78 21.7
1 4 -6 223.98 15.7
-1 -4 6 188.08 14.5
-1 -4 6 218.48 23.6
0 4 -6 210.68 17.5
0 4 -6 256.97 23.8
0 -4 6 248.28 19.6
0 -4 6 264.37 27.3
-1 4 -6 40.4 6.3
-1 4 -6 26.3 7.7
-2 4 -6 365.06 28.1
-2 4 -6 375.06 33.2
2 -4 6 371.56 36.6
-3 4 -6 81.19 20.4
-3 4 -6 109.39 13.4
3 -4 6 76.69 23.6
-4 4 -6 66.59 20.9
4 -4 6 39.7 13.7
4 3 -6 986.2 58.49
4 3 -6 964 66.39
4 3 -6 830.82 63.09
-4 -3 6 885.01 65.09
-4 -3 6 903.21 56.39
3 3 -6 491.05 40.1
3 3 -6 452.85 32.7
-3 -3 6 514.35 41.8
2 3 -6 1128.29 66.29
2 3 -6 1072.29 55.59
-2 -3 6 1154.28 65.09
1 3 -6 333.27 27.5
1 3 -6 305.47 20.8
1 3 -6 280.37 18.9
-1 -3 6 258.07 18.7
-1 -3 6 291.27 26.5
0 3 -6 1519.75 76.39
0 3 -6 1520.85 71.79
0 -3 6 1634.24 83.29
0 -3 6 1418.36 71.59
-1 3 -6 669.63 41.9
-1 3 -6 659.83 40.3
1 -3 6 683.73 47.4
-2 3 -6 292.57 23.7
-2 3 -6 316.97 30.1
2 -3 6 344.17 32
-3 3 -6 401.86 38.7
3 -3 6 298.97 37.3
-4 3 -6 44.3 16.5
4 -3 6 39.7 19
4 2 -6 37.8 13.9
4 2 -6 23.7 13.5
4 2 -6 32.8 15.6
-4 -2 6 32.4 11.6
-4 -2 6 27.9 11.4
3 2 -6 3097.69 139.49
3 2 -6 3126.69 148.69
3 2 -6 3138.09 144.99
-3 -2 6 3009.9 147.79
-3 -2 6 3029.6 145.39
2 2 -6 59.69 14
2 2 -6 68.19 9.1
-2 -2 6 61.09 11.4
-2 -2 6 48.3 13.1
1 2 -6 1744.63 86.69
1 2 -6 1779.52 80.19
-1 -2 6 1591.94 76.89
-1 -2 6 1818.62 87.89
-1 -2 6 1734.93 85.09
0 2 -6 393.36 28.1
0 2 -6 329.37 24.5
0 -2 6 322.77 28.2
0 -2 6 305.17 24.3
-1 2 -6 330.97 24.8
-1 2 -6 314.47 26.9
1 -2 6 363.76 30.9
-2 2 -6 9.5 5.1
-2 2 -6 21.4 6.4
-2 2 -6 8.4 6.2
2 -2 6 12.7 5.7
2 -2 6 14 8.4
-3 2 -6 103.59 21.5
3 -2 6 89.79 22.5
-4 2 -6 47.9 16
4 -2 6 63.59 16.7
4 1 -6 2.9 7.3
4 1 -6 -5.5 7
4 1 -6 0 6.3
-4 -1 6 13 9.5
-4 -1 6 -1.9 6.4
3 1 -6 -2.7 4.8
3 1 -6 3.1 4.5
3 1 -6 -0.1 4.4
-3 -1 6 4.5 6.7
-3 -1 6 -2.3 5
2 1 -6 289.67 22.7
2 1 -6 310.27 28.4
-2 -1 6 286.27 27.9
-2 -1 6 314.47 25.9
1 1 -6 754.82 41.5
1 1 -6 740.73 45.1
1 1 -6 727.63 42.1
-1 -1 6 746.73 45.6
-1 -1 6 653.33 39.8
-1 -1 6 634.24 40.5
0 1 -6 215.78 19.9
0 1 -6 212.28 19.9
0 1 -6 222.08 17.8
0 -1 6 206.08 20.9
-1 1 -6 84.79 11.8
-1 1 -6 68.19 9.9
-1 1 -6 88.19 13.5
1 -1 6 63.09 11.9
-2 1 -6 1277.67 58.59
-2 1 -6 1373.66 76.29
-2 1 -6 1178.28 58.39
2 -1 6 1337.67 76.19
-3 1 -6 436.66 42.1
3 -1 6 472.95 44.8
-4 1 -6 57.59 18.9
4 -1 6 62.19 18.4
4 0 -6 80.39 20
4 0 -6 35.7 13.5
-4 0 6 64.59 13.8
3 0 -6 1911.91 96.69
3 0 -6 1938.11 97.69
3 0 -6 1928.71 102.59
-3 0 6 1958.5 104.79
-3 0 6 2022.2 97.99
2 0 -6 111.19 11.7
2 0 -6 87.39 14.4
-2 0 6 90.69 12.5
-2 0 6 87.19 15.4
1 0 -6 3998.4 171.18
1 0 -6 4106.79 177.38
1 0 -6 4259.97 175.08
-1 0 6 4131.29 179.18
-1 0 6 4111.29 170.18
0 0 -6 254.17 22.4
0 0 -6 259.97 21.1
0 0 -6 225.08 17.7
0 0 6 226.28 20.4
0 0 6 204.78 19.6
-1 0 -6 2147.39 94.59
-1 0 -6 2139.19 103.99
-1 0 -6 2023.7 93.99
1 0 6 2218.18 101.09
-2 0 -6 52.79 6.6
-2 0 -6 52.29 14.1
2 0 6 42.7 12.7
-3 0 -6 785.82 59.49
3 0 6 801.52 60.59
-4 0 -6 569.14 54.29
4 0 6 508.95 53.69
4 -1 -6 11.1 8
4 -1 -6 10.6 10.6
-4 1 6 3.7 9.1
-4 1 6 6.1 8.2
3 -1 -6 -7.1 5.1
3 -1 -6 -1.5 5.4
3 -1 -6 -3.9 4
-3 1 6 -4.7 4.1
-3 1 6 -2.9 4.5
2 -1 -6 296.47 25.3
2 -1 -6 275.77 20.8
2 -1 -6 281.87 27
2 -1 -6 286.67 24.8
-2 1 6 291.37 21.8
-2 1 6 286.07 28
1 -1 -6 710.13 38.3
1 -1 -6 763.52 46
1 -1 -6 724.93 44.2
-1 1 6 749.13 37.5
-1 1 6 762.52 47.1
0 -1 -6 210.78 19
0 -1 -6 240.38 21.6
0 -1 -6 175.48 14.1
0 1 6 217.78 19.9
0 1 6 245.28 18.4
-1 -1 -6 57.69 13.1
-1 -1 -6 56.79 10.3
1 1 6 75.59 11.7
-2 -1 -6 1279.27 75.39
2 1 6 1297.87 73.19
-3 -1 -6 497.85 45.9
3 1 6 531.05 46.4
-4 -1 -6 47.8 18.3
4 1 6 18.8 14.8
4 -2 -6 16 11.2
4 -2 -6 12.3 11.7
-4 2 6 27 12.2
-4 2 6 14.5 10.3
3 -2 -6 3104.69 137.99
3 -2 -6 2984.8 143.89
-3 2 6 3168.58 151.28
2 -2 -6 40.6 9.3
2 -2 -6 50.89 7.8
2 -2 -6 54.09 12.1
-2 2 6 61.69 14.1
-2 2 6 66.49 8.1
1 -2 -6 1668.03 72.49
1 -2 -6 1754.12 85.89
-1 2 6 1719.43 87.29
-1 2 6 1757.92 71.39
0 -2 -6 411.66 20.5
0 -2 -6 295.17 27.2
0 2 6 330.57 22.4
0 2 6 324.97 26.1
-1 -2 -6 346.37 23
-1 -2 -6 352.86 31.3
-1 -2 -6 282.97 21.7
1 2 6 408.46 27.8
1 2 6 332.47 22.6
-2 -2 -6 13.4 8
2 2 6 12.2 7.7
-3 -2 -6 145.29 20.6
3 2 6 134.69 23.1
-4 -2 -6 51.39 14.1
4 2 6 18.2 15.3
4 -3 -6 794.32 60.99
4 -3 -6 830.72 62.09
4 -3 -6 878.41 56.69
-4 3 6 886.21 62.89
3 -3 -6 501.35 38.8
3 -3 -6 479.25 34.1
-3 3 6 424.86 39.5
2 -3 -6 1138.19 61.59
2 -3 -6 1042.2 52.39
2 -3 -6 1034.9 49.5
-2 3 6 965.5 63.29
1 -3 -6 292.47 26
-1 3 6 270.37 25.7
0 -3 -6 1532.55 79.59
0 -3 -6 1464.75 64.09
0 3 6 1530.05 64.59
0 3 6 1502.25 66.89
0 3 6 1601.04 76.29
-1 -3 -6 626.84 34.1
-1 -3 -6 591.54 34.8
-1 -3 -6 700.23 46.8
1 3 6 512.25 33.1
1 3 6 614.74 36.9
-2 -3 -6 325.97 32.9
2 3 6 303.07 29
-3 -3 -6 369.16 38.8
3 3 6 331.97 36
-4 -3 -6 58.39 20.7
4 3 6 30.6 18.1
4 -4 -6 116.79 20.7
4 -4 -6 173.38 20.2
-4 4 6 148.19 22
3 -4 -6 597.34 45.6
3 -4 -6 575.84 38.3
-3 4 6 649.74 49.99
2 -4 -6 100.99 12
2 -4 -6 129.89 11
2 -4 -6 132.69 16.7
-2 4 6 125.19 18.7
1 -4 -6 242.18 24.6
-1 4 6 257.57 25.4
0 -4 -6 282.37 26.7
0 4 6 266.07 15.3
0 4 6 269.07 23.4
0 4 6 251.77 15.9
-1 -4 -6 16.1 7.7
-1 -4 -6 15.4 4.9
1 4 6 12.6 5.4
1 4 6 11.4 5.2
-2 -4 -6 364.26 35.6
2 4 6 373.56 32
-3 -4 -6 110.29 25.2
3 4 6 86.59 21.2
-4 -4 -6 30 17.2
4 4 6 39.4 17.1
4 -5 -6 319.27 31.4
4 -5 -6 292.37 36.5
-4 5 6 309.47 36.5
3 -5 -6 3.2 5.3
-3 5 6 10.1 8.3
2 -5 -6 1509.85 69.89
2 -5 -6 1715.53 70.09
2 -5 -6 1559.34 84.89
-2 5 6 1554.84 88.79
1 -5 -6 1252.77 71.49
-1 5 6 1284.37 71.59
0 -5 -6 920.71 55.89
0 5 6 827.22 37.9
0 5 6 782.82 37
0 5 6 863.41 49.7
-1 -5 -6 1138.69 68.99
-1 -5 -6 1018.3 54.19
1 5 6 1132.79 56.09
1 5 6 1079.89 55.39
-2 -5 -6 570.24 46.7
2 5 6 515.85 39.2
-3 -5 -6 523.85 49.4
3 5 6 487.45 44.1
-4 -5 -6 67.09 21.8
4 5 6 74.99 22.7
4 -6 -6 6.8 9.4
4 -6 -6 -10.3 8.3
-4 6 6 -1.6 10.6
3 -6 -6 11.4 6.4
3 -6 -6 -8.1 6.6
-3 6 6 3.5 7.7
2 -6 -6 720.83 36.2
2 -6 -6 812.52 51.89
2 -6 -6 740.03 36.7
-2 6 6 708.33 52.59
1 -6 -6 34.4 9.8
0 -6 -6 2398.46 118.19
0 6 6 2501.95 95.99
0 6 6 2239.58 111.09
0 6 6 2384.16 98.29
-1 -6 -6 361.46 35.4
1 6 6 463.25 29.4
1 6 6 435.36 29.5
-2 -6 -6 1866.61 99.29
2 6 6 1506.75 85.49
-3 -6 -6 365.66 41.4
3 6 6 412.26 37.9
-4 -6 -6 251.17 36.1
4 6 6 210.68 32
4 -7 -6 134.99 29.7
4 -7 -6 97.39 21
-4 7 6 104.49 25.9
3 -7 -6 18.5 7.1
3 -7 -6 26.2 11.3
-3 7 6 12.7 9
2 -7 -6 479.05 25.1
2 -7 -6 453.85 39.1
2 -7 -6 464.75 25.1
-2 7 6 491.45 40.9
1 -7 -6 69.89 17
-1 7 6 103.39 16.9
0 -7 -6 722.13 51.19
0 7 6 742.43 36.7
0 7 6 738.73 47
0 7 6 727.83 33.2
-1 -7 -6 135.89 20.9
1 7 6 134.39 15.7
1 7 6 138.39 14.9
-2 -7 -6 225.98 28.3
2 7 6 232.98 24.3
-3 -7 -6 65.59 20.9
3 7 6 76.89 21
4 -8 -6 2.1 8.6
4 -8 -6 -1.8 10.3
-4 8 6 -13.7 11.2
3 -8 -6 82.09 22.4
3 -8 -6 122.89 15.7
-3 8 6 106.09 25.1
2 -8 -6 551.84 27
2 -8 -6 511.85 42.7
-2 8 6 521.45 45.1
1 -8 -6 1661.43 91.39
-1 8 6 1607.44 89.39
0 -8 -6 3067.99 149.09
0 8 6 3134.39 142.29
0 8 6 3028.6 127.99
0 8 6 3068.99 122.99
-1 -8 -6 1665.53 96.09
-1 -8 -6 1764.52 80.39
1 8 6 1594.74 78.69
1 8 6 1711.63 83.29
-2 -8 -6 2484.45 130.69
-2 -8 -6 2324.47 103.39
2 8 6 2412.96 104.09
2 8 6 2499.15 117.99
-3 -8 -6 625.74 55.99
3 8 6 618.84 51.39
4 -9 -6 5.3 14.1
4 -9 -6 18.4 13.3
-4 9 6 -0.1 10.9
3 -9 -6 -2.5 7.8
3 -9 -6 12.7 8.2
-3 9 6 3.2 9.2
2 -9 -6 87.89 19.9
-2 9 6 110.59 24.9
1 -9 -6 2.8 5.7
-1 9 6 8 3.3
0 -9 -6 1096.79 48.8
0 -9 -6 993.6 67.99
0 9 6 986.6 51.69
0 9 6 1224.78 49.3
0 9 6 1071.99 64.69
-1 -9 -6 507.05 43.6
-1 -9 -6 521.65 32.8
1 9 6 442.86 31.6
1 9 6 470.45 34.9
-2 -9 -6 36 15.8
-2 -9 -6 17.4 7
-2 -9 -6 11.7 9.5
2 9 6 32.5 7.3
-3 -9 -6 10.4 12.9
3 9 6 20.8 12
3 -10 -6 13.6 9.9
2 -10 -6 489.65 25.6
2 -10 -6 453.65 24.5
2 -10 -6 430.26 41.3
-2 10 6 471.45 44.6
1 -10 -6 144.49 22.6
-1 10 6 163.38 23.5
0 -10 -6 2130.59 89.49
0 -10 -6 2173.18 114.99
0 10 6 1956.8 94.29
0 10 6 2238.08 109.89
0 10 6 2017.6 88.49
-1 -10 -6 182.18 17.9
-1 -10 -6 158.28 25.5
1 10 6 154.88 19.8
1 10 6 169.08 16.5
-2 -10 -6 874.81 56.99
-2 -10 -6 975.4 69.99
2 10 6 883.41 49.3
2 10 6 899.41 57.09
-3 -10 -6 525.45 51.39
3 10 6 582.74 46.2
3 -11 -6 32.2 10.3
-3 11 6 20.3 13.5
2 -11 -6 975.5 67.19
2 -11 -6 909.71 43.7
-2 11 6 1003.9 70.99
1 -11 -6 729.13 56.79
-1 11 6 767.42 57.49
0 -11 -6 462.25 28
0 -11 -6 507.75 45.7
0 11 6 455.55 27.4
0 11 6 535.45 34
0 11 6 556.54 42.5
-1 -11 -6 683.93 54.79
-1 -11 -6 694.03 43
1 11 6 641.84 45.9
1 11 6 681.43 42.1
-2 -11 -6 315.77 38
-2 -11 -6 329.47 31.2
2 11 6 360.46 26.9
2 11 6 307.67 29.6
-3 -11 -6 452.05 46.9
3 11 6 426.66 43.1
3 -12 -6 48.6 18.4
-3 12 6 88.59 25.8
2 -12 -6 155.48 12.5
2 -12 -6 172.98 24
-2 12 6 120.39 25.9
1 -12 -6 357.86 39
-1 12 6 370.96 38.8
0 -12 -6 37.9 7.9
0 -12 -6 22.8 12.1
0 12 6 40.6 10.7
-1 -12 -6 85.09 12.3
-1 -12 -6 74.69 18.5
1 12 6 82.49 11.9
1 12 6 99.09 16.3
-2 -12 -6 281.57 27.9
-2 -12 -6 272.47 34.1
2 12 6 310.17 28.6
2 12 6 302.07 24.9
-3 -12 -6 124.89 28.7
-3 -12 -6 108.29 24.4
3 12 6 139.59 23.2
3 -13 -6 45.8 17.7
-3 13 6 56.49 20.7
2 -13 -6 264.77 35.2
2 -13 -6 253.97 18.6
-2 13 6 273.27 35.6
1 -13 -6 5.6 10
-1 13 6 11.1 5.3
-1 13 6 7 9.2
0 -13 -6 1013.8 52.19
0 -13 -6 975.5 71.79
0 13 6 996.8 67.19
-1 -13 -6 708.23 57.89
-1 -13 -6 669.23 43.8
1 13 6 647.44 43.1
1 13 6 626.74 48.6
-2 -13 -6 143.99 18.7
-2 -13 -6 82.09 23.1
2 13 6 137.89 15.6
3 -14 -6 590.44 57.79
-3 14 6 615.34 60.99
2 -14 -6 3.1 9.3
-2 14 6 1.6 9.3
1 -14 -6 620.64 55.09
1 -14 -6 568.14 32.4
-1 14 6 590.24 53.89
0 -14 -6 31.2 8.2
0 -14 -6 28.8 15.1
0 14 6 43.6 15
-1 -14 -6 114.29 15.1
-1 -14 -6 119.09 27.3
1 14 6 108.39 22.9
1 14 6 92.79 16.1
-2 -14 -6 -0.5 13.3
-2 -14 -6 28.3 11
2 14 6 39.1 9.7
2 14 6 29.7 9.5
2 -15 -6 120.09 30.1
-2 15 6 103.79 27.1
1 -15 -6 28.2 15.2
-1 15 6 36.6 13.7
0 -15 -6 202.28 19.6
0 -15 -6 258.97 33.2
0 15 6 181.08 27.1
-1 -15 -6 -5.7 9.3
-1 -15 -6 15.6 8.2
1 15 6 17.5 9
1 15 6 25.1 8.9
-2 -15 -6 350.46 36.7
-2 -15 -6 277.07 32.7
2 15 6 293.67 30.5
2 15 6 261.77 33.1
-2 16 6 -3.8 11.4
1 -16 -6 1102.49 81.69
-1 16 6 1140.59 82.59
0 -16 -6 1.9 10.8
0 -16 -6 9.6 6.9
-1 -16 -6 665.13 60.29
-1 -16 -6 700.93 48.6
1 16 6 722.33 47.5
1 16 6 777.12 59.89
1 -17 -6 18.7 13.8
-1 17 6 -1.7 12.5
0 -17 -6 94.99 14.4
0 -17 -6 49.99 20.3
0 17 6 86.09 21.9
-1 -17 -6 4.8 14.7
-1 -17 -6 8.1 6.2
1 17 6 27 14.4
1 17 6 11.2 8.4
0 -18 -6 29.6 10.6
0 18 6 0.5 12.4
1 17 -7 62.09 16
-1 -17 7 -0.9 12.7
0 17 -7 192.98 34.9
0 -17 7 140.99 38.8
1 16 -7 14.1 11.7
-1 -16 7 -9.3 10.5
0 16 -7 -2.6 11.1
-1 16 -7 25.3 13.6
1 -16 7 -21.4 13.4
2 15 -7 106.89 18.3
1 15 -7 230.48 35.1
-1 -15 7 274.07 36.3
0 15 -7 105.59 28.2
0 -15 7 107.29 30.9
-1 15 -7 63.59 21.4
1 -15 7 29.6 20
1 -15 7 12.7 7
2 14 -7 539.55 54.99
-2 -14 7 581.64 61.29
1 14 -7 290.67 38.7
-1 -14 7 281.87 42.4
0 14 -7 163.28 33.9
0 -14 7 203.98 34.2
-1 14 -7 196.78 31.2
-1 14 -7 266.37 21
1 -14 7 229.78 38.7
-2 14 -7 8.2 15.5
-2 14 -7 11.8 9.4
2 -14 7 -3.9 14
2 -14 7 10.9 12.6
-3 -13 7 90.69 26.2
2 13 -7 68.99 17.1
-2 -13 7 37.2 18.8
1 13 -7 149.19 30.9
-1 -13 7 137.49 32.9
0 -13 7 13.5 8.3
-1 13 -7 147.19 25.5
-1 13 -7 153.38 15.9
1 -13 7 135.79 35.9
1 -13 7 163.08 16.8
-2 13 -7 -7.2 7.6
2 -13 7 -16.7 11.7
3 12 -7 473.15 51.19
-3 -12 7 461.45 53.19
2 12 -7 251.37 33.5
-2 -12 7 275.87 38.9
1 12 -7 1391.76 92.49
-1 -12 7 1579.94 103.99
0 12 -7 175.98 28.8
0 -12 7 211.08 34.7
-1 12 -7 719.83 58.99
-1 12 -7 791.92 44.8
1 -12 7 723.13 66.59
-2 12 -7 176.48 22.6
2 -12 7 141.89 37
3 11 -7 -6.3 9.8
-3 -11 7 11.2 14.5
2 11 -7 1003.8 72.99
-2 -11 7 1044.8 79.09
1 11 -7 393.36 40.5
-1 -11 7 408.26 46.4
0 11 -7 1262.17 82.49
0 -11 7 1372.96 95.79
-1 11 -7 800.52 61.39
-1 11 -7 804.12 45.9
1 -11 7 765.62 68.19
-2 11 -7 234.88 28.7
-2 11 -7 200.98 24.6
2 -11 7 154.08 39.1
-3 11 -7 245.78 31.5
-3 11 -7 260.97 35.1
3 -11 7 273.07 46.4
3 10 -7 221.48 26.8
-3 -10 7 176.18 31.4
2 10 -7 91.69 21.7
-2 -10 7 78.89 22.6
1 10 -7 131.99 26.9
-1 -10 7 84.79 22.7
0 10 -7 60.39 18.4
0 10 -7 54.39 7.3
0 -10 7 87.29 25.3
-1 10 -7 278.77 31.9
-1 10 -7 314.87 24.8
1 -10 7 302.37 40.8
-2 10 -7 0.7 6.7
2 -10 7 18 8.2
-3 10 -7 283.57 33.6
-3 10 -7 261.37 32.3
3 -10 7 227.38 38.1
3 9 -7 296.17 32.2
-3 -9 7 221.58 34.3
2 9 -7 1344.77 85.29
-2 -9 7 1396.46 90.69
1 9 -7 674.03 52.29
-1 -9 7 656.13 56.89
0 9 -7 1320.87 60.69
0 9 -7 1430.06 83.89
0 -9 7 1347.77 62.49
0 -9 7 1486.45 95.29
-1 9 -7 926.51 53.59
-1 9 -7 1014.3 66.19
1 -9 7 972.8 74.89
-2 9 -7 887.81 56.49
-2 9 -7 850.61 60.39
2 -9 7 816.82 72.69
-3 9 -7 305.37 33.5
-3 9 -7 304.57 35.3
3 -9 7 283.27 45.1
4 8 -7 44.1 19.2
-4 -8 7 49.3 19.4
3 8 -7 19.3 8.7
-3 -8 7 25.1 8.9
2 8 -7 -5.2 7.4
-2 -8 7 9.9 7.5
1 8 -7 154.48 22.7
-1 -8 7 185.28 27.4
0 8 -7 79.59 18.5
0 8 -7 68.99 8.5
0 -8 7 68.79 20.4
0 -8 7 84.09 10.9
-1 8 -7 25.5 8.5
-1 8 -7 52.89 15.1
1 -8 7 44.4 15.9
-2 8 -7 136.59 19.6
-2 8 -7 133.99 19.3
2 -8 7 67.29 24.2
-3 8 -7 6.3 7.7
3 -8 7 -14.5 9.3
4 7 -7 470.65 37.8
4 7 -7 448.96 46.1
-4 -7 7 409.26 47.8
3 7 -7 75.89 12.3
3 7 -7 100.49 24.1
2 7 -7 2129.69 116.19
-2 -7 7 2224.28 119.79
1 7 -7 1004 61.59
-1 -7 7 743.03 59.89
0 7 -7 2648.14 109.89
0 7 -7 2782.52 128.89
0 -7 7 2266.97 133.49
0 -7 7 2582.94 111.49
-1 7 -7 1624.54 80.19
-1 7 -7 1501.05 85.99
1 -7 7 1667.73 100.19
-2 7 -7 1086.49 66.89
-2 7 -7 1093.99 66.19
2 -7 7 1171.08 83.59
-3 7 -7 853.41 52.49
-3 7 -7 775.52 59.09
3 -7 7 812.82 72.19
4 6 -7 91.59 18
4 6 -7 84.99 24.3
4 6 -7 77.29 22.2
-4 -6 7 66.69 20.3
3 6 -7 96.59 12.2
3 6 -7 152.48 20.6
-3 -6 7 108.19 24.7
2 6 -7 172.88 14.1
2 6 -7 160.68 22.3
2 6 -7 188.88 14.2
-2 -6 7 234.48 27.3
1 6 -7 287.97 17.1
1 6 -7 295.57 17.7
1 6 -7 365.16 30.7
-1 -6 7 262.77 31.3
-1 -6 7 332.17 17.6
0 6 -7 603.74 34
0 6 -7 596.64 44.2
0 -6 7 636.94 51.89
0 -6 7 574.54 35.1
-1 6 -7 830.42 51.49
-1 6 -7 920.01 57.59
1 -6 7 1009 68.69
-2 6 -7 247.68 25.8
-2 6 -7 274.57 26.5
2 -6 7 249.48 34.6
-3 6 -7 624.74 41
-3 6 -7 526.25 48.5
3 -6 7 608.64 59.49
4 5 -7 403.66 43.5
4 5 -7 407.56 45.1
4 5 -7 393.86 33.4
-4 -5 7 460.65 43.6
3 5 -7 50.89 17.1
-3 -5 7 39.4 13.6
2 5 -7 1525.25 83.59
2 5 -7 1305.37 64.69
2 5 -7 1252.67 63.29
-2 -5 7 1535.55 84.29
1 5 -7 388.36 34.1
1 5 -7 414.16 23
1 5 -7 453.15 24.6
-1 -5 7 432.66 38.1
-1 -5 7 350.26 22.4
0 5 -7 1641.94 86.09
0 5 -7 1680.33 75.99
0 -5 7 1530.85 76.69
0 -5 7 1694.03 94.99
-1 5 -7 449.16 32.7
-1 5 -7 434.26 34.4
1 -5 7 402.96 40.4
-2 5 -7 96.99 16
-2 5 -7 123.79 14.3
2 -5 7 105.79 23.7
-3 5 -7 167.58 19
3 -5 7 244.38 35.1
4 4 -7 266.67 27.1
4 4 -7 263.17 31.2
4 4 -7 203.28 31.7
-4 -4 7 232.48 30.8
3 4 -7 676.43 51.99
3 4 -7 604.64 39.1
-3 -4 7 645.34 50.89
2 4 -7 859.71 58.89
2 4 -7 892.31 48
-2 -4 7 929.61 58.89
1 4 -7 1766.72 83.29
1 4 -7 2028.3 100.49
1 4 -7 2070.19 88.09
-1 -4 7 2127.99 103.39
-1 -4 7 1793.62 84.29
0 4 -7 543.65 39.4
0 4 -7 517.65 32.4
0 -4 7 537.65 42.3
-1 4 -7 1547.95 79.49
-1 4 -7 1513.65 79.89
1 -4 7 1610.74 91.29
-2 4 -7 144.39 17.7
-2 4 -7 170.88 21
2 -4 7 142.79 24.1
-3 4 -7 614.24 51.89
3 -4 7 548.35 53.59
4 3 -7 67.49 14.7
4 3 -7 55.39 13.2
-4 -3 7 50.19 15.5
3 3 -7 96.19 14.4
3 3 -7 131.89 15.9
-3 -3 7 99.99 18.3
2 3 -7 69.19 13.5
2 3 -7 107.79 14.4
-2 -3 7 86.89 14.9
1 3 -7 7.6 2.8
1 3 -7 0.2 3.6
-1 -3 7 -5.2 3.5
-1 -3 7 -2 3.9
0 3 -7 7.8 3.9
0 3 -7 4.5 3.9
0 -3 7 13.8 8
-1 3 -7 190.98 18.8
-1 3 -7 155.08 18.4
1 -3 7 159.68 22.2
-2 3 -7 72.49 13
-2 3 -7 96.19 19.8
2 -3 7 74.09 18.8
-3 3 -7 283.97 34.2
3 -3 7 287.07 36.9
-4 3 -7 45.6 20.2
4 -3 7 70.29 26.1
4 2 -7 88.39 21.6
4 2 -7 157.18 20.9
4 2 -7 123.39 28.1
-4 -2 7 158.98 22.2
3 2 -7 67.99 10.9
-3 -2 7 71.09 12.2
-3 -2 7 48.4 13.7
2 2 -7 391.96 34.4
2 2 -7 373.16 27.6
-2 -2 7 354.86 30.2
-2 -2 7 353.16 33.4
1 2 -7 347.17 30.4
1 2 -7 336.97 26.2
-1 -2 7 358.46 30.4
-1 -2 7 356.46 29.3
0 2 -7 1002.9 56.69
0 2 -7 1036.2 58.99
0 -2 7 1084.29 63.09
-1 2 -7 1915.31 93.29
-1 2 -7 1940.41 97.79
1 -2 7 2079.69 102.99
-2 2 -7 -4.4 4.3
2 -2 7 2.8 5.6
-3 2 -7 344.17 38.1
3 -2 7 335.07 39.6
-4 2 -7 -5.2 9.1
4 -2 7 7.5 13.6
4 1 -7 41.7 12.6
-4 -1 7 29.9 14
-4 -1 7 53.09 11.3
3 1 -7 622.14 44.6
3 1 -7 667.73 46.1
3 1 -7 742.83 51.29
-3 -1 7 667.53 46.6
-3 -1 7 661.23 50.29
2 1 -7 11.4 6.9
-2 -1 7 23.1 7.9
-2 -1 7 8.6 6.4
1 1 -7 658.13 41.2
1 1 -7 625.34 43.9
1 1 -7 701.13 42.1
-1 -1 7 726.03 42.5
-1 -1 7 685.53 46.2
0 1 -7 638.54 41.8
0 1 -7 661.73 41.6
0 -1 7 646.94 43.4
-1 1 -7 5 4.7
-1 1 -7 10.5 5.7
1 -1 7 -2.9 4
-2 1 -7 1587.84 85.49
-2 1 -7 1371.66 66.39
-2 1 -7 1314.57 66.19
2 -1 7 1516.15 85.19
-3 1 -7 377.46 40.4
3 -1 7 388.56 41.4
-4 1 -7 568.24 55.49
4 -1 7 521.75 56.29
4 0 -7 -11.1 7
4 0 -7 -15.7 8.1
4 0 -7 -10.6 7.1
-4 0 7 5.1 10
-4 0 7 19.1 9
3 0 -7 3.1 4.7
3 0 -7 17.8 5.8
3 0 -7 -2.6 4.4
-3 0 7 2.5 5.6
2 0 -7 6.4 6.2
-2 0 7 -7 3.7
-2 0 7 -6.5 3.2
1 0 -7 12.2 3.5
1 0 -7 5.2 3.9
1 0 -7 16.9 4.4
-1 0 7 1.4 4
-1 0 7 -0.9 2.6
0 0 -7 9.3 4.8
0 0 -7 7.4 3.7
0 0 7 -0.7 3.2
0 0 7 -1.5 3.7
-1 0 -7 -2.5 3.3
-1 0 -7 -0.1 3.8
1 0 7 10.6 4.1
-2 0 -7 -3.7 3.3
-2 0 -7 -5.9 4
-2 0 -7 0.6 3.5
2 0 7 -3.6 3.9
-3 0 -7 -9 7.3
3 0 7 1.6 7.2
-4 0 -7 -12.4 8.2
4 0 7 14 11.6
4 -1 -7 39.3 12.4
4 -1 -7 40.8 12.5
-4 1 7 37.8 13.9
3 -1 -7 693.83 47.6
3 -1 -7 641.74 42
3 -1 -7 667.93 51.49
-3 1 7 624.14 50.79
-3 1 7 678.13 42.3
2 -1 -7 23 7.4
2 -1 -7 19.3 8.7
2 -1 -7 12.3 7.2
-2 1 7 23.3 5.6
-2 1 7 13 8.3
1 -1 -7 743.73 45.8
1 -1 -7 725.83 46.9
-1 1 7 687.93 46.8
-1 1 7 689.83 36.7
0 -1 -7 663.63 34.9
0 -1 -7 628.14 40.1
0 -1 -7 620.14 42.9
0 1 7 623.94 38.6
0 1 7 661.63 41.7
-1 -1 -7 -0.6 4.8
-1 -1 -7 1.5 4.4
1 1 7 3.6 3.8
-2 -1 -7 1527.45 88.19
2 1 7 1458.85 82.79
-3 -1 -7 350.46 38.3
3 1 7 376.86 39.3
-4 -1 -7 525.65 54.59
4 1 7 489.25 53.09
4 -2 -7 119.59 21.7
4 -2 -7 116.79 20.9
4 -2 -7 77.79 21.1
-4 2 7 172.98 24.5
3 -2 -7 53.89 11.1
3 -2 -7 49.4 11.4
3 -2 -7 43.8 14.4
-3 2 7 59.39 17.1
2 -2 -7 329.97 25.5
2 -2 -7 368.16 21.6
2 -2 -7 376.66 31.3
-2 2 7 298.97 21.4
-2 2 7 383.26 34.3
1 -2 -7 389.06 31.4
1 -2 -7 309.77 18.9
-1 2 7 384.66 32.2
-1 2 7 349.07 19.2
0 -2 -7 983.7 60.69
0 -2 -7 1056.49 56.39
0 -2 -7 1108.89 47.8
0 2 7 893.61 50.29
0 2 7 980.9 55.79
-1 -2 -7 2039.8 106.49
-1 -2 -7 2070.69 93.49
1 2 7 2052.09 93.79
1 2 7 2057.59 97.79
-2 -2 -7 7.6 5
2 2 7 4.2 4.3
-3 -2 -7 414.56 42.3
3 2 7 368.96 38.9
-4 -2 -7 2.2 11.2
4 -3 -7 10 10.5
4 -3 -7 40.3 16.6
4 -3 -7 47.6 12.7
-4 3 7 23 14.8
3 -3 -7 138.69 12.2
3 -3 -7 105.19 17.8
-3 3 7 73.19 19.5
2 -3 -7 75.69 17.1
2 -3 -7 91.69 8.5
2 -3 -7 67.69 10.4
-2 3 7 109.39 15.4
1 -3 -7 3.9 3.9
-1 3 7 3.9 5
0 -3 -7 9.1 3.6
0 -3 -7 11.4 5.3
0 3 7 14.9 6.6
0 3 7 8.4 4.2
0 3 7 6 3.4
-1 -3 -7 173.88 16.8
-1 -3 -7 185.48 22.8
1 3 7 164.18 17.9
1 3 7 174.88 16.9
-2 -3 -7 72.39 19.5
2 3 7 72.09 16.8
-3 -3 -7 293.47 37.8
3 3 7 363.16 33.3
-4 -3 -7 77.69 24.6
4 3 7 75.59 24.3
4 -4 -7 230.98 26.4
4 -4 -7 238.98 32.5
4 -4 -7 318.47 31.3
-4 4 7 246.88 34.2
3 -4 -7 593.04 37.3
3 -4 -7 639.64 47.7
-3 4 7 590.94 50.69
2 -4 -7 990.2 59.99
2 -4 -7 970.5 42.9
2 -4 -7 846.12 44.3
-2 4 7 895.41 61.49
1 -4 -7 1980.2 101.59
-1 4 7 2008.3 102.19
0 -4 -7 535.35 41.1
0 4 7 515.55 28.1
0 4 7 506.85 36.5
0 4 7 511.65 26.2
-1 -4 -7 1511.55 73.39
-1 -4 -7 1515.75 87.69
1 4 7 1556.74 74.69
1 4 7 1578.04 75.49
-2 -4 -7 158.58 23.7
2 4 7 117.39 18.1
-3 -4 -7 601.34 54.69
3 4 7 586.24 46.9
4 -5 -7 448.06 36.4
4 -5 -7 488.55 43.8
-4 5 7 396.36 44.4
3 -5 -7 37.6 13.9
3 -5 -7 30.4 8.5
-3 5 7 43.1 15.9
2 -5 -7 1525.55 83.79
-2 5 7 1437.66 86.19
1 -5 -7 467.05 38.3
-1 5 7 465.45 38.3
0 -5 -7 1671.23 87.39
0 5 7 1437.26 65.49
0 5 7 1501.75 65.09
0 5 7 1632.64 81.69
-1 -5 -7 420.46 40
1 5 7 456.35 31.8
1 5 7 511.35 31.6
-2 -5 -7 116.49 20.3
2 5 7 94.29 16.4
-3 -5 -7 294.97 36.9
3 5 7 229.78 30.7
4 -6 -7 92.69 23.4
4 -6 -7 111.09 16.2
-4 6 7 70.89 23.1
3 -6 -7 142.19 13.6
3 -6 -7 149.99 20
-3 6 7 85.89 22.1
2 -6 -7 184.18 23.3
-2 6 7 167.38 23.8
1 -6 -7 322.17 30.6
-1 6 7 286.77 29.5
0 -6 -7 669.63 48.7
0 6 7 645.74 43.8
-1 -6 -7 858.51 62.09
1 6 7 903.71 51.39
1 6 7 961.1 50.39
-2 -6 -7 241.88 31.2
2 6 7 223.08 25.1
-3 -6 -7 672.93 59.19
3 6 7 648.74 52.89
4 -7 -7 567.24 36.9
4 -7 -7 463.25 45.2
-4 7 7 419.56 47.5
3 -7 -7 126.89 14.2
3 -7 -7 94.19 21.1
-3 7 7 126.79 28.3
2 -7 -7 2106.69 110.99
-2 7 7 2083.99 113.99
1 -7 -7 970.2 62.29
-1 7 7 923.71 61.09
0 -7 -7 2864.81 140.49
0 7 7 2825.62 133.19
-1 -7 -7 1516.85 93.09
1 7 7 1698.43 78.39
1 7 7 1649.04 81.39
-2 -7 -7 1078.29 75.69
2 7 7 1106.59 64.29
-3 -7 -7 819.62 67.79
3 7 7 858.31 60.89
-4 8 7 26 16.8
3 -8 -7 9.2 9.6
3 -8 -7 15 7.3
2 -8 -7 16.8 8.8
-2 8 7 10.5 8.7
1 -8 -7 203.68 26.6
-1 8 7 178.08 23.3
0 -8 -7 79.49 19
0 8 7 94.19 13.8
-1 -8 -7 44.7 15.1
1 8 7 47.8 11.3
1 8 7 25.9 7.9
-2 -8 -7 92.39 14.8
-2 -8 -7 96.09 23.2
2 8 7 99.29 16.7
2 8 7 131.29 11.9
3 8 7 8.5 8.3
3 -9 -7 296.87 22
3 -9 -7 226.68 28.8
-3 9 7 277.67 36.6
2 -9 -7 1375.56 83.39
-2 9 7 1211.78 82.19
1 -9 -7 692.23 53.59
-1 9 7 600.04 48.3
0 -9 -7 1494.75 87.89
0 9 7 1412.86 80.79
-1 -9 -7 964.2 70.49
1 9 7 1057.49 54.49
1 9 7 992.4 58.49
-2 -9 -7 948.91 70.49
2 9 7 864.41 46.1
2 9 7 797.02 54.19
-3 -9 -7 304.37 40.6
3 9 7 295.97 34.8
3 -10 -7 157.78 31.4
-3 10 7 140.19 30.6
2 -10 -7 101.79 23.8
-2 10 7 75.59 21
1 -10 -7 98.29 22.7
-1 10 7 108.19 22.8
0 -10 -7 67.89 17.7
0 10 7 83.29 11
0 10 7 61.39 7.2
0 10 7 84.39 18.5
-1 -10 -7 254.87 33.8
1 10 7 294.07 22.6
1 10 7 282.77 27.4
-2 -10 -7 16.9 11
2 10 7 0.1 6.5
2 10 7 27.6 7.3
-3 -10 -7 238.58 35.7
3 10 7 238.88 31
-3 11 7 1.5 8.8
2 -11 -7 985.4 70.29
-2 11 7 995.9 72.69
1 -11 -7 435.56 43.7
-1 11 7 421.16 41.5
0 -11 -7 1364.76 84.69
0 11 7 1227.68 54.69
0 11 7 1324.67 76.49
0 11 7 1141.19 58.79
-1 -11 -7 837.32 46.2
-1 -11 -7 855.81 65.39
1 11 7 769.72 45.1
1 11 7 691.13 50.19
-2 -11 -7 202.58 30.5
2 11 7 213.78 21.8
2 11 7 223.68 25.1
-3 -11 -7 298.17 37.7
3 11 7 198.48 32.8
3 -12 -7 474.55 46.2
-3 12 7 460.45 51.69
2 -12 -7 285.17 35.7
-2 12 7 307.57 38.5
1 -12 -7 1471.95 92.69
-1 12 7 1341.47 87.29
0 -12 -7 181.18 28.6
0 -12 -7 179.98 13.1
0 12 7 155.98 13.3
0 12 7 159.58 18.6
0 12 7 181.68 22.8
-1 -12 -7 750.72 45.1
-1 -12 -7 766.52 63.49
1 12 7 723.13 45.1
1 12 7 803.22 54.09
-2 -12 -7 190.38 30.8
-2 -12 -7 150.18 21.5
2 12 7 179.48 22
2 12 7 220.88 21.7
3 -13 -7 39.8 18.2
-3 13 7 73.09 18.5
2 -13 -7 28.5 11.5
-2 13 7 19.7 14.1
1 -13 -7 117.89 28.6
-1 13 7 150.58 21.7
0 -13 -7 -4.3 8.3
0 -13 -7 6.2 3.5
0 13 7 7.8 3.1
0 13 7 14.3 8.4
-1 -13 -7 154.58 33.5
-1 -13 -7 179.28 17.5
1 13 7 187.58 20.4
1 13 7 140.89 16.6
-2 -13 -7 -7.1 5.9
-2 -13 -7 -11.3 11.3
2 13 7 6.6 10.3
2 13 7 3.7 8.1
2 -14 -7 502.65 52.99
-2 14 7 534.55 54.39
1 -14 -7 216.48 33.2
-1 14 7 265.47 34.3
0 -14 -7 224.88 27.2
0 -14 -7 173.08 15.7
0 14 7 158.68 26
-1 -14 -7 252.57 36.4
-1 -14 -7 240.68 23.8
1 14 7 222.48 21.8
1 14 7 301.57 30.2
-2 -14 -7 20.3 15
-2 -14 -7 9.7 9.6
2 14 7 34.8 9.9
2 14 7 -1.7 12.3
2 -15 -7 6.9 13.7
-2 15 7 12.6 9.1
1 -15 -7 214.48 33.9
-1 15 7 235.88 32.5
0 -15 -7 118.79 29.3
0 -15 -7 136.29 12.8
0 15 7 113.49 27.1
-1 -15 -7 36.7 17.5
-1 -15 -7 52.59 11.8
1 15 7 65.59 19.3
1 -16 -7 5.3 10.7
-1 16 7 0.7 14.4
0 -16 -7 8.8 8.3
0 16 7 5 8.9
-1 -16 -7 8 13.4
-1 -16 -7 26.7 8.3
1 16 7 29.4 14
1 -17 -7 43.4 19.2
0 -17 -7 152.88 34.5
0 17 7 180.58 29.2
1 16 -8 46.9 20.2
-1 -16 8 5.5 16.2
0 16 -8 338.97 42.6
0 -16 8 352.76 48.3
2 15 -8 74.79 16.2
-2 -15 8 46.7 23.3
1 15 -8 44.6 15.6
-1 -15 8 25.4 16.6
0 15 -8 57.39 22.8
0 -15 8 37.4 22.2
-1 15 -8 1.7 12.9
1 -15 8 37 15.7
-2 -14 8 12.6 11.9
1 14 -8 176.48 30.6
-1 -14 8 168.48 38
0 14 -8 583.34 56.89
0 -14 8 622.34 64.79
-1 14 -8 380.06 27.2
-1 14 -8 361.76 42.1
1 -14 8 407.56 48.8
2 13 -8 11.7 10.1
-2 -13 8 11.2 12.9
1 13 -8 275.07 37.8
-1 -13 8 319.97 44.7
0 13 -8 73.39 22.3
0 -13 8 55.79 22.6
-1 13 -8 987.3 52.69
-1 13 -8 990.7 74.69
1 -13 8 921.81 85.39
-2 13 -8 12.6 12.9
-2 13 -8 21.8 8.8
2 -13 8 23.9 16
3 12 -8 38.6 18.9
-3 -12 8 67.69 23
2 12 -8 23.4 14.3
-2 -12 8 22.4 14.6
1 12 -8 330.87 39.6
-1 -12 8 348.67 46.2
0 12 -8 21.3 13.4
0 -12 8 -6.9 11.4
-1 12 -8 71.79 12.7
-1 12 -8 71.29 20.7
1 -12 8 60.19 25.2
-2 12 -8 276.97 33.4
-2 12 -8 277.17 29.6
2 -12 8 353.66 48.3
3 11 -8 220.88 32.7
-3 -11 8 226.38 36.1
2 11 -8 150.18 31.5
-2 -11 8 111.69 28.4
1 11 -8 1092.59 76.49
-1 -11 8 1101.29 84.09
0 11 -8 11.6 9.7
0 -11 8 -0.8 11
-1 11 -8 710.73 43.2
-1 11 -8 745.53 57.99
1 -11 8 654.33 65.59
-2 11 -8 4.6 9.1
-2 11 -8 8.3 8
2 -11 8 13.5 16.6
3 10 -8 382.46 44.2
-3 -10 8 458.85 48.9
2 10 -8 1317.67 86.49
-2 -10 8 1221.68 88.89
1 10 -8 268.97 34.7
-1 -10 8 279.57 38
0 10 -8 373.26 21
0 10 -8 348.57 38.4
0 -10 8 349.67 44
0 -10 8 333.37 22.5
-1 10 -8 403.56 29
-1 10 -8 411.36 39.2
1 -10 8 331.37 44.8
-2 10 -8 88.19 22.1
-2 10 -8 73.19 18.3
2 -10 8 64.19 19.9
-3 10 -8 -25.9 14.4
-3 10 -8 12 12.4
3 9 -8 96.89 15.5
-3 -9 8 24.2 15.2
2 9 -8 40 15.7
-2 -9 8 20.9 11.6
1 9 -8 -1.6 5.3
-1 -9 8 3.9 10.1
0 9 -8 213.78 28.1
0 9 -8 225.68 16.2
0 -9 8 222.88 33.6
0 -9 8 168.38 17.8
-1 9 -8 358.96 36.5
-1 9 -8 310.37 27.1
1 -9 8 313.77 41.2
-2 9 -8 6.7 7.9
-2 9 -8 39.8 12.5
2 -9 8 10.6 13.3
-3 9 -8 43.7 18
-3 9 -8 46 17.6
3 -9 8 72.59 22.9
3 8 -8 511.25 46.9
-3 -8 8 531.05 51.69
2 8 -8 804.22 61.99
-2 -8 8 842.82 65.19
1 8 -8 2168.38 118.59
-1 -8 8 2261.57 125.99
0 8 -8 1456.15 86.29
0 8 -8 1451.65 67.09
0 -8 8 1342.27 67.39
0 -8 8 1566.54 97.59
-1 8 -8 457.55 40.3
-1 8 -8 435.66 33
1 -8 8 492.15 51.29
-2 8 -8 273.87 28.7
-2 8 -8 243.58 29.8
2 -8 8 237.88 38.4
-3 8 -8 6.7 7.1
-3 8 -8 24.4 9.3
3 -8 8 36 13.5
4 7 -8 52.69 19
-4 -7 8 10.2 14.3
3 7 -8 -3.4 6.7
3 7 -8 2.7 9.7
-3 -7 8 -2.7 8.4
2 7 -8 575.94 50.59
-2 -7 8 630.54 50.59
1 7 -8 302.87 32.3
-1 -7 8 296.37 35.7
0 7 -8 52.09 8.5
0 7 -8 49.5 15.3
0 -7 8 42 17.1
-1 7 -8 169.68 18.4
-1 7 -8 176.28 22.9
1 -7 8 134.69 29.9
-2 7 -8 7.4 6.6
-2 7 -8 10.1 6.3
2 -7 8 -15.5 9.3
-3 7 -8 75.19 19.8
3 -7 8 33.7 20.1
4 6 -8 476.35 47
4 6 -8 584.24 45.9
4 6 -8 432.46 46.6
-4 -6 8 559.94 53.39
3 6 -8 217.18 29.9
3 6 -8 188.78 19.2
-3 -6 8 249.08 31.7
2 6 -8 1454.95 65.29
2 6 -8 1516.95 87.99
2 6 -8 1265.57 63.19
-2 -6 8 1559.64 89.99
1 6 -8 349.57 33
1 6 -8 323.07 20.4
1 6 -8 267.57 18.4
-1 -6 8 312.27 18.7
-1 -6 8 306.17 34.8
0 6 -8 679.33 39.2
0 6 -8 679.13 49.4
0 -6 8 714.73 56.59
-1 6 -8 343.47 29.3
-1 6 -8 366.16 33.8
1 -6 8 382.66 41.4
-2 6 -8 97.39 17
-2 6 -8 88.99 14.5
2 -6 8 91.29 24.5
-3 6 -8 35.3 9
-3 6 -8 -0.3 8.5
3 -6 8 -4.5 10.4
4 5 -8 102.29 24.3
4 5 -8 156.38 20.6
4 5 -8 117.59 18.3
-4 -5 8 136.19 28.9
3 5 -8 522.25 47.6
3 5 -8 526.45 36.1
-3 -5 8 564.74 45.5
2 5 -8 148.59 13.3
2 5 -8 122.69 21
2 5 -8 93.29 12.3
-2 -5 8 112.99 20.8
1 5 -8 1756.72 81.49
1 5 -8 1953.2 101.59
1 5 -8 1830.32 84.49
-1 -5 8 2040 105.09
-1 -5 8 1867.51 82.49
0 5 -8 31.3 8.9
0 5 -8 14 7.1
0 -5 8 16 9.5
-1 5 -8 1613.04 86.99
-1 5 -8 1715.03 91.49
1 -5 8 1864.41 104.89
-2 5 -8 7.3 8.4
-2 5 -8 -4.1 6.6
2 -5 8 4.4 10.5
-3 5 -8 407.66 41.1
3 -5 8 349.96 46.9
4 4 -8 542.55 49.6
4 4 -8 461.95 39.3
4 4 -8 484.35 48.4
-4 -4 8 524.15 48.6
3 4 -8 16.2 10.5
-3 -4 8 22.1 10.1
2 4 -8 20.1 8.7
2 4 -8 3.5 6.3
-2 -4 8 11.6 7.9
1 4 -8 408.06 35.3
1 4 -8 395.86 27.7
-1 -4 8 392.16 36.5
0 4 -8 79.19 12.4
0 4 -8 105.89 16.7
0 -4 8 113.29 16
-1 4 -8 244.58 23.8
-1 4 -8 248.98 25.7
1 -4 8 219.98 29
-2 4 -8 350.36 26.3
-2 4 -8 335.87 32.1
2 -4 8 320.17 38.1
-3 4 -8 43.4 12.6
3 -4 8 18.4 14.5
4 3 -8 184.18 27.4
4 3 -8 206.68 26.1
4 3 -8 194.88 32.6
-4 -3 8 152.88 28.2
3 3 -8 592.24 51.89
3 3 -8 749.73 42.7
-3 -3 8 627.64 48.9
2 3 -8 72.09 14.4
2 3 -8 74.79 17.3
-2 -3 8 75.99 13.9
1 3 -8 1269.07 73.69
1 3 -8 1270.97 65.19
-1 -3 8 1233.18 72.39
0 3 -8 12.7 6.9
-1 3 -8 1176.68 67.49
-1 3 -8 1207.68 69.39
1 -3 8 1283.47 78.29
-2 3 -8 85.69 15.1
-2 3 -8 100.59 14
2 -3 8 58.69 17.7
-3 3 -8 490.15 46.6
3 -3 8 422.66 47.6
4 2 -8 2.3 12.1
4 2 -8 7.6 11
-4 -2 8 -4.7 9.7
3 2 -8 12.7 7.5
3 2 -8 1 7.3
-3 -2 8 18.8 6.2
-3 -2 8 6.8 9.5
2 2 -8 93.59 13.4
2 2 -8 98.29 20.5
-2 -2 8 104.59 14.6
-2 -2 8 83.19 18.7
1 2 -8 412.56 30.3
1 2 -8 367.06 33.2
-1 -2 8 403.96 32.5
0 2 -8 1664.73 87.09
0 2 -8 1772.02 90.79
0 -2 8 1841.82 95.19
-1 2 -8 1584.84 81.49
-1 2 -8 1555.54 85.39
1 -2 8 1638.44 89.99
-2 2 -8 955.1 65.29
-2 2 -8 926.31 52.89
2 -2 8 1002.9 68.09
-3 2 -8 43.7 15.9
3 -2 8 41.9 16.3
4 1 -8 -3.5 8
4 1 -8 -3.7 8.5
-4 -1 8 9.6 13
-4 -1 8 5.1 9.7
3 1 -8 129.89 16.3
3 1 -8 87.49 21.3
3 1 -8 107.99 15.6
-3 -1 8 90.79 22
-3 -1 8 139.29 15.2
2 1 -8 188.38 20.5
2 1 -8 194.88 24.8
-2 -1 8 172.38 23.1
-2 -1 8 203.78 21.2
1 1 -8 690.23 43.2
1 1 -8 667.53 47.6
-1 -1 8 640.64 47.2
-1 -1 8 673.83 42.9
0 1 -8 75.99 16.2
0 1 -8 67.89 11.8
0 -1 8 62.69 15.9
-1 1 -8 53.09 13.2
-1 1 -8 34.2 10.8
1 -1 8 38 9.7
-2 1 -8 332.17 35
-2 1 -8 313.87 25.3
2 -1 8 400.96 36.4
-3 1 -8 154.08 27.5
3 -1 8 133.09 24.3
4 0 -8 3.6 11.1
4 0 -8 8.5 9.7
4 0 -8 1.8 9.5
-4 0 8 2.1 10.9
-4 0 8 12.6 9.1
3 0 -8 80.09 16.5
3 0 -8 140.39 19.2
3 0 -8 85.59 20.6
-3 0 8 125.39 22.3
-3 0 8 108.19 14.7
2 0 -8 1423.46 82.69
2 0 -8 1406.56 76.99
-2 0 8 1431.96 83.09
-2 0 8 1453.25 71.89
1 0 -8 149.29 16
1 0 -8 166.58 18.5
1 0 -8 153.58 19.4
-1 0 8 144.39 16.3
-1 0 8 127.29 18.6
0 0 -8 1792.92 95.19
0 0 -8 1997.2 94.99
0 0 8 1830.92 92.99
0 0 8 1891.81 94.49
-1 0 -8 3.1 3.9
-1 0 -8 -5.5 4
1 0 8 -6.4 4.2
-2 0 -8 2226.48 104.29
-2 0 -8 2488.05 105.99
-2 0 -8 2586.14 128.69
2 0 8 2356.46 122.99
-3 0 -8 3.2 7.6
3 0 8 2.4 10.5
4 -1 -8 -14 8.1
4 -1 -8 14.8 6.1
3 -1 -8 101.19 23.5
3 -1 -8 69.89 17
-3 1 8 83.19 22.2
-3 1 8 93.19 12.6
2 -1 -8 231.88 24
2 -1 -8 154.68 21.7
2 -1 -8 219.78 26.4
-2 1 8 188.38 17
-2 1 8 205.28 25
1 -1 -8 685.23 44.4
1 -1 -8 570.54 42
1 -1 -8 555.74 32.7
-1 1 8 679.13 35
-1 1 8 534.15 43
0 -1 -8 81.09 12
0 -1 -8 57.29 10.5
0 -1 -8 55.89 13.9
0 1 8 52.29 11.8
0 1 8 64.09 11
-1 -1 -8 33.3 12.1
-1 -1 -8 42.7 11.4
1 1 8 40 12
-2 -1 -8 353.46 24.4
-2 -1 -8 401.56 39.5
-2 -1 -8 383.06 24.8
2 1 8 398.86 37
-3 -1 -8 169.88 28.4
3 1 8 155.28 23.8
4 -2 -8 6.8 9.1
4 -2 -8 43.7 8.9
4 -2 -8 34 8.6
-4 2 8 -2.8 10.7
3 -2 -8 28.5 8.5
3 -2 -8 7 5.2
3 -2 -8 8 5.5
-3 2 8 11.9 10.2
2 -2 -8 94.19 14.5
2 -2 -8 82.19 12.7
2 -2 -8 65.89 15.9
2 -2 -8 80.89 9.8
-2 2 8 69.49 16.5
-2 2 8 94.19 10.3
1 -2 -8 354.36 20.6
1 -2 -8 439.26 33.8
1 -2 -8 388.06 32.9
-1 2 8 378.96 33.6
-1 2 8 379.16 21.5
0 -2 -8 1514.55 73.29
0 -2 -8 1739.33 91.59
0 -2 -8 1769.92 85.89
0 2 8 1778.52 87.79
0 2 8 1627.84 80.49
-1 -2 -8 1642.04 93.99
-1 -2 -8 1711.63 82.29
1 2 8 1689.23 85.79
-2 -2 -8 906.91 45.7
-2 -2 -8 1014.7 69.29
-2 -2 -8 919.71 47.1
2 2 8 993 63.19
-3 -2 -8 29.1 11.2
3 2 8 44.7 14.1
4 -3 -8 267.77 23.6
4 -3 -8 177.48 33.9
4 -3 -8 243.28 29.7
-4 3 8 199.38 33.2
3 -3 -8 631.74 37.6
3 -3 -8 584.64 47.3
3 -3 -8 550.94 48.7
-3 3 8 570.24 50.99
2 -3 -8 58.89 10.6
2 -3 -8 60.59 15.3
2 -3 -8 81.29 7.3
-2 3 8 77.89 18.5
1 -3 -8 1289.57 73.29
-1 3 8 1185.18 72.29
0 -3 -8 13.3 6.8
0 -3 -8 7.7 4.4
0 3 8 16.6 3.7
0 3 8 12.4 5.7
-1 -3 -8 1237.78 76.39
-1 -3 -8 1309.27 65.09
1 3 8 1259.77 65.29
1 3 8 1180.78 65.29
-2 -3 -8 69.39 19.2
2 3 8 43.6 13.5
-3 -3 -8 473.65 49.5
3 3 8 511.25 46.5
4 -4 -8 583.44 40.1
4 -4 -8 440.76 46.6
4 -4 -8 570.04 47.7
-4 4 8 514.35 50.69
3 -4 -8 26.2 11.3
-3 4 8 9.3 11.2
2 -4 -8 13.5 7.4
-2 4 8 16.1 9.5
1 -4 -8 360.16 34.4
-1 4 8 394.26 35.2
0 -4 -8 101.89 21.9
0 4 8 132.79 16.2
0 4 8 133.29 11.5
0 4 8 101.19 9
-1 -4 -8 249.97 30.4
-1 -4 -8 251.57 22.8
1 4 8 248.98 22.7
1 4 8 272.27 23.7
-2 -4 -8 305.07 35.7
2 4 8 303.47 30.3
-3 -4 -8 41.6 17.5
3 4 8 30.6 14.6
4 -5 -8 118.09 26.4
4 -5 -8 167.48 25.2
-4 5 8 131.49 31.7
3 -5 -8 523.95 31.2
3 -5 -8 503.35 44.8
-3 5 8 518.95 49.4
2 -5 -8 124.29 23.9
-2 5 8 111.29 24.5
1 -5 -8 2058.09 107.89
-1 5 8 2017.7 106.39
0 -5 -8 26.5 11.1
0 5 8 26.4 8.6
-1 -5 -8 1699.03 81.09
-1 -5 -8 1721.13 98.29
1 5 8 1533.25 79.89
1 5 8 1672.13 81.89
-2 -5 -8 2.5 7.8
2 5 8 0.4 6.2
-3 -5 -8 435.66 47.3
3 5 8 380.16 39
4 -6 -8 472.55 45.3
-4 6 8 463.85 49.9
3 -6 -8 196.88 25.7
3 -6 -8 175.68 16.6
-3 6 8 211.08 30.7
2 -6 -8 1478.45 86.29
-2 6 8 1373.76 87.09
1 -6 -8 332.17 33.8
-1 6 8 368.76 35.1
0 -6 -8 705.13 53.69
0 6 8 705.63 48.5
-1 -6 -8 384.86 39.3
1 6 8 373.06 28
1 6 8 395.66 30.6
-2 -6 -8 128.69 23
2 6 8 110.79 18.5
-3 -6 -8 7.7 10.2
3 6 8 35.7 10.6
4 -7 -8 49.7 15.5
-4 7 8 44.2 14.2
3 -7 -8 9.1 8.5
-3 7 8 -6.3 8
2 -7 -8 536.45 46.4
-2 7 8 509.65 46.9
1 -7 -8 319.37 34.5
-1 7 8 336.87 33.2
0 -7 -8 36.6 13.1
0 7 8 42.2 13.2
-1 -7 -8 117.89 25.1
1 7 8 165.88 17.3
1 7 8 157.48 18.4
-2 -7 -8 3.6 7.7
2 7 8 -5.1 5.6
-3 -7 -8 32.1 17.4
3 7 8 21.2 11.6
3 -8 -8 527.55 50.29
-3 8 8 581.84 54.59
2 -8 -8 741.93 58.39
-2 8 8 793.52 60.89
1 -8 -8 2249.97 121.19
-1 8 8 2254.87 118.99
0 -8 -8 1401.36 89.09
0 8 8 1589.94 84.89
-1 -8 -8 440.26 44.3
1 8 8 452.95 35.1
1 8 8 428.06 30.4
-2 -8 -8 252.27 33.6
2 8 8 267.47 28.1
2 8 8 258.27 19.6
-3 -8 -8 8.3 10.7
3 -9 -8 22 14.1
-3 9 8 13.5 11.4
2 -9 -8 52.09 18.6
-2 9 8 35.8 14.5
1 -9 -8 4.3 5.6
-1 9 8 3 6.7
0 -9 -8 214.88 29.7
0 9 8 236.68 24.5
-1 -9 -8 295.27 36.9
1 9 8 348.97 30.8
1 9 8 365.26 26.5
-2 -9 -8 5.3 11.4
2 9 8 21.4 7.6
2 9 8 33.4 6.5
-3 -9 -8 51.49 20.4
3 9 8 45 16.3
3 -10 -8 417.46 43.3
-3 10 8 426.26 48.8
2 -10 -8 1298.07 85.79
-2 10 8 1298.67 86.69
1 -10 -8 289.37 35.8
-1 10 8 265.37 31.9
0 -10 -8 405.46 41.7
0 10 8 397.66 37.2
-1 -10 -8 333.37 40.7
1 10 8 341.17 32.4
1 10 8 406.66 26.7
-2 -10 -8 77.09 24.1
2 10 8 113.29 15.2
2 10 8 73.79 14.6
-3 -10 -8 -8.8 9.2
3 10 8 -11 10.3
3 -11 -8 223.08 35
-3 11 8 264.67 38.8
2 -11 -8 150.98 25.2
-2 11 8 159.98 32.2
1 -11 -8 1036.9 76.69
-1 11 8 1099.69 74.89
0 -11 -8 24 11.9
0 11 8 -4.5 6.1
-1 -11 -8 717.83 62.29
1 11 8 692.23 41.7
1 11 8 741.83 49.8
-2 -11 -8 1.5 10.6
2 11 8 -7 8.1
2 11 8 -1.1 6.9
3 -12 -8 81.69 25.6
-3 12 8 106.89 26.3
2 -12 -8 14.6 12.7
-2 12 8 19.5 12.5
1 -12 -8 356.86 41.6
-1 12 8 365.56 39.9
0 -12 -8 8.2 10.2
0 12 8 9.2 6.2
-1 -12 -8 68.39 21.7
1 12 8 119.29 15.1
1 12 8 122.79 12.3
-2 -12 -8 295.17 41
2 12 8 318.57 32.5
2 12 8 365.66 26.9
2 -13 -8 36.1 13.2
-2 13 8 -3.4 8
1 -13 -8 348.17 42.8
-1 13 8 359.16 39.8
0 -13 -8 55.59 19.2
0 13 8 65.89 18.4
-1 -13 -8 938.41 75.99
1 13 8 1001.2 65.69
-2 -13 -8 23.8 17
2 13 8 9.4 12.8
2 -14 -8 19.4 14.1
-2 14 8 7 10.3
1 -14 -8 156.08 33.3
-1 14 8 190.48 29.2
0 -14 -8 633.94 61.09
0 14 8 712.23 55.89
-1 -14 -8 339.37 44.2
1 14 8 333.77 36.1
2 -15 -8 32.8 19
1 -15 -8 44 19.1
-1 15 8 31.6 15.1
0 -15 -8 86.69 25.3
0 15 8 83.69 23.9
1 15 8 110.79 18.8
1 -16 -8 70.79 24.3
-1 16 8 109.99 19.6
0 -16 -8 316.27 40.2
0 16 8 294.47 38.4
1 15 -9 133.49 34.9
-1 -15 9 85.09 29.4
0 15 -9 1101.59 85.99
0 -15 9 1023.4 92.69
2 14 -9 189.88 27.9
-2 -14 9 199.28 30.3
1 14 -9 438.16 47.4
-1 -14 9 347.47 49.5
0 14 -9 19.2 16
0 -14 9 -6.7 14.5
-1 14 -9 320.87 43.3
1 -14 9 393.26 52.79
2 13 -9 403.46 46.7
-2 -13 9 417.86 51.79
1 13 -9 233.48 32.6
-1 -13 9 237.18 38.8
0 13 -9 445.26 49
0 -13 9 460.05 56.39
-1 13 -9 85.99 11.5
-1 13 -9 40.4 19.7
1 -13 9 91.09 33.7
2 12 -9 8.3 12.7
-2 -12 9 -7.8 10.1
1 12 -9 945.91 74.49
-1 -12 9 930.51 79.69
0 -12 9 67.39 22.9
-1 12 -9 285.07 39.7
-1 12 -9 354.36 24.6
1 -12 9 334.37 48.9
-2 12 -9 57.79 22.3
-2 12 -9 96.19 20.8
2 -12 9 63.39 24
3 11 -9 297.97 39
-3 -11 9 333.57 42.7
2 11 -9 39.6 18.6
-2 -11 9 27.6 15.7
1 11 -9 225.08 33
-1 -11 9 222.48 34.9
0 11 -9 39.7 16.5
0 -11 9 59.99 24.3
-1 11 -9 13.6 12.1
-1 11 -9 25.4 8.2
1 -11 9 3 15.7
-2 11 -9 70.09 17.6
-2 11 -9 79.19 16.7
2 -11 9 95.89 25.1
3 10 -9 206.98 30.1
-3 -10 9 125.69 31.3
2 10 -9 43.4 17.6
-2 -10 9 62.49 18.6
1 10 -9 341.17 39.8
-1 -10 9 351.16 43.5
0 10 -9 134.89 12.8
0 10 -9 191.08 28.8
0 -10 9 189.48 32.6
-1 10 -9 353.26 40.1
-1 10 -9 337.77 28
1 -10 9 299.67 44.7
-2 10 -9 33.9 13.1
-2 10 -9 59.09 17.3
2 -10 9 2.3 14.7
3 9 -9 135.49 29.7
-3 -9 9 217.68 34.7
2 9 -9 154.88 25.8
-2 -9 9 128.89 29.8
1 9 -9 32.7 14.5
-1 -9 9 82.49 23.1
0 9 -9 252.37 32.8
0 9 -9 295.77 19.4
0 -9 9 267.77 38.3
0 -9 9 212.18 21.7
-1 9 -9 197.88 28.7
-1 9 -9 225.08 22
1 -9 9 238.38 37.3
-2 9 -9 45.8 12
-2 9 -9 69.09 13.7
2 -9 9 26.7 19.9
3 8 -9 18 8.2
-3 -8 9 24.3 10.8
2 8 -9 26.9 13.7
-2 -8 9 43.8 17.3
1 8 -9 67.39 21.5
-1 -8 9 93.49 15.5
0 8 -9 4.9 3.6
0 8 -9 12.2 10
0 -8 9 -7.6 5.1
-1 8 -9 23.9 7.6
-1 8 -9 38.8 15.7
1 -8 9 44.2 19.6
-2 8 -9 11.8 9.6
-2 8 -9 35.1 9.8
2 -8 9 23 15.8
-3 8 -9 9.2 11.6
-3 8 -9 58.09 15.6
3 -8 9 36 25.2
3 7 -9 382.06 43.7
-3 -7 9 386.66 42.7
2 7 -9 587.74 52.29
-2 -7 9 596.04 52.99
1 7 -9 80.39 18.8
1 7 -9 69.49 8.8
1 7 -9 56.09 8.1
-1 -7 9 97.69 25
-1 -7 9 52.69 8.4
0 7 -9 107.89 22.9
0 7 -9 90.09 11.7
0 -7 9 84.39 23.6
-1 7 -9 -1.9 5.9
-1 7 -9 3 5.5
1 -7 9 3.9 11.5
-2 7 -9 55.59 14.8
-2 7 -9 37 13.9
2 -7 9 31.5 20.1
-3 7 -9 263.77 35.5
3 -7 9 275.47 42.3
3 6 -9 494.45 44.9
3 6 -9 432.36 30.4
-3 -6 9 415.96 43.2
2 6 -9 18.2 4.7
2 6 -9 35 16.7
2 6 -9 6.9 6
-2 -6 9 2.7 8.7
1 6 -9 534.75 29.2
1 6 -9 524.55 44.8
1 6 -9 449.56 27
-1 -6 9 391.56 26.6
-1 -6 9 495.25 45.7
0 6 -9 2 4.7
0 6 -9 20.5 5.9
0 -6 9 11.6 6.6
-1 6 -9 535.95 39.9
-1 6 -9 589.94 46.8
1 -6 9 598.04 55.59
-2 6 -9 -1.2 7
-2 6 -9 6.6 5.2
2 -6 9 4.4 12.5
-3 6 -9 426.96 41
3 -6 9 384.16 48.3
3 5 -9 478.95 32.9
3 5 -9 469.25 47
-3 -5 9 499.75 45.3
2 5 -9 14.4 10.4
2 5 -9 17.5 4.8
-2 -5 9 29.7 9.3
1 5 -9 114.99 19.7
1 5 -9 90.19 12.3
-1 -5 9 109.69 20.3
0 5 -9 65.19 11.4
0 5 -9 92.99 20
0 -5 9 71.89 20.7
-1 5 -9 117.69 20.3
-1 5 -9 144.89 18.9
1 -5 9 151.68 22.4
-2 5 -9 148.49 22
-2 5 -9 144.19 23.4
2 -5 9 176.28 30.8
-3 5 -9 381.86 42.8
3 -5 9 389.26 49.2
4 4 -9 11.1 13
4 4 -9 21.3 11.2
4 4 -9 12.6 11.3
-4 -4 9 24.2 13
3 4 -9 560.04 52.09
3 4 -9 594.14 40.5
-3 -4 9 640.04 49.7
2 4 -9 -3.9 5.6
-2 -4 9 2.5 6.1
1 4 -9 1237.18 64.79
1 4 -9 1240.38 76.19
-1 -4 9 1261.27 76.69
0 4 -9 107.99 15.4
0 4 -9 112.09 19.1
0 -4 9 109.39 23.8
-1 4 -9 769.32 51.49
-1 4 -9 674.53 50.39
1 -4 9 895.31 63.99
-2 4 -9 248.78 29.3
-2 4 -9 264.37 25
2 -4 9 242.78 35.8
-3 4 -9 244.28 32
3 -4 9 253.07 39.6
4 3 -9 96.89 22.9
4 3 -9 112.49 26.5
-4 -3 9 86.19 22.9
3 3 -9 227.38 30.6
3 3 -9 222.58 22.2
-3 -3 9 270.57 29.5
2 3 -9 613.34 41.4
2 3 -9 691.13 53.59
-2 -3 9 645.24 47.3
1 3 -9 621.94 46.8
1 3 -9 619.14 40.7
-1 -3 9 620.74 44.9
0 3 -9 547.65 39.1
0 3 -9 552.04 41.3
0 -3 9 552.74 46.8
-1 3 -9 -8.2 4.6
-1 3 -9 10.3 4.8
1 -3 9 1.3 7.5
-2 3 -9 771.82 59.29
-2 3 -9 827.32 51.29
2 -3 9 915.91 68.39
-3 3 -9 14.1 8.7
3 -3 9 1 14.6
4 2 -9 38.3 12.4
4 2 -9 10.8 10
4 2 -9 5 10.9
-4 -2 9 1.2 9.7
3 2 -9 181.38 29.8
-3 -2 9 210.78 24
2 2 -9 -4.6 5.3
2 2 -9 5.3 5.9
-2 -2 9 -6.8 4.4
-2 -2 9 -4.6 4.9
1 2 -9 601.14 42.7
1 2 -9 668.83 49.9
-1 -2 9 700.43 46.3
0 2 -9 23.6 8.1
0 -2 9 -0.2 6.1
-1 2 -9 1466.55 78.19
-1 2 -9 1540.85 82.89
1 -2 9 1307.67 84.89
-2 2 -9 186.28 22.9
2 -2 9 180.08 21.5
-3 2 -9 346.27 40.6
3 -2 9 269.67 38.9
4 1 -9 147.09 27.5
4 1 -9 178.98 28.4
-4 -1 9 140.09 25.3
3 1 -9 351.46 33.4
3 1 -9 390.26 31.1
3 1 -9 437.96 40.9
-3 -1 9 364.86 32.3
-3 -1 9 376.16 41.2
2 1 -9 1199.48 76.49
2 1 -9 1218.88 68.99
-2 -1 9 1163.78 75.99
-2 -1 9 1152.28 64.39
1 1 -9 165.18 17.9
1 1 -9 164.38 21.8
-1 -1 9 133.69 19.3
-1 -1 9 142.59 18
0 1 -9 4141.79 179.68
0 1 -9 3811.52 176.38
0 -1 9 3883.61 179.08
-1 1 -9 120.79 16.1
-1 1 -9 154.88 17.2
-2 1 -9 2702.43 138.59
-2 1 -9 2509.65 118.29
2 -1 9 2696.23 139.49
-3 1 -9 -11.9 9.8
3 -1 9 12.4 9.6
4 0 -9 27.5 11.1
4 0 -9 17.3 10.5
-4 0 9 -3 10.3
3 0 -9 13.2 6.6
3 0 -9 -2.7 5.4
-3 0 9 6 9.4
-3 0 9 0.2 6.2
2 0 -9 -3.5 5.6
2 0 -9 -6.4 4.1
-2 0 9 -2.2 5.3
-2 0 9 6.5 4.9
1 0 -9 -1.2 3.5
1 0 -9 -1.1 5.6
1 0 -9 -7.6 4
-1 0 9 1.2 5
-1 0 9 2.1 3.9
0 0 9 -9.1 4.7
-1 0 -9 18.1 5
-1 0 -9 8.2 4.8
1 0 9 9.5 6.1
-2 0 -9 14 6
-2 0 -9 1.3 7.4
2 0 9 0.7 7.1
-3 0 -9 -13.6 6.6
3 0 9 -10.3 9.6
4 -1 -9 144.29 32.3
4 -1 -9 130.19 28.9
-4 1 9 191.28 31.5
3 -1 -9 351.86 38.6
3 -1 -9 354.46 28.6
3 -1 -9 398.16 36.8
-3 1 9 364.06 39.7
-3 1 9 354.76 27.8
2 -1 -9 1057.29 72.99
2 -1 -9 1159.98 68.79
2 -1 -9 1188.28 74.19
-2 1 9 1102.19 73.89
-2 1 9 1131.59 56.09
1 -1 -9 124.49 13.7
1 -1 -9 177.88 18.9
1 -1 -9 143.79 20.2
-1 1 9 162.98 15.5
-1 1 9 144.99 20.5
0 -1 -9 3609.24 185.08
0 -1 -9 4319.27 185.48
0 1 9 4305.17 185.98
0 1 9 4352.16 182.08
-1 -1 -9 64.19 17.5
1 1 9 85.19 15.5
-2 -1 -9 2791.82 142.79
-2 -1 -9 2493.95 115.49
2 1 9 2708.43 135.39
-3 -1 -9 9.6 11.4
3 1 9 -4.4 10.5
4 -2 -9 -17.7 11.3
4 -2 -9 -1 12.2
-4 2 9 -11.6 10.2
3 -2 -9 231.78 19.5
3 -2 -9 241.78 32.2
3 -2 -9 169.58 27
-3 2 9 211.68 31.1
2 -2 -9 9.7 5.4
2 -2 -9 -4 5.2
2 -2 -9 2.5 4.2
-2 2 9 -6 4.4
-2 2 9 -1.2 3.1
1 -2 -9 668.13 48.5
1 -2 -9 676.03 48.8
1 -2 -9 630.14 31.3
-1 2 9 621.64 32.2
-1 2 9 623.74 48.4
0 -2 -9 10.4 7.6
0 -2 -9 5.9 4.9
0 -2 -9 7.7 7.5
0 2 9 16 7
0 2 9 20.1 8
-1 -2 -9 1442.16 88.89
-1 -2 -9 1567.64 77.89
1 2 9 1444.56 80.19
-2 -2 -9 113.99 25.8
-2 -2 -9 144.29 15
2 2 9 148.69 18
-3 -2 -9 388.66 43.5
3 2 9 298.17 38.9
4 -3 -9 83.19 21.5
4 -3 -9 123.09 18.4
4 -3 -9 96.89 24.2
-4 3 9 113.19 25.8
3 -3 -9 243.28 18.6
3 -3 -9 234.28 28.5
3 -3 -9 215.58 29.9
-3 3 9 171.28 28
2 -3 -9 708.23 49.4
2 -3 -9 643.54 51.39
-2 3 9 594.64 50.99
1 -3 -9 575.94 45.1
1 -3 -9 551.54 43.9
-1 3 9 623.74 46.8
0 -3 -9 590.84 41
0 -3 -9 470.35 28.4
0 -3 -9 505.75 43.6
0 3 9 557.84 40.6
0 3 9 541.35 34.4
0 3 9 501.55 28.5
-1 -3 -9 10.2 4.6
-1 -3 -9 -3.6 5.1
1 3 9 8.2 5.3
-2 -3 -9 790.42 63.99
-2 -3 -9 826.52 43.8
2 3 9 821.42 56.69
-3 -3 -9 5.5 9.5
4 -4 -9 6.9 13.8
3 -4 -9 604.04 51.19
3 -4 -9 588.74 53.39
3 -4 -9 651.83 35.8
-3 4 9 642.84 56.59
-2 4 9 12 7.7
1 -4 -9 1129.89 72.09
-1 4 9 1151.68 71.79
0 -4 -9 115.09 15.4
0 -4 -9 130.69 21.6
0 4 9 114.29 17.2
0 4 9 127.99 13.9
0 4 9 105.79 10.6
-1 -4 -9 824.92 61.89
-1 -4 -9 837.32 49.2
1 4 9 842.82 50.09
1 4 9 785.62 49.7
-2 -4 -9 217.58 19.8
-2 -4 -9 220.68 31.6
2 4 9 205.18 25.9
-3 -4 -9 325.77 39.8
3 4 9 221.18 30.9
3 -5 -9 546.45 42.6
3 -5 -9 486.35 31.6
-3 5 9 426.76 46.2
2 -5 -9 -3.3 6.3
-2 5 9 10.6 8.3
1 -5 -9 111.49 18.9
-1 5 9 111.99 19.3
0 -5 -9 100.09 23.5
0 5 9 73.49 16.4
-1 -5 -9 105.69 23.6
1 5 9 138.19 16.6
1 5 9 120.39 15.1
-2 -5 -9 137.09 13.6
2 5 9 152.08 21
-3 -5 -9 324.47 43.4
3 5 9 373.06 38.4
3 -6 -9 473.65 43.5
-3 6 9 407.86 45.3
2 -6 -9 15.1 10.3
-2 6 9 16.9 9.1
1 -6 -9 524.65 44.9
-1 6 9 529.85 45
0 -6 -9 2.8 7.2
0 6 9 17.2 4.3
-1 -6 -9 672.43 55.79
-1 -6 -9 583.34 41.1
1 6 9 654.93 41.1
1 6 9 650.33 42.9
-2 -6 -9 -2.8 6.1
2 6 9 -1.1 6.6
-3 -6 -9 363.56 44.6
3 6 9 278.37 35.8
3 -7 -9 406.86 43.1
-3 7 9 395.56 45.6
2 -7 -9 629.34 53.89
-2 7 9 560.04 51.39
1 -7 -9 93.89 20.5
-1 7 9 95.79 15.5
0 -7 -9 101.39 24.8
0 7 9 137.49 19
-1 -7 -9 7.8 9.7
1 7 9 0.6 4.9
1 7 9 5.7 4.9
-2 -7 -9 59.79 17.4
2 7 9 99.29 13.6
-3 -7 -9 268.57 40.5
3 7 9 266.07 36.2
3 -8 -9 13.4 11.4
-3 8 9 -12.5 8.1
-2 8 9 109.59 14.8
1 -8 -9 55.79 18.2
-1 8 9 49.99 15.7
0 -8 -9 23.4 8.5
0 8 9 18.8 5.6
-1 -8 -9 35.5 13.2
1 8 9 26.6 8.5
1 8 9 19.1 10.1
-2 -8 -9 9.9 11
-2 -8 -9 -3.2 10.5
2 8 9 2 5.8
2 8 9 1.8 8.4
-3 -8 -9 3.6 14.4
3 8 9 52.99 16.1
3 -9 -9 132.19 32.5
-3 9 9 158.88 28.1
2 -9 -9 151.28 25.1
-2 9 9 162.28 27.1
1 -9 -9 65.59 20.6
-1 9 9 58.69 18
0 -9 -9 245.98 31.9
0 9 9 236.18 28.2
-1 -9 -9 220.08 31
1 9 9 185.28 19.5
1 9 9 210.08 23.4
-2 -9 -9 12.4 10.1
-2 -9 -9 46.2 20.2
2 9 9 35.3 9.3
3 -10 -9 181.08 29.9
-3 10 9 158.18 33.1
2 -10 -9 56.39 22.4
-2 10 9 44.4 18.2
1 -10 -9 396.66 43.7
-1 10 9 386.56 39.3
0 -10 -9 165.38 28.2
0 10 9 164.48 25.1
-1 -10 -9 384.96 43.5
1 10 9 322.87 26.2
1 10 9 361.96 32.3
-2 -10 -9 12.5 13.7
2 10 9 49.4 12.9
3 -11 -9 333.17 39.1
-3 11 9 290.37 40
-2 11 9 40.4 15.5
1 -11 -9 264.27 35.8
-1 11 9 212.88 28.9
0 -11 -9 27.2 15.2
0 11 9 54.89 16.1
-1 -11 -9 16.9 13.5
1 11 9 21.6 10.2
-2 -11 -9 73.69 22.7
2 11 9 107.09 18.2
2 -12 -9 16.9 13.7
-2 12 9 -5.5 11.6
1 -12 -9 958.3 75.19
-1 12 9 966.6 71.79
0 -12 -9 37.5 17.6
0 12 9 47.2 17.2
-1 -12 -9 314.37 41.7
1 12 9 331.07 34.9
-2 -12 -9 91.39 28.1
2 12 9 54.39 18.3
2 -13 -9 420.96 48.8
-2 13 9 430.86 48.4
1 -13 -9 188.48 33
-1 13 9 276.37 36
0 -13 -9 497.35 53.89
0 13 9 486.05 48.2
-1 -13 -9 67.99 23.5
1 13 9 55.69 18.6
-2 14 9 132.49 31.3
1 -14 -9 434.66 48.6
-1 14 9 334.07 41.2
0 -14 -9 4 11.3
0 14 9 28.8 10.5
-1 -14 -9 401.86 47.9
1 14 9 467.55 42.2
1 -15 -9 58.19 22.5
0 -15 -9 1089.69 86.49
0 15 9 1107.19 77.39
1 14 -10 12.2 16.8
-1 -14 10 59.69 19.3
0 14 -10 585.84 61.19
0 -14 10 652.73 70.69
1 13 -10 476.85 52.79
-1 -13 10 530.35 60.59
0 13 -10 260.67 39.4
0 -13 10 224.68 46.8
-1 13 -10 236.08 44.7
1 -13 10 236.08 43.3
2 12 -10 105.79 29.9
-2 -12 10 151.58 36.6
1 12 -10 1.7 12
-1 -12 10 21.3 11.9
0 12 -10 20.8 13.1
0 -12 10 1.8 14.8
-1 12 -10 243.18 23.8
-1 12 -10 249.68 38.8
1 -12 10 282.67 46.7
2 11 -10 150.28 32.8
-2 -11 10 133.09 30.1
1 11 -10 199.88 28.9
-1 -11 10 160.78 29.8
0 11 -10 23.3 17.4
0 -11 10 44 20.5
-1 11 -10 454.05 47.8
-1 11 -10 374.06 31.9
1 -11 10 476.85 58.19
2 10 -10 73.09 17.3
-2 -10 10 63.99 21
1 10 -10 231.28 34.8
-1 -10 10 284.07 38.7
0 10 -10 -2.8 9.3
0 -10 10 -17.5 9.4
-1 10 -10 544.25 49.4
-1 10 -10 423.46 34.5
1 -10 10 487.05 56.59
-2 10 -10 73.29 19.7
-2 10 -10 79.39 19.8
2 -10 10 57.59 25.9
3 9 -10 31.6 13.4
-3 -9 10 2 14.5
2 9 -10 -12 9.5
-2 -9 10 16.5 12.5
1 9 -10 15.3 13.5
-1 -9 10 6.9 12.3
0 9 -10 16.6 12.2
0 9 -10 17.3 7.2
-1 9 -10 36.3 16.7
1 -9 10 41.9 19.1
-2 9 -10 54.99 11.9
-2 9 -10 31.5 11.3
-3 -8 10 55.89 19.9
2 8 -10 11.8 9.5
-2 -8 10 31.9 11
1 8 -10 106.89 19.1
-1 -8 10 56.49 19.9
0 8 -10 122.39 15.4
0 8 -10 134.09 28.2
0 -8 10 190.08 27.1
-1 8 -10 1056.79 75.09
-1 8 -10 1156.38 64.79
1 -8 10 1098.99 87.29
-2 8 -10 265.87 31.4
-2 8 -10 240.78 33.2
2 -8 10 249.28 44
3 7 -10 -13.5 12.3
-3 -7 10 26.5 13.7
2 7 -10 194.88 28.8
-2 -7 10 143.59 30.1
1 7 -10 210.88 29.3
1 7 -10 196.48 16.2
-1 -7 10 184.38 18.9
-1 -7 10 230.58 33.5
0 7 -10 96.69 11.4
0 7 -10 74.59 21.4
0 -7 10 60.29 21.7
-1 7 -10 88.79 22.9
-1 7 -10 118.69 17.4
-2 7 -10 102.29 22.6
-2 7 -10 129.69 20.1
2 -7 10 108.19 30.4
3 6 -10 43 19.1
-3 -6 10 35.9 14
2 6 -10 -4.9 8.3
-2 -6 10 27.7 10.5
1 6 -10 181.58 28.4
1 6 -10 253.47 19
-1 -6 10 234.88 32.4
0 6 -10 13.4 12.4
0 -6 10 15.5 13.8
-1 6 -10 801.22 56.69
-1 6 -10 761.12 51.29
1 -6 10 764.02 66.09
-2 6 -10 28.7 15.1
-2 6 -10 32.4 14.4
2 -6 10 5.5 14.5
3 5 -10 551.34 37.5
3 5 -10 474.95 50.49
-3 -5 10 590.64 50.39
2 5 -10 71.49 13.6
2 5 -10 114.99 15.8
-2 -5 10 69.09 19.7
1 5 -10 987.9 54.69
1 5 -10 1004 69.79
-1 -5 10 1017.1 69.09
0 5 -10 153.68 17.6
0 5 -10 212.18 22.2
0 -5 10 138.49 25.8
-1 5 -10 769.62 52.59
-1 5 -10 773.72 55.49
1 -5 10 706.23 63.39
-2 5 -10 366.66 34.5
-2 5 -10 375.46 37
2 -5 10 371.66 43.8
3 4 -10 19.4 12.3
3 4 -10 2 11
2 4 -10 407.26 31
2 4 -10 397.26 41.8
-2 -4 10 431.76 37.1
1 4 -10 237.58 30.2
1 4 -10 214.08 22.4
-1 -4 10 269.67 30.7
0 4 -10 609.64 49
0 4 -10 619.14 42.8
0 -4 10 630.84 53.99
-1 4 -10 275.97 28.7
-1 4 -10 225.18 26.7
1 -4 10 236.08 33.4
-2 4 -10 15.9 10.2
-2 4 -10 -2.7 8.5
2 -4 10 26.3 14.3
-3 4 -10 116.99 27.8
3 -4 10 203.78 34.4
3 3 -10 280.47 36
3 3 -10 261.07 27.8
-3 -3 10 322.67 30.5
2 3 -10 122.89 26.3
2 3 -10 198.58 17.4
-2 -3 10 149.59 19
1 3 -10 999.2 70.89
1 3 -10 1152.78 64.19
-1 -3 10 1158.28 70.09
0 3 -10 989.8 62.49
0 3 -10 1064.89 67.79
0 -3 10 1081.89 71.59
-1 3 -10 288.97 30.4
-1 3 -10 322.27 30.6
1 -3 10 320.07 38.2
-2 3 -10 200.48 23.2
-2 3 -10 223.68 29.3
2 -3 10 213.88 34
-3 3 -10 293.17 33.3
3 -3 10 205.78 37.1
3 2 -10 228.38 27.3
3 2 -10 192.18 31.7
-3 -2 10 268.27 27.5
2 2 -10 1495.65 88.89
2 2 -10 1294.17 75.39
-2 -2 10 1390.06 75.99
1 2 -10 120.99 16
1 2 -10 96.79 22.1
-1 -2 10 97.69 19.7
0 2 -10 2244.08 117.89
0 2 -10 2456.75 122.29
0 -2 10 2488.95 126.29
-1 2 -10 194.58 22.8
-1 2 -10 157.48 22.9
1 -2 10 226.48 25.7
-2 2 -10 191.78 27.8
-2 2 -10 192.48 21.1
2 -2 10 179.48 31.8
-3 2 -10 165.48 33.9
3 -2 10 130.19 31.8
3 1 -10 168.68 29
3 1 -10 191.28 24.2
3 1 -10 207.78 21.4
-3 -1 10 179.38 29.2
-3 -1 10 176.18 18.7
2 1 -10 -4.5 6.6
-2 -1 10 5.7 5
-2 -1 10 -2.5 6.6
1 1 -10 25.5 9.4
1 1 -10 54.99 13.4
-1 -1 10 42.9 12.3
0 1 -10 14.7 6.9
0 1 -10 39.2 9.7
0 -1 10 11.3 6.7
-1 1 -10 60.59 16.6
-1 1 -10 77.49 13.9
1 -1 10 65.79 17.9
-2 1 -10 66.99 17.6
2 -1 10 57.29 19
-3 1 -10 10.6 8.2
3 -1 10 -16.5 12.7
3 0 -10 9.9 8.7
3 0 -10 11.3 5.7
3 0 -10 -11.1 9.9
-3 0 10 -1.6 9.9
-3 0 10 -2.1 6.8
2 0 -10 2826.42 138.59
2 0 -10 2782.82 146.49
-2 0 10 2865.21 126.99
-2 0 10 2935.41 148.59
1 0 -10 72.29 18.5
1 0 -10 121.09 15.8
-1 0 10 106.89 13.9
-1 0 10 78.99 18.8
0 0 -10 1356.56 78.89
0 0 -10 1387.46 81.79
0 0 10 1426.16 79.69
-1 0 -10 36.2 11.5
1 0 10 46.2 16.7
-2 0 -10 475.45 34.5
-2 0 -10 478.45 47.5
2 0 10 464.45 45.4
-3 0 -10 2.8 11.2
3 0 10 11.1 15.9
3 -1 -10 186.28 27.1
3 -1 -10 207.28 18.2
3 -1 -10 169.88 28
-3 1 10 161.48 28.4
2 -1 -10 -0.6 5.8
2 -1 -10 -5.2 7.1
2 -1 -10 0.2 10.5
-2 1 10 7.7 4.2
1 -1 -10 34.5 13.2
1 -1 -10 28.6 11
1 -1 -10 13.5 7.1
-1 1 10 20.8 7.2
-1 1 10 17 10.4
0 -1 -10 17.6 8.8
0 -1 -10 22.2 7.6
0 1 10 43.3 9.4
0 1 10 13.2 8.2
-1 -1 -10 110.29 18.4
-1 -1 -10 80.19 12.8
1 1 10 48.6 15.7
-2 -1 -10 72.89 19.3
-2 -1 -10 82.59 14.4
2 1 10 85.89 22.1
-3 -1 -10 13.6 11.5
3 1 10 6.5 8.8
3 -2 -10 255.17 18.7
3 -2 -10 265.97 30.5
3 -2 -10 214.68 29.9
-3 2 10 200.48 31.4
2 -2 -10 1322.87 83.79
2 -2 -10 1285.77 57.49
2 -2 -10 1218.98 59.39
2 -2 -10 1473.25 82.09
-2 2 10 1225.68 57.49
-2 2 10 1390.56 86.49
1 -2 -10 109.79 17.8
1 -2 -10 68.09 8.9
-1 2 10 75.89 9.4
-1 2 10 103.79 22
0 -2 -10 2402.16 121.29
0 -2 -10 2503.65 128.29
0 2 10 2456.55 122.39
0 2 10 2446.26 115.19
-1 -2 -10 151.78 26.1
-1 -2 -10 187.28 22.3
-2 -2 -10 178.28 28.7
2 2 10 139.99 23.9
3 2 10 66.39 22.8
3 -3 -10 281.97 36.8
3 -3 -10 310.87 33.6
-3 3 10 262.97 36.9
2 -3 -10 153.98 24.1
2 -3 -10 136.09 23.7
-2 3 10 170.58 26.4
1 -3 -10 1116.09 71.39
1 -3 -10 1177.08 72.79
-1 3 10 1079.19 72.19
0 -3 -10 942.41 47
0 -3 -10 1005.4 67.49
0 -3 -10 1069.89 62.69
0 3 10 830.22 51.09
0 3 10 1016.6 62.19
0 3 10 919.71 47.5
-1 -3 -10 290.17 35.5
-1 -3 -10 264.17 27.7
-2 -3 -10 257.87 32.9
2 3 10 251.67 28.7
-3 -3 -10 209.68 36.2
3 3 10 192.18 29.8
3 -4 -10 18.2 11.2
3 -4 -10 15.5 11.7
-3 4 10 2.6 9.2
2 -4 -10 385.06 39.6
2 -4 -10 443.86 42.7
-2 4 10 422.96 41.8
1 -4 -10 197.08 26.1
1 -4 -10 231.78 26.7
-1 4 10 238.78 26.8
0 -4 -10 616.14 45.3
0 -4 -10 587.64 48.8
0 4 10 545.85 30.8
0 4 10 598.94 35.3
0 4 10 624.54 45.3
-1 -4 -10 274.77 35
-1 -4 -10 224.08 26.2
1 4 10 307.17 27
1 4 10 274.37 27.1
-2 -4 -10 10.6 10.5
2 4 10 15.8 8.6
-3 -4 -10 132.39 31.3
3 4 10 126.99 29.2
3 -5 -10 554.74 52.69
3 -5 -10 602.04 53.09
-3 5 10 541.35 53.69
2 -5 -10 111.59 17
-2 5 10 60.89 18.9
1 -5 -10 997.6 70.89
-1 5 10 1033.2 69.89
0 -5 -10 133.79 23.7
0 -5 -10 130.29 20.3
0 5 10 146.39 20.4
-1 -5 -10 683.73 59.09
-1 -5 -10 789.42 47.8
1 5 10 708.23 46.2
1 5 10 657.33 46.8
-2 -5 -10 379.26 44.6
2 5 10 403.96 36.2
3 -6 -10 24.8 13.3
-3 6 10 26.3 15.5
2 -6 -10 17.9 9.1
-2 6 10 -0.1 9.1
1 -6 -10 229.18 31.3
-1 6 10 220.58 29.6
0 -6 -10 29.4 13.7
0 6 10 42.3 12.7
-1 -6 -10 698.43 61.49
-1 -6 -10 805.12 47.1
1 6 10 781.12 46.6
1 6 10 726.03 48.7
-2 -6 -10 13.1 12.7
2 6 10 49.7 12.3
-3 7 10 42.8 17.5
2 -7 -10 165.38 34.5
-2 7 10 106.39 24.8
1 -7 -10 222.58 32.3
-1 7 10 238.68 30.2
0 -7 -10 76.29 21
0 7 10 72.79 19.4
-1 -7 -10 134.49 23.2
-1 -7 -10 151.98 23.2
1 7 10 119.49 16.5
1 7 10 140.99 17.6
-2 -7 -10 127.09 17.6
2 7 10 154.48 17.9
3 -8 -10 46.3 17
-3 8 10 42.9 17.4
2 -8 -10 -2.3 9.7
-2 8 10 -1 6
1 -8 -10 94.09 22.5
-1 8 10 111.99 19.4
0 -8 -10 120.69 29.2
0 8 10 196.58 24.9
-1 -8 -10 1122.19 80.69
-1 -8 -10 1166.78 64.49
1 8 10 869.81 54.69
1 8 10 1089.49 64.39
-2 -8 -10 244.38 36.8
2 8 10 226.48 26.4
3 -9 -10 -11 12
-3 9 10 7 11.4
2 -9 -10 -8.2 8.3
-2 9 10 -5.1 7.3
1 -9 -10 12.2 14
-1 9 10 39.2 14.2
0 -9 -10 7.5 10.5
0 9 10 4.8 10
-1 -9 -10 57.89 18.6
1 9 10 58.09 15.5
-2 -9 -10 1 12
2 9 10 2.9 10.6
2 -10 -10 90.29 23.9
-2 10 10 74.89 23.4
1 -10 -10 211.48 34.6
-1 10 10 290.37 33.9
0 -10 -10 -1.7 9.2
0 10 10 16.1 7.9
-1 -10 -10 519.55 53.29
1 10 10 418.86 39
2 10 10 115.69 18.4
2 -11 -10 129.59 30.7
-2 11 10 109.99 26.9
1 -11 -10 199.08 31.8
-1 11 10 218.98 31.4
0 -11 -10 77.19 22.4
0 11 10 41.3 16.2
-1 -11 -10 505.15 53.89
1 11 10 483.55 40.5
2 -12 -10 154.38 27.4
-2 12 10 144.39 32.4
1 -12 -10 26.7 8.2
-1 12 10 -4.4 11.7
0 -12 -10 18.2 13.8
0 12 10 23.3 13.2
-1 -12 -10 245.68 39.6
1 12 10 337.67 32
1 -13 -10 518.05 55.39
-1 13 10 571.74 53.09
0 -13 -10 196.78 34.8
0 13 10 219.58 30.4
-1 -13 -10 177.08 37.9
1 13 10 161.88 26.2
1 -14 -10 -3.6 12.2
-1 14 10 23.6 16.4
0 -14 -10 669.13 68.19
0 14 10 764.12 60.39
1 12 -11 181.38 32.1
-1 -12 11 119.29 31.2
0 12 -11 478.15 49.9
0 -12 11 416.76 54.79
2 11 -11 -20.3 10
-2 -11 11 15.9 13.2
1 11 -11 360.96 44.5
-1 -11 11 364.26 50.49
0 11 -11 -1.8 10.1
0 -11 11 52.39 13.7
-1 11 -11 527.35 52.39
-1 11 -11 448.26 35.9
1 -11 11 499.35 62.39
2 10 -11 75.69 26.1
-2 -10 11 103.29 26.9
1 10 -11 350.66 43.6
-1 -10 11 332.67 44.6
0 10 -11 389.46 46.4
0 -10 11 413.26 52.99
-1 10 -11 60.09 16.2
-1 10 -11 32 11.4
1 -10 11 65.79 23.3
2 9 -11 62.59 20.9
-2 -9 11 38.3 18.3
1 9 -11 1098.49 82.39
-1 -9 11 1199.78 87.19
0 9 -11 375.06 44.3
0 9 -11 341.57 26.1
0 -9 11 394.46 47.2
-1 9 -11 1063.29 65.09
-1 9 -11 1209.68 78.69
1 -9 11 1177.78 95.09
2 8 -11 19.6 14.9
-2 -8 11 93.09 14.7
1 8 -11 13.3 12.5
-1 -8 11 8.3 11.9
0 8 -11 9.9 10.2
0 -8 11 3.4 14.4
-1 8 -11 5.9 10.1
-1 8 -11 -6.8 6.6
-2 8 -11 26.7 16.6
-2 8 -11 38.1 13.9
2 -8 11 34.5 19.1
3 7 -11 159.98 35.5
-3 -7 11 174.08 28.5
2 7 -11 86.09 24
-2 -7 11 128.99 22.8
1 7 -11 1082.99 78.69
1 7 -11 1132.69 55.19
-1 -7 11 1066.59 79.89
0 7 -11 105.09 16.1
0 7 -11 144.09 24.8
0 -7 11 95.59 26.6
-1 7 -11 1113.59 76.79
-1 7 -11 1055.19 65.59
1 -7 11 1103.89 87.39
-2 7 -11 208.88 34.3
-2 7 -11 256.37 32.6
2 -7 11 217.88 46.9
3 6 -11 449.36 46.3
-3 -6 11 421.86 43.8
2 6 -11 133.99 30.8
2 6 -11 158.28 15.7
-2 -6 11 166.98 27.6
1 6 -11 115.39 15.2
1 6 -11 107.89 27.2
0 6 -11 72.99 20.2
0 6 -11 82.69 16.1
-1 6 -11 77.79 16.8
-1 6 -11 82.29 21.9
1 -6 11 62.39 25
-2 6 -11 65.89 18.9
-2 6 -11 66.19 20.8
2 -6 11 73.99 27.2
3 5 -11 122.99 28.5
-3 -5 11 146.19 26.9
2 5 -11 41 16.3
-2 -5 11 71.29 16.5
1 5 -11 917.91 68.39
1 5 -11 876.21 52.09
-1 -5 11 876.61 65.09
0 5 -11 45.2 16.5
0 5 -11 39.8 11.6
0 -5 11 19.5 12.9
-1 5 -11 1200.18 75.69
-1 5 -11 1114.69 70.69
1 -5 11 1085.49 85.59
-2 5 -11 126.89 22.3
-2 5 -11 171.58 26.2
2 -5 11 126.69 33.1
3 4 -11 271.57 28.2
3 4 -11 340.17 39.9
-3 -4 11 268.37 34.9
2 4 -11 638.14 44.5
2 4 -11 656.93 58.29
-2 -4 11 736.23 52.39
1 4 -11 157.78 23.4
1 4 -11 141.49 16.2
-1 -4 11 124.49 21
0 4 -11 800.22 53.19
0 4 -11 788.62 60.99
0 -4 11 842.32 65.09
-1 4 -11 164.88 22.2
-1 4 -11 137.89 25.9
1 -4 11 159.88 34.2
-2 4 -11 772.52 52.99
-2 4 -11 735.43 58.79
2 -4 11 765.92 70.99
3 3 -11 -0.3 13.1
-3 -3 11 7.2 8.7
2 3 -11 420.76 34.4
2 3 -11 405.76 42.9
-2 -3 11 376.86 36.1
1 3 -11 19.3 12.3
1 3 -11 11.9 8.3
-1 -3 11 27.7 11.2
0 3 -11 46.2 12.5
0 3 -11 53.29 14.9
0 -3 11 79.89 12.8
-1 3 -11 91.79 14.6
-1 3 -11 80.79 19.2
1 -3 11 133.09 22.7
-2 3 -11 63.09 15.2
-2 3 -11 98.89 17.7
3 2 -11 89.69 24.9
3 2 -11 70.59 18
-3 -2 11 60.69 14.7
2 2 -11 38.1 14.7
-2 -2 11 46.8 11.2
1 2 -11 284.57 34.4
1 2 -11 317.77 30.3
-1 -2 11 396.46 33
0 2 -11 172.88 22.8
0 2 -11 136.19 21.1
0 -2 11 113.09 20.1
-1 2 -11 220.88 29.4
-1 2 -11 227.38 26.6
1 -2 11 276.77 33.2
-2 2 -11 117.49 27
-2 2 -11 170.48 18.1
2 -2 11 156.48 28.7
3 1 -11 32.4 11.1
3 1 -11 29.1 14.8
3 1 -11 31.6 15.5
2 1 -11 691.43 49.3
2 1 -11 633.64 56.79
-2 -1 11 735.93 44.6
-2 -1 11 685.13 57.99
1 1 -11 8.6 8.2
1 1 -11 15.8 11.1
-1 -1 11 18.4 8
0 1 -11 353.36 35.4
0 1 -11 374.96 37.1
0 -1 11 403.86 38
-1 1 -11 -9.5 8.1
-1 1 -11 -5.5 6
1 -1 11 13.6 11
-2 1 -11 1.5 6.8
-2 1 -11 17.6 8.9
2 -1 11 53.09 16.6
3 0 -11 -15 9.1
-3 0 11 3.4 6.7
2 0 -11 -2.1 6.9
2 0 -11 -2.5 7.5
-2 0 11 10.7 5.4
-2 0 11 17.4 11
1 0 -11 -9.6 5.7
1 0 -11 -7.6 6
-1 0 11 15.1 6
-1 0 11 11.8 8.9
0 0 -11 12.8 8.2
0 0 -11 1.1 6.8
0 0 11 -5.2 6.7
-1 0 -11 -0.5 8.3
-1 0 -11 0.3 8.4
1 0 11 -3.1 9.6
-2 0 -11 72.09 12.3
2 0 11 45 11.3
3 -1 -11 34.5 14.7
3 -1 -11 46.8 15.8
-3 1 11 18.9 15.3
2 -1 -11 701.63 57.29
2 -1 -11 653.83 52.59
-2 1 11 703.73 57.19
1 -1 -11 29.5 7.3
1 -1 -11 9.3 8.9
-1 1 11 18.5 10.5
-1 1 11 21.7 7.1
0 -1 -11 406.36 36.3
0 -1 -11 386.06 38.6
0 1 11 372.86 32.7
-1 -1 -11 19.6 6.2
-1 -1 -11 -2.1 6.5
-2 -1 -11 -1.8 7.9
2 1 11 0 14.2
3 -2 -11 77.59 22.4
3 -2 -11 53.89 20.1
-3 2 11 74.39 21.4
2 -2 -11 27.5 14.4
2 -2 -11 40.4 15.9
-2 2 11 42.6 16.1
1 -2 -11 362.56 37.1
1 -2 -11 314.47 33.7
-1 2 11 324.17 35.5
0 -2 -11 115.69 23.3
0 -2 -11 104.69 22.7
0 2 11 86.69 19.7
-1 -2 -11 218.98 31.2
-1 -2 -11 290.67 25.3
1 2 11 196.68 26.5
-2 -2 -11 104.79 26
2 2 11 142.79 23.9
3 -3 -11 60.29 14.3
-3 3 11 42.6 13.8
2 -3 -11 481.55 40.3
2 -3 -11 358.46 40.6
-2 3 11 392.56 42.6
1 -3 -11 14.7 10
1 -3 -11 9.9 10.6
-1 3 11 19 8.6
0 -3 -11 36.4 14.5
0 -3 -11 31 14.9
0 3 11 57.79 15.6
0 3 11 43.4 10.7
-1 -3 -11 63.59 20.5
-1 -3 -11 69.79 15.8
1 3 11 53.09 14.6
-2 -3 -11 33.1 17.7
2 3 11 68.49 14.6
3 -4 -11 266.97 36.4
3 -4 -11 284.27 38.1
-3 4 11 295.47 39.3
2 -4 -11 592.74 53.29
2 -4 -11 544.45 51.09
-2 4 11 610.84 54.89
1 -4 -11 152.98 24.2
1 -4 -11 108.59 23.9
-1 4 11 161.48 23.2
0 -4 -11 732.93 53.19
0 4 11 738.83 54.19
-1 -4 -11 148.09 22.5
-1 -4 -11 134.39 31.8
1 4 11 203.58 23.1
-2 -4 -11 700.13 63.39
2 4 11 690.83 54.19
3 -5 -11 140.49 30.4
-3 5 11 93.09 24.3
2 -5 -11 57.29 19.1
2 -5 -11 50.19 17.8
-2 5 11 54.29 16.5
1 -5 -11 849.52 62.49
1 -5 -11 825.22 63.69
-1 5 11 918.11 64.19
0 -5 -11 30.5 12.3
0 -5 -11 15.5 11.7
0 5 11 32.4 11.3
-1 -5 -11 1124.59 66.69
-1 -5 -11 995.6 78.39
1 5 11 1133.19 67.59
1 5 11 1157.78 65.69
-2 -5 -11 124.79 30.8
2 5 11 136.59 27
3 -6 -11 315.97 42.1
3 -6 -11 435.96 45.9
-3 6 11 352.46 44.4
2 -6 -11 173.98 24.6
-2 6 11 154.18 27.4
1 -6 -11 147.99 30.1
-1 6 11 134.79 22.8
0 -6 -11 81.59 22.1
0 -6 -11 76.29 19.5
0 6 11 101.59 22.9
-1 -6 -11 92.59 16.6
-1 -6 -11 43.2 16.9
1 6 11 87.69 14.3
1 6 11 68.89 17.8
-2 -6 -11 79.29 24.3
2 6 11 70.69 16.9
3 -7 -11 154.38 35.4
-3 7 11 121.99 29.8
2 -7 -11 109.39 27.4
-2 7 11 101.09 27.2
1 -7 -11 955 73.59
-1 7 11 1096.69 74.69
0 -7 -11 135.39 20.4
0 -7 -11 114.79 27.5
0 7 11 147.09 23.4
-1 -7 -11 1100.99 80.79
-1 -7 -11 970.3 62.49
1 7 11 1063.99 65.29
-2 -7 -11 236.38 36.2
2 7 11 177.58 28.6
2 -8 -11 11.1 12.5
-2 8 11 -1.8 8.2
1 -8 -11 11.4 12.2
-1 8 11 9.8 12
0 -8 -11 28 10.7
0 8 11 7.6 9.4
-1 -8 -11 8 9.1
-1 -8 -11 26 9.4
-2 -8 -11 56.29 19.5
2 -9 -11 20.2 13.4
-2 9 11 33.6 14.7
1 -9 -11 1106.79 82.29
-1 9 11 1160.58 79.09
0 -9 -11 399.76 46.5
0 9 11 388.36 39.6
-1 -9 -11 1077.29 67.99
-1 -9 -11 1049.49 84.29
1 9 11 1126.49 68.09
2 -10 -11 66.29 22.8
-2 10 11 51.79 20.1
1 -10 -11 307.37 39.2
-1 10 11 289.77 37.7
0 -10 -11 360.46 45.5
0 10 11 381.66 40.7
-1 -10 -11 49.2 17.1
-1 -10 -11 27.1 15.7
1 10 11 61.79 13.4
-2 11 11 4.5 12
1 -11 -11 336.07 43.1
-1 11 11 343.37 41.6
0 -11 -11 10.3 10.2
0 11 11 -9.1 8.9
-1 -11 -11 418.76 52.99
1 11 11 466.35 42
1 -12 -11 130.99 29.9
-1 12 11 181.68 29.8
0 -12 -11 401.96 51.39
0 12 11 456.65 43.5
1 10 -12 469.95 50.09
-1 -10 12 530.35 58.49
0 10 -12 295.47 39.1
0 -10 12 281.27 45.3
1 9 -12 -1.3 11.4
-1 -9 12 -10.8 8.6
0 9 -12 165.28 22.8
-1 9 -12 24.3 10.4
-1 9 -12 34.1 12.7
1 -9 12 17.8 18.5
2 8 -12 124.09 29.1
-2 -8 12 97.79 27.1
1 8 -12 1001.4 79.89
-1 -8 12 1081.19 81.19
0 8 -12 520.45 49.4
0 8 -12 463.25 34.2
0 -8 12 465.55 53.19
-1 8 -12 456.55 49.2
-1 8 -12 526.35 41.7
1 -8 12 410.36 56.09
2 7 -12 16.5 10.6
-2 -7 12 15 10.9
1 7 -12 48.3 21.1
1 7 -12 46.4 12.9
-1 -7 12 62.99 18.3
0 7 -12 66.09 19.6
0 7 -12 56.59 13.5
0 -7 12 90.29 27.1
-1 7 -12 129.49 22.4
-1 7 -12 168.28 28.1
2 6 -12 72.99 22.7
-2 -6 12 56.99 20.4
1 6 -12 575.84 56.09
1 6 -12 526.35 36.1
-1 -6 12 593.04 51.39
0 6 -12 267.37 35.3
0 6 -12 252.47 25.3
0 -6 12 212.78 37
-1 6 -12 317.67 33.7
-1 6 -12 387.46 41.1
1 -6 12 312.87 44.7
2 5 -12 99.29 17.3
2 5 -12 97.09 23.8
-2 -5 12 60.59 19.9
1 5 -12 145.69 31.2
1 5 -12 130.19 19.1
-1 -5 12 112.39 26.1
0 5 -12 390.26 35.3
0 5 -12 460.45 43.4
0 -5 12 447.56 47.3
-1 5 -12 19.1 9.1
-1 5 -12 20.4 10.7
1 -5 12 15.3 12.6
2 -5 12 458.45 51.09
2 4 -12 76.89 23.1
2 4 -12 116.99 20.8
-2 -4 12 82.79 20.7
1 4 -12 699.13 47.6
1 4 -12 621.74 57.09
-1 -4 12 768.32 57.89
0 4 -12 120.29 19.9
0 4 -12 74.19 12.9
0 -4 12 81.09 20.6
-1 4 -12 -13 7.3
-1 4 -12 -8.5 10
1 -4 12 24.4 10.9
-2 4 -12 316.77 37.8
2 -4 12 355.96 47.5
3 3 -12 92.09 27.7
3 3 -12 125.39 18.3
2 3 -12 378.86 45.1
2 3 -12 458.35 37.9
-2 -3 12 416.96 38.1
1 3 -12 182.38 29.3
1 3 -12 196.58 22.6
-1 -3 12 157.58 26.2
0 3 -12 890.81 67.79
0 3 -12 999.7 64.49
0 -3 12 978.8 70.99
-1 3 -12 26 8.4
1 -3 12 4.8 13.4
-2 3 -12 162.38 28.5
2 -3 12 224.68 33.5
3 2 -12 -6.4 11.2
3 2 -12 10.1 13.3
-3 -2 12 -3.2 9.6
2 2 -12 64.09 17.2
2 2 -12 39.8 14.4
-2 -2 12 53.59 14.4
1 2 -12 50.59 18.3
-1 -2 12 80.69 17.9
0 2 -12 33.7 14.8
0 2 -12 43.4 14.1
0 -2 12 50.59 17.4
-1 2 -12 156.98 27.8
-1 2 -12 201.18 26.9
1 -2 12 158.88 35.8
-2 2 -12 192.98 33.1
2 -2 12 209.38 42.5
3 1 -12 58.99 18.1
3 1 -12 28.2 14.7
2 1 -12 66.19 19.4
2 1 -12 77.49 18.6
1 1 -12 8 11.4
1 1 -12 33 12
-1 -1 12 5.8 8.1
0 1 -12 16.5 13.4
0 1 -12 13.3 10.4
0 -1 12 50.09 14.3
-1 1 -12 45.3 11.5
-1 1 -12 21.5 9.9
1 -1 12 49.7 15.6
-2 1 -12 325.37 39.5
2 -1 12 348.87 41.3
3 0 -12 -5.4 13.3
3 0 -12 11.5 11.6
-3 0 12 20.2 16.8
2 0 -12 13.4 9.4
2 0 -12 -14.6 9.8
-2 0 12 -5.2 6.4
1 0 -12 50.09 17.7
1 0 -12 24.5 12.3
-1 0 12 40.5 10.3
0 0 -12 51.49 17.7
0 0 -12 59.79 18
-1 0 -12 959.5 69.39
-1 0 -12 920.01 61.99
1 0 12 913.01 68.59
-2 0 -12 420.16 44.8
2 0 12 417.26 44.5
3 -1 -12 119.89 19.1
3 -1 -12 119.49 17
2 -1 -12 61.59 19.5
2 -1 -12 46.3 19.4
-2 1 12 56.59 18.3
1 -1 -12 16.8 10
1 -1 -12 26.9 13.3
-1 1 12 -1.6 8
-1 1 12 19.1 5.8
0 -1 -12 31 13.9
0 -1 -12 40.5 10.4
-1 -1 -12 52.29 14.3
-1 -1 -12 -0.1 10.7
1 1 12 23.2 13.7
-2 -1 -12 316.27 38.2
2 1 12 288.97 40.2
3 -2 -12 -6.2 11.5
3 -2 -12 28.2 12
-3 2 12 5.5 13.9
2 -2 -12 33.7 15
2 -2 -12 65.29 21.1
-2 2 12 37.4 17.3
1 -2 -12 45.9 17.7
1 -2 -12 59.89 19.3
-1 2 12 104.69 24.6
0 -2 -12 70.69 19.7
0 -2 -12 28.7 15.4
0 2 12 73.09 13.1
-1 -2 -12 206.78 29.4
-1 -2 -12 295.27 26.5
1 2 12 254.67 27.1
-2 -2 -12 194.58 31.5
2 2 12 223.88 36.2
3 -3 -12 58.59 23.5
3 -3 -12 76.99 24.4
-3 3 12 64.59 24.7
2 -3 -12 478.45 46.6
2 -3 -12 411.16 44.6
-2 3 12 442.46 46.3
1 -3 -12 156.28 26.1
1 -3 -12 173.88 27.5
-1 3 12 181.68 24.6
0 -3 -12 915.61 64.19
0 -3 -12 1022 70.29
0 3 12 955.5 66.89
-1 -3 -12 17.2 8.2
-1 -3 -12 18.5 11
1 3 12 -16.3 10.3
-2 -3 -12 139.49 31.9
2 3 12 228.98 32.4
2 -4 -12 83.29 20
2 -4 -12 81.69 21.3
-2 4 12 108.29 25.4
1 -4 -12 658.43 56.19
1 -4 -12 610.14 52.79
-1 4 12 582.24 52.79
0 -4 -12 58.09 17.8
0 -4 -12 52.19 14.4
0 4 12 64.29 18.3
-1 -4 -12 -4.3 9.1
-1 -4 -12 20.5 10.3
1 4 12 14.1 10.2
-2 -4 -12 360.66 42.6
2 4 12 246.78 38.1
2 -5 -12 37.3 17
2 -5 -12 79.89 22.9
-2 5 12 65.89 20.3
1 -5 -12 152.18 25.9
1 -5 -12 120.49 27.4
-1 5 12 193.28 26.9
0 -5 -12 421.86 38.5
0 -5 -12 388.86 44.3
0 5 12 371.06 37.8
-1 -5 -12 -0.3 10.5
-1 -5 -12 30.1 10.6
1 5 12 28.5 11.1
2 5 12 359.56 44.1
2 -6 -12 92.69 27.4
2 -6 -12 97.09 25.9
-2 6 12 94.99 22.7
1 -6 -12 521.75 51.09
1 -6 -12 525.95 49.3
-1 6 12 544.15 48.2
0 -6 -12 259.67 31.7
0 -6 -12 236.38 36.1
0 6 12 276.57 32
-1 -6 -12 331.27 43.2
-1 -6 -12 306.37 35
1 6 12 333.97 31.2
2 -7 -12 39.1 9.2
-2 7 12 30.7 12.4
1 -7 -12 41.5 13
1 -7 -12 18 12.9
-1 7 12 33.8 15.9
0 -7 -12 58.69 17.4
0 -7 -12 94.09 28
0 7 12 88.69 21.2
-1 -7 -12 173.28 24.6
-1 -7 -12 92.89 25.6
1 7 12 156.68 22.6
2 -8 -12 179.28 28.4
-2 8 12 119.99 30.9
1 -8 -12 1029.3 78.79
-1 8 12 1020.9 75.89
0 -8 -12 411.56 48.9
0 -8 -12 498.65 40.2
0 8 12 475.95 44.7
-1 -8 -12 502.15 44.1
-1 -8 -12 512.45 54.39
1 8 12 563.14 43.1
1 -9 -12 -10 11.2
-1 9 12 -7.3 9.7
0 -9 -12 39.8 19.5
0 -9 -12 81.79 20.9
0 9 12 86.79 20.3
-1 -9 -12 12.2 10.8
1 -10 -12 452.55 51.69
-1 10 12 520.35 50.29
0 -10 -12 341.97 45.6
0 10 12 348.57 38.4
1 8 -13 24.5 17.4
0 8 -13 12.3 11.9
0 -8 13 5.7 14.7
1 7 -13 126.99 31
0 7 -13 137.99 17.4
0 7 -13 104.99 29.7
0 -7 13 135.19 33.8
1 6 -13 -2.3 11
-1 -6 13 -11.9 13.3
0 6 -13 196.98 38.6
0 6 -13 232.18 23.5
0 -6 13 183.78 40.1
-1 6 -13 55.69 22.8
1 -6 13 70.49 26.6
2 5 -13 98.99 27.8
-2 -5 13 111.69 27.9
1 5 -13 65.29 26.1
1 5 -13 77.69 16.8
-1 -5 13 40.6 19.5
0 5 -13 326.27 29.3
0 5 -13 234.88 37.3
0 -5 13 245.58 39.3
-1 5 -13 29.7 14.5
1 -5 13 -7.9 13.9
2 4 -13 912.41 75.09
2 4 -13 923.11 55.69
-2 -4 13 771.02 57.59
1 4 -13 -0.7 12.8
1 4 -13 25 11.3
-1 -4 13 6.4 11.3
0 4 -13 620.04 56.79
0 4 -13 630.04 48.6
0 -4 13 621.14 57.99
-1 4 -13 26.2 13.5
2 3 -13 134.19 29.3
2 3 -13 174.18 23
1 3 -13 429.76 38.5
1 3 -13 482.65 49
-1 -3 13 501.75 43.4
0 3 -13 382.66 41.5
0 3 -13 335.37 35.5
0 -3 13 368.96 42.5
-1 3 -13 499.75 47.9
-1 3 -13 448.26 46.5
1 -3 13 560.84 54.99
2 2 -13 11 12
2 2 -13 44.1 13.2
1 2 -13 5.5 11
0 2 -13 127.89 26.8
0 2 -13 137.99 22.4
0 -2 13 192.68 26.1
-1 2 -13 48 15
-1 2 -13 34.4 16.5
2 1 -13 160.58 25.9
2 1 -13 131.99 29.8
1 1 -13 340.57 41.6
1 1 -13 363.26 38.5
0 1 -13 346.47 39.6
0 1 -13 380.06 38
0 -1 13 434.46 38.7
-1 1 -13 655.43 56.69
-1 1 -13 564.04 52.19
1 -1 13 611.84 58.99
2 0 -13 1.7 11.6
2 0 -13 9.5 9.7
1 0 -13 -1 8.7
1 0 -13 32.9 10.1
-1 0 13 -1.3 8.6
0 0 -13 15 8.8
-1 0 -13 -16.2 12.7
-1 0 -13 -0.3 11.5
1 0 13 25.5 11.7
2 -1 -13 189.28 25.9
2 -1 -13 118.99 31.2
-2 1 13 141.19 32.8
1 -1 -13 336.07 41.4
1 -1 -13 379.26 40.5
0 -1 -13 340.57 40.5
0 -1 -13 445.66 41.4
-1 -1 -13 620.84 54.39
-1 -1 -13 594.74 52.19
1 1 13 593.14 54.79
2 -2 -13 7.4 14.2
2 -2 -13 27.9 14.5
-2 2 13 5.5 9.1
1 -2 -13 16.8 12.1
1 -2 -13 19.8 12.7
-1 2 13 7.1 10.4
0 -2 -13 140.89 23.3
0 -2 -13 131.19 22.5
-1 -2 -13 -0.2 12
-1 -2 -13 -10.3 13.2
1 2 13 21.7 13.1
2 -3 -13 178.68 34.1
2 -3 -13 116.69 31.2
-2 3 13 159.08 35.5
1 -3 -13 518.25 47.3
1 -3 -13 417.16 45.4
-1 3 13 496.15 48.6
0 -3 -13 487.75 40.1
0 -3 -13 315.67 40.2
-1 -3 -13 425.76 45
-1 -3 -13 566.24 51.69
2 -4 -13 903.51 72.29
2 -4 -13 883.21 69.79
-2 4 13 830.92 71.09
1 -4 -13 14 10
0 -4 -13 598.04 56.89
0 -4 -13 593.94 49.3
0 4 13 606.24 52.29
-1 -4 -13 -24.4 13.7
2 -5 -13 98.69 28.3
2 -5 -13 101.19 25.4
-2 5 13 105.19 27.6
1 -5 -13 128.69 19
1 -5 -13 125.29 17
0 -5 -13 291.47 34.9
0 -5 -13 342.07 34.6
0 5 13 255.07 33.8
-1 -5 -13 19.4 7.8
1 -6 -13 -6.1 8.9
-1 6 13 -4.3 9.7
0 -6 -13 170.58 32.2
0 -6 -13 156.18 32.7
0 6 13 194.78 28
-1 -6 -13 45.2 22.3
-1 -6 -13 85.49 25.7
1 -7 -13 184.18 29.8
-1 7 13 154.28 27.2
0 -7 -13 86.89 26.6
0 -7 -13 97.59 25
0 7 13 115.09 20.2
1 -8 -13 68.59 18.1
0 -8 -13 -2.2 10.2
0 -8 -13 3.2 12.6
0 8 13 -8.4 10.5
1 3 -14 62.19 20.2
0 3 -14 153.68 27
0 3 -14 135.29 30.4
0 -3 14 132.79 34.7
1 2 -14 676.33 54.39
1 2 -14 723.33 59.89
0 2 -14 184.48 24.1
0 2 -14 209.98 21.2
1 1 -14 -1.1 9.3
1 1 -14 -13.2 11.9
0 1 -14 149.99 25.7
0 1 -14 107.89 24.7
1 0 -14 658.33 58.89
1 0 -14 756.32 56.19
0 0 -14 -8.4 10.8
0 0 -14 -14 9.3
0 -1 -14 121.19 26.8
0 -1 -14 152.08 25.1
1 -2 -14 704.63 61.99
1 -2 -14 771.72 60.99
0 -2 -14 69.79 24.3
0 -2 -14 103.29 27.2
1 -3 -14 63.79 18.2
1 -3 -14 41.1 19.8
-1 3 14 71.59 17
0 -3 -14 186.38 30.8
0 -3 -14 186.28 28.6
