#------------------------------------------------------------------------------
#$Date: 2021-10-01 01:16:56 +0300 (Fri, 01 Oct 2021) $
#$Revision: 269405 $
#$URL: file:///home/coder/svn-repositories/cod/cif/1/56/47/1564772.cif $
#------------------------------------------------------------------------------
#
# This file is available in the Crystallography Open Database (COD),
# http://www.crystallography.net/
#
# All data on this site have been placed in the public domain by the
# contributors.
#
data_1564772
loop_
_publ_author_name
'Turner, Gemma F.'
'McKellar, Scott C.'
'Allan, David R.'
'Cheetham, Anthony K.'
'Henke, Sebastian'
'Moggach, Stephen A.'
_publ_section_title
;
 Guest-mediated phase transitions in a flexible pillared-layered
 metal--organic framework under high-pressure
;
_journal_name_full               'Chemical Science'
_journal_paper_doi               10.1039/D1SC03108B
_journal_year                    2021
_chemical_formula_moiety         '(C22 H26 N2 O8 Zn2)n 7.8 (C2 O H6)'
_chemical_formula_sum            'C37.6 H72.8 N2 O15.8 Zn2'
_chemical_formula_weight         936.56
_space_group_IT_number           123
_space_group_name_Hall           '-P 4 2'
_space_group_name_H-M_alt        'P 4/m m m'
_symmetry_cell_setting           tetragonal
_symmetry_space_group_name_Hall  '-P 4 2'
_symmetry_space_group_name_H-M   'P 4/m m m'
_atom_sites_solution_hydrogens   difmap
_atom_sites_solution_primary     other
_audit_creation_date             2021-05-26
_audit_creation_method           CRYSTALS_ver_14.61_build_6999
_audit_update_record
;
2021-06-03 deposited with the CCDC.	2021-09-29 downloaded from the CCDC.
;
_cell_angle_alpha                90
_cell_angle_beta                 90
_cell_angle_gamma                90
_cell_formula_units_Z            1
_cell_length_a                   10.9805(16)
_cell_length_b                   10.9805(16)
_cell_length_c                   9.7220(19)
_cell_measurement_reflns_used    3660
_cell_measurement_temperature    298
_cell_measurement_theta_max      25
_cell_measurement_theta_min      3
_cell_volume                     1172.2(3)
_computing_cell_refinement       'Apex2 (Bruker AXS, 2006)'
_computing_data_collection       'Apex2 (Bruker AXS, 2006)'
_computing_data_reduction        'Apex2 (Bruker AXS, 2006)'
_computing_molecular_graphics    'CAMERON (Watkin et al., 1996)'
_computing_publication_material  'CRYSTALS (Betteridge et al., 2003)'
_computing_structure_refinement  'CRYSTALS (Betteridge et al., 2003)'
_computing_structure_solution    'Superflip (Palatinus & Chapuis, 2007)'
_diffrn_ambient_pressure         310000
_diffrn_ambient_temperature      298
_diffrn_measured_fraction_theta_full 0.581
_diffrn_measured_fraction_theta_max 0.581
_diffrn_measurement_device       Area
_diffrn_measurement_device_type  'Bruker Kappa Apex2'
_diffrn_measurement_method       \w
_diffrn_radiation_monochromator  graphite
_diffrn_radiation_type           'Mo K\a'
_diffrn_radiation_wavelength     0.71073
_diffrn_reflns_av_R_equivalents  0.048
_diffrn_reflns_av_unetI/netI     0.064
_diffrn_reflns_limit_h_max       11
_diffrn_reflns_limit_h_min       -11
_diffrn_reflns_limit_k_max       4
_diffrn_reflns_limit_k_min       -5
_diffrn_reflns_limit_l_max       11
_diffrn_reflns_limit_l_min       -11
_diffrn_reflns_number            4042
_diffrn_reflns_theta_full        25.031
_diffrn_reflns_theta_max         25.031
_diffrn_reflns_theta_min         2.798
_diffrn_standards_number         0
_exptl_absorpt_coefficient_mu    1.09
_exptl_absorpt_correction_T_max  0.95
_exptl_absorpt_correction_T_min  0.82
_exptl_absorpt_correction_type   multi-scan
_exptl_absorpt_process_details   'SADABS (Siemens, 1996)'
_exptl_crystal_colour            colourless
_exptl_crystal_density_diffrn    1.329
_exptl_crystal_density_meas      ?
_exptl_crystal_density_method    'not measured'
_exptl_crystal_description       plate
_exptl_crystal_F_000             498.8
_exptl_crystal_size_max          0.150
_exptl_crystal_size_mid          0.150
_exptl_crystal_size_min          0.050
_platon_squeeze_details
;
see text for details
;
_refine_diff_density_max         1.89
_refine_diff_density_min         -1.17
_refine_ls_extinction_method     None
_refine_ls_goodness_of_fit_ref   1.0161
_refine_ls_hydrogen_treatment    constr
_refine_ls_matrix_type           full
_refine_ls_number_parameters     31
_refine_ls_number_reflns         379
_refine_ls_number_restraints     78
_refine_ls_R_factor_all          0.0976
_refine_ls_R_factor_gt           0.0762
_refine_ls_shift/su_max          0.0091720
_refine_ls_shift/su_mean         0.0003097
_refine_ls_structure_factor_coef Fsqd
_refine_ls_weighting_details
;
 Method= Modified Sheldrick 
 w=1/[\s^2^(F^2^) + ( 0.00P)^2^ +23.55P] 
 ,where P=(max(Fo^2^,0) + 2Fc^2^)/3 
;
_refine_ls_weighting_scheme      calc
_refine_ls_wR_factor_all         0.2024
_refine_ls_wR_factor_gt          0.1709
_refine_ls_wR_factor_ref         0.1895
_reflns_limit_h_max              5
_reflns_limit_h_min              0
_reflns_limit_k_max              11
_reflns_limit_k_min              0
_reflns_limit_l_max              11
_reflns_limit_l_min              0
_reflns_number_gt                333
_reflns_number_total             386
_reflns_threshold_expression     I>2.0\s(I)
_oxford_diffrn_Wilson_B_factor   0.24
_oxford_diffrn_Wilson_scale      37.55
_oxford_refine_ls_r_factor_ref   0.0938
_oxford_refine_ls_scale          0.2422(9)
_oxford_reflns_number_all        386
_iucr_refine_instructions_details
;
#
# Punched on 25/05/21 at 17:18:21
#
#LIST     12                                                                    
BLOCK 
CONT SCALE 
CONT ZN   (     1 ,X'S,U'S)  UNTIL C    (     3 ) 
CONT O    (     1 ,X'S,U'S) 
RIDE C   (   3,X'S) H   (  32,X'S) 
RIDE C   (   4,X'S) H   (  13,X'S) H   (  51,X'S) H   (  52,X'S) 
RIDE C   (   5,X'S) 
END                                                                             
#
# Punched on 25/05/21 at 17:18:21
#
#LIST     16                                                                    
DIST   1.501,.01= C(1) TO C(2) 
DIST   1.247,.01= C(1) TO O(1) 
DIST   1.368,.01= C(2) TO C(3) 
DIST   1.383,.01= C(3) TO C(3,5) 
DIST   1.555,.01= C(4) TO C(4,-8) 
DIST   1.472,.01= C(4) TO N(1) 
DIST   1.530,.01= C(5) TO C(5,-7,1,1) 
DIST   1.442,.01= C(5) TO N(1) 
REM   HREST   START (DO NOT REMOVE THIS LINE) 
REM   HREST   END (DO NOT REMOVE THIS LINE) 
REM   DELU   START (DO NOT REMOVE THIS LINE) 
VIBR .0, 0.00200 = C(1) TO O(1,-3,1,0,0,1) 
VIBR .0, 0.00200 = C(1) TO C(2) 
VIBR .0, 0.00200 = C(1) TO O(1) 
VIBR .0, 0.00500 = C(2) TO O(1,-3,1,0,0,1) 
VIBR .0, 0.00500 = O(1) TO O(1,-3,1,0,0,1) 
VIBR .0, 0.00500 = O(1) TO C(2) 
VIBR .0, 0.00200 = C(2) TO C(3,-3,1,0,0,1) 
VIBR .0, 0.00200 = C(2) TO C(3) 
VIBR .0, 0.00500 = C(3,-3,1,0,0,1) TO C(1) 
VIBR .0, 0.00500 = C(3) TO C(1) 
VIBR .0, 0.00500 = C(3) TO C(3,-3,1,0,0,1) 
VIBR .0, 0.00200 = C(3) TO C(3,3,1,0,1) 
VIBR .0, 0.00500 = C(2) TO C(3,3,1,0,1) 
VIBR .0, 0.00200 = C(4) TO C(4,-3) 
VIBR .0, 0.00200 = C(4) TO N(1) 
VIBR .0, 0.00500 = N(1) TO C(4,-3) 
VIBR .0, 0.00200 = C(5) TO C(5,-3) 
VIBR .0, 0.00200 = C(5) TO N(1) 
VIBR .0, 0.00500 = N(1) TO C(5,-3) 
VIBR .0, 0.00500 = C(4,2,1,1) TO C(4,4,1,0,1) 
VIBR .0, 0.00500 = C(4,3,1,1,1) TO C(4,4,1,0,1) 
VIBR .0, 0.00500 = C(4,3,1,1,1) TO C(4,2,1,1) 
VIBR .0, 0.00500 = C(4) TO C(4,4,1,0,1) 
VIBR .0, 0.00500 = C(4) TO C(4,2,1,1) 
VIBR .0, 0.00500 = C(4) TO C(4,3,1,1,1) 
VIBR .0, 0.00500 = C(5) TO C(4,4,1,0,1) 
VIBR .0, 0.00500 = C(5) TO C(4,2,1,1) 
VIBR .0, 0.00500 = C(5) TO C(4,3,1,1,1) 
VIBR .0, 0.00500 = C(5) TO C(4) 
VIBR .0, 0.00500 = C(5,2,1,1) TO C(4,4,1,0,1) 
VIBR .0, 0.00500 = C(5,2,1,1) TO C(4,2,1,1) 
VIBR .0, 0.00500 = C(5,2,1,1) TO C(4,3,1,1,1) 
VIBR .0, 0.00500 = C(5,2,1,1) TO C(4) 
VIBR .0, 0.00500 = C(5,2,1,1) TO C(5) 
VIBR .0, 0.00500 = C(5,3,1,1,1) TO C(4,4,1,0,1) 
VIBR .0, 0.00500 = C(5,3,1,1,1) TO C(4,2,1,1) 
VIBR .0, 0.00500 = C(5,3,1,1,1) TO C(4,3,1,1,1) 
VIBR .0, 0.00500 = C(5,3,1,1,1) TO C(4) 
VIBR .0, 0.00500 = C(5,3,1,1,1) TO C(5) 
VIBR .0, 0.00500 = C(5,3,1,1,1) TO C(5,2,1,1) 
VIBR .0, 0.00500 = C(5,4,1,0,1) TO C(4,4,1,0,1) 
VIBR .0, 0.00500 = C(5,4,1,0,1) TO C(4,2,1,1) 
VIBR .0, 0.00500 = C(5,4,1,0,1) TO C(4,3,1,1,1) 
VIBR .0, 0.00500 = C(5,4,1,0,1) TO C(4) 
VIBR .0, 0.00500 = C(5,4,1,0,1) TO C(5) 
VIBR .0, 0.00500 = C(5,4,1,0,1) TO C(5,2,1,1) 
VIBR .0, 0.00500 = C(5,4,1,0,1) TO C(5,3,1,1,1) 
REM   DELU   END (DO NOT REMOVE THIS LINE) 
REM   THERMSIM   START (DO NOT REMOVE THIS LINE) 
U(IJ) .0, 0.04000 = C(1) TO O(1,-3,1,0,0,1) 
U(IJ) .0, 0.04000 = C(1) TO C(2) 
U(IJ) .0, 0.04000 = C(1) TO O(1) 
U(IJ) .0, 0.04000 = C(2) TO C(3,-3,1,0,0,1) 
U(IJ) .0, 0.04000 = C(2) TO C(3) 
U(IJ) .0, 0.04000 = C(3) TO C(3,3,1,0,1) 
U(IJ) .0, 0.04000 = C(4) TO C(4,-3) 
U(IJ) .0, 0.04000 = C(4) TO N(1) 
U(IJ) .0, 0.04000 = C(5) TO C(5,-3) 
U(IJ) .0, 0.04000 = C(5) TO N(1) 
REM   THERMSIM   END (DO NOT REMOVE THIS LINE) 
END                                                                             
;
_cod_data_source_file            d1sc03108b2.cif
_cod_data_source_block           1_EtOH_031GPa
_cod_depositor_comments
;
The following automatic conversions were performed:

data item '_exptl_crystal_density_meas' value 'not measured' was
changed to '?' -- the value is perceived as not measured.

Automatic conversion script
Id: cif_fix_values 7556 2019-12-06 15:28:31Z antanas 
;
_cod_original_cell_volume        1172.2(4)
_cod_original_sg_symbol_H-M      'P 4/m m m '
_cod_original_formula_sum        'C37.6 H72.8 O15.8 N2 Zn2'
_cod_database_code               1564772
_platon_squeeze_void_probe_radius 1.20
_oxford_refine_reflns_threshold_expression_ref I>-10.0\s(I)
_iucr_refine_reflections_details
; 
 
# Data was input as F-squared 
# punching LIST  6 as LIST  6 with all keys set 
# NBGNXT=    36 
#LIST   6 
READ NCOEF= 8 TYPE=FIX, F'S = FSQ UNIT=DATA, CHECK=NO L30=NO ARCH=NO 
STORE  NCOEF= 6 
OUTPUT INDICES     /FO/        SIGMA(/FO/) RATIO/JCODE CORRECTIONS SERIAL 
CONT 
INPUT  H           K           L           /FO/        SIGMA(/FO/) JCODE 
CONT   CORRECTIONS SERIAL 
FOR (I4,I4,I4,F10.2,F8.2,F4.0,F7.4,F7.0) 
END 
   3   1   0      0.72    0.21  0. 1.0000     0. 
   3   1   0      0.75    0.17  0. 1.0000     0. 
  -3  -1   0      0.60    0.20  0. 1.0000     0. 
  -3  -1   0      0.38    0.27  0. 1.0000     0. 
   3   0   0   1000.00   38.64  0. 1.0000     0. 
  -3   0   0    974.06   38.65  0. 1.0000     0. 
   3   0   0    953.80   38.64  0. 1.0000     0. 
  -3   0   0    993.92   38.63  0. 1.0000     0. 
   3   0   0    968.52   38.62  0. 1.0000     0. 
  -3   0   0    974.17   38.65  0. 1.0000     0. 
  -4  -2   0     -0.62    0.26  0. 1.0000     0. 
  -4  -1   0     83.69    3.39  0. 1.0000     0. 
   4   1   0     81.68    3.33  0. 1.0000     0. 
   4   1   0     77.80    3.33  0. 1.0000     0. 
  -4  -1   0     83.76    3.34  0. 1.0000     0. 
   4   0   0    402.80   15.37  0. 1.0000     0. 
  -4   0   0    390.53   15.41  0. 1.0000     0. 
  -4   0   0    382.89   15.37  0. 1.0000     0. 
   4   0   0    377.32   15.39  0. 1.0000     0. 
  -4   0   0    395.32   15.37  0. 1.0000     0. 
   4   0   0    385.54   15.35  0. 1.0000     0. 
   4   0   0    376.48   15.37  0. 1.0000     0. 
  -4   1   0     85.06    3.42  0. 1.0000     0. 
   4  -1   0     83.99    3.39  0. 1.0000     0. 
  -4   1   0     80.26    3.45  0. 1.0000     0. 
   4  -1   0     85.10    3.46  0. 1.0000     0. 
   5   2   0    253.48   10.21  0. 1.0000     0. 
  -5  -2   0    257.15   10.29  0. 1.0000     0. 
   5   1   0    286.89   11.48  0. 1.0000     0. 
   5   1   0    277.35   11.49  0. 1.0000     0. 
  -5  -1   0    298.43   11.50  0. 1.0000     0. 
  -5  -1   0    289.63   11.55  0. 1.0000     0. 
   5   0   0    579.55   23.57  0. 1.0000     0. 
  -5   0   0    613.96   23.58  0. 1.0000     0. 
  -5   0   0    594.23   23.58  0. 1.0000     0. 
   5   0   0    589.96   23.57  0. 1.0000     0. 
  -5   0   0    569.52   23.61  0. 1.0000     0. 
   5   0   0    587.79   23.61  0. 1.0000     0. 
   5   0   0    627.42   23.56  0. 1.0000     0. 
  -5   1   0    285.80   11.46  0. 1.0000     0. 
  -5   1   0    296.11   11.51  0. 1.0000     0. 
   5  -1   0    294.60   11.43  0. 1.0000     0. 
   5  -1   0    272.01   11.50  0. 1.0000     0. 
  -5   2   0    258.50   10.36  0. 1.0000     0. 
  -6  -2   0     59.24    2.64  0. 1.0000     0. 
   6   2   0     56.26    2.50  0. 1.0000     0. 
   6   1   0     90.42    3.65  0. 1.0000     0. 
  -6  -1   0     89.88    3.73  0. 1.0000     0. 
  -6  -1   0     84.56    3.66  0. 1.0000     0. 
   6   1   0     84.31    3.70  0. 1.0000     0. 
   6   1   0     86.67    3.64  0. 1.0000     0. 
  -6  -1   0     90.36    3.66  0. 1.0000     0. 
  -6   0   0    317.42   12.71  0. 1.0000     0. 
  -6   0   0    326.10   12.72  0. 1.0000     0. 
  -6   0   0    316.34   12.70  0. 1.0000     0. 
   6   0   0    320.98   12.70  0. 1.0000     0. 
   6   0   0    326.47   12.69  0. 1.0000     0. 
   6   0   0    317.27   12.76  0. 1.0000     0. 
   6   0   0    305.61   12.70  0. 1.0000     0. 
  -6   0   0    317.27   12.77  0. 1.0000     0. 
   6  -1   0     90.15    3.70  0. 1.0000     0. 
  -6   1   0     89.69    3.81  0. 1.0000     0. 
  -6   1   0     92.11    3.75  0. 1.0000     0. 
   6  -1   0     86.67    3.81  0. 1.0000     0. 
  -6   2   0     57.41    2.61  0. 1.0000     0. 
   6  -2   0     61.19    2.56  0. 1.0000     0. 
  -7  -3   0     -1.41    0.75  0. 1.0000     0. 
  -7  -2   0     48.22    2.41  0. 1.0000     0. 
   7   1   0     71.34    3.05  0. 1.0000     0. 
   7   1   0     71.53    3.14  0. 1.0000     0. 
  -7  -1   0     73.15    3.07  0. 1.0000     0. 
  -7  -1   0     68.52    3.15  0. 1.0000     0. 
  -7   0   0    232.34    9.09  0. 1.0000     0. 
  -7   0   0    212.23    9.12  0. 1.0000     0. 
   7   0   0    234.09    9.07  0. 1.0000     0. 
   7   0   0    221.67    9.13  0. 1.0000     0. 
  -7   1   0     75.64    3.24  0. 1.0000     0. 
   7  -1   0     75.40    3.34  0. 1.0000     0. 
  -7   1   0     68.42    3.28  0. 1.0000     0. 
   7  -1   0     80.78    3.22  0. 1.0000     0. 
  -7   3   0     52.85    2.51  0. 1.0000     0. 
  -8  -3   0     18.71    1.78  0. 1.0000     0. 
  -8  -2   0     22.94    1.71  0. 1.0000     0. 
   8   1   0     36.27    1.89  0. 1.0000     0. 
  -1   0  -1    128.23    5.07  0. 1.0000     0. 
   1   0  -1    129.20    5.08  0. 1.0000     0. 
   1   0   1    122.69    5.06  0. 1.0000     0. 
   1  -1  -1      1.13    0.16  0. 1.0000     0. 
  -1  -1  -1      1.17    0.15  0. 1.0000     0. 
  -1  -1  -1      1.14    0.17  0. 1.0000     0. 
   1   1  -1      0.92    0.12  0. 1.0000     0. 
  -1   1  -1      1.16    0.16  0. 1.0000     0. 
   1  -1   1      1.34    0.17  0. 1.0000     0. 
  -1   1   1      1.19    0.17  0. 1.0000     0. 
   1   1   1      1.02    0.12  0. 1.0000     0. 
  -2  -1  -1     10.48    0.58  0. 1.0000     0. 
   2   1  -1      9.62    0.53  0. 1.0000     0. 
   2   1  -1     10.39    0.55  0. 1.0000     0. 
  -2  -1  -1     10.87    0.53  0. 1.0000     0. 
  -2  -1   1     10.98    0.55  0. 1.0000     0. 
   2   1   1      9.71    0.52  0. 1.0000     0. 
  -2   0  -1     86.86    3.61  0. 1.0000     0. 
   2   0  -1     86.38    3.58  0. 1.0000     0. 
  -2   0  -1     93.85    3.59  0. 1.0000     0. 
   2   0  -1     92.71    3.60  0. 1.0000     0. 
   2   0   1     89.42    3.60  0. 1.0000     0. 
  -2   0   1     84.61    3.60  0. 1.0000     0. 
  -2   1  -1      9.89    0.57  0. 1.0000     0. 
   2  -1  -1     10.26    0.55  0. 1.0000     0. 
   2  -1  -1     10.47    0.52  0. 1.0000     0. 
  -2   1  -1     10.40    0.54  0. 1.0000     0. 
   2  -1   1      9.42    0.56  0. 1.0000     0. 
  -2   1   1      9.79    0.54  0. 1.0000     0. 
  -3  -1  -1      0.88    0.25  0. 1.0000     0. 
  -3  -1  -1      0.73    0.35  0. 1.0000     0. 
   3   1  -1      0.75    0.24  0. 1.0000     0. 
   3   1  -1      1.12    0.28  0. 1.0000     0. 
  -3  -1   1      1.19    0.27  0. 1.0000     0. 
   3   1   1      1.10    0.24  0. 1.0000     0. 
  -3   0  -1    220.26    8.59  0. 1.0000     0. 
   3   0  -1    216.28    8.60  0. 1.0000     0. 
   3   0  -1    214.09    8.58  0. 1.0000     0. 
  -3   0  -1    214.99    8.62  0. 1.0000     0. 
   3   0   1    211.37    8.61  0. 1.0000     0. 
  -3   0   1    213.65    8.60  0. 1.0000     0. 
   3  -1  -1      0.69    0.23  0. 1.0000     0. 
  -3   1  -1      0.94    0.34  0. 1.0000     0. 
  -3   1  -1      0.79    0.27  0. 1.0000     0. 
   3  -1  -1      0.78    0.29  0. 1.0000     0. 
   3  -1   1      0.45    0.31  0. 1.0000     0. 
  -3   1   1      0.95    0.24  0. 1.0000     0. 
  -3   2  -1      4.44    0.19  0. 1.0000     0. 
  -4  -1  -1     21.29    1.13  0. 1.0000     0. 
   4   1  -1     19.78    1.04  0. 1.0000     0. 
  -4  -1  -1     21.11    1.04  0. 1.0000     0. 
   4   1  -1     22.10    1.03  0. 1.0000     0. 
   4   1   1     21.07    1.03  0. 1.0000     0. 
  -4  -1   1     20.86    1.00  0. 1.0000     0. 
  -4  -1   1     20.73    1.04  0. 1.0000     0. 
   4   0  -1    225.13    9.16  0. 1.0000     0. 
   4   0  -1    239.14    9.20  0. 1.0000     0. 
  -4   0  -1    229.78    9.21  0. 1.0000     0. 
   4   0  -1    234.77    9.22  0. 1.0000     0. 
   4   0  -1    232.07    9.14  0. 1.0000     0. 
  -4   0  -1    233.25    9.26  0. 1.0000     0. 
  -4   0   1    229.36    9.14  0. 1.0000     0. 
   4   0   1    218.99    9.19  0. 1.0000     0. 
  -4   0   1    229.19    9.17  0. 1.0000     0. 
  -4   0   1    230.38    9.23  0. 1.0000     0. 
   4   0   1    229.59    9.24  0. 1.0000     0. 
   4  -1  -1     21.34    1.04  0. 1.0000     0. 
  -4   1  -1     21.35    1.06  0. 1.0000     0. 
   4  -1  -1     21.73    1.08  0. 1.0000     0. 
  -4   1  -1     22.91    1.16  0. 1.0000     0. 
   4  -1   1     18.55    1.14  0. 1.0000     0. 
  -4   1   1     22.11    0.96  0. 1.0000     0. 
  -4   1   1     19.48    1.09  0. 1.0000     0. 
   4  -2  -1      3.30    0.15  0. 1.0000     0. 
  -5  -2  -1     71.74    3.06  0. 1.0000     0. 
  -5  -2  -1     71.74    3.16  0. 1.0000     0. 
   5   2  -1     70.78    3.04  0. 1.0000     0. 
   5   2   1     72.41    3.04  0. 1.0000     0. 
   5   1  -1    110.40    4.50  0. 1.0000     0. 
   5   1  -1    113.85    4.50  0. 1.0000     0. 
  -5  -1  -1    110.21    4.58  0. 1.0000     0. 
  -5  -1  -1    114.26    4.50  0. 1.0000     0. 
   5   1   1    106.85    4.49  0. 1.0000     0. 
  -5  -1   1    100.72    4.46  0. 1.0000     0. 
  -5  -1   1    109.62    4.50  0. 1.0000     0. 
  -5   0  -1    293.91   12.11  0. 1.0000     0. 
   5   0  -1    318.30   12.06  0. 1.0000     0. 
   5   0  -1    310.07   12.08  0. 1.0000     0. 
   5   0  -1    300.09   12.02  0. 1.0000     0. 
   5   0  -1    286.85   11.98  0. 1.0000     0. 
  -5   0  -1    311.01   12.07  0. 1.0000     0. 
   5   0   1    286.01   12.09  0. 1.0000     0. 
  -5   0   1    301.95   12.08  0. 1.0000     0. 
   5   0   1    291.28   12.05  0. 1.0000     0. 
  -5   0   1    313.96   12.00  0. 1.0000     0. 
  -5   0   1    305.66   12.02  0. 1.0000     0. 
  -5   1  -1    104.23    4.52  0. 1.0000     0. 
  -5   1  -1    108.71    4.59  0. 1.0000     0. 
   5  -1  -1    114.19    4.51  0. 1.0000     0. 
   5  -1  -1    110.21    4.54  0. 1.0000     0. 
  -5   1   1    104.50    4.53  0. 1.0000     0. 
  -5   1   1    116.57    4.44  0. 1.0000     0. 
   5  -1   1    109.72    4.59  0. 1.0000     0. 
   5  -2  -1     77.98    3.31  0. 1.0000     0. 
  -5   2  -1     78.57    3.41  0. 1.0000     0. 
  -5   2  -1     78.52    3.35  0. 1.0000     0. 
  -5   2   1     79.76    3.27  0. 1.0000     0. 
  -6  -2  -1      7.05    0.91  0. 1.0000     0. 
   6   2  -1      6.50    0.89  0. 1.0000     0. 
  -6  -2  -1      7.07    0.94  0. 1.0000     0. 
  -6  -2   1      7.63    0.85  0. 1.0000     0. 
   6   2   1      5.84    0.62  0. 1.0000     0. 
   6   1  -1     14.05    0.90  0. 1.0000     0. 
   6   1  -1     13.08    1.01  0. 1.0000     0. 
  -6  -1  -1     13.60    0.97  0. 1.0000     0. 
   6   1  -1     13.55    0.96  0. 1.0000     0. 
  -6  -1  -1     13.24    1.13  0. 1.0000     0. 
   6   1   1     13.60    1.11  0. 1.0000     0. 
   6   1   1     12.02    0.95  0. 1.0000     0. 
  -6  -1   1     12.01    0.94  0. 1.0000     0. 
  -6  -1   1     12.81    1.00  0. 1.0000     0. 
  -6  -1   1     12.68    0.93  0. 1.0000     0. 
   6   0  -1    122.17    4.95  0. 1.0000     0. 
  -6   0  -1    123.53    5.06  0. 1.0000     0. 
  -6   0  -1    118.95    5.10  0. 1.0000     0. 
   6   0   1    120.76    5.10  0. 1.0000     0. 
   6   0   1    126.14    5.03  0. 1.0000     0. 
  -6   1  -1     12.75    1.14  0. 1.0000     0. 
   6  -1  -1     12.29    1.00  0. 1.0000     0. 
   6  -1  -1     12.92    0.95  0. 1.0000     0. 
  -6   1  -1     12.06    1.01  0. 1.0000     0. 
  -6   1   1     13.50    0.86  0. 1.0000     0. 
   6  -1   1     11.95    1.20  0. 1.0000     0. 
  -6   1   1     13.42    0.81  0. 1.0000     0. 
  -6   1   1     12.05    1.00  0. 1.0000     0. 
  -6   2  -1      6.73    0.76  0. 1.0000     0. 
   6  -2  -1      6.92    0.84  0. 1.0000     0. 
  -6   2  -1      6.88    0.85  0. 1.0000     0. 
   6  -2  -1      5.89    0.28  0. 1.0000     0. 
  -6   2   1      7.68    0.79  0. 1.0000     0. 
   6  -2   1      6.96    0.84  0. 1.0000     0. 
   6  -2   1      7.38    0.63  0. 1.0000     0. 
   7   3  -1      2.70    0.77  0. 1.0000     0. 
  -7  -3  -1      2.54    0.98  0. 1.0000     0. 
   7   2  -1      1.95    0.74  0. 1.0000     0. 
  -7  -2  -1      2.81    0.73  0. 1.0000     0. 
  -7  -2  -1      2.61    1.01  0. 1.0000     0. 
   7   2   1      2.34    0.57  0. 1.0000     0. 
   7   1  -1      6.27    0.69  0. 1.0000     0. 
  -7  -1  -1      5.75    0.96  0. 1.0000     0. 
   7   1  -1      7.29    0.84  0. 1.0000     0. 
  -7  -1  -1      5.68    0.75  0. 1.0000     0. 
   7   1   1      6.53    0.91  0. 1.0000     0. 
   7   1   1      5.43    0.69  0. 1.0000     0. 
  -7  -1   1      5.13    0.70  0. 1.0000     0. 
  -7  -1   1      6.22    0.88  0. 1.0000     0. 
  -7   0  -1     53.76    2.65  0. 1.0000     0. 
   7   0  -1     52.05    2.53  0. 1.0000     0. 
   7   0  -1     57.11    2.51  0. 1.0000     0. 
  -7   0  -1     58.54    2.58  0. 1.0000     0. 
   7   0   1     59.08    2.54  0. 1.0000     0. 
  -7   0   1     56.12    2.59  0. 1.0000     0. 
   7   0   1     52.72    2.63  0. 1.0000     0. 
  -7   1  -1      6.97    0.83  0. 1.0000     0. 
   7  -1  -1      7.26    0.95  0. 1.0000     0. 
   7  -1  -1      6.41    0.82  0. 1.0000     0. 
  -7   1  -1      7.63    1.03  0. 1.0000     0. 
   7  -1   1      6.83    1.01  0. 1.0000     0. 
   7  -1   1      5.12    0.71  0. 1.0000     0. 
  -7   1   1      6.03    0.92  0. 1.0000     0. 
  -7   2  -1      2.98    0.78  0. 1.0000     0. 
   7  -2  -1      1.96    0.68  0. 1.0000     0. 
  -7   2  -1      2.10    0.80  0. 1.0000     0. 
  -7   3  -1      3.36    0.88  0. 1.0000     0. 
   7  -3  -1      1.22    0.67  0. 1.0000     0. 
  -8  -3  -1      2.01    1.27  0. 1.0000     0. 
  -8  -2  -1      0.56    1.06  0. 1.0000     0. 
  -8  -2  -1     -0.39    0.70  0. 1.0000     0. 
   8   2   1     -0.20    0.54  0. 1.0000     0. 
   8   2   1      0.84    0.97  0. 1.0000     0. 
  -8  -1  -1      2.66    1.04  0. 1.0000     0. 
  -8  -1  -1      0.38    0.74  0. 1.0000     0. 
   8   1   1      1.45    0.97  0. 1.0000     0. 
   8   1   1      2.49    0.69  0. 1.0000     0. 
  -8   0  -1     18.06    1.45  0. 1.0000     0. 
  -8   0  -1     16.57    1.51  0. 1.0000     0. 
   8   0   1     17.96    1.36  0. 1.0000     0. 
   8   0   1     16.92    1.55  0. 1.0000     0. 
  -8   1  -1      2.15    0.89  0. 1.0000     0. 
  -8   1  -1      1.98    0.96  0. 1.0000     0. 
   8  -1   1      2.73    0.78  0. 1.0000     0. 
   8  -1   1      1.10    1.02  0. 1.0000     0. 
  -8   2  -1      0.30    0.85  0. 1.0000     0. 
  -8   2  -1      0.86    0.95  0. 1.0000     0. 
  -8   3  -1     -0.69    0.91  0. 1.0000     0. 
  -9  -3  -1      6.17    1.46  0. 1.0000     0. 
  -9  -2  -1      3.84    1.25  0. 1.0000     0. 
   9   2   1      2.78    1.15  0. 1.0000     0. 
  -9  -1  -1      4.89    1.31  0. 1.0000     0. 
  -9  -1  -1      3.47    0.99  0. 1.0000     0. 
   9   1   1      3.58    0.87  0. 1.0000     0. 
   0   0  -2    131.15    5.00  0. 1.0000     0. 
   0   0  -2    114.28    4.97  0. 1.0000     0. 
   0   0  -2    124.57    5.00  0. 1.0000     0. 
   0   0  -2    132.48    4.99  0. 1.0000     0. 
   0   0   2    121.32    5.01  0. 1.0000     0. 
   0   0   2    123.79    4.99  0. 1.0000     0. 
   1   0  -2     29.44    1.33  0. 1.0000     0. 
   0  -1  -2     30.57    1.28  0. 1.0000     0. 
   0  -1  -2     30.73    1.29  0. 1.0000     0. 
   0  -1  -2     26.41    1.31  0. 1.0000     0. 
  -1   0  -2     34.94    1.36  0. 1.0000     0. 
   0   1  -2     31.15    1.32  0. 1.0000     0. 
  -1   0  -2     32.43    1.31  0. 1.0000     0. 
   0   1  -2     30.68    1.31  0. 1.0000     0. 
   1   0  -2     28.52    1.31  0. 1.0000     0. 
   0   1  -2     28.58    1.30  0. 1.0000     0. 
   0  -1  -2     29.24    1.31  0. 1.0000     0. 
  -1   0  -2     35.14    1.32  0. 1.0000     0. 
   1   0   2     34.29    1.33  0. 1.0000     0. 
   0   1   2     29.43    1.32  0. 1.0000     0. 
  -1   0   2     28.07    1.34  0. 1.0000     0. 
   0  -1   2     29.25    1.31  0. 1.0000     0. 
   0   1   2     30.70    1.28  0. 1.0000     0. 
   0  -1   2     28.35    1.31  0. 1.0000     0. 
   1   1  -2     95.28    3.96  0. 1.0000     0. 
  -1   1  -2    103.94    3.95  0. 1.0000     0. 
   1  -1  -2    102.79    3.95  0. 1.0000     0. 
   1  -1  -2    101.43    3.98  0. 1.0000     0. 
  -1  -1  -2    100.57    3.98  0. 1.0000     0. 
   1   1  -2     95.22    3.95  0. 1.0000     0. 
  -1  -1  -2     82.84    3.94  0. 1.0000     0. 
  -1   1  -2     82.29    3.96  0. 1.0000     0. 
  -1  -1  -2    106.79    3.94  0. 1.0000     0. 
   1   1   2     96.70    3.94  0. 1.0000     0. 
   1  -1   2     96.54    3.98  0. 1.0000     0. 
  -1  -1   2     99.15    3.97  0. 1.0000     0. 
   1   1   2    101.33    3.94  0. 1.0000     0. 
  -1   1   2    100.47    3.98  0. 1.0000     0. 
  -2  -1  -2     38.69    1.74  0. 1.0000     0. 
   2   1  -2     38.38    1.72  0. 1.0000     0. 
   2   1  -2     40.45    1.70  0. 1.0000     0. 
  -2  -1  -2     40.72    1.69  0. 1.0000     0. 
  -2  -1   2     39.19    1.71  0. 1.0000     0. 
   2   1   2     38.71    1.69  0. 1.0000     0. 
   2   0  -2     14.91    0.79  0. 1.0000     0. 
  -2   0  -2     15.67    0.76  0. 1.0000     0. 
  -2   0  -2     14.94    0.80  0. 1.0000     0. 
   2   0  -2     16.18    0.77  0. 1.0000     0. 
   2   0   2     14.70    0.80  0. 1.0000     0. 
  -2   0   2     14.93    0.81  0. 1.0000     0. 
   2  -1  -2     37.00    1.69  0. 1.0000     0. 
   2  -1  -2     37.80    1.66  0. 1.0000     0. 
  -2   1  -2     39.31    1.67  0. 1.0000     0. 
  -2   1  -2     38.55    1.71  0. 1.0000     0. 
   2  -1   2     39.78    1.71  0. 1.0000     0. 
  -2   1   2     39.47    1.72  0. 1.0000     0. 
   3   2  -2     44.98    1.89  0. 1.0000     0. 
  -3  -2  -2     40.17    1.90  0. 1.0000     0. 
  -3  -2  -2     41.80    1.83  0. 1.0000     0. 
   3   2   2     37.56    1.80  0. 1.0000     0. 
   3   1  -2     20.55    1.04  0. 1.0000     0. 
   3   1  -2     21.85    1.02  0. 1.0000     0. 
  -3  -1  -2     19.47    1.07  0. 1.0000     0. 
  -3  -1  -2     19.63    1.00  0. 1.0000     0. 
  -3  -1   2     19.47    1.02  0. 1.0000     0. 
   3   1   2     19.60    1.00  0. 1.0000     0. 
  -3   0  -2      8.99    0.72  0. 1.0000     0. 
   3   0  -2     10.86    0.71  0. 1.0000     0. 
   3   0  -2      9.85    0.66  0. 1.0000     0. 
  -3   0  -2     10.20    0.65  0. 1.0000     0. 
  -3   0   2     10.54    0.72  0. 1.0000     0. 
   3   0   2     10.01    0.70  0. 1.0000     0. 
  -3   1  -2     19.48    1.01  0. 1.0000     0. 
  -3   1  -2     21.66    1.10  0. 1.0000     0. 
   3  -1  -2     19.15    0.99  0. 1.0000     0. 
   3  -1  -2     20.56    1.06  0. 1.0000     0. 
   3  -1   2     19.15    1.07  0. 1.0000     0. 
  -3   1   2     20.00    1.07  0. 1.0000     0. 
   3  -2  -2     44.01    1.93  0. 1.0000     0. 
   3  -2  -2     39.20    1.82  0. 1.0000     0. 
  -3   2  -2     40.42    1.84  0. 1.0000     0. 
  -3   2  -2     42.14    1.89  0. 1.0000     0. 
  -3   2   2     40.06    1.90  0. 1.0000     0. 
   3  -2   2     40.45    1.90  0. 1.0000     0. 
   4   2  -2     33.42    1.60  0. 1.0000     0. 
  -4  -2  -2     36.54    1.76  0. 1.0000     0. 
   4   2  -2     34.39    1.62  0. 1.0000     0. 
  -4  -2  -2     32.59    1.60  0. 1.0000     0. 
   4   2   2     32.03    1.60  0. 1.0000     0. 
   4   1  -2     31.37    1.44  0. 1.0000     0. 
  -4  -1  -2     30.14    1.46  0. 1.0000     0. 
   4   1  -2     29.56    1.49  0. 1.0000     0. 
  -4  -1  -2     32.29    1.56  0. 1.0000     0. 
   4   1   2     28.10    1.43  0. 1.0000     0. 
  -4  -1   2     29.30    1.45  0. 1.0000     0. 
   4   0  -2      4.19    0.58  0. 1.0000     0. 
  -4   0  -2      4.72    0.65  0. 1.0000     0. 
   4   0  -2      3.45    0.48  0. 1.0000     0. 
  -4   0  -2      4.10    0.51  0. 1.0000     0. 
   4   0   2      4.07    0.59  0. 1.0000     0. 
   4   0   2      3.85    0.45  0. 1.0000     0. 
  -4   0   2      3.14    0.48  0. 1.0000     0. 
   4  -1  -2     33.56    1.55  0. 1.0000     0. 
   4  -1  -2     30.35    1.48  0. 1.0000     0. 
  -4   1  -2     30.96    1.57  0. 1.0000     0. 
  -4   1  -2     30.46    1.49  0. 1.0000     0. 
  -4   1   2     30.30    1.56  0. 1.0000     0. 
   4  -1   2     29.91    1.58  0. 1.0000     0. 
   4  -2  -2     33.47    1.68  0. 1.0000     0. 
  -4   2  -2     33.01    1.67  0. 1.0000     0. 
  -4   2  -2     31.30    1.60  0. 1.0000     0. 
   4  -2   2     32.86    1.70  0. 1.0000     0. 
  -4   2   2     35.69    1.68  0. 1.0000     0. 
  -5  -2  -2     23.07    1.25  0. 1.0000     0. 
   5   2  -2     17.99    1.19  0. 1.0000     0. 
  -5  -2  -2     20.60    1.38  0. 1.0000     0. 
   5   2  -2     20.80    1.27  0. 1.0000     0. 
   5   2   2     21.21    1.24  0. 1.0000     0. 
   5   1  -2      9.21    0.82  0. 1.0000     0. 
  -5  -1  -2      8.82    0.90  0. 1.0000     0. 
   5   1  -2      7.96    0.88  0. 1.0000     0. 
  -5  -1  -2      8.67    0.97  0. 1.0000     0. 
   5   1   2      7.71    0.83  0. 1.0000     0. 
  -5  -1   2      9.33    0.82  0. 1.0000     0. 
   5   0  -2      0.39    0.61  0. 1.0000     0. 
  -5   0  -2      1.09    0.67  0. 1.0000     0. 
  -5   0  -2      0.58    0.55  0. 1.0000     0. 
   5   0  -2      1.44    0.52  0. 1.0000     0. 
   5   0   2     -0.02    0.61  0. 1.0000     0. 
   5   0   2      1.59    0.48  0. 1.0000     0. 
  -5   0   2      1.01    0.52  0. 1.0000     0. 
  -5   1  -2      9.18    0.93  0. 1.0000     0. 
  -5   1  -2     10.16    1.06  0. 1.0000     0. 
   5  -1  -2      8.79    0.93  0. 1.0000     0. 
   5  -1  -2      9.48    0.84  0. 1.0000     0. 
   5  -1   2      7.10    1.03  0. 1.0000     0. 
  -5   1   2      8.44    0.99  0. 1.0000     0. 
  -5   2  -2     20.38    1.35  0. 1.0000     0. 
   5  -2  -2     21.50    1.29  0. 1.0000     0. 
  -5   2  -2     19.35    1.27  0. 1.0000     0. 
   5  -2  -2     20.05    1.20  0. 1.0000     0. 
  -5   2   2     19.45    1.29  0. 1.0000     0. 
   5  -2   2     20.44    1.41  0. 1.0000     0. 
  -5   3  -2     -0.04    0.09  0. 1.0000     0. 
  -6  -3  -2      0.55    0.87  0. 1.0000     0. 
  -6  -2  -2     23.53    1.47  0. 1.0000     0. 
  -6  -2  -2     26.08    1.74  0. 1.0000     0. 
   6   2  -2     27.28    1.47  0. 1.0000     0. 
   6   2  -2     24.18    1.49  0. 1.0000     0. 
   6   2   2     27.19    1.49  0. 1.0000     0. 
   6   1  -2     17.12    1.27  0. 1.0000     0. 
  -6  -1  -2     18.30    1.25  0. 1.0000     0. 
   6   1  -2     18.76    1.18  0. 1.0000     0. 
  -6  -1  -2     17.65    1.39  0. 1.0000     0. 
  -6  -1   2     17.53    1.19  0. 1.0000     0. 
  -6  -1   2     17.81    1.28  0. 1.0000     0. 
   6   1   2     19.55    1.36  0. 1.0000     0. 
   6   1   2     18.03    1.25  0. 1.0000     0. 
   6   0  -2      1.76    0.72  0. 1.0000     0. 
  -6   0  -2      2.16    0.66  0. 1.0000     0. 
  -6   0  -2      1.41    0.79  0. 1.0000     0. 
   6   0  -2      1.75    0.64  0. 1.0000     0. 
  -6   0   2      1.11    0.58  0. 1.0000     0. 
   6   0   2      2.86    0.81  0. 1.0000     0. 
   6   0   2      2.10    0.61  0. 1.0000     0. 
  -6   1  -2     17.27    1.28  0. 1.0000     0. 
  -6   1  -2     18.01    1.42  0. 1.0000     0. 
   6  -1  -2     17.99    1.29  0. 1.0000     0. 
   6  -1  -2     18.39    1.22  0. 1.0000     0. 
   6  -1   2     19.48    1.46  0. 1.0000     0. 
  -6   1   2     18.51    1.31  0. 1.0000     0. 
   6  -2  -2     24.37    1.45  0. 1.0000     0. 
  -6   2  -2     25.04    1.60  0. 1.0000     0. 
  -6   2  -2     26.91    1.54  0. 1.0000     0. 
   6  -2  -2     26.61    1.56  0. 1.0000     0. 
  -6   2   2     25.03    1.55  0. 1.0000     0. 
   6  -2   2     24.96    1.68  0. 1.0000     0. 
  -6   3  -2      8.40    0.94  0. 1.0000     0. 
   6  -3  -2      5.26    0.77  0. 1.0000     0. 
   7   3  -2     12.79    1.31  0. 1.0000     0. 
  -7  -2  -2     19.64    1.40  0. 1.0000     0. 
   7   2  -2     17.95    1.36  0. 1.0000     0. 
  -7  -2  -2     17.16    1.65  0. 1.0000     0. 
   7   2   2     18.26    1.38  0. 1.0000     0. 
  -7  -1  -2     16.59    1.32  0. 1.0000     0. 
  -7  -1  -2     16.35    1.55  0. 1.0000     0. 
   7   1  -2     17.36    1.28  0. 1.0000     0. 
   7   1  -2     15.86    1.35  0. 1.0000     0. 
   7   1   2     16.10    1.29  0. 1.0000     0. 
  -7  -1   2     16.51    1.40  0. 1.0000     0. 
  -7  -1   2     17.78    1.31  0. 1.0000     0. 
   7   1   2     16.52    1.48  0. 1.0000     0. 
  -7   0  -2      6.36    1.06  0. 1.0000     0. 
  -7   0  -2      5.91    0.87  0. 1.0000     0. 
   7   0  -2      5.38    0.78  0. 1.0000     0. 
   7   0  -2      6.04    0.93  0. 1.0000     0. 
   7   0   2      6.39    0.79  0. 1.0000     0. 
   7   0   2      6.18    1.04  0. 1.0000     0. 
  -7   0   2      5.32    0.82  0. 1.0000     0. 
  -7   1  -2     16.20    1.52  0. 1.0000     0. 
   7  -1  -2     16.86    1.30  0. 1.0000     0. 
  -7   1  -2     16.79    1.37  0. 1.0000     0. 
   7  -1  -2     16.52    1.33  0. 1.0000     0. 
   7  -1   2     16.15    1.58  0. 1.0000     0. 
  -7   1   2     16.38    1.41  0. 1.0000     0. 
   7  -2  -2     14.35    1.41  0. 1.0000     0. 
  -7   2  -2     19.70    1.53  0. 1.0000     0. 
  -7   2  -2     20.39    1.50  0. 1.0000     0. 
   7  -2  -2     17.62    1.37  0. 1.0000     0. 
  -7   2   2     17.23    1.32  0. 1.0000     0. 
   7  -2   2     18.90    1.61  0. 1.0000     0. 
   7  -3  -2     10.18    1.23  0. 1.0000     0. 
  -7   3  -2     12.64    1.43  0. 1.0000     0. 
  -8  -3  -2      3.23    1.40  0. 1.0000     0. 
   8   3  -2      2.38    1.08  0. 1.0000     0. 
  -8  -2  -2      3.54    0.91  0. 1.0000     0. 
  -8  -2  -2      3.90    1.29  0. 1.0000     0. 
   8   2  -2      2.59    1.07  0. 1.0000     0. 
   8   2   2      3.69    1.14  0. 1.0000     0. 
   8   2   2      3.69    0.80  0. 1.0000     0. 
  -8  -2   2      3.74    0.90  0. 1.0000     0. 
   8   1  -2      1.58    0.99  0. 1.0000     0. 
  -8  -1  -2      2.10    0.86  0. 1.0000     0. 
  -8  -1  -2      2.99    1.21  0. 1.0000     0. 
   8   1  -2      2.89    0.81  0. 1.0000     0. 
   8   1   2      2.59    0.80  0. 1.0000     0. 
  -8  -1   2      3.66    0.89  0. 1.0000     0. 
   8   1   2      2.84    1.12  0. 1.0000     0. 
  -8  -1   2      2.52    0.86  0. 1.0000     0. 
   8   0  -2     -0.15    0.78  0. 1.0000     0. 
  -8   0  -2      1.19    1.08  0. 1.0000     0. 
   8   0  -2      1.28    0.94  0. 1.0000     0. 
  -8   0  -2     -0.05    0.87  0. 1.0000     0. 
  -8   0   2      0.29    0.87  0. 1.0000     0. 
   8   0   2     -0.08    0.75  0. 1.0000     0. 
  -8   0   2      0.02    0.76  0. 1.0000     0. 
   8   0   2      0.12    1.07  0. 1.0000     0. 
  -8   1  -2     -0.05    0.93  0. 1.0000     0. 
   8  -1  -2      3.07    0.88  0. 1.0000     0. 
  -8   1  -2      2.21    1.15  0. 1.0000     0. 
   8  -1  -2      1.28    0.98  0. 1.0000     0. 
  -8   1   2      1.44    0.75  0. 1.0000     0. 
   8  -1   2      2.02    0.84  0. 1.0000     0. 
   8  -1   2      3.15    1.16  0. 1.0000     0. 
  -8   2  -2      4.23    1.09  0. 1.0000     0. 
  -8   2  -2      3.63    1.03  0. 1.0000     0. 
   8  -2  -2      2.67    0.88  0. 1.0000     0. 
   8  -2   2      3.65    1.17  0. 1.0000     0. 
   8  -3  -2      1.35    0.88  0. 1.0000     0. 
  -8   3  -2      1.88    1.04  0. 1.0000     0. 
  -9  -3  -2      4.59    1.52  0. 1.0000     0. 
  -9  -2  -2      6.86    1.48  0. 1.0000     0. 
  -9  -2  -2      7.42    1.07  0. 1.0000     0. 
   9   2   2      6.15    1.34  0. 1.0000     0. 
   9   2   2      6.43    0.98  0. 1.0000     0. 
  -9  -1  -2      4.75    1.35  0. 1.0000     0. 
  -9  -1  -2      6.65    1.04  0. 1.0000     0. 
   9   1   2      5.36    1.30  0. 1.0000     0. 
   9   1   2      4.53    0.98  0. 1.0000     0. 
  -9   0  -2      0.41    0.99  0. 1.0000     0. 
  -9   0  -2      1.79    1.18  0. 1.0000     0. 
   9   0   2      0.42    1.17  0. 1.0000     0. 
   9   0   2      0.58    0.88  0. 1.0000     0. 
  -9   1  -2      4.14    1.28  0. 1.0000     0. 
  -9   1  -2      5.36    1.14  0. 1.0000     0. 
   9  -1   2      5.63    1.05  0. 1.0000     0. 
   9  -1   2      5.02    1.32  0. 1.0000     0. 
  -9   2  -2      7.51    1.19  0. 1.0000     0. 
  -9   2  -2      8.24    1.28  0. 1.0000     0. 
   9  -2   2      5.47    1.37  0. 1.0000     0. 
  -9   3  -2      2.77    1.27  0. 1.0000     0. 
 -10  -3  -2      3.48    1.68  0. 1.0000     0. 
  10   3   2      5.78    1.53  0. 1.0000     0. 
 -10  -2  -2      7.12    1.27  0. 1.0000     0. 
 -10  -2  -2      6.78    1.66  0. 1.0000     0. 
  10   2   2      7.76    1.13  0. 1.0000     0. 
  10   2   2      6.81    1.64  0. 1.0000     0. 
   0   0  -3    321.04   13.31  0. 1.0000     0. 
   0   0  -3    331.49   13.36  0. 1.0000     0. 
   0   0  -3    324.01   13.34  0. 1.0000     0. 
   0   0  -3    338.20   13.35  0. 1.0000     0. 
   0   0   3    350.09   13.38  0. 1.0000     0. 
   0   0   3    347.26   13.35  0. 1.0000     0. 
  -1   0  -3    161.96    6.35  0. 1.0000     0. 
   0  -1  -3    160.10    6.37  0. 1.0000     0. 
  -1   0  -3    150.50    6.41  0. 1.0000     0. 
   0   1  -3    162.19    6.39  0. 1.0000     0. 
   1   0  -3    151.16    6.41  0. 1.0000     0. 
   0  -1  -3    155.49    6.40  0. 1.0000     0. 
   0   1  -3    162.16    6.36  0. 1.0000     0. 
   0   1  -3    146.89    6.39  0. 1.0000     0. 
   1   0  -3    151.98    6.38  0. 1.0000     0. 
   0  -1  -3    161.60    6.35  0. 1.0000     0. 
  -1   0  -3    162.71    6.37  0. 1.0000     0. 
   1   0  -3    163.05    6.33  0. 1.0000     0. 
   1   0  -3    157.23    6.35  0. 1.0000     0. 
   0  -1  -3    153.32    6.39  0. 1.0000     0. 
  -1   0  -3    160.13    6.37  0. 1.0000     0. 
  -1   0   3    168.63    6.32  0. 1.0000     0. 
   1   0   3    154.11    6.40  0. 1.0000     0. 
  -1   0   3    161.75    6.35  0. 1.0000     0. 
  -1   0   3    165.63    6.44  0. 1.0000     0. 
   0  -1   3    150.49    6.39  0. 1.0000     0. 
   0  -1   3    166.37    6.40  0. 1.0000     0. 
   1   0   3    160.05    6.38  0. 1.0000     0. 
   0   1   3    165.95    6.36  0. 1.0000     0. 
   0   1   3    150.96    6.40  0. 1.0000     0. 
   1  -1  -3     24.92    1.18  0. 1.0000     0. 
  -1  -1  -3     26.74    1.13  0. 1.0000     0. 
   1   1  -3     23.50    1.09  0. 1.0000     0. 
   1   1  -3     26.23    1.22  0. 1.0000     0. 
  -1   1  -3     22.14    1.12  0. 1.0000     0. 
  -1  -1  -3     24.98    1.15  0. 1.0000     0. 
  -1   1  -3     26.40    1.18  0. 1.0000     0. 
  -1  -1  -3     27.34    1.18  0. 1.0000     0. 
  -1   1  -3     25.91    1.23  0. 1.0000     0. 
  -1  -1  -3     24.72    1.21  0. 1.0000     0. 
  -1   1  -3     24.66    1.14  0. 1.0000     0. 
   1  -1  -3     26.77    1.10  0. 1.0000     0. 
   1  -1  -3     24.59    1.13  0. 1.0000     0. 
   1   1  -3     25.29    1.18  0. 1.0000     0. 
   1  -1  -3     24.31    1.22  0. 1.0000     0. 
   1  -1   3     25.01    1.22  0. 1.0000     0. 
  -1  -1   3     23.84    1.19  0. 1.0000     0. 
   1  -1   3     25.92    1.15  0. 1.0000     0. 
   1   1   3     24.37    1.16  0. 1.0000     0. 
   1   1   3     26.48    1.16  0. 1.0000     0. 
  -1   1   3     23.18    1.08  0. 1.0000     0. 
  -1   1   3     25.56    1.23  0. 1.0000     0. 
  -2  -1  -3    125.75    4.89  0. 1.0000     0. 
   1  -2  -3    117.32    5.01  0. 1.0000     0. 
   2   1  -3    121.50    5.00  0. 1.0000     0. 
   2   1  -3    117.78    4.97  0. 1.0000     0. 
  -2  -1  -3    135.46    4.94  0. 1.0000     0. 
  -2  -1  -3    122.08    5.03  0. 1.0000     0. 
   1  -2  -3    125.57    4.97  0. 1.0000     0. 
  -2  -1  -3    112.38    4.94  0. 1.0000     0. 
  -1   2   3    116.47    5.00  0. 1.0000     0. 
   2   1   3    124.56    4.92  0. 1.0000     0. 
  -2  -1   3    118.07    4.99  0. 1.0000     0. 
   2   1   3    123.12    4.95  0. 1.0000     0. 
   2   0  -3    198.31    8.07  0. 1.0000     0. 
   2   0  -3    191.72    8.09  0. 1.0000     0. 
  -2   0  -3    193.66    8.05  0. 1.0000     0. 
  -2   0  -3    211.83    8.00  0. 1.0000     0. 
  -2   0  -3    197.75    8.12  0. 1.0000     0. 
  -2   0  -3    207.62    8.01  0. 1.0000     0. 
  -2   0   3    200.42    8.13  0. 1.0000     0. 
   2   0   3    193.82    8.10  0. 1.0000     0. 
   2   0   3    210.89    8.02  0. 1.0000     0. 
   2  -1  -3    117.10    4.66  0. 1.0000     0. 
  -2   1  -3    110.40    4.78  0. 1.0000     0. 
  -1  -2  -3    122.76    4.81  0. 1.0000     0. 
   2  -1  -3    121.02    4.75  0. 1.0000     0. 
   2  -1  -3    116.52    4.78  0. 1.0000     0. 
   1   2  -3    102.13    4.78  0. 1.0000     0. 
  -2   1  -3    120.15    4.75  0. 1.0000     0. 
  -2   1  -3    120.32    4.68  0. 1.0000     0. 
   1   2   3    118.72    4.74  0. 1.0000     0. 
  -2   1   3    111.19    4.79  0. 1.0000     0. 
   2  -1   3    117.51    4.80  0. 1.0000     0. 
  -2  -2  -3    166.67    6.98  0. 1.0000     0. 
  -2   2  -3    160.37    6.99  0. 1.0000     0. 
   2  -2  -3    176.68    7.01  0. 1.0000     0. 
   2   2  -3    174.47    7.02  0. 1.0000     0. 
  -2   2  -3    174.04    7.05  0. 1.0000     0. 
   2  -2  -3    176.53    7.06  0. 1.0000     0. 
   2   2  -3    173.41    7.05  0. 1.0000     0. 
  -2  -2  -3    171.54    7.06  0. 1.0000     0. 
   2   2   3    174.56    6.99  0. 1.0000     0. 
   2  -2   3    175.89    7.07  0. 1.0000     0. 
  -2   2   3    174.11    7.05  0. 1.0000     0. 
  -2  -2   3    177.89    7.04  0. 1.0000     0. 
   3   2  -3     31.58    1.60  0. 1.0000     0. 
  -3  -2  -3     29.77    1.66  0. 1.0000     0. 
   3   2  -3     35.29    1.62  0. 1.0000     0. 
  -3  -2  -3     32.27    1.55  0. 1.0000     0. 
  -3  -2   3     32.48    1.60  0. 1.0000     0. 
   3   2   3     34.15    1.59  0. 1.0000     0. 
   3   1  -3     23.84    1.32  0. 1.0000     0. 
  -3  -1  -3     26.23    1.26  0. 1.0000     0. 
  -3  -1  -3     22.55    1.37  0. 1.0000     0. 
   3   1  -3     26.59    1.28  0. 1.0000     0. 
  -3  -1   3     27.38    1.32  0. 1.0000     0. 
   3   1   3     23.34    1.24  0. 1.0000     0. 
  -3   0  -3     36.77    1.79  0. 1.0000     0. 
  -3   0  -3     35.48    1.69  0. 1.0000     0. 
   3   0  -3     38.16    1.76  0. 1.0000     0. 
   3   0  -3     39.92    1.72  0. 1.0000     0. 
   3   0   3     35.52    1.67  0. 1.0000     0. 
  -3   0   3     36.71    1.77  0. 1.0000     0. 
   3   0   3     35.68    1.77  0. 1.0000     0. 
   3  -1  -3     25.09    1.28  0. 1.0000     0. 
  -3   1  -3     24.33    1.10  0. 1.0000     0. 
  -3   1  -3     23.14    1.34  0. 1.0000     0. 
   3  -1  -3     27.38    1.35  0. 1.0000     0. 
  -3   1  -3     24.51    1.26  0. 1.0000     0. 
   3  -1   3     23.79    1.36  0. 1.0000     0. 
  -3   1   3     26.59    1.38  0. 1.0000     0. 
   3  -2  -3     34.82    1.64  0. 1.0000     0. 
  -3   2  -3     33.74    1.61  0. 1.0000     0. 
  -3   2  -3     31.76    1.66  0. 1.0000     0. 
   3  -2  -3     35.14    1.71  0. 1.0000     0. 
  -3   2   3     32.79    1.67  0. 1.0000     0. 
   3  -2   3     32.19    1.70  0. 1.0000     0. 
  -3   3  -3     -0.17    0.08  0. 1.0000     0. 
   4   3   3     -0.10    0.29  0. 1.0000     0. 
  -4  -2  -3     60.27    2.72  0. 1.0000     0. 
   4   2  -3     65.62    2.81  0. 1.0000     0. 
  -4  -2  -3     61.15    2.86  0. 1.0000     0. 
   4   2  -3     61.90    2.75  0. 1.0000     0. 
   4   2   3     61.62    2.75  0. 1.0000     0. 
  -4  -2   3     62.90    2.76  0. 1.0000     0. 
   4   1  -3     62.91    2.68  0. 1.0000     0. 
   4   1  -3     58.30    2.62  0. 1.0000     0. 
  -4  -1  -3     59.22    2.61  0. 1.0000     0. 
  -4  -1  -3     58.96    2.72  0. 1.0000     0. 
   4   1   3     60.95    2.63  0. 1.0000     0. 
  -4  -1   3     58.21    2.64  0. 1.0000     0. 
   4   0  -3    104.27    4.17  0. 1.0000     0. 
   4   0  -3     98.53    4.12  0. 1.0000     0. 
  -4   0  -3     93.36    4.18  0. 1.0000     0. 
  -4   0  -3     94.69    4.10  0. 1.0000     0. 
   4   0   3     95.74    4.09  0. 1.0000     0. 
   4   0   3     97.81    4.19  0. 1.0000     0. 
  -4   0   3    102.94    4.18  0. 1.0000     0. 
   4  -1  -3     61.77    2.72  0. 1.0000     0. 
  -4   1  -3     61.77    2.72  0. 1.0000     0. 
  -4   1  -3     59.27    2.78  0. 1.0000     0. 
   4  -1  -3     64.37    2.78  0. 1.0000     0. 
   4  -1   3     63.82    2.81  0. 1.0000     0. 
  -4   1   3     60.25    2.82  0. 1.0000     0. 
  -4   2  -3     63.97    2.85  0. 1.0000     0. 
   4  -2  -3     65.53    2.85  0. 1.0000     0. 
  -4   2  -3     60.34    2.91  0. 1.0000     0. 
   4  -2  -3     65.86    2.92  0. 1.0000     0. 
  -4   2   3     68.83    2.94  0. 1.0000     0. 
   4  -2   3     64.25    2.96  0. 1.0000     0. 
   4  -3  -3     -0.42    0.28  0. 1.0000     0. 
  -4   3  -3     -0.06    0.22  0. 1.0000     0. 
  -5  -3  -3      4.14    0.94  0. 1.0000     0. 
  -5  -2  -3     89.37    3.95  0. 1.0000     0. 
   5   2  -3     89.68    3.79  0. 1.0000     0. 
  -5  -2  -3     85.79    3.77  0. 1.0000     0. 
   5   2  -3     90.91    3.84  0. 1.0000     0. 
  -5  -2   3     87.07    3.82  0. 1.0000     0. 
   5   2   3     84.61    3.78  0. 1.0000     0. 
  -5  -1  -3     81.40    3.69  0. 1.0000     0. 
   5   1  -3     86.30    3.74  0. 1.0000     0. 
   5   1  -3     85.67    3.70  0. 1.0000     0. 
  -5  -1  -3     86.91    3.84  0. 1.0000     0. 
  -5  -1   3     87.92    3.73  0. 1.0000     0. 
   5   1   3     84.02    3.70  0. 1.0000     0. 
   5   1   3     90.85    3.80  0. 1.0000     0. 
  -5   0  -3     77.99    3.54  0. 1.0000     0. 
   5   0  -3     83.51    3.55  0. 1.0000     0. 
  -5   0  -3     82.06    3.65  0. 1.0000     0. 
   5   0  -3     82.89    3.60  0. 1.0000     0. 
  -5   0   3     81.11    3.62  0. 1.0000     0. 
   5   0   3     86.76    3.67  0. 1.0000     0. 
   5   0   3     81.78    3.53  0. 1.0000     0. 
   5  -1  -3     87.80    3.67  0. 1.0000     0. 
  -5   1  -3     82.62    3.70  0. 1.0000     0. 
  -5   1  -3     80.83    3.78  0. 1.0000     0. 
   5  -1  -3     88.24    3.74  0. 1.0000     0. 
  -5   1   3     85.90    3.77  0. 1.0000     0. 
   5  -1   3     88.45    3.81  0. 1.0000     0. 
  -5   2  -3     90.43    3.80  0. 1.0000     0. 
  -5   2  -3     87.15    3.89  0. 1.0000     0. 
   5  -2  -3     88.22    3.76  0. 1.0000     0. 
   5  -2  -3     87.77    3.85  0. 1.0000     0. 
   5  -2   3     85.03    3.90  0. 1.0000     0. 
  -5   2   3     86.17    3.85  0. 1.0000     0. 
   6   3   3     19.17    1.34  0. 1.0000     0. 
   6   2  -3     67.64    2.98  0. 1.0000     0. 
  -6  -2  -3     63.12    3.17  0. 1.0000     0. 
  -6  -2  -3     66.16    2.97  0. 1.0000     0. 
   6   2  -3     54.55    3.01  0. 1.0000     0. 
  -6  -2   3     73.74    3.03  0. 1.0000     0. 
   6   2   3     67.80    3.01  0. 1.0000     0. 
   6   1  -3     61.79    2.95  0. 1.0000     0. 
  -6  -1  -3     60.74    3.06  0. 1.0000     0. 
  -6  -1  -3     65.36    2.93  0. 1.0000     0. 
   6   1  -3     64.47    2.90  0. 1.0000     0. 
   6   1   3     63.75    2.94  0. 1.0000     0. 
  -6  -1   3     70.32    2.96  0. 1.0000     0. 
   6   1   3     61.83    3.03  0. 1.0000     0. 
  -6  -1   3     60.49    2.99  0. 1.0000     0. 
  -6   0  -3     77.36    3.48  0. 1.0000     0. 
   6   0  -3     66.53    3.43  0. 1.0000     0. 
  -6   0  -3     87.79    3.64  0. 1.0000     0. 
   6   0  -3     74.02    3.41  0. 1.0000     0. 
   6   0   3     79.92    3.64  0. 1.0000     0. 
  -6   0   3     73.43    3.48  0. 1.0000     0. 
   6   0   3     79.25    3.47  0. 1.0000     0. 
  -6   1  -3     59.28    2.83  0. 1.0000     0. 
   6  -1  -3     62.68    2.87  0. 1.0000     0. 
   6  -1  -3     60.18    2.80  0. 1.0000     0. 
  -6   1  -3     60.65    3.00  0. 1.0000     0. 
  -6   1   3     61.35    2.96  0. 1.0000     0. 
   6  -1   3     61.92    3.05  0. 1.0000     0. 
   6  -2  -3     63.81    3.10  0. 1.0000     0. 
   6  -2  -3     66.28    3.14  0. 1.0000     0. 
  -6   2  -3     68.27    3.12  0. 1.0000     0. 
  -6   2  -3     70.22    3.24  0. 1.0000     0. 
   6  -2   3     68.00    3.31  0. 1.0000     0. 
  -6   2   3     70.25    3.18  0. 1.0000     0. 
   7   3   3     19.11    1.45  0. 1.0000     0. 
   7   2  -3     62.04    2.94  0. 1.0000     0. 
   7   2  -3     61.47    3.02  0. 1.0000     0. 
  -7  -2  -3     63.98    2.93  0. 1.0000     0. 
  -7  -2  -3     62.21    3.17  0. 1.0000     0. 
  -7  -2   3     66.14    2.98  0. 1.0000     0. 
   7   2   3     62.70    3.01  0. 1.0000     0. 
   7   2   3     60.00    3.20  0. 1.0000     0. 
  -7  -1  -3     63.22    3.11  0. 1.0000     0. 
   7   1  -3     70.77    3.11  0. 1.0000     0. 
  -7  -1  -3     60.13    3.31  0. 1.0000     0. 
   7   1  -3     63.97    3.16  0. 1.0000     0. 
   7   1   3     69.51    3.17  0. 1.0000     0. 
   7   1   3     71.79    3.33  0. 1.0000     0. 
  -7  -1   3     67.81    3.22  0. 1.0000     0. 
  -7  -1   3     73.12    3.16  0. 1.0000     0. 
  -7   0  -3     69.43    3.21  0. 1.0000     0. 
  -7   0  -3     67.49    3.38  0. 1.0000     0. 
   7   0  -3     64.19    3.23  0. 1.0000     0. 
   7   0  -3     74.52    3.18  0. 1.0000     0. 
  -7   0   3     69.69    3.28  0. 1.0000     0. 
   7   0   3     71.32    3.20  0. 1.0000     0. 
   7   0   3     69.49    3.37  0. 1.0000     0. 
  -7   1  -3     65.37    3.11  0. 1.0000     0. 
   7  -1  -3     64.44    3.06  0. 1.0000     0. 
  -7   1  -3     65.15    3.24  0. 1.0000     0. 
   7  -1  -3     65.19    3.12  0. 1.0000     0. 
   7  -1   3     63.13    3.29  0. 1.0000     0. 
  -7   1   3     68.84    3.19  0. 1.0000     0. 
   7  -1   3     70.52    3.09  0. 1.0000     0. 
   7  -2  -3     64.82    2.97  0. 1.0000     0. 
  -7   2  -3     65.18    3.09  0. 1.0000     0. 
   7  -2  -3     60.73    3.06  0. 1.0000     0. 
  -7   2  -3     59.81    3.12  0. 1.0000     0. 
   7  -2   3     64.55    3.30  0. 1.0000     0. 
  -7   2   3     64.66    3.11  0. 1.0000     0. 
   8   3  -3      2.36    1.12  0. 1.0000     0. 
  -8  -3  -3      3.96    1.51  0. 1.0000     0. 
  -8  -3  -3      0.37    0.52  0. 1.0000     0. 
  -8  -2  -3     13.98    2.02  0. 1.0000     0. 
   8   2  -3      8.13    1.06  0. 1.0000     0. 
  -8  -2  -3      9.35    1.08  0. 1.0000     0. 
   8   2  -3     12.16    1.36  0. 1.0000     0. 
   8   2   3      9.74    1.09  0. 1.0000     0. 
  -8  -2   3      8.34    1.16  0. 1.0000     0. 
   8   2   3     11.66    1.47  0. 1.0000     0. 
  -8  -2   3      9.40    1.13  0. 1.0000     0. 
   8   1  -3      6.73    1.02  0. 1.0000     0. 
  -8  -1  -3      7.02    1.05  0. 1.0000     0. 
  -8  -1  -3     10.87    1.45  0. 1.0000     0. 
   8   1  -3      9.25    1.26  0. 1.0000     0. 
   8   1   3      8.83    1.37  0. 1.0000     0. 
  -8  -1   3      7.96    1.13  0. 1.0000     0. 
  -8  -1   3      5.55    1.08  0. 1.0000     0. 
   8   1   3     10.15    1.09  0. 1.0000     0. 
   8   0  -3      5.78    1.15  0. 1.0000     0. 
   8   0  -3      4.26    0.96  0. 1.0000     0. 
  -8   0  -3      4.42    1.34  0. 1.0000     0. 
  -8   0  -3      5.76    1.06  0. 1.0000     0. 
  -8   0   3      4.81    1.02  0. 1.0000     0. 
   8   0   3      5.72    1.40  0. 1.0000     0. 
   8   0   3      5.52    1.00  0. 1.0000     0. 
  -8   0   3      5.85    1.08  0. 1.0000     0. 
  -8   1  -3      9.43    1.41  0. 1.0000     0. 
   8  -1  -3      8.56    1.09  0. 1.0000     0. 
   8  -1  -3      8.27    1.28  0. 1.0000     0. 
  -8   1  -3      7.11    1.17  0. 1.0000     0. 
  -8   1   3      7.87    1.06  0. 1.0000     0. 
   8  -1   3      9.37    1.47  0. 1.0000     0. 
   8  -1   3      7.24    1.09  0. 1.0000     0. 
   8  -2  -3     10.08    1.13  0. 1.0000     0. 
  -8   2  -3      9.53    1.23  0. 1.0000     0. 
   8  -2  -3     10.62    1.51  0. 1.0000     0. 
  -8   2  -3     11.33    1.38  0. 1.0000     0. 
  -8   2   3     10.70    1.62  0. 1.0000     0. 
   8  -2   3     11.66    1.52  0. 1.0000     0. 
  -8   3  -3      0.69    1.05  0. 1.0000     0. 
  -8   3  -3     -0.57    0.61  0. 1.0000     0. 
   8  -3  -3      2.59    1.00  0. 1.0000     0. 
  -9  -3  -3     14.87    2.19  0. 1.0000     0. 
   9   3   3     16.08    1.90  0. 1.0000     0. 
  -9  -2  -3     28.08    1.98  0. 1.0000     0. 
  -9  -2  -3     28.74    2.68  0. 1.0000     0. 
   9   2   3     28.23    2.02  0. 1.0000     0. 
   9   2   3     28.79    2.51  0. 1.0000     0. 
  -9  -1  -3     28.39    2.47  0. 1.0000     0. 
  -9  -1  -3     26.26    2.01  0. 1.0000     0. 
   9   1   3     31.08    2.08  0. 1.0000     0. 
   9   1   3     28.46    2.53  0. 1.0000     0. 
  -9   0  -3     21.22    2.31  0. 1.0000     0. 
  -9   0  -3     22.90    1.92  0. 1.0000     0. 
   9   0   3     23.13    2.40  0. 1.0000     0. 
   9   0   3     24.59    1.91  0. 1.0000     0. 
  -9   1  -3     26.63    2.42  0. 1.0000     0. 
  -9   1  -3     29.24    2.14  0. 1.0000     0. 
   9  -1   3     31.94    2.22  0. 1.0000     0. 
   9  -1   3     34.01    2.73  0. 1.0000     0. 
  -9   2  -3     31.84    2.24  0. 1.0000     0. 
  -9   2  -3     26.73    2.15  0. 1.0000     0. 
   9  -2   3     26.99    2.59  0. 1.0000     0. 
   9  -2   3     23.82    2.03  0. 1.0000     0. 
   9  -3  -3     23.72    0.91  0. 1.0000     0. 
   9  -3  -3     15.70    1.99  0. 1.0000     0. 
  -9   3  -3     18.36    2.08  0. 1.0000     0. 
 -10  -3  -3     20.26    2.90  0. 1.0000     0. 
  10   3   3     15.84    1.98  0. 1.0000     0. 
 -10  -2  -3     24.88    2.00  0. 1.0000     0. 
 -10  -2  -3     24.11    2.61  0. 1.0000     0. 
  10   2   3     25.79    2.54  0. 1.0000     0. 
  10   2   3     26.48    2.11  0. 1.0000     0. 
 -10  -1  -3     26.28    1.99  0. 1.0000     0. 
 -10  -1  -3     25.79    2.54  0. 1.0000     0. 
  10   1   3     22.59    2.04  0. 1.0000     0. 
  10   1   3     20.99    2.84  0. 1.0000     0. 
 -10   0  -3     19.84    2.28  0. 1.0000     0. 
 -10   0  -3     18.37    1.94  0. 1.0000     0. 
  10   0   3     24.62    2.05  0. 1.0000     0. 
  10   0   3     19.67    2.63  0. 1.0000     0. 
 -10   1  -3     23.75    2.32  0. 1.0000     0. 
 -10   1  -3     25.35    2.16  0. 1.0000     0. 
  10  -1   3     25.61    2.78  0. 1.0000     0. 
  10  -1   3     23.90    2.13  0. 1.0000     0. 
 -10   2  -3     19.58    2.19  0. 1.0000     0. 
 -10   2  -3     23.18    2.23  0. 1.0000     0. 
  10  -2   3     24.90    2.15  0. 1.0000     0. 
  10  -2   3     23.90    2.67  0. 1.0000     0. 
 -10   3  -3     15.30    1.69  0. 1.0000     0. 
   0   0  -4    363.45   14.27  0. 1.0000     0. 
   0   0  -4    345.95   14.21  0. 1.0000     0. 
   0   0  -4    372.65   14.26  0. 1.0000     0. 
   0   0  -4    365.26   14.24  0. 1.0000     0. 
   0   0   4    361.67   14.20  0. 1.0000     0. 
   0   0   4    351.92   14.25  0. 1.0000     0. 
   0   0   4    338.89   14.28  0. 1.0000     0. 
   1   0  -4    297.27   12.49  0. 1.0000     0. 
   0  -1  -4    313.97   12.44  0. 1.0000     0. 
   1   0  -4    310.20   12.46  0. 1.0000     0. 
   0   1  -4    322.81   12.47  0. 1.0000     0. 
   0   1  -4    282.38   12.44  0. 1.0000     0. 
   0   1  -4    277.75   12.40  0. 1.0000     0. 
   0  -1  -4    295.92   12.40  0. 1.0000     0. 
   0  -1  -4    324.87   12.48  0. 1.0000     0. 
  -1   0  -4    315.31   12.42  0. 1.0000     0. 
  -1   0  -4    330.07   12.45  0. 1.0000     0. 
   1   0  -4    331.76   12.43  0. 1.0000     0. 
   0  -1  -4    315.57   12.47  0. 1.0000     0. 
   1   0  -4    317.02   12.39  0. 1.0000     0. 
  -1   0  -4    318.08   12.49  0. 1.0000     0. 
   0   1  -4    304.75   12.46  0. 1.0000     0. 
  -1   0  -4    285.23   12.42  0. 1.0000     0. 
   0   1   4    313.09   12.41  0. 1.0000     0. 
   1   0   4    319.30   12.43  0. 1.0000     0. 
   1   0   4    318.88   12.46  0. 1.0000     0. 
   1   0   4    327.67   12.48  0. 1.0000     0. 
  -1   0   4    315.43   12.42  0. 1.0000     0. 
   0  -1   4    309.34   12.46  0. 1.0000     0. 
   0  -1   4    299.31   12.47  0. 1.0000     0. 
   0   1   4    310.65   12.49  0. 1.0000     0. 
  -1   0   4    308.62   12.51  0. 1.0000     0. 
  -1   0   4    330.04   12.38  0. 1.0000     0. 
  -1  -1  -4    221.30    8.60  0. 1.0000     0. 
  -1   1  -4    210.33    8.61  0. 1.0000     0. 
   1  -1  -4    218.48    8.56  0. 1.0000     0. 
  -1   1  -4    208.00    8.65  0. 1.0000     0. 
  -1  -1  -4    214.92    8.60  0. 1.0000     0. 
   1   1  -4    210.32    8.63  0. 1.0000     0. 
   1  -1  -4    210.36    8.67  0. 1.0000     0. 
  -1  -1  -4    220.56    8.68  0. 1.0000     0. 
  -1  -1  -4    216.29    8.63  0. 1.0000     0. 
  -1   1  -4    208.53    8.60  0. 1.0000     0. 
  -1   1  -4    210.38    8.61  0. 1.0000     0. 
   1   1  -4    215.20    8.67  0. 1.0000     0. 
   1  -1  -4    222.33    8.61  0. 1.0000     0. 
   1  -1  -4    204.59    8.63  0. 1.0000     0. 
   1   1  -4    219.34    8.60  0. 1.0000     0. 
   1   1  -4    196.18    8.55  0. 1.0000     0. 
   1   1   4    224.40    8.61  0. 1.0000     0. 
  -1   1   4    214.85    8.56  0. 1.0000     0. 
   1  -1   4    216.89    8.67  0. 1.0000     0. 
  -1   1   4    218.20    8.68  0. 1.0000     0. 
  -1  -1   4    209.38    8.66  0. 1.0000     0. 
   1  -1   4    225.79    8.63  0. 1.0000     0. 
   1   1   4    206.17    8.62  0. 1.0000     0. 
  -1  -1   4    216.81    8.61  0. 1.0000     0. 
   1  -2  -4    110.53    4.75  0. 1.0000     0. 
  -1   2  -4    114.90    4.73  0. 1.0000     0. 
   1  -2  -4    113.10    4.81  0. 1.0000     0. 
  -2  -1  -4    111.62    4.73  0. 1.0000     0. 
  -2  -1  -4    118.63    4.67  0. 1.0000     0. 
   2   1  -4    122.45    4.64  0. 1.0000     0. 
   2   1  -4    106.63    4.79  0. 1.0000     0. 
   1  -2  -4    113.55    4.73  0. 1.0000     0. 
  -1   2  -4    116.14    4.75  0. 1.0000     0. 
   2   1  -4    112.77    4.77  0. 1.0000     0. 
  -2  -1  -4    118.99    4.71  0. 1.0000     0. 
  -1   2  -4    115.64    4.80  0. 1.0000     0. 
  -2  -1  -4    113.91    4.82  0. 1.0000     0. 
   2   1   4    119.18    4.74  0. 1.0000     0. 
  -1   2   4    115.47    4.81  0. 1.0000     0. 
   2   1   4    120.86    4.72  0. 1.0000     0. 
  -2  -1   4    110.58    4.79  0. 1.0000     0. 
  -2   0  -4    242.16    9.54  0. 1.0000     0. 
   2   0  -4    218.76    9.46  0. 1.0000     0. 
   0  -2  -4    225.22    9.44  0. 1.0000     0. 
   2   0  -4    224.53    9.51  0. 1.0000     0. 
   2   0  -4    230.60    9.35  0. 1.0000     0. 
   0   2  -4    223.07    9.48  0. 1.0000     0. 
   2   0  -4    242.96    9.38  0. 1.0000     0. 
  -2   0  -4    239.99    9.40  0. 1.0000     0. 
  -2   0  -4    256.98    9.44  0. 1.0000     0. 
  -2   0  -4    239.91    9.47  0. 1.0000     0. 
   0  -2  -4    239.46    9.52  0. 1.0000     0. 
   0   2   4    237.85    9.51  0. 1.0000     0. 
   2   0   4    226.29    9.45  0. 1.0000     0. 
  -2   0   4    238.46    9.35  0. 1.0000     0. 
   2   0   4    229.32    9.52  0. 1.0000     0. 
   2   0   4    244.84    9.45  0. 1.0000     0. 
  -2   0   4    220.76    9.53  0. 1.0000     0. 
  -2   0   4    250.00    9.39  0. 1.0000     0. 
  -2   1  -4    113.07    4.66  0. 1.0000     0. 
   2  -1  -4    111.28    4.73  0. 1.0000     0. 
   2  -1  -4    119.31    4.58  0. 1.0000     0. 
   2  -1  -4    107.35    4.66  0. 1.0000     0. 
  -1  -2  -4    113.66    4.63  0. 1.0000     0. 
   1   2  -4    119.89    4.71  0. 1.0000     0. 
  -2   1  -4    116.70    4.61  0. 1.0000     0. 
  -1  -2  -4    111.91    4.61  0. 1.0000     0. 
  -2   1  -4    114.95    4.60  0. 1.0000     0. 
  -1  -2  -4    105.52    4.70  0. 1.0000     0. 
   1   2  -4    106.49    4.67  0. 1.0000     0. 
  -2   1  -4    115.51    4.72  0. 1.0000     0. 
   1   2   4    118.70    4.65  0. 1.0000     0. 
  -1  -2   4    107.97    4.69  0. 1.0000     0. 
   2  -1   4    113.92    4.73  0. 1.0000     0. 
  -2   1   4    114.55    4.75  0. 1.0000     0. 
   2  -1   4    106.83    4.60  0. 1.0000     0. 
   2  -2  -4     66.68    3.01  0. 1.0000     0. 
   2  -2  -4     69.35    3.06  0. 1.0000     0. 
   2   2  -4     69.62    3.03  0. 1.0000     0. 
  -2   2  -4     74.18    2.95  0. 1.0000     0. 
   2  -2  -4     71.38    2.92  0. 1.0000     0. 
  -2   2  -4     70.67    3.06  0. 1.0000     0. 
  -2  -2  -4     70.22    2.90  0. 1.0000     0. 
  -2   2  -4     69.54    2.98  0. 1.0000     0. 
   2   2  -4     71.40    3.08  0. 1.0000     0. 
  -2  -2  -4     67.88    2.96  0. 1.0000     0. 
  -2  -2  -4     67.55    3.07  0. 1.0000     0. 
  -2  -2   4     65.87    3.02  0. 1.0000     0. 
   2   2   4     67.11    2.98  0. 1.0000     0. 
   2  -2   4     69.66    3.07  0. 1.0000     0. 
  -2   2   4     68.20    3.08  0. 1.0000     0. 
   3   2  -4     14.34    1.07  0. 1.0000     0. 
  -3  -2  -4     14.95    0.82  0. 1.0000     0. 
  -3  -2  -4     13.41    0.99  0. 1.0000     0. 
   3   2  -4     15.41    1.16  0. 1.0000     0. 
  -3  -2  -4     13.87    1.19  0. 1.0000     0. 
   3   2   4     14.15    1.07  0. 1.0000     0. 
  -3  -2   4     14.40    1.09  0. 1.0000     0. 
  -3  -1  -4     17.29    0.83  0. 1.0000     0. 
   3   1  -4     13.81    1.02  0. 1.0000     0. 
  -3  -1  -4     14.86    1.18  0. 1.0000     0. 
  -3  -1  -4     15.39    1.01  0. 1.0000     0. 
   3   1  -4     16.05    1.12  0. 1.0000     0. 
   3   1   4     16.26    1.22  0. 1.0000     0. 
   3   1   4     14.08    1.03  0. 1.0000     0. 
  -3  -1   4     13.80    1.08  0. 1.0000     0. 
  -3   0  -4     43.45    1.79  0. 1.0000     0. 
  -3   0  -4     42.75    1.94  0. 1.0000     0. 
   3   0  -4     38.47    1.94  0. 1.0000     0. 
  -3   0  -4     40.33    2.03  0. 1.0000     0. 
  -3   0  -4     39.38    1.74  0. 1.0000     0. 
   3   0  -4     41.26    2.03  0. 1.0000     0. 
  -3   0   4     39.10    2.03  0. 1.0000     0. 
   3   0   4     40.84    2.01  0. 1.0000     0. 
   3   0   4     43.19    1.77  0. 1.0000     0. 
   3   0   4     39.76    1.91  0. 1.0000     0. 
   3   0   4     41.56    1.80  0. 1.0000     0. 
   3  -1  -4     13.92    1.04  0. 1.0000     0. 
   3  -1  -4     14.59    1.14  0. 1.0000     0. 
  -3   1  -4     15.95    1.19  0. 1.0000     0. 
  -3   1  -4     16.45    0.87  0. 1.0000     0. 
  -3   1  -4     13.09    1.01  0. 1.0000     0. 
  -3   1   4     14.07    1.19  0. 1.0000     0. 
   3  -1   4     14.97    1.18  0. 1.0000     0. 
   3  -2  -4     15.83    0.82  0. 1.0000     0. 
   3  -2  -4     14.08    1.17  0. 1.0000     0. 
   3  -2  -4     14.04    1.08  0. 1.0000     0. 
  -3   2  -4     13.46    1.07  0. 1.0000     0. 
  -3   2  -4     14.02    1.13  0. 1.0000     0. 
   3  -2   4     12.60    1.18  0. 1.0000     0. 
  -3   2   4     16.74    1.22  0. 1.0000     0. 
   3  -3  -4     -0.23    0.53  0. 1.0000     0. 
  -3   3  -4     -0.21    0.25  0. 1.0000     0. 
  -3  -3  -4     -0.45    0.31  0. 1.0000     0. 
   3  -3  -4      0.84    0.74  0. 1.0000     0. 
   3   3   4     -0.28    0.37  0. 1.0000     0. 
  -3   3   4     -0.10    0.47  0. 1.0000     0. 
  -4  -3  -4     10.95    1.23  0. 1.0000     0. 
  -4  -3  -4     10.15    1.01  0. 1.0000     0. 
   4   3   4      8.41    1.02  0. 1.0000     0. 
   4   2  -4     67.31    3.07  0. 1.0000     0. 
  -4  -2  -4     66.82    3.14  0. 1.0000     0. 
  -4  -2  -4     69.32    2.77  0. 1.0000     0. 
  -4  -2  -4     61.99    2.94  0. 1.0000     0. 
   4   2  -4     70.17    3.01  0. 1.0000     0. 
  -4  -2   4     65.39    3.02  0. 1.0000     0. 
   4   2   4     65.62    2.99  0. 1.0000     0. 
   4   1  -4     63.29    2.88  0. 1.0000     0. 
   4   1  -4     62.52    2.80  0. 1.0000     0. 
  -4  -1  -4     61.70    2.78  0. 1.0000     0. 
  -4  -1  -4     63.28    2.93  0. 1.0000     0. 
   4   1   4     61.11    2.86  0. 1.0000     0. 
  -4  -1   4     63.15    2.84  0. 1.0000     0. 
   4   1   4     59.82    2.77  0. 1.0000     0. 
   4   0  -4     97.02    4.23  0. 1.0000     0. 
  -4   0  -4    100.68    4.23  0. 1.0000     0. 
   4   0  -4    105.69    4.30  0. 1.0000     0. 
  -4   0  -4     96.46    4.31  0. 1.0000     0. 
  -4   0   4     97.60    4.31  0. 1.0000     0. 
   4   0   4     99.20    4.31  0. 1.0000     0. 
   4   0   4     99.07    4.20  0. 1.0000     0. 
  -4   1  -4     59.92    2.81  0. 1.0000     0. 
   4  -1  -4     57.19    2.67  0. 1.0000     0. 
   4  -1  -4     58.49    2.76  0. 1.0000     0. 
  -4   1  -4     60.03    2.71  0. 1.0000     0. 
   4  -1   4     56.72    2.78  0. 1.0000     0. 
  -4   1   4     63.38    2.81  0. 1.0000     0. 
  -4   2  -4     65.40    2.90  0. 1.0000     0. 
   4  -2  -4     63.97    2.88  0. 1.0000     0. 
   4  -2  -4     65.84    2.98  0. 1.0000     0. 
  -4   2  -4     61.21    3.00  0. 1.0000     0. 
  -4   2   4     63.28    3.01  0. 1.0000     0. 
   4  -2   4     64.45    3.03  0. 1.0000     0. 
   4  -3  -4      9.48    1.28  0. 1.0000     0. 
   4  -3  -4      9.53    1.11  0. 1.0000     0. 
  -4   3   4     11.83    1.17  0. 1.0000     0. 
  -5  -3  -4     29.58    1.97  0. 1.0000     0. 
  -5  -3  -4     30.94    1.71  0. 1.0000     0. 
   5   3  -4     29.52    1.89  0. 1.0000     0. 
   5   3   4     31.14    1.82  0. 1.0000     0. 
  -5  -2  -4     83.30    3.75  0. 1.0000     0. 
   5   2  -4     85.42    3.79  0. 1.0000     0. 
  -5  -2  -4     89.40    3.96  0. 1.0000     0. 
   5   2  -4     87.86    3.88  0. 1.0000     0. 
   5   2   4     84.88    3.81  0. 1.0000     0. 
  -5  -2   4     87.08    3.84  0. 1.0000     0. 
   5   1  -4     87.50    3.92  0. 1.0000     0. 
   5   1  -4     88.47    3.98  0. 1.0000     0. 
  -5  -1  -4     85.97    3.89  0. 1.0000     0. 
  -5  -1  -4     90.48    4.06  0. 1.0000     0. 
   5   1   4     89.67    3.94  0. 1.0000     0. 
   5   1   4     88.99    4.01  0. 1.0000     0. 
  -5  -1   4     93.86    3.97  0. 1.0000     0. 
  -5  -1   4     96.17    4.06  0. 1.0000     0. 
   5   0  -4    145.24    5.98  0. 1.0000     0. 
  -5   0  -4    134.63    5.96  0. 1.0000     0. 
   5   0  -4    140.12    6.02  0. 1.0000     0. 
  -5   0  -4    137.76    6.07  0. 1.0000     0. 
  -5   0   4    155.24    6.09  0. 1.0000     0. 
   5   0   4    147.11    6.09  0. 1.0000     0. 
   5   0   4    141.48    5.95  0. 1.0000     0. 
   5  -1  -4     91.22    3.92  0. 1.0000     0. 
   5  -1  -4     91.00    3.99  0. 1.0000     0. 
  -5   1  -4     84.89    3.93  0. 1.0000     0. 
  -5   1  -4     86.57    4.04  0. 1.0000     0. 
  -5   1   4     92.08    4.05  0. 1.0000     0. 
   5  -1   4     93.08    4.08  0. 1.0000     0. 
   5  -2  -4     94.30    4.04  0. 1.0000     0. 
  -5   2  -4     86.39    3.93  0. 1.0000     0. 
  -5   2  -4     86.85    4.06  0. 1.0000     0. 
   5  -2  -4     87.15    3.95  0. 1.0000     0. 
   5  -2   4     94.61    4.12  0. 1.0000     0. 
  -5   2   4     91.39    4.07  0. 1.0000     0. 
   5  -3  -4     32.65    2.03  0. 1.0000     0. 
  -5   3  -4     30.74    1.81  0. 1.0000     0. 
   5  -3  -4     32.74    1.82  0. 1.0000     0. 
  -5   3  -4     26.61    1.91  0. 1.0000     0. 
  -5   3   4     30.37    1.90  0. 1.0000     0. 
  -6  -3  -4     27.10    1.71  0. 1.0000     0. 
   6   3  -4     27.61    1.87  0. 1.0000     0. 
  -6  -3  -4     29.82    2.10  0. 1.0000     0. 
   6   3   4     27.95    1.88  0. 1.0000     0. 
   6   2  -4     67.14    3.25  0. 1.0000     0. 
  -6  -2  -4     68.70    3.15  0. 1.0000     0. 
   6   2  -4     69.92    3.21  0. 1.0000     0. 
  -6  -2  -4     70.10    3.40  0. 1.0000     0. 
   6   2   4     68.05    3.25  0. 1.0000     0. 
  -6  -2   4     69.63    3.23  0. 1.0000     0. 
  -6  -1  -4     72.13    3.34  0. 1.0000     0. 
   6   1  -4     75.07    3.37  0. 1.0000     0. 
  -6  -1  -4     73.94    3.61  0. 1.0000     0. 
   6   1  -4     70.07    3.43  0. 1.0000     0. 
  -6  -1   4     71.72    3.42  0. 1.0000     0. 
  -6  -1   4     79.24    3.54  0. 1.0000     0. 
   6   1   4     73.78    3.43  0. 1.0000     0. 
   6   1   4     77.35    3.55  0. 1.0000     0. 
   6   0  -4     99.30    4.48  0. 1.0000     0. 
  -6   0  -4     98.21    4.59  0. 1.0000     0. 
   6   0  -4    100.07    4.43  0. 1.0000     0. 
  -6   0  -4    100.26    4.43  0. 1.0000     0. 
  -6   0   4    102.87    4.54  0. 1.0000     0. 
   6   0   4    104.59    4.44  0. 1.0000     0. 
   6   0   4    106.83    4.63  0. 1.0000     0. 
  -6   1  -4     70.64    3.29  0. 1.0000     0. 
   6  -1  -4     69.21    3.28  0. 1.0000     0. 
  -6   1  -4     70.37    3.47  0. 1.0000     0. 
   6  -1  -4     68.12    3.34  0. 1.0000     0. 
  -6   1   4     80.21    3.50  0. 1.0000     0. 
   6  -1   4     72.71    3.54  0. 1.0000     0. 
  -6   2  -4     67.13    3.15  0. 1.0000     0. 
   6  -2  -4     64.62    3.17  0. 1.0000     0. 
   6  -2  -4     64.65    3.08  0. 1.0000     0. 
  -6   2  -4     64.92    3.28  0. 1.0000     0. 
  -6   2   4     69.60    3.29  0. 1.0000     0. 
   6  -2   4     65.70    3.35  0. 1.0000     0. 
  -6   3  -4     26.19    2.00  0. 1.0000     0. 
   6  -3  -4     31.05    1.84  0. 1.0000     0. 
   6  -3  -4     21.47    2.03  0. 1.0000     0. 
  -6   3  -4     29.81    1.86  0. 1.0000     0. 
  -6   3   4     31.99    1.99  0. 1.0000     0. 
   7   3  -4     32.77    2.13  0. 1.0000     0. 
  -7  -3  -4     27.51    2.32  0. 1.0000     0. 
  -7  -3  -4     29.71    1.91  0. 1.0000     0. 
   7   3   4     33.39    2.12  0. 1.0000     0. 
   7   2  -4     58.30    3.25  0. 1.0000     0. 
  -7  -2  -4     59.31    3.45  0. 1.0000     0. 
  -7  -2  -4     63.76    3.13  0. 1.0000     0. 
   7   2  -4     69.02    3.21  0. 1.0000     0. 
   7   2   4     72.30    3.23  0. 1.0000     0. 
   7   2   4     68.35    3.52  0. 1.0000     0. 
  -7  -2   4     69.02    3.50  0. 1.0000     0. 
  -7  -2   4     69.53    3.24  0. 1.0000     0. 
   7   1  -4     67.67    3.22  0. 1.0000     0. 
  -7  -1  -4     64.16    3.18  0. 1.0000     0. 
  -7  -1  -4     61.01    3.47  0. 1.0000     0. 
   7   1  -4     62.10    3.27  0. 1.0000     0. 
  -7  -1   4     73.11    3.43  0. 1.0000     0. 
  -7  -1   4     67.98    3.24  0. 1.0000     0. 
   7   1   4     73.11    3.27  0. 1.0000     0. 
   7   1   4     68.13    3.47  0. 1.0000     0. 
   7   0  -4     78.87    3.78  0. 1.0000     0. 
   7   0  -4     81.22    3.89  0. 1.0000     0. 
  -7   0  -4     78.85    4.06  0. 1.0000     0. 
  -7   0  -4     82.14    3.85  0. 1.0000     0. 
  -7   0   4     81.73    3.98  0. 1.0000     0. 
   7   0   4     90.04    3.84  0. 1.0000     0. 
   7   0   4     94.09    4.17  0. 1.0000     0. 
  -7   1  -4     66.81    3.30  0. 1.0000     0. 
   7  -1  -4     67.63    3.25  0. 1.0000     0. 
  -7   1  -4     66.79    3.47  0. 1.0000     0. 
   7  -1  -4     65.18    3.29  0. 1.0000     0. 
   7  -1   4     68.94    3.26  0. 1.0000     0. 
  -7   1   4     67.61    3.50  0. 1.0000     0. 
   7  -1   4     73.62    3.66  0. 1.0000     0. 
   7  -2  -4     65.09    3.32  0. 1.0000     0. 
   7  -2  -4     72.25    3.23  0. 1.0000     0. 
  -7   2  -4     67.26    3.30  0. 1.0000     0. 
  -7   2  -4     65.04    3.44  0. 1.0000     0. 
  -7   2   4     67.16    3.40  0. 1.0000     0. 
   7  -2   4     63.42    3.55  0. 1.0000     0. 
   7  -3  -4     30.75    2.07  0. 1.0000     0. 
  -7   3  -4     31.41    2.08  0. 1.0000     0. 
  -7   3  -4     28.76    2.19  0. 1.0000     0. 
  -7   4  -4     -0.46    0.20  0. 1.0000     0. 
  -8  -3  -4     -0.88    0.95  0. 1.0000     0. 
  -8  -3  -4      0.75    1.51  0. 1.0000     0. 
   8   3  -4      4.73    1.35  0. 1.0000     0. 
   8   3   4      1.49    0.99  0. 1.0000     0. 
   8   2  -4      3.74    1.03  0. 1.0000     0. 
  -8  -2  -4      2.75    1.00  0. 1.0000     0. 
   8   2  -4      2.54    1.34  0. 1.0000     0. 
  -8  -2  -4      6.62    1.57  0. 1.0000     0. 
   8   2   4      5.52    1.45  0. 1.0000     0. 
  -8  -2   4      4.95    1.21  0. 1.0000     0. 
   8   2   4      3.55    1.08  0. 1.0000     0. 
  -8  -2   4      2.78    1.07  0. 1.0000     0. 
  -8  -1  -4      3.53    1.50  0. 1.0000     0. 
  -8  -1  -4      3.41    1.05  0. 1.0000     0. 
   8   1  -4      4.04    1.04  0. 1.0000     0. 
   8   1  -4      3.73    1.28  0. 1.0000     0. 
  -8  -1   4      3.08    1.11  0. 1.0000     0. 
   8   1   4      3.77    1.54  0. 1.0000     0. 
  -8  -1   4      2.54    1.10  0. 1.0000     0. 
   8   1   4      2.73    1.04  0. 1.0000     0. 
   8   0  -4      4.71    1.27  0. 1.0000     0. 
  -8   0  -4      3.15    1.10  0. 1.0000     0. 
  -8   0  -4      2.58    1.40  0. 1.0000     0. 
   8   0  -4      4.19    1.05  0. 1.0000     0. 
  -8   0   4      1.66    1.05  0. 1.0000     0. 
   8   0   4      4.77    1.07  0. 1.0000     0. 
   8   0   4      4.31    1.59  0. 1.0000     0. 
   8  -1  -4      2.85    1.07  0. 1.0000     0. 
   8  -1  -4      1.77    1.23  0. 1.0000     0. 
  -8   1  -4      2.76    1.14  0. 1.0000     0. 
  -8   1  -4      2.40    1.34  0. 1.0000     0. 
   8  -1   4      4.33    1.57  0. 1.0000     0. 
  -8   1   4      3.49    1.05  0. 1.0000     0. 
   8  -1   4      2.96    1.07  0. 1.0000     0. 
   8  -2  -4      2.07    1.30  0. 1.0000     0. 
  -8   2  -4      4.54    1.34  0. 1.0000     0. 
  -8   2  -4      2.51    1.14  0. 1.0000     0. 
   8  -2  -4      2.97    1.08  0. 1.0000     0. 
  -8   2   4      2.66    1.08  0. 1.0000     0. 
   8  -2   4      2.56    1.56  0. 1.0000     0. 
  -8   3  -4      2.04    1.20  0. 1.0000     0. 
   8  -3  -4     -0.35    0.66  0. 1.0000     0. 
  -8   3  -4     -0.63    1.26  0. 1.0000     0. 
   8  -3  -4      0.65    1.07  0. 1.0000     0. 
  -8   4  -4     -0.09    0.21  0. 1.0000     0. 
  -9  -3  -4     16.10    2.04  0. 1.0000     0. 
   9   3  -4     18.94    2.14  0. 1.0000     0. 
  -9  -3   4     13.55    1.67  0. 1.0000     0. 
   9   3   4     15.97    2.07  0. 1.0000     0. 
   9   3   4     11.64    1.28  0. 1.0000     0. 
   9   2  -4     23.12    2.20  0. 1.0000     0. 
   9   2  -4     26.85    2.00  0. 1.0000     0. 
  -9  -2  -4     23.99    2.71  0. 1.0000     0. 
  -9  -2  -4     23.19    1.90  0. 1.0000     0. 
   9   2   4     22.87    2.10  0. 1.0000     0. 
  -9  -2   4     20.08    1.93  0. 1.0000     0. 
  -9  -2   4     24.26    2.51  0. 1.0000     0. 
   9   2   4     26.29    2.75  0. 1.0000     0. 
  -9  -1  -4     21.61    1.97  0. 1.0000     0. 
   9   1  -4     26.24    2.21  0. 1.0000     0. 
   9   1  -4     24.09    2.07  0. 1.0000     0. 
  -9  -1  -4     23.18    2.59  0. 1.0000     0. 
   9   1   4     24.63    2.13  0. 1.0000     0. 
  -9  -1   4     25.75    2.05  0. 1.0000     0. 
   9   1   4     26.85    2.72  0. 1.0000     0. 
  -9  -1   4     24.58    2.46  0. 1.0000     0. 
  -9   0  -4     24.69    2.09  0. 1.0000     0. 
   9   0  -4     26.88    2.17  0. 1.0000     0. 
   9   0  -4     27.40    2.20  0. 1.0000     0. 
  -9   0  -4     34.74    2.63  0. 1.0000     0. 
   9   0   4     27.66    2.22  0. 1.0000     0. 
   9   0   4     27.32    2.78  0. 1.0000     0. 
  -9   0   4     29.79    2.20  0. 1.0000     0. 
  -9   0   4     23.84    2.52  0. 1.0000     0. 
  -9   1  -4     24.44    2.20  0. 1.0000     0. 
   9  -1  -4     25.05    2.07  0. 1.0000     0. 
  -9   1  -4     28.35    2.47  0. 1.0000     0. 
   9  -1  -4     27.10    2.19  0. 1.0000     0. 
   9  -1   4     27.89    2.28  0. 1.0000     0. 
   9  -1   4     24.15    2.81  0. 1.0000     0. 
  -9   1   4     25.02    2.49  0. 1.0000     0. 
  -9   2  -4     23.48    2.26  0. 1.0000     0. 
  -9   2  -4     23.50    2.19  0. 1.0000     0. 
   9  -2  -4     22.67    2.25  0. 1.0000     0. 
   9  -2  -4     23.04    2.07  0. 1.0000     0. 
   9  -2   4     23.46    2.10  0. 1.0000     0. 
   9  -2   4     21.77    2.76  0. 1.0000     0. 
  -9   2   4     28.86    2.45  0. 1.0000     0. 
  -9   3  -4     13.16    1.55  0. 1.0000     0. 
   9  -3  -4     10.99    1.36  0. 1.0000     0. 
  -9   3  -4      8.09    1.36  0. 1.0000     0. 
 -10  -3  -4     16.59    2.38  0. 1.0000     0. 
  10   3   4     19.14    2.23  0. 1.0000     0. 
 -10  -2  -4     23.51    2.76  0. 1.0000     0. 
 -10  -2  -4     20.76    2.02  0. 1.0000     0. 
  10   2   4     26.54    2.99  0. 1.0000     0. 
  10   2   4     17.59    2.16  0. 1.0000     0. 
 -10  -1  -4     24.80    2.79  0. 1.0000     0. 
 -10  -1  -4     23.73    2.19  0. 1.0000     0. 
  10   1   4     20.84    2.23  0. 1.0000     0. 
  10   1   4     24.90    2.65  0. 1.0000     0. 
 -10   0  -4     21.05    2.61  0. 1.0000     0. 
 -10   0  -4     19.15    2.13  0. 1.0000     0. 
  10   0   4     22.53    3.02  0. 1.0000     0. 
  10   0   4     21.27    2.27  0. 1.0000     0. 
 -10   1  -4     23.09    2.57  0. 1.0000     0. 
 -10   1  -4     20.67    2.24  0. 1.0000     0. 
  10  -1   4     19.25    2.24  0. 1.0000     0. 
  10  -1   4     26.36    3.08  0. 1.0000     0. 
 -10   2  -4     20.41    2.35  0. 1.0000     0. 
 -10   2  -4     21.19    2.37  0. 1.0000     0. 
  10  -2   4     21.44    2.35  0. 1.0000     0. 
  10  -2   4     25.83    2.62  0. 1.0000     0. 
 -10   3  -4     12.26    1.68  0. 1.0000     0. 
 -11  -3  -4     12.89    2.38  0. 1.0000     0. 
  11   3   4     19.17    2.37  0. 1.0000     0. 
 -11  -2  -4     26.36    3.04  0. 1.0000     0. 
 -11  -2  -4     26.14    2.23  0. 1.0000     0. 
  11   2   4     25.98    2.44  0. 1.0000     0. 
  11   2   4     24.33    3.15  0. 1.0000     0. 
 -11  -1  -4     23.31    2.33  0. 1.0000     0. 
 -11  -1  -4     27.24    2.87  0. 1.0000     0. 
  11   1   4     27.85    2.43  0. 1.0000     0. 
  11   1   4     30.00    3.28  0. 1.0000     0. 
 -11   0  -4     22.34    2.65  0. 1.0000     0. 
 -11   0  -4     25.43    2.32  0. 1.0000     0. 
  11   0   4     23.39    2.40  0. 1.0000     0. 
  11   0   4     26.33    3.27  0. 1.0000     0. 
 -11   1  -4     27.53    2.69  0. 1.0000     0. 
 -11   1  -4     26.12    2.38  0. 1.0000     0. 
  11  -1   4     25.90    2.50  0. 1.0000     0. 
  11  -1   4     32.52    3.05  0. 1.0000     0. 
 -11   2  -4     23.56    2.47  0. 1.0000     0. 
 -11   2  -4     18.74    2.47  0. 1.0000     0. 
  11  -2   4     24.15    3.31  0. 1.0000     0. 
  11  -2   4     22.62    2.41  0. 1.0000     0. 
 -11   3  -4     13.45    1.89  0. 1.0000     0. 
  11  -3   4     15.83    1.74  0. 1.0000     0. 
   0   0  -5      2.24    0.49  0. 1.0000     0. 
   0   0  -5      1.34    0.67  0. 1.0000     0. 
   0   0  -5      3.10    0.57  0. 1.0000     0. 
   0   0  -5      1.40    0.63  0. 1.0000     0. 
   0   0   5      1.02    0.48  0. 1.0000     0. 
   0   0   5      1.36    0.63  0. 1.0000     0. 
   0   0   5      1.09    0.57  0. 1.0000     0. 
   0   1  -5      2.70    0.53  0. 1.0000     0. 
  -1   0  -5      2.59    0.54  0. 1.0000     0. 
   0  -1  -5      1.64    0.68  0. 1.0000     0. 
  -1   0  -5      2.78    0.68  0. 1.0000     0. 
   1   0  -5      2.96    0.46  0. 1.0000     0. 
   1   0  -5      2.27    0.59  0. 1.0000     0. 
  -1   0  -5      2.87    0.56  0. 1.0000     0. 
   0  -1  -5      2.87    0.56  0. 1.0000     0. 
   1   0  -5      3.04    0.60  0. 1.0000     0. 
   0   1  -5      2.34    0.65  0. 1.0000     0. 
   0  -1  -5      3.22    0.49  0. 1.0000     0. 
   1   0  -5      2.75    0.75  0. 1.0000     0. 
  -1   0  -5      3.90    0.74  0. 1.0000     0. 
   0   1  -5      2.60    0.53  0. 1.0000     0. 
   0   1  -5      3.43    0.69  0. 1.0000     0. 
   0  -1  -5      2.80    0.71  0. 1.0000     0. 
   0   1   5      2.91    0.59  0. 1.0000     0. 
   0   1   5      3.33    0.65  0. 1.0000     0. 
  -1   0   5      2.52    0.61  0. 1.0000     0. 
   1   0   5      2.96    0.55  0. 1.0000     0. 
  -1   0   5      2.71    0.65  0. 1.0000     0. 
   1   0   5      3.28    0.72  0. 1.0000     0. 
   0  -1   5      2.75    0.64  0. 1.0000     0. 
   1   0   5      2.33    0.57  0. 1.0000     0. 
  -1   0   5      2.54    0.46  0. 1.0000     0. 
   0  -1   5      3.11    0.63  0. 1.0000     0. 
   0   1   5      2.65    0.49  0. 1.0000     0. 
  -1  -1  -5     15.62    1.20  0. 1.0000     0. 
   1   1  -5     14.66    1.08  0. 1.0000     0. 
   1  -1  -5     14.70    1.07  0. 1.0000     0. 
  -1  -1  -5     16.32    1.01  0. 1.0000     0. 
  -1  -1  -5     16.22    1.12  0. 1.0000     0. 
  -1  -1  -5     15.96    1.01  0. 1.0000     0. 
   1  -1  -5     14.31    1.15  0. 1.0000     0. 
   1   1  -5     14.81    0.94  0. 1.0000     0. 
   1   1  -5     15.26    0.98  0. 1.0000     0. 
   1   1  -5     15.94    1.17  0. 1.0000     0. 
  -1   1  -5     14.59    1.06  0. 1.0000     0. 
  -1   1  -5     15.52    1.15  0. 1.0000     0. 
   1  -1  -5     15.85    0.88  0. 1.0000     0. 
  -1   1  -5     14.60    1.03  0. 1.0000     0. 
  -1   1  -5     16.14    0.99  0. 1.0000     0. 
   1  -1  -5     16.64    1.06  0. 1.0000     0. 
   1   1   5     14.86    1.18  0. 1.0000     0. 
  -1   1   5     15.96    1.20  0. 1.0000     0. 
   1  -1   5     14.90    1.05  0. 1.0000     0. 
   1   1   5     15.27    1.13  0. 1.0000     0. 
  -1   1   5     16.96    0.94  0. 1.0000     0. 
   1  -1   5     15.34    1.18  0. 1.0000     0. 
  -1  -1   5     13.84    1.13  0. 1.0000     0. 
  -1   1   5     16.20    1.03  0. 1.0000     0. 
   1   1   5     15.96    1.04  0. 1.0000     0. 
  -1  -1   5     15.98    1.03  0. 1.0000     0. 
  -1   2  -5      2.43    0.69  0. 1.0000     0. 
  -2  -1  -5      2.03    0.58  0. 1.0000     0. 
   1  -2  -5      2.75    0.61  0. 1.0000     0. 
  -2  -1  -5      2.59    0.82  0. 1.0000     0. 
  -2  -1  -5      3.40    0.54  0. 1.0000     0. 
   2   1  -5      2.24    0.61  0. 1.0000     0. 
  -1   2  -5      1.59    0.59  0. 1.0000     0. 
   1  -2  -5      2.20    0.76  0. 1.0000     0. 
  -2  -1  -5      3.41    0.63  0. 1.0000     0. 
   2   1  -5      2.87    0.45  0. 1.0000     0. 
   2   1  -5      3.29    0.78  0. 1.0000     0. 
   1  -2  -5      2.63    0.66  0. 1.0000     0. 
  -1   2  -5      3.52    0.69  0. 1.0000     0. 
  -1   2   5      3.27    0.65  0. 1.0000     0. 
   2   1   5      2.30    0.50  0. 1.0000     0. 
   2   1   5      2.47    0.76  0. 1.0000     0. 
   1  -2   5      2.58    0.74  0. 1.0000     0. 
   2   1   5      2.52    0.60  0. 1.0000     0. 
  -2  -1   5      2.31    0.71  0. 1.0000     0. 
  -2   1  -5      3.34    0.66  0. 1.0000     0. 
   1   2  -5      3.77    0.79  0. 1.0000     0. 
   2  -1  -5      2.06    0.78  0. 1.0000     0. 
   1   2  -5      2.75    0.51  0. 1.0000     0. 
   2  -1  -5      2.86    0.37  0. 1.0000     0. 
   1   2  -5      2.77    0.59  0. 1.0000     0. 
  -2   1  -5      3.00    0.63  0. 1.0000     0. 
  -2   1  -5      2.65    0.45  0. 1.0000     0. 
  -1  -2  -5      2.81    0.77  0. 1.0000     0. 
  -2   1  -5      3.67    0.78  0. 1.0000     0. 
   2  -1  -5      2.60    0.58  0. 1.0000     0. 
   2  -1  -5      2.93    0.62  0. 1.0000     0. 
  -1  -2  -5      2.60    0.57  0. 1.0000     0. 
  -1  -2  -5      3.18    0.71  0. 1.0000     0. 
  -1  -2  -5      2.27    0.52  0. 1.0000     0. 
  -2   1   5      3.57    0.56  0. 1.0000     0. 
   1   2   5      1.45    0.52  0. 1.0000     0. 
   2  -1   5      3.51    0.78  0. 1.0000     0. 
   1   2   5      3.06    0.56  0. 1.0000     0. 
   2  -1   5      2.68    0.55  0. 1.0000     0. 
  -2   1   5      1.59    0.63  0. 1.0000     0. 
  -2   1   5      2.87    0.39  0. 1.0000     0. 
  -1  -2   5      2.97    0.67  0. 1.0000     0. 
   2  -2  -5      1.29    0.78  0. 1.0000     0. 
  -2   2  -5      0.60    0.72  0. 1.0000     0. 
   2  -2  -5      0.81    0.60  0. 1.0000     0. 
   2   2  -5      0.66    0.44  0. 1.0000     0. 
  -2   2  -5      0.95    0.63  0. 1.0000     0. 
   2  -2  -5      0.34    0.58  0. 1.0000     0. 
  -2  -2  -5      0.47    0.23  0. 1.0000     0. 
   2   2  -5     -0.44    0.73  0. 1.0000     0. 
   2   2  -5      0.73    0.58  0. 1.0000     0. 
  -2  -2  -5      0.50    0.82  0. 1.0000     0. 
  -2  -2  -5      0.17    0.53  0. 1.0000     0. 
  -2  -2  -5      0.92    0.49  0. 1.0000     0. 
  -2   2  -5     -0.07    0.62  0. 1.0000     0. 
  -2   2   5      0.50    0.61  0. 1.0000     0. 
   2  -2   5     -0.04    0.74  0. 1.0000     0. 
  -2  -2   5      0.71    0.67  0. 1.0000     0. 
   2   2   5      0.33    0.58  0. 1.0000     0. 
   3   2  -5     15.75    1.24  0. 1.0000     0. 
   3   2  -5     14.91    1.34  0. 1.0000     0. 
  -3  -2  -5     16.25    1.43  0. 1.0000     0. 
  -3  -2  -5     16.19    1.16  0. 1.0000     0. 
  -3  -2  -5     16.86    1.03  0. 1.0000     0. 
   2  -3  -5     16.39    1.41  0. 1.0000     0. 
   2  -3  -5     15.84    1.26  0. 1.0000     0. 
   3   2   5     17.46    1.27  0. 1.0000     0. 
  -3  -2   5     15.91    1.28  0. 1.0000     0. 
  -2   3   5     14.83    1.33  0. 1.0000     0. 
  -3  -1  -5     25.59    1.46  0. 1.0000     0. 
   1  -3  -5     25.36    1.49  0. 1.0000     0. 
  -3  -1  -5     26.51    1.29  0. 1.0000     0. 
   3   1  -5     25.42    1.50  0. 1.0000     0. 
  -3  -1  -5     27.21    1.35  0. 1.0000     0. 
  -3  -1  -5     23.99    1.67  0. 1.0000     0. 
   3   1  -5     23.83    1.61  0. 1.0000     0. 
   3   1   5     26.10    1.49  0. 1.0000     0. 
   3   1   5     22.15    1.65  0. 1.0000     0. 
   3   1   5     26.16    1.31  0. 1.0000     0. 
  -3  -1   5     23.77    1.56  0. 1.0000     0. 
  -3   0  -5     11.96    1.24  0. 1.0000     0. 
  -3   0  -5     11.92    0.78  0. 1.0000     0. 
  -3   0  -5     11.06    1.08  0. 1.0000     0. 
   3   0  -5      9.48    1.08  0. 1.0000     0. 
   3   0  -5     11.85    1.19  0. 1.0000     0. 
  -3   0  -5     10.23    0.88  0. 1.0000     0. 
   3   0   5     11.55    0.91  0. 1.0000     0. 
   3   0   5     10.61    1.33  0. 1.0000     0. 
  -3   0   5     10.85    1.29  0. 1.0000     0. 
   3   0   5     12.07    0.85  0. 1.0000     0. 
   3   0   5     11.14    1.06  0. 1.0000     0. 
   3  -1  -5     23.43    1.57  0. 1.0000     0. 
   3  -1  -5     23.93    1.43  0. 1.0000     0. 
  -3   1  -5     24.69    1.33  0. 1.0000     0. 
  -3   1  -5     24.53    1.49  0. 1.0000     0. 
  -3   1  -5     23.63    1.56  0. 1.0000     0. 
   3  -1   5     22.92    1.61  0. 1.0000     0. 
  -3   1   5     23.01    1.61  0. 1.0000     0. 
  -3   2  -5     16.35    1.11  0. 1.0000     0. 
   3  -2  -5     18.18    1.37  0. 1.0000     0. 
   3  -2  -5     15.67    1.30  0. 1.0000     0. 
  -2  -3  -5     16.00    1.34  0. 1.0000     0. 
  -3   2  -5     16.87    1.41  0. 1.0000     0. 
  -3   2  -5     16.94    1.27  0. 1.0000     0. 
   3  -2   5     16.01    1.44  0. 1.0000     0. 
  -3   2   5     15.43    1.42  0. 1.0000     0. 
  -3  -3  -5     50.60    2.40  0. 1.0000     0. 
   3  -3  -5     48.37    2.56  0. 1.0000     0. 
   3  -3  -5     52.92    2.47  0. 1.0000     0. 
  -3  -3  -5     52.56    2.59  0. 1.0000     0. 
   3   3   5     47.10    2.42  0. 1.0000     0. 
  -3   3   5     51.60    2.55  0. 1.0000     0. 
   4   3  -5     11.86    1.46  0. 1.0000     0. 
  -4  -3  -5     12.91    1.48  0. 1.0000     0. 
  -4  -3  -5     11.89    1.22  0. 1.0000     0. 
   4   3   5     12.96    1.26  0. 1.0000     0. 
   4   2  -5     -0.73    0.70  0. 1.0000     0. 
   4   2  -5     -0.07    0.91  0. 1.0000     0. 
  -4  -2  -5     -0.01    0.95  0. 1.0000     0. 
  -4  -2  -5      0.20    0.65  0. 1.0000     0. 
   4   2   5     -1.44    0.69  0. 1.0000     0. 
  -4  -2   5     -0.08    0.78  0. 1.0000     0. 
  -4  -1  -5     -0.20    0.70  0. 1.0000     0. 
   4   1  -5     -0.32    0.67  0. 1.0000     0. 
  -4  -1  -5     -0.47    0.89  0. 1.0000     0. 
   4   1  -5      0.27    0.93  0. 1.0000     0. 
  -4  -1   5      0.73    0.82  0. 1.0000     0. 
   4   1   5     -0.06    0.84  0. 1.0000     0. 
   4   1   5     -0.03    0.68  0. 1.0000     0. 
  -4  -1   5     -0.55    0.78  0. 1.0000     0. 
   4   0  -5      2.23    0.78  0. 1.0000     0. 
  -4   0  -5     -0.04    0.76  0. 1.0000     0. 
  -4   0  -5     -0.12    0.90  0. 1.0000     0. 
   4   0  -5      2.63    1.04  0. 1.0000     0. 
   4   0   5      0.90    0.97  0. 1.0000     0. 
   4   0   5     -0.59    0.70  0. 1.0000     0. 
  -4   0   5      1.84    0.89  0. 1.0000     0. 
   4  -1  -5      0.43    0.92  0. 1.0000     0. 
   4  -1  -5      0.10    0.72  0. 1.0000     0. 
  -4   1  -5     -0.61    0.76  0. 1.0000     0. 
  -4   1  -5      0.37    0.88  0. 1.0000     0. 
  -4   1   5     -0.45    0.76  0. 1.0000     0. 
   4  -1   5      0.20    0.93  0. 1.0000     0. 
   4  -2  -5     -0.52    0.72  0. 1.0000     0. 
  -4   2  -5      0.13    0.94  0. 1.0000     0. 
  -4   2  -5     -0.14    0.72  0. 1.0000     0. 
   4  -2  -5      0.29    0.92  0. 1.0000     0. 
  -4   2   5     -0.39    0.73  0. 1.0000     0. 
   4  -2   5      0.62    0.96  0. 1.0000     0. 
  -4   3  -5     15.05    1.37  0. 1.0000     0. 
  -4   3  -5     15.53    1.50  0. 1.0000     0. 
   4  -3  -5     15.75    1.49  0. 1.0000     0. 
   4  -3  -5     10.51    1.34  0. 1.0000     0. 
  -4   3   5     13.32    1.47  0. 1.0000     0. 
  -5  -3  -5      2.86    0.79  0. 1.0000     0. 
  -5  -3  -5      2.95    1.20  0. 1.0000     0. 
   5   3  -5      2.64    0.85  0. 1.0000     0. 
   5   3  -5      2.81    1.10  0. 1.0000     0. 
  -5  -3   5      0.53    0.75  0. 1.0000     0. 
   5   3   5      3.04    0.83  0. 1.0000     0. 
  -5  -2  -5      1.08    0.75  0. 1.0000     0. 
   5   2  -5      0.02    0.80  0. 1.0000     0. 
  -5  -2  -5      0.82    1.06  0. 1.0000     0. 
   5   2  -5      0.17    1.00  0. 1.0000     0. 
   5   2   5      1.32    0.83  0. 1.0000     0. 
  -5  -2   5      0.92    0.93  0. 1.0000     0. 
   5   1  -5      2.95    1.08  0. 1.0000     0. 
  -5  -1  -5      2.78    1.14  0. 1.0000     0. 
   5   1  -5      1.22    0.80  0. 1.0000     0. 
  -5  -1  -5      2.00    0.78  0. 1.0000     0. 
   5   1   5      2.98    1.05  0. 1.0000     0. 
  -5  -1   5      3.13    0.96  0. 1.0000     0. 
   5   1   5      2.51    0.84  0. 1.0000     0. 
  -5  -1   5      1.27    0.93  0. 1.0000     0. 
   5   0  -5      6.15    0.93  0. 1.0000     0. 
  -5   0  -5      7.02    1.18  0. 1.0000     0. 
  -5   0  -5      5.79    0.92  0. 1.0000     0. 
   5   0  -5      5.51    1.16  0. 1.0000     0. 
   5   0   5      6.15    0.91  0. 1.0000     0. 
  -5   0   5      4.74    0.99  0. 1.0000     0. 
   5   0   5      5.63    1.19  0. 1.0000     0. 
  -5   1  -5      3.19    1.06  0. 1.0000     0. 
  -5   1  -5      1.89    0.85  0. 1.0000     0. 
   5  -1  -5      1.62    0.83  0. 1.0000     0. 
   5  -1  -5      1.32    1.02  0. 1.0000     0. 
  -5   1   5      1.20    0.93  0. 1.0000     0. 
   5  -1   5      1.06    1.06  0. 1.0000     0. 
   5  -2  -5      0.44    1.01  0. 1.0000     0. 
  -5   2  -5     -0.13    1.05  0. 1.0000     0. 
   5  -2  -5      0.05    0.78  0. 1.0000     0. 
  -5   2  -5      0.19    0.85  0. 1.0000     0. 
  -5   2   5     -0.34    0.85  0. 1.0000     0. 
   5  -2   5     -0.84    1.10  0. 1.0000     0. 
   5  -3  -5      3.78    1.12  0. 1.0000     0. 
   5  -3  -5      1.27    0.85  0. 1.0000     0. 
  -5   3  -5      3.12    0.92  0. 1.0000     0. 
  -5   3  -5      2.58    1.07  0. 1.0000     0. 
  -5   3   5      3.08    0.94  0. 1.0000     0. 
   5  -3   5      1.34    1.14  0. 1.0000     0. 
  -6  -3  -5      2.39    0.88  0. 1.0000     0. 
  -6  -3  -5      3.72    1.32  0. 1.0000     0. 
   6   3  -5      4.64    1.21  0. 1.0000     0. 
  -6  -3   5      0.26    0.78  0. 1.0000     0. 
   6   3   5      3.05    0.93  0. 1.0000     0. 
   6   2  -5     -0.45    1.17  0. 1.0000     0. 
   6   2  -5     -0.12    0.90  0. 1.0000     0. 
  -6  -2  -5      0.40    1.28  0. 1.0000     0. 
  -6  -2  -5     -0.19    0.90  0. 1.0000     0. 
   6   2   5      0.15    0.95  0. 1.0000     0. 
   6   2   5     -0.07    1.27  0. 1.0000     0. 
  -6  -2   5      1.04    1.08  0. 1.0000     0. 
   6   1  -5      1.17    1.12  0. 1.0000     0. 
  -6  -1  -5     -0.67    1.28  0. 1.0000     0. 
  -6  -1  -5      1.27    0.92  0. 1.0000     0. 
   6   1  -5      1.24    0.87  0. 1.0000     0. 
  -6  -1   5      2.07    1.06  0. 1.0000     0. 
  -6  -1   5      1.20    1.03  0. 1.0000     0. 
   6   1   5      1.07    1.21  0. 1.0000     0. 
   6   1   5      1.19    0.96  0. 1.0000     0. 
   6   0  -5      1.00    0.90  0. 1.0000     0. 
  -6   0  -5      2.37    0.97  0. 1.0000     0. 
  -6   0  -5      1.84    1.26  0. 1.0000     0. 
   6   0  -5      2.36    1.16  0. 1.0000     0. 
  -6   0   5      2.22    1.00  0. 1.0000     0. 
   6   0   5      1.77    0.91  0. 1.0000     0. 
   6   0   5      1.05    1.26  0. 1.0000     0. 
  -6   1  -5      3.79    1.01  0. 1.0000     0. 
  -6   1  -5      1.22    1.17  0. 1.0000     0. 
   6  -1  -5      1.49    1.12  0. 1.0000     0. 
   6  -1  -5      0.38    0.89  0. 1.0000     0. 
   6  -1   5     -0.04    0.89  0. 1.0000     0. 
   6  -1   5      1.40    1.26  0. 1.0000     0. 
  -6   1   5      0.85    1.04  0. 1.0000     0. 
   6  -2  -5     -0.19    1.16  0. 1.0000     0. 
  -6   2  -5     -1.99    1.05  0. 1.0000     0. 
   6  -2  -5     -0.06    0.95  0. 1.0000     0. 
  -6   2  -5      2.19    1.23  0. 1.0000     0. 
   6  -2   5      0.00    1.37  0. 1.0000     0. 
  -6   2   5      1.80    1.09  0. 1.0000     0. 
  -6   3  -5      0.58    1.14  0. 1.0000     0. 
   6  -3  -5      2.09    1.20  0. 1.0000     0. 
  -6   3  -5      3.11    1.09  0. 1.0000     0. 
   6  -3  -5      2.02    1.04  0. 1.0000     0. 
  -6   3   5      1.27    1.07  0. 1.0000     0. 
   6  -3   5      0.69    1.36  0. 1.0000     0. 
   6  -4  -5     -0.42    0.21  0. 1.0000     0. 
  -7  -3  -5      2.56    1.41  0. 1.0000     0. 
   7   3  -5      3.12    1.30  0. 1.0000     0. 
  -7  -3  -5      1.55    0.96  0. 1.0000     0. 
   7   3   5      3.12    1.07  0. 1.0000     0. 
  -7  -2  -5      0.59    0.95  0. 1.0000     0. 
   7   2  -5      0.79    1.30  0. 1.0000     0. 
  -7  -2  -5      1.04    1.45  0. 1.0000     0. 
   7   2  -5     -0.41    0.95  0. 1.0000     0. 
  -7  -2   5      0.82    1.31  0. 1.0000     0. 
   7   2   5      0.68    1.06  0. 1.0000     0. 
  -7  -2   5     -0.71    1.09  0. 1.0000     0. 
   7   2   5     -0.73    1.40  0. 1.0000     0. 
   7   1  -5      0.42    0.98  0. 1.0000     0. 
  -7  -1  -5      2.62    1.04  0. 1.0000     0. 
  -7  -1  -5      1.05    1.44  0. 1.0000     0. 
   7   1  -5      1.75    1.25  0. 1.0000     0. 
   7   1   5      1.57    1.41  0. 1.0000     0. 
  -7  -1   5     -0.20    1.16  0. 1.0000     0. 
  -7  -1   5      2.18    1.14  0. 1.0000     0. 
   7   1   5      1.96    1.07  0. 1.0000     0. 
  -7   0  -5      1.05    1.41  0. 1.0000     0. 
   7   0  -5     -0.38    1.21  0. 1.0000     0. 
  -7   0  -5      1.81    1.10  0. 1.0000     0. 
   7   0  -5      0.24    0.95  0. 1.0000     0. 
   7   0   5     -0.08    1.51  0. 1.0000     0. 
   7   0   5      1.09    1.00  0. 1.0000     0. 
  -7   0   5      1.54    1.17  0. 1.0000     0. 
   7  -1  -5      0.76    1.22  0. 1.0000     0. 
  -7   1  -5      0.74    1.33  0. 1.0000     0. 
   7  -1  -5     -0.96    0.99  0. 1.0000     0. 
  -7   1  -5     -0.29    1.14  0. 1.0000     0. 
   7  -1   5      0.62    1.50  0. 1.0000     0. 
  -7   1   5      0.87    1.15  0. 1.0000     0. 
   7  -1   5      0.34    1.01  0. 1.0000     0. 
  -7   2  -5     -1.42    1.32  0. 1.0000     0. 
  -7   2  -5     -0.50    1.09  0. 1.0000     0. 
   7  -2  -5      1.22    1.22  0. 1.0000     0. 
   7  -2  -5      1.04    1.05  0. 1.0000     0. 
  -7   2   5     -1.01    1.14  0. 1.0000     0. 
   7  -2   5      2.43    1.56  0. 1.0000     0. 
  -7   3  -5      2.12    1.20  0. 1.0000     0. 
   7  -3  -5      3.38    1.16  0. 1.0000     0. 
  -7   3  -5      3.38    1.32  0. 1.0000     0. 
   7  -3  -5      2.65    1.49  0. 1.0000     0. 
  -7   3   5      1.11    1.18  0. 1.0000     0. 
   7  -3   5      0.45    1.56  0. 1.0000     0. 
  -7   4  -5     -0.38    0.22  0. 1.0000     0. 
   7  -4  -5     -0.36    0.25  0. 1.0000     0. 
  -8  -3  -5     28.04    2.08  0. 1.0000     0. 
   8   3  -5     24.98    2.53  0. 1.0000     0. 
  -8  -3  -5     27.08    2.61  0. 1.0000     0. 
   8   3   5     27.24    2.29  0. 1.0000     0. 
   8   3   5     27.09    2.87  0. 1.0000     0. 
  -8  -2  -5     19.41    1.86  0. 1.0000     0. 
   8   2  -5     18.45    1.92  0. 1.0000     0. 
  -8  -2  -5     17.58    2.57  0. 1.0000     0. 
   8   2  -5     14.60    2.09  0. 1.0000     0. 
   8   2   5     18.68    2.64  0. 1.0000     0. 
  -8  -2   5     18.04    1.93  0. 1.0000     0. 
   8   2   5     17.98    2.02  0. 1.0000     0. 
  -8  -2   5     17.51    1.94  0. 1.0000     0. 
   8   1  -5     17.29    2.17  0. 1.0000     0. 
  -8  -1  -5     21.15    2.48  0. 1.0000     0. 
   8   1  -5     16.24    1.92  0. 1.0000     0. 
  -8  -1  -5     17.79    1.93  0. 1.0000     0. 
   8   1   5     21.75    2.10  0. 1.0000     0. 
  -8  -1   5     16.33    1.97  0. 1.0000     0. 
   8   1   5     19.35    2.14  0. 1.0000     0. 
  -8  -1   5     17.44    2.58  0. 1.0000     0. 
   8   0  -5     18.77    2.00  0. 1.0000     0. 
   8   0  -5     18.88    2.21  0. 1.0000     0. 
  -8   0  -5     23.12    2.61  0. 1.0000     0. 
  -8   0  -5     18.53    1.96  0. 1.0000     0. 
  -8   0   5     20.80    2.16  0. 1.0000     0. 
  -8   0   5     17.21    2.53  0. 1.0000     0. 
   8   0   5     17.70    2.10  0. 1.0000     0. 
   8   0   5     25.17    2.95  0. 1.0000     0. 
  -8   1  -5     16.16    2.28  0. 1.0000     0. 
   8  -1  -5     18.27    2.15  0. 1.0000     0. 
  -8   1  -5     16.93    2.02  0. 1.0000     0. 
   8  -1  -5     18.92    2.02  0. 1.0000     0. 
   8  -1   5     17.60    2.08  0. 1.0000     0. 
  -8   1   5     17.23    1.72  0. 1.0000     0. 
   8  -1   5     21.95    2.30  0. 1.0000     0. 
  -8   2  -5     21.34    2.29  0. 1.0000     0. 
  -8   2  -5     18.45    2.09  0. 1.0000     0. 
   8  -2  -5     19.77    2.07  0. 1.0000     0. 
   8  -2  -5     19.12    2.17  0. 1.0000     0. 
   8  -2   5     21.38    2.34  0. 1.0000     0. 
  -8   2   5     20.04    2.37  0. 1.0000     0. 
   8  -3  -5     22.61    2.19  0. 1.0000     0. 
  -8   3  -5     23.89    2.35  0. 1.0000     0. 
  -8   3  -5     27.87    2.32  0. 1.0000     0. 
   8  -3  -5     17.57    2.47  0. 1.0000     0. 
  -8   3   5     21.08    2.20  0. 1.0000     0. 
  -8   4  -5     -0.02    0.24  0. 1.0000     0. 
  -9  -3  -5      8.47    2.16  0. 1.0000     0. 
  -9  -3  -5      2.39    1.25  0. 1.0000     0. 
   9   3  -5      4.38    1.72  0. 1.0000     0. 
   9   3   5      4.80    1.89  0. 1.0000     0. 
   9   3   5      3.19    1.31  0. 1.0000     0. 
  -9  -3   5      4.65    1.80  0. 1.0000     0. 
   9   2  -5     -0.29    1.55  0. 1.0000     0. 
  -9  -2  -5      0.32    1.20  0. 1.0000     0. 
   9   2  -5      1.14    1.20  0. 1.0000     0. 
  -9  -2  -5      3.75    1.98  0. 1.0000     0. 
  -9  -2   5      2.50    1.57  0. 1.0000     0. 
   9   2   5      3.13    1.25  0. 1.0000     0. 
   9   2   5      0.53    1.75  0. 1.0000     0. 
  -9  -2   5     -0.74    1.27  0. 1.0000     0. 
   9   1  -5      1.50    1.26  0. 1.0000     0. 
  -9  -1  -5      0.26    1.19  0. 1.0000     0. 
  -9  -1  -5      0.54    1.85  0. 1.0000     0. 
   9   1  -5     -1.25    1.51  0. 1.0000     0. 
   9   1   5     -0.82    1.19  0. 1.0000     0. 
  -9  -1   5      0.91    1.37  0. 1.0000     0. 
   9   1   5      1.83    1.88  0. 1.0000     0. 
  -9  -1   5      1.58    1.55  0. 1.0000     0. 
  -9   0  -5     -0.67    1.25  0. 1.0000     0. 
  -9   0  -5      1.22    1.72  0. 1.0000     0. 
   9   0  -5      1.02    1.48  0. 1.0000     0. 
   9   0  -5      1.47    1.22  0. 1.0000     0. 
   9   0   5      1.51    1.93  0. 1.0000     0. 
  -9   0   5     -0.45    1.36  0. 1.0000     0. 
  -9   0   5      1.90    1.51  0. 1.0000     0. 
   9   0   5     -0.14    1.23  0. 1.0000     0. 
   9  -1  -5     -0.45    1.18  0. 1.0000     0. 
  -9   1  -5     -0.09    1.35  0. 1.0000     0. 
  -9   1  -5      2.22    1.67  0. 1.0000     0. 
   9  -1  -5      1.65    1.47  0. 1.0000     0. 
   9  -1   5     -1.52    1.22  0. 1.0000     0. 
  -9   1   5      0.89    1.34  0. 1.0000     0. 
   9  -1   5     -1.54    2.12  0. 1.0000     0. 
   9  -2  -5     -0.05    1.29  0. 1.0000     0. 
  -9   2  -5      1.89    1.41  0. 1.0000     0. 
  -9   2  -5      1.29    1.58  0. 1.0000     0. 
   9  -2  -5      2.64    1.58  0. 1.0000     0. 
  -9   2   5      2.06    1.54  0. 1.0000     0. 
   9  -2   5      0.44    1.27  0. 1.0000     0. 
   9  -2   5      2.48    2.15  0. 1.0000     0. 
   9  -3  -5      2.05    0.92  0. 1.0000     0. 
  -9   3  -5      0.31    1.67  0. 1.0000     0. 
   9  -3  -5      3.74    1.38  0. 1.0000     0. 
  -9   3  -5      2.69    1.46  0. 1.0000     0. 
  -9   4  -5     10.01    0.54  0. 1.0000     0. 
 -10  -3  -5      0.34    1.06  0. 1.0000     0. 
 -10  -3  -5     -0.42    2.16  0. 1.0000     0. 
  10   3   5      3.44    1.10  0. 1.0000     0. 
  10   3   5      1.80    2.11  0. 1.0000     0. 
  10   2  -5     -2.59    1.67  0. 1.0000     0. 
  10   2  -5      0.91    1.25  0. 1.0000     0. 
 -10  -2  -5      0.50    2.04  0. 1.0000     0. 
 -10  -2  -5     -0.74    1.24  0. 1.0000     0. 
 -10  -2   5     -0.18    1.21  0. 1.0000     0. 
  10   2   5      1.07    1.28  0. 1.0000     0. 
  10   2   5     -1.64    2.09  0. 1.0000     0. 
 -10  -2   5     -0.42    1.60  0. 1.0000     0. 
 -10  -1  -5     -1.97    1.26  0. 1.0000     0. 
  10   1  -5     -0.53    1.61  0. 1.0000     0. 
 -10  -1  -5      1.94    1.97  0. 1.0000     0. 
  10   1  -5      1.02    1.31  0. 1.0000     0. 
  10   1   5     -1.81    2.23  0. 1.0000     0. 
 -10  -1   5     -1.31    1.56  0. 1.0000     0. 
  10   1   5      0.52    1.30  0. 1.0000     0. 
 -10  -1   5     -1.98    1.36  0. 1.0000     0. 
  10   0  -5     -0.65    1.33  0. 1.0000     0. 
 -10   0  -5     -0.39    1.36  0. 1.0000     0. 
  10   0  -5      2.38    1.62  0. 1.0000     0. 
 -10   0  -5      2.02    1.82  0. 1.0000     0. 
  10   0   5     -2.30    2.18  0. 1.0000     0. 
  10   0   5      1.19    1.34  0. 1.0000     0. 
 -10   0   5     -0.03    1.45  0. 1.0000     0. 
 -10   0   5      1.70    1.55  0. 1.0000     0. 
 -10   1  -5     -0.93    1.74  0. 1.0000     0. 
  10  -1  -5      0.07    1.33  0. 1.0000     0. 
 -10   1  -5     -1.25    1.38  0. 1.0000     0. 
  10  -1  -5      3.04    1.60  0. 1.0000     0. 
 -10   1   5      0.57    1.58  0. 1.0000     0. 
  10  -1   5     -2.13    1.32  0. 1.0000     0. 
  10  -1   5      0.29    2.31  0. 1.0000     0. 
  10  -2  -5     -0.05    1.37  0. 1.0000     0. 
 -10   2  -5      1.26    1.65  0. 1.0000     0. 
 -10   2  -5     -0.81    1.49  0. 1.0000     0. 
  10  -2  -5      0.30    1.64  0. 1.0000     0. 
  10  -2   5      0.83    1.43  0. 1.0000     0. 
 -10   2   5      1.54    1.64  0. 1.0000     0. 
  10  -2   5      0.01    2.25  0. 1.0000     0. 
 -10   3  -5      3.01    1.59  0. 1.0000     0. 
 -10   4  -5     34.44    1.42  0. 1.0000     0. 
 -11  -3  -5     -2.34    2.31  0. 1.0000     0. 
 -11  -2  -5      1.56    2.33  0. 1.0000     0. 
 -11  -2  -5      2.36    1.39  0. 1.0000     0. 
  11   2   5      3.30    1.39  0. 1.0000     0. 
 -11  -1  -5      2.89    2.07  0. 1.0000     0. 
 -11  -1  -5      2.76    1.46  0. 1.0000     0. 
  11   1   5     -0.55    1.36  0. 1.0000     0. 
  11   1   5      2.42    2.27  0. 1.0000     0. 
 -11   0  -5      1.54    1.89  0. 1.0000     0. 
 -11   0  -5      0.32    1.47  0. 1.0000     0. 
  11   0   5     -0.36    1.36  0. 1.0000     0. 
  11   0   5      1.92    2.65  0. 1.0000     0. 
 -11   1  -5     -1.23    1.51  0. 1.0000     0. 
 -11   1  -5      1.95    1.88  0. 1.0000     0. 
  11  -1   5      1.13    1.47  0. 1.0000     0. 
  11  -1   5     -0.25    2.69  0. 1.0000     0. 
 -11   2  -5     -0.01    1.72  0. 1.0000     0. 
 -11   2  -5      0.34    1.62  0. 1.0000     0. 
  11  -2   5      1.18    1.48  0. 1.0000     0. 
  11  -2   5      5.84    2.56  0. 1.0000     0. 
 -11   3  -5     -2.24    1.75  0. 1.0000     0. 
  11  -3   5      0.11    1.54  0. 1.0000     0. 
   0   0  -6     40.27    1.96  0. 1.0000     0. 
   0   0  -6     40.59    2.16  0. 1.0000     0. 
   0   0  -6     40.29    2.05  0. 1.0000     0. 
   0   0  -6     41.36    2.04  0. 1.0000     0. 
   0   0   6     38.45    2.08  0. 1.0000     0. 
   0   0   6     41.60    1.94  0. 1.0000     0. 
   0   0   6     39.40    2.16  0. 1.0000     0. 
   0  -1  -6     26.03    1.55  0. 1.0000     0. 
   0  -1  -6     23.49    1.59  0. 1.0000     0. 
  -1   0  -6     23.14    1.60  0. 1.0000     0. 
   0   1  -6     24.43    1.50  0. 1.0000     0. 
   1   0  -6     23.71    1.43  0. 1.0000     0. 
   1   0  -6     22.97    1.57  0. 1.0000     0. 
   0   1  -6     22.76    1.44  0. 1.0000     0. 
   1   0  -6     21.92    1.66  0. 1.0000     0. 
   0  -1  -6     24.46    1.51  0. 1.0000     0. 
   1   0  -6     24.35    1.30  0. 1.0000     0. 
   0  -1  -6     24.68    1.32  0. 1.0000     0. 
  -1   0  -6     22.51    1.53  0. 1.0000     0. 
   0   1  -6     23.65    1.63  0. 1.0000     0. 
  -1   0  -6     23.83    1.43  0. 1.0000     0. 
  -1   0  -6     25.78    1.45  0. 1.0000     0. 
   0   1  -6     23.13    1.38  0. 1.0000     0. 
  -1   0   6     23.05    1.69  0. 1.0000     0. 
   0  -1   6     22.14    1.49  0. 1.0000     0. 
  -1   0   6     22.30    1.46  0. 1.0000     0. 
   0  -1   6     22.04    1.62  0. 1.0000     0. 
   0  -1   6     20.57    1.53  0. 1.0000     0. 
   0   1   6     18.94    1.54  0. 1.0000     0. 
   1   0   6     23.66    1.59  0. 1.0000     0. 
   0   1   6     23.65    1.54  0. 1.0000     0. 
  -1   0   6     24.56    1.31  0. 1.0000     0. 
   1   0   6     21.61    1.57  0. 1.0000     0. 
   0   1   6     26.15    1.40  0. 1.0000     0. 
   1   0   6     22.60    1.44  0. 1.0000     0. 
   1   1  -6     12.23    1.36  0. 1.0000     0. 
  -1  -1  -6     11.17    1.19  0. 1.0000     0. 
   1  -1  -6     11.81    0.92  0. 1.0000     0. 
  -1   1  -6     10.10    1.28  0. 1.0000     0. 
  -1  -1  -6     13.36    1.16  0. 1.0000     0. 
   1   1  -6     12.70    1.16  0. 1.0000     0. 
   1   1  -6      9.89    1.01  0. 1.0000     0. 
  -1   1  -6     11.06    1.02  0. 1.0000     0. 
   1  -1  -6     12.17    1.23  0. 1.0000     0. 
  -1   1  -6     11.41    1.23  0. 1.0000     0. 
   1  -1  -6      9.32    1.19  0. 1.0000     0. 
   1  -1  -6     10.42    1.18  0. 1.0000     0. 
  -1   1  -6     12.31    1.10  0. 1.0000     0. 
  -1  -1  -6     13.69    1.07  0. 1.0000     0. 
   1   1  -6     10.21    0.99  0. 1.0000     0. 
  -1  -1  -6     11.72    1.31  0. 1.0000     0. 
   1   1   6     12.51    1.26  0. 1.0000     0. 
  -1   1   6     10.34    1.17  0. 1.0000     0. 
   1   1   6     10.59    1.17  0. 1.0000     0. 
  -1  -1   6     11.38    1.42  0. 1.0000     0. 
  -1   1   6     12.38    0.95  0. 1.0000     0. 
   1  -1   6     12.15    1.17  0. 1.0000     0. 
  -1   1   6     10.20    1.37  0. 1.0000     0. 
  -1  -1   6      9.04    1.20  0. 1.0000     0. 
   1   1   6     10.83    1.12  0. 1.0000     0. 
  -1  -1   6     10.85    1.10  0. 1.0000     0. 
   1  -1   6     10.69    1.26  0. 1.0000     0. 
   1  -1   6     12.42    1.28  0. 1.0000     0. 
  -1   2  -6     28.28    1.73  0. 1.0000     0. 
   1  -2  -6     27.58    1.84  0. 1.0000     0. 
   2   1  -6     31.95    1.49  0. 1.0000     0. 
   2   1  -6     28.35    1.72  0. 1.0000     0. 
  -1   2  -6     32.46    1.76  0. 1.0000     0. 
  -2  -1  -6     29.79    1.67  0. 1.0000     0. 
  -2  -1  -6     32.15    1.63  0. 1.0000     0. 
  -1   2  -6     31.94    1.70  0. 1.0000     0. 
  -2  -1  -6     31.56    1.70  0. 1.0000     0. 
   2   1  -6     29.92    1.90  0. 1.0000     0. 
  -2  -1  -6     30.60    1.89  0. 1.0000     0. 
   1  -2  -6     27.32    1.76  0. 1.0000     0. 
   1  -2  -6     26.94    1.67  0. 1.0000     0. 
   2   1   6     30.09    1.85  0. 1.0000     0. 
   1  -2   6     29.03    1.80  0. 1.0000     0. 
  -1   2   6     28.71    1.84  0. 1.0000     0. 
  -2  -1   6     28.00    1.78  0. 1.0000     0. 
   2   1   6     30.46    1.72  0. 1.0000     0. 
  -2  -1   6     29.91    1.95  0. 1.0000     0. 
   2   1   6     27.07    1.63  0. 1.0000     0. 
   2   0  -6     52.27    2.58  0. 1.0000     0. 
  -2   0  -6     52.33    2.48  0. 1.0000     0. 
   0  -2  -6     50.24    2.51  0. 1.0000     0. 
  -2   0  -6     56.21    2.51  0. 1.0000     0. 
   2   0  -6     50.32    2.65  0. 1.0000     0. 
   0   2  -6     52.58    2.47  0. 1.0000     0. 
  -2   0  -6     56.05    2.40  0. 1.0000     0. 
   2   0  -6     53.42    2.34  0. 1.0000     0. 
  -2   0  -6     51.63    2.65  0. 1.0000     0. 
   0   2  -6     50.79    2.43  0. 1.0000     0. 
   0  -2  -6     48.65    2.53  0. 1.0000     0. 
   0  -2  -6     54.05    2.37  0. 1.0000     0. 
   0   2  -6     51.74    2.57  0. 1.0000     0. 
   0  -2  -6     54.38    2.58  0. 1.0000     0. 
   0   2   6     52.35    2.38  0. 1.0000     0. 
   0   2   6     51.23    2.55  0. 1.0000     0. 
  -2   0   6     49.79    2.69  0. 1.0000     0. 
   2   0   6     49.42    2.61  0. 1.0000     0. 
   2   0   6     54.95    2.46  0. 1.0000     0. 
   2   0   6     52.98    2.50  0. 1.0000     0. 
   0  -2   6     51.36    2.51  0. 1.0000     0. 
   2   0   6     55.66    2.50  0. 1.0000     0. 
  -1  -2  -6     31.70    1.72  0. 1.0000     0. 
  -2   1  -6     30.89    1.72  0. 1.0000     0. 
   1   2  -6     25.92    1.70  0. 1.0000     0. 
   2  -1  -6     30.26    1.86  0. 1.0000     0. 
   2  -1  -6     30.56    1.75  0. 1.0000     0. 
  -2   1  -6     30.91    1.76  0. 1.0000     0. 
   1   2  -6     29.80    1.85  0. 1.0000     0. 
  -2   1  -6     30.93    1.83  0. 1.0000     0. 
  -1  -2  -6     29.69    1.84  0. 1.0000     0. 
  -2   1  -6     29.34    1.58  0. 1.0000     0. 
  -1  -2  -6     31.72    1.79  0. 1.0000     0. 
  -1  -2  -6     30.20    1.60  0. 1.0000     0. 
   1   2  -6     29.58    1.61  0. 1.0000     0. 
  -1  -2   6     29.67    1.79  0. 1.0000     0. 
   1   2   6     30.41    1.68  0. 1.0000     0. 
   1   2   6     29.59    1.73  0. 1.0000     0. 
   2  -1   6     30.62    1.66  0. 1.0000     0. 
   2  -1   6     29.44    1.70  0. 1.0000     0. 
  -2   1   6     33.54    1.95  0. 1.0000     0. 
   2  -1   6     28.73    1.88  0. 1.0000     0. 
   2  -2  -6     43.90    2.41  0. 1.0000     0. 
  -2   2  -6     48.73    2.28  0. 1.0000     0. 
   2   2  -6     48.14    2.12  0. 1.0000     0. 
  -2   2  -6     45.35    2.31  0. 1.0000     0. 
  -2  -2  -6     48.30    2.20  0. 1.0000     0. 
   2   2  -6     47.31    2.45  0. 1.0000     0. 
  -2  -2  -6     47.55    2.44  0. 1.0000     0. 
   2   2  -6     48.65    2.35  0. 1.0000     0. 
  -2   2  -6     44.04    2.39  0. 1.0000     0. 
  -2  -2  -6     45.42    2.29  0. 1.0000     0. 
   2  -2  -6     43.20    2.34  0. 1.0000     0. 
  -2  -2  -6     48.64    2.24  0. 1.0000     0. 
  -2   2   6     43.00    2.43  0. 1.0000     0. 
   2  -2   6     46.19    2.43  0. 1.0000     0. 
  -2  -2   6     38.77    2.31  0. 1.0000     0. 
   2   2   6     45.56    2.28  0. 1.0000     0. 
   2   2   6     44.18    2.20  0. 1.0000     0. 
  -3  -2  -6     79.73    3.64  0. 1.0000     0. 
   2  -3  -6     80.50    3.51  0. 1.0000     0. 
  -3  -2  -6     81.39    3.45  0. 1.0000     0. 
   2  -3  -6     73.13    3.60  0. 1.0000     0. 
   3   2  -6     78.46    3.63  0. 1.0000     0. 
   3   2  -6     75.49    3.52  0. 1.0000     0. 
  -2   3   6     71.97    3.60  0. 1.0000     0. 
   3   2   6     73.11    3.48  0. 1.0000     0. 
  -3  -2   6     75.91    3.57  0. 1.0000     0. 
   1  -3  -6     62.31    2.91  0. 1.0000     0. 
  -3  -1  -6     64.01    3.14  0. 1.0000     0. 
  -3  -1  -6     66.92    2.95  0. 1.0000     0. 
   3   1  -6     58.95    3.07  0. 1.0000     0. 
   3   1  -6     66.61    3.00  0. 1.0000     0. 
   1  -3  -6     63.63    2.97  0. 1.0000     0. 
   1  -3  -6     64.78    3.10  0. 1.0000     0. 
  -1   3   6     61.08    3.02  0. 1.0000     0. 
  -3  -1   6     63.57    3.05  0. 1.0000     0. 
  -3  -1   6     62.87    3.17  0. 1.0000     0. 
   3   1   6     59.48    3.08  0. 1.0000     0. 
   3   1   6     60.46    2.96  0. 1.0000     0. 
   0  -3  -6     80.03    3.95  0. 1.0000     0. 
   0  -3  -6     91.05    4.01  0. 1.0000     0. 
   3   0  -6     95.89    4.11  0. 1.0000     0. 
  -3   0  -6     96.77    3.91  0. 1.0000     0. 
   3   0  -6     90.40    4.16  0. 1.0000     0. 
  -3   0  -6     96.04    4.01  0. 1.0000     0. 
  -3   0  -6     92.26    4.19  0. 1.0000     0. 
   3   0   6     89.86    4.14  0. 1.0000     0. 
   3   0   6     88.01    4.00  0. 1.0000     0. 
  -3   0   6     90.19    4.17  0. 1.0000     0. 
  -3   1  -6     70.12    2.97  0. 1.0000     0. 
   3  -1  -6     65.31    3.01  0. 1.0000     0. 
  -3   1  -6     63.63    3.10  0. 1.0000     0. 
  -3   1  -6     65.28    2.98  0. 1.0000     0. 
   3  -1  -6     58.96    3.11  0. 1.0000     0. 
  -1  -3  -6     63.95    2.90  0. 1.0000     0. 
  -1  -3  -6     61.44    3.02  0. 1.0000     0. 
  -3   1   6     65.00    3.19  0. 1.0000     0. 
   3  -1   6     63.85    2.90  0. 1.0000     0. 
   3  -1   6     59.15    3.09  0. 1.0000     0. 
  -2  -3  -6     76.52    3.42  0. 1.0000     0. 
  -3   2  -6     81.44    3.36  0. 1.0000     0. 
   3  -2  -6     75.96    3.33  0. 1.0000     0. 
   3  -2  -6     71.39    3.45  0. 1.0000     0. 
   2   3  -6     60.42    3.46  0. 1.0000     0. 
  -3   2  -6     76.93    3.45  0. 1.0000     0. 
  -3   2  -6     72.89    3.19  0. 1.0000     0. 
  -2  -3  -6     74.58    3.20  0. 1.0000     0. 
   3  -2   6     63.99    3.42  0. 1.0000     0. 
  -3   2   6     73.22    3.44  0. 1.0000     0. 
   2   3   6     62.17    3.20  0. 1.0000     0. 
   3   3  -6     97.48    4.34  0. 1.0000     0. 
   3  -3  -6     92.70    4.39  0. 1.0000     0. 
  -3  -3  -6     94.81    4.38  0. 1.0000     0. 
  -3   3  -6     93.57    4.26  0. 1.0000     0. 
  -3  -3  -6    104.10    4.23  0. 1.0000     0. 
   3  -3  -6     94.90    4.26  0. 1.0000     0. 
   3   3  -6    102.77    4.27  0. 1.0000     0. 
  -3   3   6     86.25    4.38  0. 1.0000     0. 
   3   3   6     96.51    4.22  0. 1.0000     0. 
   4   3  -6     68.19    3.50  0. 1.0000     0. 
  -4  -3  -6     73.58    3.35  0. 1.0000     0. 
   4   3  -6     70.37    3.44  0. 1.0000     0. 
  -4  -3  -6     72.95    3.58  0. 1.0000     0. 
   4   3   6     70.86    3.35  0. 1.0000     0. 
   4   2  -6     56.88    2.87  0. 1.0000     0. 
   4   2  -6     52.72    2.94  0. 1.0000     0. 
  -4  -2  -6     55.66    2.99  0. 1.0000     0. 
  -4  -2  -6     58.39    2.78  0. 1.0000     0. 
  -4  -2   6     60.85    2.91  0. 1.0000     0. 
   4   2   6     56.99    2.88  0. 1.0000     0. 
   4   2   6     56.83    3.02  0. 1.0000     0. 
  -4  -1  -6     51.75    2.83  0. 1.0000     0. 
   4   1  -6     48.49    2.58  0. 1.0000     0. 
  -4  -1  -6     50.63    2.58  0. 1.0000     0. 
   4   1  -6     49.16    2.73  0. 1.0000     0. 
   4   1   6     50.36    2.78  0. 1.0000     0. 
  -4  -1   6     52.94    2.90  0. 1.0000     0. 
   4   1   6     52.59    2.69  0. 1.0000     0. 
  -4  -1   6     51.00    2.67  0. 1.0000     0. 
  -4   0  -6     75.52    3.36  0. 1.0000     0. 
   4   0  -6     71.38    3.49  0. 1.0000     0. 
  -4   0  -6     69.63    3.56  0. 1.0000     0. 
   4   0  -6     73.09    3.42  0. 1.0000     0. 
   4   0   6     65.27    3.35  0. 1.0000     0. 
   4   0   6     71.07    3.52  0. 1.0000     0. 
  -4   0   6     73.80    3.60  0. 1.0000     0. 
   4  -1  -6     51.92    2.65  0. 1.0000     0. 
  -4   1  -6     56.04    2.64  0. 1.0000     0. 
  -4   1  -6     52.39    2.80  0. 1.0000     0. 
   4  -1  -6     50.76    2.72  0. 1.0000     0. 
  -4   1   6     48.83    2.95  0. 1.0000     0. 
   4  -1   6     49.76    2.79  0. 1.0000     0. 
   4  -2  -6     56.15    2.84  0. 1.0000     0. 
  -4   2  -6     51.63    2.83  0. 1.0000     0. 
  -4   2  -6     59.26    3.06  0. 1.0000     0. 
   4  -2  -6     55.45    2.92  0. 1.0000     0. 
   4  -2   6     58.58    3.05  0. 1.0000     0. 
  -4   2   6     57.83    3.04  0. 1.0000     0. 
   4  -3  -6     67.30    3.34  0. 1.0000     0. 
   4  -3  -6     64.93    3.41  0. 1.0000     0. 
  -4   3  -6     74.41    3.51  0. 1.0000     0. 
  -4   3  -6     69.80    3.32  0. 1.0000     0. 
  -4   3   6     64.73    3.53  0. 1.0000     0. 
   5   3  -6     49.86    2.82  0. 1.0000     0. 
   5   3  -6     49.77    2.75  0. 1.0000     0. 
  -5  -3  -6     49.02    2.89  0. 1.0000     0. 
  -5  -3  -6     50.85    2.67  0. 1.0000     0. 
   5   3   6     52.03    2.71  0. 1.0000     0. 
  -5  -2  -6     41.38    2.29  0. 1.0000     0. 
   5   2  -6     42.40    2.46  0. 1.0000     0. 
   5   2  -6     41.76    2.55  0. 1.0000     0. 
  -5  -2  -6     40.62    2.75  0. 1.0000     0. 
   5   2   6     43.92    2.50  0. 1.0000     0. 
  -5  -2   6     42.64    2.46  0. 1.0000     0. 
   5   2   6     41.07    2.70  0. 1.0000     0. 
  -5  -1  -6     42.70    2.43  0. 1.0000     0. 
  -5  -1  -6     43.11    2.75  0. 1.0000     0. 
   5   1  -6     43.57    2.46  0. 1.0000     0. 
   5   1  -6     43.28    2.61  0. 1.0000     0. 
   5   1   6     42.19    2.70  0. 1.0000     0. 
  -5  -1   6     42.75    2.55  0. 1.0000     0. 
  -5  -1   6     42.93    2.94  0. 1.0000     0. 
   5   1   6     46.80    2.59  0. 1.0000     0. 
  -5   0  -6     61.38    3.36  0. 1.0000     0. 
  -5   0  -6     53.70    3.02  0. 1.0000     0. 
   5   0  -6     59.48    3.09  0. 1.0000     0. 
   5   0  -6     62.16    3.24  0. 1.0000     0. 
  -5   0   6     63.91    3.48  0. 1.0000     0. 
   5   0   6     62.34    3.36  0. 1.0000     0. 
   5   0   6     59.80    3.08  0. 1.0000     0. 
  -5   1  -6     40.69    2.65  0. 1.0000     0. 
  -5   1  -6     42.05    2.41  0. 1.0000     0. 
   5  -1  -6     43.46    2.43  0. 1.0000     0. 
   5  -1  -6     40.02    2.48  0. 1.0000     0. 
   5  -1   6     42.58    2.78  0. 1.0000     0. 
  -5   1   6     37.13    2.78  0. 1.0000     0. 
   5  -1   6     42.75    2.34  0. 1.0000     0. 
   5  -2  -6     39.08    2.47  0. 1.0000     0. 
  -5   2  -6     43.34    2.71  0. 1.0000     0. 
  -5   2  -6     40.91    2.45  0. 1.0000     0. 
   5  -2  -6     41.69    2.43  0. 1.0000     0. 
   5  -2   6     41.49    2.85  0. 1.0000     0. 
  -5   2   6     41.09    2.67  0. 1.0000     0. 
   5  -3  -6     43.82    2.79  0. 1.0000     0. 
   5  -3  -6     46.30    2.72  0. 1.0000     0. 
  -5   3  -6     49.66    2.80  0. 1.0000     0. 
  -5   3  -6     51.28    2.67  0. 1.0000     0. 
  -5   3   6     49.85    3.00  0. 1.0000     0. 
   5  -3   6     48.04    3.00  0. 1.0000     0. 
   5  -4  -6     -0.39    0.55  0. 1.0000     0. 
  -5   4  -6     -0.33    0.17  0. 1.0000     0. 
   6   3  -6     33.24    2.31  0. 1.0000     0. 
   6   3  -6     25.22    2.16  0. 1.0000     0. 
  -6  -3  -6     31.48    2.08  0. 1.0000     0. 
  -6  -3  -6     27.92    2.32  0. 1.0000     0. 
   6   3   6     31.30    2.25  0. 1.0000     0. 
  -6  -2  -6     21.42    2.18  0. 1.0000     0. 
   6   2  -6     22.92    1.92  0. 1.0000     0. 
  -6  -2  -6     17.23    1.73  0. 1.0000     0. 
   6   2  -6     21.74    2.10  0. 1.0000     0. 
  -6  -2   6     21.73    2.61  0. 1.0000     0. 
   6   2   6     19.76    2.19  0. 1.0000     0. 
   6   2   6     21.54    1.99  0. 1.0000     0. 
  -6  -2   6     20.01    1.89  0. 1.0000     0. 
   6   1  -6     21.57    2.11  0. 1.0000     0. 
  -6  -1  -6     21.02    1.86  0. 1.0000     0. 
   6   1  -6     24.45    1.94  0. 1.0000     0. 
  -6  -1  -6     18.65    2.18  0. 1.0000     0. 
   6   1   6     26.22    2.28  0. 1.0000     0. 
  -6  -1   6     24.04    1.97  0. 1.0000     0. 
  -6  -1   6     22.08    2.54  0. 1.0000     0. 
  -6   0  -6     30.97    2.21  0. 1.0000     0. 
   6   0  -6     33.27    2.43  0. 1.0000     0. 
   6   0  -6     35.29    2.25  0. 1.0000     0. 
  -6   0  -6     33.68    2.52  0. 1.0000     0. 
  -6   0   6     38.28    2.80  0. 1.0000     0. 
   6   0   6     33.82    2.70  0. 1.0000     0. 
   6   0   6     33.49    2.29  0. 1.0000     0. 
  -6   1  -6     23.31    1.98  0. 1.0000     0. 
  -6   1  -6     20.51    2.05  0. 1.0000     0. 
   6  -1  -6     19.28    1.87  0. 1.0000     0. 
   6  -1  -6     23.40    2.03  0. 1.0000     0. 
   6  -1   6     20.19    1.89  0. 1.0000     0. 
   6  -1   6     21.00    2.37  0. 1.0000     0. 
  -6   1   6     24.26    2.53  0. 1.0000     0. 
  -6   2   6     40.55    2.87  0. 1.0000     0. 
   6  -3  -6     29.88    2.22  0. 1.0000     0. 
  -6   3  -6     26.24    2.29  0. 1.0000     0. 
   6  -3  -6     29.05    2.38  0. 1.0000     0. 
  -6   3  -6     26.59    2.27  0. 1.0000     0. 
  -6   3   6     30.72    2.62  0. 1.0000     0. 
   6  -3   6     28.21    2.60  0. 1.0000     0. 
  -6   4  -6     -0.54    0.23  0. 1.0000     0. 
   6  -4  -6     -0.29    0.54  0. 1.0000     0. 
   7   4   6      0.02    0.57  0. 1.0000     0. 
   7   3  -6     21.16    1.98  0. 1.0000     0. 
  -7  -3  -6     21.58    2.37  0. 1.0000     0. 
  -7  -3  -6     19.87    1.92  0. 1.0000     0. 
   7   3  -6     20.70    2.24  0. 1.0000     0. 
   7   3   6     21.35    2.16  0. 1.0000     0. 
   7   3   6     17.24    2.08  0. 1.0000     0. 
  -7  -2  -6     12.96    1.42  0. 1.0000     0. 
   7   2  -6     13.01    1.78  0. 1.0000     0. 
  -7  -2  -6     17.17    2.36  0. 1.0000     0. 
   7   2  -6     16.16    1.98  0. 1.0000     0. 
   7   2   6     14.84    1.53  0. 1.0000     0. 
  -7  -2   6     14.65    1.92  0. 1.0000     0. 
   7   2   6     12.64    1.86  0. 1.0000     0. 
  -7  -2   6     14.85    1.89  0. 1.0000     0. 
   7   1  -6     12.70    1.49  0. 1.0000     0. 
  -7  -1  -6     12.72    1.48  0. 1.0000     0. 
  -7  -1  -6     17.33    2.33  0. 1.0000     0. 
   7   1  -6     18.46    2.17  0. 1.0000     0. 
  -7  -1   6     16.99    1.96  0. 1.0000     0. 
   7   1   6     12.90    1.54  0. 1.0000     0. 
   7   1   6     13.90    1.95  0. 1.0000     0. 
  -7  -1   6     16.83    1.84  0. 1.0000     0. 
  -7   0  -6     20.53    2.13  0. 1.0000     0. 
   7   0  -6     26.05    2.22  0. 1.0000     0. 
  -7   0  -6     25.49    2.53  0. 1.0000     0. 
   7   0  -6     27.98    2.34  0. 1.0000     0. 
   7   0   6     25.58    2.79  0. 1.0000     0. 
   7   0   6     22.72    2.26  0. 1.0000     0. 
  -7   0   6     23.01    2.87  0. 1.0000     0. 
   7  -1  -6     16.31    1.81  0. 1.0000     0. 
  -7   1  -6     11.61    1.51  0. 1.0000     0. 
  -7   1  -6     14.38    1.79  0. 1.0000     0. 
   7  -1  -6     12.23    1.54  0. 1.0000     0. 
   7  -1   6     17.11    2.04  0. 1.0000     0. 
   7  -1   6     13.59    1.47  0. 1.0000     0. 
  -7   1   6     12.81    1.78  0. 1.0000     0. 
  -7   2  -6     12.18    1.51  0. 1.0000     0. 
   7  -2  -6     12.57    1.54  0. 1.0000     0. 
   7  -2  -6     14.41    2.05  0. 1.0000     0. 
  -7   2  -6     14.79    1.87  0. 1.0000     0. 
  -7   2   6     14.99    1.81  0. 1.0000     0. 
   7  -2   6     15.64    2.08  0. 1.0000     0. 
   7  -3  -6     18.99    2.14  0. 1.0000     0. 
  -7   3  -6     17.32    2.10  0. 1.0000     0. 
   7  -3  -6     20.26    2.36  0. 1.0000     0. 
  -7   3  -6     15.71    1.71  0. 1.0000     0. 
  -7   3   6     19.27    2.51  0. 1.0000     0. 
   7  -3   6     20.11    2.55  0. 1.0000     0. 
   7  -4  -6      0.03    0.47  0. 1.0000     0. 
  -7   4  -6     -0.21    0.23  0. 1.0000     0. 
  -8  -3  -6     35.50    3.02  0. 1.0000     0. 
   8   3  -6     31.46    2.90  0. 1.0000     0. 
  -8  -3  -6     29.56    2.43  0. 1.0000     0. 
  -8  -3   6     25.54    3.45  0. 1.0000     0. 
   8   3   6     33.11    2.63  0. 1.0000     0. 
   8   3   6     28.12    2.97  0. 1.0000     0. 
   8   2  -6     28.70    2.45  0. 1.0000     0. 
  -8  -2  -6     27.30    2.27  0. 1.0000     0. 
   8   2  -6     28.74    2.57  0. 1.0000     0. 
  -8  -2  -6     30.69    2.90  0. 1.0000     0. 
   8   2   6     27.93    2.48  0. 1.0000     0. 
   8   2   6     24.62    2.90  0. 1.0000     0. 
  -8  -2   6     28.00    2.35  0. 1.0000     0. 
  -8  -2   6     31.98    3.34  0. 1.0000     0. 
  -8  -1  -6     30.43    2.82  0. 1.0000     0. 
   8   1  -6     29.09    2.49  0. 1.0000     0. 
  -8  -1  -6     27.69    2.36  0. 1.0000     0. 
   8   1  -6     34.82    2.75  0. 1.0000     0. 
  -8  -1   6     30.63    3.23  0. 1.0000     0. 
   8   1   6     29.92    2.50  0. 1.0000     0. 
  -8  -1   6     30.50    2.41  0. 1.0000     0. 
   8   1   6     28.40    2.95  0. 1.0000     0. 
   8   0  -6     40.01    2.72  0. 1.0000     0. 
  -8   0  -6     37.15    2.96  0. 1.0000     0. 
   8   0  -6     41.81    2.89  0. 1.0000     0. 
  -8   0  -6     37.81    2.65  0. 1.0000     0. 
  -8   0   6     41.85    2.74  0. 1.0000     0. 
  -8   0   6     38.14    3.38  0. 1.0000     0. 
   8   0   6     45.91    2.77  0. 1.0000     0. 
   8   0   6     37.73    3.27  0. 1.0000     0. 
  -8   1  -6     26.10    2.67  0. 1.0000     0. 
  -8   1  -6     33.26    2.45  0. 1.0000     0. 
   8  -1  -6     32.04    2.54  0. 1.0000     0. 
   8  -1  -6     31.09    2.62  0. 1.0000     0. 
  -8   1   6     33.17    2.90  0. 1.0000     0. 
   8  -1   6     29.64    2.55  0. 1.0000     0. 
   8  -1   6     29.57    3.10  0. 1.0000     0. 
  -8   2  -6     26.04    2.47  0. 1.0000     0. 
   8  -2  -6     31.24    2.54  0. 1.0000     0. 
   8  -2  -6     25.95    2.64  0. 1.0000     0. 
  -8   2  -6     30.80    2.61  0. 1.0000     0. 
   8  -2   6     31.58    2.43  0. 1.0000     0. 
   8  -2   6     30.61    3.05  0. 1.0000     0. 
  -8   2   6     28.60    3.05  0. 1.0000     0. 
   8  -3  -6     32.29    2.70  0. 1.0000     0. 
   8  -3  -6     27.96    3.08  0. 1.0000     0. 
  -8   3  -6     31.57    2.60  0. 1.0000     0. 
  -8   3  -6     29.65    2.72  0. 1.0000     0. 
  -8   3   6     29.46    2.95  0. 1.0000     0. 
   8  -3   6     31.01    3.13  0. 1.0000     0. 
  -9  -3  -6     20.47    2.90  0. 1.0000     0. 
  -9  -3  -6     20.15    2.09  0. 1.0000     0. 
   9   3  -6     21.67    2.64  0. 1.0000     0. 
   9   3   6     18.33    1.96  0. 1.0000     0. 
   9   3   6     14.90    2.29  0. 1.0000     0. 
  -9  -3   6     11.06    2.30  0. 1.0000     0. 
   9   2  -6     14.92    2.04  0. 1.0000     0. 
   9   2  -6     13.45    1.65  0. 1.0000     0. 
  -9  -2  -6     13.16    2.20  0. 1.0000     0. 
  -9  -2  -6     13.29    1.60  0. 1.0000     0. 
  -9  -2   6     16.00    2.09  0. 1.0000     0. 
  -9  -2   6     12.13    2.10  0. 1.0000     0. 
   9   2   6     12.28    2.25  0. 1.0000     0. 
   9   2   6     14.82    1.73  0. 1.0000     0. 
   9   1  -6     14.11    2.02  0. 1.0000     0. 
  -9  -1  -6     16.59    2.08  0. 1.0000     0. 
   9   1  -6     16.27    1.82  0. 1.0000     0. 
  -9  -1  -6     11.98    2.18  0. 1.0000     0. 
   9   1   6     15.70    2.42  0. 1.0000     0. 
  -9  -1   6     15.80    2.28  0. 1.0000     0. 
  -9  -1   6     16.52    1.90  0. 1.0000     0. 
   9   1   6     11.56    1.68  0. 1.0000     0. 
  -9   0  -6     22.85    2.68  0. 1.0000     0. 
   9   0  -6     24.00    2.57  0. 1.0000     0. 
   9   0  -6     20.87    2.42  0. 1.0000     0. 
  -9   0  -6     19.24    2.30  0. 1.0000     0. 
   9   0   6     20.04    1.88  0. 1.0000     0. 
  -9   0   6     22.71    2.40  0. 1.0000     0. 
   9   0   6     24.67    3.13  0. 1.0000     0. 
  -9   0   6     26.36    3.11  0. 1.0000     0. 
  -9   1  -6     13.51    2.12  0. 1.0000     0. 
   9  -1  -6     17.53    2.05  0. 1.0000     0. 
   9  -1  -6     12.32    1.67  0. 1.0000     0. 
  -9   1  -6     14.14    1.75  0. 1.0000     0. 
   9  -1   6     14.56    1.65  0. 1.0000     0. 
  -9   1   6     17.36    2.07  0. 1.0000     0. 
   9  -1   6     12.24    2.41  0. 1.0000     0. 
   9  -2  -6     12.71    1.75  0. 1.0000     0. 
  -9   2  -6     14.37    1.84  0. 1.0000     0. 
  -9   2  -6     11.59    1.96  0. 1.0000     0. 
   9  -2  -6     15.45    2.03  0. 1.0000     0. 
   9  -2   6     15.47    2.41  0. 1.0000     0. 
  -9   2   6     15.68    2.11  0. 1.0000     0. 
   9  -2   6     13.89    1.67  0. 1.0000     0. 
  -9   3  -6     19.49    2.48  0. 1.0000     0. 
   9  -3  -6     20.39    2.62  0. 1.0000     0. 
  -9   3  -6     18.14    2.58  0. 1.0000     0. 
   9  -4  -6     36.00    1.47  0. 1.0000     0. 
 -10  -3  -6     11.12    2.41  0. 1.0000     0. 
  10   3  -6     10.40    2.09  0. 1.0000     0. 
 -10  -3  -6     12.27    1.60  0. 1.0000     0. 
  10   3   6     14.48    2.47  0. 1.0000     0. 
 -10  -3   6      5.51    2.06  0. 1.0000     0. 
  10   3   6     10.73    1.66  0. 1.0000     0. 
  10   2  -6      7.23    1.95  0. 1.0000     0. 
 -10  -2  -6      5.70    2.27  0. 1.0000     0. 
 -10  -2  -6      6.90    1.52  0. 1.0000     0. 
  10   2  -6      8.75    1.57  0. 1.0000     0. 
 -10  -2   6      6.88    1.64  0. 1.0000     0. 
  10   2   6     10.08    2.38  0. 1.0000     0. 
 -10  -2   6      8.53    1.97  0. 1.0000     0. 
  10   2   6      7.69    1.60  0. 1.0000     0. 
  10   1  -6      6.33    1.96  0. 1.0000     0. 
 -10  -1  -6      6.22    2.26  0. 1.0000     0. 
  10   1  -6      6.93    1.58  0. 1.0000     0. 
 -10  -1  -6      6.92    1.52  0. 1.0000     0. 
 -10  -1   6      5.22    1.72  0. 1.0000     0. 
  10   1   6      5.00    1.55  0. 1.0000     0. 
  10   1   6      9.35    2.62  0. 1.0000     0. 
 -10  -1   6      8.26    2.21  0. 1.0000     0. 
  10   0  -6     15.65    2.04  0. 1.0000     0. 
  10   0  -6     10.93    1.77  0. 1.0000     0. 
 -10   0  -6     12.45    1.76  0. 1.0000     0. 
 -10   0  -6     11.32    2.23  0. 1.0000     0. 
 -10   0   6     12.89    1.90  0. 1.0000     0. 
 -10   0   6     15.34    2.18  0. 1.0000     0. 
  10   0   6      7.80    2.57  0. 1.0000     0. 
  10   0   6      9.85    1.69  0. 1.0000     0. 
  10  -1  -6      7.95    1.60  0. 1.0000     0. 
 -10   1  -6     10.12    2.12  0. 1.0000     0. 
  10  -1  -6     10.12    1.93  0. 1.0000     0. 
 -10   1  -6      4.68    1.62  0. 1.0000     0. 
 -10   1   6      8.79    1.87  0. 1.0000     0. 
  10  -1   6      6.33    1.55  0. 1.0000     0. 
  10  -1   6      8.75    2.63  0. 1.0000     0. 
 -10   1   6      7.87    2.14  0. 1.0000     0. 
 -10   2  -6      7.48    2.05  0. 1.0000     0. 
 -10   2  -6      4.32    1.65  0. 1.0000     0. 
  10  -2  -6      9.29    2.08  0. 1.0000     0. 
  10  -2  -6      6.90    1.66  0. 1.0000     0. 
 -10   2   6     12.71    2.12  0. 1.0000     0. 
  10  -2   6      8.35    2.50  0. 1.0000     0. 
  10  -2   6      8.69    1.67  0. 1.0000     0. 
 -10   3  -6     11.50    1.89  0. 1.0000     0. 
  10  -3  -6      7.10    1.78  0. 1.0000     0. 
 -10   3  -6      9.33    1.92  0. 1.0000     0. 
  10  -3   6     10.67    1.71  0. 1.0000     0. 
 -10   4  -6     41.84    1.71  0. 1.0000     0. 
 -11  -2  -6      9.81    2.70  0. 1.0000     0. 
 -11   2  -6      7.43    2.19  0. 1.0000     0. 
   0   0  -7    190.82    7.77  0. 1.0000     0. 
   0   0  -7    182.57    7.69  0. 1.0000     0. 
   0   0  -7    185.93    7.68  0. 1.0000     0. 
   0   0  -7    187.32    7.61  0. 1.0000     0. 
   0   0   7    187.92    7.72  0. 1.0000     0. 
   0   0   7    175.43    7.77  0. 1.0000     0. 
   0   0   7    190.64    7.61  0. 1.0000     0. 
   0  -1  -7    104.43    4.34  0. 1.0000     0. 
   0   1  -7    102.87    4.27  0. 1.0000     0. 
   0  -1  -7    100.60    4.37  0. 1.0000     0. 
   0   1  -7     99.17    4.35  0. 1.0000     0. 
   1   0  -7    101.15    4.48  0. 1.0000     0. 
  -1   0  -7     97.52    4.40  0. 1.0000     0. 
  -1   0  -7    102.27    4.39  0. 1.0000     0. 
   0   1  -7     99.06    4.32  0. 1.0000     0. 
  -1   0  -7    100.40    4.29  0. 1.0000     0. 
   0  -1  -7     99.23    4.21  0. 1.0000     0. 
  -1   0  -7    107.54    4.30  0. 1.0000     0. 
   1   0  -7     95.99    4.35  0. 1.0000     0. 
   0  -1  -7    100.57    4.41  0. 1.0000     0. 
   0   1  -7    105.01    4.48  0. 1.0000     0. 
   1   0  -7    102.16    4.29  0. 1.0000     0. 
   1   0  -7    103.79    4.20  0. 1.0000     0. 
   0   1   7     94.11    4.24  0. 1.0000     0. 
   0  -1   7     94.15    4.45  0. 1.0000     0. 
   0   1   7     96.80    4.44  0. 1.0000     0. 
   0  -1   7    101.18    4.25  0. 1.0000     0. 
  -1   0   7    101.21    4.20  0. 1.0000     0. 
   1   0   7     95.12    4.42  0. 1.0000     0. 
   1   0   7     95.88    4.38  0. 1.0000     0. 
   0   1   7     85.81    4.34  0. 1.0000     0. 
  -1   0   7    100.30    4.32  0. 1.0000     0. 
   0  -1   7     96.80    4.37  0. 1.0000     0. 
  -1   0   7     95.54    4.50  0. 1.0000     0. 
   0  -1   7     97.40    4.40  0. 1.0000     0. 
   1   0   7     97.05    4.35  0. 1.0000     0. 
   1   0   7    100.07    4.28  0. 1.0000     0. 
   1  -1  -7     40.77    1.92  0. 1.0000     0. 
   1   1  -7     37.73    2.06  0. 1.0000     0. 
  -1   1  -7     37.70    2.09  0. 1.0000     0. 
   1   1  -7     41.42    2.01  0. 1.0000     0. 
  -1  -1  -7     40.82    2.29  0. 1.0000     0. 
  -1   1  -7     40.80    2.10  0. 1.0000     0. 
   1  -1  -7     42.28    2.17  0. 1.0000     0. 
  -1   1  -7     41.12    2.25  0. 1.0000     0. 
   1   1  -7     38.94    2.16  0. 1.0000     0. 
  -1  -1  -7     39.63    2.07  0. 1.0000     0. 
   1  -1  -7     40.58    2.19  0. 1.0000     0. 
  -1  -1  -7     40.38    2.20  0. 1.0000     0. 
   1   1  -7     41.41    2.41  0. 1.0000     0. 
   1  -1  -7     38.26    2.29  0. 1.0000     0. 
  -1  -1  -7     40.05    2.11  0. 1.0000     0. 
  -1   1  -7     39.29    2.27  0. 1.0000     0. 
  -1  -1   7     37.99    2.37  0. 1.0000     0. 
   1   1   7     40.13    2.10  0. 1.0000     0. 
   1  -1   7     38.53    2.20  0. 1.0000     0. 
  -1   1   7     40.88    1.94  0. 1.0000     0. 
  -1   1   7     38.94    2.14  0. 1.0000     0. 
  -1  -1   7     40.99    2.24  0. 1.0000     0. 
   1   1   7     39.27    2.26  0. 1.0000     0. 
  -1  -1   7     37.03    2.09  0. 1.0000     0. 
   1  -1   7     38.86    2.29  0. 1.0000     0. 
   1   1   7     37.56    2.19  0. 1.0000     0. 
   1  -1   7     41.25    2.29  0. 1.0000     0. 
  -1  -1   7     37.26    2.01  0. 1.0000     0. 
  -1   1   7     32.69    2.32  0. 1.0000     0. 
  -1   2  -7     29.12    1.71  0. 1.0000     0. 
   1  -2  -7     25.95    1.82  0. 1.0000     0. 
  -2  -1  -7     26.87    1.75  0. 1.0000     0. 
   2   1  -7     22.03    1.98  0. 1.0000     0. 
  -2  -1  -7     27.07    1.64  0. 1.0000     0. 
  -2  -1  -7     29.78    2.06  0. 1.0000     0. 
  -1   2  -7     27.70    1.82  0. 1.0000     0. 
  -2  -1  -7     28.29    1.76  0. 1.0000     0. 
  -1   2  -7     24.12    1.82  0. 1.0000     0. 
   1  -2  -7     26.64    1.77  0. 1.0000     0. 
   2   1  -7     29.75    1.81  0. 1.0000     0. 
   1  -2  -7     26.81    1.94  0. 1.0000     0. 
   2   1   7     25.27    1.96  0. 1.0000     0. 
  -2  -1   7     24.28    1.84  0. 1.0000     0. 
  -1   2   7     26.55    2.03  0. 1.0000     0. 
   2   1   7     26.49    1.71  0. 1.0000     0. 
  -1   2   7     27.69    1.74  0. 1.0000     0. 
   2   1   7     26.96    1.80  0. 1.0000     0. 
   1  -2   7     24.39    1.87  0. 1.0000     0. 
  -2  -1   7     29.77    2.17  0. 1.0000     0. 
   0   2  -7     77.56    3.40  0. 1.0000     0. 
   0  -2  -7     75.49    3.34  0. 1.0000     0. 
   0  -2  -7     77.09    3.58  0. 1.0000     0. 
  -2   0  -7     71.23    3.36  0. 1.0000     0. 
  -2   0  -7     78.32    3.65  0. 1.0000     0. 
   2   0  -7     75.47    3.65  0. 1.0000     0. 
  -2   0  -7     81.20    3.48  0. 1.0000     0. 
   0   2  -7     75.09    3.45  0. 1.0000     0. 
   0  -2  -7     73.79    3.46  0. 1.0000     0. 
   0  -2  -7     76.13    3.59  0. 1.0000     0. 
   0   2  -7     87.58    3.62  0. 1.0000     0. 
  -2   0  -7     80.52    3.50  0. 1.0000     0. 
   2   0  -7     79.14    3.55  0. 1.0000     0. 
   2   0   7     74.50    3.68  0. 1.0000     0. 
   0   2   7     73.62    3.57  0. 1.0000     0. 
   2   0   7     72.98    3.47  0. 1.0000     0. 
   2   0   7     76.57    3.48  0. 1.0000     0. 
   2   0   7     72.16    3.48  0. 1.0000     0. 
   0   2   7     73.03    3.35  0. 1.0000     0. 
   0   2   7     75.44    3.52  0. 1.0000     0. 
  -2   1  -7     24.32    1.91  0. 1.0000     0. 
   1   2  -7     23.03    1.95  0. 1.0000     0. 
  -2   1  -7     30.69    1.79  0. 1.0000     0. 
  -1  -2  -7     22.16    1.94  0. 1.0000     0. 
  -1  -2  -7     26.91    1.66  0. 1.0000     0. 
   1   2  -7     25.30    1.58  0. 1.0000     0. 
  -1  -2  -7     26.94    1.82  0. 1.0000     0. 
   1   2  -7     26.96    1.75  0. 1.0000     0. 
   2  -1  -7     26.63    1.95  0. 1.0000     0. 
  -1  -2  -7     27.53    1.58  0. 1.0000     0. 
  -2   1  -7     26.47    1.82  0. 1.0000     0. 
   2  -1  -7     25.35    1.81  0. 1.0000     0. 
  -2   1  -7     28.13    1.59  0. 1.0000     0. 
  -2   1   7     28.92    2.19  0. 1.0000     0. 
   2  -1   7     28.15    1.83  0. 1.0000     0. 
   1   2   7     24.86    1.68  0. 1.0000     0. 
   2  -1   7     27.38    2.02  0. 1.0000     0. 
   1   2   7     26.60    1.88  0. 1.0000     0. 
  -1  -2   7     26.92    1.86  0. 1.0000     0. 
   2  -1   7     26.02    1.75  0. 1.0000     0. 
   2  -1   7     24.38    1.70  0. 1.0000     0. 
   1   2   7     27.40    1.78  0. 1.0000     0. 
  -2  -2  -7     19.51    1.58  0. 1.0000     0. 
   2  -2  -7     17.54    1.83  0. 1.0000     0. 
  -2  -2  -7     20.17    1.46  0. 1.0000     0. 
  -2   2  -7     17.31    1.57  0. 1.0000     0. 
   2  -2  -7     16.08    1.58  0. 1.0000     0. 
   2   2  -7     18.38    1.62  0. 1.0000     0. 
  -2   2  -7     17.22    1.73  0. 1.0000     0. 
  -2  -2  -7     17.63    1.47  0. 1.0000     0. 
  -2  -2  -7     21.31    1.93  0. 1.0000     0. 
   2   2  -7     16.75    1.83  0. 1.0000     0. 
  -2   2  -7     18.90    1.67  0. 1.0000     0. 
   2   2   7     18.66    1.51  0. 1.0000     0. 
   2   2   7     20.17    1.58  0. 1.0000     0. 
  -2  -2   7     17.25    1.72  0. 1.0000     0. 
   2  -2   7     18.86    1.83  0. 1.0000     0. 
   2   2   7     16.56    1.75  0. 1.0000     0. 
  -2   2   7     17.47    1.91  0. 1.0000     0. 
   2  -3  -7     16.72    1.72  0. 1.0000     0. 
   3   2  -7     15.62    1.59  0. 1.0000     0. 
  -3  -2  -7     14.39    1.56  0. 1.0000     0. 
  -2   3  -7     14.39    1.68  0. 1.0000     0. 
  -2   3  -7     14.55    1.60  0. 1.0000     0. 
  -3  -2  -7     15.01    1.89  0. 1.0000     0. 
   2  -3  -7     18.35    1.81  0. 1.0000     0. 
   3   2  -7     16.73    1.87  0. 1.0000     0. 
  -3  -2   7     16.27    1.73  0. 1.0000     0. 
   3   2   7     13.91    1.82  0. 1.0000     0. 
  -2   3   7     15.28    1.90  0. 1.0000     0. 
   3   2   7     15.93    1.62  0. 1.0000     0. 
   3   1  -7     19.39    1.66  0. 1.0000     0. 
   1  -3  -7     19.88    1.82  0. 1.0000     0. 
   3   1  -7     20.70    2.03  0. 1.0000     0. 
  -3  -1  -7     19.99    2.05  0. 1.0000     0. 
   1  -3  -7     20.04    1.69  0. 1.0000     0. 
  -1   3  -7     23.71    1.94  0. 1.0000     0. 
  -1   3  -7     22.91    1.68  0. 1.0000     0. 
   1  -3  -7     20.85    1.88  0. 1.0000     0. 
  -3  -1  -7     20.31    1.68  0. 1.0000     0. 
   3   1   7     17.62    1.74  0. 1.0000     0. 
   3   1   7     20.32    1.88  0. 1.0000     0. 
  -3  -1   7     18.22    1.81  0. 1.0000     0. 
  -3  -1   7     17.60    2.11  0. 1.0000     0. 
  -1   3   7     20.21    1.84  0. 1.0000     0. 
   0   3  -7     58.19    2.82  0. 1.0000     0. 
  -3   0  -7     57.57    3.16  0. 1.0000     0. 
   3   0  -7     56.09    2.97  0. 1.0000     0. 
   0  -3  -7     57.98    2.97  0. 1.0000     0. 
   0   3  -7     60.14    3.00  0. 1.0000     0. 
  -3   0  -7     59.59    2.94  0. 1.0000     0. 
   0  -3  -7     55.59    2.94  0. 1.0000     0. 
   3   0  -7     59.63    3.11  0. 1.0000     0. 
  -3   0   7     56.15    3.27  0. 1.0000     0. 
   3   0   7     58.54    3.25  0. 1.0000     0. 
   3   0   7     60.06    2.93  0. 1.0000     0. 
   1   3  -7     17.47    1.44  0. 1.0000     0. 
   3  -1  -7     18.34    1.86  0. 1.0000     0. 
  -3   1  -7     20.02    1.86  0. 1.0000     0. 
  -3   1  -7     19.31    1.71  0. 1.0000     0. 
  -1  -3  -7     19.39    1.64  0. 1.0000     0. 
   3  -1  -7     16.10    1.75  0. 1.0000     0. 
  -1  -3  -7     17.72    1.83  0. 1.0000     0. 
   1   3  -7     21.58    1.84  0. 1.0000     0. 
  -3   1   7     14.65    2.15  0. 1.0000     0. 
   3  -1   7     17.97    2.12  0. 1.0000     0. 
   3  -1   7     16.19    1.63  0. 1.0000     0. 
  -2  -3  -7     16.09    1.50  0. 1.0000     0. 
  -3   2  -7     17.25    1.87  0. 1.0000     0. 
   3  -2  -7     14.54    1.84  0. 1.0000     0. 
   3  -2  -7     13.03    1.65  0. 1.0000     0. 
   2   3  -7     16.90    1.81  0. 1.0000     0. 
  -2  -3  -7     17.11    1.78  0. 1.0000     0. 
  -3   2  -7     15.03    1.68  0. 1.0000     0. 
   2   3   7     13.55    1.37  0. 1.0000     0. 
  -3   2   7     13.47    1.94  0. 1.0000     0. 
   3  -2   7     15.07    1.97  0. 1.0000     0. 
  -3  -3  -7     12.20    1.48  0. 1.0000     0. 
   3  -3  -7     12.74    1.82  0. 1.0000     0. 
   3   3  -7     12.16    1.27  0. 1.0000     0. 
  -3   3  -7     13.29    1.65  0. 1.0000     0. 
  -3  -3  -7     14.19    1.82  0. 1.0000     0. 
   3  -3  -7     14.26    1.73  0. 1.0000     0. 
   3   3  -7     14.40    1.82  0. 1.0000     0. 
   3   3   7     15.34    1.56  0. 1.0000     0. 
  -3   3   7     13.26    1.96  0. 1.0000     0. 
   4   3  -7     17.96    1.87  0. 1.0000     0. 
   4   3  -7     10.97    1.27  0. 1.0000     0. 
  -4  -3  -7     12.34    1.65  0. 1.0000     0. 
   4   3   7     12.43    1.24  0. 1.0000     0. 
  -4  -3   7      7.37    1.25  0. 1.0000     0. 
   4   2  -7     13.15    1.64  0. 1.0000     0. 
   4   2  -7     14.36    1.97  0. 1.0000     0. 
  -4  -2  -7     13.95    2.09  0. 1.0000     0. 
  -4  -2  -7     13.64    1.67  0. 1.0000     0. 
   4   2   7     14.76    1.78  0. 1.0000     0. 
  -4  -2   7     15.98    1.75  0. 1.0000     0. 
   4   2   7     17.22    2.06  0. 1.0000     0. 
  -4  -2   7     13.10    1.57  0. 1.0000     0. 
   4   1  -7     15.92    1.93  0. 1.0000     0. 
   4   1  -7     17.68    1.63  0. 1.0000     0. 
  -4  -1  -7     14.05    1.99  0. 1.0000     0. 
  -4  -1  -7     18.43    1.71  0. 1.0000     0. 
  -4  -1   7     12.28    1.48  0. 1.0000     0. 
   4   1   7     13.37    1.40  0. 1.0000     0. 
   4   1   7     17.50    2.12  0. 1.0000     0. 
  -4  -1   7     13.43    1.79  0. 1.0000     0. 
  -4   0  -7     46.95    2.99  0. 1.0000     0. 
   4   0  -7     57.57    2.89  0. 1.0000     0. 
   4   0  -7     51.18    3.00  0. 1.0000     0. 
  -4   0  -7     52.12    2.75  0. 1.0000     0. 
   4   0   7     50.45    3.14  0. 1.0000     0. 
   4   0   7     45.12    2.76  0. 1.0000     0. 
  -4   0   7     53.69    3.28  0. 1.0000     0. 
  -4   1  -7     15.97    1.78  0. 1.0000     0. 
   4  -1  -7     14.77    1.75  0. 1.0000     0. 
   4  -1  -7     14.85    1.91  0. 1.0000     0. 
  -4   1  -7     17.50    1.92  0. 1.0000     0. 
   4  -1   7     19.28    2.24  0. 1.0000     0. 
  -4   1   7     15.79    2.16  0. 1.0000     0. 
   4  -1   7     14.70    1.75  0. 1.0000     0. 
   4  -2  -7     12.78    1.81  0. 1.0000     0. 
  -4   2  -7     16.13    2.05  0. 1.0000     0. 
  -4   2  -7     14.79    1.70  0. 1.0000     0. 
   4  -2  -7     11.81    1.34  0. 1.0000     0. 
   4  -2   7     14.66    1.73  0. 1.0000     0. 
  -4   2   7     12.64    1.42  0. 1.0000     0. 
  -4   3  -7     14.24    1.72  0. 1.0000     0. 
   4  -3  -7     15.00    1.69  0. 1.0000     0. 
  -4   3  -7     12.86    1.46  0. 1.0000     0. 
   4  -3  -7     15.05    1.68  0. 1.0000     0. 
  -4   3   7     11.32    1.47  0. 1.0000     0. 
   4  -4  -7      0.02    0.74  0. 1.0000     0. 
   5   4   7     -0.84    0.55  0. 1.0000     0. 
   5   3  -7     25.50    2.16  0. 1.0000     0. 
  -5  -3  -7     24.81    2.25  0. 1.0000     0. 
   5   3  -7     21.68    2.07  0. 1.0000     0. 
  -5  -3  -7     23.88    1.97  0. 1.0000     0. 
   5   3   7     19.30    2.56  0. 1.0000     0. 
   5   3   7     23.88    2.14  0. 1.0000     0. 
  -5  -3   7     17.01    1.86  0. 1.0000     0. 
   5   2  -7     22.41    2.24  0. 1.0000     0. 
   5   2  -7     20.83    2.04  0. 1.0000     0. 
  -5  -2  -7     20.92    2.28  0. 1.0000     0. 
  -5  -2  -7     22.74    1.91  0. 1.0000     0. 
   5   2   7     18.89    2.07  0. 1.0000     0. 
  -5  -2   7     20.91    2.05  0. 1.0000     0. 
   5   2   7     22.45    2.39  0. 1.0000     0. 
  -5  -2   7     20.19    2.75  0. 1.0000     0. 
  -5  -1  -7     22.26    1.97  0. 1.0000     0. 
   5   1  -7     22.42    2.01  0. 1.0000     0. 
  -5  -1  -7     20.47    2.28  0. 1.0000     0. 
   5   1  -7     20.90    2.19  0. 1.0000     0. 
   5   1   7     22.73    2.51  0. 1.0000     0. 
  -5  -1   7     22.10    2.06  0. 1.0000     0. 
  -5  -1   7     23.93    2.55  0. 1.0000     0. 
   5   1   7     21.28    2.18  0. 1.0000     0. 
   5   0  -7     50.60    3.00  0. 1.0000     0. 
  -5   0  -7     55.32    2.97  0. 1.0000     0. 
   5   0  -7     54.03    3.23  0. 1.0000     0. 
  -5   0  -7     57.48    3.33  0. 1.0000     0. 
  -5   0   7     58.53    3.42  0. 1.0000     0. 
   5   0   7     59.21    3.10  0. 1.0000     0. 
   5   0   7     58.07    3.51  0. 1.0000     0. 
  -5   1  -7     21.47    2.06  0. 1.0000     0. 
  -5   1  -7     24.95    2.26  0. 1.0000     0. 
   5  -1  -7     20.65    2.01  0. 1.0000     0. 
   5  -1  -7     18.11    2.07  0. 1.0000     0. 
   5  -1   7     21.19    2.51  0. 1.0000     0. 
   5  -1   7     23.99    2.03  0. 1.0000     0. 
  -5   1   7     24.79    2.63  0. 1.0000     0. 
   5  -2  -7     22.19    1.99  0. 1.0000     0. 
  -5   2  -7     23.75    2.07  0. 1.0000     0. 
   5  -2  -7     17.10    2.03  0. 1.0000     0. 
  -5   2  -7     22.26    2.34  0. 1.0000     0. 
   5  -2   7     25.85    2.53  0. 1.0000     0. 
  -5   2   7     21.54    2.55  0. 1.0000     0. 
   5  -3  -7     20.71    2.35  0. 1.0000     0. 
  -5   3  -7     24.45    2.23  0. 1.0000     0. 
  -5   3  -7     25.96    2.35  0. 1.0000     0. 
   5  -3  -7     22.53    2.08  0. 1.0000     0. 
   5  -3   7     21.09    2.56  0. 1.0000     0. 
  -5   3   7     21.29    2.48  0. 1.0000     0. 
   5  -4  -7      0.31    0.80  0. 1.0000     0. 
   6   4   7     -0.72    0.65  0. 1.0000     0. 
   6   2  -7      9.97    1.40  0. 1.0000     0. 
   6   2  -7     11.37    1.76  0. 1.0000     0. 
  -6  -2  -7     10.60    1.35  0. 1.0000     0. 
  -6  -2  -7      6.74    1.83  0. 1.0000     0. 
  -6  -2   7     12.48    1.57  0. 1.0000     0. 
  -6  -2   7      9.37    1.89  0. 1.0000     0. 
   6   2   7     10.13    1.49  0. 1.0000     0. 
   6   2   7     11.39    1.88  0. 1.0000     0. 
  -6  -1  -7      7.29    1.34  0. 1.0000     0. 
   6   1  -7      9.96    1.69  0. 1.0000     0. 
  -6  -1  -7      6.36    1.56  0. 1.0000     0. 
   6   1  -7     10.46    1.40  0. 1.0000     0. 
  -6  -1   7      8.41    1.48  0. 1.0000     0. 
  -6  -1   7     10.11    1.75  0. 1.0000     0. 
   6   1   7      6.16    1.78  0. 1.0000     0. 
   6   1   7      6.92    1.52  0. 1.0000     0. 
   6   0  -7     26.37    2.44  0. 1.0000     0. 
  -6   0  -7     29.95    2.56  0. 1.0000     0. 
   6   0  -7     27.64    2.33  0. 1.0000     0. 
  -6   0  -7     30.73    2.33  0. 1.0000     0. 
   6   0   7     23.22    2.29  0. 1.0000     0. 
   6   0   7     29.73    2.87  0. 1.0000     0. 
  -6   0   7     28.75    2.92  0. 1.0000     0. 
   6  -1  -7      7.78    1.41  0. 1.0000     0. 
  -6   1  -7      5.79    1.39  0. 1.0000     0. 
   6  -1  -7     10.33    1.63  0. 1.0000     0. 
  -6   1  -7     10.32    1.72  0. 1.0000     0. 
   6  -1   7     10.17    1.38  0. 1.0000     0. 
  -6   1   7     11.36    1.77  0. 1.0000     0. 
   6  -1   7      9.72    1.86  0. 1.0000     0. 
   6  -2  -7     12.11    1.70  0. 1.0000     0. 
  -6   2  -7      9.71    1.45  0. 1.0000     0. 
  -6   2  -7     11.71    1.86  0. 1.0000     0. 
   6  -2  -7     10.19    1.50  0. 1.0000     0. 
  -6   2   7     15.61    1.86  0. 1.0000     0. 
   6  -2   7     10.81    1.94  0. 1.0000     0. 
   6  -3  -7      7.79    1.44  0. 1.0000     0. 
  -6   3  -7     14.77    2.06  0. 1.0000     0. 
  -6   3  -7     12.30    1.55  0. 1.0000     0. 
   6  -3  -7     12.04    1.82  0. 1.0000     0. 
   6  -3   7     12.88    1.98  0. 1.0000     0. 
  -6   3   7     11.81    1.79  0. 1.0000     0. 
  -6   4  -7      0.03    0.23  0. 1.0000     0. 
   6  -4  -7     -1.24    0.80  0. 1.0000     0. 
   7   4   7      2.56    0.78  0. 1.0000     0. 
  -7  -3  -7     12.96    2.02  0. 1.0000     0. 
  -7  -3  -7     10.69    1.51  0. 1.0000     0. 
   7   3  -7     15.64    2.09  0. 1.0000     0. 
   7   3  -7     10.55    1.61  0. 1.0000     0. 
   7   3   7      8.54    1.62  0. 1.0000     0. 
  -7  -3   7      7.16    2.37  0. 1.0000     0. 
   7   3   7     12.52    1.66  0. 1.0000     0. 
   7   2  -7     11.41    1.54  0. 1.0000     0. 
   7   2  -7     11.31    1.90  0. 1.0000     0. 
  -7  -2  -7     11.98    1.44  0. 1.0000     0. 
  -7  -2  -7     14.63    2.11  0. 1.0000     0. 
   7   2   7      8.29    1.78  0. 1.0000     0. 
   7   2   7     10.22    1.58  0. 1.0000     0. 
  -7  -2   7     15.24    2.18  0. 1.0000     0. 
  -7  -2   7     12.12    1.69  0. 1.0000     0. 
  -7  -1  -7     10.24    1.52  0. 1.0000     0. 
  -7  -1  -7     11.87    1.96  0. 1.0000     0. 
   7   1  -7     16.31    1.96  0. 1.0000     0. 
   7   1  -7      9.69    1.55  0. 1.0000     0. 
  -7  -1   7     11.39    1.64  0. 1.0000     0. 
  -7  -1   7     10.33    1.97  0. 1.0000     0. 
   7   1   7     11.69    1.66  0. 1.0000     0. 
   7   1   7      9.81    1.78  0. 1.0000     0. 
  -7   0  -7     29.30    2.38  0. 1.0000     0. 
   7   0  -7     27.42    2.68  0. 1.0000     0. 
   7   0  -7     27.74    2.53  0. 1.0000     0. 
  -7   0  -7     28.70    2.62  0. 1.0000     0. 
  -7   0   7     28.97    2.53  0. 1.0000     0. 
  -7   0   7     33.61    3.00  0. 1.0000     0. 
   7   0   7     30.66    2.76  0. 1.0000     0. 
   7   0   7     26.24    2.48  0. 1.0000     0. 
   7  -1  -7     11.37    1.53  0. 1.0000     0. 
  -7   1  -7     11.91    1.56  0. 1.0000     0. 
  -7   1  -7      7.26    1.63  0. 1.0000     0. 
   7  -1  -7     12.95    1.85  0. 1.0000     0. 
   7  -1   7     10.61    1.51  0. 1.0000     0. 
  -7   1   7     11.39    1.96  0. 1.0000     0. 
   7  -1   7     10.93    1.88  0. 1.0000     0. 
  -7   2  -7      8.38    1.59  0. 1.0000     0. 
  -7   2  -7     12.05    1.64  0. 1.0000     0. 
   7  -2  -7     12.99    1.64  0. 1.0000     0. 
   7  -2  -7     13.48    1.92  0. 1.0000     0. 
   7  -2   7      9.91    1.43  0. 1.0000     0. 
  -7   2   7     15.97    2.00  0. 1.0000     0. 
   7  -2   7      8.93    1.90  0. 1.0000     0. 
   7  -3  -7     12.59    1.74  0. 1.0000     0. 
  -7   3  -7      7.03    1.47  0. 1.0000     0. 
   7  -3  -7     12.07    2.06  0. 1.0000     0. 
  -7   3  -7      8.50    1.61  0. 1.0000     0. 
  -7   3   7     14.08    2.14  0. 1.0000     0. 
   7  -3   7     11.70    2.02  0. 1.0000     0. 
   7  -4  -7      1.31    0.81  0. 1.0000     0. 
  -7   4  -7      0.45    0.35  0. 1.0000     0. 
  -8  -3  -7     12.20    1.54  0. 1.0000     0. 
   8   3  -7     14.45    2.16  0. 1.0000     0. 
  -8  -3  -7     16.56    2.30  0. 1.0000     0. 
   8   3   7     16.62    2.00  0. 1.0000     0. 
   8   3   7     13.61    2.19  0. 1.0000     0. 
  -8  -2  -7     15.74    2.21  0. 1.0000     0. 
   8   2  -7     14.25    1.73  0. 1.0000     0. 
  -8  -2  -7     10.14    1.54  0. 1.0000     0. 
   8   2  -7     14.26    2.08  0. 1.0000     0. 
  -8  -2   7     15.62    2.33  0. 1.0000     0. 
   8   2   7     14.47    2.16  0. 1.0000     0. 
   8   2   7     16.14    1.87  0. 1.0000     0. 
  -8  -2   7     11.20    1.79  0. 1.0000     0. 
  -8  -1  -7     12.03    2.10  0. 1.0000     0. 
  -8  -1  -7     13.40    1.63  0. 1.0000     0. 
   8   1  -7     14.50    1.83  0. 1.0000     0. 
   8   1  -7     12.69    2.03  0. 1.0000     0. 
  -8  -1   7     13.89    2.18  0. 1.0000     0. 
  -8  -1   7     12.26    1.79  0. 1.0000     0. 
   8   1   7     12.78    1.73  0. 1.0000     0. 
   8   1   7     11.93    2.16  0. 1.0000     0. 
   8   0  -7     27.26    2.65  0. 1.0000     0. 
  -8   0  -7     29.22    2.58  0. 1.0000     0. 
  -8   0  -7     25.13    2.61  0. 1.0000     0. 
   8   0  -7     27.76    2.73  0. 1.0000     0. 
   8   0   7     27.18    2.65  0. 1.0000     0. 
   8   0   7     26.58    2.87  0. 1.0000     0. 
  -8   0   7     27.47    3.27  0. 1.0000     0. 
  -8   0   7     28.37    2.57  0. 1.0000     0. 
   8  -1  -7     11.33    1.66  0. 1.0000     0. 
  -8   1  -7     11.84    2.07  0. 1.0000     0. 
   8  -1  -7     13.32    2.00  0. 1.0000     0. 
  -8   1  -7     13.43    1.71  0. 1.0000     0. 
  -8   1   7     14.94    2.10  0. 1.0000     0. 
   8  -1   7      9.07    1.60  0. 1.0000     0. 
   8  -1   7     15.34    2.18  0. 1.0000     0. 
  -8   2  -7     10.58    1.76  0. 1.0000     0. 
  -8   2  -7     13.86    2.00  0. 1.0000     0. 
   8  -2  -7     11.05    1.99  0. 1.0000     0. 
   8  -2  -7     11.75    1.75  0. 1.0000     0. 
   8  -2   7      9.21    1.59  0. 1.0000     0. 
   8  -2   7     12.30    2.10  0. 1.0000     0. 
  -8   2   7     13.96    2.18  0. 1.0000     0. 
  -8   3  -7     15.50    2.05  0. 1.0000     0. 
   8  -3  -7     13.63    1.91  0. 1.0000     0. 
  -8   3  -7     14.95    1.82  0. 1.0000     0. 
  -8   3   7     16.20    2.24  0. 1.0000     0. 
  -8   4  -7      6.80    0.43  0. 1.0000     0. 
  -9  -3  -7     15.06    1.78  0. 1.0000     0. 
   9   3  -7     12.81    2.21  0. 1.0000     0. 
  -9  -3  -7     13.48    2.39  0. 1.0000     0. 
   9   3   7     14.80    2.40  0. 1.0000     0. 
   9   3   7     16.40    2.13  0. 1.0000     0. 
   9   2  -7     13.07    1.82  0. 1.0000     0. 
   9   2  -7     14.28    2.28  0. 1.0000     0. 
  -9  -2  -7     13.44    1.73  0. 1.0000     0. 
  -9  -2  -7     11.33    2.28  0. 1.0000     0. 
  -9  -2   7     13.45    1.82  0. 1.0000     0. 
   9   2   7     11.95    2.32  0. 1.0000     0. 
   9   2   7     17.68    2.02  0. 1.0000     0. 
  -9  -2   7     17.34    2.40  0. 1.0000     0. 
  -9  -1  -7     14.16    2.27  0. 1.0000     0. 
  -9  -1  -7     11.76    1.73  0. 1.0000     0. 
   9   1   7     15.67    1.91  0. 1.0000     0. 
   9   1   7     15.13    2.40  0. 1.0000     0. 
   9   0  -7     29.39    2.74  0. 1.0000     0. 
   9   0  -7     25.72    2.99  0. 1.0000     0. 
  -9   0  -7     26.15    2.73  0. 1.0000     0. 
  -9   0  -7     30.22    2.67  0. 1.0000     0. 
  -9   0   7     29.14    3.47  0. 1.0000     0. 
   9   0   7     29.12    2.83  0. 1.0000     0. 
   9   0   7     32.01    3.12  0. 1.0000     0. 
  -9   0   7     24.86    2.71  0. 1.0000     0. 
   9  -1  -7     12.78    1.85  0. 1.0000     0. 
   9  -1  -7     16.66    2.18  0. 1.0000     0. 
  -9   1  -7      8.69    1.85  0. 1.0000     0. 
  -9   1  -7     14.76    1.87  0. 1.0000     0. 
   9  -1   7     17.33    2.35  0. 1.0000     0. 
  -9   1   7     16.73    2.29  0. 1.0000     0. 
   9  -1   7     10.84    1.70  0. 1.0000     0. 
  -9   2  -7     13.08    1.89  0. 1.0000     0. 
   9  -2   7     14.67    1.90  0. 1.0000     0. 
   9  -2   7     16.54    2.33  0. 1.0000     0. 
   9  -3  -7     11.33    1.94  0. 1.0000     0. 
   9  -3  -7     13.96    2.50  0. 1.0000     0. 
  -9   3  -7     17.40    2.44  0. 1.0000     0. 
  -9   3  -7     14.08    1.94  0. 1.0000     0. 
   9  -3   7      8.57    1.71  0. 1.0000     0. 
  -9   4  -7     20.63    0.90  0. 1.0000     0. 
 -10   0  -7     11.64    1.87  0. 1.0000     0. 
  10   0  -7     14.58    2.22  0. 1.0000     0. 
  10   0  -7     13.64    1.98  0. 1.0000     0. 
 -10   0  -7      9.63    2.02  0. 1.0000     0. 
 -10   0   7     10.95    1.97  0. 1.0000     0. 
  10   0   7     10.77    1.89  0. 1.0000     0. 
   0   0  -8     83.67    3.83  0. 1.0000     0. 
   0   0  -8     84.30    3.96  0. 1.0000     0. 
   0   0  -8     80.66    3.80  0. 1.0000     0. 
   0   0  -8     87.38    3.73  0. 1.0000     0. 
   0   0   8     82.57    4.01  0. 1.0000     0. 
   0   0   8     83.41    3.93  0. 1.0000     0. 
   0   0   8     83.43    3.73  0. 1.0000     0. 
   0   0   8     78.57    3.90  0. 1.0000     0. 
   0   1  -8     15.94    1.62  0. 1.0000     0. 
   1   0  -8     15.99    1.65  0. 1.0000     0. 
   1   0  -8     17.94    1.89  0. 1.0000     0. 
   0  -1  -8     15.62    1.75  0. 1.0000     0. 
  -1   0  -8     15.20    1.49  0. 1.0000     0. 
   0  -1  -8     16.50    1.66  0. 1.0000     0. 
   0   1  -8     13.48    1.59  0. 1.0000     0. 
   0  -1  -8     17.10    1.36  0. 1.0000     0. 
   0   1  -8     16.43    1.51  0. 1.0000     0. 
  -1   0  -8     14.52    1.71  0. 1.0000     0. 
  -1   0  -8     15.91    1.68  0. 1.0000     0. 
   0  -1  -8     15.17    1.74  0. 1.0000     0. 
   0   1  -8     16.14    1.85  0. 1.0000     0. 
  -1   0  -8     17.51    1.56  0. 1.0000     0. 
   0   1   8     15.78    1.96  0. 1.0000     0. 
   1   0   8     16.83    1.89  0. 1.0000     0. 
  -1   0   8     16.48    2.10  0. 1.0000     0. 
   1   0   8     15.99    1.75  0. 1.0000     0. 
   0  -1   8     15.65    1.90  0. 1.0000     0. 
   0  -1   8     16.96    1.83  0. 1.0000     0. 
   0  -1   8     20.19    1.54  0. 1.0000     0. 
   0   1   8     18.01    1.45  0. 1.0000     0. 
   0  -1   8     17.81    1.71  0. 1.0000     0. 
   1   0   8     15.66    1.73  0. 1.0000     0. 
   0   1   8     15.19    1.77  0. 1.0000     0. 
   1   0   8     15.82    1.60  0. 1.0000     0. 
  -1   1  -8      1.91    0.88  0. 1.0000     0. 
  -1  -1  -8      0.54    0.81  0. 1.0000     0. 
   1  -1  -8      0.73    1.00  0. 1.0000     0. 
   1  -1  -8      0.09    1.23  0. 1.0000     0. 
  -1   1  -8      1.43    1.22  0. 1.0000     0. 
  -1   1  -8      2.00    1.00  0. 1.0000     0. 
  -1  -1  -8      2.23    0.91  0. 1.0000     0. 
   1   1  -8      1.68    1.30  0. 1.0000     0. 
  -1  -1  -8      0.20    1.17  0. 1.0000     0. 
  -1   1  -8      1.62    1.20  0. 1.0000     0. 
  -1  -1  -8      1.23    1.20  0. 1.0000     0. 
   1   1  -8      1.55    0.97  0. 1.0000     0. 
  -1  -1   8      1.79    1.11  0. 1.0000     0. 
  -1   1   8      1.30    1.10  0. 1.0000     0. 
   1   1   8      0.37    0.91  0. 1.0000     0. 
   1  -1   8      1.32    0.94  0. 1.0000     0. 
   1  -1   8      1.42    1.19  0. 1.0000     0. 
  -1  -1   8      2.25    1.13  0. 1.0000     0. 
   1   1   8      0.75    0.87  0. 1.0000     0. 
   1  -1   8      1.36    1.00  0. 1.0000     0. 
   1  -1   8      1.65    1.12  0. 1.0000     0. 
   1   1   8      0.16    1.19  0. 1.0000     0. 
   2   1  -8     -0.29    1.31  0. 1.0000     0. 
  -1   2  -8     -0.76    0.92  0. 1.0000     0. 
   1  -2  -8      1.51    1.02  0. 1.0000     0. 
  -2  -1  -8      0.17    1.29  0. 1.0000     0. 
   2   1  -8     -0.45    1.00  0. 1.0000     0. 
  -1   2  -8      0.75    1.26  0. 1.0000     0. 
   1  -2  -8      1.33    1.29  0. 1.0000     0. 
  -2  -1  -8      0.51    0.95  0. 1.0000     0. 
  -1   2  -8      1.37    1.10  0. 1.0000     0. 
  -2  -1   8     -0.47    1.15  0. 1.0000     0. 
  -2  -1   8      0.54    1.17  0. 1.0000     0. 
  -1   2   8      1.10    1.10  0. 1.0000     0. 
   2   1   8      0.56    1.29  0. 1.0000     0. 
   1  -2   8     -0.46    1.09  0. 1.0000     0. 
   1  -2   8      0.43    1.03  0. 1.0000     0. 
   1  -2   8     -0.16    0.77  0. 1.0000     0. 
   2   1   8      1.05    1.01  0. 1.0000     0. 
   0   2  -8     20.40    1.64  0. 1.0000     0. 
   0  -2  -8     20.49    1.92  0. 1.0000     0. 
   2   0  -8     18.62    1.85  0. 1.0000     0. 
   0   2  -8     18.14    2.18  0. 1.0000     0. 
  -2   0  -8     20.86    1.99  0. 1.0000     0. 
   0  -2  -8     20.50    1.77  0. 1.0000     0. 
   0   2  -8     18.84    1.60  0. 1.0000     0. 
   2   0  -8     22.53    2.11  0. 1.0000     0. 
   0  -2  -8     21.64    1.96  0. 1.0000     0. 
   0  -2  -8     21.78    1.47  0. 1.0000     0. 
  -2   0  -8     21.33    1.79  0. 1.0000     0. 
   2   0   8     20.02    1.77  0. 1.0000     0. 
   0   2   8     23.25    2.00  0. 1.0000     0. 
   0   2   8     20.74    1.96  0. 1.0000     0. 
   0   2   8     20.11    1.51  0. 1.0000     0. 
   0  -2   8     19.12    1.81  0. 1.0000     0. 
   2   0   8     19.89    2.13  0. 1.0000     0. 
  -2   0   8     22.96    2.37  0. 1.0000     0. 
   0  -2   8     18.69    2.13  0. 1.0000     0. 
   1   2  -8     -1.00    0.91  0. 1.0000     0. 
  -2   1  -8      0.52    1.06  0. 1.0000     0. 
   2  -1  -8      0.31    1.30  0. 1.0000     0. 
  -2   1  -8      1.24    1.27  0. 1.0000     0. 
  -1  -2  -8     -0.46    1.13  0. 1.0000     0. 
   2  -1  -8     -0.60    1.01  0. 1.0000     0. 
  -1  -2  -8      0.31    0.96  0. 1.0000     0. 
   1   2  -8     -0.39    1.36  0. 1.0000     0. 
  -1  -2  -8      0.31    0.83  0. 1.0000     0. 
  -1  -2  -8     -0.05    1.32  0. 1.0000     0. 
   2  -1   8     -0.37    0.96  0. 1.0000     0. 
  -1  -2   8      0.77    1.16  0. 1.0000     0. 
  -1  -2   8      0.22    1.11  0. 1.0000     0. 
   1   2   8     -0.76    1.18  0. 1.0000     0. 
   1   2   8     -0.35    0.80  0. 1.0000     0. 
  -2   1   8     -0.27    1.18  0. 1.0000     0. 
   1   2   8     -0.50    0.87  0. 1.0000     0. 
   2  -1   8     -0.20    1.31  0. 1.0000     0. 
   2  -2  -8      1.75    1.33  0. 1.0000     0. 
   2  -2  -8     -1.45    1.03  0. 1.0000     0. 
   2   2  -8     -0.53    1.02  0. 1.0000     0. 
  -2  -2  -8      1.17    0.94  0. 1.0000     0. 
  -2   2  -8     -0.46    1.25  0. 1.0000     0. 
  -2  -2  -8      0.62    1.38  0. 1.0000     0. 
  -2   2  -8      0.18    1.02  0. 1.0000     0. 
   2   2  -8     -0.59    1.39  0. 1.0000     0. 
   2   2   8      0.53    1.29  0. 1.0000     0. 
   2  -2   8      1.89    1.34  0. 1.0000     0. 
   2   2   8     -0.24    0.93  0. 1.0000     0. 
  -2  -2   8     -0.94    1.24  0. 1.0000     0. 
  -2  -2   8     -0.03    1.17  0. 1.0000     0. 
  -2   2   8     -0.11    1.18  0. 1.0000     0. 
   2  -3  -8      0.12    1.39  0. 1.0000     0. 
   3   2  -8      1.46    1.49  0. 1.0000     0. 
  -3  -2  -8      1.04    1.10  0. 1.0000     0. 
  -3  -2  -8      2.80    1.67  0. 1.0000     0. 
  -2   3  -8      0.04    1.08  0. 1.0000     0. 
   3   2  -8      0.44    1.05  0. 1.0000     0. 
   2  -3  -8     -2.71    1.03  0. 1.0000     0. 
  -2   3  -8     -0.67    0.32  0. 1.0000     0. 
  -2   3   8     -0.48    1.23  0. 1.0000     0. 
  -3  -2   8     -2.18    1.38  0. 1.0000     0. 
   3   2   8      1.83    1.50  0. 1.0000     0. 
   3   2   8      0.50    1.03  0. 1.0000     0. 
  -3  -2   8      0.12    1.24  0. 1.0000     0. 
   1  -3  -8     -1.03    1.30  0. 1.0000     0. 
   1  -3  -8      1.08    1.02  0. 1.0000     0. 
   3   1  -8      0.52    1.07  0. 1.0000     0. 
   3   1  -8      1.51    1.44  0. 1.0000     0. 
  -3  -1  -8      0.55    1.45  0. 1.0000     0. 
  -1   3  -8      1.46    1.24  0. 1.0000     0. 
  -3  -1  -8     -1.50    1.13  0. 1.0000     0. 
  -1   3  -8     -0.48    0.98  0. 1.0000     0. 
   3   1   8     -1.22    1.42  0. 1.0000     0. 
  -3  -1   8      1.58    1.31  0. 1.0000     0. 
  -1   3   8      0.01    1.08  0. 1.0000     0. 
  -3  -1   8      0.29    1.20  0. 1.0000     0. 
   3   1   8     -0.33    1.14  0. 1.0000     0. 
   0  -3  -8     13.17    1.85  0. 1.0000     0. 
   0  -3  -8      9.65    1.53  0. 1.0000     0. 
   0   3  -8     11.65    1.24  0. 1.0000     0. 
  -3   0  -8     12.77    1.40  0. 1.0000     0. 
   3   0  -8     13.33    1.72  0. 1.0000     0. 
   0   3  -8     15.78    1.88  0. 1.0000     0. 
  -3   0  -8     13.69    2.04  0. 1.0000     0. 
   3   0  -8     11.81    1.39  0. 1.0000     0. 
   0   3   8     15.84    1.80  0. 1.0000     0. 
   3   0   8     12.28    1.37  0. 1.0000     0. 
   0   3   8     12.95    1.75  0. 1.0000     0. 
   3   0   8     14.32    1.76  0. 1.0000     0. 
  -3   0   8     11.92    1.60  0. 1.0000     0. 
   3  -1  -8     -0.09    1.32  0. 1.0000     0. 
  -3   1  -8      0.74    1.45  0. 1.0000     0. 
   1   3  -8      4.03    1.37  0. 1.0000     0. 
  -1  -3  -8      0.20    0.93  0. 1.0000     0. 
  -1  -3  -8      0.58    0.41  0. 1.0000     0. 
   3  -1  -8      0.77    1.12  0. 1.0000     0. 
  -1  -3  -8      0.90    1.38  0. 1.0000     0. 
  -3   1  -8     -0.30    1.15  0. 1.0000     0. 
   3  -1   8      1.48    1.09  0. 1.0000     0. 
   1   3   8      1.09    0.38  0. 1.0000     0. 
  -3   1   8     -0.21    1.28  0. 1.0000     0. 
   3  -1   8     -0.28    1.53  0. 1.0000     0. 
   1   3   8      0.44    1.18  0. 1.0000     0. 
   2   3  -8      2.79    1.35  0. 1.0000     0. 
   3  -2  -8     -1.31    1.39  0. 1.0000     0. 
  -3   2  -8     -0.81    1.11  0. 1.0000     0. 
  -3   2  -8     -2.84    1.46  0. 1.0000     0. 
   3  -2  -8     -0.93    1.12  0. 1.0000     0. 
  -2  -3  -8      1.20    1.41  0. 1.0000     0. 
   2   3   8     -0.69    0.74  0. 1.0000     0. 
  -2  -3   8     -1.87    0.72  0. 1.0000     0. 
   3  -2   8     -3.42    1.54  0. 1.0000     0. 
  -3   2   8     -2.36    1.30  0. 1.0000     0. 
   2   3   8     -1.80    1.28  0. 1.0000     0. 
  -3  -3  -8      4.92    1.58  0. 1.0000     0. 
  -3  -3  -8      1.02    1.10  0. 1.0000     0. 
  -3   3  -8      1.87    1.14  0. 1.0000     0. 
   3  -3  -8     -1.29    1.12  0. 1.0000     0. 
  -3   3  -8     -0.76    0.78  0. 1.0000     0. 
   3   3  -8      5.58    1.47  0. 1.0000     0. 
   3   3  -8      0.52    1.03  0. 1.0000     0. 
   3  -3  -8      0.26    1.44  0. 1.0000     0. 
   3   3   8      1.56    1.45  0. 1.0000     0. 
  -3   3   8      1.49    1.40  0. 1.0000     0. 
   3   3   8     -0.20    0.97  0. 1.0000     0. 
  -3  -3   8     -0.47    0.98  0. 1.0000     0. 
  -4  -3  -8      0.92    1.64  0. 1.0000     0. 
   4   3  -8      1.69    1.46  0. 1.0000     0. 
  -4  -3  -8      0.05    1.17  0. 1.0000     0. 
   4   3  -8      1.16    1.14  0. 1.0000     0. 
   3  -4  -8     -0.93    0.71  0. 1.0000     0. 
  -4  -3   8     -0.39    1.10  0. 1.0000     0. 
   4   3   8      1.61    1.15  0. 1.0000     0. 
   4   3   8     -1.24    1.58  0. 1.0000     0. 
   4   2  -8      0.85    1.10  0. 1.0000     0. 
  -4  -2  -8      1.79    1.18  0. 1.0000     0. 
   4   2  -8     -0.12    1.50  0. 1.0000     0. 
  -4  -2  -8     -0.76    1.70  0. 1.0000     0. 
  -4  -2   8      3.29    1.64  0. 1.0000     0. 
   4   2   8      0.60    1.61  0. 1.0000     0. 
   4   2   8      1.08    1.15  0. 1.0000     0. 
  -4  -2   8      1.22    1.25  0. 1.0000     0. 
   4   1  -8      0.79    1.12  0. 1.0000     0. 
   4   1  -8      2.20    1.49  0. 1.0000     0. 
  -4  -1  -8      0.94    1.62  0. 1.0000     0. 
  -4  -1  -8      1.57    1.27  0. 1.0000     0. 
  -4  -1   8      2.14    1.30  0. 1.0000     0. 
   4   1   8     -0.39    1.64  0. 1.0000     0. 
  -4  -1   8      1.29    1.49  0. 1.0000     0. 
   4   1   8      1.85    1.34  0. 1.0000     0. 
  -4   0  -8     27.57    2.37  0. 1.0000     0. 
  -4   0  -8     30.12    2.72  0. 1.0000     0. 
   4   0  -8     25.85    2.24  0. 1.0000     0. 
   4   0  -8     25.88    2.45  0. 1.0000     0. 
   4   0   8     24.22    2.92  0. 1.0000     0. 
  -4   0   8     26.05    2.95  0. 1.0000     0. 
   4   0   8     29.87    2.39  0. 1.0000     0. 
  -4   1  -8      3.37    1.65  0. 1.0000     0. 
   4  -1  -8      0.99    1.36  0. 1.0000     0. 
  -4   1  -8      2.69    1.27  0. 1.0000     0. 
   4  -1  -8      0.74    1.19  0. 1.0000     0. 
   4  -1   8      3.29    1.28  0. 1.0000     0. 
  -4   1   8      2.30    1.49  0. 1.0000     0. 
   4  -1   8      5.92    1.85  0. 1.0000     0. 
   4  -2  -8      2.10    1.21  0. 1.0000     0. 
  -4   2  -8      4.95    1.72  0. 1.0000     0. 
  -4   2  -8      1.23    1.21  0. 1.0000     0. 
   4  -2  -8      3.03    1.43  0. 1.0000     0. 
   4  -2   8      3.59    1.73  0. 1.0000     0. 
  -4   2   8      1.66    1.49  0. 1.0000     0. 
  -4   3  -8      0.63    1.25  0. 1.0000     0. 
   4  -3  -8     -0.83    1.18  0. 1.0000     0. 
  -4   3  -8      2.90    1.51  0. 1.0000     0. 
   4  -3  -8      0.25    1.49  0. 1.0000     0. 
  -4   3   8      1.03    1.54  0. 1.0000     0. 
  -4   4  -8     -0.16    0.26  0. 1.0000     0. 
   4  -4  -8     -1.14    0.81  0. 1.0000     0. 
   5   3  -8      7.71    1.77  0. 1.0000     0. 
  -5  -3  -8      8.69    1.81  0. 1.0000     0. 
   5   3  -8      5.87    1.33  0. 1.0000     0. 
   5   3   8      5.27    1.34  0. 1.0000     0. 
  -5  -3   8      1.17    1.97  0. 1.0000     0. 
   5   3   8      8.45    1.96  0. 1.0000     0. 
  -5  -2  -8     10.99    2.00  0. 1.0000     0. 
   5   2  -8     10.16    1.77  0. 1.0000     0. 
   5   2  -8      9.35    1.43  0. 1.0000     0. 
  -5  -2  -8      9.88    1.47  0. 1.0000     0. 
   5   2   8      8.82    1.47  0. 1.0000     0. 
  -5  -2   8     10.26    1.96  0. 1.0000     0. 
   5   2   8      9.57    1.96  0. 1.0000     0. 
  -5  -2   8      9.65    1.56  0. 1.0000     0. 
   5   1  -8     11.13    1.77  0. 1.0000     0. 
   5   1  -8      9.71    1.41  0. 1.0000     0. 
  -5  -1  -8      8.47    1.52  0. 1.0000     0. 
  -5  -1  -8      9.02    1.92  0. 1.0000     0. 
  -5  -1   8      8.22    1.85  0. 1.0000     0. 
  -5  -1   8      8.57    1.51  0. 1.0000     0. 
   5   1   8     10.37    1.61  0. 1.0000     0. 
   5   1   8     10.48    2.02  0. 1.0000     0. 
   5   0  -8     41.93    2.91  0. 1.0000     0. 
   5   0  -8     39.40    2.72  0. 1.0000     0. 
  -5   0  -8     40.25    2.79  0. 1.0000     0. 
  -5   0  -8     41.67    2.97  0. 1.0000     0. 
   5   0   8     43.70    2.76  0. 1.0000     0. 
  -5   0   8     41.09    2.79  0. 1.0000     0. 
   5   0   8     39.42    3.37  0. 1.0000     0. 
  -5   0   8     42.61    3.26  0. 1.0000     0. 
  -5   1  -8     12.45    1.98  0. 1.0000     0. 
   5  -1  -8      7.81    1.45  0. 1.0000     0. 
  -5   1  -8     11.71    1.57  0. 1.0000     0. 
   5  -1  -8     10.27    1.71  0. 1.0000     0. 
  -5   1   8     11.12    1.90  0. 1.0000     0. 
   5  -1   8     10.19    2.11  0. 1.0000     0. 
   5  -1   8     11.68    1.63  0. 1.0000     0. 
  -5   2  -8      9.42    1.51  0. 1.0000     0. 
   5  -2  -8      8.39    1.43  0. 1.0000     0. 
  -5   2  -8     10.30    1.84  0. 1.0000     0. 
   5  -2  -8      8.92    1.73  0. 1.0000     0. 
   5  -2   8      6.81    1.38  0. 1.0000     0. 
  -5   2   8     11.30    1.90  0. 1.0000     0. 
   5  -2   8      9.85    2.04  0. 1.0000     0. 
  -5   3  -8      8.98    1.80  0. 1.0000     0. 
   5  -3  -8     10.85    1.84  0. 1.0000     0. 
  -5   3  -8      5.50    1.44  0. 1.0000     0. 
   5  -3  -8      5.03    1.42  0. 1.0000     0. 
  -5   3   8      6.50    1.86  0. 1.0000     0. 
   5  -4  -8      1.09    0.90  0. 1.0000     0. 
   5  -5  -8      0.00    0.25  0. 1.0000     0. 
   6   4   8      0.74    0.76  0. 1.0000     0. 
  -6  -3  -8     -0.26    1.27  0. 1.0000     0. 
  -6  -3  -8     -0.11    1.71  0. 1.0000     0. 
   6   3  -8      0.65    1.32  0. 1.0000     0. 
   6   3  -8      3.22    1.83  0. 1.0000     0. 
   6   3   8     -0.86    1.71  0. 1.0000     0. 
   6   3   8     -0.07    1.41  0. 1.0000     0. 
  -6  -3   8     -1.10    2.14  0. 1.0000     0. 
  -6  -3   8      0.81    1.20  0. 1.0000     0. 
  -6  -2  -8      0.47    1.50  0. 1.0000     0. 
   6   2  -8      2.08    1.76  0. 1.0000     0. 
   6   2  -8      0.01    1.37  0. 1.0000     0. 
  -6  -2  -8      4.02    1.34  0. 1.0000     0. 
   6   2   8      0.96    1.43  0. 1.0000     0. 
   6   2   8      0.24    1.66  0. 1.0000     0. 
  -6  -2   8     -2.97    1.50  0. 1.0000     0. 
  -6  -2   8     -2.48    2.05  0. 1.0000     0. 
   6   1  -8      1.55    1.44  0. 1.0000     0. 
   6   1  -8      2.10    1.79  0. 1.0000     0. 
  -6  -1  -8     -0.49    1.52  0. 1.0000     0. 
  -6  -1  -8      0.57    1.69  0. 1.0000     0. 
   6   1   8      3.19    1.83  0. 1.0000     0. 
  -6  -1   8      1.45    1.56  0. 1.0000     0. 
  -6  -1   8      1.90    2.10  0. 1.0000     0. 
   6   1   8      2.44    1.62  0. 1.0000     0. 
  -6   0  -8      9.49    1.73  0. 1.0000     0. 
  -6   0  -8     14.81    1.81  0. 1.0000     0. 
   6   0  -8     18.76    2.52  0. 1.0000     0. 
   6   0  -8     14.54    1.76  0. 1.0000     0. 
  -6   0   8     16.57    2.37  0. 1.0000     0. 
   6   0   8     13.61    2.05  0. 1.0000     0. 
  -6   0   8     15.26    2.32  0. 1.0000     0. 
   6   0   8     14.24    1.77  0. 1.0000     0. 
  -6   1  -8      1.29    1.50  0. 1.0000     0. 
   6  -1  -8      2.32    1.81  0. 1.0000     0. 
   6  -1  -8      2.77    1.52  0. 1.0000     0. 
  -6   1  -8      0.56    1.64  0. 1.0000     0. 
   6  -1   8     -1.67    1.48  0. 1.0000     0. 
  -6   1   8     -0.09    2.15  0. 1.0000     0. 
   6  -1   8      1.58    1.86  0. 1.0000     0. 
  -6   2  -8      0.01    1.48  0. 1.0000     0. 
  -6   2  -8      1.78    1.61  0. 1.0000     0. 
   6  -2  -8      2.73    1.42  0. 1.0000     0. 
   6  -2  -8      1.20    1.72  0. 1.0000     0. 
   6  -2   8      2.30    1.97  0. 1.0000     0. 
  -6   2   8      3.36    2.00  0. 1.0000     0. 
   6  -2   8      1.61    1.43  0. 1.0000     0. 
  -6   3  -8      0.21    1.44  0. 1.0000     0. 
  -6   3  -8      0.92    1.66  0. 1.0000     0. 
   6  -3  -8     -0.11    1.37  0. 1.0000     0. 
   6  -3  -8      1.80    1.75  0. 1.0000     0. 
  -6   3   8      2.85    1.97  0. 1.0000     0. 
   7   4   8     10.01    1.18  0. 1.0000     0. 
   7   3  -8      0.74    1.42  0. 1.0000     0. 
  -7  -3  -8      1.29    1.94  0. 1.0000     0. 
  -7  -3  -8      0.13    1.27  0. 1.0000     0. 
   7   3  -8      2.56    1.90  0. 1.0000     0. 
  -7  -3   8      2.88    1.23  0. 1.0000     0. 
   7   3   8     -0.48    1.89  0. 1.0000     0. 
  -7  -3   8     -2.77    2.29  0. 1.0000     0. 
   7   3   8     -0.42    1.62  0. 1.0000     0. 
  -7  -2  -8      0.67    1.86  0. 1.0000     0. 
  -7  -2  -8      0.04    1.33  0. 1.0000     0. 
   7   2  -8     -0.53    1.43  0. 1.0000     0. 
   7   2  -8     -1.19    1.84  0. 1.0000     0. 
  -7  -2   8     -2.48    1.48  0. 1.0000     0. 
  -7  -2   8     -2.36    2.27  0. 1.0000     0. 
   7   2   8     -0.63    1.59  0. 1.0000     0. 
   7   2   8     -0.69    1.85  0. 1.0000     0. 
  -7  -1  -8      0.77    1.34  0. 1.0000     0. 
  -7  -1  -8      0.51    1.76  0. 1.0000     0. 
   7   1  -8      1.39    1.51  0. 1.0000     0. 
   7   1  -8     -1.56    1.79  0. 1.0000     0. 
  -7  -1   8      3.42    2.19  0. 1.0000     0. 
  -7  -1   8     -0.68    1.52  0. 1.0000     0. 
   7   1   8      1.02    1.90  0. 1.0000     0. 
   7   1   8      0.96    1.51  0. 1.0000     0. 
   7   0  -8     11.00    1.72  0. 1.0000     0. 
   7   0  -8      6.85    1.93  0. 1.0000     0. 
  -7   0  -8     11.22    1.99  0. 1.0000     0. 
  -7   0  -8      8.89    1.75  0. 1.0000     0. 
  -7   0   8     12.70    2.31  0. 1.0000     0. 
   7   0   8     12.90    2.14  0. 1.0000     0. 
   7   0   8      8.88    1.77  0. 1.0000     0. 
  -7   0   8      9.24    1.85  0. 1.0000     0. 
  -7   1  -8     -0.36    1.49  0. 1.0000     0. 
   7  -1  -8      1.51    1.45  0. 1.0000     0. 
  -7   1  -8      0.98    1.78  0. 1.0000     0. 
   7  -1  -8     -0.05    1.71  0. 1.0000     0. 
   7  -1   8      1.05    1.89  0. 1.0000     0. 
   7  -1   8     -0.03    1.50  0. 1.0000     0. 
  -7   1   8      3.67    2.09  0. 1.0000     0. 
   7  -2  -8      0.77    1.54  0. 1.0000     0. 
   7  -2  -8      2.37    1.82  0. 1.0000     0. 
  -7   2  -8     -0.40    1.64  0. 1.0000     0. 
  -7   2  -8      1.68    1.56  0. 1.0000     0. 
   7  -2   8      0.87    1.43  0. 1.0000     0. 
   7  -2   8      3.53    1.90  0. 1.0000     0. 
  -7   2   8      4.40    2.12  0. 1.0000     0. 
   7  -3  -8      0.69    1.55  0. 1.0000     0. 
  -7   3  -8      2.43    1.70  0. 1.0000     0. 
   7  -3  -8      0.73    1.86  0. 1.0000     0. 
  -7   3  -8      0.23    1.45  0. 1.0000     0. 
  -7   3   8     -0.87    2.14  0. 1.0000     0. 
   7  -4  -8      3.50    0.94  0. 1.0000     0. 
   8   4   8     28.75    1.53  0. 1.0000     0. 
  -8  -3  -8      0.30    1.27  0. 1.0000     0. 
  -8  -3  -8     -1.25    1.91  0. 1.0000     0. 
   8   3  -8      0.30    1.95  0. 1.0000     0. 
   8   3   8      3.47    1.92  0. 1.0000     0. 
  -8  -3   8      2.41    0.98  0. 1.0000     0. 
  -8  -3   8      1.18    2.40  0. 1.0000     0. 
   8   3   8     -2.83    1.92  0. 1.0000     0. 
   8   2  -8     -0.14    1.97  0. 1.0000     0. 
  -8  -2  -8     -0.82    1.37  0. 1.0000     0. 
  -8  -2  -8      3.06    1.91  0. 1.0000     0. 
   8   2  -8     -1.10    1.47  0. 1.0000     0. 
   8   2   8      4.95    2.03  0. 1.0000     0. 
   8   2   8      4.43    1.76  0. 1.0000     0. 
  -8  -2   8     -0.46    1.53  0. 1.0000     0. 
  -8  -2   8     -1.23    2.30  0. 1.0000     0. 
  -8  -1  -8      1.89    1.83  0. 1.0000     0. 
  -8  -1  -8     -1.37    1.35  0. 1.0000     0. 
   8   1  -8     -0.85    1.68  0. 1.0000     0. 
   8   1  -8      2.01    1.88  0. 1.0000     0. 
   8   1   8     -1.60    1.56  0. 1.0000     0. 
  -8  -1   8      0.16    1.68  0. 1.0000     0. 
   8   1   8      1.50    2.06  0. 1.0000     0. 
  -8  -1   8     -3.74    2.30  0. 1.0000     0. 
  -8   0  -8      3.67    1.88  0. 1.0000     0. 
   8   0  -8      3.11    1.92  0. 1.0000     0. 
   8   0  -8      0.47    1.62  0. 1.0000     0. 
  -8   0  -8      1.82    1.50  0. 1.0000     0. 
  -8   0   8      2.04    2.34  0. 1.0000     0. 
  -8   0   8      2.82    1.71  0. 1.0000     0. 
   8   0   8      1.51    1.95  0. 1.0000     0. 
   8   0   8      1.12    1.60  0. 1.0000     0. 
  -8   1  -8      2.89    1.86  0. 1.0000     0. 
  -8   1  -8     -2.32    1.52  0. 1.0000     0. 
   8  -1  -8     -1.23    1.86  0. 1.0000     0. 
   8  -1  -8      1.18    1.62  0. 1.0000     0. 
  -8   1   8     -0.26    2.13  0. 1.0000     0. 
   8  -1   8     -0.73    1.97  0. 1.0000     0. 
   8  -1   8     -0.51    1.48  0. 1.0000     0. 
   8  -2  -8      0.78    1.66  0. 1.0000     0. 
  -8   2  -8      0.43    1.61  0. 1.0000     0. 
   8  -2  -8      0.60    1.89  0. 1.0000     0. 
  -8   2  -8      2.01    1.75  0. 1.0000     0. 
   8  -2   8     -0.32    1.61  0. 1.0000     0. 
  -8   2   8      5.09    2.26  0. 1.0000     0. 
   8  -2   8      2.47    2.02  0. 1.0000     0. 
   8  -3  -8      0.51    1.69  0. 1.0000     0. 
  -8   3  -8      0.07    1.73  0. 1.0000     0. 
   8  -3  -8      1.70    2.02  0. 1.0000     0. 
  -8   3  -8      0.73    1.62  0. 1.0000     0. 
   8  -3   8      0.79    1.45  0. 1.0000     0. 
  -8   4  -8     15.44    0.69  0. 1.0000     0. 
   0   0  -9      3.25    1.44  0. 1.0000     0. 
   0   0   9      3.40    1.29  0. 1.0000     0. 
   0   0   9      2.60    1.33  0. 1.0000     0. 
  -1   0  -9      2.47    1.07  0. 1.0000     0. 
   0   1  -9      2.83    1.09  0. 1.0000     0. 
   1   0  -9      2.72    1.13  0. 1.0000     0. 
   0   1  -9      4.49    1.53  0. 1.0000     0. 
   0  -1  -9      1.13    1.11  0. 1.0000     0. 
   1   0  -9      1.41    1.44  0. 1.0000     0. 
  -1   0  -9      2.42    1.39  0. 1.0000     0. 
  -1   0  -9      2.58    1.13  0. 1.0000     0. 
  -1   0  -9      2.10    1.33  0. 1.0000     0. 
   0  -1  -9      3.43    1.45  0. 1.0000     0. 
  -1   0   9      4.55    1.38  0. 1.0000     0. 
   0  -1   9      3.04    1.37  0. 1.0000     0. 
   1   0   9      4.74    1.31  0. 1.0000     0. 
  -1   0   9      0.97    1.34  0. 1.0000     0. 
   1   0   9      2.30    1.16  0. 1.0000     0. 
   1   0   9      3.41    1.21  0. 1.0000     0. 
   1   0   9      3.84    1.48  0. 1.0000     0. 
   0  -1   9      2.42    1.28  0. 1.0000     0. 
   0   1   9      1.89    1.23  0. 1.0000     0. 
   1  -1  -9     27.40    2.34  0. 1.0000     0. 
  -1   1  -9     31.66    2.29  0. 1.0000     0. 
   1   1  -9     26.39    2.46  0. 1.0000     0. 
  -1  -1  -9     27.24    2.05  0. 1.0000     0. 
   1   1  -9     27.73    2.14  0. 1.0000     0. 
  -1   1  -9     24.77    2.04  0. 1.0000     0. 
  -1   1  -9     27.20    2.32  0. 1.0000     0. 
  -1  -1  -9     27.01    2.24  0. 1.0000     0. 
  -1   1  -9     25.26    2.13  0. 1.0000     0. 
  -1  -1  -9     27.29    2.31  0. 1.0000     0. 
  -1  -1  -9     27.21    1.95  0. 1.0000     0. 
   1  -1  -9     31.05    2.16  0. 1.0000     0. 
  -1  -1   9     25.93    2.66  0. 1.0000     0. 
   1  -1   9     28.48    2.49  0. 1.0000     0. 
  -1   1   9     26.64    2.75  0. 1.0000     0. 
  -1  -1   9     25.93    2.33  0. 1.0000     0. 
   1  -1   9     30.13    2.25  0. 1.0000     0. 
   1  -1   9     29.55    2.16  0. 1.0000     0. 
   1   1   9     29.13    2.55  0. 1.0000     0. 
   1   1   9     29.36    2.32  0. 1.0000     0. 
   1  -1   9     28.26    2.40  0. 1.0000     0. 
   1   1   9     27.85    2.03  0. 1.0000     0. 
  -2  -1  -9     28.92    2.09  0. 1.0000     0. 
   2   1  -9     29.10    2.25  0. 1.0000     0. 
  -1   2  -9     26.01    2.14  0. 1.0000     0. 
  -2  -1  -9     32.66    2.58  0. 1.0000     0. 
   1  -2  -9     30.99    2.23  0. 1.0000     0. 
   2   1  -9     32.06    2.58  0. 1.0000     0. 
  -1   2  -9     28.65    2.12  0. 1.0000     0. 
  -1   2  -9     29.22    2.47  0. 1.0000     0. 
   1  -2  -9     31.55    2.47  0. 1.0000     0. 
   2   1   9     30.88    2.16  0. 1.0000     0. 
  -1   2   9     30.16    2.68  0. 1.0000     0. 
  -2  -1   9     28.68    2.94  0. 1.0000     0. 
   1  -2   9     30.36    2.13  0. 1.0000     0. 
   1  -2   9     30.53    2.50  0. 1.0000     0. 
   2   1   9     30.75    2.83  0. 1.0000     0. 
  -2  -1   9     27.55    2.47  0. 1.0000     0. 
   2   0  -9      5.42    1.23  0. 1.0000     0. 
   0   2  -9      5.01    1.11  0. 1.0000     0. 
   0  -2  -9      3.85    1.17  0. 1.0000     0. 
   2   0  -9      6.02    1.59  0. 1.0000     0. 
   0  -2  -9      4.75    1.48  0. 1.0000     0. 
   0   2  -9      6.46    1.60  0. 1.0000     0. 
  -2   0  -9      5.02    1.50  0. 1.0000     0. 
  -2   0  -9      4.87    1.29  0. 1.0000     0. 
   2   0   9      4.48    1.30  0. 1.0000     0. 
   0  -2   9      4.24    1.25  0. 1.0000     0. 
  -2   0   9      2.32    1.48  0. 1.0000     0. 
  -2   0   9      6.14    1.48  0. 1.0000     0. 
   0   2   9      6.42    1.26  0. 1.0000     0. 
   2   0   9      3.60    1.64  0. 1.0000     0. 
   0  -2   9      5.35    1.43  0. 1.0000     0. 
  -2   1  -9     26.97    2.64  0. 1.0000     0. 
   1   2  -9     32.45    2.67  0. 1.0000     0. 
  -1  -2  -9     30.83    2.47  0. 1.0000     0. 
  -1  -2  -9     27.03    2.28  0. 1.0000     0. 
  -1  -2  -9     30.94    2.05  0. 1.0000     0. 
   2  -1  -9     30.47    2.49  0. 1.0000     0. 
  -1  -2  -9     28.40    2.10  0. 1.0000     0. 
   1   2  -9     28.23    2.22  0. 1.0000     0. 
  -2   1  -9     29.40    2.30  0. 1.0000     0. 
   2  -1  -9     26.09    2.29  0. 1.0000     0. 
  -2   1   9     30.18    3.02  0. 1.0000     0. 
   1   2   9     32.40    2.49  0. 1.0000     0. 
   1   2   9     30.32    2.02  0. 1.0000     0. 
   2  -1   9     27.60    2.32  0. 1.0000     0. 
  -1  -2   9     31.24    2.33  0. 1.0000     0. 
   1   2   9     32.67    2.46  0. 1.0000     0. 
   2  -1   9     33.42    2.89  0. 1.0000     0. 
  -1  -2   9     25.21    2.96  0. 1.0000     0. 
   2  -2  -9     32.14    2.64  0. 1.0000     0. 
   2  -2  -9     33.53    2.38  0. 1.0000     0. 
  -2   2  -9     35.02    2.41  0. 1.0000     0. 
   2   2  -9     30.46    2.69  0. 1.0000     0. 
  -2  -2  -9     30.00    2.26  0. 1.0000     0. 
  -2  -2  -9     33.33    2.68  0. 1.0000     0. 
  -2   2  -9     30.27    2.56  0. 1.0000     0. 
   2   2  -9     33.14    2.41  0. 1.0000     0. 
   2  -2   9     33.03    2.29  0. 1.0000     0. 
  -2  -2   9     30.52    2.48  0. 1.0000     0. 
  -2   2   9     30.00    2.94  0. 1.0000     0. 
   2   2   9     33.73    2.76  0. 1.0000     0. 
   2   2   9     34.62    2.24  0. 1.0000     0. 
   2  -2   9     35.94    2.95  0. 1.0000     0. 
  -2  -2   9     32.03    3.17  0. 1.0000     0. 
  -3  -2  -9     31.27    2.43  0. 1.0000     0. 
  -2   3  -9     34.51    2.38  0. 1.0000     0. 
   3   2  -9     32.68    2.77  0. 1.0000     0. 
   2  -3  -9     32.74    2.45  0. 1.0000     0. 
   3   2  -9     35.02    2.54  0. 1.0000     0. 
  -3  -2  -9     37.01    2.89  0. 1.0000     0. 
   2  -3  -9     33.58    2.77  0. 1.0000     0. 
   3   2   9     31.62    2.46  0. 1.0000     0. 
  -3  -2   9     32.19    3.35  0. 1.0000     0. 
  -3  -2   9     31.50    2.67  0. 1.0000     0. 
   3   2   9     37.30    2.90  0. 1.0000     0. 
  -2   3   9     31.14    2.99  0. 1.0000     0. 
  -1   3  -9     32.78    2.27  0. 1.0000     0. 
   3   1  -9     29.34    2.73  0. 1.0000     0. 
  -1   3  -9     33.28    2.60  0. 1.0000     0. 
   3   1  -9     34.38    2.48  0. 1.0000     0. 
  -3  -1  -9     31.15    2.34  0. 1.0000     0. 
   1  -3  -9     36.27    2.76  0. 1.0000     0. 
   1  -3  -9     30.72    2.36  0. 1.0000     0. 
  -3  -1  -9     31.64    2.83  0. 1.0000     0. 
  -3  -1   9     30.74    2.55  0. 1.0000     0. 
   3   1   9     33.58    3.16  0. 1.0000     0. 
  -1   3   9     35.70    2.80  0. 1.0000     0. 
  -3  -1   9     39.19    3.25  0. 1.0000     0. 
   3   1   9     33.34    2.40  0. 1.0000     0. 
  -3   0  -9      6.08    1.47  0. 1.0000     0. 
   0  -3  -9      5.14    1.25  0. 1.0000     0. 
   3   0  -9      7.97    1.66  0. 1.0000     0. 
  -3   0  -9      7.96    1.69  0. 1.0000     0. 
   3   0  -9      6.00    1.37  0. 1.0000     0. 
   0   3  -9      8.04    1.72  0. 1.0000     0. 
   3   0   9      6.80    1.47  0. 1.0000     0. 
  -3   0   9      6.02    1.73  0. 1.0000     0. 
  -3   0   9      5.88    1.57  0. 1.0000     0. 
   3   0   9      8.14    1.89  0. 1.0000     0. 
  -3   1  -9     35.42    2.56  0. 1.0000     0. 
  -1  -3  -9     32.76    2.21  0. 1.0000     0. 
  -3   1  -9     36.85    3.00  0. 1.0000     0. 
  -1  -3  -9     33.56    2.61  0. 1.0000     0. 
   3  -1  -9     32.54    2.64  0. 1.0000     0. 
   3  -1  -9     29.66    2.53  0. 1.0000     0. 
   1   3  -9     37.06    2.79  0. 1.0000     0. 
  -3   1   9     35.82    3.29  0. 1.0000     0. 
   3  -1   9     34.58    3.25  0. 1.0000     0. 
   1   3   9     31.93    2.58  0. 1.0000     0. 
   3  -1   9     28.59    2.57  0. 1.0000     0. 
   3  -2  -9     31.24    2.53  0. 1.0000     0. 
   3  -2  -9     31.67    2.74  0. 1.0000     0. 
   2   3  -9     38.85    2.96  0. 1.0000     0. 
  -3   2  -9     32.62    2.54  0. 1.0000     0. 
  -2  -3  -9     31.81    2.80  0. 1.0000     0. 
  -3   2  -9     36.70    2.88  0. 1.0000     0. 
  -3   2   9     38.78    3.29  0. 1.0000     0. 
   3  -2   9     34.05    3.21  0. 1.0000     0. 
   2   3   9     39.78    2.76  0. 1.0000     0. 
   3  -2   9     30.65    2.49  0. 1.0000     0. 
   3  -3  -9     35.77    2.68  0. 1.0000     0. 
  -3  -3  -9     38.95    2.98  0. 1.0000     0. 
   3  -3  -9     35.10    3.00  0. 1.0000     0. 
  -3   3  -9     32.82    2.49  0. 1.0000     0. 
   3   3  -9     33.76    3.02  0. 1.0000     0. 
  -3   3   9     30.81    3.20  0. 1.0000     0. 
   3   3   9     35.67    2.46  0. 1.0000     0. 
   3   3   9     33.23    2.94  0. 1.0000     0. 
  -4  -3  -9     24.37    2.28  0. 1.0000     0. 
   4   3  -9     26.14    2.83  0. 1.0000     0. 
  -4  -3  -9     28.07    2.86  0. 1.0000     0. 
   4   3   9     23.80    2.37  0. 1.0000     0. 
   4   3   9     22.13    2.86  0. 1.0000     0. 
  -4  -2  -9     24.79    2.27  0. 1.0000     0. 
  -4  -2  -9     22.50    2.74  0. 1.0000     0. 
   4   2  -9     23.41    2.65  0. 1.0000     0. 
   4   2  -9     21.44    2.36  0. 1.0000     0. 
  -4  -2   9     27.53    3.12  0. 1.0000     0. 
   4   2   9     22.49    2.86  0. 1.0000     0. 
   4   2   9     20.51    2.35  0. 1.0000     0. 
  -4  -2   9     24.75    2.47  0. 1.0000     0. 
  -4  -1  -9     22.67    2.77  0. 1.0000     0. 
  -4  -1  -9     23.33    2.23  0. 1.0000     0. 
   4   1  -9     23.82    2.41  0. 1.0000     0. 
   4   1  -9     24.51    2.63  0. 1.0000     0. 
  -4  -1   9     20.56    2.48  0. 1.0000     0. 
   4   1   9     21.70    2.34  0. 1.0000     0. 
   4   1   9     25.04    3.22  0. 1.0000     0. 
  -4  -1   9     22.83    2.45  0. 1.0000     0. 
  -4   0  -9      4.58    1.84  0. 1.0000     0. 
   4   0  -9      5.67    1.75  0. 1.0000     0. 
   4   0  -9      1.70    1.38  0. 1.0000     0. 
  -4   0  -9      2.46    1.58  0. 1.0000     0. 
   4   0   9      3.18    2.13  0. 1.0000     0. 
   4   0   9      1.88    1.60  0. 1.0000     0. 
  -4   0   9      2.52    2.05  0. 1.0000     0. 
  -4   0   9      0.81    1.64  0. 1.0000     0. 
  -4   1  -9     21.55    2.81  0. 1.0000     0. 
  -4   1  -9     18.66    2.36  0. 1.0000     0. 
   4  -1  -9     23.01    2.54  0. 1.0000     0. 
   4  -1  -9     20.76    2.40  0. 1.0000     0. 
  -4   1   9     27.87    3.27  0. 1.0000     0. 
   4  -1   9     26.91    2.72  0. 1.0000     0. 
   4  -1   9     24.29    2.55  0. 1.0000     0. 
   4  -2  -9     23.80    2.35  0. 1.0000     0. 
   4  -2  -9     18.84    2.55  0. 1.0000     0. 
  -4   2  -9     21.66    2.59  0. 1.0000     0. 
  -4   2  -9     20.80    2.34  0. 1.0000     0. 
  -4   2   9     24.68    3.11  0. 1.0000     0. 
   4  -2   9     24.25    2.97  0. 1.0000     0. 
   4  -2   9     20.19    2.37  0. 1.0000     0. 
   4  -3  -9     21.94    2.37  0. 1.0000     0. 
  -4   3  -9     23.31    2.30  0. 1.0000     0. 
   4  -3  -9     26.42    2.74  0. 1.0000     0. 
  -4   3   9     23.21    3.00  0. 1.0000     0. 
   4  -4  -9      0.88    0.94  0. 1.0000     0. 
   4  -5  -9      7.77    0.48  0. 1.0000     0. 
  -5  -3  -9      7.48    1.55  0. 1.0000     0. 
   5   3  -9     10.00    2.02  0. 1.0000     0. 
   5   3  -9      7.01    1.60  0. 1.0000     0. 
  -5  -3  -9      8.92    2.15  0. 1.0000     0. 
   5   3   9     11.96    2.14  0. 1.0000     0. 
   5   3   9      7.22    1.59  0. 1.0000     0. 
  -5  -2  -9      8.29    1.58  0. 1.0000     0. 
   5   2  -9      7.20    1.53  0. 1.0000     0. 
  -5  -2  -9      4.48    1.93  0. 1.0000     0. 
   5   2  -9      7.05    1.96  0. 1.0000     0. 
  -5  -2   9      6.55    2.30  0. 1.0000     0. 
   5   2   9      7.27    1.52  0. 1.0000     0. 
   5   2   9     11.42    2.22  0. 1.0000     0. 
  -5  -2   9      7.55    1.65  0. 1.0000     0. 
  -5  -1  -9      9.04    1.99  0. 1.0000     0. 
   5   1  -9      5.89    1.88  0. 1.0000     0. 
  -5  -1  -9      5.43    1.47  0. 1.0000     0. 
   5   1  -9      8.66    1.54  0. 1.0000     0. 
  -5  -1   9      5.83    1.65  0. 1.0000     0. 
  -5  -1   9      6.82    2.29  0. 1.0000     0. 
   5   1   9      7.61    2.34  0. 1.0000     0. 
   5   1   9      6.98    1.50  0. 1.0000     0. 
  -5   0  -9      1.45    1.62  0. 1.0000     0. 
   5   0  -9     -2.49    1.36  0. 1.0000     0. 
  -5   0  -9      1.17    1.77  0. 1.0000     0. 
   5   0  -9     -0.79    1.67  0. 1.0000     0. 
  -5   0   9      2.00    2.09  0. 1.0000     0. 
   5   0   9     -0.53    2.16  0. 1.0000     0. 
  -5   0   9      0.88    1.59  0. 1.0000     0. 
   5   0   9     -1.79    1.65  0. 1.0000     0. 
  -5   1  -9      7.77    2.12  0. 1.0000     0. 
   5  -1  -9      8.83    1.79  0. 1.0000     0. 
   5  -1  -9      7.60    1.50  0. 1.0000     0. 
  -5   1  -9      6.51    1.66  0. 1.0000     0. 
   5  -1   9      6.50    2.36  0. 1.0000     0. 
  -5   1   9      7.09    2.31  0. 1.0000     0. 
   5  -1   9      7.27    1.72  0. 1.0000     0. 
   5  -2  -9      8.03    1.63  0. 1.0000     0. 
  -5   2  -9      6.13    1.88  0. 1.0000     0. 
  -5   2  -9      9.01    1.75  0. 1.0000     0. 
   5  -2   9      9.12    1.63  0. 1.0000     0. 
  -5   2   9      6.54    2.28  0. 1.0000     0. 
   5  -2   9     11.74    2.32  0. 1.0000     0. 
   5  -3  -9     10.81    2.05  0. 1.0000     0. 
  -5   3  -9      6.57    1.56  0. 1.0000     0. 
  -5   3  -9      4.10    1.54  0. 1.0000     0. 
   5  -3  -9      6.97    1.62  0. 1.0000     0. 
  -5   3   9     11.89    2.30  0. 1.0000     0. 
  -6  -3  -9     14.61    2.38  0. 1.0000     0. 
   6   3  -9     14.15    2.22  0. 1.0000     0. 
  -6  -3  -9     13.25    1.72  0. 1.0000     0. 
   6   3   9     14.28    2.01  0. 1.0000     0. 
   6   3   9     11.77    2.03  0. 1.0000     0. 
   6   2  -9     14.07    1.84  0. 1.0000     0. 
  -6  -2  -9     17.09    1.84  0. 1.0000     0. 
   6   2  -9     15.73    2.27  0. 1.0000     0. 
   6   2   9     18.45    1.95  0. 1.0000     0. 
  -6  -2   9     20.20    2.73  0. 1.0000     0. 
  -6  -2   9     12.33    1.94  0. 1.0000     0. 
   6   2   9     10.86    2.19  0. 1.0000     0. 
  -6  -1  -9      8.09    2.01  0. 1.0000     0. 
   6   1  -9     16.43    2.22  0. 1.0000     0. 
  -6  -1  -9     18.23    1.80  0. 1.0000     0. 
   6   1  -9     10.69    1.74  0. 1.0000     0. 
  -6  -1   9     13.39    2.60  0. 1.0000     0. 
  -6  -1   9     13.59    1.92  0. 1.0000     0. 
   6   1   9     13.26    1.80  0. 1.0000     0. 
   6   1   9     11.96    2.18  0. 1.0000     0. 
   6   0  -9      1.94    1.51  0. 1.0000     0. 
  -6   0  -9      1.26    1.86  0. 1.0000     0. 
  -6   0  -9      2.09    1.73  0. 1.0000     0. 
   6   0  -9      5.17    1.84  0. 1.0000     0. 
  -6   0   9      1.62    2.34  0. 1.0000     0. 
   6   0   9      2.79    1.80  0. 1.0000     0. 
   6   0   9      6.05    1.93  0. 1.0000     0. 
  -6   0   9      2.21    1.69  0. 1.0000     0. 
   6  -1  -9     13.37    2.09  0. 1.0000     0. 
  -6   1  -9      8.92    1.93  0. 1.0000     0. 
   6  -1  -9      9.95    1.75  0. 1.0000     0. 
  -6   1  -9     13.73    1.89  0. 1.0000     0. 
   6  -1   9     13.12    2.23  0. 1.0000     0. 
   6  -1   9     13.97    1.85  0. 1.0000     0. 
  -6   1   9     16.67    2.58  0. 1.0000     0. 
   6  -2  -9     14.24    1.85  0. 1.0000     0. 
  -6   2  -9     17.41    1.98  0. 1.0000     0. 
   6  -2  -9     15.94    2.28  0. 1.0000     0. 
  -6   2  -9     15.62    2.15  0. 1.0000     0. 
   6  -2   9     13.97    1.94  0. 1.0000     0. 
  -6   2   9     13.09    2.51  0. 1.0000     0. 
   6  -2   9     11.97    2.28  0. 1.0000     0. 
  -6   3  -9     15.97    1.92  0. 1.0000     0. 
   6  -3  -9     11.47    1.83  0. 1.0000     0. 
  -6   3  -9     11.76    1.77  0. 1.0000     0. 
   6  -3  -9     17.39    2.35  0. 1.0000     0. 
  -6   3   9     14.31    2.55  0. 1.0000     0. 
  -7  -3  -9     11.96    1.71  0. 1.0000     0. 
  -7  -3  -9     11.50    2.37  0. 1.0000     0. 
   7   3   9     14.78    2.28  0. 1.0000     0. 
  -7  -2  -9     13.54    2.29  0. 1.0000     0. 
   7   2  -9      8.41    2.19  0. 1.0000     0. 
   7   2  -9      6.58    1.80  0. 1.0000     0. 
  -7  -2  -9      9.88    1.74  0. 1.0000     0. 
  -7  -2   9     13.07    1.89  0. 1.0000     0. 
   7   2   9     13.45    2.05  0. 1.0000     0. 
  -7  -1  -9     10.88    2.20  0. 1.0000     0. 
   7   1  -9     10.98    1.91  0. 1.0000     0. 
  -7  -1  -9     11.31    1.76  0. 1.0000     0. 
   7   1  -9     13.91    2.28  0. 1.0000     0. 
   7   1   9     12.07    2.34  0. 1.0000     0. 
   7   1   9      9.93    1.94  0. 1.0000     0. 
  -7  -1   9     12.14    2.03  0. 1.0000     0. 
  -7   0  -9      0.99    1.92  0. 1.0000     0. 
  -7   0  -9      0.41    1.68  0. 1.0000     0. 
   7   0  -9      0.32    1.61  0. 1.0000     0. 
   7   0  -9      0.86    1.96  0. 1.0000     0. 
  -7   0   9      1.20    1.78  0. 1.0000     0. 
   7   0   9     -0.09    1.92  0. 1.0000     0. 
   7   0   9     -0.12    2.07  0. 1.0000     0. 
  -7   1  -9     11.08    1.93  0. 1.0000     0. 
   7  -1  -9      7.31    1.87  0. 1.0000     0. 
  -7   1  -9     13.17    2.27  0. 1.0000     0. 
   7  -1  -9     15.16    2.24  0. 1.0000     0. 
   7  -1   9     13.36    2.42  0. 1.0000     0. 
   7  -1   9     13.05    1.96  0. 1.0000     0. 
   7  -2  -9     13.61    1.97  0. 1.0000     0. 
  -7   2  -9     11.16    1.96  0. 1.0000     0. 
  -7   2  -9     12.47    2.14  0. 1.0000     0. 
   7  -2  -9     13.99    2.32  0. 1.0000     0. 
   7  -2   9     12.40    1.94  0. 1.0000     0. 
   7  -4  -9     -1.35    0.92  0. 1.0000     0. 
   0   0 -10      2.34    1.24  0. 1.0000     0. 
   0   0 -10      1.74    1.62  0. 1.0000     0. 
   0   0  10      1.99    1.59  0. 1.0000     0. 
   0   0  10      2.39    1.47  0. 1.0000     0. 
   0   1 -10     10.92    1.45  0. 1.0000     0. 
   1   0 -10      8.94    1.47  0. 1.0000     0. 
   1   0 -10     10.66    1.86  0. 1.0000     0. 
   0  -1 -10     13.57    1.89  0. 1.0000     0. 
   0  -1 -10      8.18    1.43  0. 1.0000     0. 
   0   1 -10     12.75    1.88  0. 1.0000     0. 
   0   1  10     13.89    1.72  0. 1.0000     0. 
  -1   0  10     10.94    1.90  0. 1.0000     0. 
   0   1  10     11.59    1.76  0. 1.0000     0. 
   0  -1  10     12.57    1.71  0. 1.0000     0. 
   0  -1  10     11.51    1.74  0. 1.0000     0. 
  -1   0  10     12.09    1.74  0. 1.0000     0. 
   1  -1 -10     28.75    2.64  0. 1.0000     0. 
   1  -1 -10     29.72    2.44  0. 1.0000     0. 
   1   1 -10     36.11    2.77  0. 1.0000     0. 
   1   1 -10     27.40    2.44  0. 1.0000     0. 
  -1   1  10     31.95    3.21  0. 1.0000     0. 
  -1  -1  10     27.37    2.61  0. 1.0000     0. 
  -1  -1  10     34.11    3.38  0. 1.0000     0. 
   2   1 -10     30.09    2.85  0. 1.0000     0. 
   2   1 -10     33.40    2.64  0. 1.0000     0. 
  -2  -1 -10     34.64    2.88  0. 1.0000     0. 
   1  -2 -10     35.15    2.85  0. 1.0000     0. 
  -2  -1 -10     33.80    2.53  0. 1.0000     0. 
   1  -2 -10     34.12    2.57  0. 1.0000     0. 
   2   1  10     32.34    2.48  0. 1.0000     0. 
  -1   2  10     35.99    3.12  0. 1.0000     0. 
  -2  -1  10     30.70    2.80  0. 1.0000     0. 
   2   1  10     38.20    3.23  0. 1.0000     0. 
  -2  -1  10     36.20    3.38  0. 1.0000     0. 
   0  -2 -10     11.20    1.54  0. 1.0000     0. 
   2   0 -10     17.61    2.38  0. 1.0000     0. 
   0   2 -10     15.72    2.00  0. 1.0000     0. 
   0  -2 -10     17.16    2.02  0. 1.0000     0. 
  -2   0 -10     21.63    2.61  0. 1.0000     0. 
   2   0 -10     13.12    1.64  0. 1.0000     0. 
  -2   0 -10     15.57    1.74  0. 1.0000     0. 
  -2   0  10     17.83    2.34  0. 1.0000     0. 
   0  -2  10      9.77    1.71  0. 1.0000     0. 
   0   2  10     14.80    1.87  0. 1.0000     0. 
   2   0  10     23.13    2.39  0. 1.0000     0. 
  -2   0  10     17.39    2.20  0. 1.0000     0. 
   2   0  10     16.51    1.75  0. 1.0000     0. 
   1   2 -10     36.40    2.48  0. 1.0000     0. 
   1   2 -10     30.31    2.84  0. 1.0000     0. 
  -2   1 -10     39.82    2.98  0. 1.0000     0. 
   2  -1 -10     31.36    2.78  0. 1.0000     0. 
  -2   1 -10     28.22    2.64  0. 1.0000     0. 
   2  -1 -10     37.28    2.66  0. 1.0000     0. 
   2  -1  10     35.04    2.69  0. 1.0000     0. 
  -1  -2  10     32.88    3.21  0. 1.0000     0. 
  -2   1  10     35.58    3.44  0. 1.0000     0. 
  -1  -2  10     30.62    2.58  0. 1.0000     0. 
   2  -1  10     38.92    3.42  0. 1.0000     0. 
  -2   2 -10     32.92    2.77  0. 1.0000     0. 
   2  -2 -10     33.64    2.74  0. 1.0000     0. 
  -2  -2 -10     38.80    2.60  0. 1.0000     0. 
   2   2 -10     43.64    2.76  0. 1.0000     0. 
  -2  -2 -10     42.09    3.12  0. 1.0000     0. 
  -2   2 -10     40.28    2.86  0. 1.0000     0. 
   2  -2 -10     35.14    3.00  0. 1.0000     0. 
   2   2 -10     38.35    3.06  0. 1.0000     0. 
  -2   2  10     39.29    3.35  0. 1.0000     0. 
   2   2  10     38.04    2.53  0. 1.0000     0. 
   2  -2  10     37.22    2.74  0. 1.0000     0. 
   2   2  10     45.12    3.23  0. 1.0000     0. 
  -2  -2  10     38.35    2.78  0. 1.0000     0. 
  -2  -2  10     39.48    3.62  0. 1.0000     0. 
   3   2 -10     30.84    3.00  0. 1.0000     0. 
   2  -3 -10     31.99    2.53  0. 1.0000     0. 
  -2   3 -10     31.88    2.50  0. 1.0000     0. 
  -2   3 -10     31.17    1.37  0. 1.0000     0. 
  -3  -2 -10     35.18    3.17  0. 1.0000     0. 
   2  -3 -10     33.66    2.97  0. 1.0000     0. 
   3   2 -10     37.42    2.71  0. 1.0000     0. 
  -3  -2 -10     33.21    2.56  0. 1.0000     0. 
   3   2  10     33.00    3.23  0. 1.0000     0. 
   3   2  10     34.91    2.59  0. 1.0000     0. 
  -3  -2  10     35.17    2.71  0. 1.0000     0. 
  -2   3  10     35.79    3.22  0. 1.0000     0. 
  -3  -2  10     35.48    3.57  0. 1.0000     0. 
   1  -3 -10     30.52    2.89  0. 1.0000     0. 
  -3  -1 -10     34.55    2.63  0. 1.0000     0. 
  -3  -1 -10     34.43    3.06  0. 1.0000     0. 
   3   1 -10     30.61    2.88  0. 1.0000     0. 
   1  -3 -10     31.12    2.42  0. 1.0000     0. 
   3   1 -10     27.06    2.61  0. 1.0000     0. 
   3   1  10     30.11    2.52  0. 1.0000     0. 
   3   1  10     30.99    3.31  0. 1.0000     0. 
  -3  -1  10     28.87    2.83  0. 1.0000     0. 
  -1   3  10     32.91    2.92  0. 1.0000     0. 
  -3  -1  10     33.58    3.51  0. 1.0000     0. 
   3   0 -10     16.62    2.04  0. 1.0000     0. 
   0   3 -10     15.36    2.32  0. 1.0000     0. 
  -3   0 -10     20.78    2.85  0. 1.0000     0. 
  -3   0 -10     14.99    1.85  0. 1.0000     0. 
   3   0 -10     11.50    1.65  0. 1.0000     0. 
   0  -3 -10     12.85    1.57  0. 1.0000     0. 
  -3   0  10     13.80    1.98  0. 1.0000     0. 
  -3   0  10     14.07    2.31  0. 1.0000     0. 
   3   0  10     22.92    3.13  0. 1.0000     0. 
   3   0  10     13.92    1.79  0. 1.0000     0. 
   3  -1 -10     32.71    2.76  0. 1.0000     0. 
   1   3 -10     32.34    3.19  0. 1.0000     0. 
   3  -1 -10     31.03    2.64  0. 1.0000     0. 
  -3   1 -10     32.57    2.66  0. 1.0000     0. 
  -3   1 -10     36.28    3.07  0. 1.0000     0. 
   3  -1  10     35.15    3.52  0. 1.0000     0. 
   3  -1  10     27.28    2.69  0. 1.0000     0. 
  -3   1  10     31.15    3.34  0. 1.0000     0. 
  -3   2 -10     35.05    3.08  0. 1.0000     0. 
   3  -2 -10     35.24    2.93  0. 1.0000     0. 
   3  -2 -10     36.67    2.78  0. 1.0000     0. 
   2   3 -10     31.96    3.05  0. 1.0000     0. 
  -3   2 -10     32.29    2.71  0. 1.0000     0. 
  -2  -3 -10     40.13    3.14  0. 1.0000     0. 
   2   3  10     32.46    3.05  0. 1.0000     0. 
   3  -2  10     30.71    2.80  0. 1.0000     0. 
   3  -2  10     31.36    3.47  0. 1.0000     0. 
  -3   2  10     35.93    3.37  0. 1.0000     0. 
   3   3 -10     25.00    2.85  0. 1.0000     0. 
   3  -3 -10     29.41    2.92  0. 1.0000     0. 
   3  -3 -10     26.80    2.55  0. 1.0000     0. 
  -3   3 -10     21.76    2.47  0. 1.0000     0. 
  -3  -3 -10     28.50    3.17  0. 1.0000     0. 
  -3   3 -10     27.69    1.19  0. 1.0000     0. 
  -3   3  10     29.98    3.20  0. 1.0000     0. 
   3   3  10     36.19    3.08  0. 1.0000     0. 
  -4  -3 -10     19.93    2.96  0. 1.0000     0. 
   4   3  10     23.51    2.43  0. 1.0000     0. 
   4   3  10     24.73    3.06  0. 1.0000     0. 
   4   2 -10     27.54    3.01  0. 1.0000     0. 
  -4  -2 -10     29.02    3.08  0. 1.0000     0. 
   4   2 -10     32.33    2.69  0. 1.0000     0. 
  -4  -2 -10     32.97    2.60  0. 1.0000     0. 
  -4  -2  10     32.29    3.73  0. 1.0000     0. 
  -4  -2  10     27.18    2.73  0. 1.0000     0. 
   4   2  10     29.93    3.27  0. 1.0000     0. 
   4   2  10     31.80    2.73  0. 1.0000     0. 
  -4  -1 -10     25.42    2.50  0. 1.0000     0. 
   4   1 -10     24.21    2.93  0. 1.0000     0. 
   1  -4 -10     28.19    1.13  0. 1.0000     0. 
  -4  -1 -10     26.36    2.94  0. 1.0000     0. 
   4   1 -10     28.02    2.67  0. 1.0000     0. 
   4   1  10     25.45    2.55  0. 1.0000     0. 
  -4  -1  10     26.92    3.57  0. 1.0000     0. 
   4   1  10     28.46    3.38  0. 1.0000     0. 
  -4  -1  10     25.18    2.67  0. 1.0000     0. 
  -4   0 -10     11.35    1.93  0. 1.0000     0. 
   4   0 -10     15.78    2.14  0. 1.0000     0. 
   4   0 -10     11.43    1.73  0. 1.0000     0. 
  -4   0  10     16.24    2.56  0. 1.0000     0. 
   4   0  10     17.33    2.76  0. 1.0000     0. 
  -4   0  10     14.66    2.07  0. 1.0000     0. 
  -4   1 -10     26.29    3.10  0. 1.0000     0. 
   4  -1 -10     22.97    2.57  0. 1.0000     0. 
   4  -1 -10     22.36    2.73  0. 1.0000     0. 
  -4   1 -10     22.81    2.53  0. 1.0000     0. 
   4  -1  10     23.48    2.76  0. 1.0000     0. 
   4  -1  10     26.53    3.45  0. 1.0000     0. 
  -4   1  10     29.81    3.34  0. 1.0000     0. 
  -4   2 -10     28.76    2.87  0. 1.0000     0. 
  -4   2 -10     25.55    2.61  0. 1.0000     0. 
   4  -2 -10     30.11    3.00  0. 1.0000     0. 
   4  -2 -10     26.12    2.70  0. 1.0000     0. 
   4  -2  10     33.38    3.42  0. 1.0000     0. 
   4  -2  10     24.99    2.89  0. 1.0000     0. 
  -4   2  10     31.79    3.34  0. 1.0000     0. 
   4  -3 -10     23.44    2.91  0. 1.0000     0. 
   4  -3 -10     25.91    2.62  0. 1.0000     0. 
  -4   3  10     24.91    3.24  0. 1.0000     0. 
   4  -4 -10      3.02    0.89  0. 1.0000     0. 
  -5  -3 -10     11.32    2.47  0. 1.0000     0. 
   5   3  10     15.41    1.83  0. 1.0000     0. 
  -5  -2 -10     18.75    2.48  0. 1.0000     0. 
   5   2 -10     17.25    1.96  0. 1.0000     0. 
  -5  -2 -10     18.60    1.98  0. 1.0000     0. 
   5   2 -10     16.92    2.38  0. 1.0000     0. 
  -5  -2  10     16.42    2.07  0. 1.0000     0. 
   5   2  10     14.83    1.90  0. 1.0000     0. 
   5   1 -10     13.47    1.89  0. 1.0000     0. 
   5   1 -10     14.83    2.33  0. 1.0000     0. 
  -5  -1 -10     12.30    2.35  0. 1.0000     0. 
  -5  -1 -10     13.94    1.85  0. 1.0000     0. 
   5   1  10     19.51    2.67  0. 1.0000     0. 
   5   1  10     14.39    1.84  0. 1.0000     0. 
  -5  -1  10     14.95    2.14  0. 1.0000     0. 
  -5  -1  10     15.85    2.70  0. 1.0000     0. 
  -5   0 -10      9.45    2.22  0. 1.0000     0. 
   5   0 -10      4.23    1.62  0. 1.0000     0. 
   5   0 -10     10.46    2.13  0. 1.0000     0. 
  -5   0 -10      6.58    1.85  0. 1.0000     0. 
   5   0  10      5.38    1.92  0. 1.0000     0. 
  -5   0  10     12.24    2.55  0. 1.0000     0. 
  -5   0  10      4.22    1.83  0. 1.0000     0. 
   5   0  10     12.27    2.73  0. 1.0000     0. 
   5  -1 -10     13.84    1.88  0. 1.0000     0. 
  -5   1 -10     14.04    2.54  0. 1.0000     0. 
  -5   1 -10     10.59    1.97  0. 1.0000     0. 
   5  -1 -10     16.09    2.28  0. 1.0000     0. 
   5  -1  10     20.77    2.81  0. 1.0000     0. 
  -5   1  10     19.77    2.60  0. 1.0000     0. 
   5  -1  10     12.88    2.04  0. 1.0000     0. 
   5  -2 -10     19.10    2.45  0. 1.0000     0. 
  -5   2 -10     19.48    2.53  0. 1.0000     0. 
  -5   2 -10     17.21    2.11  0. 1.0000     0. 
   5  -2 -10     17.80    2.02  0. 1.0000     0. 
   5  -2  10     17.33    2.15  0. 1.0000     0. 
   5  -3 -10     15.39    2.32  0. 1.0000     0. 
  -5   3 -10     15.83    1.28  0. 1.0000     0. 
   5  -3 -10     11.07    1.99  0. 1.0000     0. 
   5  -4 -10      2.62    1.01  0. 1.0000     0. 
  -6  -2 -10     19.82    2.22  0. 1.0000     0. 
   6   2 -10     20.33    2.65  0. 1.0000     0. 
   6   2 -10     26.50    2.80  0. 1.0000     0. 
  -6  -2 -10     21.50    3.08  0. 1.0000     0. 
   6   2  10     17.67    2.22  0. 1.0000     0. 
  -6  -2  10     17.95    2.27  0. 1.0000     0. 
   1   0 -11      2.35    1.42  0. 1.0000     0. 
   1   0 -11      2.29    1.86  0. 1.0000     0. 
  -1   0  11      2.97    1.74  0. 1.0000     0. 
  -1   0  11      3.98    2.31  0. 1.0000     0. 
   1  -1 -11      1.75    1.42  0. 1.0000     0. 
   1  -1 -11      4.08    1.84  0. 1.0000     0. 
   1   1 -11      3.12    1.90  0. 1.0000     0. 
   1   1 -11      1.73    1.38  0. 1.0000     0. 
  -1  -1  11      0.90    1.66  0. 1.0000     0. 
  -1   1  11      2.72    1.95  0. 1.0000     0. 
  -1  -1  11      2.55    1.98  0. 1.0000     0. 
  -1   1  11      2.28    1.74  0. 1.0000     0. 
   1  -2 -11      3.15    1.94  0. 1.0000     0. 
   2   1 -11      4.42    1.94  0. 1.0000     0. 
   2   1 -11      2.12    1.48  0. 1.0000     0. 
   1  -2 -11      1.78    1.49  0. 1.0000     0. 
  -2  -1  11      5.69    2.05  0. 1.0000     0. 
  -2  -1  11      6.35    1.83  0. 1.0000     0. 
  -1   2  11      7.10    2.06  0. 1.0000     0. 
   2   0 -11      4.69    1.87  0. 1.0000     0. 
   2   0 -11      3.23    1.48  0. 1.0000     0. 
  -2   0  11      6.50    2.30  0. 1.0000     0. 
  -2   0  11      4.32    1.85  0. 1.0000     0. 
   2  -1 -11      2.50    1.50  0. 1.0000     0. 
   2  -1 -11      2.51    1.91  0. 1.0000     0. 
   1   2 -11      0.72    1.91  0. 1.0000     0. 
  -1  -2  11      5.36    1.77  0. 1.0000     0. 
  -1  -2  11      1.88    1.27  0. 1.0000     0. 
  -2   1  11      7.11    2.09  0. 1.0000     0. 
  -2   1  11      4.63    1.86  0. 1.0000     0. 
   2   2 -11      6.52    2.04  0. 1.0000     0. 
   2   2 -11      4.39    1.47  0. 1.0000     0. 
   2  -2 -11      6.62    1.96  0. 1.0000     0. 
   2  -2 -11      5.13    1.58  0. 1.0000     0. 
  -2  -2  11      6.32    1.65  0. 1.0000     0. 
  -3  -1 -11      0.83    1.69  0. 1.0000     0. 
   3   1 -11     -1.37    1.54  0. 1.0000     0. 
   3   1 -11      0.35    1.91  0. 1.0000     0. 
   1  -3 -11      1.00    1.28  0. 1.0000     0. 
   1  -3 -11      3.31    1.49  0. 1.0000     0. 
  -3  -1 -11      0.43    2.03  0. 1.0000     0. 
   3   1  11      0.45    1.54  0. 1.0000     0. 
   3   1  11      4.86    2.57  0. 1.0000     0. 
  -3   0 -11      2.06    1.58  0. 1.0000     0. 
   3   0 -11      2.48    1.49  0. 1.0000     0. 
   3   0 -11      1.69    1.92  0. 1.0000     0. 
  -3   0 -11      1.41    2.60  0. 1.0000     0. 
   3   0  11     -1.14    1.49  0. 1.0000     0. 
   3   0  11      6.49    2.50  0. 1.0000     0. 
  -3   0  11      0.15    1.79  0. 1.0000     0. 
  -3   1 -11      4.35    2.43  0. 1.0000     0. 
   3  -2 -11      1.54    1.57  0. 1.0000     0. 
  -3   2 -11      3.65    1.86  0. 1.0000     0. 
   3  -2 -11      0.10    2.03  0. 1.0000     0. 
  -3   2 -11      1.29    1.86  0. 1.0000     0. 
   3  -2  11      2.70    1.85  0. 1.0000     0. 
  -4   0  11    128.07    5.99  0. 1.0000     0. 
-512 
#   4042 reflections output 
;
loop_
_symmetry_equiv_pos_as_xyz
x,y,z
-x,-y,-z
-y,x,z
y,-x,-z
-x,-y,z
x,y,-z
y,-x,z
-y,x,-z
-x,y,z
x,-y,-z
y,x,z
-y,-x,-z
x,-y,z
-x,y,-z
-y,-x,z
y,x,-z
loop_
_atom_site_label
_atom_site_type_symbol
_atom_site_fract_x
_atom_site_fract_y
_atom_site_fract_z
_atom_site_U_iso_or_equiv
_atom_site_occupancy
_atom_site_adp_type
_atom_site_refinement_flags_posn
_atom_site_refinement_flags_adp
_atom_site_refinement_flags_occupancy
_atom_site_disorder_assembly
_atom_site_disorder_group
_atom_site_attached_hydrogens
Zn1 Zn 0.5000 0.5000 0.3469(2) 0.0247 1.0000 Uani S T . . . .
C1 C 0.2638(10) 0.5000 0.5000 0.0305 1.0000 Uani DS TU . . . .
C2 C 0.1273(10) 0.5000 0.5000 0.0300 1.0000 Uani DS TU . . . .
C3 C 0.0633(4) 0.5000 0.3777(8) 0.0513 1.0000 Uani DS TU . . . .
C4 C 0.4115(6) 0.4115(6) 0.0800(5) 0.0246 0.3750 Uani DS U . . . .
C5 C 0.5000 0.3778(9) 0.0787(5) 0.0244 0.3750 Uani DS U . . . .
N1 N 0.5000 0.5000 0.1350 0.0236 1.0000 Uani D U . . . .
O1 O 0.3177(7) 0.5000 0.3853(6) 0.0383 1.0000 Uani DS TU . . . .
H13 H 0.3304 0.4392 0.1006 0.0468 0.3750 Uiso R . . . . .
H32 H 0.1059 0.5000 0.2926 0.0597 1.0000 Uiso RS . . . . .
H51 H 0.5715 0.3359 0.1104 0.0293 0.3750 Uiso R . . . . .
H52 H 0.4288 0.3359 0.1104 0.0293 0.3750 Uiso R . . . . .
loop_
_atom_site_aniso_label
_atom_site_aniso_U_11
_atom_site_aniso_U_22
_atom_site_aniso_U_33
_atom_site_aniso_U_23
_atom_site_aniso_U_13
_atom_site_aniso_U_12
Zn1 0.0282(13) 0.0282(13) 0.0177(10) 0.0000 0.0000 0.0000
C1 0.027(4) 0.026(9) 0.039(4) 0.0000 0.0000 0.0000
C2 0.026(4) 0.033(9) 0.031(4) 0.0000 0.0000 0.0000
C3 0.031(5) 0.095(10) 0.028(4) 0.0000 0.001(2) 0.0000
C4 0.0291 0.0291 0.0155 -0.0013 -0.0013 -0.0002
C5 0.0292 0.0289 0.0150 -0.0019 0.0000 0.0000
N1 0.0272 0.0272 0.0165 0.0000 0.0000 0.0000
O1 0.025(4) 0.051(6) 0.039(3) 0.0000 -0.001(3) 0.0000
loop_
_atom_type_symbol
_atom_type_scat_dispersion_real
_atom_type_scat_dispersion_imag
_atom_type_scat_Cromer_Mann_a1
_atom_type_scat_Cromer_Mann_b1
_atom_type_scat_Cromer_Mann_a2
_atom_type_scat_Cromer_Mann_b2
_atom_type_scat_Cromer_Mann_a3
_atom_type_scat_Cromer_Mann_b3
_atom_type_scat_Cromer_Mann_a4
_atom_type_scat_Cromer_Mann_b4
_atom_type_scat_Cromer_Mann_c
_atom_type_scat_source
C 0.0033 0.0016 2.3100 20.8439 1.0200 10.2075 1.5886 0.5687 0.8650 51.6512
0.2156 'International Tables Vol C 4.2.6.8 and 6.1.1.4'
H 0.0000 0.0000 0.4930 10.5109 0.3229 26.1257 0.1402 3.1424 0.0408 57.7998
0.0030 'International Tables Vol C 4.2.6.8 and 6.1.1.4'
N 0.0061 0.0033 12.2126 0.0057 3.1322 9.8933 2.0125 28.9975 1.1663 0.5826
-11.5290 'International Tables Vol C 4.2.6.8 and 6.1.1.4'
O 0.0106 0.0060 3.0485 13.2771 2.2868 5.7011 1.5463 0.3239 0.8670 32.9089
0.2508 'International Tables Vol C 4.2.6.8 and 6.1.1.4'
Zn 0.2839 1.4301 14.0743 3.2655 7.0318 0.2333 5.1652 10.3163 2.4100 58.7097
1.3041 'International Tables Vol C 4.2.6.8 and 6.1.1.4'
loop_
_geom_angle_atom_site_label_1
_geom_angle_site_symmetry_1
_geom_angle_atom_site_label_2
_geom_angle_site_symmetry_2
_geom_angle_atom_site_label_3
_geom_angle_site_symmetry_3
_geom_angle
_geom_angle_publ_flag
Zn1 2_666 Zn1 . O1 3_655 79.44(18) yes
Zn1 2_666 Zn1 . O1 5_665 79.44(18) yes
O1 3_655 Zn1 . O1 5_665 88.07(7) yes
Zn1 2_666 Zn1 . O1 7_565 79.44(18) yes
O1 3_655 Zn1 . O1 7_565 158.9(4) yes
O1 5_665 Zn1 . O1 7_565 88.07(7) yes
Zn1 2_666 Zn1 . O1 . 79.44(18) yes
O1 3_655 Zn1 . O1 . 88.07(7) yes
O1 5_665 Zn1 . O1 . 158.9(4) yes
O1 7_565 Zn1 . O1 . 88.07(7) yes
O1 6_556 C1 . C2 . 118.0(6) yes
O1 6_556 C1 . O1 . 124.1(11) yes
C2 . C1 . O1 . 118.0(6) yes
C1 . C2 . C3 6_556 120.6(5) yes
C1 . C2 . C3 . 120.6(5) yes
C3 6_556 C2 . C3 . 118.8(10) yes
C3 5_565 C3 . C2 . 120.6(5) yes
C3 5_565 C3 . H32 . 119.5 no
C2 . C3 . H32 . 119.9 no
C4 6_555 C4 . H13 11_555 102.0 no
C4 6_555 C4 . H52 11_555 109.1 no
H13 11_555 C4 . H52 11_555 114.7 no
C4 6_555 C4 . H51 7_565 109.1 no
H13 11_555 C4 . H51 7_565 114.5 no
H52 11_555 C4 . H51 7_565 0.2 no
C4 6_555 C4 . H51 9_655 109.1 no
H13 11_555 C4 . H51 9_655 9.3 no
H52 11_555 C4 . H51 9_655 106.1 no
H51 7_565 C4 . H51 9_655 105.9 no
C4 6_555 C4 . N1 . 111.2(2) yes
H13 11_555 C4 . N1 . 109.0 no
H52 11_555 C4 . N1 . 110.5 no
H51 7_565 C4 . N1 . 110.6 no
H51 9_655 C4 . N1 . 110.6 no
C4 6_555 C4 . H13 . 102.0 no
H13 11_555 C4 . H13 . 122.9 no
H52 11_555 C4 . H13 . 9.2 no
H51 7_565 C4 . H13 . 9.3 no
H51 9_655 C4 . H13 . 114.5 no
C4 6_555 C4 . H52 . 109.1 no
H13 11_555 C4 . H52 . 9.2 no
H52 11_555 C4 . H52 . 106.3 no
H51 7_565 C4 . H52 . 106.1 no
H51 9_655 C4 . H52 . 0.2 no
N1 . C4 . H13 . 109.0 no
N1 . C4 . H52 . 110.5 no
H13 . C4 . H52 . 114.7 no
C5 6_555 C5 . H51 9_655 108.7 no
C5 6_555 C5 . H52 9_655 108.8 no
H51 9_655 C5 . H52 9_655 109.5 no
C5 6_555 C5 . N1 . 112.2(2) yes
H51 9_655 C5 . N1 . 108.8 no
H52 9_655 C5 . N1 . 108.8 no
C5 6_555 C5 . H51 . 108.7 no
H51 9_655 C5 . H51 . 109.6 no
H52 9_655 C5 . H51 . 0.1 no
N1 . C5 . H51 . 108.8 no
C5 6_555 C5 . H52 . 108.8 no
H51 9_655 C5 . H52 . 0.1 no
H52 9_655 C5 . H52 . 109.3 no
N1 . C5 . H52 . 108.8 no
H51 . C5 . H52 . 109.5 no
C4 5_665 N1 . C4 7_565 82.45(15) yes
C4 5_665 N1 . C4 3_655 82.45(15) yes
C4 7_565 N1 . C4 3_655 137.5(5) yes
C4 5_665 N1 . C4 . 137.5(5) yes
C4 7_565 N1 . C4 . 82.45(15) yes
C4 3_655 N1 . C4 . 82.45(15) yes
C4 5_665 N1 . C5 11_555 118.2(2) yes
C4 7_565 N1 . C5 11_555 41.66(5) yes
C4 3_655 N1 . C5 11_555 118.2(2) yes
C4 . N1 . C5 11_555 41.66(5) yes
C4 5_665 N1 . C5 . 118.2(2) yes
C4 7_565 N1 . C5 . 118.2(2) yes
C4 3_655 N1 . C5 . 41.66(5) yes
C4 . N1 . C5 . 41.66(5) yes
C5 11_555 N1 . C5 . 81.78(17) yes
C4 5_665 N1 . C5 3_655 41.66(5) yes
C4 7_565 N1 . C5 3_655 118.2(2) yes
C4 3_655 N1 . C5 3_655 41.66(5) yes
C4 . N1 . C5 3_655 118.2(2) yes
C5 11_555 N1 . C5 3_655 135.6(5) yes
C4 5_665 N1 . C5 5_665 41.66(5) yes
C4 7_565 N1 . C5 5_665 41.66(5) yes
C4 3_655 N1 . C5 5_665 118.2(2) yes
C4 . N1 . C5 5_665 118.2(2) yes
C5 11_555 N1 . C5 5_665 81.78(17) yes
C5 . N1 . C5 3_655 81.78(17) yes
C5 . N1 . C5 5_665 135.6(5) yes
C5 3_655 N1 . C5 5_665 81.78(17) yes
Zn1 . O1 . C1 . 128.5(7) yes
C5 . H51 . C4 3_655 67.8 no
C5 . H52 . C4 . 67.9 no
loop_
_geom_bond_atom_site_label_1
_geom_bond_site_symmetry_1
_geom_bond_atom_site_label_2
_geom_bond_site_symmetry_2
_geom_bond_distance
_geom_bond_publ_flag
Zn1 . Zn1 2_666 2.977(4) yes
Zn1 . O1 3_655 2.036(8) yes
Zn1 . O1 5_665 2.036(8) yes
Zn1 . O1 7_565 2.036(8) yes
Zn1 . O1 . 2.036(8) yes
C1 . O1 6_556 1.262(6) yes
C1 . C2 . 1.499(8) yes
C1 . O1 . 1.262(6) yes
C2 . C3 6_556 1.381(7) yes
C2 . C3 . 1.381(7) yes
C3 . C3 5_565 1.390(9) yes
C3 . H32 . 0.950 no
C4 . C4 6_555 1.556(9) yes
C4 . H13 11_555 0.962 no
C4 . H52 11_555 0.901 no
C4 . H51 7_565 0.901 no
C4 . H51 9_655 0.901 no
C4 . N1 . 1.475(9) yes
C4 . H13 . 0.962 no
C4 . H52 . 0.901 no
C5 . C5 6_555 1.529(9) yes
C5 . H51 9_655 0.961 no
C5 . H52 9_655 0.959 no
C5 . N1 . 1.449(9) yes
C5 . H51 . 0.961 no
C5 . H52 . 0.959 no
loop_
_platon_squeeze_void_nr
_platon_squeeze_void_average_x
_platon_squeeze_void_average_y
_platon_squeeze_void_average_z
_platon_squeeze_void_volume
_platon_squeeze_void_count_electrons
_platon_squeeze_void_content
1 -0.002 -0.002 -0.020 719 202 '7.8 (C2 O H6)'
loop_
_oxford_refln_omitted_index_h
_oxford_refln_omitted_index_k
_oxford_refln_omitted_index_l
_oxford_refln_omitted_flag
_oxford_refln_omitted_details
0 4 0 x .
3 11 5 x .
4 7 9 x .
4 6 5 x .
0 3 2 x .
0 4 11 x .
0 0 2 x .
