#------------------------------------------------------------------------------
#$Date: 2021-10-02 01:15:17 +0300 (Sat, 02 Oct 2021) $
#$Revision: 269438 $
#$URL: file:///home/coder/svn-repositories/cod/cif/1/56/47/1564792.cif $
#------------------------------------------------------------------------------
#
# This file is available in the Crystallography Open Database (COD),
# http://www.crystallography.net/
#
# All data on this site have been placed in the public domain by the
# contributors.
#
data_1564792
loop_
_publ_author_name
'Guan, Zhipeng'
'Zhu, Shuxiang'
'Yang, Yankai'
'Liu, Yanlong'
'Wang, Siyuan'
'Bu, Faxiang'
'Cong, Hengjiang'
'Alhumade, Hesham'
'Zhang, Heng'
'Lei, Aiwen'
_publ_section_title
;
 Electrochemically Selective Double C(sp2)-X (X=S/Se, N) Bonds Formation
 of One Carbon
;
_journal_name_full               'Chemical Science'
_journal_paper_doi               10.1039/D1SC04475C
_journal_year                    2021
_chemical_formula_moiety         'C17 H15 Cl N4 O2 S'
_chemical_formula_sum            'C17 H15 Cl N4 O2 S'
_chemical_formula_weight         374.84
_space_group_crystal_system      triclinic
_space_group_IT_number           2
_space_group_name_Hall           '-P 1'
_space_group_name_H-M_alt        'P -1'
_atom_sites_solution_hydrogens   geom
_atom_sites_solution_primary     dual
_audit_block_doi                 10.5517/ccdc.csd.cc27r9r2
_audit_creation_date             2021-04-06
_audit_creation_method
;
Olex2 1.2
(compiled 2018.05.29 svn.r3508 for OlexSys, GUI svn.r5506)
;
_audit_update_record
;
2021-04-16 deposited with the CCDC.	2021-10-01 downloaded from the CCDC.
;
_cell_angle_alpha                102.235(2)
_cell_angle_beta                 107.273(2)
_cell_angle_gamma                99.656(2)
_cell_formula_units_Z            2
_cell_length_a                   7.7386(2)
_cell_length_b                   11.0939(2)
_cell_length_c                   11.2012(3)
_cell_measurement_reflns_used    12503
_cell_measurement_temperature    297.46(12)
_cell_measurement_theta_max      65.1090
_cell_measurement_theta_min      4.1360
_cell_volume                     869.57(4)
_computing_cell_refinement
'CrysAlisPro 1.171.39.46 (Rigaku Oxford Diffraction, 2018)'
_computing_data_collection
'CrysAlisPro 1.171.39.46 (Rigaku Oxford Diffraction, 2018)'
_computing_data_reduction
'CrysAlisPro 1.171.39.46 (Rigaku Oxford Diffraction, 2018)'
_computing_molecular_graphics    'Olex2 (Dolomanov et al., 2009)'
_computing_publication_material  'Olex2 (Dolomanov et al., 2009)'
_computing_structure_refinement  'XL (Sheldrick, 2008)'
_computing_structure_solution    'XT (Sheldrick, 2015)'
_diffrn_ambient_environment      air
_diffrn_ambient_temperature      297.46(12)
_diffrn_detector                 'Hybrid Pixel Counting (HPC) detector'
_diffrn_detector_area_resol_mean 28.5714
_diffrn_detector_type            'Rigaku HyPix-6000HE'
_diffrn_measured_fraction_theta_full 0.980
_diffrn_measured_fraction_theta_max 0.980
_diffrn_measurement_details
;
List of Runs (angles in degrees, time in seconds):

  # Type    Start    End  Width  t~exp~   \w     \q     \k     \f   Frames
#--------------------------------------------------------------------------
  1  \w    -39.00  89.00   0.50    0.50    --    0.00  38.00 -30.00  256
  2  \w    -39.00  89.00   0.50    0.50    --    0.00  38.00 -30.00  256
  3  \w    -34.00  94.00   0.50    0.50    --    5.00  75.00  60.00  256
  4  \w    -29.00  94.00   0.50    0.50    --    5.00  57.00-180.00  246
  5  \w   -145.00 -21.00   0.50    0.50    --  -56.00 -66.00  93.02  248
  6  \w   -149.00 -22.00   0.50    0.50    --  -60.00 -73.00 -61.83  254
  7  \w   -153.00 -25.00   0.50    0.50    --  -64.00 -75.00  18.19  256
  8  \w   -153.00 -26.00   0.50    0.50    --  -64.00 -73.00 -94.20  254
  9  \w   -157.00 -31.00   0.50    0.50    --  -68.00 -72.00-147.00  252
 10  \w   -161.00 -33.00   0.50    0.50    --  -72.00 -74.00  80.13  256
 11  \w   -161.00 -33.00   0.50    0.50    --  -72.00 -74.00 110.00  256
 12  \w   -165.00 -37.00   0.50    0.50    --  -76.00 -75.00 -86.83  256
 13  \w   -165.00 -39.00   0.50    0.50    --  -76.00 -72.00 164.75  252
 14  \w   -165.00 -37.00   0.50    0.50    --  -76.00 -75.00 -86.83  256
 15  \w   -169.00 -42.00   0.50    0.50    --  -80.00 -73.00-117.28  254
 16  \w   -173.00 -48.00   0.50    0.50    --  -84.50 -70.00 -61.45  250
 17  \w   -123.00   4.00   0.50    0.50    --  -84.50  75.00  90.00  254
 18  \w   -173.00 -46.00   0.50    0.50    --  -84.50 -75.00  30.00  254
 19  \w   -123.00   4.00   0.50    0.50    --  -84.50  75.00-150.00  254
 20  \w   -173.00 -46.00   0.50    0.50    --  -84.50 -75.00 120.00  254
 21  \w   -173.00 -46.00   0.50    0.50    --  -84.50 -75.00  90.00  254
 22  \w   -173.00 -46.00   0.50    0.50    --  -84.50 -75.00-150.00  254
 23  \w   -173.00 -51.00   0.50    0.50    --  -84.50 -57.00-150.00  244
 24  \w   -123.00   4.00   0.50    0.50    --  -84.50  75.00 150.00  254
 25  \w   -123.00   4.00   0.50    0.50    --  -84.50  75.00   0.00  254
 26  \w   -173.00 -46.00   0.50    0.50    --  -84.50 -75.00-180.00  254
 27  \w   -123.00   4.00   0.50    0.50    --  -84.50  75.00 -60.00  254
 28  \w   -173.00 -46.00   0.50    0.50    --  -84.50 -75.00   0.00  254
 29  \w   -173.00 -46.00   0.50    0.50    --  -84.50 -75.00  60.00  254
 30  \w    -39.00  89.00   0.50    0.50    --    0.00  38.00-180.00  256
 31  \w    -39.00  89.00   0.50    0.50    --    0.00  38.00 120.00  256
 32  \w   -161.00 -33.00   0.50    0.50    --  -72.00 -75.00-163.62  256
 33  \w   -173.00 -46.00   0.50    0.50    --  -84.50 -75.00 -30.00  254
 34  \w   -123.00   4.00   0.50    0.50    --  -84.50  75.00 -90.00  254
 35  \w   -173.00 -50.00   0.50    0.50    --  -84.50 -48.00 112.78  246
;
_diffrn_measurement_device       'AFC12 (Right): Kappa 3 circle'
_diffrn_measurement_device_type  'Rigaku XtaLAB P200'
_diffrn_measurement_method       'profile data from \w-scans and \phi-scans'
_diffrn_measurement_specimen_support 'Mitegen 50um'
_diffrn_orient_matrix_type
'CrysAlisPro convention (1999,Acta A55,543-557)'
_diffrn_orient_matrix_UB_11      -0.1055895000
_diffrn_orient_matrix_UB_12      0.1055410000
_diffrn_orient_matrix_UB_13      0.0109926000
_diffrn_orient_matrix_UB_21      0.0994118000
_diffrn_orient_matrix_UB_22      0.0641410000
_diffrn_orient_matrix_UB_23      -0.0791621000
_diffrn_orient_matrix_UB_31      -0.1589285000
_diffrn_orient_matrix_UB_32      -0.0790640000
_diffrn_orient_matrix_UB_33      -0.1268670000
_diffrn_radiation_collimation    0.3
_diffrn_radiation_monochromator  'VariMax VHF'
_diffrn_radiation_probe          x-ray
_diffrn_radiation_type           CuK\a
_diffrn_radiation_wavelength     1.54184
_diffrn_reflns_av_R_equivalents  0.0361
_diffrn_reflns_av_unetI/netI     0.0206
_diffrn_reflns_Laue_measured_fraction_full 0.980
_diffrn_reflns_Laue_measured_fraction_max 0.980
_diffrn_reflns_limit_h_max       9
_diffrn_reflns_limit_h_min       -9
_diffrn_reflns_limit_k_max       13
_diffrn_reflns_limit_k_min       -13
_diffrn_reflns_limit_l_max       13
_diffrn_reflns_limit_l_min       -13
_diffrn_reflns_number            27579
_diffrn_reflns_point_group_measured_fraction_full 0.980
_diffrn_reflns_point_group_measured_fraction_max 0.980
_diffrn_reflns_theta_full        65.646
_diffrn_reflns_theta_max         65.646
_diffrn_reflns_theta_min         4.208
_diffrn_source                   'Rotating Anode'
_diffrn_source_current           30.0
_diffrn_source_power             1.2
_diffrn_source_target            Cu
_diffrn_source_type              'Rigaku MicroMax-007HF'
_diffrn_source_voltage           40.0
_exptl_absorpt_coefficient_mu    3.231
_exptl_absorpt_correction_T_max  1.00000
_exptl_absorpt_correction_T_min  0.82449
_exptl_absorpt_correction_type   multi-scan
_exptl_absorpt_process_details
;
CrysAlisPro 1.171.39.46 (Rigaku Oxford Diffraction, 2018)
Empirical absorption correction using spherical harmonics,
 implemented in SCALE3 ABSPACK scaling algorithm.
;
_exptl_crystal_colour            colourless
_exptl_crystal_colour_primary    colourless
_exptl_crystal_density_diffrn    1.432
_exptl_crystal_description       block
_exptl_crystal_F_000             388
_exptl_crystal_size_max          0.08
_exptl_crystal_size_mid          0.06
_exptl_crystal_size_min          0.04
_refine_diff_density_max         0.116
_refine_diff_density_min         -0.248
_refine_diff_density_rms         0.030
_refine_ls_extinction_method     none
_refine_ls_goodness_of_fit_ref   1.096
_refine_ls_hydrogen_treatment    constr
_refine_ls_matrix_type           full
_refine_ls_number_parameters     227
_refine_ls_number_reflns         2949
_refine_ls_number_restraints     0
_refine_ls_restrained_S_all      1.096
_refine_ls_R_factor_all          0.0384
_refine_ls_R_factor_gt           0.0312
_refine_ls_shift/su_max          0.000
_refine_ls_shift/su_mean         0.000
_refine_ls_structure_factor_coef Fsqd
_refine_ls_weighting_details
'w=1/[\s^2^(Fo^2^)+(0.0471P)^2^+0.1057P] where P=(Fo^2^+2Fc^2^)/3'
_refine_ls_weighting_scheme      calc
_refine_ls_wR_factor_gt          0.0877
_refine_ls_wR_factor_ref         0.0917
_reflns_Friedel_coverage         0.000
_reflns_number_gt                2438
_reflns_number_total             2949
_reflns_threshold_expression     'I > 2\s(I)'
_cod_data_source_file            d1sc04475c2.cif
_cod_data_source_block           zhushuxiang-zsx-c1-20210405-rt
_cod_database_code               1564792
_shelx_shelxl_version_number     2014/7
_chemical_oxdiff_formula         'C H N O S Cl'
_shelx_space_group_comment
;
The symmetry employed for this shelxl refinement is uniquely defined
by the following loop, which should always be used as a source of
symmetry information in preference to the above space-group names.
They are only intended as comments.
;
_shelx_estimated_absorpt_t_max   0.882
_shelx_estimated_absorpt_t_min   0.782
_reflns_odcompleteness_completeness 99.29
_reflns_odcompleteness_iscentric 1
_reflns_odcompleteness_theta     61.08
_olex2_refinement_description
;
1. Fixed Uiso
 At 1.2 times of:
  All C(H) groups, All C(H,H) groups
 At 1.5 times of:
  All C(H,H,H) groups
2.a Secondary CH2 refined with riding coordinates:
 C4(H4A,H4B), C2(H2A,H2B)
2.b Aromatic/amide H refined with riding coordinates:
 C13(H13), C14(H14), C16(H16), C17(H17), C7(H7), C10(H10), C8(H8), C9(H9)
2.c Idealised Me refined as rotating group:
 C1(H1A,H1B,H1C)
;
_shelx_res_file
;
    zhushuxiang-zsx-c1-20210405-rt.res created by SHELXL-2014/7

TITL zhushuxiang-zsx-c1-20210405-rt_a.res in P-1
REM Old TITL zhushuxiang-zsx-c1-20210405-rt_a.res in P-1
REM SHELXT solution in P-1
REM R1 0.172, Rweak 0.008, Alpha 0.029, Orientation as input
REM Formula found by SHELXT: C19 Cl N2 O2 S
CELL 1.54184 7.7386 11.0939 11.2012 102.235 107.273 99.656
ZERR 2 0.0002 0.0002 0.0003 0.002 0.002 0.002
LATT 1
SFAC C H Cl N O S
UNIT 34 30 2 8 4 2

L.S. 10
PLAN  20
SIZE 0.04 0.06 0.08
BOND $H
list 4
fmap 2
acta
REM <olex2.extras>
REM <HklSrc "%.\\zhushuxiang-zsx-c1-20210405-rt.hkl">
REM </olex2.extras>

WGHT    0.047100    0.105700
FVAR       0.93708
S1    6    0.074940    0.180319    0.506086    11.00000    0.04790    0.05888 =
         0.09016    0.02863    0.02432    0.00525
CL1   3    0.834763    0.064421    0.778290    11.00000    0.06118    0.07548 =
         0.10634    0.03464    0.01408    0.01593
O1    5    0.555834    0.636781    0.779569    11.00000    0.06879    0.04714 =
         0.07125    0.01016    0.01422    0.00739
O2    5    0.346269    0.660249    0.604555    11.00000    0.07783    0.05348 =
         0.08085    0.02458    0.02036    0.01242
N2    4    0.008094    0.285454    0.309331    11.00000    0.04990    0.04324 =
         0.07148    0.01247    0.01601    0.00609
N1    4    0.256343    0.408215    0.483858    11.00000    0.05229    0.04760 =
         0.06978    0.01382    0.01721    0.00569
N3    4   -0.095428    0.165557    0.231283    11.00000    0.06161    0.04550 =
         0.08143    0.00879    0.01120    0.00327
N4    4   -0.196719    0.175259    0.121188    11.00000    0.07027    0.05551 =
         0.08056    0.00935    0.01077    0.00413
C12   1    0.295777    0.155781    0.584127    11.00000    0.05151    0.03844 =
         0.06454    0.01051    0.02125    0.00309
C13   1    0.444007    0.175843    0.538434    11.00000    0.05858    0.04734 =
         0.06664    0.01887    0.02673    0.00970
AFIX  43
H13   2    0.430876    0.207196    0.466377    11.00000   -1.20000
AFIX   0
C15   1    0.626760    0.100028    0.704238    11.00000    0.05404    0.04112 =
         0.07060    0.01105    0.01449    0.00588
C3    1    0.421792    0.594342    0.664134    11.00000    0.05208    0.05015 =
         0.06529    0.01529    0.02244    0.00495
C5    1    0.131880    0.305095    0.437028    11.00000    0.04689    0.04644 =
         0.07152    0.01417    0.02091    0.00924
C6    1   -0.031909    0.374429    0.243054    11.00000    0.05038    0.04957 =
         0.06821    0.01462    0.02260    0.00964
C14   1    0.609865    0.149381    0.599661    11.00000    0.05285    0.04668 =
         0.07627    0.01389    0.02752    0.00751
AFIX  43
H14   2    0.709975    0.164756    0.570547    11.00000   -1.20000
AFIX   0
C4    1    0.377643    0.450597    0.618272    11.00000    0.05730    0.04532 =
         0.06970    0.01482    0.01660    0.00431
AFIX  23
H4A   2    0.492154    0.423023    0.626854    11.00000   -1.20000
H4B   2    0.316821    0.413986    0.671161    11.00000   -1.20000
AFIX   0
C16   1    0.480036    0.076639    0.749214    11.00000    0.06954    0.05211 =
         0.06825    0.02043    0.02285    0.00920
AFIX  43
H16   2    0.492332    0.041941    0.819053    11.00000   -1.20000
AFIX   0
C11   1   -0.162950    0.303633    0.123589    11.00000    0.05868    0.05315 =
         0.07180    0.01198    0.01960    0.00755
C17   1    0.314571    0.105478    0.689065    11.00000    0.06005    0.05063 =
         0.07168    0.01848    0.02998    0.00559
AFIX  43
H17   2    0.215387    0.091017    0.719244    11.00000   -1.20000
AFIX   0
C7    1    0.026662    0.507121    0.275193    11.00000    0.06799    0.05105 =
         0.07396    0.01533    0.02211    0.00776
AFIX  43
H7    2    0.114534    0.555156    0.355296    11.00000   -1.20000
AFIX   0
C2    1    0.616030    0.774846    0.833231    11.00000    0.08106    0.04705 =
         0.07994    0.00745    0.01948    0.00205
AFIX  23
H2A   2    0.508190    0.809724    0.828953    11.00000   -1.20000
H2B   2    0.681576    0.811791    0.782913    11.00000   -1.20000
AFIX   0
C10   1   -0.241931    0.360578    0.029213    11.00000    0.07445    0.07399 =
         0.06879    0.01710    0.01290    0.00733
AFIX  43
H10   2   -0.328932    0.312802   -0.051319    11.00000   -1.20000
AFIX   0
C8    1   -0.053723    0.561513    0.181154    11.00000    0.08920    0.05551 =
         0.08565    0.02473    0.02602    0.01149
AFIX  43
H8    2   -0.019008    0.649573    0.198455    11.00000   -1.20000
AFIX   0
C1    1    0.739617    0.805950    0.968655    11.00000    0.10580    0.06797 =
         0.08104    0.00307    0.01001    0.00156
AFIX 137
H1A   2    0.846905    0.772263    0.972121    11.00000   -1.50000
H1B   2    0.673899    0.769282    1.017952    11.00000   -1.50000
H1C   2    0.779139    0.896713    1.004750    11.00000   -1.50000
AFIX   0
C9    1   -0.185754    0.490883    0.060126    11.00000    0.08873    0.07308 =
         0.08291    0.03259    0.02371    0.01655
AFIX  43
H9    2   -0.236305    0.532761   -0.000361    11.00000   -1.20000
AFIX   0
HKLF 4

REM  zhushuxiang-zsx-c1-20210405-rt_a.res in P-1
REM R1 =  0.0312 for    2438 Fo > 4sig(Fo)  and  0.0384 for all    2949 data
REM    227 parameters refined using      0 restraints

END

WGHT      0.0471      0.1057

REM Highest difference peak  0.116,  deepest hole -0.248,  1-sigma level  0.030
Q1    1   0.3228  0.1595  0.6597  11.00000  0.05    0.12
Q2    1   0.6373  0.6010  0.8067  11.00000  0.05    0.12
Q3    1   0.3575  0.1518  0.5670  11.00000  0.05    0.11
Q4    1  -0.0061  0.3362  0.2818  11.00000  0.05    0.11
Q5    1   0.2616  0.1864  0.5793  11.00000  0.05    0.09
Q6    1  -0.2038  0.1005  0.3117  11.00000  0.05    0.09
Q7    1   0.5526  0.8365  0.7620  11.00000  0.05    0.09
Q8    1   0.6112  0.8209  0.9627  11.00000  0.05    0.09
Q9    1   0.8338  0.0533  0.9025  11.00000  0.05    0.09
Q10   1   0.1165  0.5619  0.3997  11.00000  0.05    0.09
Q11   1   0.3010  0.1278  0.6125  11.00000  0.05    0.09
Q12   1  -0.2019  0.2448  0.1230  11.00000  0.05    0.09
Q13   1   0.5761  0.5771  0.8819  11.00000  0.05    0.09
Q14   1  -0.0611  0.0901  0.3839  11.00000  0.05    0.08
Q15   1   0.5284  0.1586  0.5783  11.00000  0.05    0.08
Q16   1   0.6112  0.1178  0.6498  11.00000  0.05    0.08
Q17   1   0.0900  0.1922  0.6250  11.00000  0.05    0.08
Q18   1   0.6794  0.1468  0.5027  11.00000  0.05    0.08
Q19   1  -0.1271  0.3443  0.1933  11.00000  0.05    0.08
Q20   1   0.3946  0.4138  0.7137  11.00000  0.05    0.08
;
_shelx_res_checksum              30617
_shelx_hkl_file
;
  -9   1   3   10.19    1.73
  -9   1   4   17.22    2.10
  -9   1   5    1.45    1.24
  -9   1   5    1.34    1.24
  -9   1   6    1.88    1.21
  -9   2   3   -0.27    1.15
  -9   2   4   -0.14    1.13
  -9   2   4   -0.13    1.24
  -9   2   5   -0.95    1.22
  -9   2   5    1.22    1.32
  -9   3   3    0.26    1.09
  -9   3   4    2.89    1.32
  -9   3   4    0.41    1.20
  -9   3   5    7.29    1.59
  -9   4   4    9.01    1.67
  -8  -4   4    1.30    1.26
  -8  -4   5    1.54    1.19
  -8  -4   6   -1.30    1.35
  -8  -3   2    1.10    1.25
  -8  -3   2    2.34    1.31
  -8  -3   3    6.49    1.55
  -8  -3   3    5.19    1.64
  -8  -3   4   15.95    2.11
  -8  -3   4   14.99    1.84
  -8  -3   4   17.90    2.41
  -8  -3   5    8.27    1.86
  -8  -3   5    7.88    1.80
  -8  -3   6   12.67    1.79
  -8  -3   6   11.65    2.07
  -8  -3   6    9.18    1.88
  -8  -3   7    2.80    1.28
  -8  -3   7    1.50    1.53
  -8  -3   8    2.21    1.41
  -8  -2   0    5.60    1.48
  -8  -2   1    8.92    1.81
  -8  -2   1   12.62    1.94
  -8  -2   2   41.47    3.65
  -8  -2   2   45.79    3.63
  -8  -2   3   80.58    5.38
  -8  -2   3   89.07    5.78
  -8  -2   4   12.18    2.10
  -8  -2   4   12.96    1.91
  -8  -2   4   15.43    2.08
  -8  -2   4   12.84    2.24
  -8  -2   5    2.23    1.61
  -8  -2   5    6.01    1.91
  -8  -2   5    5.25    1.83
  -8  -2   6   24.59    2.66
  -8  -2   6   20.14    2.65
  -8  -2   6   24.27    2.53
  -8  -2   6   20.23    2.71
  -8  -2   7   31.05    2.73
  -8  -2   7   24.73    2.93
  -8  -2   7   25.50    2.63
  -8  -2   7   33.25    2.98
  -8  -2   8    6.84    1.88
  -8  -2   8    5.78    1.41
  -8  -2   9    9.58    1.79
  -8  -1   0    0.30    1.35
  -8  -1   0    0.37    1.11
  -8  -1   1   46.69    3.70
  -8  -1   1   41.32    3.63
  -8  -1   2    3.21    1.74
  -8  -1   2    7.57    2.04
  -8  -1   2    6.43    1.77
  -8  -1   3    6.28    2.12
  -8  -1   3    8.25    1.77
  -8  -1   3    4.10    1.59
  -8  -1   4    6.40    1.66
  -8  -1   4    4.41    1.64
  -8  -1   4    5.40    1.86
  -8  -1   5   11.68    2.35
  -8  -1   5    9.30    2.08
  -8  -1   5   10.27    1.91
  -8  -1   5    6.91    2.02
  -8  -1   6   -0.54    1.60
  -8  -1   6    0.17    1.15
  -8  -1   6   -0.36    1.63
  -8  -1   6   -0.34    1.50
  -8  -1   7    1.25    1.73
  -8  -1   7    1.09    1.14
  -8  -1   7    2.10    1.38
  -8  -1   7    3.76    1.61
  -8  -1   8    3.42    1.45
  -8  -1   8    4.50    1.74
  -8  -1   8    4.49    1.31
  -8  -1   9    1.60    1.44
  -8   0  -1    4.31    1.53
  -8   0   0    6.78    1.60
  -8   0   0    8.46    1.86
  -8   0   1   31.25    3.10
  -8   0   1   31.82    3.19
  -8   0   1   26.25    3.02
  -8   0   2    3.26    1.66
  -8   0   2    3.76    1.36
  -8   0   2    5.06    1.83
  -8   0   2    4.87    1.93
  -8   0   3   12.05    2.13
  -8   0   3   18.05    2.33
  -8   0   3   13.94    2.44
  -8   0   3   16.54    2.60
  -8   0   4   36.99    3.42
  -8   0   4   40.65    3.81
  -8   0   4   41.14    3.90
  -8   0   4   42.54    3.58
  -8   0   5   54.24    4.62
  -8   0   5   54.91    4.48
  -8   0   5   46.88    4.23
  -8   0   6    8.64    2.13
  -8   0   6    8.79    2.12
  -8   0   6    9.82    2.04
  -8   0   7   24.69    3.01
  -8   0   7   23.04    2.63
  -8   0   7   24.39    2.59
  -8   0   7   19.45    2.72
  -8   0   8    4.18    1.37
  -8   0   8    5.66    1.87
  -8   0   8    4.41    1.60
  -8   0   8    5.03    1.38
  -8   0   9    0.15    1.44
  -8   1  -2   22.49    2.34
  -8   1  -1    0.16    1.39
  -8   1   0   32.81    3.10
  -8   1   0   32.11    3.21
  -8   1   0   31.17    2.90
  -8   1   1   72.09    5.11
  -8   1   1   73.26    4.79
  -8   1   1   72.06    5.14
  -8   1   1   77.71    5.35
  -8   1   2    1.56    1.47
  -8   1   2   -0.19    1.62
  -8   1   2   -0.40    1.62
  -8   1   2    0.16    1.12
  -8   1   3    0.16    1.31
  -8   1   3    0.21    1.75
  -8   1   3   -0.41    1.63
  -8   1   3   -0.17    1.19
  -8   1   4   39.51    3.52
  -8   1   4   37.49    3.78
  -8   1   5    8.51    1.86
  -8   1   5   10.64    2.24
  -8   1   5    7.86    1.95
  -8   1   6    4.68    1.76
  -8   1   6    4.52    1.83
  -8   1   6    1.81    1.71
  -8   1   7   -0.66    1.42
  -8   1   7    1.45    1.78
  -8   1   7   -0.18    1.54
  -8   1   7    1.83    1.38
  -8   1   8   37.11    3.13
  -8   1   8   35.36    3.29
  -8   1   8   31.79    3.42
  -8   1   9    3.83    1.65
  -8   2  -2    0.59    1.24
  -8   2  -1   -1.63    1.46
  -8   2  -1    0.52    1.45
  -8   2   0    5.44    1.63
  -8   2   0    4.05    1.85
  -8   2   0    4.29    1.44
  -8   2   1   -0.51    1.48
  -8   2   1   -0.18    1.49
  -8   2   1    0.19    1.52
  -8   2   1    2.86    1.62
  -8   2   2   11.18    2.23
  -8   2   2   14.10    1.97
  -8   2   2   12.33    2.19
  -8   2   2   10.64    2.15
  -8   2   2    9.70    2.24
  -8   2   3    6.91    1.71
  -8   2   3    9.23    2.25
  -8   2   3    6.95    1.80
  -8   2   3    5.20    1.53
  -8   2   3    6.30    1.97
  -8   2   3    6.86    2.08
  -8   2   4   -0.61    1.59
  -8   2   4   -0.84    1.41
  -8   2   4    2.30    1.87
  -8   2   4   -0.55    1.30
  -8   2   5    2.14    1.21
  -8   2   5    2.40    1.38
  -8   2   5    1.12    1.52
  -8   2   5    3.04    1.87
  -8   2   6   -0.64    1.32
  -8   2   6   -0.72    1.30
  -8   2   6   -0.20    1.69
  -8   2   6   -0.94    1.63
  -8   2   6    1.90    1.69
  -8   2   7    3.49    1.61
  -8   2   7    3.76    1.76
  -8   2   8   25.69    2.80
  -8   2   8   24.99    2.57
  -8   2   8   32.25    2.76
  -8   3  -1   21.22    2.56
  -8   3   0    0.99    1.67
  -8   3   0   -0.47    1.30
  -8   3   0    1.76    1.64
  -8   3   1   26.21    2.84
  -8   3   1   22.02    2.79
  -8   3   1   24.20    2.77
  -8   3   1   23.61    2.66
  -8   3   1   20.86    2.85
  -8   3   2   68.17    4.97
  -8   3   2   68.54    4.97
  -8   3   2   64.57    5.00
  -8   3   2   60.20    4.62
  -8   3   2   68.40    4.59
  -8   3   3    6.18    2.20
  -8   3   3    7.97    2.23
  -8   3   3    7.05    1.64
  -8   3   3    5.47    1.57
  -8   3   3    8.99    2.21
  -8   3   3    6.54    1.84
  -8   3   4    6.82    2.10
  -8   3   4    6.28    1.61
  -8   3   4    6.94    1.68
  -8   3   4    5.63    1.93
  -8   3   5   79.44    5.24
  -8   3   5   60.99    5.18
  -8   3   5   69.79    4.68
  -8   3   5   73.19    5.39
  -8   3   6   30.12    3.17
  -8   3   6   49.32    3.69
  -8   3   6   31.87    3.17
  -8   3   6   42.65    3.70
  -8   3   7    0.16    1.36
  -8   3   7    2.44    1.67
  -8   3   8    0.29    1.37
  -8   3   8    2.18    1.24
  -8   4  -2    7.52    1.72
  -8   4  -2    9.64    1.88
  -8   4  -1   20.27    2.64
  -8   4  -1   20.04    2.48
  -8   4  -1   19.22    2.51
  -8   4   0   -0.15    1.25
  -8   4   0    0.73    1.39
  -8   4   0   -0.35    1.56
  -8   4   1   33.61    3.18
  -8   4   1   40.04    3.49
  -8   4   1   39.94    3.56
  -8   4   1   32.48    3.51
  -8   4   1   35.81    3.39
  -8   4   2   35.29    2.95
  -8   4   2   36.63    3.42
  -8   4   2   33.09    3.14
  -8   4   2   30.98    3.22
  -8   4   2   34.32    3.45
  -8   4   2   28.96    3.30
  -8   4   3    2.82    1.72
  -8   4   3    1.42    1.48
  -8   4   3    1.61    1.80
  -8   4   3    1.90    1.19
  -8   4   3   -1.65    1.73
  -8   4   3    0.19    1.65
  -8   4   4   -0.40    1.68
  -8   4   4    2.72    1.41
  -8   4   4    1.75    1.37
  -8   4   4    3.24    1.82
  -8   4   4    0.98    1.73
  -8   4   5    2.58    1.85
  -8   4   5    5.01    1.82
  -8   4   5    1.38    1.35
  -8   4   5    1.70    1.15
  -8   4   6    4.32    1.44
  -8   4   6    5.92    1.88
  -8   4   7    1.50    1.22
  -8   4   7    0.33    1.52
  -8   4   7    2.15    1.43
  -8   4   8    2.67    1.40
  -8   5  -2    4.20    1.35
  -8   5  -2    7.15    1.63
  -8   5  -2    4.34    1.46
  -8   5  -1   41.43    3.51
  -8   5  -1   36.83    3.38
  -8   5   0   27.00    2.60
  -8   5   0   31.27    3.08
  -8   5   0   29.22    2.97
  -8   5   0   24.09    2.93
  -8   5   1    1.45    1.47
  -8   5   1    1.15    1.56
  -8   5   1    4.17    1.53
  -8   5   1    0.64    1.41
  -8   5   2    1.12    1.51
  -8   5   2    2.44    1.50
  -8   5   2    1.28    1.30
  -8   5   2    3.07    1.72
  -8   5   2    1.26    1.52
  -8   5   3   34.09    3.39
  -8   5   3   32.02    2.91
  -8   5   3   32.33    3.52
  -8   5   3   32.02    3.26
  -8   5   3   37.18    3.50
  -8   5   3   35.36    3.28
  -8   5   4    7.50    2.07
  -8   5   4    2.10    1.37
  -8   5   4    3.22    1.69
  -8   5   4    4.16    1.51
  -8   5   4    3.86    1.82
  -8   5   4    5.47    1.54
  -8   5   5    1.11    1.12
  -8   5   5    2.71    1.50
  -8   5   6   -0.67    1.43
  -8   5   6    1.90    1.58
  -8   5   6   -0.76    1.17
  -8   5   7   -0.14    1.28
  -8   5   7    2.53    1.54
  -8   6  -2    1.04    1.22
  -8   6  -1   19.11    2.29
  -8   6  -1   19.49    2.28
  -8   6  -1   19.20    2.37
  -8   6   0   51.78    3.97
  -8   6   0   48.84    3.84
  -8   6   1   16.81    2.42
  -8   6   1   14.41    2.03
  -8   6   1   15.65    2.12
  -8   6   1   16.42    2.35
  -8   6   2   20.86    2.49
  -8   6   2   13.47    2.04
  -8   6   2   16.40    2.37
  -8   6   2   19.12    2.46
  -8   6   2   13.72    2.41
  -8   6   3   30.10    3.08
  -8   6   3   28.36    2.85
  -8   6   3   31.90    3.03
  -8   6   3   26.07    3.07
  -8   6   3   30.07    3.01
  -8   6   4   22.30    2.43
  -8   6   4   25.97    2.48
  -8   6   4   19.01    2.64
  -8   6   4   20.94    2.63
  -8   6   4   24.48    2.82
  -8   6   5    3.96    1.68
  -8   6   5    2.84    1.52
  -8   6   6    6.47    1.74
  -8   6   6    3.39    1.47
  -8   7  -1    4.48    1.44
  -8   7  -1    7.99    1.54
  -8   7  -1    5.12    1.38
  -8   7   0    0.59    1.29
  -8   7   0   -0.91    1.25
  -8   7   1   10.51    1.92
  -8   7   1   12.79    1.98
  -8   7   1    9.86    1.70
  -8   7   2    2.73    1.43
  -8   7   2    3.69    1.35
  -8   7   2    3.71    1.46
  -8   7   3    7.13    1.68
  -8   7   3    9.73    1.75
  -8   7   3    9.00    1.65
  -8   7   3    7.62    1.61
  -8   7   4    1.41    1.03
  -8   7   4   -0.14    1.26
  -8   7   5    0.84    1.27
  -8   7   5   -0.27    1.18
  -8   8   1   13.00    1.86
  -8   8   1   13.69    1.86
  -8   8   2    1.38    1.13
  -8   8   2    0.25    1.08
  -7  -6   3    3.52    1.36
  -7  -6   3    1.45    1.23
  -7  -6   3    2.18    1.45
  -7  -6   4    2.38    1.48
  -7  -6   4    0.54    1.33
  -7  -6   4    0.85    1.23
  -7  -6   5   19.09    2.40
  -7  -6   5   16.22    2.08
  -7  -6   7   42.51    3.52
  -7  -6   8   17.86    2.20
  -7  -5   1    4.12    1.51
  -7  -5   1    3.16    1.49
  -7  -5   2   42.78    3.57
  -7  -5   2   43.55    3.64
  -7  -5   3   75.61    5.12
  -7  -5   3   75.47    5.17
  -7  -5   3   67.77    5.04
  -7  -5   4   -1.98    1.46
  -7  -5   4    1.64    1.66
  -7  -5   4    1.55    1.64
  -7  -5   5   27.06    3.11
  -7  -5   5   28.78    2.95
  -7  -5   5   24.40    2.52
  -7  -5   5   24.63    2.38
  -7  -5   6   33.91    2.88
  -7  -5   6   32.40    3.09
  -7  -5   6   31.32    3.36
  -7  -5   7    0.43    1.30
  -7  -5   7    0.13    1.09
  -7  -5   7   -0.13    1.13
  -7  -5   8    0.85    1.30
  -7  -5   8    0.16    1.52
  -7  -5   8    0.50    1.01
  -7  -5   9    0.79    0.97
  -7  -5   9    1.11    1.35
  -7  -5   9   -0.26    1.20
  -7  -4  -1    3.25    1.30
  -7  -4   0    3.91    1.60
  -7  -4   1    7.43    1.89
  -7  -4   1    6.17    1.84
  -7  -4   1    3.69    1.66
  -7  -4   2   26.30    2.98
  -7  -4   2   23.61    2.91
  -7  -4   3    0.20    1.88
  -7  -4   3    0.96    1.76
  -7  -4   3    2.20    1.74
  -7  -4   4    3.42    1.65
  -7  -4   4    4.51    2.14
  -7  -4   4    4.60    1.93
  -7  -4   5   18.81    2.24
  -7  -4   5   25.86    3.00
  -7  -4   5   19.28    2.39
  -7  -4   5   23.24    3.08
  -7  -4   5   21.00    2.54
  -7  -4   6  103.01    6.35
  -7  -4   6   91.50    6.51
  -7  -4   6  106.65    6.29
  -7  -4   6   98.02    5.91
  -7  -4   7    2.23    1.29
  -7  -4   7    0.68    1.52
  -7  -4   7    2.05    1.45
  -7  -4   7    5.15    1.40
  -7  -4   8   10.09    1.64
  -7  -4   8   11.96    1.85
  -7  -4   8   11.79    2.37
  -7  -4   8    7.67    1.97
  -7  -4   9    0.13    1.12
  -7  -4   9    1.01    1.63
  -7  -4   9    0.80    1.50
  -7  -4  10    1.22    1.40
  -7  -4  10    2.22    1.42
  -7  -3  -2    0.26    1.18
  -7  -3  -1   15.82    2.32
  -7  -3  -1   12.29    1.99
  -7  -3   0   57.23    4.39
  -7  -3   0   51.00    4.36
  -7  -3   1   16.13    2.59
  -7  -3   1   10.12    2.08
  -7  -3   1   14.12    2.51
  -7  -3   2   -0.86    1.89
  -7  -3   2    1.70    1.78
  -7  -3   2    0.81    1.76
  -7  -3   3   50.12    4.29
  -7  -3   3   56.20    4.65
  -7  -3   3   48.24    4.11
  -7  -3   3   47.82    4.34
  -7  -3   4  105.05    7.19
  -7  -3   4  110.80    7.29
  -7  -3   4  113.65    7.24
  -7  -3   4  105.34    6.82
  -7  -3   5   40.57    4.27
  -7  -3   5   46.66    4.15
  -7  -3   5   38.42    3.83
  -7  -3   5   46.95    3.91
  -7  -3   6   30.87    3.26
  -7  -3   6   33.40    3.75
  -7  -3   6   32.01    3.14
  -7  -3   6   27.71    3.30
  -7  -3   6   33.76    3.03
  -7  -3   6   27.80    3.10
  -7  -3   7   55.66    4.01
  -7  -3   7   49.83    4.06
  -7  -3   7   41.62    4.30
  -7  -3   7   41.07    3.62
  -7  -3   7   43.17    4.01
  -7  -3   7   48.17    3.82
  -7  -3   8   50.16    3.73
  -7  -3   8   48.15    3.75
  -7  -3   8   50.33    3.83
  -7  -3   8   39.85    4.01
  -7  -3   9    3.63    1.40
  -7  -3   9    1.71    1.81
  -7  -3   9    2.55    1.75
  -7  -3  10    1.76    1.21
  -7  -3  10    2.86    1.63
  -7  -3  10    1.44    1.54
  -7  -2  -2    1.27    1.47
  -7  -2  -1   16.84    2.39
  -7  -2   0    0.59    1.69
  -7  -2   0    3.06    1.98
  -7  -2   1    1.67    1.53
  -7  -2   1    3.55    1.92
  -7  -2   1    0.65    1.74
  -7  -2   1    1.27    1.82
  -7  -2   2    0.59    1.37
  -7  -2   2   -0.19    1.74
  -7  -2   2    0.45    1.96
  -7  -2   2    0.84    1.82
  -7  -2   3   25.64    3.33
  -7  -2   3   26.35    3.17
  -7  -2   3   25.47    3.31
  -7  -2   3   32.11    3.26
  -7  -2   4   33.49    3.64
  -7  -2   4   32.29    3.58
  -7  -2   4   27.69    3.15
  -7  -2   4   34.24    3.71
  -7  -2   5    1.40    1.95
  -7  -2   5    3.83    1.91
  -7  -2   5    1.23    1.49
  -7  -2   5    1.77    1.88
  -7  -2   6   32.68    3.61
  -7  -2   6   42.10    3.45
  -7  -2   6   43.51    4.03
  -7  -2   6   51.03    4.02
  -7  -2   6   43.47    3.92
  -7  -2   6   39.28    4.26
  -7  -2   7  120.47    7.26
  -7  -2   7  110.27    7.47
  -7  -2   7  131.29    7.50
  -7  -2   7  119.41    7.94
  -7  -2   7  112.04    7.01
  -7  -2   7  114.17    7.40
  -7  -2   8   38.56    3.48
  -7  -2   8   31.39    3.19
  -7  -2   8   37.10    3.98
  -7  -2   8   41.79    4.02
  -7  -2   8   46.97    3.59
  -7  -2   9    0.20    1.82
  -7  -2   9    1.94    1.06
  -7  -2   9    0.46    1.31
  -7  -2  10    0.88    1.67
  -7  -2  10    1.39    1.71
  -7  -2  10    0.13    1.07
  -7  -1  -3    0.15    1.32
  -7  -1  -2    2.17    1.78
  -7  -1  -2    3.55    1.42
  -7  -1  -1    1.07    1.51
  -7  -1  -1    2.50    1.64
  -7  -1   0    0.40    1.48
  -7  -1   0    0.83    1.69
  -7  -1   0    0.43    1.70
  -7  -1   0   -0.22    1.83
  -7  -1   1   39.15    3.87
  -7  -1   1   35.51    3.38
  -7  -1   1   39.37    3.91
  -7  -1   1   32.09    3.72
  -7  -1   2   15.89    2.37
  -7  -1   2    9.48    2.31
  -7  -1   2    8.29    2.44
  -7  -1   2   11.58    2.50
  -7  -1   3   50.98    4.80
  -7  -1   3   58.50    4.60
  -7  -1   3   57.43    4.53
  -7  -1   3   52.59    4.59
  -7  -1   4   31.69    3.26
  -7  -1   4   24.74    2.87
  -7  -1   4   28.27    3.44
  -7  -1   4   21.41    3.21
  -7  -1   5   77.23    5.73
  -7  -1   5   70.32    5.82
  -7  -1   5   83.11    6.01
  -7  -1   6    9.59    2.25
  -7  -1   6    8.58    1.99
  -7  -1   6   11.32    2.75
  -7  -1   6   12.67    2.58
  -7  -1   6   11.55    2.40
  -7  -1   7    5.14    2.21
  -7  -1   7    5.26    1.65
  -7  -1   7    3.88    1.55
  -7  -1   7    2.80    1.66
  -7  -1   7    3.07    1.94
  -7  -1   8   25.09    2.66
  -7  -1   8   17.58    2.36
  -7  -1   8   24.75    2.71
  -7  -1   8   21.87    3.24
  -7  -1   8   20.20    2.73
  -7  -1   9    1.56    1.29
  -7  -1   9    4.68    1.53
  -7  -1   9    4.60    2.23
  -7  -1   9    4.50    1.35
  -7  -1  10   -1.67    1.76
  -7  -1  10   -0.41    1.12
  -7  -1  11    1.18    1.43
  -7  -1  11   -0.56    1.37
  -7   0  -3   44.67    3.89
  -7   0  -3   55.18    3.90
  -7   0  -2   43.33    3.75
  -7   0  -2   40.85    3.86
  -7   0  -1    2.78    1.76
  -7   0  -1    7.59    2.08
  -7   0  -1    4.18    1.83
  -7   0   0   -0.22    1.77
  -7   0   0    1.76    1.83
  -7   0   0   -0.17    1.12
  -7   0   0    2.71    1.89
  -7   0   0    1.31    1.86
  -7   0   1    7.92    1.82
  -7   0   1    9.59    2.42
  -7   0   1    9.76    2.30
  -7   0   1    8.67    2.32
  -7   0   1    7.04    2.14
  -7   0   2   38.53    3.99
  -7   0   2   39.20    3.79
  -7   0   2   38.85    3.98
  -7   0   2   36.57    3.54
  -7   0   2   37.20    3.76
  -7   0   2   34.01    3.40
  -7   0   3    3.41    1.92
  -7   0   3    5.99    1.89
  -7   0   3    9.75    2.19
  -7   0   3    6.71    1.99
  -7   0   3    6.41    2.13
  -7   0   3    9.34    2.61
  -7   0   4    7.36    2.03
  -7   0   4   11.89    2.07
  -7   0   4    6.81    1.78
  -7   0   4    4.80    2.07
  -7   0   4    6.09    2.12
  -7   0   4    5.00    2.22
  -7   0   5   32.59    3.50
  -7   0   5   32.39    3.71
  -7   0   5   32.06    3.82
  -7   0   5   38.66    3.81
  -7   0   6   -0.61    1.79
  -7   0   6    0.18    1.45
  -7   0   6   -0.21    1.55
  -7   0   6    2.54    1.81
  -7   0   6    1.35    2.02
  -7   0   7   12.93    2.55
  -7   0   7    7.67    1.74
  -7   0   7   15.55    2.36
  -7   0   7   13.25    2.36
  -7   0   7    9.68    2.61
  -7   0   8   98.51    6.01
  -7   0   8   89.98    5.71
  -7   0   8   82.39    5.92
  -7   0   8   72.31    6.05
  -7   0   8   84.01    5.59
  -7   0   9   51.37    4.78
  -7   0   9   53.31    4.28
  -7   0   9   59.19    4.32
  -7   0  10    3.88    1.33
  -7   0  10    2.07    1.81
  -7   0  11    0.59    1.39
  -7   1  -4    6.25    1.56
  -7   1  -4    6.81    1.57
  -7   1  -3   25.92    3.01
  -7   1  -3   25.43    2.95
  -7   1  -2   51.79    4.35
  -7   1  -2   48.22    4.37
  -7   1  -1    0.88    1.66
  -7   1  -1    2.97    1.75
  -7   1  -1    3.93    2.05
  -7   1  -1    3.93    1.69
  -7   1   0   12.21    1.95
  -7   1   0   12.58    2.47
  -7   1   0   13.92    2.58
  -7   1   0   12.99    2.46
  -7   1   0   10.34    2.41
  -7   1   1    3.72    2.03
  -7   1   1    1.87    1.97
  -7   1   1    1.98    1.70
  -7   1   1   -0.90    1.82
  -7   1   1    2.37    1.94
  -7   1   1    0.37    1.30
  -7   1   2   10.39    2.24
  -7   1   2   10.24    2.43
  -7   1   2   13.22    2.46
  -7   1   2   10.56    2.56
  -7   1   2   15.92    2.81
  -7   1   2   12.54    2.25
  -7   1   2   15.58    2.66
  -7   1   3   19.57    3.08
  -7   1   3   21.24    2.76
  -7   1   3   19.89    2.75
  -7   1   3   23.06    3.16
  -7   1   3   22.34    2.84
  -7   1   3   24.86    2.88
  -7   1   4   99.39    6.40
  -7   1   4  103.95    7.06
  -7   1   4  109.05    7.02
  -7   1   4  110.57    6.80
  -7   1   4  108.91    7.27
  -7   1   4  102.46    6.95
  -7   1   5  127.07    7.72
  -7   1   5  118.71    7.81
  -7   1   5  114.20    7.52
  -7   1   5  111.59    7.04
  -7   1   5  123.14    7.96
  -7   1   6   -1.51    1.86
  -7   1   6    4.56    2.19
  -7   1   6   -0.21    1.77
  -7   1   6    5.04    1.84
  -7   1   6    2.09    1.52
  -7   1   7    3.03    1.96
  -7   1   7    1.99    2.07
  -7   1   7    1.00    1.57
  -7   1   7    0.80    1.43
  -7   1   8   43.00    3.93
  -7   1   8   34.40    4.04
  -7   1   8   38.29    3.48
  -7   1   8   53.65    4.01
  -7   1   8   47.50    3.81
  -7   1   9    1.75    1.26
  -7   1   9    1.74    1.46
  -7   1   9    1.69    2.05
  -7   1   9    2.34    1.29
  -7   1  10   -0.73    1.67
  -7   1  10    1.50    1.05
  -7   2  -4   30.09    2.98
  -7   2  -4   32.35    3.07
  -7   2  -3    1.98    1.60
  -7   2  -3    2.07    1.67
  -7   2  -2    1.80    1.68
  -7   2  -2    4.16    1.93
  -7   2  -1  229.69   12.85
  -7   2  -1  217.37   12.49
  -7   2  -1  231.21   13.15
  -7   2  -1  258.59   13.49
  -7   2  -1  265.52   13.40
  -7   2   0   20.93    3.17
  -7   2   0   23.11    3.00
  -7   2   0   24.01    2.55
  -7   2   0   27.69    3.35
  -7   2   0   25.59    3.03
  -7   2   1    2.60    2.01
  -7   2   1    3.30    1.95
  -7   2   1    3.12    1.89
  -7   2   1    3.40    1.85
  -7   2   1    3.39    1.39
  -7   2   1    7.50    2.21
  -7   2   2    7.33    2.14
  -7   2   2    8.24    2.27
  -7   2   2   10.33    2.39
  -7   2   2    8.41    1.93
  -7   2   2   10.35    2.47
  -7   2   2    9.15    2.18
  -7   2   2    8.32    2.06
  -7   2   2   12.19    2.61
  -7   2   3   10.55    2.46
  -7   2   3    8.22    1.88
  -7   2   3   11.34    2.48
  -7   2   3    7.16    2.07
  -7   2   3    9.51    2.38
  -7   2   3    7.52    2.01
  -7   2   3    7.12    1.85
  -7   2   4    7.66    2.16
  -7   2   4    9.94    2.17
  -7   2   4    9.06    2.21
  -7   2   4    7.53    2.57
  -7   2   4    7.55    1.83
  -7   2   5   13.01    2.02
  -7   2   5   11.13    2.27
  -7   2   5   13.64    2.70
  -7   2   5    8.77    2.27
  -7   2   6    2.53    2.20
  -7   2   6    0.66    1.80
  -7   2   6    2.64    1.67
  -7   2   7   14.35    2.76
  -7   2   7   15.96    2.55
  -7   2   7   11.42    2.61
  -7   2   7   17.04    2.39
  -7   2   8    8.69    1.91
  -7   2   8    6.62    2.05
  -7   2   8    5.70    2.40
  -7   2   8   10.10    1.92
  -7   2   9    6.48    1.76
  -7   2   9    5.30    2.16
  -7   2  10   14.35    2.41
  -7   3  -5   25.06    2.49
  -7   3  -4    4.60    1.73
  -7   3  -4    1.07    1.48
  -7   3  -3    8.47    2.11
  -7   3  -2    2.41    1.65
  -7   3  -1   11.61    2.51
  -7   3  -1   16.21    2.54
  -7   3  -1   11.71    2.50
  -7   3  -1   11.75    2.35
  -7   3  -1    7.95    2.04
  -7   3  -1   20.12    3.01
  -7   3   0   67.25    5.23
  -7   3   0   67.18    5.32
  -7   3   0   64.07    5.13
  -7   3   0   66.48    5.06
  -7   3   0   60.05    5.18
  -7   3   0   55.50    4.63
  -7   3   1    0.71    1.95
  -7   3   1   -0.63    1.78
  -7   3   1    0.44    1.79
  -7   3   1    2.21    1.77
  -7   3   1    1.05    1.80
  -7   3   1   -0.24    1.84
  -7   3   1    0.17    1.30
  -7   3   2   12.39    2.38
  -7   3   2   18.55    2.40
  -7   3   2   15.02    2.65
  -7   3   2   12.86    2.51
  -7   3   2   16.35    2.75
  -7   3   2   20.76    2.77
  -7   3   2   16.31    2.86
  -7   3   2   16.18    2.36
  -7   3   3    3.90    2.06
  -7   3   3    3.25    1.68
  -7   3   3    1.79    1.20
  -7   3   3    3.94    2.09
  -7   3   3    4.92    1.69
  -7   3   3    3.46    1.86
  -7   3   3    1.29    1.70
  -7   3   3    1.39    2.04
  -7   3   4   -0.20    1.65
  -7   3   4    0.75    1.56
  -7   3   4    3.28    1.55
  -7   3   4    1.12    1.82
  -7   3   5   27.91    3.36
  -7   3   5   24.88    2.75
  -7   3   5   25.08    3.12
  -7   3   5   25.94    3.02
  -7   3   5   20.93    2.75
  -7   3   6   44.29    3.97
  -7   3   6   42.19    4.16
  -7   3   6   52.10    4.40
  -7   3   7    3.16    1.59
  -7   3   7    1.60    1.70
  -7   3   7    1.72    1.97
  -7   3   8    1.24    1.30
  -7   3   8    1.19    1.44
  -7   3   8    1.26    2.01
  -7   3   9    8.96    2.28
  -7   3   9    8.70    1.58
  -7   3   9    3.18    1.48
  -7   3   9    5.03    1.35
  -7   3  10    9.81    1.99
  -7   4  -4   -0.91    1.52
  -7   4  -4    0.81    1.42
  -7   4  -3   18.35    2.67
  -7   4  -3   18.93    2.49
  -7   4  -3   17.96    2.65
  -7   4  -2   62.08    4.72
  -7   4  -2   60.09    4.52
  -7   4  -2   63.23    4.91
  -7   4  -1   12.70    2.48
  -7   4  -1   10.74    2.48
  -7   4  -1   11.80    2.37
  -7   4  -1   10.10    2.24
  -7   4  -1   14.57    2.60
  -7   4  -1    8.38    1.97
  -7   4   0    3.75    2.05
  -7   4   0    3.59    1.67
  -7   4   0    3.45    2.06
  -7   4   0    3.65    1.93
  -7   4   0    3.99    2.09
  -7   4   1    7.54    2.34
  -7   4   1    2.83    1.70
  -7   4   1    7.78    2.27
  -7   4   1    3.01    1.85
  -7   4   1    5.74    2.09
  -7   4   1    5.12    2.01
  -7   4   1    5.35    1.48
  -7   4   1    4.11    1.53
  -7   4   2    1.35    1.85
  -7   4   2    3.22    1.94
  -7   4   2    2.25    1.79
  -7   4   2    2.46    1.34
  -7   4   2    4.86    2.07
  -7   4   2    2.60    1.92
  -7   4   2    1.98    1.36
  -7   4   3    1.43    1.21
  -7   4   3   -0.19    1.45
  -7   4   3    1.49    1.66
  -7   4   3   -0.81    1.65
  -7   4   3    0.47    1.91
  -7   4   3    1.14    1.38
  -7   4   3    1.16    1.89
  -7   4   4    0.19    1.46
  -7   4   4    1.39    1.53
  -7   4   4    2.59    1.15
  -7   4   4    3.25    1.64
  -7   4   4    2.03    1.93
  -7   4   5   69.25    5.03
  -7   4   5   62.81    4.50
  -7   4   5   57.25    4.88
  -7   4   5   63.85    5.21
  -7   4   5   59.31    4.56
  -7   4   6   27.66    3.13
  -7   4   6   28.81    3.43
  -7   4   6   24.65    3.18
  -7   4   6   34.04    3.34
  -7   4   7    1.44    1.82
  -7   4   7   -0.19    1.52
  -7   4   8    2.85    1.37
  -7   4   8    0.20    1.75
  -7   4   8    1.13    1.42
  -7   4   9    5.29    1.89
  -7   4   9    6.14    1.36
  -7   4   9    7.82    1.53
  -7   5  -5    3.11    1.35
  -7   5  -4   18.09    2.37
  -7   5  -4   19.29    2.39
  -7   5  -3   44.32    3.75
  -7   5  -3   44.82    4.03
  -7   5  -3   47.06    4.09
  -7   5  -2    2.81    1.64
  -7   5  -2    3.75    2.05
  -7   5  -2    1.47    1.48
  -7   5  -2    2.14    1.63
  -7   5  -2    4.25    1.91
  -7   5  -1   11.62    2.29
  -7   5  -1   14.52    2.51
  -7   5  -1    5.65    1.99
  -7   5  -1    9.31    1.91
  -7   5  -1   14.27    2.11
  -7   5  -1   11.49    2.30
  -7   5  -1   10.99    2.48
  -7   5   0  137.89    7.99
  -7   5   0  115.22    7.36
  -7   5   0  106.46    6.96
  -7   5   0  120.34    7.72
  -7   5   0  116.53    7.62
  -7   5   0  116.43    7.72
  -7   5   1    6.76    2.01
  -7   5   1    6.10    2.39
  -7   5   1    5.23    1.94
  -7   5   1    4.39    1.80
  -7   5   1    6.83    2.05
  -7   5   1    4.25    2.15
  -7   5   1    4.30    1.49
  -7   5   2    1.93    1.74
  -7   5   2   -0.22    1.81
  -7   5   2    0.52    1.17
  -7   5   2    0.54    1.43
  -7   5   2   -0.38    1.18
  -7   5   2   -1.09    1.71
  -7   5   2   -0.42    1.72
  -7   5   3   16.76    2.84
  -7   5   3   16.47    2.89
  -7   5   3   14.57    2.46
  -7   5   3   13.59    2.42
  -7   5   3   11.45    2.07
  -7   5   3   14.46    2.08
  -7   5   4    4.73    1.30
  -7   5   4    1.99    1.53
  -7   5   4    3.69    1.63
  -7   5   4    2.26    1.96
  -7   5   4    2.86    1.75
  -7   5   4    6.49    2.20
  -7   5   5    0.47    1.23
  -7   5   5   -0.17    1.33
  -7   5   5    1.01    1.39
  -7   5   5    1.67    1.80
  -7   5   6    0.91    1.53
  -7   5   6   -1.52    1.69
  -7   5   6   -1.05    1.79
  -7   5   6   -0.20    1.43
  -7   5   7    5.34    1.77
  -7   5   7    3.62    1.92
  -7   5   8    6.06    1.65
  -7   5   8    2.95    1.74
  -7   5   8    7.16    1.54
  -7   6  -4   26.99    2.78
  -7   6  -4   28.49    2.82
  -7   6  -3   35.22    3.23
  -7   6  -3   25.75    2.74
  -7   6  -3   27.98    2.85
  -7   6  -2    2.72    1.25
  -7   6  -2    0.34    1.42
  -7   6  -2    2.99    1.66
  -7   6  -2    3.22    1.87
  -7   6  -2    2.85    1.66
  -7   6  -2    0.73    1.44
  -7   6  -1    0.83    1.78
  -7   6  -1    1.48    1.21
  -7   6  -1    3.69    1.75
  -7   6  -1   -0.20    1.51
  -7   6  -1    2.45    1.86
  -7   6  -1   -0.20    1.63
  -7   6   0   74.64    5.47
  -7   6   0   74.42    5.29
  -7   6   0   74.18    5.60
  -7   6   0   71.69    5.50
  -7   6   0   61.85    4.89
  -7   6   1   36.51    3.60
  -7   6   1   31.33    3.64
  -7   6   1   35.62    3.72
  -7   6   1   32.44    3.65
  -7   6   1   34.77    3.26
  -7   6   1   31.04    3.32
  -7   6   1   30.78    3.19
  -7   6   2    3.19    1.27
  -7   6   2    0.86    1.84
  -7   6   2    1.49    1.24
  -7   6   2    0.86    1.69
  -7   6   2    0.85    1.61
  -7   6   2    1.70    1.50
  -7   6   3    0.23    1.93
  -7   6   3    0.34    1.13
  -7   6   3    0.22    1.86
  -7   6   3    2.30    1.40
  -7   6   3    0.40    1.56
  -7   6   3   -0.80    1.52
  -7   6   4    9.07    2.29
  -7   6   4    6.00    1.38
  -7   6   4    9.41    1.91
  -7   6   4    8.11    2.35
  -7   6   4    6.57    1.82
  -7   6   4    7.36    1.79
  -7   6   5    5.43    1.55
  -7   6   5    3.44    1.42
  -7   6   5    6.00    1.98
  -7   6   5    6.09    1.72
  -7   6   6   34.05    3.59
  -7   6   6   41.99    3.55
  -7   6   6   34.82    3.32
  -7   6   7   36.11    3.26
  -7   6   7   40.86    3.26
  -7   6   8    1.65    1.21
  -7   7  -4   12.57    1.91
  -7   7  -3    1.58    1.33
  -7   7  -3    1.13    1.17
  -7   7  -3    1.66    1.27
  -7   7  -2   22.56    2.86
  -7   7  -2   19.46    2.33
  -7   7  -2   19.55    2.41
  -7   7  -2   19.97    2.53
  -7   7  -2   21.33    2.58
  -7   7  -1    6.67    1.99
  -7   7  -1    9.49    2.10
  -7   7  -1   10.34    1.92
  -7   7  -1    5.89    2.03
  -7   7  -1    7.60    2.03
  -7   7  -1    5.63    1.51
  -7   7   0    3.08    1.69
  -7   7   0    0.78    1.31
  -7   7   0    1.24    1.71
  -7   7   1    5.05    2.06
  -7   7   1   11.19    2.33
  -7   7   1    6.92    1.87
  -7   7   1    5.61    1.67
  -7   7   1    9.42    2.24
  -7   7   1   10.79    1.93
  -7   7   1    6.76    1.83
  -7   7   2    9.79    2.09
  -7   7   2   10.99    2.28
  -7   7   2    8.11    1.73
  -7   7   2    8.37    1.66
  -7   7   2    5.76    2.00
  -7   7   2    4.29    2.05
  -7   7   3    3.16    1.30
  -7   7   3    4.67    1.69
  -7   7   3    2.29    1.85
  -7   7   3    6.22    2.26
  -7   7   3    3.02    1.57
  -7   7   3    4.52    1.38
  -7   7   4    7.70    2.15
  -7   7   4    7.90    1.76
  -7   7   4    8.24    1.73
  -7   7   4    5.42    2.01
  -7   7   4    9.66    1.87
  -7   7   4    9.83    1.53
  -7   7   5    1.83    1.63
  -7   7   5    2.32    1.20
  -7   7   5    2.35    1.35
  -7   7   6    1.09    1.13
  -7   7   6   -0.17    1.52
  -7   7   7    1.96    1.38
  -7   8  -3    6.51    1.42
  -7   8  -3    7.91    1.50
  -7   8  -3    7.86    1.76
  -7   8  -2    1.39    1.38
  -7   8  -2    0.33    1.43
  -7   8  -2   -0.31    1.27
  -7   8  -1    0.17    1.41
  -7   8  -1   -0.89    1.54
  -7   8  -1    0.70    1.54
  -7   8   0    3.15    1.67
  -7   8   0    4.57    1.38
  -7   8   0    3.59    1.66
  -7   8   1   31.63    3.39
  -7   8   1   34.93    3.06
  -7   8   1   31.42    3.24
  -7   8   1   28.31    2.94
  -7   8   1   27.65    2.92
  -7   8   1   32.74    3.37
  -7   8   2    8.97    2.04
  -7   8   2    8.18    2.24
  -7   8   2    5.85    1.82
  -7   8   2    7.59    1.57
  -7   8   2    7.61    1.98
  -7   8   3    1.01    1.35
  -7   8   3    1.31    1.39
  -7   8   3    0.18    1.61
  -7   8   3   -1.20    1.69
  -7   8   4    4.76    1.80
  -7   8   4    1.62    1.22
  -7   8   4    1.07    1.54
  -7   8   4    1.97    1.23
  -7   8   4    1.50    1.14
  -7   8   5    4.93    1.73
  -7   8   6    2.08    1.39
  -7   9  -2   43.84    3.31
  -7   9  -2   41.20    3.29
  -7   9  -2   45.76    3.47
  -7   9  -1    3.30    1.41
  -7   9  -1    5.26    1.56
  -7   9  -1    4.98    1.50
  -7   9   0    0.83    1.34
  -7   9   1    2.44    1.48
  -7   9   1    3.82    1.24
  -7   9   1    4.54    1.61
  -7   9   2    8.15    1.75
  -7   9   2    7.88    1.75
  -7   9   2    6.16    1.53
  -7   9   3    1.13    1.26
  -7   9   3    2.07    1.17
  -7   9   3    0.14    1.12
  -7   9   4   -0.55    1.16
  -6  -8   3    5.21    1.56
  -6  -8   4    1.28    1.47
  -6  -8   5   13.41    2.07
  -6  -8   5   13.35    1.75
  -6  -8   6    1.23    1.34
  -6  -8   6    0.85    1.04
  -6  -8   7   -0.12    0.96
  -6  -7   1   12.34    1.89
  -6  -7   1   12.50    2.06
  -6  -7   2    3.51    1.49
  -6  -7   2    5.17    1.84
  -6  -7   2    6.80    1.77
  -6  -7   3   26.29    3.07
  -6  -7   3   28.52    2.96
  -6  -7   3   27.63    2.91
  -6  -7   3   29.66    2.72
  -6  -7   4   33.15    3.17
  -6  -7   4   37.00    3.27
  -6  -7   4   31.98    3.01
  -6  -7   5   -0.31    1.28
  -6  -7   5    1.04    1.38
  -6  -7   5    0.45    1.42
  -6  -7   5    0.57    1.34
  -6  -7   5    2.78    1.85
  -6  -7   6   -0.32    1.52
  -6  -7   6   -1.07    1.75
  -6  -7   6    1.86    1.33
  -6  -7   6    0.25    1.17
  -6  -7   7   61.81    4.12
  -6  -7   7   47.87    4.04
  -6  -7   7   51.25    4.21
  -6  -7   8   27.54    2.85
  -6  -7   8   30.47    2.72
  -6  -7   8   24.08    2.76
  -6  -7   9    5.93    1.40
  -6  -7   9    0.98    1.29
  -6  -6  -1   42.02    3.38
  -6  -6  -1   47.50    3.50
  -6  -6   0   19.26    2.50
  -6  -6   0   23.48    2.62
  -6  -6   1    0.92    1.75
  -6  -6   1    0.37    1.69
  -6  -6   2   26.62    2.70
  -6  -6   2   25.46    3.15
  -6  -6   2   29.45    3.28
  -6  -6   2   25.11    3.23
  -6  -6   3   52.73    4.16
  -6  -6   3   54.97    4.74
  -6  -6   3   62.95    4.74
  -6  -6   3   53.94    4.49
  -6  -6   4  141.44    8.40
  -6  -6   4  138.95    8.14
  -6  -6   4  137.39    8.05
  -6  -6   4  137.90    7.87
  -6  -6   5   17.48    2.55
  -6  -6   5   16.44    2.40
  -6  -6   5   18.29    2.49
  -6  -6   5   16.72    2.08
  -6  -6   5   14.92    2.44
  -6  -6   6   21.51    3.02
  -6  -6   6   17.01    2.62
  -6  -6   6   16.16    2.09
  -6  -6   6   16.04    2.40
  -6  -6   6   17.11    2.36
  -6  -6   7    1.59    1.53
  -6  -6   7    1.82    1.85
  -6  -6   7    4.31    1.99
  -6  -6   7   -0.30    1.05
  -6  -6   8   -0.17    1.37
  -6  -6   8    0.18    1.69
  -6  -6   8    1.02    1.02
  -6  -6   8    1.34    1.79
  -6  -6   9    3.82    1.48
  -6  -6   9    2.69    1.66
  -6  -6   9    1.59    1.67
  -6  -6  10   31.74    3.19
  -6  -6  10   39.39    3.09
  -6  -5  -2   -2.17    1.40
  -6  -5  -2    1.23    1.32
  -6  -5  -1  120.38    6.91
  -6  -5  -1  122.26    6.88
  -6  -5   0  391.26   19.17
  -6  -5   0  355.54   18.89
  -6  -5   1    1.27    1.83
  -6  -5   1    1.07    1.81
  -6  -5   2    4.16    2.07
  -6  -5   2    2.18    1.97
  -6  -5   2    0.32    1.24
  -6  -5   2    1.81    2.09
  -6  -5   3  100.76    6.70
  -6  -5   3   89.71    6.65
  -6  -5   3   94.83    6.10
  -6  -5   3   90.57    6.47
  -6  -5   4   15.06    2.28
  -6  -5   4   13.75    2.64
  -6  -5   4   14.53    2.54
  -6  -5   4   11.13    2.21
  -6  -5   4   13.32    2.80
  -6  -5   5   -0.19    1.32
  -6  -5   5    1.14    1.44
  -6  -5   5   -0.40    1.79
  -6  -5   5    0.78    1.14
  -6  -5   5   -0.71    1.62
  -6  -5   5    2.46    1.76
  -6  -5   6    3.21    1.66
  -6  -5   6    2.77    1.29
  -6  -5   6   -0.65    1.87
  -6  -5   6    2.72    1.72
  -6  -5   6    2.18    1.40
  -6  -5   6    0.94    2.06
  -6  -5   7   42.46    3.73
  -6  -5   7   43.86    4.33
  -6  -5   7   47.30    4.02
  -6  -5   7   38.31    4.12
  -6  -5   7   46.60    3.71
  -6  -5   7   56.18    3.94
  -6  -5   8    1.71    1.88
  -6  -5   8    1.14    1.15
  -6  -5   8   -0.94    1.60
  -6  -5   8   -0.44    1.97
  -6  -5   9    0.62    1.83
  -6  -5   9   -0.15    0.98
  -6  -5   9   -0.19    1.76
  -6  -5   9   -0.18    1.46
  -6  -5  10    4.02    1.97
  -6  -5  10    6.50    1.75
  -6  -5  10    7.48    1.92
  -6  -5  11    2.74    1.19
  -6  -4  -3    0.92    1.20
  -6  -4  -2    0.52    1.54
  -6  -4  -2    2.91    1.55
  -6  -4  -1    2.57    1.70
  -6  -4  -1    3.57    1.88
  -6  -4  -1    5.29    2.06
  -6  -4   0   62.09    4.98
  -6  -4   0   63.26    5.10
  -6  -4   1   24.16    3.35
  -6  -4   1   30.70    3.63
  -6  -4   1   31.37    3.50
  -6  -4   2    3.88    1.48
  -6  -4   2    5.84    2.17
  -6  -4   2    2.48    1.90
  -6  -4   3    0.72    2.12
  -6  -4   3    2.43    1.45
  -6  -4   3    1.82    2.00
  -6  -4   3    2.15    1.91
  -6  -4   3    2.04    1.88
  -6  -4   4   87.81    6.01
  -6  -4   4   99.26    6.36
  -6  -4   4   79.02    5.92
  -6  -4   4   94.68    6.27
  -6  -4   4   92.46    6.41
  -6  -4   4   92.33    6.49
  -6  -4   4   91.16    6.72
  -6  -4   5   45.41    3.49
  -6  -4   5   42.81    4.10
  -6  -4   5   36.34    3.86
  -6  -4   5   45.37    4.05
  -6  -4   5   43.59    3.80
  -6  -4   5   40.95    3.80
  -6  -4   5   41.87    3.71
  -6  -4   5   46.96    4.57
  -6  -4   6    6.59    1.93
  -6  -4   6    4.73    1.70
  -6  -4   6    6.11    1.49
  -6  -4   6    6.92    1.69
  -6  -4   6    9.14    2.51
  -6  -4   6    9.45    2.37
  -6  -4   7   29.01    3.67
  -6  -4   7   40.86    3.36
  -6  -4   7   29.75    3.32
  -6  -4   7   28.34    3.18
  -6  -4   7   36.72    3.17
  -6  -4   7   29.33    2.97
  -6  -4   7   27.88    3.77
  -6  -4   8    8.20    2.60
  -6  -4   8    9.69    2.20
  -6  -4   8    9.60    2.62
  -6  -4   8   12.28    1.90
  -6  -4   8   10.01    1.82
  -6  -4   9   -0.86    1.96
  -6  -4   9    0.83    1.12
  -6  -4   9    0.23    2.04
  -6  -4   9    1.15    1.47
  -6  -4  10    0.75    1.01
  -6  -4  10    4.79    2.07
  -6  -4  10    2.38    1.84
  -6  -4  10    1.91    1.52
  -6  -4  11    2.34    1.51
  -6  -4  11    3.45    1.39
  -6  -3  -3   51.84    4.02
  -6  -3  -3   47.07    3.68
  -6  -3  -2   17.58    2.60
  -6  -3  -2   18.69    2.70
  -6  -3  -1   23.19    3.12
  -6  -3  -1   20.05    2.89
  -6  -3  -1   16.22    2.49
  -6  -3   0  233.62   12.72
  -6  -3   0  212.38   12.18
  -6  -3   1  556.47   28.40
  -6  -3   1  569.74   28.65
  -6  -3   1  594.29   28.75
  -6  -3   1  578.53   28.65
  -6  -3   2   59.52    4.67
  -6  -3   2   58.69    5.00
  -6  -3   2   50.22    4.69
  -6  -3   2   57.46    4.92
  -6  -3   3    7.61    2.44
  -6  -3   3    9.10    2.24
  -6  -3   3    6.36    2.34
  -6  -3   3    6.68    1.66
  -6  -3   3   10.77    2.43
  -6  -3   4  257.05   13.65
  -6  -3   4  274.47   14.08
  -6  -3   4  276.37   14.61
  -6  -3   4  248.52   13.79
  -6  -3   4  266.85   14.21
  -6  -3   4  240.72   13.70
  -6  -3   4  253.86   14.17
  -6  -3   5  265.74   13.62
  -6  -3   5  244.34   13.60
  -6  -3   5  269.76   14.22
  -6  -3   5  249.06   13.64
  -6  -3   5  239.64   12.81
  -6  -3   5  230.44   12.96
  -6  -3   5  243.22   13.26
  -6  -3   5  255.90   13.58
  -6  -3   6   14.04    2.84
  -6  -3   6   20.89    2.77
  -6  -3   6   22.13    2.83
  -6  -3   6   23.30    2.97
  -6  -3   6   20.95    3.41
  -6  -3   6   19.64    2.63
  -6  -3   6   19.93    2.34
  -6  -3   7   25.72    2.74
  -6  -3   7   27.59    3.14
  -6  -3   7   26.36    3.06
  -6  -3   7   24.36    2.80
  -6  -3   7   25.88    2.88
  -6  -3   7   27.70    3.61
  -6  -3   8  108.62    7.04
  -6  -3   8  100.54    7.34
  -6  -3   8  109.96    6.62
  -6  -3   8   89.86    6.39
  -6  -3   8  121.18    6.86
  -6  -3   8  102.90    7.39
  -6  -3   9    7.29    2.01
  -6  -3   9    9.38    1.85
  -6  -3   9    6.66    2.53
  -6  -3   9    2.98    1.18
  -6  -3  10    0.20    1.96
  -6  -3  10    2.49    2.12
  -6  -3  10    1.11    1.60
  -6  -3  10    1.28    1.11
  -6  -3  11   15.80    2.48
  -6  -3  11   28.39    2.75
  -6  -2  -4   -0.91    1.46
  -6  -2  -3   10.67    1.90
  -6  -2  -3   12.85    2.36
  -6  -2  -2    0.65    1.79
  -6  -2  -2   -0.20    1.66
  -6  -2  -2    1.18    1.40
  -6  -2  -1   18.33    2.93
  -6  -2  -1   19.49    3.02
  -6  -2  -1   19.48    2.60
  -6  -2   0   77.89    5.82
  -6  -2   0   70.23    5.56
  -6  -2   0   79.42    5.75
  -6  -2   0   71.70    5.22
  -6  -2   0   61.41    5.09
  -6  -2   1  101.78    7.08
  -6  -2   1  111.76    7.20
  -6  -2   1  113.52    7.44
  -6  -2   1  116.12    7.58
  -6  -2   1  110.95    7.14
  -6  -2   1  109.50    7.48
  -6  -2   2    6.11    2.38
  -6  -2   2    5.46    1.78
  -6  -2   2    8.57    2.51
  -6  -2   2    8.38    2.15
  -6  -2   3   12.20    2.49
  -6  -2   3   12.69    1.92
  -6  -2   3    6.62    2.34
  -6  -2   3   11.88    2.13
  -6  -2   3    9.30    2.15
  -6  -2   4   58.71    4.93
  -6  -2   4   60.40    4.24
  -6  -2   4   53.69    4.30
  -6  -2   4   61.19    5.03
  -6  -2   4   48.68    4.34
  -6  -2   4   54.62    4.66
  -6  -2   5    0.60    1.22
  -6  -2   5    0.64    1.87
  -6  -2   5   -0.53    1.42
  -6  -2   5   -0.73    2.15
  -6  -2   5   -1.71    1.99
  -6  -2   5    0.60    1.55
  -6  -2   5    1.64    1.80
  -6  -2   6   43.18    3.84
  -6  -2   6   41.92    4.06
  -6  -2   6   42.04    3.46
  -6  -2   6   46.35    3.99
  -6  -2   6   40.44    4.20
  -6  -2   6   54.43    4.22
  -6  -2   7    6.59    1.84
  -6  -2   7    9.11    2.21
  -6  -2   7    4.50    2.47
  -6  -2   7    8.45    1.89
  -6  -2   7    7.89    1.71
  -6  -2   7    8.57    2.13
  -6  -2   8    0.18    1.49
  -6  -2   8    2.52    1.74
  -6  -2   8    2.34    2.29
  -6  -2   8    3.78    1.53
  -6  -2   8    3.53    1.41
  -6  -2   9   -0.21    1.61
  -6  -2   9    0.53    1.24
  -6  -2   9    1.81    2.20
  -6  -2   9    0.47    1.20
  -6  -2  10    0.83    1.08
  -6  -2  10    1.35    1.51
  -6  -2  10    0.48    1.92
  -6  -2  11    0.49    1.39
  -6  -2  12    2.33    1.18
  -6  -2  12    1.16    1.45
  -6  -1  -4    3.50    1.66
  -6  -1  -4    5.58    1.55
  -6  -1  -3   17.82    2.76
  -6  -1  -3   19.23    2.54
  -6  -1  -2   -0.79    1.76
  -6  -1  -2    2.79    1.64
  -6  -1  -2    1.12    1.82
  -6  -1  -1   15.11    2.78
  -6  -1  -1   12.79    2.61
  -6  -1  -1   17.50    2.65
  -6  -1   0  102.52    6.84
  -6  -1   0  115.61    7.61
  -6  -1   0  122.48    7.65
  -6  -1   0  112.03    7.49
  -6  -1   0  120.21    7.44
  -6  -1   0  110.16    7.13
  -6  -1   1   30.03    3.40
  -6  -1   1   33.10    3.67
  -6  -1   1   35.25    3.78
  -6  -1   1   32.46    3.28
  -6  -1   1   31.92    3.56
  -6  -1   1   34.49    3.57
  -6  -1   1   38.28    3.69
  -6  -1   2  256.63   14.05
  -6  -1   2  258.42   14.31
  -6  -1   2  269.90   14.15
  -6  -1   2  253.80   14.23
  -6  -1   2  256.93   14.14
  -6  -1   2  271.39   14.12
  -6  -1   2  264.50   14.17
  -6  -1   3  132.03    8.00
  -6  -1   3  136.70    8.20
  -6  -1   3  141.68    8.49
  -6  -1   3  123.06    8.22
  -6  -1   3  130.70    8.27
  -6  -1   3  133.71    8.08
  -6  -1   4    5.77    1.73
  -6  -1   4    5.64    2.13
  -6  -1   4    5.80    2.01
  -6  -1   4    4.59    1.89
  -6  -1   4    4.82    1.66
  -6  -1   4   10.09    2.35
  -6  -1   4    6.28    2.04
  -6  -1   4    4.30    1.39
  -6  -1   5   70.25    5.45
  -6  -1   5   69.25    4.94
  -6  -1   5   68.10    5.26
  -6  -1   5   74.30    5.21
  -6  -1   5   67.16    5.37
  -6  -1   5   81.96    5.43
  -6  -1   6  125.25    7.61
  -6  -1   6  110.62    7.06
  -6  -1   6  116.64    7.63
  -6  -1   6  123.09    8.04
  -6  -1   6  118.73    7.38
  -6  -1   6  129.39    7.64
  -6  -1   6  112.72    6.86
  -6  -1   7   -0.81    1.75
  -6  -1   7   -0.16    1.20
  -6  -1   7    2.77    2.27
  -6  -1   7    0.55    1.54
  -6  -1   7    1.80    1.64
  -6  -1   7    0.58    1.37
  -6  -1   8    0.87    1.09
  -6  -1   8   -0.21    1.59
  -6  -1   8    1.13    1.62
  -6  -1   8   -0.48    1.35
  -6  -1   8   -0.26    2.31
  -6  -1   8    0.19    1.26
  -6  -1   9   47.98    3.78
  -6  -1   9   48.13    3.63
  -6  -1   9   29.52    3.26
  -6  -1   9   43.50    4.00
  -6  -1   9   35.25    4.42
  -6  -1  10    9.37    2.13
  -6  -1  10   11.78    1.97
  -6  -1  10    8.31    2.82
  -6  -1  11    0.33    1.27
  -6  -1  12    4.14    1.65
  -6  -1  12    6.27    1.47
  -6   0  -5    7.51    1.65
  -6   0  -5   10.18    1.87
  -6   0  -4   40.87    3.56
  -6   0  -4   34.67    3.55
  -6   0  -3   41.32    3.94
  -6   0  -3   44.89    4.18
  -6   0  -2  103.79    7.14
  -6   0  -2  113.46    7.05
  -6   0  -2  119.65    7.58
  -6   0  -2  105.16    7.22
  -6   0  -1   65.22    5.18
  -6   0  -1   60.70    5.06
  -6   0  -1   62.11    4.99
  -6   0  -1   71.47    5.29
  -6   0  -1   58.98    4.48
  -6   0   0    1.09    1.78
  -6   0   0    0.86    1.77
  -6   0   0   -0.21    1.59
  -6   0   0    0.23    1.82
  -6   0   0   -0.90    1.23
  -6   0   0   -0.64    1.79
  -6   0   1  132.32    8.13
  -6   0   1  126.56    8.08
  -6   0   1  135.04    7.90
  -6   0   1  127.98    8.07
  -6   0   1  120.29    7.88
  -6   0   1  129.96    8.05
  -6   0   1  118.28    7.51
  -6   0   2  620.34   30.98
  -6   0   2  644.39   31.09
  -6   0   2  644.20   31.33
  -6   0   2  634.46   31.27
  -6   0   2  629.16   31.28
  -6   0   2  652.81   31.09
  -6   0   2  640.26   31.24
  -6   0   2  640.13   31.09
  -6   0   3   37.24    3.47
  -6   0   3   33.47    3.41
  -6   0   3   37.92    3.71
  -6   0   3   39.83    3.70
  -6   0   3   34.73    3.32
  -6   0   3   33.01    3.54
  -6   0   4   14.64    2.63
  -6   0   4   16.94    2.28
  -6   0   4   19.27    2.70
  -6   0   4   15.71    2.19
  -6   0   4   15.25    2.48
  -6   0   4   12.21    2.32
  -6   0   5   21.37    2.47
  -6   0   5   25.08    2.84
  -6   0   5   23.65    2.86
  -6   0   5   21.29    2.96
  -6   0   5   24.90    3.11
  -6   0   5   23.63    3.10
  -6   0   5   23.77    2.50
  -6   0   6  375.47   18.17
  -6   0   6  324.07   17.55
  -6   0   6  355.27   18.49
  -6   0   6  342.87   18.19
  -6   0   6  332.85   17.72
  -6   0   6  376.33   18.20
  -6   0   7   88.87    6.07
  -6   0   7   83.40    6.57
  -6   0   7   92.83    6.09
  -6   0   7   84.97    5.55
  -6   0   7   74.09    5.97
  -6   0   7   98.29    6.22
  -6   0   8   -1.60    2.30
  -6   0   8    0.38    1.35
  -6   0   8    0.85    1.43
  -6   0   8    0.39    1.64
  -6   0   8    1.87    1.80
  -6   0   8    0.51    1.23
  -6   0   9    2.02    1.57
  -6   0   9    2.41    1.32
  -6   0   9    6.79    1.67
  -6   0   9   -0.26    2.34
  -6   0   9    3.74    1.86
  -6   0  10    0.96    1.59
  -6   0  10    1.22    2.24
  -6   0  10    3.26    1.32
  -6   0  10    2.45    1.16
  -6   0  11    0.97    1.24
  -6   0  12    3.47    1.60
  -6   1  -6    4.40    1.32
  -6   1  -5    3.00    1.63
  -6   1  -5    1.65    1.44
  -6   1  -4   18.46    2.80
  -6   1  -4   24.62    2.94
  -6   1  -3    5.82    2.05
  -6   1  -3    7.35    2.19
  -6   1  -2   41.05    3.98
  -6   1  -2   53.48    4.48
  -6   1  -2   48.02    4.36
  -6   1  -2   49.02    4.52
  -6   1  -2   44.43    3.89
  -6   1  -1   10.22    2.37
  -6   1  -1   12.29    2.49
  -6   1  -1   10.36    1.77
  -6   1  -1    6.97    2.26
  -6   1  -1    9.33    2.24
  -6   1  -1    7.87    2.07
  -6   1   0    8.73    1.81
  -6   1   0    8.63    2.23
  -6   1   0    7.34    2.21
  -6   1   0    5.30    2.10
  -6   1   0    7.03    1.98
  -6   1   0    7.99    2.18
  -6   1   0   10.01    2.26
  -6   1   1  275.19   14.32
  -6   1   1  273.62   14.05
  -6   1   1  257.84   14.15
  -6   1   1  261.90   14.31
  -6   1   1  246.81   14.17
  -6   1   1  273.37   14.42
  -6   1   2  124.04    7.59
  -6   1   2  124.48    7.92
  -6   1   2  118.42    7.49
  -6   1   2  126.07    7.64
  -6   1   2  115.63    7.60
  -6   1   2  132.16    7.96
  -6   1   2  129.21    7.88
  -6   1   2  125.04    7.88
  -6   1   3   75.04    5.22
  -6   1   3   67.80    4.90
  -6   1   3   68.89    5.24
  -6   1   3   71.37    5.34
  -6   1   3   76.22    5.18
  -6   1   3   68.20    5.34
  -6   1   4    0.18    1.45
  -6   1   4   -0.14    1.23
  -6   1   4    1.07    1.70
  -6   1   4    1.64    1.86
  -6   1   4   -0.57    1.39
  -6   1   4    1.66    1.42
  -6   1   4    1.55    1.61
  -6   1   5   57.45    4.00
  -6   1   5   51.61    4.41
  -6   1   5   49.63    4.45
  -6   1   5   53.90    3.92
  -6   1   5   45.53    4.14
  -6   1   5   53.28    4.17
  -6   1   6  323.32   16.21
  -6   1   6  300.43   15.72
  -6   1   6  294.78   16.40
  -6   1   6  329.28   16.27
  -6   1   6  285.70   15.63
  -6   1   7   45.88    4.65
  -6   1   7   44.60    4.04
  -6   1   7   39.17    3.90
  -6   1   7   46.67    4.00
  -6   1   8   -0.18    1.37
  -6   1   8   -0.41    1.72
  -6   1   8    1.56    1.46
  -6   1   8    0.67    1.13
  -6   1   8    0.27    2.37
  -6   1   9    1.41    1.52
  -6   1   9   -2.10    2.36
  -6   1   9    2.03    1.35
  -6   1   9   -0.53    1.29
  -6   1   9    0.20    1.55
  -6   1  10    2.65    1.17
  -6   1  10    2.60    1.71
  -6   1  10    4.05    1.35
  -6   1  10    1.67    2.14
  -6   1  11    0.30    1.31
  -6   2  -6   -0.61    1.19
  -6   2  -6   -1.25    1.32
  -6   2  -5   -1.40    1.74
  -6   2  -5    0.53    1.59
  -6   2  -4  153.88    9.41
  -6   2  -4  161.78    9.64
  -6   2  -3    4.00    1.96
  -6   2  -3    3.35    1.80
  -6   2  -3    2.71    2.11
  -6   2  -2    2.05    1.63
  -6   2  -2    3.63    2.11
  -6   2  -2    1.63    1.82
  -6   2  -2    1.10    1.70
  -6   2  -2    0.20    1.55
  -6   2  -2    2.38    1.79
  -6   2  -1   61.14    4.86
  -6   2  -1   62.43    4.62
  -6   2  -1   60.84    4.77
  -6   2  -1   57.24    4.10
  -6   2  -1   55.89    4.80
  -6   2  -1   54.21    4.79
  -6   2  -1   56.43    4.93
  -6   2   0   49.22    4.41
  -6   2   0   47.48    4.49
  -6   2   0   58.97    4.65
  -6   2   0   50.43    4.39
  -6   2   0   51.86    4.00
  -6   2   0   55.38    4.42
  -6   2   1   53.86    4.53
  -6   2   1   53.24    4.54
  -6   2   1   49.07    4.35
  -6   2   1   50.33    4.38
  -6   2   1   61.15    4.33
  -6   2   1   46.93    4.38
  -6   2   1   56.49    4.23
  -6   2   2    5.68    1.98
  -6   2   2    6.36    1.81
  -6   2   2    3.95    2.09
  -6   2   2    5.05    1.90
  -6   2   2    4.52    2.02
  -6   2   2    5.97    1.70
  -6   2   2    4.08    2.04
  -6   2   2    2.82    1.62
  -6   2   2    4.00    1.49
  -6   2   3  530.47   25.83
  -6   2   3  524.49   26.39
  -6   2   3  550.55   26.19
  -6   2   3  535.33   26.25
  -6   2   3  530.15   26.10
  -6   2   3  516.81   25.81
  -6   2   4  450.08   22.29
  -6   2   4  419.95   22.11
  -6   2   4  447.99   22.09
  -6   2   4  469.45   22.43
  -6   2   4  449.47   22.43
  -6   2   4  443.26   21.85
  -6   2   4  444.81   22.56
  -6   2   5   43.17    3.60
  -6   2   5   42.12    3.81
  -6   2   5   38.32    3.93
  -6   2   5   39.76    3.95
  -6   2   5   40.41    3.38
  -6   2   6    3.40    1.38
  -6   2   6    2.22    1.70
  -6   2   6    0.36    1.52
  -6   2   6    3.55    1.96
  -6   2   6    0.47    2.08
  -6   2   6    2.01    1.42
  -6   2   7  248.50   14.75
  -6   2   7  258.76   14.10
  -6   2   7  259.27   14.24
  -6   2   7  293.95   14.52
  -6   2   8   45.12    4.11
  -6   2   8   40.50    3.77
  -6   2   8   51.59    4.11
  -6   2   8   41.98    4.63
  -6   2   9    8.20    1.67
  -6   2   9    7.53    1.76
  -6   2   9    7.41    2.08
  -6   2   9    4.08    2.44
  -6   2  10    1.81    2.03
  -6   2  10    1.87    1.09
  -6   2  10    3.16    1.16
  -6   2  10    1.39    1.49
  -6   2  11    3.98    1.42
  -6   3  -6    0.69    1.44
  -6   3  -6    0.27    1.15
  -6   3  -5    3.21    1.82
  -6   3  -5    2.58    1.64
  -6   3  -4    0.37    1.53
  -6   3  -4    4.28    2.07
  -6   3  -3   11.81    2.54
  -6   3  -3    7.51    2.13
  -6   3  -3   10.13    2.06
  -6   3  -2    3.88    2.08
  -6   3  -2    6.16    1.94
  -6   3  -2    4.95    2.13
  -6   3  -2    3.66    1.81
  -6   3  -2    3.87    1.66
  -6   3  -1  191.17   10.79
  -6   3  -1  201.90   11.11
  -6   3  -1  196.15   11.34
  -6   3  -1  203.29   11.44
  -6   3  -1  203.21   11.43
  -6   3  -1  186.38   10.96
  -6   3  -1  187.54   11.31
  -6   3  -1  210.92   11.40
  -6   3   0   82.74    5.63
  -6   3   0   85.07    5.95
  -6   3   0   83.30    5.83
  -6   3   0   70.44    5.81
  -6   3   0   80.53    5.90
  -6   3   0   77.68    5.23
  -6   3   0   83.05    5.91
  -6   3   1   14.21    2.48
  -6   3   1   18.00    2.20
  -6   3   1   17.25    2.73
  -6   3   1   15.60    2.52
  -6   3   1   17.15    2.53
  -6   3   1   13.62    2.50
  -6   3   1   19.50    2.41
  -6   3   1   16.09    2.60
  -6   3   2  192.35   10.61
  -6   3   2  200.60   11.15
  -6   3   2  186.30   11.04
  -6   3   2  191.82   10.88
  -6   3   2  200.13   10.78
  -6   3   2  189.84   10.95
  -6   3   2  192.48   10.68
  -6   3   2  189.36   10.99
  -6   3   3  232.13   12.11
  -6   3   3  235.27   12.39
  -6   3   3  238.32   12.42
  -6   3   3  223.29   12.61
  -6   3   3  212.91   11.94
  -6   3   3  230.78   12.49
  -6   3   3  216.98   12.53
  -6   3   4   59.20    4.92
  -6   3   4   63.01    4.74
  -6   3   4   62.24    4.34
  -6   3   4   60.02    4.56
  -6   3   4   66.24    5.12
  -6   3   4   62.29    4.81
  -6   3   4   60.78    4.77
  -6   3   5    7.56    1.42
  -6   3   5    8.84    2.05
  -6   3   5    7.68    1.72
  -6   3   5    5.95    1.96
  -6   3   5    7.56    2.23
  -6   3   5    5.90    1.64
  -6   3   5    6.64    2.29
  -6   3   6    0.75    1.58
  -6   3   6    6.43    2.52
  -6   3   6    3.23    1.95
  -6   3   7    2.67    1.52
  -6   3   7    2.11    1.45
  -6   3   7    2.80    2.41
  -6   3   7   -0.37    1.50
  -6   3   7    1.45    1.78
  -6   3   8    0.52    2.14
  -6   3   8    3.25    1.80
  -6   3   8    1.67    1.53
  -6   3   8    2.92    1.53
  -6   3   9   -0.36    1.56
  -6   3   9    1.22    2.02
  -6   3   9    0.51    1.22
  -6   3   9    1.03    1.19
  -6   3  10    1.25    1.97
  -6   3  10    2.80    1.56
  -6   3  10    3.40    1.13
  -6   4  -6    5.35    1.56
  -6   4  -5   38.44    3.84
  -6   4  -5   33.92    3.46
  -6   4  -4   31.43    3.58
  -6   4  -4   39.34    3.95
  -6   4  -4   35.98    3.45
  -6   4  -3   78.65    5.95
  -6   4  -3   80.51    5.96
  -6   4  -3   65.71    5.37
  -6   4  -3   79.47    5.54
  -6   4  -3   85.67    5.82
  -6   4  -2   19.32    2.43
  -6   4  -2   11.67    2.47
  -6   4  -2   16.53    2.56
  -6   4  -2   18.08    2.71
  -6   4  -2   18.10    2.83
  -6   4  -2   17.38    2.84
  -6   4  -2   14.01    2.17
  -6   4  -1    9.35    2.20
  -6   4  -1   10.60    2.02
  -6   4  -1    8.75    2.24
  -6   4  -1    8.63    2.26
  -6   4  -1    6.58    2.19
  -6   4  -1   10.03    2.04
  -6   4  -1    7.64    1.82
  -6   4  -1   10.13    2.23
  -6   4  -1    6.38    1.97
  -6   4   0    2.77    1.67
  -6   4   0    3.34    1.83
  -6   4   0    0.22    1.89
  -6   4   0    1.83    1.48
  -6   4   0    2.50    1.30
  -6   4   0    2.06    1.79
  -6   4   0    3.60    1.80
  -6   4   0    1.98    1.70
  -6   4   1   40.75    4.09
  -6   4   1   38.74    3.51
  -6   4   1   42.83    3.54
  -6   4   1   47.85    4.18
  -6   4   1   43.78    4.08
  -6   4   1   46.12    4.04
  -6   4   1   46.77    3.84
  -6   4   1   39.62    3.93
  -6   4   2  183.09   10.48
  -6   4   2  190.14   10.57
  -6   4   2  199.20   11.08
  -6   4   2  195.31   10.59
  -6   4   2  190.73   10.98
  -6   4   2  184.76   10.82
  -6   4   2  189.85   10.85
  -6   4   3  123.95    7.33
  -6   4   3  113.48    7.26
  -6   4   3  118.93    7.37
  -6   4   3  108.17    6.81
  -6   4   3  113.26    7.58
  -6   4   3  116.65    7.00
  -6   4   3  112.67    7.55
  -6   4   4   26.98    3.06
  -6   4   4   29.59    3.33
  -6   4   4   32.13    3.34
  -6   4   4   32.38    2.84
  -6   4   4   33.35    3.23
  -6   4   4   29.19    3.45
  -6   4   5    7.10    1.74
  -6   4   5    7.06    2.31
  -6   4   5    6.84    2.00
  -6   4   5    7.38    1.68
  -6   4   5    9.88    2.36
  -6   4   5    5.15    2.02
  -6   4   5    6.75    1.39
  -6   4   6   11.11    2.75
  -6   4   6   13.70    2.58
  -6   4   6   11.32    2.25
  -6   4   7    0.50    1.38
  -6   4   7    3.03    2.47
  -6   4   7    4.74    1.87
  -6   4   7   -0.21    1.73
  -6   4   8   14.82    2.21
  -6   4   8    7.45    2.56
  -6   4   8    9.55    2.06
  -6   4   8    9.52    2.09
  -6   4   9   14.00    2.90
  -6   4   9   13.21    2.20
  -6   4   9   11.00    1.94
  -6   4  10    0.65    1.15
  -6   4  10    1.49    1.81
  -6   5  -6   36.02    3.22
  -6   5  -6   42.40    3.60
  -6   5  -5   27.99    3.11
  -6   5  -5   29.61    3.25
  -6   5  -4    2.82    1.58
  -6   5  -4    2.72    1.51
  -6   5  -4    2.50    1.82
  -6   5  -4    0.21    1.84
  -6   5  -3   -0.56    1.52
  -6   5  -3    1.39    1.70
  -6   5  -3    1.64    1.77
  -6   5  -3    1.11    1.27
  -6   5  -3    0.78    1.56
  -6   5  -3    1.13    1.91
  -6   5  -2    5.06    1.93
  -6   5  -2    3.32    1.76
  -6   5  -2    3.20    1.77
  -6   5  -2    5.46    2.07
  -6   5  -2    5.83    1.66
  -6   5  -2    5.39    2.11
  -6   5  -1   11.56    2.47
  -6   5  -1   12.68    2.39
  -6   5  -1   11.08    2.39
  -6   5  -1   14.92    2.27
  -6   5  -1    9.40    2.30
  -6   5  -1   11.87    2.14
  -6   5  -1    9.85    2.07
  -6   5  -1    6.39    2.17
  -6   5   0  104.47    7.24
  -6   5   0  114.58    6.99
  -6   5   0  118.97    7.42
  -6   5   0  109.61    7.08
  -6   5   0  104.11    7.25
  -6   5   0  117.00    7.35
  -6   5   0  101.43    6.85
  -6   5   1   31.21    3.34
  -6   5   1   27.65    3.17
  -6   5   1   28.57    3.00
  -6   5   1   31.88    3.57
  -6   5   1   27.99    3.29
  -6   5   1   35.42    3.56
  -6   5   1   31.18    2.89
  -6   5   1   26.78    3.21
  -6   5   1   27.38    2.85
  -6   5   2   25.25    2.83
  -6   5   2   29.34    3.32
  -6   5   2   26.17    2.91
  -6   5   2   29.22    2.65
  -6   5   2   30.33    2.94
  -6   5   2   26.25    3.16
  -6   5   2   22.17    2.96
  -6   5   3   88.85    5.88
  -6   5   3   99.85    6.85
  -6   5   3   92.88    6.35
  -6   5   3   97.58    6.14
  -6   5   3   93.61    6.38
  -6   5   3  101.84    6.53
  -6   5   3   96.41    6.75
  -6   5   4  468.49   22.31
  -6   5   4  410.80   22.19
  -6   5   4  470.90   21.71
  -6   5   4  442.01   21.90
  -6   5   4  387.01   21.81
  -6   5   4  444.21   21.93
  -6   5   5  186.53   11.25
  -6   5   5  198.61   10.83
  -6   5   5  187.08   11.37
  -6   5   5  194.82   10.80
  -6   5   5  199.89   10.52
  -6   5   5  203.74   11.72
  -6   5   5  230.10   11.72
  -6   5   6   26.74    3.53
  -6   5   6   25.85    3.65
  -6   5   6   31.90    3.30
  -6   5   7    8.86    2.27
  -6   5   7    8.34    1.91
  -6   5   7   10.99    2.75
  -6   5   7   13.34    2.29
  -6   5   8    8.54    2.51
  -6   5   8   13.65    2.10
  -6   5   8    9.59    2.08
  -6   5   9    2.43    1.31
  -6   5   9    2.21    1.91
  -6   5   9    2.33    1.17
  -6   5  10   -0.16    1.49
  -6   6  -6    2.47    1.35
  -6   6  -6    5.31    1.58
  -6   6  -5   11.12    2.23
  -6   6  -5   11.80    2.27
  -6   6  -4   35.40    3.55
  -6   6  -4   31.20    3.19
  -6   6  -4   33.23    3.18
  -6   6  -4   31.86    3.58
  -6   6  -4   35.32    3.09
  -6   6  -3   39.86    3.71
  -6   6  -3   33.38    3.55
  -6   6  -3   47.21    3.65
  -6   6  -3   38.48    3.84
  -6   6  -3   33.22    3.42
  -6   6  -3   39.73    3.77
  -6   6  -2   14.01    2.56
  -6   6  -2   13.67    2.18
  -6   6  -2   16.00    2.42
  -6   6  -2   18.17    2.87
  -6   6  -2   16.12    2.65
  -6   6  -2   17.69    2.75
  -6   6  -2   15.58    2.53
  -6   6  -1   29.27    3.21
  -6   6  -1   23.11    2.77
  -6   6  -1   28.44    3.06
  -6   6  -1   31.84    3.33
  -6   6  -1   24.45    3.12
  -6   6  -1   30.50    3.45
  -6   6  -1   26.54    3.35
  -6   6  -1   26.23    3.38
  -6   6   0   49.41    4.76
  -6   6   0   60.23    4.71
  -6   6   0   65.73    4.78
  -6   6   0   62.43    4.90
  -6   6   0   52.86    4.35
  -6   6   1   23.83    3.10
  -6   6   1   25.20    3.25
  -6   6   1   23.15    2.61
  -6   6   1   25.62    3.09
  -6   6   1   21.65    2.48
  -6   6   1   23.60    3.28
  -6   6   1   29.88    3.01
  -6   6   1   25.62    3.19
  -6   6   1   26.20    2.93
  -6   6   2   21.52    2.85
  -6   6   2   23.39    2.63
  -6   6   2   20.46    2.53
  -6   6   2   19.47    2.87
  -6   6   2   15.75    2.02
  -6   6   2   16.46    2.58
  -6   6   2   22.36    2.98
  -6   6   3   20.60    3.25
  -6   6   3   24.19    2.62
  -6   6   3   23.71    2.95
  -6   6   3   24.63    3.18
  -6   6   3   23.65    2.87
  -6   6   3   18.68    2.79
  -6   6   4  178.67   11.12
  -6   6   4  216.94   11.24
  -6   6   4  199.90   10.79
  -6   6   4  191.56   10.74
  -6   6   4  204.48   11.51
  -6   6   4  203.33   10.53
  -6   6   5    0.95    1.90
  -6   6   5    1.52    1.76
  -6   6   5   -0.99    1.32
  -6   6   5   -0.32    1.23
  -6   6   5    1.50    1.62
  -6   6   5    3.64    2.17
  -6   6   6    7.28    1.90
  -6   6   6    8.64    2.21
  -6   6   6   11.69    2.76
  -6   6   6   10.21    2.53
  -6   6   7   19.18    2.80
  -6   6   7   16.35    2.97
  -6   6   8   14.90    2.13
  -6   6   8    9.17    1.95
  -6   6   8    9.24    2.39
  -6   6   9   -0.68    1.58
  -6   7  -6   -0.26    1.12
  -6   7  -6    0.25    1.17
  -6   7  -5   55.57    3.98
  -6   7  -5   42.73    3.67
  -6   7  -5   44.87    3.91
  -6   7  -4   -0.32    1.37
  -6   7  -4    0.49    1.25
  -6   7  -4    0.61    1.05
  -6   7  -4   -1.41    1.78
  -6   7  -4    0.53    1.42
  -6   7  -3   48.22    4.06
  -6   7  -3   37.59    3.80
  -6   7  -3   49.46    3.87
  -6   7  -3   45.40    4.00
  -6   7  -3   50.59    4.20
  -6   7  -2   -0.80    1.56
  -6   7  -2    0.42    1.68
  -6   7  -2   -1.23    1.44
  -6   7  -2   -1.74    1.30
  -6   7  -2    3.41    1.82
  -6   7  -2    3.65    2.00
  -6   7  -2   -0.93    1.47
  -6   7  -1    1.38    1.48
  -6   7  -1   -0.22    1.73
  -6   7  -1    3.30    1.58
  -6   7  -1    0.45    1.88
  -6   7  -1    0.20    1.26
  -6   7  -1    0.22    1.80
  -6   7  -1   -1.35    1.88
  -6   7   0   20.43    2.89
  -6   7   0   16.06    2.31
  -6   7   0   13.44    2.69
  -6   7   0   13.14    2.36
  -6   7   0   16.76    2.36
  -6   7   1    0.61    1.35
  -6   7   1    0.69    1.94
  -6   7   1   -0.48    1.94
  -6   7   1    1.68    1.90
  -6   7   1    2.29    1.97
  -6   7   1   -0.40    1.65
  -6   7   1    0.63    1.18
  -6   7   2    7.14    2.17
  -6   7   2    6.12    2.11
  -6   7   2    6.24    1.64
  -6   7   2    6.98    1.86
  -6   7   2    7.04    1.73
  -6   7   2    9.44    2.44
  -6   7   3   -0.24    1.90
  -6   7   3    3.14    1.80
  -6   7   3    0.36    1.14
  -6   7   3   -0.20    1.54
  -6   7   3    2.11    1.47
  -6   7   3   -0.73    2.03
  -6   7   4    0.81    1.53
  -6   7   4    1.19    1.97
  -6   7   4    0.20    1.75
  -6   7   4    0.36    1.50
  -6   7   4   -0.23    1.83
  -6   7   4    0.16    1.01
  -6   7   4    0.38    1.47
  -6   7   5    2.06    1.28
  -6   7   5    3.77    1.43
  -6   7   5    2.04    1.61
  -6   7   5    2.38    1.97
  -6   7   5    2.33    1.81
  -6   7   6   64.50    5.52
  -6   7   6   64.67    5.17
  -6   7   6   77.38    5.66
  -6   7   7   10.34    2.36
  -6   7   7    7.88    1.98
  -6   7   8    1.99    1.30
  -6   7   8   -0.17    1.55
  -6   8  -5   20.98    2.55
  -6   8  -5   23.00    2.45
  -6   8  -4   25.32    2.64
  -6   8  -4   30.52    2.95
  -6   8  -4   22.85    2.54
  -6   8  -4   29.69    3.13
  -6   8  -3    5.80    1.79
  -6   8  -3    3.57    1.55
  -6   8  -3    4.13    1.64
  -6   8  -3    5.35    1.43
  -6   8  -2   37.08    3.89
  -6   8  -2   46.13    4.07
  -6   8  -2   45.41    3.87
  -6   8  -2   43.56    3.94
  -6   8  -2   49.59    3.86
  -6   8  -2   35.27    3.60
  -6   8  -1   12.08    2.45
  -6   8  -1   11.14    2.07
  -6   8  -1    9.16    2.23
  -6   8  -1   14.02    2.12
  -6   8  -1   12.56    2.39
  -6   8  -1    8.40    2.26
  -6   8   0   -1.57    1.46
  -6   8   0   -0.34    1.25
  -6   8   0   -0.20    1.25
  -6   8   0   -0.90    1.77
  -6   8   0    0.21    1.65
  -6   8   1   15.29    2.53
  -6   8   1   16.32    2.37
  -6   8   1   19.33    2.87
  -6   8   1   18.07    2.85
  -6   8   1   15.33    2.79
  -6   8   1   13.03    2.37
  -6   8   2   -0.85    1.88
  -6   8   2    0.32    1.16
  -6   8   2   -0.21    1.78
  -6   8   2   -0.48    1.96
  -6   8   2    0.66    1.74
  -6   8   2    0.32    1.32
  -6   8   2    0.19    1.26
  -6   8   3   24.31    2.54
  -6   8   3   17.71    2.91
  -6   8   3   23.62    2.68
  -6   8   3   21.59    2.81
  -6   8   3   19.30    2.99
  -6   8   3   14.34    2.47
  -6   8   4   23.19    2.63
  -6   8   4   17.61    2.84
  -6   8   4   21.19    2.56
  -6   8   4   22.47    3.06
  -6   8   4   17.73    2.35
  -6   8   4   17.57    2.13
  -6   8   5   71.98    5.35
  -6   8   5   74.94    4.87
  -6   8   6   18.94    2.60
  -6   8   6   23.08    2.48
  -6   8   6   15.62    2.55
  -6   8   7    6.42    1.59
  -6   8   7    5.02    1.73
  -6   9  -5    5.57    1.46
  -6   9  -4    6.67    1.52
  -6   9  -4    5.64    1.76
  -6   9  -4    5.58    1.39
  -6   9  -4    5.73    1.30
  -6   9  -3    1.15    1.22
  -6   9  -3    0.78    1.34
  -6   9  -3    1.29    1.43
  -6   9  -3    0.55    1.63
  -6   9  -2    8.70    2.00
  -6   9  -2   10.09    2.17
  -6   9  -2    6.39    1.67
  -6   9  -2    8.60    1.77
  -6   9  -2    9.25    1.74
  -6   9  -2    9.60    2.17
  -6   9  -1   11.90    2.39
  -6   9  -1   11.00    1.86
  -6   9  -1    6.66    1.98
  -6   9  -1   10.17    2.18
  -6   9  -1   11.07    2.22
  -6   9  -1   10.52    1.87
  -6   9   0    1.50    1.22
  -6   9   0    3.21    1.73
  -6   9   0    0.20    1.79
  -6   9   0    2.16    1.22
  -6   9   1   44.97    3.91
  -6   9   1   45.89    3.86
  -6   9   1   59.04    4.24
  -6   9   1   47.49    4.29
  -6   9   1   51.41    4.36
  -6   9   1   49.41    4.40
  -6   9   2  108.54    7.39
  -6   9   2  114.99    7.20
  -6   9   2  111.55    7.22
  -6   9   2  113.73    7.32
  -6   9   2  122.57    7.13
  -6   9   3    3.14    1.89
  -6   9   3    1.53    1.63
  -6   9   3    3.15    1.63
  -6   9   3    2.41    1.16
  -6   9   3    1.43    1.13
  -6   9   3    3.03    1.59
  -6   9   4    3.31    1.35
  -6   9   4    0.57    1.61
  -6   9   4    1.33    1.20
  -6   9   4    1.29    1.54
  -6   9   4    2.65    1.25
  -6   9   5   11.12    2.04
  -6   9   6    0.96    1.25
  -6  10  -3   -0.13    0.99
  -6  10  -3    1.34    1.38
  -6  10  -3    2.08    1.13
  -6  10  -3   -0.13    1.08
  -6  10  -2    1.72    1.11
  -6  10  -2    3.12    1.49
  -6  10  -2    2.38    1.37
  -6  10  -2    2.25    1.44
  -6  10  -1   16.08    2.28
  -6  10  -1   13.92    2.15
  -6  10  -1   10.80    2.08
  -6  10  -1   15.18    1.86
  -6  10   0    0.46    1.33
  -6  10   0    2.65    1.61
  -6  10   1   12.64    1.85
  -6  10   1   16.77    2.36
  -6  10   1   11.74    2.09
  -6  10   1   11.56    1.79
  -6  10   1   14.96    2.30
  -6  10   2   16.62    2.25
  -6  10   2   15.15    2.19
  -6  10   2   12.26    2.23
  -6  10   2   17.50    2.20
  -6  10   3   -0.13    1.05
  -6  10   3    0.42    1.22
  -6  10   3   -0.87    1.31
  -6  10   4    6.13    1.54
  -6  11  -1   15.34    1.96
  -6  11  -1   15.99    1.97
  -6  11   0    4.20    1.32
  -6  11   1   11.20    1.73
  -6  11   1   11.95    1.76
  -5  -9   2   10.91    1.97
  -5  -9   2   13.49    1.95
  -5  -9   3   49.22    3.51
  -5  -9   3   49.42    3.67
  -5  -9   3   38.29    3.23
  -5  -9   3   42.73    3.64
  -5  -9   4    6.39    1.57
  -5  -9   4    5.81    1.39
  -5  -9   4    7.27    1.83
  -5  -9   5    0.58    1.19
  -5  -9   5    0.15    1.49
  -5  -9   5    0.15    1.38
  -5  -9   6   38.92    3.45
  -5  -9   6   41.91    3.43
  -5  -9   7   21.59    2.56
  -5  -9   8   18.40    1.99
  -5  -9   8   14.17    2.10
  -5  -8   0    2.66    1.42
  -5  -8   0    0.30    1.54
  -5  -8   1    4.78    1.94
  -5  -8   1    3.61    1.58
  -5  -8   2    6.87    1.74
  -5  -8   2    6.21    1.81
  -5  -8   2    8.95    2.16
  -5  -8   3    3.98    1.98
  -5  -8   3    1.53    1.54
  -5  -8   3    2.45    1.51
  -5  -8   3    4.30    1.95
  -5  -8   4    5.28    1.95
  -5  -8   4    3.08    1.78
  -5  -8   4    3.99    1.97
  -5  -8   4    3.07    1.65
  -5  -8   4    0.98    1.49
  -5  -8   4    2.74    1.28
  -5  -8   5    9.73    2.17
  -5  -8   5    7.90    1.74
  -5  -8   5    9.61    2.04
  -5  -8   5    9.23    2.01
  -5  -8   5    8.21    2.20
  -5  -8   5    8.22    1.69
  -5  -8   6   12.17    2.47
  -5  -8   6   13.95    2.49
  -5  -8   6   15.33    2.09
  -5  -8   6   15.78    2.36
  -5  -8   7    1.58    1.19
  -5  -8   7    1.90    1.82
  -5  -8   7    3.06    1.69
  -5  -8   8    8.77    1.81
  -5  -8   8    7.06    1.74
  -5  -8   8    6.47    1.94
  -5  -8   8   11.20    1.71
  -5  -8   9    7.02    1.59
  -5  -8  10   -0.52    1.24
  -5  -7  -2   14.88    2.06
  -5  -7  -1    0.64    1.48
  -5  -7  -1    1.19    1.68
  -5  -7  -1    0.79    1.44
  -5  -7   0   53.79    4.60
  -5  -7   0   52.69    4.40
  -5  -7   1    0.20    1.74
  -5  -7   1   -1.32    1.95
  -5  -7   1    1.43    1.45
  -5  -7   2    7.58    2.23
  -5  -7   2    9.80    2.48
  -5  -7   2    7.20    2.27
  -5  -7   2    8.51    2.04
  -5  -7   3   51.98    4.78
  -5  -7   3   52.19    4.62
  -5  -7   3   63.13    4.84
  -5  -7   3   61.18    4.85
  -5  -7   4   46.43    4.08
  -5  -7   4   39.71    3.92
  -5  -7   4   40.51    3.61
  -5  -7   4   44.30    4.09
  -5  -7   4   45.39    4.34
  -5  -7   4   41.79    3.93
  -5  -7   5    2.42    1.68
  -5  -7   5    0.74    1.29
  -5  -7   5    2.47    2.02
  -5  -7   5    1.02    1.69
  -5  -7   5    1.53    1.82
  -5  -7   5    1.81    1.63
  -5  -7   6   18.39    2.33
  -5  -7   6   15.99    2.40
  -5  -7   6   24.43    2.60
  -5  -7   6   19.01    2.67
  -5  -7   6   17.60    2.86
  -5  -7   6   14.51    2.79
  -5  -7   7   15.79    2.09
  -5  -7   7   15.76    2.48
  -5  -7   7   18.17    2.30
  -5  -7   7   10.05    2.50
  -5  -7   7   15.38    2.76
  -5  -7   8    9.95    1.78
  -5  -7   8    5.19    2.39
  -5  -7   8   10.15    2.26
  -5  -7   8   11.29    1.90
  -5  -7   9   12.96    1.96
  -5  -7   9    6.72    1.90
  -5  -7   9   13.79    2.19
  -5  -7   9   11.66    1.79
  -5  -7  10   -0.45    0.95
  -5  -7  10    0.29    1.26
  -5  -7  10    1.69    1.56
  -5  -6  -3   29.48    2.72
  -5  -6  -2    9.35    2.14
  -5  -6  -2    9.87    2.04
  -5  -6  -2   10.68    2.19
  -5  -6  -1    8.35    2.19
  -5  -6  -1    9.36    2.30
  -5  -6  -1    4.37    2.12
  -5  -6   0   91.64    6.60
  -5  -6   0   90.90    6.49
  -5  -6   1  315.26   17.57
  -5  -6   1  340.58   17.56
  -5  -6   1  332.97   17.18
  -5  -6   2    0.61    1.45
  -5  -6   2    6.26    2.23
  -5  -6   2    1.16    1.93
  -5  -6   2    6.59    1.96
  -5  -6   2    3.89    2.24
  -5  -6   2    2.09    1.26
  -5  -6   3   26.99    2.76
  -5  -6   3   18.75    2.85
  -5  -6   3   22.25    3.26
  -5  -6   3   21.73    3.05
  -5  -6   3   23.68    2.91
  -5  -6   4  167.02    9.80
  -5  -6   4  158.59    9.40
  -5  -6   4  150.38    9.68
  -5  -6   4  163.26    9.79
  -5  -6   4  173.90   10.19
  -5  -6   4  175.98    9.88
  -5  -6   5    3.11    2.31
  -5  -6   5    4.39    2.18
  -5  -6   5    3.40    1.69
  -5  -6   5    4.58    1.91
  -5  -6   5    4.95    1.64
  -5  -6   5    2.77    1.79
  -5  -6   6    7.59    1.91
  -5  -6   6    5.28    2.41
  -5  -6   6    9.59    1.66
  -5  -6   6    9.64    2.25
  -5  -6   6    8.54    2.00
  -5  -6   6    9.10    1.89
  -5  -6   6    8.71    2.53
  -5  -6   7    9.96    1.65
  -5  -6   7    4.65    2.32
  -5  -6   7    4.70    1.89
  -5  -6   7    4.63    1.54
  -5  -6   7    5.25    2.25
  -5  -6   8    0.96    1.35
  -5  -6   8    1.70    2.19
  -5  -6   8    0.17    0.96
  -5  -6   8   -0.96    1.28
  -5  -6   8   -1.71    1.80
  -5  -6   9   -1.23    1.37
  -5  -6   9    0.94    1.75
  -5  -6   9    1.09    1.24
  -5  -6  10   13.72    2.27
  -5  -6  10   13.06    1.97
  -5  -6  10   10.74    1.80
  -5  -6  10   10.68    2.01
  -5  -6  10    8.69    2.42
  -5  -6  11    1.55    1.19
  -5  -6  11    0.32    1.53
  -5  -5  -3    7.78    1.85
  -5  -5  -3    6.37    1.76
  -5  -5  -3    6.74    1.81
  -5  -5  -2    6.64    2.09
  -5  -5  -2    6.10    2.15
  -5  -5  -2    9.98    2.25
  -5  -5  -1    3.12    2.04
  -5  -5  -1    3.84    2.22
  -5  -5  -1    1.56    1.94
  -5  -5   0    8.85    2.48
  -5  -5   0   11.07    2.61
  -5  -5   0   12.22    2.70
  -5  -5   0   11.35    2.07
  -5  -5   1   33.71    3.38
  -5  -5   1   34.48    3.91
  -5  -5   1   31.75    2.99
  -5  -5   1   35.16    3.82
  -5  -5   2   24.39    2.52
  -5  -5   2   14.38    2.84
  -5  -5   2   22.09    2.75
  -5  -5   2   20.14    3.16
  -5  -5   2   19.13    3.12
  -5  -5   2   18.40    2.72
  -5  -5   3    2.00    1.54
  -5  -5   3    2.37    1.86
  -5  -5   3    2.24    1.37
  -5  -5   3    2.18    1.86
  -5  -5   3    1.69    2.40
  -5  -5   3    3.26    1.95
  -5  -5   4  174.88    9.78
  -5  -5   4  169.05   10.14
  -5  -5   4  170.42    9.90
  -5  -5   4  172.61   10.04
  -5  -5   4  177.84   10.15
  -5  -5   4  166.73   10.07
  -5  -5   5   15.78    1.93
  -5  -5   5   16.70    2.89
  -5  -5   5   10.36    2.95
  -5  -5   5   14.50    2.47
  -5  -5   5   13.35    2.21
  -5  -5   5   20.34    2.78
  -5  -5   5   17.59    2.69
  -5  -5   5   19.41    2.47
  -5  -5   6    9.26    2.25
  -5  -5   6    3.62    2.22
  -5  -5   6    9.52    1.90
  -5  -5   6    7.38    1.91
  -5  -5   6    7.51    1.86
  -5  -5   6   11.11    1.74
  -5  -5   6    9.29    2.55
  -5  -5   6    9.60    1.91
  -5  -5   7   17.21    2.43
  -5  -5   7   14.85    2.09
  -5  -5   7   20.32    2.28
  -5  -5   7   17.82    3.20
  -5  -5   7   14.62    2.91
  -5  -5   7    9.61    2.00
  -5  -5   7   19.52    2.81
  -5  -5   7   14.15    2.18
  -5  -5   8    0.53    1.11
  -5  -5   8   -0.26    2.28
  -5  -5   8    1.54    1.82
  -5  -5   8   -0.46    1.95
  -5  -5   8    1.00    1.38
  -5  -5   8    0.51    1.33
  -5  -5   9    2.34    1.46
  -5  -5   9    1.01    1.37
  -5  -5   9    1.07    1.93
  -5  -5   9    2.80    1.33
  -5  -5  10   -0.54    1.30
  -5  -5  10    2.88    1.77
  -5  -5  10    0.23    2.01
  -5  -5  10   -0.47    1.35
  -5  -5  11   -0.19    1.72
  -5  -5  11    0.66    1.16
  -5  -5  11   -0.31    1.07
  -5  -5  11    2.14    1.42
  -5  -5  12   -0.12    1.06
  -5  -5  12   -1.59    1.35
  -5  -4  -4    0.68    1.31
  -5  -4  -4    1.50    1.34
  -5  -4  -3    3.55    1.76
  -5  -4  -3    0.99    1.51
  -5  -4  -3    2.12    1.73
  -5  -4  -2  227.02   12.53
  -5  -4  -2  208.77   12.21
  -5  -4  -2  233.07   12.59
  -5  -4  -1   94.82    6.63
  -5  -4  -1   86.30    6.41
  -5  -4  -1   88.11    6.49
  -5  -4   0   12.73    2.10
  -5  -4   0   16.95    2.97
  -5  -4   0   19.06    3.03
  -5  -4   1   54.10    3.89
  -5  -4   1   50.30    4.73
  -5  -4   1   60.10    4.89
  -5  -4   1   53.12    4.18
  -5  -4   2  244.11   14.03
  -5  -4   2  272.97   14.30
  -5  -4   2  277.83   14.73
  -5  -4   2  281.29   14.91
  -5  -4   2  277.81   14.74
  -5  -4   2  283.75   14.78
  -5  -4   3  205.18   11.11
  -5  -4   3  187.62   10.84
  -5  -4   3  187.55   10.77
  -5  -4   3  178.19   10.29
  -5  -4   3  190.87   11.31
  -5  -4   3  200.41   11.03
  -5  -4   3  186.27   10.73
  -5  -4   3  203.63   10.83
  -5  -4   4  406.02   19.98
  -5  -4   4  406.15   20.12
  -5  -4   4  381.67   19.88
  -5  -4   4  377.33   20.00
  -5  -4   4  382.15   20.12
  -5  -4   4  409.28   20.07
  -5  -4   5  110.59    6.98
  -5  -4   5  117.29    7.34
  -5  -4   5  111.33    6.96
  -5  -4   5  123.04    7.77
  -5  -4   5  105.78    7.02
  -5  -4   5  117.42    7.17
  -5  -4   5  114.76    7.29
  -5  -4   5  113.67    6.61
  -5  -4   6  138.68    7.71
  -5  -4   6  125.58    8.54
  -5  -4   6  130.10    7.96
  -5  -4   6  126.68    7.95
  -5  -4   6  136.22    7.87
  -5  -4   6  134.11    8.68
  -5  -4   6  129.42    8.27
  -5  -4   6  136.03    7.99
  -5  -4   7    9.50    2.92
  -5  -4   7   10.51    2.04
  -5  -4   7   10.82    1.81
  -5  -4   7    9.50    1.83
  -5  -4   7    6.86    1.81
  -5  -4   7   10.69    2.40
  -5  -4   7    4.83    2.45
  -5  -4   7    7.98    1.81
  -5  -4   8    2.63    1.55
  -5  -4   8    4.93    2.07
  -5  -4   8    4.25    2.49
  -5  -4   8    2.59    1.21
  -5  -4   8    3.90    1.37
  -5  -4   8    5.05    2.33
  -5  -4   8    2.41    1.43
  -5  -4   9   21.19    3.09
  -5  -4   9   21.77    2.59
  -5  -4   9   29.23    3.03
  -5  -4   9   20.65    2.68
  -5  -4  10    4.67    2.10
  -5  -4  10    0.77    1.37
  -5  -4  10    1.19    1.50
  -5  -4  10    3.20    2.34
  -5  -4  11    0.17    1.15
  -5  -4  11    0.89    1.23
  -5  -4  11   -0.21    1.95
  -5  -4  11    1.90    1.58
  -5  -4  11   -0.55    1.51
  -5  -4  12    0.76    1.45
  -5  -4  12    4.48    1.43
  -5  -3  -4   12.78    2.24
  -5  -3  -4   11.63    2.04
  -5  -3  -3   -0.63    1.78
  -5  -3  -3    0.79    1.68
  -5  -3  -2   54.07    4.71
  -5  -3  -2   66.21    5.19
  -5  -3  -2   72.30    5.36
  -5  -3  -1   11.37    2.59
  -5  -3  -1    6.44    1.66
  -5  -3  -1    7.39    2.22
  -5  -3  -1   11.14    2.58
  -5  -3   0    0.65    1.91
  -5  -3   0   -0.66    1.78
  -5  -3   0   -0.82    1.22
  -5  -3   0    1.05    1.75
  -5  -3   0    0.73    1.15
  -5  -3   1   90.93    6.29
  -5  -3   1   94.83    6.07
  -5  -3   1   83.82    5.68
  -5  -3   1   88.43    5.67
  -5  -3   1   87.57    6.23
  -5  -3   1   90.23    6.33
  -5  -3   2   19.74    2.73
  -5  -3   2   19.74    2.05
  -5  -3   2   16.22    2.39
  -5  -3   2   21.22    2.52
  -5  -3   2   19.14    2.73
  -5  -3   2   20.72    3.00
  -5  -3   2   16.30    2.23
  -5  -3   3   59.90    4.18
  -5  -3   3   61.75    5.09
  -5  -3   3   66.60    4.63
  -5  -3   3   66.31    4.66
  -5  -3   3   60.12    4.81
  -5  -3   3   62.64    4.66
  -5  -3   3   63.33    4.79
  -5  -3   3   54.48    4.53
  -5  -3   4    1.38    1.84
  -5  -3   4    2.83    1.71
  -5  -3   4    1.61    1.14
  -5  -3   4    2.44    1.38
  -5  -3   4    3.06    2.32
  -5  -3   4    3.71    1.73
  -5  -3   4    2.93    1.69
  -5  -3   4    2.80    1.55
  -5  -3   5  189.17   10.69
  -5  -3   5  191.20   11.02
  -5  -3   5  207.63   10.96
  -5  -3   5  197.67   10.50
  -5  -3   5  215.63   11.68
  -5  -3   5  201.82   11.23
  -5  -3   5  212.07   11.37
  -5  -3   5  211.71   11.18
  -5  -3   6   40.40    3.55
  -5  -3   6   39.14    3.67
  -5  -3   6   44.35    4.37
  -5  -3   6   40.94    3.26
  -5  -3   6   43.97    3.64
  -5  -3   6   43.73    3.95
  -5  -3   6   39.27    3.51
  -5  -3   7    8.17    1.81
  -5  -3   7    8.36    1.61
  -5  -3   7    6.42    1.59
  -5  -3   7    6.31    1.86
  -5  -3   7    5.76    2.10
  -5  -3   7   10.41    2.75
  -5  -3   7    6.21    1.78
  -5  -3   8    0.51    1.37
  -5  -3   8    0.16    1.16
  -5  -3   8   -0.18    1.11
  -5  -3   8    1.61    2.29
  -5  -3   8   -0.45    1.59
  -5  -3   8    2.80    1.66
  -5  -3   9    0.73    1.47
  -5  -3   9    1.24    1.54
  -5  -3   9    0.56    1.08
  -5  -3  10    2.05    2.24
  -5  -3  10    1.79    1.61
  -5  -3  10    2.76    1.35
  -5  -3  10    3.02    1.52
  -5  -3  11   12.63    2.80
  -5  -3  11   14.66    2.16
  -5  -3  11   19.65    2.45
  -5  -3  12    0.46    1.22
  -5  -3  12    1.00    1.54
  -5  -3  12    0.36    1.10
  -5  -2  -5    3.97    1.52
  -5  -2  -4    0.39    1.69
  -5  -2  -3  120.93    7.61
  -5  -2  -3  111.49    7.24
  -5  -2  -3  114.80    7.05
  -5  -2  -2   39.70    3.86
  -5  -2  -2   44.66    4.05
  -5  -2  -2   35.55    3.37
  -5  -2  -2   30.14    3.22
  -5  -2  -1   71.99    5.40
  -5  -2  -1   85.36    5.86
  -5  -2  -1   73.11    5.28
  -5  -2  -1   83.83    5.85
  -5  -2  -1   75.11    5.75
  -5  -2   0   22.72    2.86
  -5  -2   0   17.87    2.43
  -5  -2   0   20.79    2.85
  -5  -2   0   18.75    2.75
  -5  -2   0   21.68    2.59
  -5  -2   1  173.83    9.79
  -5  -2   1  178.19   10.14
  -5  -2   1  175.51    9.90
  -5  -2   1  184.03   10.18
  -5  -2   1  166.25    9.31
  -5  -2   1  182.47   10.16
  -5  -2   1  179.67   10.11
  -5  -2   2   12.46    2.02
  -5  -2   2   12.02    2.22
  -5  -2   2    9.24    1.72
  -5  -2   2   10.99    2.10
  -5  -2   2   10.94    2.37
  -5  -2   2   12.88    1.96
  -5  -2   3  187.53    9.85
  -5  -2   3  181.02   10.55
  -5  -2   3  188.43   10.54
  -5  -2   3  198.53   10.86
  -5  -2   3  179.39   10.32
  -5  -2   3  190.28   10.36
  -5  -2   3  195.19   10.23
  -5  -2   4   36.37    2.92
  -5  -2   4   37.13    3.55
  -5  -2   4   37.61    3.36
  -5  -2   4   34.69    3.53
  -5  -2   4   36.16    3.09
  -5  -2   4   36.46    3.41
  -5  -2   4   38.22    3.28
  -5  -2   4   40.18    3.44
  -5  -2   5   31.60    2.49
  -5  -2   5   34.77    3.12
  -5  -2   5   31.00    3.08
  -5  -2   5   31.29    3.10
  -5  -2   5   33.06    3.60
  -5  -2   5   27.70    2.77
  -5  -2   5   30.46    3.27
  -5  -2   5   31.72    2.74
  -5  -2   6  205.67   11.41
  -5  -2   6  213.38   11.17
  -5  -2   6  204.64   10.73
  -5  -2   6  206.45   11.10
  -5  -2   6  204.35   11.08
  -5  -2   6  194.96   11.15
  -5  -2   6  193.04   11.72
  -5  -2   7    0.46    1.28
  -5  -2   7    2.54    1.44
  -5  -2   7    1.98    2.28
  -5  -2   7   -0.21    1.65
  -5  -2   7    0.78    1.01
  -5  -2   7    0.69    1.55
  -5  -2   7    0.91    1.46
  -5  -2   8   10.13    1.79
  -5  -2   8   10.48    2.08
  -5  -2   8    5.11    1.60
  -5  -2   8    9.36    2.89
  -5  -2   8    8.70    1.75
  -5  -2   8    8.35    1.96
  -5  -2   8    4.01    2.12
  -5  -2   9    3.23    1.15
  -5  -2   9    2.44    1.27
  -5  -2   9    2.21    1.59
  -5  -2   9    5.19    1.79
  -5  -2   9    5.33    2.13
  -5  -2  10    5.90    1.85
  -5  -2  10   10.67    2.57
  -5  -2  10    6.86    2.74
  -5  -2  10    9.86    2.11
  -5  -2  10   13.19    2.03
  -5  -2  11    1.85    1.42
  -5  -2  11   -0.91    2.06
  -5  -2  11    0.33    1.38
  -5  -2  12    1.39    1.65
  -5  -2  12   -1.14    1.15
  -5  -1  -5   93.68    6.31
  -5  -1  -5  101.69    6.27
  -5  -1  -4  144.10    8.75
  -5  -1  -4  144.31    8.60
  -5  -1  -3   -1.28    1.79
  -5  -1  -3   -1.27    1.64
  -5  -1  -3   -0.59    1.44
  -5  -1  -2   35.92    3.62
  -5  -1  -2   37.23    3.61
  -5  -1  -2   37.18    3.82
  -5  -1  -2   39.70    3.73
  -5  -1  -1  295.64   14.78
  -5  -1  -1  303.50   15.16
  -5  -1  -1  284.50   15.11
  -5  -1  -1  255.53   14.39
  -5  -1  -1  287.86   14.92
  -5  -1  -1  285.41   15.04
  -5  -1   0  638.29   30.85
  -5  -1   0  637.00   30.86
  -5  -1   0  665.26   30.92
  -5  -1   0  654.41   30.62
  -5  -1   0  590.92   30.39
  -5  -1   0  627.99   30.66
  -5  -1   1   25.57    3.01
  -5  -1   1   30.82    3.00
  -5  -1   1   28.37    2.94
  -5  -1   1   28.21    3.12
  -5  -1   1   28.31    3.17
  -5  -1   1   28.81    3.13
  -5  -1   1   28.47    2.85
  -5  -1   2    9.82    1.96
  -5  -1   2   15.30    2.04
  -5  -1   2    8.04    1.46
  -5  -1   2   17.12    2.18
  -5  -1   2   12.61    2.03
  -5  -1   2   14.76    2.36
  -5  -1   2    6.77    1.95
  -5  -1   3  257.35   13.46
  -5  -1   3  256.89   13.56
  -5  -1   3  266.79   13.32
  -5  -1   3  259.88   13.39
  -5  -1   3  245.92   13.17
  -5  -1   3  255.69   13.50
  -5  -1   3  264.50   13.11
  -5  -1   3  248.06   12.69
  -5  -1   4    0.62    1.35
  -5  -1   4   -0.34    0.85
  -5  -1   4    0.94    1.24
  -5  -1   4    0.88    1.73
  -5  -1   4   -0.37    1.12
  -5  -1   4    1.37    1.63
  -5  -1   4    0.43    1.20
  -5  -1   4    0.67    1.13
  -5  -1   4    0.66    1.39
  -5  -1   5    8.38    1.48
  -5  -1   5    4.53    2.18
  -5  -1   5   12.15    2.15
  -5  -1   5    7.48    1.45
  -5  -1   5    6.48    1.68
  -5  -1   5    8.03    1.72
  -5  -1   5   10.32    2.03
  -5  -1   5    7.53    1.69
  -5  -1   5    7.27    1.21
  -5  -1   6  194.52    9.96
  -5  -1   6  176.45   10.10
  -5  -1   6  174.26    9.50
  -5  -1   6  181.80    9.95
  -5  -1   6  174.66    9.83
  -5  -1   6  186.05    9.56
  -5  -1   6  174.98   10.50
  -5  -1   6  159.89    9.97
  -5  -1   7  304.03   16.58
  -5  -1   7  344.14   16.52
  -5  -1   7  354.13   16.83
  -5  -1   7  353.68   16.76
  -5  -1   7  312.16   16.96
  -5  -1   7  297.36   17.34
  -5  -1   7  299.63   16.29
  -5  -1   8   15.16    2.34
  -5  -1   8   15.01    2.34
  -5  -1   8   16.83    2.49
  -5  -1   8   16.22    3.39
  -5  -1   8   12.21    2.63
  -5  -1   8   16.68    2.23
  -5  -1   8   19.69    2.31
  -5  -1   9   14.75    2.16
  -5  -1   9   12.70    2.31
  -5  -1   9   11.20    1.83
  -5  -1   9   12.38    2.69
  -5  -1   9   16.02    2.53
  -5  -1  10    0.53    2.35
  -5  -1  10    1.61    1.99
  -5  -1  10    0.94    1.53
  -5  -1  10    2.29    1.29
  -5  -1  10    1.03    1.38
  -5  -1  11    1.63    1.81
  -5  -1  11    0.56    1.34
  -5  -1  11   -0.67    1.47
  -5  -1  11    0.92    2.02
  -5  -1  12    0.63    1.13
  -5  -1  12   -1.40    1.71
  -5   0  -7    7.61    1.47
  -5   0  -6   -0.85    1.42
  -5   0  -5   34.60    3.41
  -5   0  -5   27.01    3.17
  -5   0  -4  125.46    7.94
  -5   0  -4  123.58    7.93
  -5   0  -3   -1.45    1.74
  -5   0  -3    0.84    1.76
  -5   0  -3   -0.82    1.35
  -5   0  -2   94.15    6.18
  -5   0  -2   97.59    6.47
  -5   0  -2   95.53    6.31
  -5   0  -2   95.67    6.51
  -5   0  -2   91.48    6.36
  -5   0  -1  333.36   16.89
  -5   0  -1  324.88   16.98
  -5   0  -1  324.08   16.79
  -5   0  -1  338.88   16.95
  -5   0  -1  325.23   16.88
  -5   0  -1  315.63   16.45
  -5   0   0   43.09    3.67
  -5   0   0   38.01    3.34
  -5   0   0   39.08    3.68
  -5   0   0   42.69    3.67
  -5   0   0   41.22    3.82
  -5   0   0   45.19    3.49
  -5   0   0   46.39    3.87
  -5   0   0   41.75    3.76
  -5   0   1   17.47    2.27
  -5   0   1   13.46    2.24
  -5   0   1   18.14    2.43
  -5   0   1   14.86    2.26
  -5   0   1   14.38    2.17
  -5   0   1   13.01    2.15
  -5   0   1   15.60    2.11
  -5   0   2  307.85   15.63
  -5   0   2  304.71   15.74
  -5   0   2  308.25   15.83
  -5   0   2  309.89   15.63
  -5   0   2  311.20   15.76
  -5   0   2  305.45   15.65
  -5   0   2  306.66   15.78
  -5   0   3  419.49   20.48
  -5   0   3  428.42   20.43
  -5   0   3  418.60   20.38
  -5   0   3  403.51   20.18
  -5   0   3  395.22   19.95
  -5   0   3  411.26   20.48
  -5   0   3  418.49   20.57
  -5   0   3  422.83   20.62
  -5   0   3  410.29   20.30
  -5   0   4    5.05    1.12
  -5   0   4    6.77    1.82
  -5   0   4    5.72    1.35
  -5   0   4    4.88    1.85
  -5   0   4    7.18    1.78
  -5   0   4    5.78    1.40
  -5   0   4    6.65    1.60
  -5   0   4    4.65    1.33
  -5   0   5   37.58    2.96
  -5   0   5   40.88    3.01
  -5   0   5   43.97    3.53
  -5   0   5   35.63    3.26
  -5   0   5   36.30    2.70
  -5   0   5   38.52    3.26
  -5   0   5   39.79    3.85
  -5   0   5   37.57    3.40
  -5   0   6   19.22    2.49
  -5   0   6   15.97    2.09
  -5   0   6   17.58    2.30
  -5   0   6   17.98    1.96
  -5   0   6   17.26    2.91
  -5   0   6   22.20    2.34
  -5   0   6   16.01    2.43
  -5   0   7    1.72    2.25
  -5   0   7    3.35    1.21
  -5   0   7    3.46    1.58
  -5   0   7    2.60    1.44
  -5   0   7    2.27    1.50
  -5   0   7    1.81    1.72
  -5   0   8    5.06    1.68
  -5   0   8    2.80    1.27
  -5   0   8    4.01    1.54
  -5   0   8    3.15    1.38
  -5   0   8    3.59    1.63
  -5   0   8    7.50    2.76
  -5   0   8    4.22    2.07
  -5   0   9    0.19    1.15
  -5   0   9    0.83    1.49
  -5   0   9    0.49    1.11
  -5   0   9    1.40    2.04
  -5   0   9   -0.56    1.52
  -5   0  10    3.07    1.61
  -5   0  10    2.11    2.18
  -5   0  10    2.62    1.70
  -5   0  10    8.36    1.77
  -5   0  10    6.18    2.38
  -5   0  11   13.09    2.20
  -5   0  11   15.88    2.51
  -5   0  11    9.53    2.60
  -5   0  11   20.12    2.46
  -5   0  12    5.25    1.95
  -5   0  12    6.78    1.78
  -5   1  -7    7.79    1.76
  -5   1  -6    0.33    1.38
  -5   1  -6    1.00    1.43
  -5   1  -5   -0.40    1.67
  -5   1  -5    1.33    1.66
  -5   1  -4    5.10    2.05
  -5   1  -4    3.36    1.82
  -5   1  -3  210.62   11.63
  -5   1  -3  194.02   11.21
  -5   1  -3  221.55   11.91
  -5   1  -3  211.90   11.83
  -5   1  -2    9.53    2.00
  -5   1  -2    8.46    2.08
  -5   1  -2    9.79    2.27
  -5   1  -2    7.24    1.46
  -5   1  -2    7.82    1.97
  -5   1  -2    9.66    1.91
  -5   1  -2   10.66    2.15
  -5   1  -2   11.01    2.07
  -5   1  -1  150.93    8.58
  -5   1  -1  144.50    8.46
  -5   1  -1  143.11    8.65
  -5   1  -1  149.35    8.21
  -5   1  -1  163.54    8.79
  -5   1  -1  143.68    8.54
  -5   1  -1  133.60    8.58
  -5   1   0  108.01    6.89
  -5   1   0  109.33    6.49
  -5   1   0  117.95    6.89
  -5   1   0  108.36    6.79
  -5   1   0  110.34    6.83
  -5   1   0  106.97    6.71
  -5   1   0  100.99    6.63
  -5   1   1  603.45   28.99
  -5   1   1  594.13   28.79
  -5   1   1  592.27   28.77
  -5   1   1  594.62   28.97
  -5   1   1  604.23   29.10
  -5   1   1  608.75   28.77
  -5   1   1  610.66   29.10
  -5   1   2   22.57    2.32
  -5   1   2   23.99    2.78
  -5   1   2   26.73    2.82
  -5   1   2   28.38    2.72
  -5   1   2   25.00    2.80
  -5   1   2   29.48    2.66
  -5   1   2   24.47    2.60
  -5   1   3  212.23   11.41
  -5   1   3  224.09   11.64
  -5   1   3  209.76   11.15
  -5   1   3  213.09   11.52
  -5   1   3  206.62   11.29
  -5   1   3  218.49   11.66
  -5   1   3  213.58   11.12
  -5   1   3  224.68   11.36
  -5   1   3  219.50   11.47
  -5   1   4   34.55    3.04
  -5   1   4   31.54    2.89
  -5   1   4   29.12    3.18
  -5   1   4   35.19    3.19
  -5   1   4   23.43    2.51
  -5   1   4   30.13    2.47
  -5   1   4   31.32    2.67
  -5   1   5   10.65    1.62
  -5   1   5   10.55    1.89
  -5   1   5   11.23    1.76
  -5   1   5    9.43    2.32
  -5   1   5   12.79    2.15
  -5   1   5   11.66    2.03
  -5   1   5   11.66    1.62
  -5   1   5   10.74    1.94
  -5   1   6   69.28    4.25
  -5   1   6   53.60    4.15
  -5   1   6   61.03    4.61
  -5   1   6   62.31    5.25
  -5   1   6   58.33    4.64
  -5   1   6   67.70    4.73
  -5   1   6   64.34    4.40
  -5   1   7   12.49    2.38
  -5   1   7   10.58    1.74
  -5   1   7   11.66    2.86
  -5   1   7   11.63    2.02
  -5   1   7   10.56    1.99
  -5   1   7    9.93    2.03
  -5   1   8   64.79    4.43
  -5   1   8   44.53    3.96
  -5   1   8   56.24    4.48
  -5   1   8   58.60    4.37
  -5   1   8   52.88    4.76
  -5   1   8   49.67    5.22
  -5   1   9    3.55    1.68
  -5   1   9    3.95    2.21
  -5   1   9    5.87    1.57
  -5   1   9    3.75    1.41
  -5   1   9    5.33    1.86
  -5   1  10   33.79    3.31
  -5   1  10   28.78    2.95
  -5   1  10   22.23    2.94
  -5   1  10   35.58    3.70
  -5   1  10   25.66    2.56
  -5   1  10   20.75    3.58
  -5   1  11   12.21    2.01
  -5   1  11   10.67    1.97
  -5   1  11   12.11    2.36
  -5   1  11    9.39    2.55
  -5   1  12   -0.57    1.28
  -5   1  12   -0.63    1.49
  -5   2  -8    3.17    1.22
  -5   2  -7   38.41    3.60
  -5   2  -6   -0.19    1.58
  -5   2  -6   -0.18    1.46
  -5   2  -6    1.32    1.76
  -5   2  -5    2.07    1.74
  -5   2  -5    1.42    1.83
  -5   2  -5    1.23    1.84
  -5   2  -4  122.15    7.92
  -5   2  -4  130.12    8.00
  -5   2  -4  136.18    8.49
  -5   2  -4  132.34    8.25
  -5   2  -3    4.56    1.82
  -5   2  -3    1.93    1.46
  -5   2  -3    0.91    1.24
  -5   2  -3    2.08    1.66
  -5   2  -3    2.07    1.85
  -5   2  -3    2.11    1.63
  -5   2  -3    2.18    1.72
  -5   2  -2   94.92    5.84
  -5   2  -2   88.36    6.08
  -5   2  -2   87.80    5.58
  -5   2  -2   98.25    5.87
  -5   2  -2   85.12    5.75
  -5   2  -2   77.33    5.89
  -5   2  -2   84.87    5.83
  -5   2  -2   87.23    5.95
  -5   2  -1   75.57    5.61
  -5   2  -1   80.75    5.48
  -5   2  -1   77.66    5.59
  -5   2  -1   74.22    5.30
  -5   2  -1   87.44    5.43
  -5   2  -1   83.11    5.53
  -5   2  -1   80.21    5.04
  -5   2  -1   89.37    5.47
  -5   2  -1   81.99    5.54
  -5   2   0  426.93   21.25
  -5   2   0  413.60   21.28
  -5   2   0  427.30   21.36
  -5   2   0  442.43   21.23
  -5   2   0  412.54   21.00
  -5   2   0  431.32   21.28
  -5   2   0  434.27   21.27
  -5   2   0  434.03   20.90
  -5   2   1  121.85    6.96
  -5   2   1  118.27    7.02
  -5   2   1  108.62    6.59
  -5   2   1  110.96    6.65
  -5   2   1  116.15    6.98
  -5   2   1  104.61    6.76
  -5   2   1  119.40    6.75
  -5   2   2    1.93    1.58
  -5   2   2    4.05    1.32
  -5   2   2    3.41    1.63
  -5   2   2    2.69    1.11
  -5   2   2    2.56    1.38
  -5   2   2    2.09    1.50
  -5   2   2    4.51    1.59
  -5   2   2    2.26    1.49
  -5   2   3   21.58    2.11
  -5   2   3   21.78    2.24
  -5   2   3   20.72    2.43
  -5   2   3   21.10    2.43
  -5   2   3   20.60    2.46
  -5   2   3   20.71    2.36
  -5   2   3   24.38    2.65
  -5   2   3   23.49    2.66
  -5   2   4  540.28   26.19
  -5   2   4  535.13   26.15
  -5   2   4  525.23   25.57
  -5   2   4  537.24   25.85
  -5   2   4  551.33   25.74
  -5   2   4  520.34   25.95
  -5   2   4  524.33   26.01
  -5   2   4  541.17   25.54
  -5   2   5   17.16    1.88
  -5   2   5   15.26    2.69
  -5   2   5   13.77    2.38
  -5   2   5   15.48    2.22
  -5   2   5   11.10    1.79
  -5   2   5   12.31    2.03
  -5   2   5   15.06    1.86
  -5   2   5   20.13    2.44
  -5   2   5   13.47    1.53
  -5   2   6    6.40    1.72
  -5   2   6    5.20    1.48
  -5   2   6    4.97    1.58
  -5   2   6    4.15    1.74
  -5   2   6    3.74    1.74
  -5   2   6    6.13    2.32
  -5   2   6    6.56    1.31
  -5   2   7   16.67    2.70
  -5   2   7   21.49    2.67
  -5   2   7   21.47    2.69
  -5   2   7   23.25    2.38
  -5   2   7   22.01    2.57
  -5   2   7   15.47    3.16
  -5   2   8    9.05    1.96
  -5   2   8    5.44    2.76
  -5   2   8    6.89    1.85
  -5   2   8    5.98    2.14
  -5   2   8    7.34    1.79
  -5   2   8    9.22    1.80
  -5   2   9   -0.23    1.78
  -5   2   9    0.80    1.38
  -5   2   9    0.52    1.32
  -5   2   9   -0.56    1.12
  -5   2   9   -0.91    1.62
  -5   2  10   12.09    2.06
  -5   2  10   11.09    1.73
  -5   2  10    7.89    2.27
  -5   2  10    9.75    2.73
  -5   2  10    7.41    1.85
  -5   2  11    2.06    1.31
  -5   2  11   -0.20    1.84
  -5   2  11    0.36    1.62
  -5   2  12   -0.38    1.12
  -5   3  -8    2.20    1.40
  -5   3  -7   23.03    2.85
  -5   3  -7   18.11    2.61
  -5   3  -6    5.38    2.04
  -5   3  -6    2.94    2.06
  -5   3  -6    5.76    1.93
  -5   3  -5   29.07    3.05
  -5   3  -5   33.32    3.77
  -5   3  -5   30.00    3.40
  -5   3  -4  430.73   20.01
  -5   3  -4  361.31   19.27
  -5   3  -4  383.05   19.92
  -5   3  -4  393.01   19.72
  -5   3  -4  373.24   19.86
  -5   3  -3  189.04   11.17
  -5   3  -3  197.78   11.34
  -5   3  -3  186.15   11.05
  -5   3  -3  211.02   10.97
  -5   3  -3  200.62   11.11
  -5   3  -3  203.16   10.98
  -5   3  -3  208.95   11.18
  -5   3  -3  180.97   10.85
  -5   3  -2   84.83    5.41
  -5   3  -2   76.65    5.60
  -5   3  -2   72.94    5.21
  -5   3  -2   84.11    5.68
  -5   3  -2   83.35    5.63
  -5   3  -2   78.60    5.58
  -5   3  -2   76.56    5.45
  -5   3  -1  116.03    6.99
  -5   3  -1  113.25    6.26
  -5   3  -1  113.36    6.97
  -5   3  -1  103.85    6.51
  -5   3  -1  110.34    6.63
  -5   3  -1  110.59    6.84
  -5   3  -1  102.12    6.81
  -5   3  -1  101.10    6.57
  -5   3  -1  117.72    6.94
  -5   3  -1   99.39    6.64
  -5   3   0  289.04   14.61
  -5   3   0  267.38   14.36
  -5   3   0  293.13   14.70
  -5   3   0  287.92   14.79
  -5   3   0  279.10   14.17
  -5   3   0  276.02   14.61
  -5   3   0  277.65   14.70
  -5   3   1    5.39    1.60
  -5   3   1    7.00    1.47
  -5   3   1    8.86    1.82
  -5   3   1    6.44    1.45
  -5   3   1    9.61    1.95
  -5   3   1    6.76    1.48
  -5   3   1    7.48    1.81
  -5   3   1    9.01    1.88
  -5   3   2   95.73    5.95
  -5   3   2   91.38    6.05
  -5   3   2   86.90    5.90
  -5   3   2   93.52    5.69
  -5   3   2   95.03    5.78
  -5   3   2   87.26    5.74
  -5   3   2   99.83    6.04
  -5   3   2  100.18    6.14
  -5   3   2   89.83    5.46
  -5   3   3  126.10    7.64
  -5   3   3  122.72    7.29
  -5   3   3  129.96    7.87
  -5   3   3  133.31    7.70
  -5   3   3  131.01    7.68
  -5   3   3  145.09    7.56
  -5   3   3  142.59    7.76
  -5   3   4   92.35    6.32
  -5   3   4   99.84    6.15
  -5   3   4   99.77    6.08
  -5   3   4  106.12    6.61
  -5   3   4   97.95    6.46
  -5   3   4   99.68    6.33
  -5   3   4  103.05    5.88
  -5   3   5    5.11    1.08
  -5   3   5    3.74    2.08
  -5   3   5    3.68    1.55
  -5   3   5    5.15    1.42
  -5   3   5    4.19    1.72
  -5   3   5    5.03    1.87
  -5   3   5    3.27    1.25
  -5   3   6    0.38    1.66
  -5   3   6   -0.71    2.09
  -5   3   6    1.65    1.14
  -5   3   6    2.32    1.00
  -5   3   6    2.61    1.54
  -5   3   6    1.45    1.57
  -5   3   6    1.31    1.50
  -5   3   7   44.94    5.02
  -5   3   7   59.10    4.56
  -5   3   7   47.46    4.43
  -5   3   7   54.07    4.48
  -5   3   7   61.70    4.39
  -5   3   7   63.71    4.30
  -5   3   8   -0.66    1.77
  -5   3   8    2.72    1.53
  -5   3   8    0.18    1.09
  -5   3   8    2.84    1.63
  -5   3   8   -0.39    1.33
  -5   3   8    1.36    2.61
  -5   3   9   -0.88    1.25
  -5   3   9    0.36    1.14
  -5   3   9    2.41    1.93
  -5   3   9    1.53    1.39
  -5   3  10   -0.79    1.69
  -5   3  10    0.83    1.03
  -5   3  10    2.09    1.42
  -5   3  10   -1.18    1.97
  -5   3  11    1.43    1.50
  -5   3  11    1.11    1.83
  -5   4  -8    0.77    1.33
  -5   4  -7    4.92    1.88
  -5   4  -6   22.53    3.10
  -5   4  -6   19.09    2.73
  -5   4  -5    6.42    2.16
  -5   4  -5   10.89    2.51
  -5   4  -5    7.44    1.98
  -5   4  -5   10.37    2.01
  -5   4  -5   14.84    2.80
  -5   4  -4   13.13    2.17
  -5   4  -4   12.24    1.99
  -5   4  -4   12.04    2.24
  -5   4  -4   11.56    2.53
  -5   4  -4   11.16    2.15
  -5   4  -4   11.08    2.72
  -5   4  -4   15.31    2.74
  -5   4  -3   24.59    2.87
  -5   4  -3   16.71    2.47
  -5   4  -3   20.14    2.82
  -5   4  -3   13.10    2.69
  -5   4  -3   19.79    2.34
  -5   4  -3   14.30    2.36
  -5   4  -3   15.24    2.74
  -5   4  -2  479.72   24.56
  -5   4  -2  483.02   24.55
  -5   4  -2  519.87   24.50
  -5   4  -2  498.59   24.68
  -5   4  -2  482.44   24.17
  -5   4  -2  515.53   24.88
  -5   4  -2  503.52   24.59
  -5   4  -1   14.59    2.11
  -5   4  -1   14.60    2.13
  -5   4  -1   14.26    2.02
  -5   4  -1   14.34    2.36
  -5   4  -1   15.17    2.48
  -5   4  -1   15.95    2.28
  -5   4  -1   13.09    2.32
  -5   4  -1   15.40    2.49
  -5   4  -1   15.25    2.36
  -5   4   0   55.00    4.42
  -5   4   0   57.43    4.30
  -5   4   0   53.72    4.29
  -5   4   0   49.65    4.22
  -5   4   0   57.16    3.88
  -5   4   0   53.01    4.24
  -5   4   0   57.13    4.10
  -5   4   1  160.32    9.43
  -5   4   1  170.93    9.66
  -5   4   1  174.82    9.58
  -5   4   1  164.67    9.09
  -5   4   1  163.43    9.35
  -5   4   1  158.50    9.17
  -5   4   1  164.71    9.09
  -5   4   1  183.89    9.61
  -5   4   1  170.25    9.51
  -5   4   2  489.99   23.65
  -5   4   2  475.59   23.63
  -5   4   2  497.68   24.14
  -5   4   2  491.34   24.08
  -5   4   2  482.70   23.87
  -5   4   2  464.97   23.30
  -5   4   2  497.98   23.94
  -5   4   2  486.47   23.92
  -5   4   2  499.35   23.75
  -5   4   3  115.34    6.91
  -5   4   3  107.30    6.73
  -5   4   3  109.53    6.80
  -5   4   3  116.47    6.58
  -5   4   3  112.03    6.82
  -5   4   3  106.09    7.00
  -5   4   3  107.60    6.40
  -5   4   3  112.13    7.05
  -5   4   4   15.83    2.73
  -5   4   4   14.67    2.43
  -5   4   4   15.14    1.89
  -5   4   4   16.50    2.37
  -5   4   4   16.58    2.25
  -5   4   4   15.21    2.10
  -5   4   4   18.59    2.61
  -5   4   5   64.11    5.21
  -5   4   5   60.46    4.74
  -5   4   5   70.86    4.15
  -5   4   5   54.69    4.18
  -5   4   5   55.04    4.39
  -5   4   5   64.80    4.33
  -5   4   5   62.88    4.96
  -5   4   6   89.68    6.08
  -5   4   6   88.27    6.81
  -5   4   6   91.21    5.84
  -5   4   6   92.20    5.73
  -5   4   6  102.78    6.62
  -5   4   6   93.44    6.26
  -5   4   6  100.36    6.49
  -5   4   7    6.39    1.51
  -5   4   7    4.76    2.66
  -5   4   7    4.92    1.58
  -5   4   7    4.92    1.94
  -5   4   7    2.03    1.75
  -5   4   7    3.64    1.44
  -5   4   7    5.66    1.96
  -5   4   8    1.28    1.92
  -5   4   8    0.39    1.39
  -5   4   8    2.95    2.51
  -5   4   8    0.74    1.50
  -5   4   8    1.10    1.31
  -5   4   8    0.87    1.15
  -5   4   9    3.54    1.43
  -5   4   9    1.63    1.66
  -5   4   9    4.62    1.53
  -5   4   9    3.13    1.49
  -5   4  10    1.59    1.59
  -5   4  10    0.13    0.95
  -5   4  10    1.93    2.10
  -5   4  10    0.77    1.15
  -5   4  11    0.16    1.53
  -5   4  11    0.66    1.15
  -5   5  -8   -0.61    1.29
  -5   5  -7    4.88    1.50
  -5   5  -7    6.94    1.96
  -5   5  -7    6.43    2.12
  -5   5  -6   29.99    3.33
  -5   5  -6   31.61    3.21
  -5   5  -6   32.96    3.65
  -5   5  -6   32.19    3.73
  -5   5  -5    2.18    1.38
  -5   5  -5    3.64    2.33
  -5   5  -5    4.09    2.04
  -5   5  -5    4.68    1.77
  -5   5  -5    2.15    1.92
  -5   5  -4   13.03    2.27
  -5   5  -4   12.18    2.50
  -5   5  -4   13.04    2.35
  -5   5  -4   12.80    2.81
  -5   5  -4   12.80    2.54
  -5   5  -4    9.02    2.03
  -5   5  -4   11.51    1.94
  -5   5  -3   11.77    2.28
  -5   5  -3   17.44    2.28
  -5   5  -3   16.77    2.73
  -5   5  -3   18.26    2.56
  -5   5  -3   14.79    2.61
  -5   5  -3   19.73    2.69
  -5   5  -2  135.80    9.04
  -5   5  -2  164.76    9.34
  -5   5  -2  157.79    8.74
  -5   5  -2  153.69    9.20
  -5   5  -2  161.67    9.29
  -5   5  -2  163.67    9.12
  -5   5  -2  162.76    9.36
  -5   5  -1  149.27    8.48
  -5   5  -1  140.23    8.60
  -5   5  -1  146.55    8.65
  -5   5  -1  150.06    8.66
  -5   5  -1  145.53    8.71
  -5   5  -1  138.71    8.57
  -5   5  -1  143.26    8.42
  -5   5  -1  138.39    8.26
  -5   5   0   60.12    4.40
  -5   5   0   56.80    4.08
  -5   5   0   46.12    4.25
  -5   5   0   54.35    4.35
  -5   5   0   50.05    4.12
  -5   5   0   54.03    3.76
  -5   5   1  161.53    9.31
  -5   5   1  154.21    9.08
  -5   5   1  160.34    9.09
  -5   5   1  151.63    8.88
  -5   5   1  155.75    8.64
  -5   5   1  154.45    8.60
  -5   5   1  153.77    9.08
  -5   5   1  156.47    8.88
  -5   5   1  150.85    8.88
  -5   5   2  129.58    7.49
  -5   5   2  120.26    7.29
  -5   5   2  130.17    7.45
  -5   5   2  125.18    7.35
  -5   5   2  127.10    7.64
  -5   5   2  121.83    7.59
  -5   5   2  130.75    7.84
  -5   5   2  116.08    6.90
  -5   5   3    3.82    1.61
  -5   5   3    2.06    1.37
  -5   5   3    2.52    1.21
  -5   5   3    3.16    1.58
  -5   5   3    2.83    1.98
  -5   5   3    1.81    1.84
  -5   5   3    2.71    1.12
  -5   5   3    6.20    1.99
  -5   5   4   32.34    3.64
  -5   5   4   42.98    3.49
  -5   5   4   36.22    3.28
  -5   5   4   41.53    3.19
  -5   5   4   40.40    3.63
  -5   5   4   34.71    3.77
  -5   5   5  114.60    7.57
  -5   5   5  116.50    7.01
  -5   5   5  115.90    7.84
  -5   5   5  112.11    7.88
  -5   5   5  124.05    7.17
  -5   5   5  137.52    7.89
  -5   5   5  124.87    6.90
  -5   5   6    0.51    2.10
  -5   5   6    1.31    1.96
  -5   5   6   -0.19    1.60
  -5   5   6    0.93    1.56
  -5   5   7    1.66    1.42
  -5   5   7   -0.20    1.66
  -5   5   7    0.17    1.12
  -5   5   7    0.21    1.42
  -5   5   7   -2.12    2.33
  -5   5   7   -0.21    1.70
  -5   5   8    5.71    2.53
  -5   5   8   10.59    2.27
  -5   5   8    8.51    1.78
  -5   5   8    5.72    1.90
  -5   5   8   12.98    2.14
  -5   5   9   19.08    2.31
  -5   5   9   19.83    2.29
  -5   5   9   13.46    2.44
  -5   5   9   11.28    1.94
  -5   5  10    3.82    1.48
  -5   5  10    5.03    1.99
  -5   6  -8    2.20    1.26
  -5   6  -7    0.54    1.44
  -5   6  -7    3.25    1.42
  -5   6  -6   45.96    4.16
  -5   6  -6   55.82    4.34
  -5   6  -6   55.27    4.51
  -5   6  -5    0.33    1.28
  -5   6  -5    2.17    1.11
  -5   6  -5    1.51    1.77
  -5   6  -5    2.44    1.91
  -5   6  -5    2.45    1.63
  -5   6  -4    1.59    1.06
  -5   6  -4    0.22    1.67
  -5   6  -4    1.86    1.52
  -5   6  -4    3.59    1.74
  -5   6  -4    2.48    1.99
  -5   6  -4    0.58    1.38
  -5   6  -3   60.68    4.76
  -5   6  -3   54.83    4.97
  -5   6  -3   70.22    5.00
  -5   6  -3   68.51    5.01
  -5   6  -3   61.00    4.81
  -5   6  -3   64.90    4.67
  -5   6  -3   49.87    4.45
  -5   6  -2   12.11    2.15
  -5   6  -2   14.28    2.14
  -5   6  -2   16.02    2.43
  -5   6  -2    9.44    2.38
  -5   6  -2   12.04    2.34
  -5   6  -2   10.44    2.33
  -5   6  -2   12.47    2.30
  -5   6  -1  113.77    7.11
  -5   6  -1  109.61    7.25
  -5   6  -1  120.36    7.17
  -5   6  -1  120.89    7.03
  -5   6  -1  110.29    7.33
  -5   6  -1  115.68    7.43
  -5   6  -1   99.04    7.11
  -5   6  -1  112.09    7.08
  -5   6   0    1.02    1.38
  -5   6   0    0.42    1.71
  -5   6   0    0.39    1.76
  -5   6   0    1.67    1.30
  -5   6   0   -0.72    1.45
  -5   6   0    0.27    0.98
  -5   6   1  102.05    6.33
  -5   6   1  105.23    6.91
  -5   6   1  102.67    6.64
  -5   6   1  102.78    6.36
  -5   6   1  100.85    6.71
  -5   6   1  109.07    7.13
  -5   6   1  110.90    6.57
  -5   6   1  104.52    6.84
  -5   6   1  111.56    7.05
  -5   6   2   27.31    2.46
  -5   6   2   29.61    3.19
  -5   6   2   26.74    2.89
  -5   6   2   28.57    2.87
  -5   6   2   26.70    3.17
  -5   6   2   25.11    2.97
  -5   6   2   31.47    3.41
  -5   6   2   30.71    2.97
  -5   6   3   98.43    6.71
  -5   6   3  106.91    7.25
  -5   6   3  104.60    6.49
  -5   6   3   99.70    6.22
  -5   6   3  103.26    6.67
  -5   6   3  101.19    6.88
  -5   6   3  107.77    7.22
  -5   6   3  117.17    6.98
  -5   6   4   33.75    3.77
  -5   6   4   38.82    3.64
  -5   6   4   34.59    3.81
  -5   6   4   33.19    2.92
  -5   6   4   27.09    3.05
  -5   6   4   36.47    3.39
  -5   6   5    2.11    1.27
  -5   6   5    3.51    2.27
  -5   6   5    1.98    2.46
  -5   6   5    1.31    1.36
  -5   6   5    2.35    1.79
  -5   6   5    2.67    1.07
  -5   6   5    2.36    1.71
  -5   6   6   -0.78    2.23
  -5   6   6   -0.39    1.65
  -5   6   6   -0.54    1.46
  -5   6   6    2.50    1.98
  -5   6   7    3.36    2.42
  -5   6   7    3.35    1.70
  -5   6   7    3.25    1.62
  -5   6   7    1.49    1.43
  -5   6   7    3.95    2.01
  -5   6   8    2.10    1.56
  -5   6   8    3.41    1.54
  -5   6   8    1.93    2.16
  -5   6   8    1.05    1.49
  -5   6   9    5.50    1.59
  -5   6   9    8.50    1.58
  -5   6   9    3.83    1.31
  -5   7  -7    0.28    1.06
  -5   7  -7    0.53    1.13
  -5   7  -7   -0.77    1.28
  -5   7  -6    1.46    1.54
  -5   7  -6   -0.18    1.32
  -5   7  -6   -1.64    1.48
  -5   7  -5   33.33    3.13
  -5   7  -5   38.66    3.15
  -5   7  -5   31.74    3.13
  -5   7  -5   42.19    3.72
  -5   7  -5   35.02    3.57
  -5   7  -5   36.59    3.75
  -5   7  -4    0.59    1.54
  -5   7  -4   -0.46    1.83
  -5   7  -4    0.71    1.20
  -5   7  -4    0.76    1.37
  -5   7  -4    0.95    1.46
  -5   7  -3   70.42    5.13
  -5   7  -3   51.88    4.57
  -5   7  -3   72.85    4.98
  -5   7  -3   67.36    5.09
  -5   7  -3   64.41    4.84
  -5   7  -3   60.89    5.03
  -5   7  -2   11.74    2.11
  -5   7  -2   12.84    2.21
  -5   7  -2   15.28    2.83
  -5   7  -2   17.12    2.70
  -5   7  -2   14.00    2.48
  -5   7  -2   15.00    2.64
  -5   7  -2   14.76    2.39
  -5   7  -1  137.58    8.64
  -5   7  -1  129.76    8.45
  -5   7  -1  138.03    8.72
  -5   7  -1  139.42    8.34
  -5   7  -1  140.52    8.03
  -5   7  -1  147.50    8.46
  -5   7  -1  128.23    7.95
  -5   7  -1  133.49    8.49
  -5   7   0   33.05    3.28
  -5   7   0   29.97    2.99
  -5   7   0   30.52    3.49
  -5   7   0   32.30    3.54
  -5   7   1    5.99    1.53
  -5   7   1    4.18    2.07
  -5   7   1    5.24    2.05
  -5   7   1    6.06    1.52
  -5   7   1    8.50    2.06
  -5   7   1    7.43    2.05
  -5   7   1    5.60    2.38
  -5   7   1    8.27    1.92
  -5   7   2   23.21    2.96
  -5   7   2   26.17    2.86
  -5   7   2   25.28    3.15
  -5   7   2   29.11    2.94
  -5   7   2   27.17    2.92
  -5   7   2   23.30    3.27
  -5   7   2   25.98    3.23
  -5   7   3   57.17    4.39
  -5   7   3   57.03    4.74
  -5   7   3   56.98    5.03
  -5   7   3   56.47    4.56
  -5   7   3   59.53    5.15
  -5   7   3   61.48    4.69
  -5   7   3   51.73    4.74
  -5   7   4    1.61    1.10
  -5   7   4    1.77    1.55
  -5   7   4    0.64    1.47
  -5   7   4   -0.24    2.14
  -5   7   4    0.24    1.83
  -5   7   4    2.68    1.62
  -5   7   5    6.01    1.60
  -5   7   5    6.71    1.99
  -5   7   5   11.26    2.66
  -5   7   5    7.73    2.20
  -5   7   5    7.31    2.52
  -5   7   6   38.24    4.01
  -5   7   6   35.27    3.70
  -5   7   6   46.03    3.93
  -5   7   6   36.43    4.34
  -5   7   7    3.71    1.76
  -5   7   7    3.60    2.29
  -5   7   7    5.46    1.73
  -5   7   8    1.10    1.22
  -5   7   8    0.54    1.18
  -5   7   8   -0.63    1.80
  -5   7   8    1.84    1.47
  -5   8  -7    0.90    1.02
  -5   8  -6   -0.85    1.44
  -5   8  -6    1.42    1.24
  -5   8  -6    0.50    1.22
  -5   8  -5  143.54    8.14
  -5   8  -5  114.14    7.34
  -5   8  -5  129.12    7.56
  -5   8  -5  141.70    8.21
  -5   8  -4  184.85   10.39
  -5   8  -4  185.27   10.68
  -5   8  -4  181.88   10.42
  -5   8  -4  189.08   10.33
  -5   8  -4  187.58   10.93
  -5   8  -3   -0.35    1.42
  -5   8  -3    0.57    1.19
  -5   8  -3    1.89    1.76
  -5   8  -3    0.21    1.44
  -5   8  -3    0.82    1.63
  -5   8  -2   29.24    3.56
  -5   8  -2   24.22    3.13
  -5   8  -2   25.77    3.13
  -5   8  -2   32.56    3.20
  -5   8  -2   29.08    3.34
  -5   8  -2   30.85    3.64
  -5   8  -1  113.46    7.00
  -5   8  -1   99.41    6.99
  -5   8  -1  101.66    7.22
  -5   8  -1  112.14    7.44
  -5   8  -1  119.38    7.17
  -5   8  -1  102.59    7.16
  -5   8  -1   98.03    6.47
  -5   8   0   23.61    3.33
  -5   8   0   28.59    3.41
  -5   8   0   31.52    3.29
  -5   8   0   27.04    2.85
  -5   8   0   29.36    3.12
  -5   8   1    2.06    1.80
  -5   8   1    0.92    1.11
  -5   8   1    3.53    1.65
  -5   8   1    3.25    1.99
  -5   8   1    0.48    1.15
  -5   8   1    1.27    1.81
  -5   8   1    0.49    2.20
  -5   8   1   -0.41    1.75
  -5   8   2  113.33    7.27
  -5   8   2  126.96    7.90
  -5   8   2  106.29    7.43
  -5   8   2  123.80    7.93
  -5   8   2  127.60    7.61
  -5   8   2  117.04    7.71
  -5   8   2  123.67    7.39
  -5   8   3  118.76    7.34
  -5   8   3   97.90    7.39
  -5   8   3  113.30    7.10
  -5   8   3  109.90    6.88
  -5   8   3   96.66    7.15
  -5   8   3  108.66    7.07
  -5   8   3  117.76    7.65
  -5   8   4    1.68    2.24
  -5   8   4    1.67    2.15
  -5   8   4   -0.34    1.26
  -5   8   4    2.60    2.16
  -5   8   4    1.86    1.57
  -5   8   4    1.12    1.11
  -5   8   4    0.19    1.57
  -5   8   5    3.44    1.64
  -5   8   5    2.86    1.40
  -5   8   5    0.64    1.75
  -5   8   5    1.68    2.13
  -5   8   6   13.00    2.51
  -5   8   6    8.75    2.07
  -5   8   6   16.22    2.35
  -5   8   6    8.95    2.55
  -5   8   7   -0.20    1.89
  -5   8   7   -0.50    1.32
  -5   8   8    0.33    1.57
  -5   9  -6    3.23    1.42
  -5   9  -6    6.02    1.51
  -5   9  -5    2.78    1.24
  -5   9  -5    4.97    1.90
  -5   9  -4    2.45    1.53
  -5   9  -4    3.00    1.23
  -5   9  -4    4.24    1.67
  -5   9  -4    5.01    1.97
  -5   9  -4    3.92    1.50
  -5   9  -3    0.40    1.43
  -5   9  -3    0.18    1.15
  -5   9  -3    0.81    1.64
  -5   9  -3    0.58    1.51
  -5   9  -2   37.47    3.62
  -5   9  -2   43.17    3.92
  -5   9  -2   38.64    3.97
  -5   9  -2   30.93    3.48
  -5   9  -2   44.61    3.72
  -5   9  -2   38.35    3.85
  -5   9  -1   56.58    4.76
  -5   9  -1   50.55    4.64
  -5   9  -1   55.13    4.74
  -5   9  -1   56.91    4.50
  -5   9  -1   50.89    4.24
  -5   9  -1   50.35    4.50
  -5   9   0   56.29    4.78
  -5   9   0   56.26    4.15
  -5   9   0   54.00    4.60
  -5   9   0   49.70    4.58
  -5   9   0   47.72    4.11
  -5   9   0   53.34    4.37
  -5   9   1    3.83    2.16
  -5   9   1    3.70    1.79
  -5   9   1    2.82    1.74
  -5   9   1    2.51    1.78
  -5   9   1    2.87    1.49
  -5   9   1    3.83    2.09
  -5   9   2    1.80    1.46
  -5   9   2    4.32    1.56
  -5   9   2    2.64    1.88
  -5   9   2    4.24    1.49
  -5   9   2    4.31    2.10
  -5   9   2    4.39    1.97
  -5   9   3    0.37    1.41
  -5   9   3   -0.23    2.02
  -5   9   3   -0.22    1.91
  -5   9   3   -1.26    1.92
  -5   9   3   -0.17    1.11
  -5   9   3   -0.40    1.55
  -5   9   3    0.36    1.35
  -5   9   4   10.11    2.49
  -5   9   4   11.86    2.50
  -5   9   4   13.09    2.58
  -5   9   4    9.68    1.99
  -5   9   4   13.56    2.15
  -5   9   4   11.90    1.76
  -5   9   4   14.06    2.00
  -5   9   5   13.45    2.65
  -5   9   5   18.23    2.54
  -5   9   5   19.43    2.40
  -5   9   5   15.13    1.98
  -5   9   6    0.45    1.16
  -5   9   6    2.15    1.48
  -5   9   6    1.30    1.82
  -5  10  -5    5.08    1.65
  -5  10  -4   36.38    3.27
  -5  10  -4   34.55    3.12
  -5  10  -4   39.36    3.56
  -5  10  -4   31.60    2.93
  -5  10  -3   29.96    3.05
  -5  10  -3   32.92    3.22
  -5  10  -3   29.84    3.34
  -5  10  -3   32.68    3.12
  -5  10  -3   31.16    2.90
  -5  10  -2   22.16    3.02
  -5  10  -2   22.06    2.55
  -5  10  -2   25.72    2.92
  -5  10  -2   14.40    2.27
  -5  10  -2   16.94    2.63
  -5  10  -2   20.38    2.43
  -5  10  -1    7.77    2.07
  -5  10  -1    8.94    2.27
  -5  10  -1   11.75    1.94
  -5  10  -1    8.76    1.83
  -5  10  -1    7.47    2.01
  -5  10   0   30.27    2.70
  -5  10   0   27.07    2.88
  -5  10   0   25.72    3.14
  -5  10   0   20.65    2.50
  -5  10   0   28.56    3.10
  -5  10   0   23.35    3.02
  -5  10   1   17.22    2.53
  -5  10   1   23.30    2.65
  -5  10   1   19.25    2.74
  -5  10   1   20.26    2.99
  -5  10   1   22.31    2.68
  -5  10   1   26.81    3.07
  -5  10   2   -0.36    1.46
  -5  10   2    0.17    1.11
  -5  10   2    0.18    1.61
  -5  10   2    2.97    1.89
  -5  10   2    2.50    1.69
  -5  10   3   15.26    2.43
  -5  10   3   18.14    2.70
  -5  10   3   22.04    2.33
  -5  10   3   20.11    2.68
  -5  10   3   20.53    2.52
  -5  10   3   19.06    2.31
  -5  10   4    3.06    1.21
  -5  10   4    1.35    1.63
  -5  10   4    1.54    1.48
  -5  10   4    2.64    1.62
  -5  10   4    0.41    1.10
  -5  10   5    0.61    1.48
  -5  10   5    0.59    1.32
  -5  11  -4    7.32    1.44
  -5  11  -3    6.45    1.46
  -5  11  -3    6.62    1.74
  -5  11  -3    4.90    1.46
  -5  11  -3    5.86    1.45
  -5  11  -2    3.13    1.63
  -5  11  -2    6.03    1.67
  -5  11  -2    4.12    1.51
  -5  11  -2    5.04    1.31
  -5  11  -1   18.04    2.04
  -5  11  -1   24.99    2.69
  -5  11  -1   26.61    2.75
  -5  11   0   46.08    3.69
  -5  11   0   37.67    3.38
  -5  11   1   -0.63    1.12
  -5  11   1    0.16    1.33
  -5  11   1    1.47    1.48
  -5  11   2   -0.14    1.20
  -5  11   2   -0.67    1.23
  -5  11   2   -0.15    1.19
  -5  11   3   11.07    1.77
  -5  11   3   14.07    1.84
  -4 -10   2   11.19    1.97
  -4 -10   2   10.40    1.71
  -4 -10   3    7.72    1.89
  -4 -10   3    9.84    1.61
  -4 -10   4    0.12    1.10
  -4 -10   4    2.07    1.39
  -4 -10   4    0.59    1.38
  -4 -10   5    0.28    1.34
  -4 -10   5    1.62    1.25
  -4 -10   5    2.97    1.16
  -4 -10   6   11.02    1.81
  -4 -10   6   16.78    2.06
  -4 -10   6   12.53    1.78
  -4 -10   6   14.86    2.33
  -4 -10   7   73.54    4.71
  -4 -10   7   71.57    4.56
  -4 -10   8   18.53    2.29
  -4  -9  -1    0.28    1.40
  -4  -9   0    7.69    1.83
  -4  -9   0   13.29    2.01
  -4  -9   1   -0.49    1.39
  -4  -9   1    0.93    1.72
  -4  -9   1    0.35    1.62
  -4  -9   2   -0.73    1.45
  -4  -9   2   -1.18    1.80
  -4  -9   2    0.84    1.44
  -4  -9   2    0.28    1.11
  -4  -9   3   87.42    5.45
  -4  -9   3   77.76    5.47
  -4  -9   3   70.11    5.43
  -4  -9   3   76.86    5.63
  -4  -9   3   75.59    5.28
  -4  -9   3   77.23    5.11
  -4  -9   4    0.71    1.25
  -4  -9   4    0.82    1.81
  -4  -9   4    1.93    1.40
  -4  -9   4    1.34    1.81
  -4  -9   4    0.98    1.76
  -4  -9   4    1.82    1.42
  -4  -9   5    4.81    1.54
  -4  -9   5    4.88    1.97
  -4  -9   5    3.53    2.04
  -4  -9   5    2.23    1.56
  -4  -9   5    4.10    1.54
  -4  -9   6  105.38    6.45
  -4  -9   6   95.16    6.60
  -4  -9   6  108.84    6.42
  -4  -9   6   96.92    6.34
  -4  -9   6   88.48    5.77
  -4  -9   6   98.55    6.20
  -4  -9   7  235.67   11.97
  -4  -9   7  226.22   11.74
  -4  -9   7  210.74   11.35
  -4  -9   7  210.61   11.56
  -4  -9   8    8.61    1.50
  -4  -9   8    7.74    1.77
  -4  -9   8    9.98    1.69
  -4  -9   8    6.26    2.01
  -4  -9   8    6.31    1.67
  -4  -9   9   17.01    2.05
  -4  -9   9   13.92    1.92
  -4  -9   9   11.90    2.14
  -4  -8  -2    1.53    1.32
  -4  -8  -2    0.49    1.56
  -4  -8  -2    0.44    1.40
  -4  -8  -1   -0.79    1.75
  -4  -8  -1    0.85    1.50
  -4  -8   0    0.58    1.61
  -4  -8   0    0.40    1.77
  -4  -8   0    0.44    1.91
  -4  -8   1    4.86    1.50
  -4  -8   1    3.44    1.89
  -4  -8   1    3.71    1.88
  -4  -8   1    3.29    2.30
  -4  -8   2    5.51    2.07
  -4  -8   2    6.80    2.32
  -4  -8   2    6.07    1.75
  -4  -8   2    4.90    2.07
  -4  -8   2    4.62    2.37
  -4  -8   2    5.42    1.64
  -4  -8   3    8.90    2.58
  -4  -8   3    8.04    2.51
  -4  -8   3    6.77    1.81
  -4  -8   3    6.92    1.87
  -4  -8   3    3.35    2.22
  -4  -8   3    6.82    1.97
  -4  -8   3    8.32    2.20
  -4  -8   4    4.02    1.70
  -4  -8   4    2.00    1.41
  -4  -8   4    1.49    1.92
  -4  -8   4    2.45    1.97
  -4  -8   4    3.31    1.68
  -4  -8   4    3.94    1.39
  -4  -8   4    4.12    2.26
  -4  -8   4    2.27    1.21
  -4  -8   5    7.08    1.85
  -4  -8   5    4.99    1.44
  -4  -8   5    7.21    1.61
  -4  -8   5    6.90    2.34
  -4  -8   5    5.57    2.19
  -4  -8   5    4.51    1.87
  -4  -8   5   10.74    1.98
  -4  -8   5    6.73    1.80
  -4  -8   6   -0.16    1.22
  -4  -8   6    1.62    1.17
  -4  -8   6    0.21    1.55
  -4  -8   6   -0.19    1.42
  -4  -8   6    0.94    2.17
  -4  -8   6    0.61    1.82
  -4  -8   6   -0.20    1.29
  -4  -8   7   -0.56    1.45
  -4  -8   7    2.05    1.97
  -4  -8   7    0.19    1.38
  -4  -8   7   -0.20    1.47
  -4  -8   8   -0.19    1.58
  -4  -8   8   -0.95    1.47
  -4  -8   8    0.18    1.36
  -4  -8   8   -0.44    1.94
  -4  -8   9    0.17    1.37
  -4  -8   9    1.81    1.37
  -4  -8   9    1.17    1.23
  -4  -8   9    0.20    1.76
  -4  -8  10   24.83    2.51
  -4  -8  10   26.98    2.61
  -4  -7  -3   24.13    2.71
  -4  -7  -3   21.44    2.37
  -4  -7  -3   20.79    2.79
  -4  -7  -2   38.89    3.59
  -4  -7  -2   42.85    4.14
  -4  -7  -2   36.98    3.66
  -4  -7  -1    6.28    2.21
  -4  -7  -1    6.13    2.17
  -4  -7  -1   10.29    2.51
  -4  -7   0   45.04    4.41
  -4  -7   0   48.48    4.25
  -4  -7   0   46.33    4.56
  -4  -7   0   43.09    4.32
  -4  -7   1    5.49    1.96
  -4  -7   1    4.58    1.67
  -4  -7   1    4.22    2.08
  -4  -7   1    3.24    1.57
  -4  -7   2   17.23    3.06
  -4  -7   2   13.77    2.81
  -4  -7   2   13.50    2.26
  -4  -7   2   12.85    2.57
  -4  -7   2   14.63    2.69
  -4  -7   2   11.99    2.12
  -4  -7   2   17.13    2.66
  -4  -7   3   15.86    2.57
  -4  -7   3   16.54    2.44
  -4  -7   3   20.16    3.17
  -4  -7   3   15.06    2.61
  -4  -7   3   19.97    3.07
  -4  -7   3   17.07    2.13
  -4  -7   3   14.57    2.79
  -4  -7   3   13.18    2.30
  -4  -7   4   62.76    4.76
  -4  -7   4   58.34    4.39
  -4  -7   4   68.00    5.12
  -4  -7   4   71.16    4.82
  -4  -7   4   65.55    5.09
  -4  -7   4   61.57    5.22
  -4  -7   4   60.14    5.17
  -4  -7   4   70.56    5.09
  -4  -7   4   66.53    5.32
  -4  -7   5    7.13    1.64
  -4  -7   5    5.18    2.24
  -4  -7   5    6.88    2.00
  -4  -7   5    2.88    1.99
  -4  -7   5   11.36    2.10
  -4  -7   5    7.26    1.68
  -4  -7   5    5.33    1.62
  -4  -7   5    6.64    1.45
  -4  -7   5    5.70    2.10
  -4  -7   6   67.48    5.18
  -4  -7   6   75.06    5.39
  -4  -7   6   73.81    5.25
  -4  -7   6   74.32    4.90
  -4  -7   6   82.56    5.34
  -4  -7   6   66.37    5.81
  -4  -7   6   70.54    5.64
  -4  -7   7    7.75    1.96
  -4  -7   7    9.67    1.81
  -4  -7   7    7.46    1.52
  -4  -7   7    6.36    1.96
  -4  -7   7    7.56    2.31
  -4  -7   7   11.58    2.30
  -4  -7   8  311.83   16.27
  -4  -7   8  311.92   15.84
  -4  -7   8  269.54   15.98
  -4  -7   8  321.75   16.54
  -4  -7   8  295.08   16.71
  -4  -7   8  358.89   16.46
  -4  -7   9   49.64    4.11
  -4  -7   9   45.96    3.96
  -4  -7   9   47.70    4.50
  -4  -7   9   40.39    3.71
  -4  -7   9   47.81    3.65
  -4  -7  10    1.20    1.47
  -4  -7  10    3.24    1.41
  -4  -7  10   -0.17    1.46
  -4  -7  10    2.98    2.01
  -4  -7  10    1.92    1.10
  -4  -7  11   12.14    1.86
  -4  -7  11    8.94    1.94
  -4  -7  11   11.76    1.92
  -4  -6  -4    1.36    1.39
  -4  -6  -4    2.35    1.61
  -4  -6  -3   24.70    3.26
  -4  -6  -3   26.53    2.96
  -4  -6  -3   25.41    3.01
  -4  -6  -2  275.39   15.55
  -4  -6  -2  297.76   15.53
  -4  -6  -2  285.97   15.37
  -4  -6  -1   44.77    4.31
  -4  -6  -1   43.81    4.28
  -4  -6  -1   41.64    4.57
  -4  -6   0    4.66    1.93
  -4  -6   0    2.12    2.04
  -4  -6   0    3.21    2.31
  -4  -6   1  109.11    7.46
  -4  -6   1  119.76    7.69
  -4  -6   1  133.70    7.62
  -4  -6   1  117.86    7.79
  -4  -6   1  122.54    8.06
  -4  -6   1  114.61    7.11
  -4  -6   2    8.69    2.35
  -4  -6   2    7.58    1.82
  -4  -6   2   11.43    2.59
  -4  -6   2    8.73    2.17
  -4  -6   2   10.92    2.39
  -4  -6   2    7.57    1.78
  -4  -6   3   29.52    2.74
  -4  -6   3   29.22    3.49
  -4  -6   3   31.23    3.14
  -4  -6   3   31.24    3.66
  -4  -6   3   29.84    2.93
  -4  -6   3   29.84    3.20
  -4  -6   3   27.05    3.21
  -4  -6   3   27.56    3.42
  -4  -6   4   85.02    5.63
  -4  -6   4   69.91    4.94
  -4  -6   4   89.08    5.77
  -4  -6   4   79.72    5.76
  -4  -6   4   78.72    5.95
  -4  -6   4   79.87    5.70
  -4  -6   4   83.40    5.46
  -4  -6   4   72.11    5.81
  -4  -6   4   75.24    5.19
  -4  -6   5  193.37   10.59
  -4  -6   5  179.63   10.06
  -4  -6   5  164.79   10.00
  -4  -6   5  175.57   10.20
  -4  -6   5  174.54   10.51
  -4  -6   5  188.71   10.08
  -4  -6   5  180.30    9.65
  -4  -6   5  177.45   10.69
  -4  -6   5  175.50   10.06
  -4  -6   6   19.97    2.36
  -4  -6   6   16.36    2.47
  -4  -6   6   11.07    2.74
  -4  -6   6   12.45    2.20
  -4  -6   6   16.87    3.00
  -4  -6   6   19.26    2.61
  -4  -6   6   14.84    2.24
  -4  -6   6   18.83    2.16
  -4  -6   7  120.46    7.91
  -4  -6   7  125.77    7.33
  -4  -6   7  131.89    7.72
  -4  -6   7  123.17    7.80
  -4  -6   7  116.45    7.66
  -4  -6   7  118.44    7.96
  -4  -6   8  155.07    8.81
  -4  -6   8  131.90    8.77
  -4  -6   8  145.22    8.36
  -4  -6   8  158.37    8.99
  -4  -6   8  135.94    8.83
  -4  -6   8  148.90    8.88
  -4  -6   8  137.92    9.37
  -4  -6   9   35.58    3.72
  -4  -6   9   45.63    3.71
  -4  -6   9   35.44    4.20
  -4  -6   9   41.16    3.39
  -4  -6   9   39.60    3.78
  -4  -6  10    2.55    1.73
  -4  -6  10    0.94    1.13
  -4  -6  10    0.97    1.53
  -4  -6  10    1.34    1.33
  -4  -6  10    0.22    2.00
  -4  -6  11    1.95    1.50
  -4  -6  11    5.57    1.50
  -4  -6  11    3.07    1.80
  -4  -6  11    4.37    1.65
  -4  -6  12   -0.47    0.99
  -4  -6  12    0.90    1.08
  -4  -5  -4    2.91    1.80
  -4  -5  -4    2.67    1.65
  -4  -5  -4    3.60    1.71
  -4  -5  -3    3.59    1.99
  -4  -5  -3    1.52    1.98
  -4  -5  -3    2.00    1.75
  -4  -5  -2  397.14   21.19
  -4  -5  -2  421.21   21.23
  -4  -5  -2  413.14   21.13
  -4  -5  -1   37.28    3.68
  -4  -5  -1   41.76    4.19
  -4  -5  -1   42.40    4.17
  -4  -5  -1   44.51    4.30
  -4  -5   0    0.17    1.15
  -4  -5   0    0.77    1.44
  -4  -5   0    2.07    2.20
  -4  -5   0   -0.17    1.53
  -4  -5   0    2.44    1.84
  -4  -5   1    1.77    2.07
  -4  -5   1    3.98    1.36
  -4  -5   1    3.02    1.35
  -4  -5   1    4.16    1.85
  -4  -5   1    5.97    2.10
  -4  -5   1    4.72    1.91
  -4  -5   2  119.41    7.88
  -4  -5   2  128.00    7.30
  -4  -5   2  130.50    7.89
  -4  -5   2  127.42    7.68
  -4  -5   2  129.96    8.02
  -4  -5   2  133.47    7.48
  -4  -5   2  142.27    8.26
  -4  -5   3   -0.70    0.88
  -4  -5   3   -0.74    1.73
  -4  -5   3    1.68    1.27
  -4  -5   3    1.17    1.21
  -4  -5   3    1.39    1.74
  -4  -5   3    0.56    1.43
  -4  -5   3    0.56    1.56
  -4  -5   3    1.69    1.33
  -4  -5   4   58.44    3.97
  -4  -5   4   50.18    3.99
  -4  -5   4   53.18    3.99
  -4  -5   4   51.28    4.09
  -4  -5   4   50.31    4.22
  -4  -5   4   49.80    4.24
  -4  -5   4   51.27    4.55
  -4  -5   4   50.69    4.49
  -4  -5   4   54.63    4.20
  -4  -5   4   49.04    4.18
  -4  -5   5  190.39    9.93
  -4  -5   5  179.67   10.43
  -4  -5   5  189.20    9.92
  -4  -5   5  174.55    9.79
  -4  -5   5  176.96   10.05
  -4  -5   5  177.62   10.19
  -4  -5   5  171.44    9.87
  -4  -5   5  173.58    9.95
  -4  -5   5  167.53   10.41
  -4  -5   5  179.15    9.88
  -4  -5   5  175.90    9.46
  -4  -5   6   20.39    2.60
  -4  -5   6   19.42    2.51
  -4  -5   6   14.09    2.18
  -4  -5   6   19.24    2.10
  -4  -5   6   18.25    3.04
  -4  -5   6   20.76    2.38
  -4  -5   6   15.08    2.23
  -4  -5   6   19.61    3.02
  -4  -5   6   17.80    2.13
  -4  -5   7   47.45    4.14
  -4  -5   7   46.01    3.51
  -4  -5   7   47.05    4.50
  -4  -5   7   45.94    4.10
  -4  -5   7   49.98    3.97
  -4  -5   7   50.85    3.74
  -4  -5   8    2.63    2.23
  -4  -5   8    9.20    2.71
  -4  -5   8    4.70    1.43
  -4  -5   8    4.68    2.06
  -4  -5   8    4.80    1.77
  -4  -5   8    4.77    2.06
  -4  -5   8    3.90    1.51
  -4  -5   9   78.62    5.04
  -4  -5   9   53.36    5.03
  -4  -5   9   72.96    5.47
  -4  -5   9   71.98    5.42
  -4  -5   9   79.14    5.28
  -4  -5   9   49.21    5.47
  -4  -5  10   37.37    4.25
  -4  -5  10   50.11    3.74
  -4  -5  10   54.05    4.04
  -4  -5  10   51.74    4.33
  -4  -5  10   36.85    3.84
  -4  -5  11    0.18    1.24
  -4  -5  11    0.15    1.00
  -4  -5  11    0.38    1.55
  -4  -5  11   -2.43    1.95
  -4  -5  11   -0.92    1.44
  -4  -5  12   -1.49    1.29
  -4  -5  12   -0.70    1.20
  -4  -5  12    0.43    1.34
  -4  -4  -5   46.88    3.73
  -4  -4  -4    3.60    1.85
  -4  -4  -4    4.67    1.95
  -4  -4  -4    4.30    1.79
  -4  -4  -3  168.72    9.77
  -4  -4  -3  145.22    9.57
  -4  -4  -3  179.82    9.92
  -4  -4  -2   27.16    3.40
  -4  -4  -2   27.78    3.49
  -4  -4  -2   28.40    3.33
  -4  -4  -1  605.96   29.28
  -4  -4  -1  588.32   29.68
  -4  -4  -1  628.01   29.80
  -4  -4  -1  592.16   29.72
  -4  -4   0   63.57    4.63
  -4  -4   0   64.31    4.36
  -4  -4   0   67.89    5.13
  -4  -4   0   54.51    4.32
  -4  -4   0   70.22    5.13
  -4  -4   1   -0.55    1.61
  -4  -4   1   -0.37    1.59
  -4  -4   1   -0.16    1.28
  -4  -4   1    0.94    1.43
  -4  -4   1    0.79    1.78
  -4  -4   1   -0.14    0.99
  -4  -4   2  187.35   10.33
  -4  -4   2  195.72   10.76
  -4  -4   2  182.83   10.38
  -4  -4   2  184.39   10.46
  -4  -4   2  189.16   10.13
  -4  -4   2  191.89   10.52
  -4  -4   2  183.56   10.48
  -4  -4   2  184.62   10.25
  -4  -4   2  191.61    9.76
  -4  -4   3  264.63   13.53
  -4  -4   3  285.10   14.16
  -4  -4   3  267.99   13.81
  -4  -4   3  268.90   14.02
  -4  -4   3  267.94   14.04
  -4  -4   3  263.37   13.51
  -4  -4   3  273.61   13.92
  -4  -4   3  254.56   14.01
  -4  -4   3  277.76   14.29
  -4  -4   4    0.51    1.42
  -4  -4   4    0.31    1.36
  -4  -4   4   -0.38    1.85
  -4  -4   4    0.38    1.72
  -4  -4   4    0.48    1.52
  -4  -4   4   -0.40    1.18
  -4  -4   4    0.30    1.10
  -4  -4   4   -0.89    1.30
  -4  -4   4    0.90    0.95
  -4  -4   4   -1.22    1.11
  -4  -4   5   27.69    3.24
  -4  -4   5   26.65    2.32
  -4  -4   5   28.02    2.87
  -4  -4   5   26.09    3.30
  -4  -4   5   31.28    2.95
  -4  -4   5   24.89    2.61
  -4  -4   5   33.13    3.24
  -4  -4   5   27.33    2.68
  -4  -4   5   30.50    2.74
  -4  -4   5   31.73    2.76
  -4  -4   6  171.20    9.89
  -4  -4   6  167.07    9.61
  -4  -4   6  154.59    9.28
  -4  -4   6  185.59    9.87
  -4  -4   6  174.96    9.39
  -4  -4   6  165.96    9.17
  -4  -4   6  185.12   10.48
  -4  -4   6  188.71    9.66
  -4  -4   6  164.17    9.18
  -4  -4   7   -0.15    0.99
  -4  -4   7    0.70    0.96
  -4  -4   7   -0.38    1.42
  -4  -4   7    0.56    1.56
  -4  -4   7    0.17    1.22
  -4  -4   8    4.01    1.59
  -4  -4   8    5.46    2.45
  -4  -4   8    2.49    1.40
  -4  -4   8    2.45    1.78
  -4  -4   8    2.25    1.58
  -4  -4   9  240.19   15.76
  -4  -4   9  280.69   15.70
  -4  -4   9  319.10   15.88
  -4  -4   9  301.40   15.31
  -4  -4   9  329.27   15.69
  -4  -4   9  274.38   15.50
  -4  -4  10  124.40    8.26
  -4  -4  10  129.30    8.34
  -4  -4  10  104.39    8.34
  -4  -4  10  146.89    8.14
  -4  -4  10  153.90    8.45
  -4  -4  11    8.31    2.22
  -4  -4  11    5.59    1.99
  -4  -4  11    9.57    1.80
  -4  -4  11    6.33    2.32
  -4  -4  12    0.81    1.55
  -4  -4  12    0.82    1.43
  -4  -4  12    2.03    1.18
  -4  -4  12    2.03    1.47
  -4  -3  -5    8.08    1.90
  -4  -3  -4   56.29    4.35
  -4  -3  -4   48.01    4.11
  -4  -3  -3    8.11    2.19
  -4  -3  -3   12.61    2.40
  -4  -3  -3   12.66    2.40
  -4  -3  -2   37.74    3.73
  -4  -3  -2   45.57    3.93
  -4  -3  -2   34.62    3.00
  -4  -3  -2   37.37    3.65
  -4  -3  -1   12.23    1.83
  -4  -3  -1   16.34    2.52
  -4  -3  -1   11.33    1.78
  -4  -3  -1   13.17    2.39
  -4  -3  -1   11.77    2.30
  -4  -3   0    5.26    1.45
  -4  -3   0    6.11    1.85
  -4  -3   0    8.28    1.32
  -4  -3   0    6.11    1.88
  -4  -3   0    4.76    2.03
  -4  -3   0    5.98    1.94
  -4  -3   0    6.66    1.63
  -4  -3   1    0.81    1.18
  -4  -3   1    0.29    1.18
  -4  -3   1    1.39    1.74
  -4  -3   1    2.58    1.56
  -4  -3   1    1.46    1.35
  -4  -3   1    0.50    1.06
  -4  -3   1    1.37    0.98
  -4  -3   2    4.73    1.50
  -4  -3   2    3.33    1.39
  -4  -3   2    2.60    1.10
  -4  -3   2    3.57    0.88
  -4  -3   2    3.82    1.55
  -4  -3   2    3.37    1.54
  -4  -3   2    1.03    1.78
  -4  -3   2    4.08    1.56
  -4  -3   3    4.21    1.36
  -4  -3   3    5.87    1.82
  -4  -3   3    2.23    1.75
  -4  -3   3    5.63    1.62
  -4  -3   3    6.19    1.76
  -4  -3   3    7.79    1.67
  -4  -3   3    5.03    1.58
  -4  -3   3    4.36    1.18
  -4  -3   3    4.43    0.99
  -4  -3   4    0.98    1.31
  -4  -3   4    0.67    1.08
  -4  -3   4    2.75    1.62
  -4  -3   4    1.35    1.10
  -4  -3   4    1.11    0.86
  -4  -3   4    1.13    1.19
  -4  -3   4    1.35    1.00
  -4  -3   4    1.22    1.45
  -4  -3   4    0.17    1.67
  -4  -3   5  137.89    7.67
  -4  -3   5  136.89    7.19
  -4  -3   5  139.63    8.00
  -4  -3   5  120.84    7.29
  -4  -3   5  140.02    7.78
  -4  -3   5  139.00    7.66
  -4  -3   5  133.28    7.75
  -4  -3   5  140.89    7.58
  -4  -3   5  129.83    8.24
  -4  -3   5  131.96    7.55
  -4  -3   6    2.68    1.36
  -4  -3   6    0.12    0.91
  -4  -3   6   -0.16    1.22
  -4  -3   6    1.44    1.66
  -4  -3   6   -0.21    1.98
  -4  -3   6    0.77    1.29
  -4  -3   6    1.89    1.15
  -4  -3   6   -0.28    1.18
  -4  -3   6   -0.72    1.00
  -4  -3   7    1.07    1.19
  -4  -3   7    3.09    1.46
  -4  -3   7    2.76    1.19
  -4  -3   7    0.18    1.50
  -4  -3   7    2.19    1.71
  -4  -3   7    2.85    1.22
  -4  -3   7    4.14    1.34
  -4  -3   8  157.76    8.86
  -4  -3   8  133.92    9.36
  -4  -3   8  152.96    8.64
  -4  -3   8  141.58    8.91
  -4  -3   8  162.95    9.12
  -4  -3   8  142.78    8.11
  -4  -3   9   45.83    3.94
  -4  -3   9   50.57    4.43
  -4  -3   9   46.69    4.24
  -4  -3   9   38.55    4.72
  -4  -3   9   40.94    4.35
  -4  -3   9   56.68    4.34
  -4  -3  10    1.75    1.64
  -4  -3  10    0.95    1.37
  -4  -3  10    0.42    1.31
  -4  -3  10   -0.93    1.85
  -4  -3  10    3.61    2.30
  -4  -3  10    2.96    1.89
  -4  -3  11    1.47    1.70
  -4  -3  11   -1.36    2.02
  -4  -3  11   -0.18    1.33
  -4  -3  11    1.28    1.70
  -4  -3  12   -0.34    1.36
  -4  -3  12    0.83    1.19
  -4  -3  12    0.17    1.57
  -4  -3  12   -2.09    1.63
  -4  -2  -5    1.80    1.55
  -4  -2  -5    4.16    1.48
  -4  -2  -4   33.58    3.07
  -4  -2  -4   25.35    2.91
  -4  -2  -4   26.14    3.14
  -4  -2  -3   50.52    3.87
  -4  -2  -3   40.98    3.81
  -4  -2  -3   48.12    4.15
  -4  -2  -2  158.34    9.65
  -4  -2  -2  174.56    9.58
  -4  -2  -2  174.77    9.48
  -4  -2  -2  177.74    9.87
  -4  -2  -1   33.87    3.30
  -4  -2  -1   34.19    3.00
  -4  -2  -1   32.78    3.13
  -4  -2  -1   39.18    3.39
  -4  -2  -1   30.67    2.82
  -4  -2  -1   30.39    2.63
  -4  -2  -1   36.46    3.36
  -4  -2   0  287.47   14.28
  -4  -2   0  294.27   14.54
  -4  -2   0  297.32   14.90
  -4  -2   0  306.60   15.16
  -4  -2   0  305.44   15.16
  -4  -2   0  277.08   14.69
  -4  -2   0  303.32   15.10
  -4  -2   1   10.40    1.83
  -4  -2   1    8.96    1.48
  -4  -2   1   10.60    1.31
  -4  -2   1    8.93    1.61
  -4  -2   1    8.35    1.80
  -4  -2   1   12.77    2.11
  -4  -2   1    9.42    1.80
  -4  -2   1   10.67    1.66
  -4  -2   1   10.00    1.66
  -4  -2   2   50.46    3.56
  -4  -2   2   46.89    2.94
  -4  -2   2   46.84    3.24
  -4  -2   2   52.24    3.75
  -4  -2   2   53.49    3.70
  -4  -2   2   48.85    3.89
  -4  -2   2   52.54    3.78
  -4  -2   2   46.19    3.53
  -4  -2   2   54.75    3.87
  -4  -2   2   49.72    3.73
  -4  -2   2   46.28    3.55
  -4  -2   3   81.38    5.18
  -4  -2   3   75.78    4.83
  -4  -2   3   73.90    4.98
  -4  -2   3   80.88    4.71
  -4  -2   3   81.54    4.99
  -4  -2   3   74.74    4.93
  -4  -2   3   73.63    4.39
  -4  -2   3   79.18    4.86
  -4  -2   3   76.51    4.89
  -4  -2   3   78.81    4.82
  -4  -2   4   18.53    1.97
  -4  -2   4   17.41    1.97
  -4  -2   4   15.62    2.39
  -4  -2   4   16.81    2.07
  -4  -2   4   19.01    2.15
  -4  -2   4   14.94    1.91
  -4  -2   4   12.65    2.00
  -4  -2   4   14.71    1.66
  -4  -2   4   17.46    1.88
  -4  -2   5   36.92    3.04
  -4  -2   5   33.94    2.75
  -4  -2   5   38.78    3.59
  -4  -2   5   34.84    3.07
  -4  -2   5   35.34    2.80
  -4  -2   5   39.04    3.02
  -4  -2   5   34.38    3.15
  -4  -2   5   35.92    2.94
  -4  -2   5   34.31    2.86
  -4  -2   6    9.38    1.91
  -4  -2   6   12.44    2.52
  -4  -2   6   12.90    1.79
  -4  -2   6   11.13    2.13
  -4  -2   6   11.74    1.57
  -4  -2   6   11.70    1.95
  -4  -2   6   11.10    1.75
  -4  -2   6   13.22    1.79
  -4  -2   6    7.97    1.65
  -4  -2   7   56.94    4.77
  -4  -2   7   68.85    4.75
  -4  -2   7   51.98    4.14
  -4  -2   7   60.72    4.70
  -4  -2   7   66.58    4.55
  -4  -2   7   60.36    4.32
  -4  -2   7   69.88    4.38
  -4  -2   8    4.60    1.47
  -4  -2   8    7.72    1.77
  -4  -2   8    3.24    2.49
  -4  -2   8    3.36    1.18
  -4  -2   8    5.39    1.98
  -4  -2   8    4.56    1.77
  -4  -2   9   25.45    3.50
  -4  -2   9   35.76    3.40
  -4  -2   9   26.82    3.88
  -4  -2   9   32.36    3.20
  -4  -2   9   31.69    3.47
  -4  -2  10  113.76    7.19
  -4  -2  10   94.05    7.13
  -4  -2  10   99.81    7.12
  -4  -2  10  114.61    6.95
  -4  -2  10  124.18    7.22
  -4  -2  11   54.30    4.56
  -4  -2  11   52.49    4.54
  -4  -2  11   57.58    4.36
  -4  -2  11   55.62    4.24
  -4  -2  12   -0.35    1.49
  -4  -2  12   -0.18    1.59
  -4  -2  12   -0.36    1.54
  -4  -1  -6   25.03    2.83
  -4  -1  -5   78.18    5.57
  -4  -1  -5   85.14    5.75
  -4  -1  -4  171.42   10.13
  -4  -1  -4  196.26   10.77
  -4  -1  -4  208.71   10.77
  -4  -1  -3  113.16    6.74
  -4  -1  -3  112.66    6.86
  -4  -1  -3  103.37    6.88
  -4  -1  -2   12.05    1.87
  -4  -1  -2   15.71    2.37
  -4  -1  -2   18.29    2.31
  -4  -1  -2   13.28    2.24
  -4  -1  -2   13.65    2.03
  -4  -1  -2   14.17    2.12
  -4  -1  -1  121.49    7.21
  -4  -1  -1  122.00    7.24
  -4  -1  -1  124.33    6.97
  -4  -1  -1  127.42    7.01
  -4  -1  -1  123.97    7.31
  -4  -1  -1  119.44    7.03
  -4  -1  -1  114.35    7.06
  -4  -1   0  805.50   39.04
  -4  -1   0  845.72   38.95
  -4  -1   0  849.02   39.06
  -4  -1   0  827.08   39.04
  -4  -1   0  808.63   38.83
  -4  -1   0  826.86   39.06
  -4  -1   0  831.21   38.84
  -4  -1   1    2.63    1.28
  -4  -1   1    3.03    0.98
  -4  -1   1    1.83    1.38
  -4  -1   1    4.31    1.32
  -4  -1   1    2.33    0.73
  -4  -1   1    0.74    1.17
  -4  -1   1    3.24    1.46
  -4  -1   1    1.94    1.46
  -4  -1   1    2.40    1.71
  -4  -1   2    8.29    1.74
  -4  -1   2    6.43    0.77
  -4  -1   2    4.93    1.38
  -4  -1   2    4.19    0.68
  -4  -1   2    6.99    1.54
  -4  -1   2    4.37    1.38
  -4  -1   2    7.78    1.61
  -4  -1   2    5.24    1.02
  -4  -1   2    7.02    1.39
  -4  -1   2    6.47    1.38
  -4  -1   2    5.81    1.52
  -4  -1   2    5.35    1.30
  -4  -1   3  115.61    5.76
  -4  -1   3  100.27    5.70
  -4  -1   3  111.36    6.39
  -4  -1   3  107.07    5.96
  -4  -1   3  110.23    6.16
  -4  -1   3  114.32    6.28
  -4  -1   3  101.56    6.02
  -4  -1   3  110.86    6.48
  -4  -1   3  108.78    6.23
  -4  -1   3  117.08    6.35
  -4  -1   3  109.81    6.44
  -4  -1   3  106.68    6.24
  -4  -1   4  124.59    6.93
  -4  -1   4  124.63    6.57
  -4  -1   4  128.96    6.94
  -4  -1   4  132.66    7.10
  -4  -1   4  129.32    7.35
  -4  -1   4  122.52    6.60
  -4  -1   4  116.30    6.60
  -4  -1   4  123.73    6.81
  -4  -1   4  111.40    6.60
  -4  -1   4  124.37    6.97
  -4  -1   5  389.55   20.01
  -4  -1   5  386.59   19.37
  -4  -1   5  384.23   19.17
  -4  -1   5  412.83   19.22
  -4  -1   5  383.79   19.08
  -4  -1   5  400.88   19.64
  -4  -1   5  410.81   19.42
  -4  -1   5  403.60   19.37
  -4  -1   6  292.21   14.23
  -4  -1   6  263.98   14.01
  -4  -1   6  263.51   14.64
  -4  -1   6  285.72   14.48
  -4  -1   6  286.79   14.02
  -4  -1   6  263.11   13.78
  -4  -1   6  260.44   13.65
  -4  -1   6  289.35   14.02
  -4  -1   7   55.02    4.02
  -4  -1   7   60.85    4.76
  -4  -1   7   65.08    4.39
  -4  -1   7   63.26    4.50
  -4  -1   7   52.65    4.01
  -4  -1   7   50.58    4.38
  -4  -1   8    3.38    1.90
  -4  -1   8    4.77    2.10
  -4  -1   8    4.62    1.49
  -4  -1   8    5.16    2.63
  -4  -1   8    4.15    1.79
  -4  -1   8    2.66    1.26
  -4  -1   8    4.95    1.47
  -4  -1   9   42.06    3.75
  -4  -1   9   41.66    4.08
  -4  -1   9   35.20    4.50
  -4  -1   9   49.75    4.07
  -4  -1   9   41.80    4.24
  -4  -1  10  104.47    7.25
  -4  -1  10  128.79    7.49
  -4  -1  10  116.99    6.99
  -4  -1  10  139.63    7.46
  -4  -1  10   79.92    7.17
  -4  -1  11   81.72    6.20
  -4  -1  11   93.53    6.39
  -4  -1  11  103.99    6.43
  -4  -1  11   97.44    6.03
  -4  -1  12    3.91    1.84
  -4  -1  12    3.89    1.73
  -4  -1  12    2.11    1.56
  -4   0  -8    3.11    1.30
  -4   0  -7    1.54    1.58
  -4   0  -7   -0.18    1.35
  -4   0  -6   69.65    5.23
  -4   0  -6   74.72    5.54
  -4   0  -5   -0.21    1.61
  -4   0  -5   -0.19    1.59
  -4   0  -5    1.48    1.55
  -4   0  -4   36.79    3.58
  -4   0  -4   37.93    3.46
  -4   0  -4   34.52    3.38
  -4   0  -3   57.02    4.26
  -4   0  -3   54.18    3.88
  -4   0  -3   48.14    3.91
  -4   0  -3   53.36    4.22
  -4   0  -3   51.52    3.90
  -4   0  -3   56.91    4.18
  -4   0  -2   -0.15    1.47
  -4   0  -2    1.54    1.55
  -4   0  -2    0.41    1.28
  -4   0  -2    2.28    1.45
  -4   0  -2    1.52    1.37
  -4   0  -2    0.94    1.18
  -4   0  -2   -0.58    1.26
  -4   0  -2    0.78    0.97
  -4   0  -1  702.33   34.64
  -4   0  -1  721.74   34.65
  -4   0  -1  746.51   34.76
  -4   0  -1  722.09   34.76
  -4   0  -1  716.88   34.27
  -4   0  -1  740.75   34.46
  -4   0  -1  728.43   34.15
  -4   0  -1  776.89   34.73
  -4   0  -1  723.51   34.14
  -4   0  -1  762.51   34.78
  -4   0   0  112.95    6.29
  -4   0   0  111.21    6.32
  -4   0   0  110.77    6.06
  -4   0   0  105.05    6.15
  -4   0   0   98.65    5.71
  -4   0   0   97.93    6.06
  -4   0   0  108.23    6.05
  -4   0   0  110.07    6.26
  -4   0   0  102.92    6.16
  -4   0   0   99.28    5.73
  -4   0   1   51.21    3.62
  -4   0   1   51.37    3.57
  -4   0   1   48.75    3.42
  -4   0   1   49.92    3.54
  -4   0   1   49.51    3.25
  -4   0   1   50.97    3.63
  -4   0   1   49.03    3.52
  -4   0   1   45.66    3.19
  -4   0   1   50.96    3.35
  -4   0   2   81.53    4.76
  -4   0   2   81.34    4.73
  -4   0   2   83.78    4.78
  -4   0   2   72.45    4.17
  -4   0   2   78.43    4.85
  -4   0   2   69.35    4.18
  -4   0   2   75.33    4.53
  -4   0   2   82.63    4.79
  -4   0   2   77.66    4.80
  -4   0   2   80.34    4.89
  -4   0   2   79.98    4.61
  -4   0   2   77.58    4.58
  -4   0   3  675.02   31.09
  -4   0   3  722.73   31.46
  -4   0   3  627.08   30.82
  -4   0   3  637.24   30.36
  -4   0   3  651.17   30.93
  -4   0   3  685.98   31.21
  -4   0   3  668.18   30.91
  -4   0   3  649.46   30.55
  -4   0   3  685.37   31.18
  -4   0   3  678.72   31.31
  -4   0   3  678.24   31.08
  -4   0   3  649.42   30.79
  -4   0   4 1610.51   72.96
  -4   0   4 1605.71   73.24
  -4   0   4 1442.80   73.19
  -4   0   4 1647.31   73.79
  -4   0   4 1616.29   73.47
  -4   0   4 1605.14   72.82
  -4   0   4 1632.63   73.42
  -4   0   4 1575.26   73.08
  -4   0   4 1626.04   73.46
  -4   0   4 1604.57   73.30
  -4   0   4 1581.65   73.27
  -4   0   4 1611.25   73.01
  -4   0   5  392.19   18.87
  -4   0   5  388.76   19.06
  -4   0   5  373.51   18.77
  -4   0   5  402.25   19.31
  -4   0   5  386.92   18.75
  -4   0   5  406.95   19.67
  -4   0   5  393.44   18.66
  -4   0   5  390.40   19.03
  -4   0   5  382.67   19.05
  -4   0   6  135.18    7.69
  -4   0   6  145.43    7.91
  -4   0   6  151.20    7.83
  -4   0   6  133.73    7.42
  -4   0   6  137.19    8.08
  -4   0   6  139.68    8.50
  -4   0   6  127.26    7.54
  -4   0   6  131.46    7.73
  -4   0   7   50.61    4.01
  -4   0   7   40.66    3.84
  -4   0   7   56.64    3.95
  -4   0   7   48.36    3.70
  -4   0   7   50.81    3.75
  -4   0   7   42.67    3.43
  -4   0   7   56.78    4.40
  -4   0   8    4.17    1.90
  -4   0   8    3.87    1.48
  -4   0   8    2.47    2.40
  -4   0   8    5.91    2.01
  -4   0   8    3.56    1.80
  -4   0   8    3.67    1.46
  -4   0   8    4.45    1.34
  -4   0   9   27.54    3.58
  -4   0   9   28.05    3.20
  -4   0   9   18.93    3.63
  -4   0   9   26.73    3.45
  -4   0   9   31.18    3.18
  -4   0   9   22.84    2.45
  -4   0   9   26.10    2.94
  -4   0  10   28.36    3.07
  -4   0  10   29.55    3.33
  -4   0  10   35.63    3.37
  -4   0  10   26.76    3.50
  -4   0  10   20.49    3.55
  -4   0  11    0.21    1.85
  -4   0  11   -1.02    1.54
  -4   0  11    0.22    1.77
  -4   0  11    0.69    2.04
  -4   0  11   -0.73    1.26
  -4   0  12   11.83    2.18
  -4   0  12   15.91    2.19
  -4   0  12   10.66    2.14
  -4   1  -8   -0.17    1.35
  -4   1  -8    0.82    1.52
  -4   1  -7    9.67    2.19
  -4   1  -7    6.33    2.13
  -4   1  -6   62.39    5.05
  -4   1  -6   58.90    4.50
  -4   1  -6   55.71    4.85
  -4   1  -5    1.86    1.87
  -4   1  -5    0.56    1.42
  -4   1  -5    2.60    1.88
  -4   1  -4    2.41    1.40
  -4   1  -4    1.61    1.57
  -4   1  -4    0.78    1.43
  -4   1  -4    3.65    1.83
  -4   1  -3   45.24    3.74
  -4   1  -3   50.42    3.65
  -4   1  -3   46.30    3.39
  -4   1  -3   46.19    3.85
  -4   1  -3   46.37    3.93
  -4   1  -3   48.33    3.78
  -4   1  -3   47.97    3.80
  -4   1  -3   44.91    3.66
  -4   1  -2  141.54    7.92
  -4   1  -2  133.11    7.80
  -4   1  -2  139.34    7.57
  -4   1  -2  136.37    7.64
  -4   1  -2  136.64    7.66
  -4   1  -2  134.49    7.67
  -4   1  -2  141.14    7.56
  -4   1  -2  133.27    7.27
  -4   1  -2  136.95    7.62
  -4   1  -2  131.00    7.76
  -4   1  -2  128.11    7.70
  -4   1  -1   44.60    3.20
  -4   1  -1   43.91    3.16
  -4   1  -1   41.79    3.41
  -4   1  -1   43.46    3.31
  -4   1  -1   42.43    3.38
  -4   1  -1   43.26    2.86
  -4   1  -1   45.26    3.38
  -4   1  -1   42.42    3.03
  -4   1  -1   42.67    2.83
  -4   1  -1   45.06    3.46
  -4   1  -1   42.19    3.30
  -4   1   0    8.67    1.59
  -4   1   0    7.02    1.07
  -4   1   0    6.37    1.47
  -4   1   0    9.08    1.64
  -4   1   0    5.47    1.59
  -4   1   0    6.80    1.46
  -4   1   0    5.19    1.28
  -4   1   0    6.28    1.02
  -4   1   0    7.61    1.31
  -4   1   1  338.69   16.84
  -4   1   1  336.21   16.83
  -4   1   1  355.86   17.08
  -4   1   1  386.60   17.30
  -4   1   1  341.18   16.59
  -4   1   1  338.98   16.91
  -4   1   1  351.44   16.91
  -4   1   1  352.84   16.99
  -4   1   1  357.24   17.12
  -4   1   2  727.79   33.38
  -4   1   2  690.29   33.06
  -4   1   2  683.64   32.70
  -4   1   2  709.80   33.52
  -4   1   2  743.88   33.56
  -4   1   2  735.35   33.38
  -4   1   2  715.82   33.43
  -4   1   2  713.05   33.19
  -4   1   2  729.23   33.30
  -4   1   2  704.06   33.26
  -4   1   2  710.17   33.26
  -4   1   3   51.17    3.05
  -4   1   3   51.21    3.39
  -4   1   3   47.43    3.56
  -4   1   3   57.99    3.87
  -4   1   3   52.23    3.79
  -4   1   3   51.61    3.30
  -4   1   3   52.20    2.98
  -4   1   3   52.95    3.71
  -4   1   3   49.75    3.13
  -4   1   3   53.78    3.30
  -4   1   3   45.79    3.33
  -4   1   3   47.48    3.41
  -4   1   3   56.39    3.59
  -4   1   4 1647.64   76.06
  -4   1   4 1663.38   76.15
  -4   1   4 1671.48   76.19
  -4   1   4 1708.21   76.26
  -4   1   4 1531.77   76.08
  -4   1   4 1644.66   75.88
  -4   1   4 1704.59   75.76
  -4   1   4 1647.13   75.69
  -4   1   4 1736.32   76.60
  -4   1   4 1658.80   75.94
  -4   1   4 1638.74   75.70
  -4   1   4 1635.36   75.83
  -4   1   5  228.26   11.13
  -4   1   5  214.97   11.38
  -4   1   5  240.90   11.78
  -4   1   5  214.57   12.32
  -4   1   5  232.78   12.03
  -4   1   5  248.65   11.66
  -4   1   5  242.38   11.61
  -4   1   5  219.58   11.28
  -4   1   5  229.73   11.89
  -4   1   5  231.12   11.87
  -4   1   5  218.53   11.60
  -4   1   6   45.36    3.43
  -4   1   6   40.28    3.69
  -4   1   6   42.46    3.35
  -4   1   6   36.17    2.92
  -4   1   6   35.63    3.22
  -4   1   6   39.07    2.95
  -4   1   6   39.11    4.04
  -4   1   6   41.67    3.33
  -4   1   6   44.67    3.25
  -4   1   7   34.15    2.88
  -4   1   7   22.48    2.93
  -4   1   7   28.82    3.30
  -4   1   7   29.27    3.04
  -4   1   7   31.39    2.89
  -4   1   7   34.86    3.03
  -4   1   7   33.61    2.95
  -4   1   8   10.81    2.91
  -4   1   8   19.25    2.39
  -4   1   8   19.07    2.56
  -4   1   8   15.96    2.17
  -4   1   8   19.06    2.91
  -4   1   8   12.59    2.60
  -4   1   8   19.10    2.32
  -4   1   9    3.60    2.29
  -4   1   9    3.44    2.52
  -4   1   9    0.87    1.52
  -4   1   9    1.52    1.37
  -4   1   9    0.22    1.75
  -4   1   9    0.46    1.04
  -4   1   9    0.62    1.31
  -4   1  10   -2.27    2.02
  -4   1  10   -0.24    1.97
  -4   1  10    2.31    2.45
  -4   1  10    0.83    1.32
  -4   1  10   -0.19    1.38
  -4   1  10    0.88    1.59
  -4   1  11   22.86    3.47
  -4   1  11   47.58    3.83
  -4   1  11   38.31    3.40
  -4   1  11   32.00    3.61
  -4   1  12   14.67    2.24
  -4   1  12   16.90    2.31
  -4   1  12    9.89    2.12
  -4   2  -9    8.07    1.66
  -4   2  -8    3.52    1.76
  -4   2  -8    2.68    1.78
  -4   2  -7    9.68    2.52
  -4   2  -7   11.01    2.39
  -4   2  -6    5.94    2.11
  -4   2  -6    7.16    1.95
  -4   2  -6    6.04    2.31
  -4   2  -5   14.60    2.14
  -4   2  -5   16.12    2.84
  -4   2  -5   14.50    2.46
  -4   2  -5   17.28    2.76
  -4   2  -4    9.92    1.90
  -4   2  -4   12.31    2.36
  -4   2  -4   10.60    2.12
  -4   2  -4   11.43    1.98
  -4   2  -4    9.44    2.15
  -4   2  -4   11.59    1.82
  -4   2  -3  299.85   14.36
  -4   2  -3  283.99   14.65
  -4   2  -3  276.41   14.39
  -4   2  -3  292.43   14.52
  -4   2  -3  278.49   14.47
  -4   2  -3  253.23   13.96
  -4   2  -3  291.75   14.69
  -4   2  -3  286.44   14.32
  -4   2  -2   78.82    4.81
  -4   2  -2   83.84    5.28
  -4   2  -2   76.48    5.11
  -4   2  -2   81.33    5.05
  -4   2  -2   73.11    4.88
  -4   2  -2   80.95    5.27
  -4   2  -2   83.64    4.97
  -4   2  -2   79.15    5.13
  -4   2  -2   74.26    4.47
  -4   2  -1   47.03    2.96
  -4   2  -1   45.25    3.05
  -4   2  -1   39.44    3.40
  -4   2  -1   45.29    3.30
  -4   2  -1   42.76    3.52
  -4   2  -1   40.06    3.20
  -4   2  -1   44.27    3.42
  -4   2  -1   47.74    3.29
  -4   2  -1   49.25    3.00
  -4   2  -1   41.06    3.34
  -4   2  -1   48.43    3.49
  -4   2  -1   39.96    3.29
  -4   2   0  811.57   37.23
  -4   2   0  813.57   36.99
  -4   2   0  771.12   37.23
  -4   2   0  777.17   37.05
  -4   2   0  801.39   37.24
  -4   2   0  770.90   36.86
  -4   2   0  808.13   37.33
  -4   2   0  783.09   36.88
  -4   2   0  803.42   37.23
  -4   2   1  498.57   23.14
  -4   2   1  498.50   23.34
  -4   2   1  503.78   22.81
  -4   2   1  477.65   23.09
  -4   2   1  483.80   23.18
  -4   2   1  463.12   23.31
  -4   2   1  489.22   23.27
  -4   2   1  495.88   23.37
  -4   2   1  514.47   23.45
  -4   2   1  465.32   23.10
  -4   2   1  481.38   23.09
  -4   2   1  468.93   23.02
  -4   2   2    1.78    1.45
  -4   2   2    0.65    0.76
  -4   2   2    0.24    1.18
  -4   2   2    0.30    0.97
  -4   2   2    1.72    1.13
  -4   2   2    0.10    1.23
  -4   2   2    0.91    0.86
  -4   2   2    0.58    0.59
  -4   2   2    0.44    1.05
  -4   2   2    0.84    1.01
  -4   2   2    0.53    1.14
  -4   2   3  680.53   32.16
  -4   2   3  728.86   32.73
  -4   2   3  711.79   32.43
  -4   2   3  660.38   32.48
  -4   2   3  707.25   32.72
  -4   2   3  681.46   32.24
  -4   2   3  711.42   32.55
  -4   2   3  704.91   32.60
  -4   2   3  652.57   31.97
  -4   2   3  727.35   32.74
  -4   2   3  687.62   32.23
  -4   2   3  705.36   32.20
  -4   2   3  667.10   31.86
  -4   2   3  697.81   32.47
  -4   2   4  294.06   14.81
  -4   2   4  308.77   15.11
  -4   2   4  303.35   15.17
  -4   2   4  320.96   15.57
  -4   2   4  300.79   14.71
  -4   2   4  306.72   14.91
  -4   2   4  299.59   14.68
  -4   2   4  304.64   15.30
  -4   2   4  314.44   14.96
  -4   2   4  292.07   14.85
  -4   2   5  127.11    7.65
  -4   2   5  143.63    8.46
  -4   2   5  149.21    7.66
  -4   2   5  133.90    7.92
  -4   2   5  138.26    7.93
  -4   2   5  147.65    7.96
  -4   2   5  137.80    7.17
  -4   2   5  148.20    7.77
  -4   2   5  139.48    7.42
  -4   2   6   11.25    2.06
  -4   2   6   11.83    1.75
  -4   2   6   16.60    2.02
  -4   2   6   13.25    2.05
  -4   2   6   11.51    1.74
  -4   2   6   12.69    1.94
  -4   2   6    6.61    2.36
  -4   2   7   10.09    1.75
  -4   2   7    5.48    1.63
  -4   2   7   10.27    2.27
  -4   2   7    8.38    1.77
  -4   2   7    5.92    1.69
  -4   2   8   49.29    4.15
  -4   2   8   68.52    4.95
  -4   2   8   80.59    5.07
  -4   2   8   58.71    5.05
  -4   2   8   61.05    4.55
  -4   2   8   65.19    4.63
  -4   2   8   51.27    5.25
  -4   2   9    0.22    1.81
  -4   2   9   -0.24    1.96
  -4   2   9    0.41    1.21
  -4   2   9    1.46    1.21
  -4   2   9   -1.06    2.35
  -4   2   9    1.89    1.35
  -4   2   9    0.64    1.61
  -4   2  10    0.92    1.90
  -4   2  10    4.04    1.53
  -4   2  10   -0.50    2.22
  -4   2  10    0.42    1.48
  -4   2  10    1.12    1.38
  -4   2  10   -0.87    1.93
  -4   2  11   29.59    3.31
  -4   2  11   40.15    3.45
  -4   2  11   23.40    3.36
  -4   2  11   33.84    3.07
  -4   2  12    1.50    1.40
  -4   2  12   -0.28    1.35
  -4   3  -9    3.44    1.66
  -4   3  -9    2.40    1.42
  -4   3  -8   14.54    2.45
  -4   3  -8   13.13    2.56
  -4   3  -7   58.49    4.97
  -4   3  -7   48.03    4.70
  -4   3  -6   67.63    5.64
  -4   3  -6   70.60    5.17
  -4   3  -5   99.98    6.63
  -4   3  -5   91.17    6.18
  -4   3  -5   92.57    6.06
  -4   3  -5   83.85    5.67
  -4   3  -4    7.88    2.26
  -4   3  -4    5.22    1.61
  -4   3  -4    7.94    1.46
  -4   3  -4    5.07    1.55
  -4   3  -4    4.73    1.49
  -4   3  -4    7.60    2.09
  -4   3  -4    7.78    1.71
  -4   3  -3    0.71    1.66
  -4   3  -3    2.12    1.60
  -4   3  -3    0.54    0.95
  -4   3  -3    1.66    1.65
  -4   3  -3    1.38    1.35
  -4   3  -3    1.41    1.31
  -4   3  -3    1.45    1.31
  -4   3  -3   -0.15    1.24
  -4   3  -2   21.43    2.68
  -4   3  -2   24.91    2.30
  -4   3  -2   21.37    2.28
  -4   3  -2   23.37    2.45
  -4   3  -2   23.14    2.60
  -4   3  -2   24.05    2.54
  -4   3  -2   22.21    2.58
  -4   3  -2   24.01    2.52
  -4   3  -1  184.05    9.94
  -4   3  -1  192.44    9.93
  -4   3  -1  176.09    9.33
  -4   3  -1  188.54    9.93
  -4   3  -1  193.42    9.91
  -4   3  -1  183.37    9.74
  -4   3  -1  174.04    9.32
  -4   3  -1  198.39    9.76
  -4   3  -1  173.11    9.89
  -4   3  -1  191.49    9.90
  -4   3  -1  178.91    9.33
  -4   3  -1  181.38    9.74
  -4   3   0  206.32   11.08
  -4   3   0  218.34   11.14
  -4   3   0  211.69   11.09
  -4   3   0  219.68   11.21
  -4   3   0  213.18   10.94
  -4   3   0  216.22   11.07
  -4   3   0  209.08   10.75
  -4   3   1  384.51   19.05
  -4   3   1  378.41   19.22
  -4   3   1  404.82   19.29
  -4   3   1  401.10   18.91
  -4   3   1  396.92   19.25
  -4   3   1  377.52   19.09
  -4   3   1  408.37   19.23
  -4   3   1  402.57   19.05
  -4   3   1  418.56   19.36
  -4   3   1  379.22   18.95
  -4   3   2  355.41   17.32
  -4   3   2  364.50   17.37
  -4   3   2  355.52   17.40
  -4   3   2  334.06   17.30
  -4   3   2  361.92   17.53
  -4   3   2  368.11   17.35
  -4   3   2  338.63   16.94
  -4   3   2  360.65   17.08
  -4   3   2  349.14   17.50
  -4   3   2  348.84   17.19
  -4   3   2  366.17   17.41
  -4   3   2  346.85   17.15
  -4   3   3   16.04    1.67
  -4   3   3   15.39    1.86
  -4   3   3   17.31    1.74
  -4   3   3   11.56    1.29
  -4   3   3   12.47    1.51
  -4   3   3   18.06    2.20
  -4   3   3   13.78    1.87
  -4   3   3   14.48    1.84
  -4   3   4  206.78   10.84
  -4   3   4  211.21   11.27
  -4   3   4  210.09   11.43
  -4   3   4  223.53   11.07
  -4   3   4  220.48   10.85
  -4   3   4  214.41   10.84
  -4   3   4  227.96   11.75
  -4   3   4  210.72   11.10
  -4   3   4  215.98   11.05
  -4   3   5   55.38    3.79
  -4   3   5   51.46    3.96
  -4   3   5   51.32    3.56
  -4   3   5   54.95    4.03
  -4   3   5   56.38    4.10
  -4   3   5   52.67    3.34
  -4   3   5   62.63    4.70
  -4   3   5   49.96    4.11
  -4   3   5   52.99    3.55
  -4   3   5   57.11    3.76
  -4   3   6    8.58    2.61
  -4   3   6   12.10    1.85
  -4   3   6   12.62    1.86
  -4   3   6    9.68    2.01
  -4   3   6   13.77    2.09
  -4   3   6   12.39    2.24
  -4   3   6   10.03    1.92
  -4   3   7   16.27    2.16
  -4   3   7   13.24    2.15
  -4   3   7   13.21    2.13
  -4   3   7   14.17    2.33
  -4   3   7   14.00    2.59
  -4   3   8    0.23    1.80
  -4   3   8    0.80    1.53
  -4   3   8    0.97    1.22
  -4   3   8   -0.18    1.39
  -4   3   8    2.64    2.47
  -4   3   8    1.50    1.44
  -4   3   9    6.77    2.27
  -4   3   9    8.07    1.82
  -4   3   9    7.11    1.94
  -4   3   9    6.15    1.69
  -4   3   9    6.35    2.69
  -4   3   9    7.58    1.65
  -4   3  10    6.36    1.66
  -4   3  10    5.14    1.83
  -4   3  10   10.06    2.35
  -4   3  10    5.77    2.40
  -4   3  10    4.87    2.00
  -4   3  11   10.23    2.08
  -4   3  11    5.47    2.11
  -4   3  11    5.26    1.56
  -4   3  11    5.86    1.85
  -4   4  -9    7.22    1.83
  -4   4  -9    7.01    1.98
  -4   4  -8   35.13    3.78
  -4   4  -7   35.60    3.37
  -4   4  -7   38.17    4.11
  -4   4  -6   56.15    5.05
  -4   4  -6   61.54    4.50
  -4   4  -6   58.08    5.01
  -4   4  -6   44.55    4.30
  -4   4  -5   -0.16    1.30
  -4   4  -5   -0.94    2.14
  -4   4  -5   -0.69    1.80
  -4   4  -5    0.39    1.65
  -4   4  -5    0.58    0.94
  -4   4  -5    1.12    1.44
  -4   4  -4   11.10    2.47
  -4   4  -4   10.61    1.85
  -4   4  -4    8.99    2.15
  -4   4  -4    9.66    1.95
  -4   4  -4   10.88    2.24
  -4   4  -4   12.43    1.78
  -4   4  -4   11.04    1.86
  -4   4  -4   10.53    1.99
  -4   4  -3    1.07    1.45
  -4   4  -3    1.04    1.65
  -4   4  -3    0.60    1.32
  -4   4  -3    1.93    1.31
  -4   4  -3    2.81    1.19
  -4   4  -3    1.18    1.32
  -4   4  -3    2.69    1.96
  -4   4  -3    1.41    1.29
  -4   4  -2  291.94   14.30
  -4   4  -2  268.71   14.10
  -4   4  -2  271.86   14.15
  -4   4  -2  276.18   14.14
  -4   4  -2  274.51   14.50
  -4   4  -2  286.32   14.06
  -4   4  -2  262.96   13.80
  -4   4  -2  274.46   14.25
  -4   4  -1    1.99    1.50
  -4   4  -1    2.48    1.50
  -4   4  -1    3.04    1.66
  -4   4  -1    0.99    1.34
  -4   4  -1    2.36    1.21
  -4   4  -1    3.05    1.22
  -4   4  -1    2.87    1.25
  -4   4  -1    3.09    1.58
  -4   4  -1    1.79    0.92
  -4   4  -1    2.68    1.39
  -4   4   0   57.12    4.06
  -4   4   0   60.73    4.21
  -4   4   0   60.20    3.99
  -4   4   0   60.59    3.81
  -4   4   0   61.57    4.31
  -4   4   0   57.56    4.10
  -4   4   1  218.50   11.12
  -4   4   1  216.81   11.41
  -4   4   1  210.45   11.28
  -4   4   1  215.15   11.41
  -4   4   1  225.59   11.20
  -4   4   1  222.12   11.39
  -4   4   1  211.16   11.13
  -4   4   1  234.30   11.35
  -4   4   1  216.52   11.48
  -4   4   2 1093.87   49.37
  -4   4   2 1058.82   49.51
  -4   4   2 1066.71   49.18
  -4   4   2 1097.73   49.56
  -4   4   2 1044.42   49.12
  -4   4   2 1052.84   49.23
  -4   4   2 1054.42   49.34
  -4   4   2 1041.03   49.13
  -4   4   2 1021.12   48.83
  -4   4   2 1075.38   49.35
  -4   4   2 1056.61   49.27
  -4   4   3  658.13   31.13
  -4   4   3  665.30   31.25
  -4   4   3  673.42   31.48
  -4   4   3  674.96   31.45
  -4   4   3  626.96   30.54
  -4   4   3  669.85   31.16
  -4   4   3  626.40   30.73
  -4   4   3  680.92   30.97
  -4   4   4   54.59    3.90
  -4   4   4   52.17    3.61
  -4   4   4   56.05    3.84
  -4   4   4   57.18    4.27
  -4   4   4   56.33    3.93
  -4   4   4   60.02    4.66
  -4   4   4   55.84    4.37
  -4   4   4   53.38    3.63
  -4   4   4   60.32    3.74
  -4   4   4   56.15    4.14
  -4   4   5   83.39    5.23
  -4   4   5   87.56    5.28
  -4   4   5   88.31    6.30
  -4   4   5   86.41    5.55
  -4   4   5   89.51    4.95
  -4   4   5   84.72    5.76
  -4   4   5   75.63    5.40
  -4   4   5   86.51    5.64
  -4   4   5   79.96    5.07
  -4   4   6   12.26    2.83
  -4   4   6   19.94    2.23
  -4   4   6   17.00    2.33
  -4   4   6   15.01    2.39
  -4   4   6   10.93    2.02
  -4   4   6   11.21    2.17
  -4   4   6   21.03    2.33
  -4   4   7   10.66    2.43
  -4   4   7    7.33    1.78
  -4   4   7   10.18    2.22
  -4   4   7   11.93    1.94
  -4   4   7    8.11    1.97
  -4   4   8    1.60    1.52
  -4   4   8    3.37    1.99
  -4   4   8    5.48    1.60
  -4   4   8    0.54    2.37
  -4   4   8    3.76    1.62
  -4   4   8    4.98    1.62
  -4   4   9   29.32    2.95
  -4   4   9   24.01    2.64
  -4   4   9   27.37    2.91
  -4   4   9   21.72    3.22
  -4   4   9   16.26    3.17
  -4   4   9   24.80    2.90
  -4   4  10    0.26    0.93
  -4   4  10   -0.36    1.40
  -4   4  10    1.33    1.98
  -4   4  10   -1.20    1.73
  -4   4  10    1.61    1.28
  -4   4  10    1.28    1.64
  -4   4  11    3.10    1.62
  -4   4  11    2.25    1.63
  -4   4  11    3.64    1.46
  -4   5  -9   16.91    2.34
  -4   5  -9   15.70    2.42
  -4   5  -8    5.89    2.24
  -4   5  -8    6.70    2.03
  -4   5  -7   51.62    4.62
  -4   5  -7   50.20    4.00
  -4   5  -7   42.35    3.87
  -4   5  -7   44.75    4.60
  -4   5  -6   26.08    3.27
  -4   5  -6   22.58    3.49
  -4   5  -6   23.98    3.00
  -4   5  -6   25.77    2.95
  -4   5  -5  258.42   13.16
  -4   5  -5  249.72   14.20
  -4   5  -5  266.44   14.06
  -4   5  -5  261.77   13.83
  -4   5  -5  263.08   13.91
  -4   5  -5  245.67   13.73
  -4   5  -5  238.04   13.07
  -4   5  -5  262.83   13.71
  -4   5  -5  242.98   13.18
  -4   5  -4    7.66    1.89
  -4   5  -4    6.12    2.01
  -4   5  -4    4.96    1.51
  -4   5  -4    6.34    2.27
  -4   5  -4    8.70    2.06
  -4   5  -4    8.90    1.99
  -4   5  -4    7.36    1.57
  -4   5  -4    6.63    1.93
  -4   5  -4    5.18    1.58
  -4   5  -4    5.89    1.64
  -4   5  -3   46.30    3.95
  -4   5  -3   41.65    3.57
  -4   5  -3   38.15    3.59
  -4   5  -3   42.54    3.40
  -4   5  -3   46.74    4.15
  -4   5  -3   38.48    3.47
  -4   5  -3   39.93    3.51
  -4   5  -3   40.41    3.48
  -4   5  -3   41.68    3.57
  -4   5  -2  139.00    8.11
  -4   5  -2  146.84    8.41
  -4   5  -2  145.56    7.92
  -4   5  -2  144.70    8.31
  -4   5  -2  137.77    8.12
  -4   5  -2  149.82    8.39
  -4   5  -2  145.71    8.18
  -4   5  -2  141.42    8.32
  -4   5  -2  156.02    8.84
  -4   5  -2  145.16    8.36
  -4   5  -1  111.81    6.65
  -4   5  -1  103.68    6.67
  -4   5  -1  110.48    6.82
  -4   5  -1  104.08    6.52
  -4   5  -1  115.82    6.82
  -4   5  -1  111.53    6.74
  -4   5  -1  115.04    6.59
  -4   5  -1  110.22    6.45
  -4   5   0  249.08   13.05
  -4   5   0  245.24   12.90
  -4   5   0  261.40   13.24
  -4   5   0  253.31   12.71
  -4   5   0  256.47   12.98
  -4   5   0  254.94   13.26
  -4   5   1    0.60    1.48
  -4   5   1    0.89    1.33
  -4   5   1   -0.12    1.13
  -4   5   1    0.55    1.31
  -4   5   1    1.14    0.97
  -4   5   1    0.94    1.06
  -4   5   1    1.93    1.69
  -4   5   1    1.34    1.03
  -4   5   1    2.25    1.41
  -4   5   2   88.62    5.24
  -4   5   2   98.19    5.66
  -4   5   2   93.56    6.07
  -4   5   2   95.15    5.84
  -4   5   2   92.04    6.02
  -4   5   2   89.17    5.82
  -4   5   2   93.92    5.73
  -4   5   2   91.36    5.62
  -4   5   3   12.08    2.22
  -4   5   3    9.35    1.74
  -4   5   3   10.20    1.80
  -4   5   3    8.66    1.55
  -4   5   3   11.32    1.86
  -4   5   3    9.55    1.47
  -4   5   4   79.42    5.18
  -4   5   4   79.00    4.90
  -4   5   4   77.04    5.54
  -4   5   4   71.99    5.54
  -4   5   4   88.68    5.60
  -4   5   4   85.78    5.30
  -4   5   4   83.75    4.99
  -4   5   4   79.20    4.95
  -4   5   5   70.20    4.54
  -4   5   5   61.05    4.76
  -4   5   5   63.50    5.36
  -4   5   5   71.36    4.21
  -4   5   5   55.96    4.58
  -4   5   5   73.89    4.61
  -4   5   5   59.07    4.98
  -4   5   5   62.81    4.32
  -4   5   6   63.08    5.64
  -4   5   6   68.06    4.71
  -4   5   6   77.25    4.84
  -4   5   6   59.30    4.68
  -4   5   6   65.06    4.97
  -4   5   6   57.82    4.88
  -4   5   6   56.37    4.90
  -4   5   7    2.63    1.34
  -4   5   7    0.43    1.76
  -4   5   7    0.20    1.36
  -4   5   7    0.19    1.38
  -4   5   7   -0.20    1.74
  -4   5   7    0.64    1.32
  -4   5   8    0.66    1.75
  -4   5   8   -0.76    1.48
  -4   5   8    1.36    1.42
  -4   5   8   -0.55    1.58
  -4   5   8   -0.53    2.40
  -4   5   8    1.94    1.21
  -4   5   9   19.70    2.98
  -4   5   9   25.17    2.65
  -4   5   9   23.25    2.68
  -4   5   9   25.57    2.63
  -4   5  10   -1.25    1.43
  -4   5  10    1.04    1.58
  -4   5  10    1.16    1.77
  -4   6  -9    8.68    1.86
  -4   6  -9    8.64    2.00
  -4   6  -8    3.67    1.77
  -4   6  -8   -0.21    1.88
  -4   6  -7   11.02    2.12
  -4   6  -7   11.85    2.08
  -4   6  -7   16.65    2.72
  -4   6  -6   14.63    2.58
  -4   6  -6   14.59    2.93
  -4   6  -6   16.25    2.47
  -4   6  -6   20.04    2.83
  -4   6  -5   31.32    3.36
  -4   6  -5   31.86    3.52
  -4   6  -5   31.99    3.44
  -4   6  -5   36.19    2.99
  -4   6  -5   27.00    2.95
  -4   6  -5   32.69    3.85
  -4   6  -5   23.57    2.81
  -4   6  -5   33.43    3.46
  -4   6  -5   35.46    3.49
  -4   6  -4    0.39    1.47
  -4   6  -4    0.88    1.31
  -4   6  -4    0.16    1.15
  -4   6  -4    0.99    1.52
  -4   6  -4    1.68    1.89
  -4   6  -4    1.36    1.44
  -4   6  -4   -1.44    2.27
  -4   6  -4    0.78    1.51
  -4   6  -4    2.30    1.54
  -4   6  -3   10.37    2.60
  -4   6  -3    7.91    1.85
  -4   6  -3   10.22    1.96
  -4   6  -3   10.39    2.10
  -4   6  -3   10.90    2.27
  -4   6  -3   11.92    1.86
  -4   6  -3   10.98    1.98
  -4   6  -3   10.67    2.06
  -4   6  -3   10.54    2.06
  -4   6  -2   38.39    3.29
  -4   6  -2   38.95    3.38
  -4   6  -2   42.01    3.59
  -4   6  -2   47.14    3.72
  -4   6  -2   43.06    3.52
  -4   6  -2   35.32    3.24
  -4   6  -2   44.26    3.76
  -4   6  -2   41.94    3.66
  -4   6  -1   12.22    2.10
  -4   6  -1    5.09    1.28
  -4   6  -1    7.98    1.69
  -4   6  -1    6.00    1.35
  -4   6  -1    8.15    1.95
  -4   6  -1    7.00    1.54
  -4   6  -1    5.91    1.61
  -4   6  -1    5.54    1.93
  -4   6  -1    6.01    1.55
  -4   6   0   19.00    2.53
  -4   6   0   18.08    2.06
  -4   6   0   21.47    2.35
  -4   6   0   21.60    2.66
  -4   6   0   20.58    2.10
  -4   6   1  124.80    7.19
  -4   6   1  115.43    6.94
  -4   6   1  118.26    7.30
  -4   6   1  121.29    7.33
  -4   6   1  121.54    6.84
  -4   6   1  118.94    7.48
  -4   6   1  114.87    7.29
  -4   6   2    2.03    1.35
  -4   6   2    3.55    1.81
  -4   6   2    1.84    1.04
  -4   6   2    1.04    1.41
  -4   6   2    2.14    1.25
  -4   6   2    0.83    1.34
  -4   6   3    4.11    1.63
  -4   6   3    3.24    1.99
  -4   6   3    4.03    2.00
  -4   6   3    4.15    1.26
  -4   6   3    2.79    1.44
  -4   6   3    2.39    1.24
  -4   6   3    2.72    1.41
  -4   6   4   73.58    4.92
  -4   6   4   79.10    5.79
  -4   6   4   86.75    5.50
  -4   6   4   79.77    5.26
  -4   6   4   81.24    5.13
  -4   6   4   81.71    5.69
  -4   6   5   75.29    4.99
  -4   6   5   69.20    5.17
  -4   6   5   73.17    4.93
  -4   6   5   74.62    5.72
  -4   6   5   71.79    4.64
  -4   6   5   78.89    5.58
  -4   6   5   73.43    4.95
  -4   6   6    0.36    1.04
  -4   6   6   -1.00    1.72
  -4   6   6   -0.66    1.93
  -4   6   6   -0.17    1.22
  -4   6   6   -0.21    1.57
  -4   6   6    0.27    2.27
  -4   6   6    1.53    1.69
  -4   6   7    5.50    1.89
  -4   6   7    3.35    1.83
  -4   6   7    6.62    1.58
  -4   6   7    6.63    1.74
  -4   6   7    4.00    1.67
  -4   6   7    3.97    1.99
  -4   6   8    0.74    1.33
  -4   6   8    1.23    1.77
  -4   6   8    0.18    1.50
  -4   6   8   -0.90    1.20
  -4   6   8   -1.53    2.47
  -4   6   9    6.67    1.90
  -4   6   9    1.08    1.97
  -4   6   9    4.32    1.38
  -4   6   9    4.71    1.34
  -4   6  10    6.73    1.62
  -4   6  10    4.37    1.77
  -4   7  -9    1.88    1.20
  -4   7  -8   30.22    2.98
  -4   7  -8   29.60    2.73
  -4   7  -7   12.78    2.28
  -4   7  -7   14.42    2.31
  -4   7  -7   14.44    2.28
  -4   7  -6   19.53    2.78
  -4   7  -6   19.74    2.76
  -4   7  -6   22.51    2.81
  -4   7  -6   21.18    2.70
  -4   7  -6   18.70    2.71
  -4   7  -5   62.16    4.84
  -4   7  -5   63.39    4.90
  -4   7  -5   65.73    5.10
  -4   7  -5   59.66    4.24
  -4   7  -5   58.72    4.78
  -4   7  -5   53.78    4.28
  -4   7  -5   55.78    4.50
  -4   7  -5   51.03    4.20
  -4   7  -4   90.53    6.31
  -4   7  -4   92.87    6.27
  -4   7  -4   94.12    6.21
  -4   7  -4   95.90    6.13
  -4   7  -4   96.48    6.74
  -4   7  -4   96.54    6.44
  -4   7  -4   96.57    6.27
  -4   7  -3   56.48    4.17
  -4   7  -3   42.97    3.91
  -4   7  -3   49.45    3.88
  -4   7  -3   49.96    4.32
  -4   7  -3   59.90    4.56
  -4   7  -3   49.68    4.05
  -4   7  -3   46.91    3.96
  -4   7  -3   48.36    4.43
  -4   7  -3   47.06    4.13
  -4   7  -2    4.97    1.38
  -4   7  -2    4.23    1.64
  -4   7  -2    7.41    1.96
  -4   7  -2    7.59    1.96
  -4   7  -2    4.12    1.45
  -4   7  -2    4.58    1.53
  -4   7  -2    5.05    1.91
  -4   7  -1  154.04    8.79
  -4   7  -1  147.10    8.22
  -4   7  -1  153.41    8.52
  -4   7  -1  137.63    8.54
  -4   7  -1  136.20    7.76
  -4   7  -1  133.74    7.73
  -4   7  -1  140.38    8.54
  -4   7  -1  142.86    8.40
  -4   7   0   58.13    4.68
  -4   7   0   48.00    3.67
  -4   7   0   56.53    4.14
  -4   7   0   55.93    4.31
  -4   7   0   53.93    4.53
  -4   7   1   67.79    5.62
  -4   7   1   78.36    5.63
  -4   7   1   81.38    5.04
  -4   7   1   75.76    5.07
  -4   7   1   76.70    5.55
  -4   7   1   80.28    5.47
  -4   7   1   76.20    5.58
  -4   7   2    6.19    1.97
  -4   7   2    7.88    1.83
  -4   7   2    7.95    2.02
  -4   7   2    6.54    2.27
  -4   7   2    7.74    1.78
  -4   7   3  370.89   19.16
  -4   7   3  355.88   19.63
  -4   7   3  392.66   19.13
  -4   7   3  399.37   19.50
  -4   7   3  379.30   19.39
  -4   7   3  368.90   19.76
  -4   7   4   -0.41    1.57
  -4   7   4   -1.37    2.12
  -4   7   4    1.32    1.45
  -4   7   4    0.93    1.06
  -4   7   4    1.11    1.52
  -4   7   5    1.12    1.12
  -4   7   5    1.67    1.32
  -4   7   5   -1.75    2.03
  -4   7   5    1.39    1.14
  -4   7   5    0.24    1.84
  -4   7   5    3.21    1.73
  -4   7   6    6.84    1.62
  -4   7   6    4.28    1.80
  -4   7   6    5.16    2.63
  -4   7   6    4.31    2.11
  -4   7   6    5.10    1.54
  -4   7   6    3.78    1.95
  -4   7   7   12.55    2.37
  -4   7   7    9.15    2.27
  -4   7   7   11.77    2.18
  -4   7   7   14.80    2.11
  -4   7   8    4.20    1.76
  -4   7   8    8.48    1.78
  -4   7   8    3.56    1.33
  -4   7   8    2.73    2.21
  -4   7   8    3.73    1.53
  -4   7   9    2.23    1.35
  -4   7   9    0.17    1.69
  -4   8  -8   26.34    2.47
  -4   8  -8   26.06    2.52
  -4   8  -7   11.28    2.02
  -4   8  -7   12.18    2.06
  -4   8  -7   12.07    1.97
  -4   8  -6   48.64    4.16
  -4   8  -6   48.72    4.13
  -4   8  -6   47.39    3.88
  -4   8  -6   44.91    4.15
  -4   8  -6   48.14    4.17
  -4   8  -5    2.42    1.57
  -4   8  -5    4.49    1.60
  -4   8  -5    1.41    1.48
  -4   8  -5    4.35    1.53
  -4   8  -5    3.43    1.82
  -4   8  -5    3.81    1.21
  -4   8  -5    5.63    2.14
  -4   8  -5    2.26    1.38
  -4   8  -4    8.05    1.94
  -4   8  -4   10.27    1.88
  -4   8  -4    7.95    2.49
  -4   8  -4    8.35    1.90
  -4   8  -4   10.81    2.23
  -4   8  -4   13.07    2.21
  -4   8  -3    0.17    1.17
  -4   8  -3    0.65    1.55
  -4   8  -3    0.18    1.43
  -4   8  -3   -0.57    1.20
  -4   8  -3   -0.17    1.30
  -4   8  -3   -0.21    1.78
  -4   8  -3   -1.22    1.61
  -4   8  -2    5.35    1.95
  -4   8  -2    3.65    1.26
  -4   8  -2    3.30    2.03
  -4   8  -2    3.40    1.26
  -4   8  -2    3.71    1.40
  -4   8  -2    4.13    1.76
  -4   8  -2    3.79    1.87
  -4   8  -1   79.81    5.60
  -4   8  -1   68.32    5.54
  -4   8  -1   77.08    5.80
  -4   8  -1   89.72    5.76
  -4   8  -1   86.50    6.04
  -4   8  -1   73.52    5.26
  -4   8   0  250.28   14.04
  -4   8   0  245.76   13.70
  -4   8   0  265.57   14.20
  -4   8   0  250.85   13.17
  -4   8   0  260.19   13.58
  -4   8   0  267.67   13.96
  -4   8   1   45.46    4.24
  -4   8   1   51.19    4.60
  -4   8   1   36.58    3.92
  -4   8   1   39.46    3.39
  -4   8   1   56.77    4.32
  -4   8   1   43.50    4.18
  -4   8   1   48.80    3.79
  -4   8   2    1.66    1.68
  -4   8   2    4.17    2.11
  -4   8   2    4.11    1.72
  -4   8   2    4.78    2.12
  -4   8   2    2.90    1.47
  -4   8   3   44.32    3.89
  -4   8   3   49.13    4.19
  -4   8   3   37.10    4.20
  -4   8   3   38.22    3.63
  -4   8   3   40.94    3.63
  -4   8   4    0.51    1.30
  -4   8   4    0.48    1.90
  -4   8   4    1.69    1.70
  -4   8   4   -0.16    1.06
  -4   8   4   -0.97    1.54
  -4   8   5   17.80    2.86
  -4   8   5   13.72    2.04
  -4   8   5   12.15    2.16
  -4   8   5   15.37    2.27
  -4   8   5   14.96    3.19
  -4   8   5   18.71    2.69
  -4   8   5   14.79    2.85
  -4   8   6    2.06    2.42
  -4   8   6    0.69    1.45
  -4   8   6    1.50    1.88
  -4   8   6   -1.51    1.67
  -4   8   7   -0.79    1.32
  -4   8   7   -0.17    1.34
  -4   8   7    0.54    1.56
  -4   8   8    5.13    1.92
  -4   8   8    4.25    1.37
  -4   9  -7    2.31    1.35
  -4   9  -7    0.92    1.19
  -4   9  -6   31.85    3.41
  -4   9  -6   41.56    3.60
  -4   9  -5   -0.18    1.22
  -4   9  -5    0.43    1.89
  -4   9  -5   -0.85    1.39
  -4   9  -5    0.15    0.97
  -4   9  -5    0.18    1.32
  -4   9  -5    1.04    1.27
  -4   9  -4    5.17    1.54
  -4   9  -4    7.68    1.73
  -4   9  -4    5.57    2.09
  -4   9  -4    5.16    1.54
  -4   9  -4    4.42    1.87
  -4   9  -4    5.81    1.85
  -4   9  -4    4.80    1.71
  -4   9  -3   62.93    4.38
  -4   9  -3   54.34    4.49
  -4   9  -3   70.52    4.89
  -4   9  -3   63.18    5.05
  -4   9  -3   62.49    5.00
  -4   9  -3   57.22    4.30
  -4   9  -3   63.72    4.92
  -4   9  -2    5.28    2.07
  -4   9  -2    9.12    1.92
  -4   9  -2    5.05    1.90
  -4   9  -2    6.09    2.11
  -4   9  -2    6.51    1.94
  -4   9  -1   14.29    2.61
  -4   9  -1   13.59    2.30
  -4   9  -1   19.37    2.81
  -4   9  -1   10.70    2.07
  -4   9  -1   16.63    2.40
  -4   9   0  183.80   11.08
  -4   9   0  181.44   11.05
  -4   9   0  189.14   10.70
  -4   9   0  191.17   10.54
  -4   9   0  197.41   10.93
  -4   9   1    5.80    1.89
  -4   9   1    6.44    1.70
  -4   9   1    8.12    2.22
  -4   9   1   11.97    2.41
  -4   9   1    7.80    2.48
  -4   9   1    7.19    1.55
  -4   9   1    8.52    2.43
  -4   9   2   29.19    3.53
  -4   9   2   36.79    3.38
  -4   9   2   24.69    3.18
  -4   9   2   29.72    3.05
  -4   9   2   30.03    3.46
  -4   9   3   20.69    3.23
  -4   9   3   21.78    2.81
  -4   9   3   19.81    2.51
  -4   9   3   23.14    3.34
  -4   9   3   27.22    2.94
  -4   9   3   20.08    2.87
  -4   9   4   10.44    2.50
  -4   9   4    8.46    1.95
  -4   9   4    7.43    1.50
  -4   9   4    8.91    2.45
  -4   9   4    6.13    1.64
  -4   9   4    6.84    1.80
  -4   9   5   26.30    2.77
  -4   9   5   25.00    3.20
  -4   9   5   31.91    3.87
  -4   9   6   -0.22    1.93
  -4   9   6    1.45    1.61
  -4   9   6   -1.33    1.32
  -4   9   7    0.18    1.71
  -4   9   7    0.14    1.26
  -4  10  -7    1.02    1.06
  -4  10  -7    0.70    1.12
  -4  10  -6   50.36    3.79
  -4  10  -6   39.99    3.63
  -4  10  -5    4.26    1.47
  -4  10  -5    6.80    1.98
  -4  10  -4    6.89    1.82
  -4  10  -4    6.02    1.51
  -4  10  -4    6.86    2.14
  -4  10  -4    6.89    1.92
  -4  10  -4    5.80    1.67
  -4  10  -3   27.72    2.96
  -4  10  -3   19.78    2.50
  -4  10  -3   22.07    2.92
  -4  10  -3   20.57    2.76
  -4  10  -2   53.00    4.31
  -4  10  -2   55.32    4.69
  -4  10  -2   44.89    4.13
  -4  10  -2   56.06    4.33
  -4  10  -2   53.20    4.48
  -4  10  -1  106.78    6.80
  -4  10  -1   99.83    6.54
  -4  10  -1   99.49    6.81
  -4  10  -1  106.45    7.02
  -4  10   0   -0.96    1.18
  -4  10   0    0.40    1.35
  -4  10   0   -0.22    1.95
  -4  10   0    0.36    1.52
  -4  10   0    1.12    1.80
  -4  10   1   84.16    6.46
  -4  10   1   91.22    5.73
  -4  10   1   93.02    6.20
  -4  10   1   97.01    6.51
  -4  10   1   97.46    6.36
  -4  10   1   91.48    6.50
  -4  10   2   20.71    2.82
  -4  10   2   20.34    2.69
  -4  10   2   21.71    2.49
  -4  10   2   24.22    2.65
  -4  10   2   16.94    2.29
  -4  10   2   17.33    2.79
  -4  10   3    6.11    1.74
  -4  10   3    6.15    2.16
  -4  10   3    8.45    2.25
  -4  10   3    9.76    1.84
  -4  10   3    9.74    1.71
  -4  10   3    8.37    2.01
  -4  10   4    1.55    1.78
  -4  10   4    1.78    1.23
  -4  10   4    2.15    2.02
  -4  10   4    2.29    1.79
  -4  10   4    1.08    1.29
  -4  10   5    6.12    1.44
  -4  10   5    7.96    2.25
  -4  10   6   -0.53    1.17
  -4  10   6    0.16    1.59
  -4  11  -6    0.13    1.09
  -4  11  -6    0.13    0.95
  -4  11  -5    1.74    1.45
  -4  11  -5    0.45    1.22
  -4  11  -5   -0.84    1.08
  -4  11  -4    0.65    1.30
  -4  11  -4   -0.47    1.28
  -4  11  -4    0.27    1.11
  -4  11  -3    0.33    1.36
  -4  11  -3    0.50    1.37
  -4  11  -3    0.36    1.50
  -4  11  -3    1.42    1.09
  -4  11  -3    1.74    1.67
  -4  11  -2    0.82    1.23
  -4  11  -2   -2.20    1.46
  -4  11  -2    2.23    1.21
  -4  11  -2    0.39    1.55
  -4  11  -2    0.98    1.68
  -4  11  -2    1.81    1.51
  -4  11  -1   33.66    3.08
  -4  11  -1   31.70    2.86
  -4  11  -1   27.58    3.08
  -4  11  -1   30.29    3.27
  -4  11  -1   30.55    3.30
  -4  11   0    1.35    1.68
  -4  11   0    0.43    1.23
  -4  11   0    0.70    1.45
  -4  11   0    1.23    1.17
  -4  11   0    0.39    1.50
  -4  11   1    1.93    1.40
  -4  11   1   -0.36    1.46
  -4  11   1    0.98    1.69
  -4  11   1   -0.64    1.32
  -4  11   1   -0.50    1.09
  -4  11   1    0.37    1.57
  -4  11   2    1.08    1.29
  -4  11   2   -0.33    1.42
  -4  11   2   -1.88    1.56
  -4  11   2    0.34    1.38
  -4  11   3   34.00    2.87
  -4  11   3   28.91    2.96
  -4  11   3   27.44    2.51
  -4  11   4   12.95    2.15
  -4  11   4   13.80    1.98
  -4  12  -3    1.76    1.38
  -4  12  -3    1.65    1.25
  -4  12  -3    1.32    1.07
  -4  12  -2    7.01    1.72
  -4  12  -2    7.50    1.70
  -4  12  -2    5.94    1.47
  -4  12  -1    0.30    1.23
  -4  12  -1    2.12    1.34
  -4  12  -1    1.18    1.24
  -4  12   0    2.56    1.22
  -4  12   0    2.75    1.40
  -4  12   1    3.94    1.33
  -4  12   1    5.18    1.44
  -3 -11   3    2.36    1.30
  -3 -11   3    3.74    1.30
  -3 -11   4   31.91    2.81
  -3 -11   4   31.86    2.83
  -3 -11   4   30.08    2.56
  -3 -11   5   69.11    4.42
  -3 -11   5   61.08    4.19
  -3 -11   5   68.18    4.48
  -3 -11   6   11.49    1.65
  -3 -11   6   12.92    1.75
  -3 -11   6   14.52    1.92
  -3 -11   7   -0.98    1.09
  -3 -10  -1    2.25    1.36
  -3 -10  -1   -0.12    1.20
  -3 -10   0   13.53    2.09
  -3 -10   0   14.21    2.28
  -3 -10   1   31.93    3.08
  -3 -10   1   33.84    3.14
  -3 -10   1   33.42    3.39
  -3 -10   1   33.88    2.88
  -3 -10   2    0.89    1.35
  -3 -10   2    0.73    1.17
  -3 -10   2    3.87    1.88
  -3 -10   2    3.92    1.56
  -3 -10   2    1.71    1.50
  -3 -10   3   -0.16    1.24
  -3 -10   3   -1.10    1.85
  -3 -10   3    1.15    1.06
  -3 -10   3    0.73    1.34
  -3 -10   3    1.27    1.48
  -3 -10   3    2.14    1.53
  -3 -10   4  168.15    9.28
  -3 -10   4  150.78    9.29
  -3 -10   4  170.28    9.53
  -3 -10   4  172.10    9.17
  -3 -10   4  165.77    9.50
  -3 -10   5  233.88   12.29
  -3 -10   5  227.93   12.15
  -3 -10   5  222.33   12.00
  -3 -10   5  225.82   11.85
  -3 -10   5  222.14   12.07
  -3 -10   5  219.10   11.93
  -3 -10   6   42.27    3.70
  -3 -10   6   48.44    3.78
  -3 -10   6   44.18    3.64
  -3 -10   6   40.92    3.56
  -3 -10   6   41.53    3.38
  -3 -10   6   43.50    4.08
  -3 -10   7   67.25    4.52
  -3 -10   7   60.43    4.39
  -3 -10   7   64.61    4.35
  -3 -10   7   59.17    4.38
  -3 -10   7   61.57    4.81
  -3 -10   7   63.79    4.63
  -3 -10   8   53.65    3.95
  -3 -10   8   41.50    3.87
  -3 -10   8   48.87    3.67
  -3 -10   8   51.96    3.68
  -3 -10   9    5.65    1.31
  -3 -10   9    4.90    1.60
  -3 -10   9    3.91    1.35
  -3  -9  -2    1.56    1.64
  -3  -9  -1    6.74    1.95
  -3  -9  -1    7.28    1.52
  -3  -9  -1    7.75    1.90
  -3  -9   0   44.38    3.98
  -3  -9   0   52.36    3.91
  -3  -9   0   49.01    4.48
  -3  -9   0   57.24    4.55
  -3  -9   0   49.11    4.32
  -3  -9   1   17.25    2.49
  -3  -9   1   12.44    2.09
  -3  -9   1   15.20    2.80
  -3  -9   1   12.61    2.54
  -3  -9   1   13.03    1.86
  -3  -9   1   12.63    2.65
  -3  -9   2    3.48    1.33
  -3  -9   2    2.15    1.46
  -3  -9   2    2.44    1.57
  -3  -9   2    0.89    1.97
  -3  -9   2    4.07    1.74
  -3  -9   2    3.09    1.81
  -3  -9   3   61.69    5.42
  -3  -9   3   71.37    5.29
  -3  -9   3   68.66    4.98
  -3  -9   3   70.25    4.88
  -3  -9   3   76.51    5.27
  -3  -9   3   64.79    5.40
  -3  -9   3   66.32    5.16
  -3  -9   3   69.92    5.06
  -3  -9   3   67.03    5.39
  -3  -9   4    1.92    1.21
  -3  -9   4    8.76    2.08
  -3  -9   4    5.80    2.14
  -3  -9   4    3.31    2.24
  -3  -9   4    3.02    1.59
  -3  -9   4    2.63    1.58
  -3  -9   4    2.79    2.00
  -3  -9   4    4.02    1.42
  -3  -9   4    4.94    1.85
  -3  -9   5    0.19    1.56
  -3  -9   5   -0.60    1.60
  -3  -9   5    1.58    1.41
  -3  -9   5    0.19    1.09
  -3  -9   5   -0.18    1.09
  -3  -9   5    0.77    1.72
  -3  -9   5   -0.21    1.70
  -3  -9   6  110.63    6.71
  -3  -9   6  113.42    6.79
  -3  -9   6  105.25    6.53
  -3  -9   6  101.39    6.61
  -3  -9   6  102.74    6.71
  -3  -9   6   96.00    6.45
  -3  -9   6  101.20    6.79
  -3  -9   6   87.69    6.86
  -3  -9   7    2.47    2.03
  -3  -9   7    5.43    1.62
  -3  -9   7    5.84    1.51
  -3  -9   7    5.19    1.74
  -3  -9   7    3.42    1.70
  -3  -9   8    2.89    1.42
  -3  -9   8    1.05    1.26
  -3  -9   8    1.47    1.22
  -3  -9   8    1.34    1.58
  -3  -9   8    1.66    1.90
  -3  -9   9    2.44    1.65
  -3  -9   9    1.45    1.21
  -3  -9   9    3.37    1.83
  -3  -9   9    1.63    1.19
  -3  -9   9    1.88    1.22
  -3  -9  10    3.12    1.37
  -3  -9  10    2.18    1.06
  -3  -9  10    2.57    1.43
  -3  -8  -4    3.24    1.45
  -3  -8  -4    7.03    1.83
  -3  -8  -3   -0.39    1.21
  -3  -8  -3    0.76    1.85
  -3  -8  -3    0.17    1.57
  -3  -8  -2   26.15    2.66
  -3  -8  -2   28.20    3.31
  -3  -8  -2   25.47    3.00
  -3  -8  -2   34.02    3.70
  -3  -8  -1   11.78    2.05
  -3  -8  -1   11.63    2.24
  -3  -8  -1    7.07    2.26
  -3  -8  -1   14.59    2.53
  -3  -8   0  170.96    9.85
  -3  -8   0  152.40    9.18
  -3  -8   0  160.63   10.03
  -3  -8   0  159.26    9.75
  -3  -8   0  169.73    9.65
  -3  -8   0  162.04    9.88
  -3  -8   1   32.10    3.58
  -3  -8   1   35.84    3.87
  -3  -8   1   37.19    3.87
  -3  -8   1   37.03    3.51
  -3  -8   1   37.49    4.17
  -3  -8   1   40.20    4.23
  -3  -8   1   44.41    3.87
  -3  -8   1   44.70    3.50
  -3  -8   2  159.24    9.98
  -3  -8   2  166.54    9.73
  -3  -8   2  179.09    9.85
  -3  -8   2  167.43    9.52
  -3  -8   2  159.33    9.72
  -3  -8   2  154.29    9.94
  -3  -8   2  160.76   10.00
  -3  -8   2  164.05    9.31
  -3  -8   3   86.74    5.95
  -3  -8   3   81.86    5.82
  -3  -8   3   79.78    5.51
  -3  -8   3   77.34    5.61
  -3  -8   3   86.90    6.11
  -3  -8   3   69.58    5.86
  -3  -8   3   81.49    5.38
  -3  -8   3   74.03    5.53
  -3  -8   3   70.64    5.91
  -3  -8   4   66.51    5.12
  -3  -8   4   69.86    4.95
  -3  -8   4   67.34    4.97
  -3  -8   4   63.43    5.20
  -3  -8   4   65.60    5.39
  -3  -8   4   67.48    4.78
  -3  -8   4   63.59    4.76
  -3  -8   4   63.31    5.09
  -3  -8   4   64.24    5.25
  -3  -8   5  107.11    7.31
  -3  -8   5  123.99    7.35
  -3  -8   5  114.49    7.11
  -3  -8   5  124.23    7.57
  -3  -8   5  103.98    7.28
  -3  -8   5  109.27    7.30
  -3  -8   6   82.30    5.96
  -3  -8   6   80.96    5.91
  -3  -8   6   90.08    5.90
  -3  -8   6   79.48    6.29
  -3  -8   6   89.05    5.94
  -3  -8   6   79.09    5.78
  -3  -8   6   81.77    5.65
  -3  -8   7  122.59    7.24
  -3  -8   7  117.58    7.25
  -3  -8   7  105.77    7.00
  -3  -8   7  106.81    6.89
  -3  -8   7   92.73    6.65
  -3  -8   7  119.99    7.79
  -3  -8   7  111.51    7.31
  -3  -8   8    1.40    2.05
  -3  -8   8    0.20    1.19
  -3  -8   8   -1.37    1.72
  -3  -8   8   -1.18    1.43
  -3  -8   8   -1.07    1.77
  -3  -8   8    0.18    1.23
  -3  -8   9   52.96    4.28
  -3  -8   9   67.58    4.58
  -3  -8   9   60.80    4.33
  -3  -8   9   44.14    4.45
  -3  -8   9   46.76    4.41
  -3  -8  10   41.58    3.29
  -3  -8  10   40.13    3.30
  -3  -8  10   27.61    3.16
  -3  -8  10   34.58    3.13
  -3  -8  10   35.94    3.50
  -3  -8  11    4.76    1.50
  -3  -8  11    2.84    1.25
  -3  -7  -5   37.30    3.05
  -3  -7  -5   35.67    3.30
  -3  -7  -4    2.07    1.58
  -3  -7  -4    0.77    1.80
  -3  -7  -3   18.96    3.22
  -3  -7  -3   17.13    2.78
  -3  -7  -3   19.58    2.61
  -3  -7  -3   16.82    2.17
  -3  -7  -2   20.36    3.20
  -3  -7  -2   16.89    2.35
  -3  -7  -2   20.27    2.95
  -3  -7  -2   18.27    3.20
  -3  -7  -1  260.14   14.28
  -3  -7  -1  260.04   13.70
  -3  -7  -1  258.86   14.23
  -3  -7  -1  262.14   14.00
  -3  -7  -1  249.53   14.45
  -3  -7   0   24.58    2.91
  -3  -7   0   25.03    2.83
  -3  -7   0   25.63    2.62
  -3  -7   0   26.93    3.43
  -3  -7   0   26.24    3.21
  -3  -7   0   21.57    3.23
  -3  -7   1   90.92    6.06
  -3  -7   1   72.82    6.04
  -3  -7   1   81.56    5.46
  -3  -7   1   83.39    5.37
  -3  -7   1   77.73    5.81
  -3  -7   1   81.15    5.70
  -3  -7   1   72.23    5.59
  -3  -7   1   78.68    5.92
  -3  -7   2  715.33   34.65
  -3  -7   2  708.17   34.09
  -3  -7   2  730.20   34.20
  -3  -7   2  709.10   34.34
  -3  -7   2  687.80   33.90
  -3  -7   2  683.57   34.55
  -3  -7   2  721.87   34.36
  -3  -7   2  715.47   34.45
  -3  -7   2  715.86   34.64
  -3  -7   3   74.59    5.39
  -3  -7   3   83.10    5.38
  -3  -7   3   78.92    5.49
  -3  -7   3   70.11    5.03
  -3  -7   3   78.03    5.47
  -3  -7   3   75.84    5.24
  -3  -7   3   73.41    5.69
  -3  -7   3   70.67    5.60
  -3  -7   3   74.88    5.69
  -3  -7   4    1.00    1.56
  -3  -7   4    2.30    1.45
  -3  -7   4    2.46    2.02
  -3  -7   4    1.01    1.13
  -3  -7   4    1.58    2.14
  -3  -7   4    0.20    1.50
  -3  -7   4    1.09    1.26
  -3  -7   4    2.37    1.86
  -3  -7   4    0.68    1.48
  -3  -7   5  431.47   22.44
  -3  -7   5  467.24   22.79
  -3  -7   5  460.57   22.70
  -3  -7   5  485.54   22.65
  -3  -7   5  424.17   21.97
  -3  -7   5  459.10   22.41
  -3  -7   5  437.13   22.64
  -3  -7   6  231.78   12.12
  -3  -7   6  192.86   12.15
  -3  -7   6  220.58   11.78
  -3  -7   6  208.58   11.78
  -3  -7   6  211.15   11.62
  -3  -7   6  203.46   11.84
  -3  -7   7    1.49    1.64
  -3  -7   7    1.88    1.33
  -3  -7   7    1.88    1.71
  -3  -7   7    2.84    1.91
  -3  -7   7    4.81    1.68
  -3  -7   7    5.92    1.83
  -3  -7   7    3.47    2.46
  -3  -7   8   20.28    2.97
  -3  -7   8   26.04    3.28
  -3  -7   8   28.15    3.00
  -3  -7   8   27.19    2.90
  -3  -7   8   20.26    3.39
  -3  -7   8   22.21    2.70
  -3  -7   9    3.80    1.79
  -3  -7   9    3.02    2.14
  -3  -7   9    4.04    1.63
  -3  -7   9    4.48    1.55
  -3  -7   9    3.64    1.50
  -3  -7   9    6.00    2.05
  -3  -7  10    0.21    1.77
  -3  -7  10    2.03    1.39
  -3  -7  10   -0.53    1.50
  -3  -7  10    0.60    1.75
  -3  -7  10    0.36    1.22
  -3  -7  11    0.55    1.10
  -3  -7  11   -0.30    1.07
  -3  -7  11    0.45    1.31
  -3  -7  11    0.15    1.13
  -3  -7  11   -0.89    1.60
  -3  -7  12    6.07    1.51
  -3  -6  -5   14.49    2.29
  -3  -6  -5   15.78    2.55
  -3  -6  -4   10.63    2.06
  -3  -6  -4   10.97    2.62
  -3  -6  -4   11.79    2.40
  -3  -6  -3    1.20    2.11
  -3  -6  -3   -0.40    1.73
  -3  -6  -3    1.00    1.36
  -3  -6  -3   -0.66    1.86
  -3  -6  -2    3.84    2.07
  -3  -6  -2    3.75    1.64
  -3  -6  -2    4.47    2.00
  -3  -6  -2    3.41    2.42
  -3  -6  -1  200.10   11.12
  -3  -6  -1  188.66   10.78
  -3  -6  -1  201.38   11.36
  -3  -6  -1  212.31   11.61
  -3  -6  -1  202.72   11.73
  -3  -6   0    7.15    1.83
  -3  -6   0    9.12    2.05
  -3  -6   0    5.90    1.59
  -3  -6   0    8.42    2.17
  -3  -6   0    6.50    1.44
  -3  -6   0    6.85    2.16
  -3  -6   0    8.81    1.88
  -3  -6   0    8.48    2.40
  -3  -6   1  111.49    6.92
  -3  -6   1  114.12    7.15
  -3  -6   1  108.68    6.65
  -3  -6   1  116.46    6.98
  -3  -6   1  109.17    7.14
  -3  -6   1  114.74    7.20
  -3  -6   1  104.78    6.47
  -3  -6   2   75.50    5.23
  -3  -6   2   82.94    5.67
  -3  -6   2   79.31    5.29
  -3  -6   2   84.64    5.87
  -3  -6   2   75.53    5.10
  -3  -6   2   85.17    5.95
  -3  -6   2   84.69    5.54
  -3  -6   2   88.36    5.61
  -3  -6   2   83.93    5.70
  -3  -6   2   85.92    5.89
  -3  -6   3  115.16    6.94
  -3  -6   3  112.02    6.57
  -3  -6   3  109.25    6.84
  -3  -6   3  106.54    7.11
  -3  -6   3  104.83    6.65
  -3  -6   3  107.87    7.00
  -3  -6   3  111.64    6.98
  -3  -6   3  123.33    7.32
  -3  -6   4   48.36    4.37
  -3  -6   4   48.05    3.82
  -3  -6   4   48.64    3.97
  -3  -6   4   56.49    3.98
  -3  -6   4   44.29    4.19
  -3  -6   4   52.42    3.83
  -3  -6   4   52.71    4.10
  -3  -6   4   46.06    4.03
  -3  -6   5  306.45   15.47
  -3  -6   5  279.39   15.12
  -3  -6   5  288.94   15.02
  -3  -6   5  292.46   14.87
  -3  -6   5  298.63   15.51
  -3  -6   5  293.12   15.19
  -3  -6   5  300.50   15.42
  -3  -6   6   25.18    2.78
  -3  -6   6   29.55    3.25
  -3  -6   6   27.94    3.19
  -3  -6   6   26.80    2.82
  -3  -6   6   34.61    3.44
  -3  -6   6   25.15    2.78
  -3  -6   6   31.36    3.68
  -3  -6   7   75.05    5.59
  -3  -6   7   87.47    5.53
  -3  -6   7   79.18    5.49
  -3  -6   7   68.27    5.81
  -3  -6   7   77.76    5.26
  -3  -6   7   59.96    5.17
  -3  -6   7   70.64    5.39
  -3  -6   8   38.10    3.95
  -3  -6   8   43.46    3.76
  -3  -6   8   34.45    3.61
  -3  -6   8   39.83    3.60
  -3  -6   8   36.43    4.09
  -3  -6   8   32.55    3.57
  -3  -6   8   38.49    3.82
  -3  -6   9    1.46    2.13
  -3  -6   9    1.05    1.52
  -3  -6   9    0.63    1.26
  -3  -6   9    1.27    1.65
  -3  -6   9    0.60    1.40
  -3  -6   9    1.63    1.97
  -3  -6  10    1.00    1.41
  -3  -6  10    1.18    1.56
  -3  -6  10    0.88    1.98
  -3  -6  10    0.23    1.80
  -3  -6  10    4.11    1.68
  -3  -6  11    1.64    1.32
  -3  -6  11    1.04    1.27
  -3  -6  11    0.40    1.63
  -3  -6  11    1.22    1.64
  -3  -6  11    2.10    1.38
  -3  -6  12    4.71    1.28
  -3  -6  12    6.81    1.72
  -3  -5  -6    1.04    1.53
  -3  -5  -5   -0.20    1.79
  -3  -5  -5    1.78    1.68
  -3  -5  -4  152.43    8.34
  -3  -5  -4  144.60    9.00
  -3  -5  -4  142.42    8.77
  -3  -5  -4  136.64    8.46
  -3  -5  -3   39.92    3.34
  -3  -5  -3   35.84    3.92
  -3  -5  -3   32.14    3.71
  -3  -5  -3   37.19    3.68
  -3  -5  -2    0.67    1.27
  -3  -5  -2    0.21    1.85
  -3  -5  -2    1.68    1.37
  -3  -5  -2    1.55    2.02
  -3  -5  -2    1.00    1.70
  -3  -5  -1    3.69    1.32
  -3  -5  -1    4.41    1.48
  -3  -5  -1    3.03    1.49
  -3  -5  -1    5.39    2.23
  -3  -5  -1    5.82    1.95
  -3  -5  -1    3.97    1.99
  -3  -5   0    6.20    1.62
  -3  -5   0    9.38    1.67
  -3  -5   0    5.68    1.42
  -3  -5   0    7.91    2.25
  -3  -5   0    5.75    1.89
  -3  -5   0    7.29    1.33
  -3  -5   0   10.08    1.90
  -3  -5   0    7.38    2.00
  -3  -5   1   51.45    3.63
  -3  -5   1   59.41    4.21
  -3  -5   1   55.50    3.77
  -3  -5   1   53.32    3.94
  -3  -5   1   47.82    4.10
  -3  -5   1   55.71    4.24
  -3  -5   1   53.68    3.73
  -3  -5   1   51.86    3.90
  -3  -5   2 1162.26   53.56
  -3  -5   2 1184.94   53.24
  -3  -5   2 1108.64   53.09
  -3  -5   2 1139.87   53.41
  -3  -5   2 1140.76   53.74
  -3  -5   2 1135.75   53.02
  -3  -5   2 1152.42   53.52
  -3  -5   2 1149.33   53.62
  -3  -5   2 1134.68   53.34
  -3  -5   2 1132.18   53.66
  -3  -5   3 1025.92   47.01
  -3  -5   3 1019.88   47.26
  -3  -5   3 1028.17   47.15
  -3  -5   3 1023.35   47.42
  -3  -5   3  987.72   47.12
  -3  -5   3  973.29   46.75
  -3  -5   3 1008.65   47.11
  -3  -5   3 1023.82   47.46
  -3  -5   3  992.87   47.20
  -3  -5   3  979.08   46.94
  -3  -5   4   85.89    5.41
  -3  -5   4   82.29    5.49
  -3  -5   4   87.65    5.57
  -3  -5   4   79.76    5.22
  -3  -5   4   86.43    5.29
  -3  -5   4   91.02    5.48
  -3  -5   4   84.46    5.77
  -3  -5   4   93.61    6.05
  -3  -5   4   89.50    5.64
  -3  -5   5   54.10    4.44
  -3  -5   5   53.72    4.16
  -3  -5   5   56.99    4.33
  -3  -5   5   57.08    4.15
  -3  -5   5   49.44    3.79
  -3  -5   5   59.44    4.09
  -3  -5   5   53.49    3.96
  -3  -5   5   54.20    3.91
  -3  -5   5   54.85    3.73
  -3  -5   6  154.26    8.80
  -3  -5   6  149.84    8.81
  -3  -5   6  147.79    8.42
  -3  -5   6  141.11    8.73
  -3  -5   6  161.12    9.35
  -3  -5   6  134.94    8.04
  -3  -5   6  158.16    8.64
  -3  -5   6  153.46    8.06
  -3  -5   7  515.56   23.19
  -3  -5   7  469.66   23.21
  -3  -5   7  488.55   22.98
  -3  -5   7  409.92   22.91
  -3  -5   7  466.94   23.61
  -3  -5   7  430.46   23.07
  -3  -5   8   51.28    4.07
  -3  -5   8   44.15    4.13
  -3  -5   8   45.66    4.56
  -3  -5   8   46.54    3.97
  -3  -5   8   37.75    3.76
  -3  -5   8   52.18    4.23
  -3  -5   8   36.15    3.81
  -3  -5   8   46.55    4.37
  -3  -5   9    2.13    2.04
  -3  -5   9   -0.35    1.64
  -3  -5   9    0.82    1.42
  -3  -5   9   -0.42    1.26
  -3  -5   9   -1.96    1.85
  -3  -5   9   -0.39    1.78
  -3  -5   9    0.74    1.99
  -3  -5   9   -0.21    1.47
  -3  -5  10   14.33    2.80
  -3  -5  10   14.98    2.68
  -3  -5  10   25.28    2.88
  -3  -5  10   11.00    2.49
  -3  -5  10   21.91    2.69
  -3  -5  10   10.15    2.65
  -3  -5  11    9.19    2.00
  -3  -5  11    5.68    2.09
  -3  -5  11   11.27    2.18
  -3  -5  11    8.69    1.94
  -3  -5  11    5.43    1.89
  -3  -5  11    7.46    2.11
  -3  -5  12    1.24    1.61
  -3  -5  12    1.79    1.17
  -3  -5  12    1.10    1.24
  -3  -5  12    1.08    1.12
  -3  -4  -5   57.76    4.42
  -3  -4  -5   48.44    4.45
  -3  -4  -4   41.93    3.88
  -3  -4  -4   38.91    3.29
  -3  -4  -4   38.79    3.96
  -3  -4  -4   37.76    3.59
  -3  -4  -3   23.85    2.86
  -3  -4  -3   25.72    3.29
  -3  -4  -3   24.64    3.09
  -3  -4  -3   25.92    2.57
  -3  -4  -2    8.73    1.68
  -3  -4  -2   10.97    1.94
  -3  -4  -2    6.17    1.43
  -3  -4  -2    8.23    2.10
  -3  -4  -2   11.19    2.37
  -3  -4  -2   11.21    2.20
  -3  -4  -1  395.43   19.68
  -3  -4  -1  404.67   20.25
  -3  -4  -1  397.42   19.53
  -3  -4  -1  427.29   19.86
  -3  -4  -1  424.13   20.33
  -3  -4  -1  416.70   20.31
  -3  -4  -1  368.75   19.67
  -3  -4  -1  406.38   19.94
  -3  -4   0    1.98    1.07
  -3  -4   0    1.86    1.14
  -3  -4   0    0.55    1.21
  -3  -4   0    3.90    1.83
  -3  -4   0    2.64    0.90
  -3  -4   0    2.37    1.01
  -3  -4   0    1.99    1.39
  -3  -4   0    2.65    1.66
  -3  -4   1  262.98   13.82
  -3  -4   1  278.93   13.21
  -3  -4   1  274.88   13.43
  -3  -4   1  259.36   13.10
  -3  -4   1  264.92   13.45
  -3  -4   1  257.67   13.00
  -3  -4   1  275.82   13.75
  -3  -4   1  254.31   13.56
  -3  -4   1  271.66   13.55
  -3  -4   1  270.14   13.69
  -3  -4   1  255.30   13.24
  -3  -4   1  261.55   13.65
  -3  -4   2    6.87    1.81
  -3  -4   2    5.71    1.46
  -3  -4   2    3.02    1.14
  -3  -4   2    4.67    1.50
  -3  -4   2    4.99    1.30
  -3  -4   2    4.21    1.55
  -3  -4   2    4.97    1.09
  -3  -4   2    2.89    1.35
  -3  -4   2    3.43    0.99
  -3  -4   2    3.00    1.22
  -3  -4   3 1213.02   57.06
  -3  -4   3 1285.99   57.80
  -3  -4   3 1228.96   57.46
  -3  -4   3 1258.47   57.59
  -3  -4   3 1101.57   56.91
  -3  -4   3 1333.50   57.84
  -3  -4   3 1225.03   57.42
  -3  -4   3 1275.04   57.44
  -3  -4   3 1268.21   57.40
  -3  -4   3 1221.18   57.29
  -3  -4   3 1292.55   57.48
  -3  -4   3 1277.17   57.29
  -3  -4   4   -0.13    1.14
  -3  -4   4    0.60    1.57
  -3  -4   4    0.32    1.60
  -3  -4   4   -1.13    1.40
  -3  -4   4    1.44    1.21
  -3  -4   4   -0.12    0.99
  -3  -4   4    0.12    1.21
  -3  -4   4    0.59    0.82
  -3  -4   4    0.24    0.87
  -3  -4   4   -0.11    0.90
  -3  -4   4    0.57    1.05
  -3  -4   4    0.12    1.20
  -3  -4   4   -0.45    0.95
  -3  -4   5  118.73    6.70
  -3  -4   5  105.08    6.31
  -3  -4   5  107.30    6.27
  -3  -4   5  119.42    6.49
  -3  -4   5  117.33    6.62
  -3  -4   5  113.90    6.25
  -3  -4   5  106.62    6.31
  -3  -4   5  109.77    6.70
  -3  -4   6  606.25   29.44
  -3  -4   6  616.86   29.27
  -3  -4   6  609.91   29.46
  -3  -4   6  593.33   28.74
  -3  -4   6  620.45   29.37
  -3  -4   6  599.93   29.79
  -3  -4   6  615.67   29.15
  -3  -4   7  136.25    8.45
  -3  -4   7  131.07    7.76
  -3  -4   7  114.68    7.54
  -3  -4   7  127.53    8.01
  -3  -4   7  143.60    8.21
  -3  -4   7  141.24    7.91
  -3  -4   8    1.51    1.94
  -3  -4   8    0.21    1.69
  -3  -4   8    1.49    1.39
  -3  -4   8    0.71    2.00
  -3  -4   8    1.34    1.48
  -3  -4   8   -0.59    1.60
  -3  -4   8    1.66    1.65
  -3  -4   9   11.67    2.64
  -3  -4   9    9.60    2.22
  -3  -4   9   16.51    2.50
  -3  -4   9   12.35    2.96
  -3  -4   9   10.48    2.01
  -3  -4   9    5.84    2.30
  -3  -4   9   13.37    2.70
  -3  -4  10    0.87    1.67
  -3  -4  10    1.75    2.03
  -3  -4  10    0.47    2.14
  -3  -4  10    1.93    1.72
  -3  -4  10    4.19    2.19
  -3  -4  10    0.22    1.67
  -3  -4  11   -0.20    1.64
  -3  -4  11    0.82    1.80
  -3  -4  11    1.00    1.52
  -3  -4  11    0.93    1.95
  -3  -4  11    0.20    1.49
  -3  -4  11    3.27    2.02
  -3  -4  12    6.65    1.75
  -3  -4  12   11.09    2.32
  -3  -4  12   10.51    1.83
  -3  -4  12    7.49    1.92
  -3  -4  12   14.57    2.08
  -3  -4  13    2.68    1.34
  -3  -3  -5  368.14   18.81
  -3  -3  -5  391.45   18.89
  -3  -3  -5  361.30   18.94
  -3  -3  -4   73.73    5.31
  -3  -3  -4   70.96    4.75
  -3  -3  -4   70.49    5.17
  -3  -3  -4   76.81    5.21
  -3  -3  -3   70.25    4.56
  -3  -3  -3   79.46    5.26
  -3  -3  -3   71.50    5.16
  -3  -3  -3   69.59    5.13
  -3  -3  -2   18.08    2.34
  -3  -3  -2   22.63    2.64
  -3  -3  -2   19.58    2.17
  -3  -3  -2   18.86    2.61
  -3  -3  -1  241.86   12.44
  -3  -3  -1  251.88   12.59
  -3  -3  -1  214.48   11.83
  -3  -3  -1  230.34   11.81
  -3  -3  -1  247.25   12.17
  -3  -3  -1  250.93   12.53
  -3  -3  -1  246.75   12.00
  -3  -3  -1  231.38   11.85
  -3  -3  -1  242.33   12.47
  -3  -3   0   31.45    2.38
  -3  -3   0   28.56    2.27
  -3  -3   0   29.39    2.07
  -3  -3   0   29.71    2.52
  -3  -3   0   31.42    2.41
  -3  -3   0   26.07    2.49
  -3  -3   0   29.96    2.78
  -3  -3   0   31.84    2.36
  -3  -3   0   27.18    2.78
  -3  -3   0   28.74    2.56
  -3  -3   0   31.80    2.34
  -3  -3   1   51.23    3.20
  -3  -3   1   51.49    3.64
  -3  -3   1   49.95    3.20
  -3  -3   1   46.41    3.05
  -3  -3   1   50.37    3.28
  -3  -3   1   44.09    3.20
  -3  -3   1   54.63    3.84
  -3  -3   1   48.94    3.59
  -3  -3   1   49.12    3.26
  -3  -3   1   47.26    2.94
  -3  -3   1   49.33    3.59
  -3  -3   1   48.67    3.58
  -3  -3   1   54.29    3.52
  -3  -3   2  869.06   35.32
  -3  -3   2  819.62   35.11
  -3  -3   2  806.72   34.77
  -3  -3   2  845.33   35.11
  -3  -3   2  799.13   34.89
  -3  -3   2  837.19   34.95
  -3  -3   2  793.10   34.92
  -3  -3   2  777.82   34.86
  -3  -3   2  643.41   33.94
  -3  -3   2  652.99   33.93
  -3  -3   2  813.61   35.07
  -3  -3   2  769.52   34.46
  -3  -3   2  823.28   34.72
  -3  -3   2  827.67   35.08
  -3  -3   3   95.04    4.96
  -3  -3   3   90.39    4.99
  -3  -3   3   81.43    4.79
  -3  -3   3   80.90    4.80
  -3  -3   3   90.09    5.17
  -3  -3   3   81.92    4.82
  -3  -3   3   87.23    4.48
  -3  -3   3   81.76    4.57
  -3  -3   3   72.69    3.94
  -3  -3   3   88.63    4.77
  -3  -3   3   90.83    5.10
  -3  -3   3  102.26    5.49
  -3  -3   3   73.20    3.93
  -3  -3   3  100.25    5.08
  -3  -3   3   89.32    4.84
  -3  -3   3   86.70    4.92
  -3  -3   4  548.83   27.00
  -3  -3   4  599.77   27.09
  -3  -3   4  588.55   26.94
  -3  -3   4  556.98   26.75
  -3  -3   4  624.27   27.15
  -3  -3   4  601.89   27.47
  -3  -3   4  568.72   26.86
  -3  -3   4  577.22   26.97
  -3  -3   4  550.33   26.78
  -3  -3   4  580.60   27.20
  -3  -3   4  538.45   26.30
  -3  -3   4  574.12   26.31
  -3  -3   4  569.32   26.84
  -3  -3   4  538.90   26.72
  -3  -3   5   34.18    2.73
  -3  -3   5   36.88    3.05
  -3  -3   5   33.80    2.88
  -3  -3   5   30.03    2.67
  -3  -3   5   32.61    2.71
  -3  -3   5   36.13    2.68
  -3  -3   5   32.09    2.29
  -3  -3   5   33.93    2.55
  -3  -3   5   33.30    2.71
  -3  -3   6  377.29   20.01
  -3  -3   6  398.91   19.95
  -3  -3   6  410.03   19.77
  -3  -3   6  401.58   19.44
  -3  -3   6  400.45   20.37
  -3  -3   6  397.35   19.42
  -3  -3   6  439.67   19.96
  -3  -3   7   28.22    3.15
  -3  -3   7   23.32    2.89
  -3  -3   7   23.64    3.28
  -3  -3   7   28.49    2.99
  -3  -3   7   24.91    2.17
  -3  -3   7   23.93    2.63
  -3  -3   7   27.92    2.76
  -3  -3   8  204.66   11.92
  -3  -3   8  175.40   11.36
  -3  -3   8  233.53   11.79
  -3  -3   8  231.76   11.77
  -3  -3   8  191.56   11.85
  -3  -3   8  228.96   12.02
  -3  -3   9   97.61    7.40
  -3  -3   9  108.97    7.55
  -3  -3   9  103.26    7.28
  -3  -3   9  126.16    7.54
  -3  -3   9  111.74    7.23
  -3  -3   9   92.38    7.08
  -3  -3   9  130.59    7.46
  -3  -3  10    9.81    2.76
  -3  -3  10    4.98    2.21
  -3  -3  10   10.82    2.36
  -3  -3  10    7.00    2.04
  -3  -3  10    2.79    2.27
  -3  -3  10    4.32    2.26
  -3  -3  11    1.68    2.01
  -3  -3  11   -1.46    1.78
  -3  -3  11    0.21    1.51
  -3  -3  11   -1.27    1.92
  -3  -3  11   -0.67    2.03
  -3  -3  11    2.07    1.53
  -3  -3  12    2.99    1.57
  -3  -3  12    3.16    1.46
  -3  -3  12    1.22    1.41
  -3  -3  12    1.81    1.77
  -3  -3  12    4.39    1.89
  -3  -3  12    2.21    1.29
  -3  -3  13    0.56    1.27
  -3  -2  -6  105.51    6.18
  -3  -2  -6   86.98    6.20
  -3  -2  -5    0.16    1.46
  -3  -2  -5    0.95    1.22
  -3  -2  -5    0.52    1.44
  -3  -2  -5   -0.45    1.34
  -3  -2  -5    0.32    1.42
  -3  -2  -4   43.04    3.48
  -3  -2  -4   36.07    3.19
  -3  -2  -4   37.70    3.44
  -3  -2  -4   40.60    3.44
  -3  -2  -3  518.78   25.25
  -3  -2  -3  510.30   25.17
  -3  -2  -3  528.07   25.27
  -3  -2  -3  525.33   25.06
  -3  -2  -2  550.81   26.14
  -3  -2  -2  535.64   26.43
  -3  -2  -2  540.63   26.49
  -3  -2  -2  541.64   26.29
  -3  -2  -2  573.91   26.48
  -3  -2  -2  550.56   26.05
  -3  -2  -1  355.67   17.75
  -3  -2  -1  366.04   17.58
  -3  -2  -1  357.66   17.71
  -3  -2  -1  369.80   18.11
  -3  -2  -1  367.52   18.13
  -3  -2  -1  370.18   18.15
  -3  -2  -1  372.59   17.62
  -3  -2  -1  389.72   17.98
  -3  -2  -1  373.88   17.62
  -3  -2  -1  365.22   18.04
  -3  -2   0   95.47    5.27
  -3  -2   0   82.65    4.93
  -3  -2   0   92.01    4.93
  -3  -2   0   95.45    5.43
  -3  -2   0   88.06    5.10
  -3  -2   0   88.79    5.06
  -3  -2   0   82.74    4.93
  -3  -2   0  100.23    5.51
  -3  -2   0   95.92    5.43
  -3  -2   1  291.56   14.37
  -3  -2   1  289.36   13.96
  -3  -2   1  284.22   14.28
  -3  -2   1  300.66   14.23
  -3  -2   1  308.58   14.59
  -3  -2   1  276.77   14.23
  -3  -2   1  308.67   14.58
  -3  -2   1  279.95   14.24
  -3  -2   1  306.86   14.57
  -3  -2   1  298.49   14.51
  -3  -2   1  320.71   14.75
  -3  -2   2   62.41    3.78
  -3  -2   2   65.02    3.99
  -3  -2   2   63.51    3.77
  -3  -2   2   65.07    3.81
  -3  -2   2   60.80    3.91
  -3  -2   2   58.40    3.28
  -3  -2   2   68.12    4.05
  -3  -2   2   58.59    3.82
  -3  -2   2   66.70    4.08
  -3  -2   2   63.21    3.94
  -3  -2   2   60.19    3.83
  -3  -2   2   72.37    4.24
  -3  -2   2   64.32    3.61
  -3  -2   2   67.22    3.92
  -3  -2   3    1.42    1.16
  -3  -2   3    1.32    0.99
  -3  -2   3    2.10    1.16
  -3  -2   3    1.99    1.12
  -3  -2   3    0.79    0.66
  -3  -2   3    0.79    0.64
  -3  -2   3    1.13    0.81
  -3  -2   3    0.82    0.74
  -3  -2   3    1.27    0.38
  -3  -2   3    1.65    1.08
  -3  -2   3    2.84    1.64
  -3  -2   3    0.90    0.69
  -3  -2   3    1.00    0.96
  -3  -2   3    0.18    0.92
  -3  -2   4  528.23   24.52
  -3  -2   4  509.55   24.40
  -3  -2   4  500.23   24.35
  -3  -2   4  489.62   24.55
  -3  -2   4  509.36   24.40
  -3  -2   4  526.58   24.51
  -3  -2   4  500.70   23.94
  -3  -2   4  524.79   24.68
  -3  -2   4  508.09   24.38
  -3  -2   4  527.64   24.25
  -3  -2   4  533.88   24.41
  -3  -2   4  567.29   25.01
  -3  -2   4  503.51   24.23
  -3  -2   4  523.81   24.55
  -3  -2   4  518.04   24.40
  -3  -2   5 1440.21   65.12
  -3  -2   5 1489.03   65.58
  -3  -2   5 1464.05   65.14
  -3  -2   5 1447.61   65.42
  -3  -2   5 1295.93   65.24
  -3  -2   5 1345.83   65.12
  -3  -2   5 1394.62   64.99
  -3  -2   5 1415.05   65.45
  -3  -2   5 1406.56   65.12
  -3  -2   5 1424.28   65.10
  -3  -2   5 1474.28   65.28
  -3  -2   5 1418.41   64.90
  -3  -2   6   56.18    4.44
  -3  -2   6   65.16    4.39
  -3  -2   6   55.55    3.91
  -3  -2   6   64.33    4.22
  -3  -2   6   70.54    4.05
  -3  -2   6   60.14    4.85
  -3  -2   6   64.70    4.00
  -3  -2   6   69.20    4.35
  -3  -2   7  468.70   23.67
  -3  -2   7  437.82   23.83
  -3  -2   7  471.89   23.69
  -3  -2   7  490.41   23.61
  -3  -2   7  467.88   23.36
  -3  -2   7  474.50   22.82
  -3  -2   7  535.91   23.64
  -3  -2   8  293.95   15.98
  -3  -2   8  312.79   15.73
  -3  -2   8  300.02   15.93
  -3  -2   8  332.00   15.87
  -3  -2   9  114.44    8.06
  -3  -2   9  113.29    7.83
  -3  -2   9  110.79    7.90
  -3  -2   9  140.84    7.95
  -3  -2   9  126.77    7.83
  -3  -2  10    3.29    2.30
  -3  -2  10    1.16    1.83
  -3  -2  10   -2.16    2.02
  -3  -2  10    1.34    1.57
  -3  -2  10    0.24    2.06
  -3  -2  10    0.22    1.63
  -3  -2  11   10.31    2.52
  -3  -2  11   10.70    2.75
  -3  -2  11    6.72    2.53
  -3  -2  11   12.02    2.25
  -3  -2  11    9.70    2.43
  -3  -2  11   11.88    2.29
  -3  -2  12   13.01    2.18
  -3  -2  12    8.13    2.23
  -3  -2  12   15.84    2.29
  -3  -2  12   10.66    2.01
  -3  -2  12   14.44    2.19
  -3  -2  12    8.20    2.24
  -3  -2  13    0.57    1.25
  -3  -1  -8   17.39    2.57
  -3  -1  -8   18.63    2.32
  -3  -1  -7   22.74    3.04
  -3  -1  -7   30.49    3.11
  -3  -1  -6   17.63    2.76
  -3  -1  -6   20.92    2.69
  -3  -1  -5   16.65    2.31
  -3  -1  -5   18.69    2.73
  -3  -1  -5   19.80    2.40
  -3  -1  -4  167.32    9.10
  -3  -1  -4  180.17    9.49
  -3  -1  -4  160.56    9.29
  -3  -1  -4  169.78    9.31
  -3  -1  -3  946.10   42.60
  -3  -1  -3  878.26   42.35
  -3  -1  -3  921.54   42.40
  -3  -1  -3  924.05   42.59
  -3  -1  -3  873.29   42.25
  -3  -1  -2  436.81   20.77
  -3  -1  -2  456.29   20.64
  -3  -1  -2  434.82   21.18
  -3  -1  -2  446.83   21.30
  -3  -1  -2  440.92   21.26
  -3  -1  -2  419.01   21.15
  -3  -1  -2  458.48   20.64
  -3  -1  -2  432.70   21.03
  -3  -1  -2  429.68   21.00
  -3  -1  -2  416.15   21.18
  -3  -1  -1    1.84    1.12
  -3  -1  -1    1.40    1.25
  -3  -1  -1    1.90    0.66
  -3  -1  -1    0.66    1.19
  -3  -1  -1    1.02    0.57
  -3  -1  -1    1.77    1.24
  -3  -1  -1    0.58    1.02
  -3  -1  -1    1.92    1.27
  -3  -1  -1    2.73    1.35
  -3  -1  -1    1.94    0.69
  -3  -1  -1    2.87    0.99
  -3  -1   0 1064.48   48.86
  -3  -1   0 1060.74   48.86
  -3  -1   0 1030.95   48.65
  -3  -1   0 1044.39   49.03
  -3  -1   0 1057.43   49.05
  -3  -1   0 1092.42   49.21
  -3  -1   0 1082.48   49.22
  -3  -1   0 1108.84   49.20
  -3  -1   1  262.36   12.23
  -3  -1   1  259.77   11.99
  -3  -1   1  284.50   12.69
  -3  -1   1  267.70   12.55
  -3  -1   1  286.15   12.73
  -3  -1   1  258.92   12.40
  -3  -1   1  251.66   12.38
  -3  -1   1  281.06   12.65
  -3  -1   1  233.15   11.75
  -3  -1   2  123.16    6.20
  -3  -1   2  128.62    6.64
  -3  -1   2  119.76    6.63
  -3  -1   2  123.33    6.39
  -3  -1   2  123.54    6.15
  -3  -1   2  132.90    6.66
  -3  -1   2  122.49    6.46
  -3  -1   2  119.75    6.44
  -3  -1   3 1048.04   48.59
  -3  -1   3 1068.02   48.74
  -3  -1   3 1056.21   48.43
  -3  -1   3 1033.68   48.44
  -3  -1   3 1044.09   48.08
  -3  -1   3 1053.03   48.59
  -3  -1   3 1090.09   48.61
  -3  -1   3 1064.84   48.62
  -3  -1   3 1054.08   48.60
  -3  -1   4  682.27   31.17
  -3  -1   4  666.04   31.00
  -3  -1   4  692.20   30.78
  -3  -1   4  639.56   30.92
  -3  -1   4  643.85   31.12
  -3  -1   4  676.70   30.87
  -3  -1   4  655.71   30.56
  -3  -1   4  666.69   30.88
  -3  -1   4  621.44   30.65
  -3  -1   4  706.17   31.45
  -3  -1   4  645.54   30.87
  -3  -1   4  667.89   30.86
  -3  -1   4  657.07   30.83
  -3  -1   5  156.49    8.73
  -3  -1   5  169.12    8.98
  -3  -1   5  159.75    8.53
  -3  -1   5  145.38    8.14
  -3  -1   5  183.91    8.74
  -3  -1   5  150.07    8.70
  -3  -1   5  173.76    8.83
  -3  -1   5  186.39    8.50
  -3  -1   5  181.07    8.55
  -3  -1   5  156.80    8.46
  -3  -1   5  144.04    8.80
  -3  -1   5  161.60    8.51
  -3  -1   5  186.29    8.58
  -3  -1   6    1.83    1.80
  -3  -1   6    0.14    1.35
  -3  -1   6    0.15    1.36
  -3  -1   6    0.80    1.19
  -3  -1   6    0.81    1.15
  -3  -1   6    0.18    0.58
  -3  -1   6   -0.09    0.59
  -3  -1   6    0.37    1.03
  -3  -1   6    0.86    0.73
  -3  -1   6    0.60    0.90
  -3  -1   7  113.07    7.02
  -3  -1   7  113.57    7.41
  -3  -1   7  113.78    6.88
  -3  -1   7  129.81    7.08
  -3  -1   7  108.98    6.39
  -3  -1   7  120.22    7.24
  -3  -1   8  111.92    7.23
  -3  -1   8   96.04    7.18
  -3  -1   8  128.47    7.17
  -3  -1   8  115.03    6.97
  -3  -1   8  103.92    6.10
  -3  -1   8  107.44    7.25
  -3  -1   9    0.71    2.09
  -3  -1   9    1.59    1.98
  -3  -1   9    1.03    1.39
  -3  -1   9   -0.96    2.04
  -3  -1   9   -1.03    1.59
  -3  -1  10   13.23    2.81
  -3  -1  10   10.37    2.90
  -3  -1  10   20.46    2.73
  -3  -1  10   19.99    2.65
  -3  -1  10   15.07    2.59
  -3  -1  10   11.87    2.82
  -3  -1  11    7.45    2.16
  -3  -1  11    7.62    2.01
  -3  -1  11    4.95    2.15
  -3  -1  11    6.54    1.93
  -3  -1  11    7.00    2.56
  -3  -1  12    2.95    1.58
  -3  -1  12    2.80    1.86
  -3  -1  12    1.93    1.65
  -3  -1  12    4.16    1.56
  -3  -1  12    4.21    1.54
  -3  -1  12   -0.19    1.81
  -3  -1  13    4.13    1.45
  -3   0  -9    3.45    1.64
  -3   0  -9    4.66    1.43
  -3   0  -8   51.65    4.14
  -3   0  -8   46.00    4.35
  -3   0  -7   60.23    5.07
  -3   0  -7   57.98    4.75
  -3   0  -6   37.50    3.64
  -3   0  -6   29.76    2.98
  -3   0  -6   35.83    3.76
  -3   0  -5   10.01    2.07
  -3   0  -5   10.61    2.32
  -3   0  -5   10.69    1.84
  -3   0  -4  109.47    6.75
  -3   0  -4  111.11    6.60
  -3   0  -4  114.64    6.84
  -3   0  -3  369.20   17.91
  -3   0  -3  340.68   17.61
  -3   0  -3  348.90   17.51
  -3   0  -3  363.67   17.82
  -3   0  -3  381.27   17.89
  -3   0  -3  375.91   17.76
  -3   0  -2    1.95    1.18
  -3   0  -2    2.11    1.29
  -3   0  -2    2.03    1.22
  -3   0  -2    2.59    1.13
  -3   0  -2    2.45    1.05
  -3   0  -2    3.11    0.62
  -3   0  -2    2.21    1.06
  -3   0  -2    2.39    1.13
  -3   0  -2    2.74    1.17
  -3   0  -2    3.29    1.30
  -3   0  -2    3.11    0.62
  -3   0  -2    3.07    0.99
  -3   0  -1  923.01   41.23
  -3   0  -1  862.25   41.29
  -3   0  -1  880.81   41.21
  -3   0  -1  907.78   41.25
  -3   0  -1  889.25   41.11
  -3   0  -1  919.69   41.36
  -3   0  -1  873.79   41.27
  -3   0  -1  881.04   41.26
  -3   0  -1  886.30   40.86
  -3   0  -1  878.88   41.07
  -3   0  -1  888.21   41.26
  -3   0  -1  880.64   40.85
  -3   0   0    0.44    0.90
  -3   0   0    0.94    0.60
  -3   0   0    3.04    1.23
  -3   0   0    0.75    0.61
  -3   0   0    0.70    0.88
  -3   0   0    0.86    1.09
  -3   0   0    1.50    1.09
  -3   0   1  896.36   39.10
  -3   0   1  828.24   38.54
  -3   0   1  869.93   38.86
  -3   0   1  857.79   38.88
  -3   0   1  810.28   38.31
  -3   0   1  876.20   38.87
  -3   0   1  860.36   38.95
  -3   0   2   46.61    2.56
  -3   0   2   50.83    2.88
  -3   0   2   54.65    3.25
  -3   0   2   47.37    2.93
  -3   0   2   51.27    2.91
  -3   0   2   46.96    2.69
  -3   0   3 1181.26   54.62
  -3   0   3 1190.65   54.65
  -3   0   3 1219.80   54.68
  -3   0   3 1239.40   54.70
  -3   0   3 1198.83   54.34
  -3   0   3 1160.42   54.44
  -3   0   3 1197.97   54.67
  -3   0   3 1172.05   54.46
  -3   0   3 1165.54   54.71
  -3   0   4   29.54    2.45
  -3   0   4   27.86    2.23
  -3   0   4   27.07    2.68
  -3   0   4   28.53    2.14
  -3   0   4   26.53    2.16
  -3   0   4   23.95    1.96
  -3   0   4   24.09    1.95
  -3   0   4   24.79    1.88
  -3   0   4   29.63    2.28
  -3   0   4   30.58    2.37
  -3   0   4   23.71    1.89
  -3   0   4   24.66    1.72
  -3   0   4   26.81    2.04
  -3   0   5   75.06    4.61
  -3   0   5   70.94    4.33
  -3   0   5   76.53    4.17
  -3   0   5   57.85    3.84
  -3   0   5   60.92    4.43
  -3   0   5   71.61    4.25
  -3   0   5   72.53    4.06
  -3   0   5   61.73    4.34
  -3   0   5   64.12    4.07
  -3   0   5   62.37    4.09
  -3   0   5   78.72    4.12
  -3   0   5   75.40    4.28
  -3   0   6   71.54    4.93
  -3   0   6   73.29    4.78
  -3   0   6   77.33    4.59
  -3   0   6   73.41    4.49
  -3   0   6   71.09    4.55
  -3   0   6   73.94    4.26
  -3   0   6   64.83    4.31
  -3   0   6   73.83    5.32
  -3   0   6   72.14    4.24
  -3   0   6   81.57    4.77
  -3   0   7   37.77    3.44
  -3   0   7   37.44    3.25
  -3   0   7   34.27    3.79
  -3   0   7   42.84    3.10
  -3   0   7   43.32    3.42
  -3   0   8   42.13    4.25
  -3   0   8   40.29    4.38
  -3   0   8   50.75    4.02
  -3   0   8   50.24    4.15
  -3   0   8   48.76    3.46
  -3   0   8   55.27    4.18
  -3   0   9  419.62   21.79
  -3   0   9  402.95   21.61
  -3   0   9  467.75   21.59
  -3   0   9  502.39   21.78
  -3   0  10  105.29    8.04
  -3   0  10   92.74    7.61
  -3   0  10  139.78    7.99
  -3   0  10  125.69    8.12
  -3   0  10  138.98    8.05
  -3   0  11   -0.24    2.02
  -3   0  11    3.93    2.04
  -3   0  11   -1.04    1.47
  -3   0  11    1.44    1.53
  -3   0  11   -0.64    1.90
  -3   0  12    9.94    2.28
  -3   0  12    4.45    1.79
  -3   0  12   11.79    1.97
  -3   0  12   10.89    1.90
  -3   0  12    3.79    1.92
  -3   1  -9   -0.53    1.37
  -3   1  -9   -0.78    1.74
  -3   1  -8   16.87    2.88
  -3   1  -8   22.74    2.92
  -3   1  -7    3.33    1.83
  -3   1  -7    1.90    2.06
  -3   1  -6  330.12   16.66
  -3   1  -6  323.14   16.72
  -3   1  -6  295.85   15.77
  -3   1  -5   11.03    2.06
  -3   1  -5   10.31    2.30
  -3   1  -5    8.48    1.78
  -3   1  -4    0.59    1.09
  -3   1  -4    2.48    1.44
  -3   1  -4    1.20    1.32
  -3   1  -4    0.25    0.99
  -3   1  -4   -0.79    1.68
  -3   1  -3  940.74   42.59
  -3   1  -3  905.47   42.31
  -3   1  -3  855.91   42.20
  -3   1  -3  829.26   42.05
  -3   1  -3  952.22   42.39
  -3   1  -3  965.50   42.50
  -3   1  -3  957.56   42.19
  -3   1  -3  899.10   42.56
  -3   1  -3  900.04   42.14
  -3   1  -2 1734.07   79.83
  -3   1  -2 1791.52   79.83
  -3   1  -2 1719.11   79.15
  -3   1  -2 1724.91   79.75
  -3   1  -2 1669.46   79.30
  -3   1  -2 1764.74   79.70
  -3   1  -2 1754.48   79.61
  -3   1  -2 1727.03   79.75
  -3   1  -2 1735.30   79.16
  -3   1  -2 1767.84   79.72
  -3   1  -2 1787.05   79.57
  -3   1  -1  120.53    6.73
  -3   1  -1  133.90    6.82
  -3   1  -1  125.54    6.55
  -3   1  -1  123.97    6.30
  -3   1  -1  120.74    6.28
  -3   1  -1  128.12    6.67
  -3   1  -1  120.33    6.43
  -3   1  -1  129.92    6.72
  -3   1   0   83.45    4.59
  -3   1   0   87.93    5.00
  -3   1   0   89.02    4.64
  -3   1   0   84.71    4.78
  -3   1   0   88.54    4.74
  -3   1   1    4.41    0.85
  -3   1   1    4.21    0.85
  -3   1   1    4.47    1.28
  -3   1   1    4.82    0.93
  -3   1   1    4.86    0.67
  -3   1   1    3.84    0.92
  -3   1   1    4.32    1.01
  -3   1   2 1772.46   75.98
  -3   1   2 1635.88   75.90
  -3   1   2 1686.18   75.55
  -3   1   2 1695.09   75.82
  -3   1   2 1631.56   75.71
  -3   1   2 1600.93   75.43
  -3   1   3   64.61    4.05
  -3   1   3   71.84    3.94
  -3   1   3   65.22    3.84
  -3   1   3   62.39    4.00
  -3   1   3   72.67    4.14
  -3   1   3   65.68    3.71
  -3   1   3   66.48    4.03
  -3   1   3   73.52    3.96
  -3   1   3   69.22    3.76
  -3   1   3   68.72    3.78
  -3   1   4    5.60    1.41
  -3   1   4    6.74    1.06
  -3   1   4    3.96    1.19
  -3   1   4    6.18    0.94
  -3   1   4    5.37    1.22
  -3   1   4    8.49    1.09
  -3   1   4    5.63    1.30
  -3   1   4    7.22    1.06
  -3   1   4    5.22    0.81
  -3   1   4    6.48    1.79
  -3   1   4    6.98    1.21
  -3   1   4    6.57    1.27
  -3   1   5 1387.17   65.96
  -3   1   5 1508.17   65.76
  -3   1   5 1431.20   65.78
  -3   1   5 1296.02   65.35
  -3   1   5 1435.83   65.75
  -3   1   5 1453.89   65.52
  -3   1   5 1387.83   65.70
  -3   1   5 1492.06   65.54
  -3   1   5 1499.12   65.77
  -3   1   6   84.67    5.44
  -3   1   6   92.20    6.04
  -3   1   6   88.04    4.95
  -3   1   6   85.96    4.92
  -3   1   6   89.26    5.32
  -3   1   6   82.79    5.63
  -3   1   6   88.02    5.26
  -3   1   6   93.86    5.47
  -3   1   7    2.81    1.99
  -3   1   7    2.70    1.73
  -3   1   7    2.51    1.19
  -3   1   7    2.45    1.43
  -3   1   7    1.14    1.09
  -3   1   7    1.80    1.16
  -3   1   8    7.22    1.67
  -3   1   8    5.21    1.56
  -3   1   8    3.18    2.34
  -3   1   8    4.05    1.65
  -3   1   8    6.53    1.43
  -3   1   9   64.44    4.99
  -3   1   9   55.59    4.62
  -3   1  10   15.64    2.87
  -3   1  10   13.45    2.31
  -3   1  10   14.76    2.29
  -3   1  10    8.52    2.55
  -3   1  10   10.61    2.67
  -3   1  11    1.12    1.89
  -3   1  11    0.42    1.81
  -3   1  11    0.40    1.41
  -3   1  11    0.20    1.46
  -3   1  11   -0.21    1.84
  -3   1  12   -1.24    1.60
  -3   1  12   -0.16    1.36
  -3   2 -10    2.03    1.34
  -3   2 -10    1.73    1.53
  -3   2  -9   -0.21    1.80
  -3   2  -9    0.40    1.57
  -3   2  -8    2.43    2.03
  -3   2  -8    2.07    1.77
  -3   2  -7    0.47    1.76
  -3   2  -7    1.22    2.05
  -3   2  -6  321.09   16.71
  -3   2  -6  305.30   15.80
  -3   2  -6  296.67   15.78
  -3   2  -6  336.53   16.75
  -3   2  -5  577.46   26.38
  -3   2  -5  579.69   27.00
  -3   2  -5  527.42   26.34
  -3   2  -5  554.47   26.92
  -3   2  -5  512.05   25.95
  -3   2  -4  343.28   16.49
  -3   2  -4  288.40   15.89
  -3   2  -4  359.33   16.10
  -3   2  -4  345.06   16.36
  -3   2  -4  336.91   16.41
  -3   2  -4  327.49   16.45
  -3   2  -4  322.81   16.65
  -3   2  -4  308.42   15.90
  -3   2  -4  334.91   16.16
  -3   2  -3  646.46   32.34
  -3   2  -3  699.16   31.75
  -3   2  -3  687.91   32.81
  -3   2  -3  725.27   32.38
  -3   2  -3  704.37   32.67
  -3   2  -3  691.50   32.55
  -3   2  -3  667.01   32.36
  -3   2  -3  696.17   31.74
  -3   2  -3  685.87   32.48
  -3   2  -2 2034.82   91.82
  -3   2  -2 1991.11   92.32
  -3   2  -2 1996.11   92.45
  -3   2  -2 2017.34   92.31
  -3   2  -2 2011.43   92.33
  -3   2  -2 2047.05   92.19
  -3   2  -2 2082.96   92.46
  -3   2  -2 1998.84   91.81
  -3   2  -2 2018.35   92.52
  -3   2  -2 2023.13   92.33
  -3   2  -2 2032.22   92.27
  -3   2  -2 1963.70   92.31
  -3   2  -1  238.36   11.75
  -3   2  -1  245.39   11.54
  -3   2  -1  236.28   11.91
  -3   2  -1  235.56   11.79
  -3   2  -1  235.60   11.51
  -3   2  -1  230.73   11.82
  -3   2  -1  235.63   11.55
  -3   2  -1  245.83   11.92
  -3   2  -1  249.01   11.90
  -3   2   0  248.75   11.59
  -3   2   0  227.81   11.23
  -3   2   0  230.99   11.37
  -3   2   0  223.32   11.22
  -3   2   0  238.26   11.51
  -3   2   0  230.06   11.29
  -3   2   1 1254.44   56.28
  -3   2   1 1258.81   56.10
  -3   2   1 1284.09   56.24
  -3   2   1 1233.25   56.24
  -3   2   1 1268.79   56.28
  -3   2   1 1166.55   55.63
  -3   2   1 1271.74   56.23
  -3   2   2   80.05    4.44
  -3   2   2   87.06    4.73
  -3   2   2   87.00    4.84
  -3   2   2   79.85    4.22
  -3   2   2   78.62    4.46
  -3   2   2   86.79    4.69
  -3   2   3  288.97   14.18
  -3   2   3  281.18   14.20
  -3   2   3  294.02   14.58
  -3   2   3  292.23   14.52
  -3   2   3  308.60   14.63
  -3   2   3  306.55   14.80
  -3   2   3  306.53   14.34
  -3   2   3  305.35   14.38
  -3   2   3  298.71   14.36
  -3   2   3  300.16   14.20
  -3   2   4  301.79   15.56
  -3   2   4  293.00   15.65
  -3   2   4  315.71   15.36
  -3   2   4  306.19   15.39
  -3   2   4  321.08   15.36
  -3   2   4  302.57   15.42
  -3   2   4  325.21   16.04
  -3   2   4  315.08   15.06
  -3   2   4  334.80   15.50
  -3   2   4  329.59   15.57
  -3   2   4  356.42   15.75
  -3   2   4  322.22   15.38
  -3   2   5 1042.96   46.77
  -3   2   5  971.15   46.92
  -3   2   5 1036.84   46.51
  -3   2   5  932.50   46.48
  -3   2   5 1076.03   46.86
  -3   2   5  997.52   46.76
  -3   2   5  975.10   46.74
  -3   2   5  965.92   46.74
  -3   2   5 1051.21   46.53
  -3   2   6   23.39    2.75
  -3   2   6   30.41    2.70
  -3   2   6   24.33    2.22
  -3   2   6   25.08    3.29
  -3   2   6   28.25    2.56
  -3   2   6   26.82    2.55
  -3   2   6   29.87    2.68
  -3   2   7    2.77    2.03
  -3   2   7    0.94    1.61
  -3   2   7    3.45    1.42
  -3   2   7    3.35    1.35
  -3   2   7    3.86    1.33
  -3   2   7    4.06    1.43
  -3   2   8  234.69   12.31
  -3   2   8  213.83   11.58
  -3   2   8  239.33   12.21
  -3   2   8  226.37   12.41
  -3   2   9    7.48    2.58
  -3   2   9    8.52    1.55
  -3   2   9   10.67    2.08
  -3   2   9    8.40    2.10
  -3   2   9   10.88    2.20
  -3   2  10    3.57    2.37
  -3   2  10    9.43    1.99
  -3   2  10    6.23    1.89
  -3   2  10    6.35    2.35
  -3   2  10    4.64    2.12
  -3   2  11   23.27    3.06
  -3   2  11   20.47    2.98
  -3   2  11   14.05    2.70
  -3   2  12    1.46    1.36
  -3   2  12    0.94    1.55
  -3   3 -10   -0.51    1.55
  -3   3 -10    1.30    1.34
  -3   3  -9    0.85    1.61
  -3   3  -9   -0.67    1.93
  -3   3  -8    1.44    1.88
  -3   3  -8    1.25    2.17
  -3   3  -7  147.46    9.44
  -3   3  -6    2.37    1.42
  -3   3  -6    5.16    1.63
  -3   3  -6    2.39    1.33
  -3   3  -6    4.54    1.67
  -3   3  -6    3.87    2.12
  -3   3  -5   66.44    4.67
  -3   3  -5   63.92    4.08
  -3   3  -5   61.51    4.54
  -3   3  -5   67.97    4.73
  -3   3  -5   69.50    5.13
  -3   3  -5   64.70    4.57
  -3   3  -5   63.75    4.18
  -3   3  -4  245.30   12.83
  -3   3  -4  250.95   13.00
  -3   3  -4  222.90   12.02
  -3   3  -4  257.91   12.57
  -3   3  -4  245.47   12.20
  -3   3  -4  251.26   12.63
  -3   3  -4  233.01   12.13
  -3   3  -4  244.13   12.32
  -3   3  -3   21.80    2.54
  -3   3  -3   27.32    2.42
  -3   3  -3   25.12    2.44
  -3   3  -3   29.64    1.84
  -3   3  -3   27.19    2.62
  -3   3  -3   23.51    2.31
  -3   3  -3   26.92    2.77
  -3   3  -3   27.72    2.26
  -3   3  -3   27.58    1.80
  -3   3  -3   25.20    2.43
  -3   3  -3   25.28    2.31
  -3   3  -3   26.03    2.43
  -3   3  -2  110.86    6.08
  -3   3  -2  104.80    6.13
  -3   3  -2  108.07    6.12
  -3   3  -2  114.35    5.76
  -3   3  -2  110.13    6.31
  -3   3  -2  111.04    6.17
  -3   3  -2  105.13    6.41
  -3   3  -2  108.53    6.28
  -3   3  -2  104.73    6.15
  -3   3  -2  108.57    6.18
  -3   3  -2  115.65    6.15
  -3   3  -2  116.48    5.77
  -3   3  -1  907.39   42.87
  -3   3  -1  893.41   42.68
  -3   3  -1  970.06   43.09
  -3   3  -1 1018.17   42.98
  -3   3  -1  946.53   42.77
  -3   3  -1  875.87   42.51
  -3   3  -1  927.44   42.81
  -3   3  -1  941.96   42.96
  -3   3  -1  908.73   42.71
  -3   3  -1  960.06   42.91
  -3   3  -1  915.31   42.45
  -3   3  -1  888.02   42.51
  -3   3  -1  915.79   42.86
  -3   3   0  789.67   35.45
  -3   3   0  784.46   35.52
  -3   3   0  744.02   35.38
  -3   3   0  744.94   35.38
  -3   3   0  861.80   35.81
  -3   3   0  735.20   35.32
  -3   3   0  757.51   35.36
  -3   3   0  738.08   35.34
  -3   3   1  528.29   25.79
  -3   3   1  534.53   25.80
  -3   3   1  539.30   25.80
  -3   3   1  549.12   25.79
  -3   3   1  546.97   25.74
  -3   3   1  538.53   25.82
  -3   3   1  600.45   26.11
  -3   3   1  551.96   26.00
  -3   3   1  586.24   26.03
  -3   3   1  558.88   25.99
  -3   3   2   52.22    3.29
  -3   3   2   49.72    2.99
  -3   3   2   53.52    3.64
  -3   3   2   49.10    3.24
  -3   3   2   49.77    3.23
  -3   3   2   58.52    3.62
  -3   3   2   54.37    3.43
  -3   3   2   55.24    3.46
  -3   3   2   55.94    3.32
  -3   3   2   56.52    3.47
  -3   3   3  145.58    7.46
  -3   3   3  136.33    7.35
  -3   3   3  134.20    7.64
  -3   3   3  136.38    7.37
  -3   3   3  141.59    7.37
  -3   3   3  146.20    7.65
  -3   3   3  140.95    7.24
  -3   3   3  137.52    7.66
  -3   3   3  147.03    7.41
  -3   3   4    2.00    0.77
  -3   3   4    1.89    0.77
  -3   3   4    2.05    1.39
  -3   3   4    2.90    1.18
  -3   3   4    1.88    0.84
  -3   3   4    0.93    0.71
  -3   3   4    2.73    1.32
  -3   3   4    1.80    0.95
  -3   3   4    3.18    1.00
  -3   3   5   73.08    4.57
  -3   3   5   61.92    4.60
  -3   3   5   71.06    4.49
  -3   3   5   75.08    4.57
  -3   3   5   68.79    4.60
  -3   3   6   54.74    4.61
  -3   3   6   56.46    4.02
  -3   3   6   44.22    3.58
  -3   3   6   58.11    4.00
  -3   3   6   61.67    4.14
  -3   3   6   50.90    4.01
  -3   3   7  166.72    9.94
  -3   3   7  172.29    9.72
  -3   3   7  162.17   10.24
  -3   3   7  157.31    9.34
  -3   3   7  179.72    9.58
  -3   3   7  184.16    9.80
  -3   3   8   -0.61    1.44
  -3   3   8    0.22    1.94
  -3   3   8   -0.82    1.22
  -3   3   8   -1.49    2.35
  -3   3   8   -0.30    1.26
  -3   3   8    0.79    1.24
  -3   3   9   -0.63    1.20
  -3   3   9   -0.15    1.13
  -3   3   9   -2.02    2.32
  -3   3   9    0.64    1.47
  -3   3  10   10.02    2.19
  -3   3  10   13.43    2.15
  -3   3  10   12.09    2.22
  -3   3  10    8.67    2.64
  -3   3  11   17.76    2.65
  -3   3  11   18.99    2.33
  -3   3  11   10.44    2.24
  -3   3  11   15.57    2.52
  -3   4 -10    1.18    1.41
  -3   4 -10    1.76    1.59
  -3   4  -9   10.68    2.57
  -3   4  -8    2.03    2.17
  -3   4  -7   24.20    2.81
  -3   4  -7   21.65    2.85
  -3   4  -7   17.96    3.22
  -3   4  -7   24.82    3.31
  -3   4  -7   17.67    2.34
  -3   4  -7   17.24    2.40
  -3   4  -6   65.85    4.90
  -3   4  -6   72.58    5.04
  -3   4  -6   61.89    5.22
  -3   4  -6   52.53    4.51
  -3   4  -6   72.36    5.55
  -3   4  -6   65.33    4.68
  -3   4  -5  160.76    8.76
  -3   4  -5  164.68    9.21
  -3   4  -5  155.32    9.28
  -3   4  -5  144.98    8.71
  -3   4  -5  156.92    8.23
  -3   4  -5  141.60    8.22
  -3   4  -4    3.55    1.39
  -3   4  -4    5.12    1.65
  -3   4  -4    4.07    1.30
  -3   4  -4    5.10    1.26
  -3   4  -4    3.96    1.79
  -3   4  -4    4.99    1.43
  -3   4  -4    4.55    1.14
  -3   4  -4    2.59    1.62
  -3   4  -4    4.11    1.31
  -3   4  -4    4.05    1.55
  -3   4  -3   29.67    1.97
  -3   4  -3   28.90    2.48
  -3   4  -3   26.56    2.50
  -3   4  -3   27.52    2.64
  -3   4  -3   25.16    2.91
  -3   4  -3   26.37    2.41
  -3   4  -3   26.37    1.91
  -3   4  -3   24.86    2.26
  -3   4  -3   22.56    2.54
  -3   4  -3   27.47    2.56
  -3   4  -3   23.64    2.37
  -3   4  -3   26.78    2.52
  -3   4  -3   27.07    2.46
  -3   4  -2  419.17   20.08
  -3   4  -2  432.57   20.16
  -3   4  -2  428.40   20.18
  -3   4  -2  421.43   20.21
  -3   4  -2  421.60   20.17
  -3   4  -2  423.88   20.50
  -3   4  -2  402.06   19.70
  -3   4  -2  424.81   20.11
  -3   4  -2  407.09   19.72
  -3   4  -2  411.09   20.03
  -3   4  -2  404.61   20.04
  -3   4  -1 1598.74   74.54
  -3   4  -1 1633.29   74.73
  -3   4  -1 1583.49   74.31
  -3   4  -1 1567.74   74.48
  -3   4  -1 1694.04   75.11
  -3   4  -1 1664.50   74.71
  -3   4  -1 1678.23   74.65
  -3   4  -1 1567.98   74.47
  -3   4  -1 1608.77   74.56
  -3   4  -1 1668.87   74.83
  -3   4  -1 1671.41   74.85
  -3   4  -1 1641.68   74.76
  -3   4  -1 1660.35   74.84
  -3   4  -1 1633.55   74.58
  -3   4   0  164.03    8.18
  -3   4   0  142.38    7.70
  -3   4   0  146.63    7.65
  -3   4   0  152.70    7.85
  -3   4   0  149.96    7.81
  -3   4   0  147.09    7.73
  -3   4   0  153.95    7.84
  -3   4   0  151.59    7.93
  -3   4   0  146.47    7.58
  -3   4   0  146.52    7.57
  -3   4   0  149.02    7.59
  -3   4   1   62.69    3.95
  -3   4   1   55.27    3.61
  -3   4   1   53.72    3.58
  -3   4   1   62.47    3.89
  -3   4   1   61.42    3.58
  -3   4   1   61.18    3.68
  -3   4   1   51.58    3.51
  -3   4   1   54.32    3.55
  -3   4   1   64.48    3.99
  -3   4   1   59.08    3.84
  -3   4   2  212.26   10.66
  -3   4   2  216.87   11.13
  -3   4   2  226.67   11.03
  -3   4   2  203.36   11.21
  -3   4   2  223.68   11.08
  -3   4   2  227.88   11.35
  -3   4   2  222.79   10.97
  -3   4   2  225.08   11.01
  -3   4   2  214.82   11.26
  -3   4   2  216.50   11.06
  -3   4   2  217.62   11.07
  -3   4   3  312.57   15.87
  -3   4   3  328.32   16.21
  -3   4   3  341.12   16.08
  -3   4   3  328.82   15.78
  -3   4   3  331.91   16.28
  -3   4   3  312.40   15.92
  -3   4   3  326.89   16.05
  -3   4   4   74.21    5.17
  -3   4   4   80.33    4.93
  -3   4   4   90.69    4.82
  -3   4   4   83.34    4.87
  -3   4   4   83.30    5.42
  -3   4   5   35.74    3.16
  -3   4   5   36.89    2.77
  -3   4   5   35.34    2.48
  -3   4   5   38.04    3.22
  -3   4   5   36.59    3.28
  -3   4   6  332.37   16.84
  -3   4   6  386.43   17.10
  -3   4   6  283.90   16.34
  -3   4   6  318.50   16.87
  -3   4   6  359.67   16.96
  -3   4   7  110.71    6.72
  -3   4   7  105.34    6.58
  -3   4   7   87.57    7.05
  -3   4   7   97.15    6.43
  -3   4   7  101.19    6.47
  -3   4   8   23.05    2.84
  -3   4   8   27.78    2.92
  -3   4   8   19.06    3.47
  -3   4   8   20.48    2.62
  -3   4   8   23.44    2.72
  -3   4   8   19.56    3.17
  -3   4   9   58.67    5.74
  -3   4   9   69.75    5.71
  -3   4   9   77.14    5.62
  -3   4   9   80.92    5.18
  -3   4   9   89.58    5.72
  -3   4  10   32.84    3.20
  -3   4  10   36.16    3.25
  -3   4  11    3.32    1.60
  -3   4  11    0.32    1.44
  -3   4  11   -0.14    1.34
  -3   5 -10   -0.82    1.47
  -3   5 -10   -0.17    1.60
  -3   5  -9    0.21    1.64
  -3   5  -8   30.47    3.50
  -3   5  -8   25.93    2.71
  -3   5  -7    8.20    1.91
  -3   5  -7    8.16    2.07
  -3   5  -7    9.87    2.41
  -3   5  -7   10.44    1.95
  -3   5  -7    8.26    2.06
  -3   5  -6  184.07   10.48
  -3   5  -6  178.45    9.93
  -3   5  -6  163.46    9.83
  -3   5  -5  799.97   38.45
  -3   5  -5  826.25   38.34
  -3   5  -5  844.50   37.83
  -3   5  -5  798.76   38.35
  -3   5  -5  805.03   38.51
  -3   5  -5  828.85   38.61
  -3   5  -5  760.79   37.75
  -3   5  -5  777.01   37.78
  -3   5  -4   94.06    5.97
  -3   5  -4  101.84    6.41
  -3   5  -4  100.50    6.46
  -3   5  -4  108.64    6.58
  -3   5  -4  101.12    6.48
  -3   5  -4  109.68    6.24
  -3   5  -4  106.80    6.50
  -3   5  -4  103.55    6.17
  -3   5  -4  106.44    6.45
  -3   5  -3  317.69   16.01
  -3   5  -3  297.96   15.98
  -3   5  -3  334.89   15.88
  -3   5  -3  308.58   16.02
  -3   5  -3  310.71   15.92
  -3   5  -3  329.42   15.85
  -3   5  -3  326.37   16.02
  -3   5  -3  320.90   15.97
  -3   5  -2   90.71    5.48
  -3   5  -2   95.01    5.57
  -3   5  -2   89.00    5.57
  -3   5  -2   87.51    5.56
  -3   5  -2   96.27    5.50
  -3   5  -2   86.26    5.17
  -3   5  -2   93.87    5.50
  -3   5  -2   90.04    5.42
  -3   5  -2   98.39    5.52
  -3   5  -2   89.98    5.58
  -3   5  -1 1158.39   55.10
  -3   5  -1 1171.68   54.91
  -3   5  -1 1213.75   55.52
  -3   5  -1 1201.14   55.24
  -3   5  -1 1200.37   55.19
  -3   5  -1 1187.91   55.50
  -3   5  -1 1233.88   55.58
  -3   5  -1 1206.89   55.37
  -3   5  -1 1207.35   55.30
  -3   5  -1 1167.98   55.13
  -3   5  -1 1239.10   55.46
  -3   5   0    7.88    1.10
  -3   5   0    9.66    1.33
  -3   5   0    8.38    1.28
  -3   5   0    6.33    1.53
  -3   5   0    7.73    1.08
  -3   5   0    7.53    1.41
  -3   5   0    8.76    1.37
  -3   5   0    8.66    1.16
  -3   5   0    9.01    1.87
  -3   5   1  315.54   16.19
  -3   5   1  323.05   16.10
  -3   5   1  325.39   15.83
  -3   5   1  332.88   16.28
  -3   5   1  344.44   16.26
  -3   5   1  328.78   16.05
  -3   5   1  315.39   15.93
  -3   5   2   13.43    2.13
  -3   5   2   11.65    1.81
  -3   5   2   12.42    1.42
  -3   5   2   14.07    1.70
  -3   5   2    9.12    2.07
  -3   5   2   12.67    1.71
  -3   5   2    9.94    1.81
  -3   5   3    4.24    1.28
  -3   5   3    4.13    1.82
  -3   5   3    7.86    1.55
  -3   5   3    6.53    1.27
  -3   5   3    4.33    1.43
  -3   5   4   32.03    3.18
  -3   5   4   36.63    2.97
  -3   5   4   30.55    3.26
  -3   5   4   32.51    2.60
  -3   5   4   35.85    2.77
  -3   5   5   63.53    4.76
  -3   5   5   54.49    4.43
  -3   5   5   59.62    3.78
  -3   5   5   62.89    4.51
  -3   5   5   59.20    4.04
  -3   5   6   45.15    4.01
  -3   5   6   47.39    3.99
  -3   5   6   38.11    3.65
  -3   5   6   53.44    4.00
  -3   5   7   32.91    3.15
  -3   5   7   29.32    3.15
  -3   5   7   21.85    2.98
  -3   5   7   22.94    3.68
  -3   5   7   29.01    3.06
  -3   5   8   20.60    3.57
  -3   5   8   25.75    3.40
  -3   5   8   39.79    3.57
  -3   5   8   31.55    3.12
  -3   5   8   26.87    3.02
  -3   5   8   36.82    3.40
  -3   5   9   -0.59    1.38
  -3   5   9    0.16    1.14
  -3   5   9    2.17    2.07
  -3   5   9    1.65    2.04
  -3   5  10   26.25    2.67
  -3   5  10   25.26    2.92
  -3   6 -10    4.65    1.50
  -3   6 -10    5.43    1.78
  -3   6  -9   -0.19    1.49
  -3   6  -9   -1.30    2.08
  -3   6  -8    9.10    2.05
  -3   6  -8    8.21    2.65
  -3   6  -8   12.24    1.95
  -3   6  -8    9.43    2.35
  -3   6  -8   14.65    2.36
  -3   6  -7   26.47    3.77
  -3   6  -7   31.78    3.23
  -3   6  -7   33.67    3.65
  -3   6  -7   27.63    3.07
  -3   6  -6   10.24    2.13
  -3   6  -6    7.85    2.14
  -3   6  -6    6.56    1.83
  -3   6  -6    5.19    2.60
  -3   6  -6    7.21    1.91
  -3   6  -6    4.39    1.98
  -3   6  -5  208.98   11.27
  -3   6  -5  202.09   11.15
  -3   6  -5  200.32   11.15
  -3   6  -5  205.45   10.64
  -3   6  -5  193.40   11.14
  -3   6  -5  208.78   11.36
  -3   6  -5  198.78   11.60
  -3   6  -5  197.96   10.69
  -3   6  -5  202.00   11.23
  -3   6  -5  186.87   10.55
  -3   6  -4   14.20    2.10
  -3   6  -4   16.74    2.86
  -3   6  -4   12.18    2.08
  -3   6  -4    9.66    1.68
  -3   6  -4   11.25    2.10
  -3   6  -4   15.50    2.11
  -3   6  -4   10.60    1.97
  -3   6  -4    8.33    1.94
  -3   6  -4   12.27    1.92
  -3   6  -3  119.91    6.73
  -3   6  -3  109.92    6.44
  -3   6  -3  101.87    6.51
  -3   6  -3  108.03    6.42
  -3   6  -3  110.02    6.66
  -3   6  -3  114.92    7.09
  -3   6  -3   96.92    6.32
  -3   6  -3  111.26    6.64
  -3   6  -3  111.68    6.59
  -3   6  -2    5.55    1.37
  -3   6  -2    6.82    1.64
  -3   6  -2    5.73    1.35
  -3   6  -2    6.15    1.44
  -3   6  -2    5.32    1.67
  -3   6  -2    6.77    1.40
  -3   6  -2    6.61    1.69
  -3   6  -2    5.99    1.34
  -3   6  -2    5.40    1.42
  -3   6  -2    4.83    1.59
  -3   6  -1    4.83    1.64
  -3   6  -1    5.22    1.17
  -3   6  -1    5.28    1.61
  -3   6  -1    3.57    1.07
  -3   6  -1    4.23    1.42
  -3   6  -1    4.38    1.63
  -3   6  -1    5.24    1.31
  -3   6  -1    3.44    1.36
  -3   6  -1    3.93    1.15
  -3   6  -1    3.66    0.96
  -3   6   0  189.61    9.98
  -3   6   0  201.80   10.27
  -3   6   0  176.05    9.52
  -3   6   0  195.36   10.14
  -3   6   0  182.51    9.75
  -3   6   0  174.95    9.30
  -3   6   1  466.73   22.68
  -3   6   1  441.76   21.97
  -3   6   1  442.93   22.45
  -3   6   1  469.62   22.34
  -3   6   1  462.36   22.54
  -3   6   1  455.87   22.16
  -3   6   1  474.25   22.49
  -3   6   2   26.15    2.55
  -3   6   2   18.87    2.52
  -3   6   2   21.20    2.71
  -3   6   2   30.78    2.59
  -3   6   2   21.59    1.99
  -3   6   2   25.59    2.59
  -3   6   2   21.19    2.88
  -3   6   3   -0.14    0.97
  -3   6   3    0.14    1.12
  -3   6   3    1.57    1.35
  -3   6   3    0.19    1.72
  -3   6   3    1.76    1.30
  -3   6   4  213.85   12.10
  -3   6   4  212.11   11.98
  -3   6   4  233.06   11.40
  -3   6   4  219.23   11.63
  -3   6   4  225.12   11.89
  -3   6   4  201.96   11.22
  -3   6   5    1.20    0.94
  -3   6   5   -0.84    1.80
  -3   6   5    0.19    1.64
  -3   6   5    1.14    1.53
  -3   6   5    0.59    1.24
  -3   6   6    5.41    1.89
  -3   6   6    9.94    1.92
  -3   6   6    8.13    2.38
  -3   6   6   11.99    2.28
  -3   6   7    1.64    1.44
  -3   6   7    0.27    2.33
  -3   6   7    3.01    1.61
  -3   6   7    1.23    1.61
  -3   6   7    2.59    1.64
  -3   6   8   15.05    2.74
  -3   6   8    9.30    2.81
  -3   6   8   18.76    2.41
  -3   6   8   14.98    2.29
  -3   6   8    8.99    2.08
  -3   6   8   11.95    2.14
  -3   6   9   14.74    2.54
  -3   6   9    9.54    1.96
  -3   6   9    7.46    2.28
  -3   6   9   10.70    1.72
  -3   6  10    5.21    1.57
  -3   7 -10    2.79    1.53
  -3   7 -10    1.38    1.11
  -3   7  -9   -1.69    1.52
  -3   7  -9   -1.20    1.86
  -3   7  -8    3.14    1.63
  -3   7  -8    1.41    2.04
  -3   7  -8    1.16    1.36
  -3   7  -7   18.81    2.63
  -3   7  -7   18.23    2.61
  -3   7  -7   23.22    2.93
  -3   7  -7   16.84    3.19
  -3   7  -7   20.31    2.68
  -3   7  -7   16.44    2.64
  -3   7  -6   84.24    5.98
  -3   7  -6   74.90    5.65
  -3   7  -6   84.68    5.89
  -3   7  -6   83.65    5.93
  -3   7  -6   77.79    5.91
  -3   7  -6   79.87    6.25
  -3   7  -6   89.93    5.96
  -3   7  -5   45.99    3.84
  -3   7  -5   46.17    3.58
  -3   7  -5   40.15    4.07
  -3   7  -5   51.98    4.26
  -3   7  -5   49.64    4.18
  -3   7  -5   45.96    4.43
  -3   7  -5   45.30    3.79
  -3   7  -5   49.10    4.11
  -3   7  -5   48.35    4.08
  -3   7  -5   44.11    3.64
  -3   7  -4  269.11   13.86
  -3   7  -4  274.93   14.19
  -3   7  -4  262.06   13.78
  -3   7  -4  267.02   14.18
  -3   7  -4  264.28   14.56
  -3   7  -4  254.70   13.96
  -3   7  -4  291.15   14.35
  -3   7  -4  256.18   13.91
  -3   7  -3  436.31   22.44
  -3   7  -3  462.52   22.89
  -3   7  -3  452.53   22.58
  -3   7  -3  455.52   22.66
  -3   7  -3  463.04   22.65
  -3   7  -3  461.67   22.84
  -3   7  -3  476.58   22.75
  -3   7  -3  472.33   22.77
  -3   7  -2    7.33    1.95
  -3   7  -2    6.64    1.47
  -3   7  -2    8.05    1.56
  -3   7  -2    8.48    1.93
  -3   7  -2    8.04    1.86
  -3   7  -2    6.74    1.56
  -3   7  -2    6.34    1.53
  -3   7  -2    9.55    1.94
  -3   7  -1   72.11    4.71
  -3   7  -1   74.88    5.36
  -3   7  -1   75.14    4.57
  -3   7  -1   75.31    4.97
  -3   7  -1   76.22    5.16
  -3   7  -1   80.96    5.20
  -3   7  -1   76.43    4.65
  -3   7  -1   73.51    4.60
  -3   7  -1   84.44    5.43
  -3   7   0  708.95   33.06
  -3   7   0  713.41   32.56
  -3   7   0  678.84   32.67
  -3   7   0  683.08   32.69
  -3   7   0  682.03   32.90
  -3   7   0  663.00   32.22
  -3   7   0  661.41   31.85
  -3   7   1  401.71   19.89
  -3   7   1  371.24   19.96
  -3   7   1  388.13   19.63
  -3   7   1  395.14   19.23
  -3   7   1  407.66   19.89
  -3   7   1  383.35   19.40
  -3   7   1  394.04   19.80
  -3   7   2   10.27    1.99
  -3   7   2    8.66    1.87
  -3   7   2    8.92    2.35
  -3   7   2    6.88    1.65
  -3   7   2    6.86    1.91
  -3   7   3    8.34    2.27
  -3   7   3   11.28    2.65
  -3   7   3    9.45    1.76
  -3   7   3    3.94    1.60
  -3   7   3   11.59    2.12
  -3   7   3    7.58    1.92
  -3   7   4   45.58    3.96
  -3   7   4   43.39    3.40
  -3   7   4   45.53    4.28
  -3   7   4   42.27    3.76
  -3   7   4   34.20    3.88
  -3   7   4   40.19    3.39
  -3   7   5   30.80    3.55
  -3   7   5   29.75    3.60
  -3   7   5   29.62    2.98
  -3   7   6    9.55    1.91
  -3   7   6    6.99    2.24
  -3   7   6   10.86    2.13
  -3   7   6    4.57    1.94
  -3   7   7  148.38    8.41
  -3   7   7  143.36    8.28
  -3   7   7  158.24    8.50
  -3   7   7  114.74    8.11
  -3   7   7  108.70    8.59
  -3   7   8    3.98    1.62
  -3   7   8    7.12    1.99
  -3   7   8    7.12    1.68
  -3   7   8    6.57    1.63
  -3   7   8    2.69    2.15
  -3   7   9    0.17    1.56
  -3   8  -9    1.59    1.20
  -3   8  -8   -1.28    1.82
  -3   8  -8   -0.48    1.29
  -3   8  -8    0.19    1.34
  -3   8  -8    0.16    1.20
  -3   8  -8    0.77    1.38
  -3   8  -7   17.21    2.48
  -3   8  -7   12.60    2.15
  -3   8  -7   14.72    2.48
  -3   8  -7   20.45    2.69
  -3   8  -7   16.56    2.53
  -3   8  -7   13.23    2.81
  -3   8  -6   68.60    5.14
  -3   8  -6   59.62    4.58
  -3   8  -6   66.89    5.12
  -3   8  -6   61.17    5.04
  -3   8  -6   64.84    5.12
  -3   8  -6   69.54    5.59
  -3   8  -6   64.77    4.98
  -3   8  -5   70.27    5.08
  -3   8  -5   71.80    5.24
  -3   8  -5   62.69    5.21
  -3   8  -5   65.41    4.57
  -3   8  -5   60.34    4.91
  -3   8  -5   58.61    4.66
  -3   8  -5   76.72    5.23
  -3   8  -5   55.27    4.39
  -3   8  -4  280.02   14.55
  -3   8  -4  272.54   14.30
  -3   8  -4  274.14   14.54
  -3   8  -4  270.04   14.50
  -3   8  -4  282.62   14.61
  -3   8  -4  258.71   14.27
  -3   8  -3  115.08    7.35
  -3   8  -3  121.98    7.58
  -3   8  -3  127.65    7.30
  -3   8  -3  104.68    7.00
  -3   8  -3  114.44    7.46
  -3   8  -3  125.29    7.31
  -3   8  -3  113.70    7.07
  -3   8  -3  115.26    7.08
  -3   8  -2   77.18    5.73
  -3   8  -2   85.56    5.95
  -3   8  -2   89.45    5.42
  -3   8  -2   92.65    6.04
  -3   8  -2   88.80    5.87
  -3   8  -2   86.63    5.43
  -3   8  -2   84.52    6.05
  -3   8  -2   84.73    5.51
  -3   8  -1   42.61    4.07
  -3   8  -1   44.06    3.87
  -3   8  -1   56.29    4.21
  -3   8  -1   50.45    3.50
  -3   8  -1   48.74    3.84
  -3   8  -1   46.72    4.10
  -3   8   0   39.30    3.41
  -3   8   0   43.68    3.73
  -3   8   0   42.87    3.75
  -3   8   0   38.54    3.94
  -3   8   0   37.06    3.77
  -3   8   0   39.65    3.23
  -3   8   1   57.43    5.01
  -3   8   1   52.87    4.23
  -3   8   1   62.02    4.57
  -3   8   1   58.66    4.10
  -3   8   1   53.68    4.62
  -3   8   1   57.32    4.67
  -3   8   1   59.47    4.83
  -3   8   2   29.16    3.32
  -3   8   2   38.18    3.77
  -3   8   2   35.59    3.74
  -3   8   2   29.77    3.14
  -3   8   2   29.60    3.13
  -3   8   3    6.93    2.53
  -3   8   3    4.68    2.40
  -3   8   3    6.61    1.93
  -3   8   3    7.83    1.73
  -3   8   3    7.31    1.87
  -3   8   3    7.59    2.04
  -3   8   4   10.61    2.70
  -3   8   4   13.41    2.02
  -3   8   4   18.86    2.63
  -3   8   4   16.23    2.43
  -3   8   4   15.30    2.24
  -3   8   5    6.19    2.30
  -3   8   5    6.13    1.76
  -3   8   6    1.92    1.71
  -3   8   6    1.82    1.34
  -3   8   6    0.98    1.14
  -3   8   6    2.20    1.58
  -3   8   6   -0.22    1.81
  -3   8   7    5.23    1.56
  -3   8   7    2.55    1.71
  -3   8   7    2.54    1.74
  -3   8   7    4.81    1.52
  -3   8   7    5.56    2.31
  -3   8   8    2.13    1.27
  -3   8   8    0.60    1.31
  -3   8   8    3.56    1.88
  -3   9  -8    8.73    1.78
  -3   9  -8   11.67    1.94
  -3   9  -8    8.67    1.63
  -3   9  -7   38.47    3.54
  -3   9  -7   40.21    3.60
  -3   9  -7   36.72    3.48
  -3   9  -7   35.37    3.49
  -3   9  -7   41.35    3.57
  -3   9  -6    5.39    1.62
  -3   9  -6    7.45    1.83
  -3   9  -6    4.18    1.97
  -3   9  -6    7.46    1.94
  -3   9  -6    8.15    1.92
  -3   9  -5   -0.20    1.23
  -3   9  -5    0.77    1.35
  -3   9  -5   -0.20    1.35
  -3   9  -5    2.39    1.73
  -3   9  -5    0.16    1.01
  -3   9  -5   -0.37    1.38
  -3   9  -5    1.43    1.33
  -3   9  -4    0.57    1.22
  -3   9  -4    0.54    1.25
  -3   9  -4   -0.44    1.68
  -3   9  -4   -0.18    1.30
  -3   9  -4   -0.72    1.16
  -3   9  -4    0.62    1.55
  -3   9  -4   -1.86    1.43
  -3   9  -3  113.81    7.40
  -3   9  -3  125.03    7.92
  -3   9  -3  131.60    7.71
  -3   9  -3  121.41    7.27
  -3   9  -3  124.73    7.33
  -3   9  -3  127.56    8.04
  -3   9  -3  121.25    7.41
  -3   9  -3  125.76    7.79
  -3   9  -2   77.03    5.72
  -3   9  -2   74.19    5.38
  -3   9  -2   70.49    5.37
  -3   9  -2   74.72    5.33
  -3   9  -2   79.85    5.66
  -3   9  -2   65.35    4.71
  -3   9  -1   23.48    2.94
  -3   9  -1   29.66    3.03
  -3   9  -1   22.68    3.17
  -3   9  -1   33.07    3.51
  -3   9  -1   31.47    3.20
  -3   9   0   47.75    4.71
  -3   9   0   53.23    4.02
  -3   9   0   59.28    4.33
  -3   9   0   55.89    4.56
  -3   9   0   62.39    4.69
  -3   9   0   55.38    4.81
  -3   9   1  156.02   10.08
  -3   9   1  167.22    9.70
  -3   9   1  160.78    9.10
  -3   9   1  171.53    9.91
  -3   9   1  168.39    9.40
  -3   9   1  158.58    9.83
  -3   9   1  170.71   10.04
  -3   9   2   52.99    4.89
  -3   9   2   64.84    4.96
  -3   9   2   57.80    4.45
  -3   9   2   55.69    4.46
  -3   9   2   46.64    4.37
  -3   9   3   22.06    2.51
  -3   9   3   17.55    2.60
  -3   9   3   20.10    3.15
  -3   9   3   15.87    3.12
  -3   9   3   18.11    2.63
  -3   9   3   15.53    2.65
  -3   9   4    2.23    1.19
  -3   9   4    2.53    2.04
  -3   9   4    0.76    1.61
  -3   9   4    2.02    1.56
  -3   9   5   47.58    4.27
  -3   9   5   45.13    3.85
  -3   9   5   42.89    3.55
  -3   9   6    4.57    1.64
  -3   9   6    7.62    2.05
  -3   9   7   -0.53    1.16
  -3   9   7    2.51    1.80
  -3   9   7   -0.42    1.28
  -3  10  -7    4.69    1.40
  -3  10  -7    4.82    1.51
  -3  10  -7    6.48    1.67
  -3  10  -7    6.33    1.50
  -3  10  -6    3.32    1.37
  -3  10  -6    2.00    1.28
  -3  10  -6    1.69    1.33
  -3  10  -6    3.77    1.54
  -3  10  -6    0.19    1.61
  -3  10  -5   -0.51    1.20
  -3  10  -5    0.18    1.11
  -3  10  -5    0.67    1.26
  -3  10  -5    0.22    1.81
  -3  10  -5   -0.30    0.95
  -3  10  -5   -0.36    1.43
  -3  10  -5   -0.44    1.17
  -3  10  -4   12.29    1.94
  -3  10  -4   11.28    2.14
  -3  10  -4   14.01    1.97
  -3  10  -4   11.01    1.82
  -3  10  -4   12.76    1.95
  -3  10  -4   13.31    2.35
  -3  10  -4    7.53    2.13
  -3  10  -3  155.91    9.74
  -3  10  -3  178.38   10.51
  -3  10  -3  186.68   10.45
  -3  10  -3  187.02   10.20
  -3  10  -3  185.27   10.31
  -3  10  -3  178.58    9.76
  -3  10  -2  226.11   13.26
  -3  10  -2  258.04   13.86
  -3  10  -2  238.96   13.40
  -3  10  -2  266.83   13.59
  -3  10  -2  253.09   13.66
  -3  10  -1    7.62    2.17
  -3  10  -1    7.19    1.74
  -3  10  -1    5.40    1.69
  -3  10  -1    7.59    1.85
  -3  10  -1    9.52    2.36
  -3  10   0   28.24    2.97
  -3  10   0   20.70    2.83
  -3  10   0   21.51    3.27
  -3  10   0   24.67    2.66
  -3  10   0   23.18    3.21
  -3  10   1  122.02    8.66
  -3  10   1  151.97    8.56
  -3  10   1  139.78    8.59
  -3  10   1  138.51    8.05
  -3  10   1  137.52    8.58
  -3  10   1  137.02    8.69
  -3  10   2  188.20    9.87
  -3  10   2  173.78    9.64
  -3  10   2  158.25    9.96
  -3  10   2  150.87    9.59
  -3  10   2  174.62   10.05
  -3  10   3    8.31    1.66
  -3  10   3    8.20    1.82
  -3  10   3    3.07    1.52
  -3  10   3    3.87    2.23
  -3  10   3    4.48    2.12
  -3  10   3    7.88    2.04
  -3  10   4    9.81    2.31
  -3  10   4   10.62    2.35
  -3  10   4   12.97    2.10
  -3  10   4   14.23    2.14
  -3  10   5    2.95    2.01
  -3  10   5    1.85    1.21
  -3  10   5    2.96    1.67
  -3  10   6    0.54    1.22
  -3  11  -7    0.90    1.00
  -3  11  -7   -0.82    1.04
  -3  11  -6   11.31    1.91
  -3  11  -6   10.73    1.91
  -3  11  -5    1.06    1.40
  -3  11  -5   -0.93    1.58
  -3  11  -5   -1.23    1.28
  -3  11  -4   15.84    2.26
  -3  11  -4   13.29    1.88
  -3  11  -4   11.65    2.21
  -3  11  -4    9.15    1.85
  -3  11  -3   41.29    3.71
  -3  11  -3   43.84    3.58
  -3  11  -3   40.85    3.82
  -3  11  -3   37.46    3.57
  -3  11  -2    1.47    1.77
  -3  11  -2    0.92    1.21
  -3  11  -2   -1.95    1.58
  -3  11  -2    0.36    1.27
  -3  11  -2    0.98    1.66
  -3  11  -1   29.79    3.39
  -3  11  -1   35.16    3.18
  -3  11  -1   37.38    3.43
  -3  11  -1   35.75    3.66
  -3  11  -1   38.31    3.60
  -3  11   0    2.29    1.85
  -3  11   0   -0.81    1.76
  -3  11   0    0.93    1.27
  -3  11   0    3.50    1.56
  -3  11   1    1.67    1.87
  -3  11   1    0.35    1.32
  -3  11   1    1.61    1.57
  -3  11   1    0.14    1.00
  -3  11   1    0.19    1.55
  -3  11   1   -1.57    1.74
  -3  11   2    1.25    1.47
  -3  11   2    2.20    1.74
  -3  11   2    1.01    1.14
  -3  11   2    3.24    1.75
  -3  11   2    1.41    1.12
  -3  11   2    0.16    1.33
  -3  11   3    1.26    1.63
  -3  11   3    1.12    1.12
  -3  11   3    0.68    1.47
  -3  11   3    1.07    1.32
  -3  11   4    2.07    1.47
  -3  12  -5    1.49    1.10
  -3  12  -5   -0.43    1.30
  -3  12  -5   -0.23    0.96
  -3  12  -4    1.16    1.18
  -3  12  -4    0.86    1.26
  -3  12  -4    0.35    0.99
  -3  12  -3    0.59    1.11
  -3  12  -3   -0.16    1.30
  -3  12  -3    0.71    1.22
  -3  12  -2    6.76    1.45
  -3  12  -2    4.27    1.69
  -3  12  -2    7.42    1.71
  -3  12  -1   59.38    4.50
  -3  12  -1   64.38    4.57
  -3  12   0   17.88    2.31
  -3  12   1    7.97    1.59
  -3  12   1   12.68    1.87
  -3  12   1    8.64    1.80
  -3  12   2   30.00    2.70
  -2 -12   3    5.12    1.32
  -2 -12   4   -0.38    1.13
  -2 -12   5   -0.37    1.06
  -2 -11   0    3.00    1.15
  -2 -11   0    2.94    1.58
  -2 -11   0    4.04    1.46
  -2 -11   1   22.73    2.59
  -2 -11   1   26.19    2.61
  -2 -11   1   24.78    2.72
  -2 -11   1   22.49    2.45
  -2 -11   2   14.76    2.25
  -2 -11   2   12.85    2.05
  -2 -11   2   10.00    2.02
  -2 -11   2   13.91    1.88
  -2 -11   2   12.06    1.85
  -2 -11   3    9.04    1.97
  -2 -11   3   10.34    1.88
  -2 -11   3    6.71    1.77
  -2 -11   3    5.71    1.48
  -2 -11   3    5.32    1.64
  -2 -11   4   10.65    1.78
  -2 -11   4   15.68    2.33
  -2 -11   4   15.85    2.17
  -2 -11   4   12.44    2.14
  -2 -11   4   12.46    1.94
  -2 -11   5   59.29    4.59
  -2 -11   5   57.18    4.23
  -2 -11   5   62.43    4.50
  -2 -11   5   66.18    4.43
  -2 -11   5   62.86    4.37
  -2 -11   6    5.24    1.75
  -2 -11   6    6.60    1.47
  -2 -11   6    5.95    1.43
  -2 -11   6    4.44    1.54
  -2 -11   6    8.68    1.53
  -2 -11   7    8.37    1.87
  -2 -11   7    8.63    1.69
  -2 -11   8   26.23    2.57
  -2 -10  -2    8.76    1.63
  -2 -10  -2    7.49    1.79
  -2 -10  -2    8.65    2.04
  -2 -10  -1    2.54    1.39
  -2 -10  -1    1.50    1.75
  -2 -10  -1    2.02    1.62
  -2 -10   0    7.86    2.03
  -2 -10   0    6.27    1.75
  -2 -10   0    3.40    1.93
  -2 -10   0    7.38    1.98
  -2 -10   1   77.77    5.60
  -2 -10   1   65.48    5.43
  -2 -10   1   78.15    5.43
  -2 -10   1   71.17    5.26
  -2 -10   1   80.81    5.32
  -2 -10   2   35.21    3.44
  -2 -10   2   26.86    3.16
  -2 -10   2   30.56    3.10
  -2 -10   2   33.83    3.56
  -2 -10   2   36.22    3.57
  -2 -10   2   29.41    3.10
  -2 -10   3    4.82    1.76
  -2 -10   3    2.48    1.91
  -2 -10   3    6.06    1.65
  -2 -10   3    4.92    1.59
  -2 -10   3    6.61    1.75
  -2 -10   3    7.50    2.10
  -2 -10   4   11.39    2.23
  -2 -10   4   10.06    2.17
  -2 -10   4   12.93    2.27
  -2 -10   4   10.22    2.30
  -2 -10   4    9.10    2.62
  -2 -10   4    9.50    1.93
  -2 -10   4   11.05    2.07
  -2 -10   5   61.16    4.85
  -2 -10   5   61.16    4.58
  -2 -10   5   56.83    4.49
  -2 -10   5   61.78    4.76
  -2 -10   5   60.77    4.57
  -2 -10   5   65.02    4.70
  -2 -10   5   55.54    4.92
  -2 -10   6    3.90    1.78
  -2 -10   6    4.59    1.64
  -2 -10   6    4.10    1.75
  -2 -10   6    3.50    2.20
  -2 -10   6    5.17    1.51
  -2 -10   6    5.17    1.53
  -2 -10   7   30.02    3.31
  -2 -10   7   33.05    3.00
  -2 -10   7   32.57    3.05
  -2 -10   7   26.46    3.26
  -2 -10   7   27.59    2.79
  -2 -10   8    5.40    1.37
  -2 -10   8    8.73    2.05
  -2 -10   8    8.08    1.57
  -2 -10   8    6.64    1.60
  -2 -10   9    7.30    1.62
  -2 -10  10    5.27    1.42
  -2  -9  -4    2.28    1.30
  -2  -9  -4    1.53    1.55
  -2  -9  -3   38.04    3.23
  -2  -9  -3   34.28    3.33
  -2  -9  -2    8.54    2.46
  -2  -9  -2    8.84    2.16
  -2  -9  -2    9.39    1.96
  -2  -9  -1    2.40    1.73
  -2  -9  -1   -0.47    2.02
  -2  -9  -1    2.79    1.65
  -2  -9  -1    3.98    2.06
  -2  -9  -1   -2.41    1.93
  -2  -9   0   -0.23    1.77
  -2  -9   0    0.39    1.31
  -2  -9   0    0.21    1.63
  -2  -9   0    1.18    1.93
  -2  -9   0   -0.64    1.92
  -2  -9   0   -1.55    2.06
  -2  -9   1    2.29    1.83
  -2  -9   1    1.97    1.70
  -2  -9   1    2.34    1.79
  -2  -9   1    0.46    1.93
  -2  -9   1    0.20    1.25
  -2  -9   1   -0.41    1.84
  -2  -9   1    2.08    2.04
  -2  -9   2    5.46    2.08
  -2  -9   2    6.62    2.00
  -2  -9   2    5.12    1.89
  -2  -9   2    5.53    2.30
  -2  -9   2    9.24    1.92
  -2  -9   2    5.99    2.06
  -2  -9   2    7.51    1.82
  -2  -9   3    4.28    1.92
  -2  -9   3    7.46    2.02
  -2  -9   3    6.17    1.88
  -2  -9   3    1.83    1.39
  -2  -9   3    7.43    1.80
  -2  -9   3    5.44    2.29
  -2  -9   3    4.44    1.70
  -2  -9   3    3.04    1.50
  -2  -9   3    3.13    1.86
  -2  -9   3    4.67    1.80
  -2  -9   4   11.34    2.15
  -2  -9   4   15.64    2.46
  -2  -9   4   10.84    2.31
  -2  -9   4   17.07    2.35
  -2  -9   4   19.36    3.19
  -2  -9   4   13.40    2.30
  -2  -9   4   12.16    2.47
  -2  -9   4   13.20    2.56
  -2  -9   4   16.87    2.40
  -2  -9   5   49.08    4.28
  -2  -9   5   46.55    4.00
  -2  -9   5   51.35    4.06
  -2  -9   5   36.10    3.64
  -2  -9   5   48.86    4.08
  -2  -9   5   37.78    4.31
  -2  -9   5   42.03    3.83
  -2  -9   5   46.89    3.90
  -2  -9   6    1.34    1.76
  -2  -9   6    0.75    1.47
  -2  -9   6    1.01    1.37
  -2  -9   6   -1.17    2.02
  -2  -9   6    2.33    1.50
  -2  -9   6    1.11    1.53
  -2  -9   7   88.87    6.14
  -2  -9   7   85.21    5.75
  -2  -9   7   80.86    5.50
  -2  -9   7   87.71    5.68
  -2  -9   7   67.08    5.38
  -2  -9   7   78.77    5.91
  -2  -9   7   77.59    5.58
  -2  -9   8   11.75    1.98
  -2  -9   8    8.92    1.85
  -2  -9   8   11.56    1.95
  -2  -9   8    7.03    1.94
  -2  -9   8   11.42    2.06
  -2  -9   8   10.42    2.33
  -2  -9   9   13.31    1.85
  -2  -9   9    7.51    1.85
  -2  -9   9    8.87    2.03
  -2  -9   9   11.83    1.87
  -2  -9   9   14.92    2.17
  -2  -9  10    4.98    1.47
  -2  -9  11    1.05    1.16
  -2  -8  -5   10.64    2.11
  -2  -8  -5    6.48    1.62
  -2  -8  -4   29.79    2.94
  -2  -8  -4   29.40    3.51
  -2  -8  -4   25.28    3.06
  -2  -8  -3    0.21    1.73
  -2  -8  -3    0.38    1.45
  -2  -8  -3   -0.33    1.47
  -2  -8  -3    1.41    2.22
  -2  -8  -2   42.07    4.14
  -2  -8  -2   42.52    4.00
  -2  -8  -2   49.15    4.19
  -2  -8  -1   92.98    6.31
  -2  -8  -1   80.70    6.44
  -2  -8  -1   90.75    6.10
  -2  -8  -1   76.48    5.62
  -2  -8  -1   87.56    6.33
  -2  -8  -1   75.95    5.96
  -2  -8   0    7.11    2.01
  -2  -8   0    3.85    2.39
  -2  -8   0    4.13    2.15
  -2  -8   0    7.21    2.19
  -2  -8   0    5.66    1.85
  -2  -8   0    7.10    1.79
  -2  -8   0    6.33    2.44
  -2  -8   1   22.23    3.28
  -2  -8   1   24.48    3.06
  -2  -8   1   26.36    3.07
  -2  -8   1   20.73    3.19
  -2  -8   1   22.52    2.76
  -2  -8   1   27.21    3.21
  -2  -8   1   23.09    2.75
  -2  -8   1   25.83    3.12
  -2  -8   1   27.27    3.39
  -2  -8   2  130.07    7.87
  -2  -8   2  122.52    7.63
  -2  -8   2  125.88    7.52
  -2  -8   2  122.31    7.49
  -2  -8   2  107.37    7.13
  -2  -8   2  121.67    7.77
  -2  -8   2  114.49    7.49
  -2  -8   2  126.51    7.69
  -2  -8   2  108.45    7.72
  -2  -8   3   23.19    2.79
  -2  -8   3   19.20    2.69
  -2  -8   3   19.07    2.91
  -2  -8   3   23.43    2.65
  -2  -8   3   23.99    2.64
  -2  -8   3   20.48    2.88
  -2  -8   3   20.66    2.58
  -2  -8   3   15.66    2.31
  -2  -8   3   17.67    2.46
  -2  -8   3   20.39    2.94
  -2  -8   4   51.89    4.31
  -2  -8   4   53.04    4.18
  -2  -8   4   56.71    4.26
  -2  -8   4   50.61    4.29
  -2  -8   4   51.54    4.55
  -2  -8   4   51.66    4.40
  -2  -8   4   52.46    3.86
  -2  -8   4   45.73    4.06
  -2  -8   4   50.41    4.59
  -2  -8   4   47.51    4.11
  -2  -8   5    0.43    1.75
  -2  -8   5    0.95    1.55
  -2  -8   5    1.10    1.49
  -2  -8   5    0.57    1.22
  -2  -8   5    1.74    1.28
  -2  -8   5   -0.35    1.61
  -2  -8   5    1.75    1.30
  -2  -8   5    2.31    2.21
  -2  -8   6  360.84   18.34
  -2  -8   6  347.66   17.90
  -2  -8   6  352.80   17.97
  -2  -8   6  347.65   18.36
  -2  -8   6  372.72   18.16
  -2  -8   6  314.83   17.73
  -2  -8   7   48.91    4.12
  -2  -8   7   46.41    4.22
  -2  -8   7   50.99    4.63
  -2  -8   7   56.54    4.45
  -2  -8   7   50.87    4.61
  -2  -8   8   71.53    4.90
  -2  -8   8   56.24    4.53
  -2  -8   8   64.48    4.73
  -2  -8   8   49.08    4.51
  -2  -8   8   67.39    4.88
  -2  -8   8   51.24    4.75
  -2  -8   9   26.79    2.77
  -2  -8   9   31.27    3.18
  -2  -8   9   23.09    2.69
  -2  -8   9   18.61    2.77
  -2  -8   9   29.38    2.93
  -2  -8   9   14.65    2.68
  -2  -8  10   -0.46    1.41
  -2  -8  10   -0.92    1.24
  -2  -8  10    0.78    1.09
  -2  -8  10    1.04    1.46
  -2  -8  11    0.50    1.33
  -2  -8  11    0.28    1.25
  -2  -7  -6   -0.12    1.04
  -2  -7  -6    1.12    1.28
  -2  -7  -6   -2.46    1.60
  -2  -7  -5    4.68    1.66
  -2  -7  -5    5.11    2.13
  -2  -7  -5    6.92    1.93
  -2  -7  -4   16.98    2.52
  -2  -7  -4   17.22    3.18
  -2  -7  -4   18.14    2.76
  -2  -7  -3   78.81    5.50
  -2  -7  -3   71.16    5.27
  -2  -7  -3   68.95    5.60
  -2  -7  -3   68.28    5.84
  -2  -7  -2   15.52    2.74
  -2  -7  -2   13.82    2.38
  -2  -7  -2    9.77    2.20
  -2  -7  -2   12.58    2.44
  -2  -7  -1  426.46   21.21
  -2  -7  -1  400.99   21.08
  -2  -7  -1  434.60   21.06
  -2  -7  -1  402.52   21.16
  -2  -7  -1  374.56   20.61
  -2  -7  -1  448.64   21.00
  -2  -7  -1  417.54   21.19
  -2  -7   0    0.18    1.28
  -2  -7   0    1.41    1.71
  -2  -7   0    0.38    1.27
  -2  -7   0    2.63    1.66
  -2  -7   0    0.22    2.07
  -2  -7   0    1.19    1.46
  -2  -7   0    2.02    1.82
  -2  -7   0    0.62    1.85
  -2  -7   1   20.80    2.86
  -2  -7   1   22.51    2.78
  -2  -7   1   14.92    2.46
  -2  -7   1   14.38    2.32
  -2  -7   1   16.03    2.72
  -2  -7   1   16.62    2.35
  -2  -7   1   14.69    2.24
  -2  -7   1   17.94    2.29
  -2  -7   1   18.83    2.71
  -2  -7   1   20.32    2.86
  -2  -7   2  175.74    9.95
  -2  -7   2  165.79    9.78
  -2  -7   2  170.50    9.53
  -2  -7   2  177.35    9.74
  -2  -7   2  181.56    9.87
  -2  -7   2  171.56    9.93
  -2  -7   2  171.51    9.73
  -2  -7   2  165.57    9.62
  -2  -7   2  176.49   10.19
  -2  -7   2  172.46    9.98
  -2  -7   3  362.07   17.61
  -2  -7   3  336.63   17.32
  -2  -7   3  346.70   17.30
  -2  -7   3  338.44   17.28
  -2  -7   3  337.27   17.13
  -2  -7   3  347.20   17.31
  -2  -7   3  331.95   17.09
  -2  -7   3  324.21   17.42
  -2  -7   3  334.69   17.40
  -2  -7   4   65.49    4.65
  -2  -7   4   59.28    4.46
  -2  -7   4   66.41    4.63
  -2  -7   4   64.74    5.02
  -2  -7   4   55.96    4.13
  -2  -7   4   61.99    4.63
  -2  -7   4   60.31    4.49
  -2  -7   4   57.24    4.41
  -2  -7   4   59.41    4.67
  -2  -7   4   57.22    4.74
  -2  -7   5   40.57    3.63
  -2  -7   5   35.48    3.33
  -2  -7   5   32.83    3.18
  -2  -7   5   37.69    3.27
  -2  -7   5   31.77    3.16
  -2  -7   5   39.02    3.88
  -2  -7   5   27.76    3.03
  -2  -7   5   32.36    3.21
  -2  -7   5   32.78    3.29
  -2  -7   6    5.43    1.95
  -2  -7   6    2.83    1.63
  -2  -7   6    3.83    1.67
  -2  -7   6    4.01    1.59
  -2  -7   6    3.35    1.46
  -2  -7   6    3.68    1.79
  -2  -7   6    6.40    2.19
  -2  -7   7   22.68    2.81
  -2  -7   7   23.39    2.77
  -2  -7   7   22.87    3.00
  -2  -7   7   18.85    2.97
  -2  -7   7   23.85    2.85
  -2  -7   7   24.30    3.16
  -2  -7   8   39.78    3.56
  -2  -7   8   36.79    3.43
  -2  -7   8   31.76    3.34
  -2  -7   8   37.59    3.59
  -2  -7   8   31.62    3.65
  -2  -7   8   32.28    3.76
  -2  -7   9   33.22    3.17
  -2  -7   9   26.45    2.91
  -2  -7   9   26.66    3.40
  -2  -7   9   22.95    2.87
  -2  -7   9   19.73    3.06
  -2  -7   9   27.61    3.13
  -2  -7  10   19.15    2.52
  -2  -7  10    9.89    1.86
  -2  -7  10   16.45    2.26
  -2  -7  10   10.29    2.12
  -2  -7  10   14.21    2.63
  -2  -7  10   14.88    2.23
  -2  -7  11    2.12    1.69
  -2  -7  11    4.63    1.30
  -2  -7  11    4.75    1.51
  -2  -7  11    3.50    1.76
  -2  -7  12    4.20    1.46
  -2  -6  -7   -0.65    1.29
  -2  -6  -6    2.81    1.47
  -2  -6  -6    2.65    1.85
  -2  -6  -6   -1.41    1.47
  -2  -6  -5    0.45    2.19
  -2  -6  -5    1.97    1.77
  -2  -6  -5    3.89    1.56
  -2  -6  -4  346.51   18.36
  -2  -6  -4  376.70   18.00
  -2  -6  -4  345.12   18.08
  -2  -6  -4  317.51   17.36
  -2  -6  -3   99.58    6.49
  -2  -6  -3   94.06    6.43
  -2  -6  -3   98.54    6.77
  -2  -6  -3   95.43    6.94
  -2  -6  -2   70.42    5.02
  -2  -6  -2   59.05    4.70
  -2  -6  -2   61.88    5.24
  -2  -6  -2   66.16    4.93
  -2  -6  -2   64.85    5.15
  -2  -6  -2   58.76    4.70
  -2  -6  -1    1.08    1.44
  -2  -6  -1   -0.65    1.48
  -2  -6  -1   -0.50    1.46
  -2  -6  -1    0.79    1.10
  -2  -6  -1    0.34    1.21
  -2  -6  -1    0.38    1.60
  -2  -6  -1    0.18    1.43
  -2  -6   0  132.64    7.63
  -2  -6   0  133.74    7.70
  -2  -6   0  125.13    7.91
  -2  -6   0  134.69    7.75
  -2  -6   0  136.84    7.88
  -2  -6   0  127.28    7.80
  -2  -6   0  128.52    7.55
  -2  -6   0  137.94    8.04
  -2  -6   0  127.85    7.97
  -2  -6   0  132.76    8.15
  -2  -6   1  184.82    9.81
  -2  -6   1  171.93    9.90
  -2  -6   1  173.06    9.58
  -2  -6   1  170.91    9.47
  -2  -6   1  177.51    9.62
  -2  -6   1  181.79    9.54
  -2  -6   1  175.64    9.76
  -2  -6   1  168.98    9.80
  -2  -6   1  166.85    9.36
  -2  -6   2  158.63    8.74
  -2  -6   2  146.60    8.55
  -2  -6   2  151.68    8.44
  -2  -6   2  153.79    8.74
  -2  -6   2  144.70    8.77
  -2  -6   2  147.34    8.31
  -2  -6   2  152.34    8.57
  -2  -6   2  156.28    8.76
  -2  -6   2  156.85    8.47
  -2  -6   3  429.93   21.29
  -2  -6   3  441.42   21.11
  -2  -6   3  440.58   21.20
  -2  -6   3  427.48   21.24
  -2  -6   3  433.37   21.07
  -2  -6   3  411.11   20.88
  -2  -6   3  431.65   20.97
  -2  -6   3  421.49   21.21
  -2  -6   4  190.78   10.46
  -2  -6   4  183.97   10.65
  -2  -6   4  194.89   10.46
  -2  -6   4  200.87   10.38
  -2  -6   4  186.47   10.22
  -2  -6   4  199.38   10.38
  -2  -6   4  203.69   10.42
  -2  -6   4  185.40    9.98
  -2  -6   4  183.90   10.39
  -2  -6   4  189.03   10.54
  -2  -6   5    0.31    1.42
  -2  -6   5    0.16    1.30
  -2  -6   5    0.76    1.71
  -2  -6   5    0.30    1.43
  -2  -6   5    0.16    1.11
  -2  -6   5    1.23    1.18
  -2  -6   5    1.41    1.64
  -2  -6   5    1.01    1.32
  -2  -6   5    0.78    1.22
  -2  -6   6    1.19    1.50
  -2  -6   6   -0.50    1.30
  -2  -6   6    0.20    1.90
  -2  -6   6    1.35    1.39
  -2  -6   6   -0.17    1.30
  -2  -6   6   -0.96    1.51
  -2  -6   6    1.73    1.62
  -2  -6   7  128.74    8.45
  -2  -6   7  142.44    8.24
  -2  -6   7  139.79    8.24
  -2  -6   7  126.66    8.19
  -2  -6   7  132.11    8.51
  -2  -6   7  143.59    8.28
  -2  -6   8   17.39    2.55
  -2  -6   8   19.23    2.56
  -2  -6   8   12.44    2.77
  -2  -6   8   19.36    2.53
  -2  -6   8   19.44    2.66
  -2  -6   8   18.33    3.11
  -2  -6   8   13.22    2.71
  -2  -6   9    0.58    1.43
  -2  -6   9    2.11    1.59
  -2  -6   9    1.86    2.06
  -2  -6   9    0.43    1.80
  -2  -6   9    0.66    1.63
  -2  -6   9    0.20    1.38
  -2  -6  10    8.44    1.86
  -2  -6  10    5.93    1.71
  -2  -6  10    6.96    1.73
  -2  -6  10    7.16    2.03
  -2  -6  10    4.15    2.25
  -2  -6  10    3.78    1.89
  -2  -6  11    7.27    1.69
  -2  -6  11    5.77    1.53
  -2  -6  11    7.78    1.79
  -2  -6  11    5.55    2.19
  -2  -6  12    1.51    1.56
  -2  -6  12    3.45    1.63
  -2  -5  -7   52.52    3.80
  -2  -5  -7   39.70    3.74
  -2  -5  -6   15.24    2.27
  -2  -5  -6   10.67    2.65
  -2  -5  -6   15.25    2.29
  -2  -5  -5   89.13    5.77
  -2  -5  -5   82.72    5.71
  -2  -5  -4  155.10    8.61
  -2  -5  -4  142.73    8.70
  -2  -5  -4  136.69    8.25
  -2  -5  -4  133.09    8.77
  -2  -5  -3  254.04   13.11
  -2  -5  -3  243.02   13.11
  -2  -5  -3  245.03   13.37
  -2  -5  -3  226.37   12.99
  -2  -5  -3  264.35   13.28
  -2  -5  -3  239.88   13.44
  -2  -5  -2   29.15    2.84
  -2  -5  -2   27.49    2.87
  -2  -5  -2   24.80    2.63
  -2  -5  -2   26.20    2.79
  -2  -5  -2   24.58    2.99
  -2  -5  -2   24.07    3.14
  -2  -5  -2   22.28    2.80
  -2  -5  -1   10.14    1.84
  -2  -5  -1    6.78    1.62
  -2  -5  -1    9.58    1.63
  -2  -5  -1   11.00    2.01
  -2  -5  -1    9.12    2.13
  -2  -5  -1    9.80    1.67
  -2  -5  -1   11.24    1.95
  -2  -5  -1    9.99    1.60
  -2  -5  -1   10.52    1.89
  -2  -5   0  353.42   17.05
  -2  -5   0  347.85   16.99
  -2  -5   0  332.60   16.72
  -2  -5   0  328.38   17.02
  -2  -5   0  354.28   17.17
  -2  -5   0  339.47   16.74
  -2  -5   0  336.58   16.81
  -2  -5   0  342.27   16.75
  -2  -5   0  334.42   17.14
  -2  -5   0  333.83   16.86
  -2  -5   1 1054.36   49.08
  -2  -5   1 1068.02   48.90
  -2  -5   1 1049.97   48.96
  -2  -5   1 1071.80   49.01
  -2  -5   1 1038.89   48.76
  -2  -5   1 1041.33   48.85
  -2  -5   1 1059.63   49.22
  -2  -5   1 1043.40   49.23
  -2  -5   1 1044.23   49.15
  -2  -5   2   25.12    2.48
  -2  -5   2   25.49    2.31
  -2  -5   2   24.95    1.93
  -2  -5   2   24.38    2.38
  -2  -5   2   28.15    2.76
  -2  -5   2   27.79    2.55
  -2  -5   2   30.64    2.42
  -2  -5   2   25.97    1.99
  -2  -5   2   25.96    2.67
  -2  -5   2   29.65    2.81
  -2  -5   2   28.11    2.40
  -2  -5   3   21.69    2.12
  -2  -5   3   23.51    2.45
  -2  -5   3   19.96    2.23
  -2  -5   3   18.98    2.07
  -2  -5   3   19.80    1.87
  -2  -5   3   23.20    2.47
  -2  -5   3   19.39    2.07
  -2  -5   3   19.47    1.86
  -2  -5   3   22.17    2.21
  -2  -5   3   19.39    1.83
  -2  -5   3   21.33    2.33
  -2  -5   3   22.82    2.05
  -2  -5   4  409.82   19.75
  -2  -5   4  419.60   19.55
  -2  -5   4  404.46   19.63
  -2  -5   4  406.95   19.24
  -2  -5   4  375.53   19.32
  -2  -5   4  407.28   19.63
  -2  -5   4  412.27   19.53
  -2  -5   4  358.65   19.27
  -2  -5   4  393.75   19.49
  -2  -5   4  406.96   19.88
  -2  -5   4  404.96   19.46
  -2  -5   4  404.29   19.17
  -2  -5   5    2.33    1.50
  -2  -5   5    3.11    1.46
  -2  -5   5    1.48    1.42
  -2  -5   5   -0.14    1.22
  -2  -5   5    1.22    1.19
  -2  -5   5    2.74    1.49
  -2  -5   5    2.22    1.26
  -2  -5   5    1.07    1.03
  -2  -5   5    0.17    1.72
  -2  -5   5    0.87    0.71
  -2  -5   6    8.41    2.14
  -2  -5   6    9.82    1.91
  -2  -5   6    7.06    2.09
  -2  -5   6   13.89    2.43
  -2  -5   6   10.35    1.90
  -2  -5   6   10.06    1.82
  -2  -5   6   10.61    1.82
  -2  -5   7   91.72    6.24
  -2  -5   7   85.30    6.19
  -2  -5   7   86.42    5.88
  -2  -5   7   91.19    5.90
  -2  -5   7   91.30    5.87
  -2  -5   7   75.12    5.83
  -2  -5   8   46.19    3.90
  -2  -5   8   42.67    4.29
  -2  -5   8   44.10    3.86
  -2  -5   8   44.52    3.88
  -2  -5   8   44.43    4.03
  -2  -5   8   38.60    4.22
  -2  -5   8   34.83    3.94
  -2  -5   9   11.66    2.98
  -2  -5   9   11.01    2.44
  -2  -5   9   16.99    2.48
  -2  -5   9   11.28    2.39
  -2  -5   9   12.56    2.61
  -2  -5   9   21.01    2.64
  -2  -5  10   11.48    2.53
  -2  -5  10   18.54    2.65
  -2  -5  10   27.12    3.20
  -2  -5  10   29.75    3.01
  -2  -5  10   14.66    3.18
  -2  -5  10   23.85    2.78
  -2  -5  11    1.98    1.40
  -2  -5  11    1.88    1.59
  -2  -5  11    2.98    2.32
  -2  -5  11    1.44    1.26
  -2  -5  12    2.37    1.79
  -2  -5  12    2.71    1.40
  -2  -5  12    3.14    1.71
  -2  -5  13    0.50    1.09
  -2  -4  -8    5.88    1.43
  -2  -4  -7   10.37    1.96
  -2  -4  -7    5.17    1.98
  -2  -4  -6   53.79    4.38
  -2  -4  -6   60.49    4.46
  -2  -4  -6   54.03    4.72
  -2  -4  -5  177.99   10.01
  -2  -4  -5  171.53   10.33
  -2  -4  -5  180.35   10.14
  -2  -4  -4   86.54    5.50
  -2  -4  -4   76.57    5.68
  -2  -4  -4   73.67    5.43
  -2  -4  -4   78.33    5.24
  -2  -4  -3   12.63    1.96
  -2  -4  -3   14.13    1.91
  -2  -4  -3   13.28    2.40
  -2  -4  -3   14.71    2.29
  -2  -4  -3    9.20    1.91
  -2  -4  -2    2.98    1.26
  -2  -4  -2    5.03    1.51
  -2  -4  -2    3.39    1.14
  -2  -4  -2    3.83    1.36
  -2  -4  -2    2.73    1.64
  -2  -4  -2    3.14    1.73
  -2  -4  -2    2.11    1.40
  -2  -4  -1  323.74   15.93
  -2  -4  -1  323.52   15.97
  -2  -4  -1  314.97   15.77
  -2  -4  -1  309.81   15.94
  -2  -4  -1  332.82   15.88
  -2  -4  -1  325.43   16.20
  -2  -4  -1  319.33   15.76
  -2  -4  -1  312.49   15.68
  -2  -4  -1  330.50   16.17
  -2  -4  -1  330.17   16.13
  -2  -4   0   69.11    4.25
  -2  -4   0   67.46    3.98
  -2  -4   0   62.57    4.05
  -2  -4   0   64.51    4.26
  -2  -4   0   65.45    4.34
  -2  -4   0   65.40    3.95
  -2  -4   0   67.49    4.05
  -2  -4   0   70.21    4.39
  -2  -4   0   62.69    3.30
  -2  -4   0   63.32    4.10
  -2  -4   1  118.92    6.40
  -2  -4   1  119.63    6.45
  -2  -4   1  125.35    6.30
  -2  -4   1  118.50    6.53
  -2  -4   1  109.19    5.64
  -2  -4   1  119.74    6.32
  -2  -4   1  120.02    6.37
  -2  -4   1  122.76    6.34
  -2  -4   1  111.33    6.61
  -2  -4   1  104.99    5.60
  -2  -4   1  112.81    6.55
  -2  -4   1  120.15    5.61
  -2  -4   1  114.99    6.20
  -2  -4   1  114.77    6.33
  -2  -4   2   46.51    3.21
  -2  -4   2   45.88    3.46
  -2  -4   2   42.46    2.98
  -2  -4   2   45.85    3.07
  -2  -4   2   47.66    3.02
  -2  -4   2   43.33    2.68
  -2  -4   2   42.97    2.47
  -2  -4   2   44.31    3.11
  -2  -4   2   47.51    3.40
  -2  -4   2   40.25    3.14
  -2  -4   2   40.83    2.66
  -2  -4   2   43.14    2.71
  -2  -4   2   41.42    2.95
  -2  -4   2   47.43    3.17
  -2  -4   3  582.59   26.74
  -2  -4   3  558.36   26.86
  -2  -4   3  579.60   26.54
  -2  -4   3  565.59   26.67
  -2  -4   3  538.28   26.52
  -2  -4   3  564.26   26.48
  -2  -4   3  553.09   26.04
  -2  -4   3  532.77   26.34
  -2  -4   3  547.50   26.32
  -2  -4   3  569.97   26.50
  -2  -4   3  559.07   26.35
  -2  -4   3  551.00   26.55
  -2  -4   3  568.17   26.45
  -2  -4   3  583.75   26.78
  -2  -4   3  578.47   26.44
  -2  -4   3  567.81   26.50
  -2  -4   4  134.60    7.20
  -2  -4   4  128.29    7.07
  -2  -4   4  126.68    6.64
  -2  -4   4  122.78    6.88
  -2  -4   4  122.74    6.95
  -2  -4   4  112.56    6.50
  -2  -4   4  126.28    6.91
  -2  -4   4  133.23    7.43
  -2  -4   4  130.62    6.95
  -2  -4   4  132.37    6.85
  -2  -4   4  126.19    6.79
  -2  -4   4  130.48    6.88
  -2  -4   4  124.11    6.88
  -2  -4   5   10.61    1.30
  -2  -4   5   13.20    2.04
  -2  -4   5   15.12    2.02
  -2  -4   5   12.47    2.23
  -2  -4   5   13.70    1.64
  -2  -4   5   11.73    1.72
  -2  -4   5   11.62    1.37
  -2  -4   5   15.33    2.07
  -2  -4   5   10.10    1.30
  -2  -4   5   10.52    1.66
  -2  -4   5   11.59    1.62
  -2  -4   5   13.18    1.73
  -2  -4   5   13.12    1.86
  -2  -4   5   11.75    1.28
  -2  -4   6  266.79   13.77
  -2  -4   6  249.48   13.54
  -2  -4   6  272.20   13.52
  -2  -4   6  255.87   13.76
  -2  -4   6  252.56   13.60
  -2  -4   6  262.24   13.17
  -2  -4   6  269.31   13.53
  -2  -4   7    0.38    1.62
  -2  -4   7    1.32    1.87
  -2  -4   7    1.67    1.54
  -2  -4   7    1.51    1.41
  -2  -4   7    0.98    1.21
  -2  -4   7   -0.37    1.85
  -2  -4   8   12.81    2.44
  -2  -4   8    9.49    2.50
  -2  -4   8   12.67    2.19
  -2  -4   8   19.64    2.50
  -2  -4   8   15.87    2.44
  -2  -4   8   15.49    2.90
  -2  -4   8    9.62    2.48
  -2  -4   9   -0.20    1.59
  -2  -4   9    1.10    1.72
  -2  -4   9   -0.82    1.54
  -2  -4   9   -0.21    1.83
  -2  -4   9    0.41    1.33
  -2  -4   9   -0.74    2.19
  -2  -4  10   54.17    4.17
  -2  -4  10   38.36    3.87
  -2  -4  10   46.79    3.97
  -2  -4  10   44.86    4.14
  -2  -4  10   27.19    3.57
  -2  -4  10   35.13    4.44
  -2  -4  11    3.78    1.59
  -2  -4  11    5.33    1.76
  -2  -4  11    5.40    2.57
  -2  -4  11    6.77    1.75
  -2  -4  11    6.73    2.04
  -2  -4  12   -0.54    1.31
  -2  -4  12   -1.39    1.72
  -2  -4  12    3.21    2.05
  -2  -4  12    0.60    1.14
  -2  -4  12    0.53    1.12
  -2  -4  13    9.02    1.73
  -2  -3  -8    0.31    1.30
  -2  -3  -8    1.99    1.57
  -2  -3  -7    1.23    1.47
  -2  -3  -7    0.19    1.55
  -2  -3  -7   -0.17    1.59
  -2  -3  -6  141.27    8.88
  -2  -3  -6  168.15    9.03
  -2  -3  -6  144.34    8.56
  -2  -3  -6  160.55    9.11
  -2  -3  -5   16.45    2.71
  -2  -3  -5   21.86    2.54
  -2  -3  -5   16.91    2.53
  -2  -3  -5   22.67    2.58
  -2  -3  -4   89.77    5.59
  -2  -3  -4   90.07    5.98
  -2  -3  -4   93.32    5.82
  -2  -3  -4   90.91    5.65
  -2  -3  -4   85.53    5.63
  -2  -3  -3   34.56    2.82
  -2  -3  -3   31.63    3.01
  -2  -3  -3   30.31    2.96
  -2  -3  -3   35.73    2.98
  -2  -3  -2  203.46   10.72
  -2  -3  -2  212.72   10.62
  -2  -3  -2  217.62   10.99
  -2  -3  -2  200.14   10.66
  -2  -3  -2  212.62   10.98
  -2  -3  -2  208.69   10.86
  -2  -3  -2  213.01   10.74
  -2  -3  -1  102.57    5.73
  -2  -3  -1  106.46    5.75
  -2  -3  -1  107.94    5.99
  -2  -3  -1   98.92    5.79
  -2  -3  -1  101.62    5.62
  -2  -3  -1  116.72    6.16
  -2  -3  -1  107.13    6.07
  -2  -3  -1  100.06    5.56
  -2  -3   0  117.24    6.26
  -2  -3   0  115.02    6.01
  -2  -3   0  112.94    5.77
  -2  -3   0  110.62    5.89
  -2  -3   0  116.00    5.88
  -2  -3   0  116.40    5.88
  -2  -3   0  108.11    5.72
  -2  -3   0  105.38    5.16
  -2  -3   0  108.58    6.09
  -2  -3   1 1042.59   47.09
  -2  -3   1 1038.55   47.17
  -2  -3   1 1056.24   47.21
  -2  -3   1  977.41   46.56
  -2  -3   1 1032.03   47.02
  -2  -3   1 1007.63   46.47
  -2  -3   1 1077.10   47.37
  -2  -3   1 1041.50   46.59
  -2  -3   1 1060.73   47.19
  -2  -3   1 1039.36   47.23
  -2  -3   2  505.08   23.98
  -2  -3   2  518.78   23.65
  -2  -3   2  510.53   23.82
  -2  -3   2  496.86   23.40
  -2  -3   2  513.56   23.91
  -2  -3   2  520.41   23.75
  -2  -3   2  513.34   23.89
  -2  -3   3  170.05    8.65
  -2  -3   3  169.63    8.60
  -2  -3   3  181.43    8.83
  -2  -3   3  163.24    8.34
  -2  -3   3  177.76    8.65
  -2  -3   3  177.00    8.75
  -2  -3   3  174.72    8.70
  -2  -3   3  190.61    9.17
  -2  -3   3  161.47    8.61
  -2  -3   3  169.06    8.69
  -2  -3   4   21.61    1.93
  -2  -3   4   19.16    2.17
  -2  -3   4   25.51    2.23
  -2  -3   4   17.52    1.95
  -2  -3   4   21.30    1.73
  -2  -3   4   19.94    1.62
  -2  -3   4   18.06    2.00
  -2  -3   4   20.09    2.33
  -2  -3   4   19.06    1.91
  -2  -3   4   18.96    1.66
  -2  -3   4   19.62    1.70
  -2  -3   5  455.87   22.48
  -2  -3   5  475.29   22.03
  -2  -3   5  454.21   22.66
  -2  -3   5  465.06   22.44
  -2  -3   5  481.68   21.98
  -2  -3   5  434.02   22.40
  -2  -3   5  427.84   22.30
  -2  -3   5  437.16   22.28
  -2  -3   5  467.16   22.29
  -2  -3   5  483.51   21.98
  -2  -3   5  480.20   22.31
  -2  -3   5  463.89   21.80
  -2  -3   5  493.57   22.33
  -2  -3   6   66.67    4.75
  -2  -3   6   67.40    4.45
  -2  -3   6   68.94    3.91
  -2  -3   6   59.17    4.63
  -2  -3   6   66.64    4.46
  -2  -3   6   66.20    4.20
  -2  -3   6   67.79    4.85
  -2  -3   6   60.89    4.50
  -2  -3   6   67.59    3.89
  -2  -3   7  164.21    9.53
  -2  -3   7  158.93    9.25
  -2  -3   7  169.60    9.27
  -2  -3   7  146.19    9.27
  -2  -3   7  177.81    9.35
  -2  -3   8   52.75    4.74
  -2  -3   8   55.77    4.55
  -2  -3   8   60.21    4.52
  -2  -3   8   53.63    4.45
  -2  -3   8   44.70    4.44
  -2  -3   8   62.41    4.46
  -2  -3   9   52.20    4.76
  -2  -3   9   43.87    4.20
  -2  -3   9   50.14    4.22
  -2  -3   9   34.88    4.18
  -2  -3   9   38.63    4.43
  -2  -3   9   52.56    4.41
  -2  -3   9   54.70    4.23
  -2  -3  10   11.69    3.12
  -2  -3  10   15.23    2.67
  -2  -3  10   15.18    2.37
  -2  -3  10   11.80    2.44
  -2  -3  10    6.74    2.32
  -2  -3  11   22.24    2.92
  -2  -3  11   25.90    2.94
  -2  -3  11   32.10    3.12
  -2  -3  11   27.07    3.19
  -2  -3  12    5.55    2.33
  -2  -3  12    4.98    1.51
  -2  -3  12    7.81    1.89
  -2  -3  12    7.80    1.64
  -2  -3  13    2.72    1.36
  -2  -2  -9   12.72    2.15
  -2  -2  -9   11.98    1.87
  -2  -2  -8    5.19    1.68
  -2  -2  -8    4.79    1.98
  -2  -2  -7   53.80    4.20
  -2  -2  -7   49.36    3.95
  -2  -2  -7   57.17    4.72
  -2  -2  -6  168.00    9.27
  -2  -2  -6  147.62    9.07
  -2  -2  -6  173.11    9.20
  -2  -2  -6  167.72    9.71
  -2  -2  -5  316.92   14.61
  -2  -2  -5  292.44   14.39
  -2  -2  -5  264.55   14.25
  -2  -2  -5  275.08   14.22
  -2  -2  -5  264.55   14.43
  -2  -2  -5  293.05   14.87
  -2  -2  -4   19.38    2.04
  -2  -2  -4   20.25    2.37
  -2  -2  -4   17.48    2.03
  -2  -2  -4   18.92    2.20
  -2  -2  -4   20.11    2.17
  -2  -2  -4   19.04    2.35
  -2  -2  -3   87.63    5.26
  -2  -2  -3   91.53    5.07
  -2  -2  -3   87.33    5.01
  -2  -2  -3   81.23    5.26
  -2  -2  -3   80.85    5.16
  -2  -2  -3   88.69    5.17
  -2  -2  -2  580.24   26.60
  -2  -2  -2  560.58   26.38
  -2  -2  -2  552.51   26.59
  -2  -2  -2  554.16   26.52
  -2  -2  -1   -0.18    0.55
  -2  -2  -1    0.12    0.54
  -2  -2  -1    0.05    0.59
  -2  -2  -1    1.95    1.24
  -2  -2  -1    1.07    1.04
  -2  -2  -1    0.77    1.17
  -2  -2  -1    0.58    0.72
  -2  -2  -1    0.08    0.85
  -2  -2   0   58.46    3.31
  -2  -2   0   58.88    3.19
  -2  -2   0   56.64    3.30
  -2  -2   0   57.08    3.30
  -2  -2   0   59.35    3.48
  -2  -2   1 2305.72  106.35
  -2  -2   1 2327.34  106.45
  -2  -2   1 2323.88  106.47
  -2  -2   1 2327.22  106.45
  -2  -2   1 2383.15  106.01
  -2  -2   1 2308.82  106.52
  -2  -2   2  348.27   17.25
  -2  -2   2  368.21   17.38
  -2  -2   2  400.20   17.40
  -2  -2   2  363.18   16.90
  -2  -2   2  378.16   17.33
  -2  -2   2  356.85   16.87
  -2  -2   2  346.21   17.29
  -2  -2   2  399.55   17.17
  -2  -2   3   49.66    3.05
  -2  -2   3   53.94    3.27
  -2  -2   3   59.91    3.39
  -2  -2   3   51.66    3.10
  -2  -2   3   55.97    3.21
  -2  -2   3   52.31    3.07
  -2  -2   3   48.85    2.84
  -2  -2   3   54.28    3.13
  -2  -2   3   51.66    3.14
  -2  -2   4 1280.58   56.78
  -2  -2   4 1243.71   57.01
  -2  -2   4 1292.86   56.78
  -2  -2   4 1264.22   57.29
  -2  -2   4 1200.73   57.11
  -2  -2   4 1279.80   56.99
  -2  -2   4 1170.41   57.00
  -2  -2   4 1227.23   56.91
  -2  -2   4 1254.59   56.73
  -2  -2   4 1184.11   56.70
  -2  -2   4 1231.47   56.93
  -2  -2   5  344.87   16.73
  -2  -2   5  312.86   16.59
  -2  -2   5  367.06   16.20
  -2  -2   5  303.33   16.63
  -2  -2   5  358.38   16.19
  -2  -2   5  356.27   16.57
  -2  -2   5  346.65   16.36
  -2  -2   5  323.96   16.52
  -2  -2   5  323.19   16.89
  -2  -2   5  331.12   16.12
  -2  -2   5  360.13   16.62
  -2  -2   5  330.66   16.74
  -2  -2   6   44.66    3.71
  -2  -2   6   46.84    2.81
  -2  -2   6   46.37    3.64
  -2  -2   6   44.59    3.80
  -2  -2   6   43.27    2.77
  -2  -2   6   47.99    3.48
  -2  -2   6   44.46    3.42
  -2  -2   6   42.23    3.31
  -2  -2   6   49.64    3.26
  -2  -2   6   52.61    3.41
  -2  -2   6   44.16    2.84
  -2  -2   7  124.35    8.18
  -2  -2   7  148.52    8.23
  -2  -2   7  149.63    8.08
  -2  -2   7  148.42    8.09
  -2  -2   7  119.37    8.09
  -2  -2   8   26.18    3.08
  -2  -2   8   25.58    3.28
  -2  -2   8   24.07    2.75
  -2  -2   8   27.34    2.92
  -2  -2   8   27.54    2.94
  -2  -2   8   24.45    3.30
  -2  -2   9   55.33    5.14
  -2  -2   9   58.16    5.04
  -2  -2   9   45.27    4.73
  -2  -2   9   70.05    5.17
  -2  -2   9   69.34    5.07
  -2  -2   9   78.99    5.21
  -2  -2  10   23.00    3.19
  -2  -2  10   27.41    3.32
  -2  -2  10   28.99    3.19
  -2  -2  10   30.50    3.15
  -2  -2  11   61.05    4.50
  -2  -2  11   54.80    4.53
  -2  -2  11   42.59    4.25
  -2  -2  11   33.81    4.60
  -2  -2  11   59.27    4.43
  -2  -2  12    2.64    1.43
  -2  -2  12    1.47    1.21
  -2  -2  12    0.37    1.32
  -2  -2  12    0.87    2.13
  -2  -2  13    0.43    1.31
  -2  -2  13    1.93    1.56
  -2  -1 -10   24.62    2.66
  -2  -1  -9   33.03    3.08
  -2  -1  -9   31.91    3.02
  -2  -1  -9   35.02    3.68
  -2  -1  -8   65.17    4.74
  -2  -1  -8   62.09    4.71
  -2  -1  -8   66.44    5.36
  -2  -1  -7    2.58    1.53
  -2  -1  -7    1.65    1.40
  -2  -1  -7    1.83    1.94
  -2  -1  -6   52.30    4.17
  -2  -1  -6   60.69    4.75
  -2  -1  -6   60.96    4.46
  -2  -1  -5   48.20    3.66
  -2  -1  -5   43.91    3.41
  -2  -1  -5   48.89    3.39
  -2  -1  -5   44.24    3.48
  -2  -1  -5   45.47    3.92
  -2  -1  -4   60.25    4.04
  -2  -1  -4   62.78    3.89
  -2  -1  -4   60.58    3.88
  -2  -1  -4   59.96    3.91
  -2  -1  -4   54.03    3.85
  -2  -1  -4   63.79    4.33
  -2  -1  -3  499.54   23.98
  -2  -1  -3  494.73   23.91
  -2  -1  -3  504.34   23.97
  -2  -1  -3  510.01   24.09
  -2  -1  -3  520.15   23.95
  -2  -1  -2   76.46    3.93
  -2  -1  -2   75.35    3.92
  -2  -1  -1   84.74    4.33
  -2  -1  -1   85.18    4.73
  -2  -1  -1   87.48    4.35
  -2  -1  -1   78.59    4.50
  -2  -1   0   20.88    1.35
  -2  -1   0   21.96    1.53
  -2  -1   0   24.51    1.57
  -2  -1   1 3178.01  136.56
  -2  -1   1 3075.93  136.11
  -2  -1   1 2901.54  136.24
  -2  -1   1 2923.83  136.40
  -2  -1   1 2963.70  136.40
  -2  -1   2  795.29   36.61
  -2  -1   2  832.47   36.61
  -2  -1   2  782.68   36.36
  -2  -1   2  790.82   36.68
  -2  -1   2  824.41   36.77
  -2  -1   2  785.98   36.68
  -2  -1   3 5580.21  245.48
  -2  -1   3 5383.05  245.61
  -2  -1   3 5405.18  245.51
  -2  -1   3 5548.78  245.51
  -2  -1   3 5520.64  245.26
  -2  -1   3 5349.91  245.41
  -2  -1   3 5289.89  245.38
  -2  -1   3 5277.30  245.37
  -2  -1   4    2.66    1.10
  -2  -1   4    0.84    0.59
  -2  -1   4    0.14    0.81
  -2  -1   4    1.60    0.96
  -2  -1   4    1.86    0.69
  -2  -1   4    1.07    0.81
  -2  -1   4    1.19    0.74
  -2  -1   4    1.17    0.59
  -2  -1   5  103.49    6.05
  -2  -1   5   95.64    5.99
  -2  -1   5  100.96    6.01
  -2  -1   5  102.40    5.87
  -2  -1   5  101.57    6.31
  -2  -1   5  111.97    5.81
  -2  -1   5  111.84    5.84
  -2  -1   5  102.86    5.61
  -2  -1   5  114.18    5.52
  -2  -1   5  113.72    5.96
  -2  -1   5  105.32    5.47
  -2  -1   6   82.52    4.20
  -2  -1   6   79.92    4.19
  -2  -1   6   66.94    4.91
  -2  -1   6   66.17    5.09
  -2  -1   6   77.21    4.67
  -2  -1   6   70.87    4.74
  -2  -1   6   84.09    4.73
  -2  -1   6   77.11    4.34
  -2  -1   6   77.30    4.82
  -2  -1   7    1.85    1.66
  -2  -1   7    2.07    1.61
  -2  -1   7    2.53    1.91
  -2  -1   7    4.02    1.45
  -2  -1   7    3.55    1.39
  -2  -1   8   14.53    2.69
  -2  -1   8   17.69    2.66
  -2  -1   8   10.80    2.47
  -2  -1   8   22.15    2.58
  -2  -1   8   20.43    2.63
  -2  -1   9   23.01    3.36
  -2  -1   9   26.64    3.27
  -2  -1   9   29.19    3.17
  -2  -1   9   23.39    2.95
  -2  -1   9   31.40    3.06
  -2  -1  10    2.67    2.10
  -2  -1  10    1.71    1.40
  -2  -1  10    2.59    1.74
  -2  -1  10    3.88    1.76
  -2  -1  10    1.46    1.94
  -2  -1  11   11.26    2.43
  -2  -1  11   12.61    2.19
  -2  -1  11   11.81    2.25
  -2  -1  11   13.24    2.44
  -2  -1  12    8.38    1.86
  -2  -1  12   14.20    2.08
  -2  -1  12   15.97    2.28
  -2  -1  12    9.76    2.56
  -2  -1  13   -0.82    1.21
  -2   0 -10    2.61    1.30
  -2   0 -10    0.73    1.63
  -2   0  -9    0.16    1.44
  -2   0  -9   -0.19    1.40
  -2   0  -9   -0.92    2.00
  -2   0  -8    7.36    2.51
  -2   0  -8   11.06    2.29
  -2   0  -8   10.28    2.10
  -2   0  -7    2.97    1.59
  -2   0  -7    5.52    1.66
  -2   0  -7    5.31    2.32
  -2   0  -6    7.90    1.65
  -2   0  -6   14.21    2.16
  -2   0  -6   10.21    2.26
  -2   0  -5   75.85    4.63
  -2   0  -5   69.86    4.91
  -2   0  -5   71.93    4.49
  -2   0  -5   72.61    5.08
  -2   0  -4  270.29   13.21
  -2   0  -4  259.00   13.24
  -2   0  -4  275.00   13.58
  -2   0  -4  270.97   13.72
  -2   0  -3  188.36    9.48
  -2   0  -3  190.07    9.55
  -2   0  -3  180.40    9.34
  -2   0  -3  179.54    9.24
  -2   0  -2   16.20    1.11
  -2   0  -2   16.17    1.53
  -2   0  -2   16.21    1.12
  -2   0  -2   14.30    1.61
  -2   0  -2   17.40    1.42
  -2   0  -1  889.43   40.76
  -2   0  -1  863.99   40.59
  -2   0  -1  889.86   40.41
  -2   0  -1  892.72   40.41
  -2   0   0   22.29    1.47
  -2   0   0   21.31    1.77
  -2   0   0   21.42    1.46
  -2   0   1 1031.40   47.17
  -2   0   1 1099.85   47.36
  -2   0   1 1008.39   47.44
  -2   0   1 1036.17   47.47
  -2   0   1 1045.61   47.47
  -2   0   1 1027.27   47.24
  -2   0   2 9903.58  447.99
  -2   0   3  111.89    5.82
  -2   0   3  113.01    5.71
  -2   0   3  108.19    5.91
  -2   0   3  119.43    5.72
  -2   0   3  115.10    5.72
  -2   0   3  111.83    5.76
  -2   0   4  265.72   12.44
  -2   0   4  254.84   12.67
  -2   0   4  255.34   12.81
  -2   0   4  249.30   12.78
  -2   0   4  271.49   12.54
  -2   0   4  257.06   12.54
  -2   0   4  260.97   12.58
  -2   0   4  264.37   12.44
  -2   0   4  263.47   12.64
  -2   0   5   62.44    4.54
  -2   0   5   69.23    4.23
  -2   0   5   66.76    3.73
  -2   0   5   75.72    4.24
  -2   0   5   61.82    3.92
  -2   0   5   59.40    4.20
  -2   0   5   71.04    4.11
  -2   0   5   73.11    3.77
  -2   0   5   74.14    4.01
  -2   0   6   94.89    5.41
  -2   0   6   87.71    5.93
  -2   0   6   98.10    5.77
  -2   0   6  101.62    5.11
  -2   0   6  104.86    5.78
  -2   0   6  100.91    5.10
  -2   0   6  110.36    5.58
  -2   0   7   55.52    4.36
  -2   0   7   49.31    4.41
  -2   0   7   65.11    3.81
  -2   0   7   52.48    3.50
  -2   0   8   -0.54    1.40
  -2   0   8    0.96    1.73
  -2   0   8   -0.54    1.35
  -2   0   8    0.39    1.76
  -2   0   9   12.38    2.49
  -2   0   9   19.19    2.58
  -2   0   9   17.48    2.54
  -2   0   9   14.08    2.53
  -2   0  10    0.23    1.72
  -2   0  10   -0.42    1.93
  -2   0  10    1.71    1.35
  -2   0  10    1.08    1.62
  -2   0  10    0.45    1.47
  -2   0  11    1.44    1.72
  -2   0  11    1.80    1.32
  -2   0  11    1.81    1.45
  -2   0  11    1.94    1.60
  -2   0  12    4.34    1.61
  -2   0  12    6.30    1.56
  -2   1 -11    0.69    1.27
  -2   1 -10    0.86    1.31
  -2   1 -10    1.22    1.92
  -2   1  -9  165.17    9.59
  -2   1  -9  178.49   10.16
  -2   1  -9  172.36   10.48
  -2   1  -8   24.82    2.95
  -2   1  -8   26.15    3.25
  -2   1  -8   23.51    3.62
  -2   1  -7   27.86    3.54
  -2   1  -7   28.56    2.99
  -2   1  -7   30.61    3.44
  -2   1  -6   36.11    3.11
  -2   1  -6   38.86    3.50
  -2   1  -6   36.31    3.78
  -2   1  -5  649.04   31.43
  -2   1  -5  678.38   30.96
  -2   1  -5  647.47   30.84
  -2   1  -5  679.51   31.42
  -2   1  -5  648.10   31.14
  -2   1  -5  619.49   30.69
  -2   1  -5  631.22   30.67
  -2   1  -5  690.03   31.01
  -2   1  -4  136.45    7.29
  -2   1  -4  133.45    7.12
  -2   1  -4  128.00    6.94
  -2   1  -4  133.99    7.01
  -2   1  -4  120.29    7.00
  -2   1  -4  130.77    7.48
  -2   1  -4  139.24    7.19
  -2   1  -4  135.91    7.43
  -2   1  -3    3.70    0.40
  -2   1  -3    2.78    1.07
  -2   1  -3    5.11    1.15
  -2   1  -3    3.23    0.38
  -2   1  -3    3.42    1.14
  -2   1  -3    3.43    0.96
  -2   1  -3    3.69    0.82
  -2   1  -3    1.92    1.12
  -2   1  -3    3.75    1.47
  -2   1  -3    4.84    1.10
  -2   1  -2  868.05   39.63
  -2   1  -2  869.53   39.17
  -2   1  -2  787.79   39.53
  -2   1  -2  850.25   39.46
  -2   1  -2  887.92   39.65
  -2   1  -2  874.29   39.17
  -2   1  -1 1364.95   62.61
  -2   1  -1 1413.68   62.90
  -2   1  -1 1372.44   62.79
  -2   1  -1 1369.84   62.61
  -2   1   0  617.31   28.88
  -2   1   0  629.17   28.89
  -2   1   0  621.20   28.80
  -2   1   0  653.31   28.90
  -2   1   1 3749.43  170.60
  -2   1   1 4121.56  170.68
  -2   1   1 3791.06  170.49
  -2   1   1 3617.56  170.35
  -2   1   3  191.97    8.51
  -2   1   3  164.62    8.52
  -2   1   3  167.13    8.57
  -2   1   3  183.62    8.56
  -2   1   3  188.03    8.57
  -2   1   3  182.80    8.48
  -2   1   3  152.15    8.64
  -2   1   3  154.85    8.67
  -2   1   4   80.45    4.37
  -2   1   4   90.51    4.38
  -2   1   4   75.60    4.62
  -2   1   4   79.84    4.80
  -2   1   4   82.24    4.47
  -2   1   4   89.23    4.68
  -2   1   4   86.38    4.42
  -2   1   4   83.51    4.64
  -2   1   4   78.69    4.59
  -2   1   4   85.28    5.10
  -2   1   5    3.59    1.14
  -2   1   5    4.77    0.76
  -2   1   5    4.39    1.12
  -2   1   5    3.41    0.70
  -2   1   5    2.33    1.12
  -2   1   5    4.13    1.31
  -2   1   5    1.86    0.86
  -2   1   5    4.38    0.74
  -2   1   5    4.58    1.19
  -2   1   5    2.64    1.68
  -2   1   5    4.29    0.97
  -2   1   6  195.37   10.41
  -2   1   6  172.01   10.63
  -2   1   6  172.05    9.90
  -2   1   6  207.56   10.16
  -2   1   6  220.00    9.95
  -2   1   6  226.19   10.58
  -2   1   7    3.20    1.56
  -2   1   7    2.33    1.99
  -2   1   7    1.85    0.91
  -2   1   8    0.20    1.67
  -2   1   8   -1.11    1.48
  -2   1   8   -1.64    1.83
  -2   1   8   -0.46    0.88
  -2   1   9   22.65    3.29
  -2   1   9   29.36    3.21
  -2   1   9   26.53    3.12
  -2   1   9   32.65    3.23
  -2   1  10    4.47    2.38
  -2   1  10    6.56    2.35
  -2   1  10   10.01    2.00
  -2   1  10    0.85    1.84
  -2   1  10    4.94    1.80
  -2   1  10    7.35    2.12
  -2   1  11    1.80    1.68
  -2   1  11    3.11    1.65
  -2   1  11    2.88    1.59
  -2   1  12    5.95    1.62
  -2   2 -11    0.55    1.23
  -2   2 -11    1.41    1.50
  -2   2 -10    0.97    1.53
  -2   2 -10    1.73    1.93
  -2   2  -9  109.86    7.04
  -2   2  -9  120.48    7.72
  -2   2  -9  119.56    8.01
  -2   2  -8  155.09    9.21
  -2   2  -8  178.19   10.07
  -2   2  -8  150.79    9.97
  -2   2  -7  178.18    9.20
  -2   2  -7  143.80    8.89
  -2   2  -7  164.87    9.42
  -2   2  -7  154.65    9.56
  -2   2  -7  161.86    9.07
  -2   2  -7  154.19    9.75
  -2   2  -6    0.20    1.70
  -2   2  -6    0.29    1.10
  -2   2  -6    0.28    1.14
  -2   2  -6    0.50    1.31
  -2   2  -6    0.12    0.87
  -2   2  -6   -0.23    1.07
  -2   2  -6    0.56    1.51
  -2   2  -6    2.21    1.35
  -2   2  -5   20.54    2.09
  -2   2  -5   14.33    1.85
  -2   2  -5   16.66    1.98
  -2   2  -5   14.44    2.38
  -2   2  -5   18.02    1.88
  -2   2  -5   13.47    2.20
  -2   2  -5   13.22    1.78
  -2   2  -5   20.92    2.36
  -2   2  -4   53.97    3.55
  -2   2  -4   49.38    3.29
  -2   2  -4   44.51    3.03
  -2   2  -4   56.21    3.71
  -2   2  -4   52.88    3.40
  -2   2  -4   51.69    3.09
  -2   2  -4   55.12    3.90
  -2   2  -4   53.75    3.47
  -2   2  -4   47.37    3.46
  -2   2  -4   52.94    3.43
  -2   2  -3  926.97   42.62
  -2   2  -3  925.28   41.88
  -2   2  -3  910.09   42.71
  -2   2  -3  864.03   42.30
  -2   2  -3  900.45   42.59
  -2   2  -3  939.04   42.55
  -2   2  -3  919.16   42.32
  -2   2  -3  930.68   41.89
  -2   2  -3  917.34   42.63
  -2   2  -3  897.29   42.82
  -2   2  -3  972.71   42.58
  -2   2  -2    5.60    1.10
  -2   2  -2    7.01    0.73
  -2   2  -2    6.29    0.71
  -2   2  -2    6.17    0.95
  -2   2  -2    6.68    1.09
  -2   2  -2    7.03    0.98
  -2   2  -2    7.94    1.21
  -2   2  -2    5.83    1.17
  -2   2  -1  401.91   18.26
  -2   2  -1  387.51   17.99
  -2   2  -1  381.48   18.14
  -2   2  -1  382.76   17.98
  -2   2  -1  386.48   18.16
  -2   2   0  672.76   29.11
  -2   2   0  676.00   29.04
  -2   2   0  624.35   28.87
  -2   2   0  610.52   28.85
  -2   2   0  613.07   28.85
  -2   2   0  596.79   28.83
  -2   2   1 2212.00   95.78
  -2   2   1 2194.75   95.83
  -2   2   1 1997.02   95.60
  -2   2   1 2067.97   95.60
  -2   2   2  792.64   38.47
  -2   2   2  802.58   38.49
  -2   2   2  869.42   38.36
  -2   2   2  857.01   38.37
  -2   2   2  843.51   38.35
  -2   2   2  832.80   38.26
  -2   2   3  330.19   15.44
  -2   2   3  317.45   15.49
  -2   2   3  331.83   15.31
  -2   2   3  319.13   15.14
  -2   2   3  311.82   15.43
  -2   2   3  330.03   15.30
  -2   2   4   44.31    3.26
  -2   2   4   47.46    3.03
  -2   2   4   45.30    2.98
  -2   2   4   43.84    3.09
  -2   2   4   44.55    2.55
  -2   2   4   46.76    2.75
  -2   2   4   43.80    3.00
  -2   2   4   47.61    2.76
  -2   2   5   77.55    3.98
  -2   2   5   55.68    3.97
  -2   2   5   83.80    4.52
  -2   2   5   61.87    4.28
  -2   2   5   71.01    4.40
  -2   2   5   79.06    3.99
  -2   2   5   66.39    4.25
  -2   2   6    0.99    1.62
  -2   2   6    0.27    1.08
  -2   2   6   -0.40    1.12
  -2   2   6   -0.11    1.04
  -2   2   6    0.45    0.91
  -2   2   7    4.07    2.10
  -2   2   7    2.14    1.17
  -2   2   7    2.00    1.19
  -2   2   8   -1.66    1.84
  -2   2   8   -0.65    1.86
  -2   2   8   -0.27    1.04
  -2   2   9   -0.23    1.88
  -2   2   9    0.63    1.31
  -2   2   9   -0.23    2.09
  -2   2   9    2.11    1.71
  -2   2  10    7.13    2.38
  -2   2  10    7.92    1.86
  -2   2  10    5.68    1.80
  -2   2  10    7.61    2.01
  -2   2  10    3.55    2.03
  -2   2  11    1.33    1.59
  -2   2  11    0.91    1.47
  -2   2  11    2.29    1.44
  -2   2  12    2.44    1.26
  -2   3 -11    1.69    1.32
  -2   3 -11    1.49    1.55
  -2   3 -10    0.62    1.56
  -2   3 -10    4.00    2.18
  -2   3  -9    0.18    1.50
  -2   3  -9    1.01    2.15
  -2   3  -9    1.90    1.83
  -2   3  -8  123.00    7.45
  -2   3  -8  118.49    7.42
  -2   3  -8  111.82    7.99
  -2   3  -8  129.99    7.95
  -2   3  -8  122.32    7.50
  -2   3  -8  118.91    8.22
  -2   3  -7   88.44    5.82
  -2   3  -7   87.58    5.37
  -2   3  -7   81.99    6.01
  -2   3  -7   86.06    5.82
  -2   3  -7   87.02    5.77
  -2   3  -7   92.14    6.57
  -2   3  -6    4.18    1.29
  -2   3  -6    4.39    1.44
  -2   3  -6    6.49    1.60
  -2   3  -6    3.65    1.52
  -2   3  -6    3.02    1.63
  -2   3  -6    5.39    1.27
  -2   3  -6    3.64    1.30
  -2   3  -6    4.18    2.04
  -2   3  -5   41.25    3.27
  -2   3  -5   44.04    3.20
  -2   3  -5   37.93    3.59
  -2   3  -5   41.13    3.68
  -2   3  -5   42.37    3.15
  -2   3  -5   39.17    2.65
  -2   3  -5   39.50    3.12
  -2   3  -5   41.61    3.30
  -2   3  -5   47.00    3.30
  -2   3  -4  416.91   19.75
  -2   3  -4  409.05   18.60
  -2   3  -4  386.54   18.59
  -2   3  -4  418.19   19.44
  -2   3  -4  395.54   19.82
  -2   3  -4  422.74   19.83
  -2   3  -4  428.63   19.59
  -2   3  -4  427.48   19.23
  -2   3  -4  415.52   19.60
  -2   3  -4  404.75   18.59
  -2   3  -4  386.02   18.58
  -2   3  -4  408.94   19.72
  -2   3  -4  448.86   19.71
  -2   3  -3   32.15    2.56
  -2   3  -3   35.97    2.43
  -2   3  -3   30.71    1.96
  -2   3  -3   35.58    2.70
  -2   3  -3   33.20    2.54
  -2   3  -3   34.59    2.49
  -2   3  -3   35.12    2.36
  -2   3  -3   37.86    2.70
  -2   3  -3   33.25    1.98
  -2   3  -3   32.40    2.65
  -2   3  -2    2.18    0.80
  -2   3  -2    1.14    0.85
  -2   3  -2    1.24    0.88
  -2   3  -2    2.06    0.62
  -2   3  -2    1.30    0.92
  -2   3  -2    2.60    0.72
  -2   3  -2    2.22    0.91
  -2   3  -2    2.53    0.60
  -2   3  -1  352.92   16.64
  -2   3  -1  376.90   16.81
  -2   3  -1  334.82   16.53
  -2   3  -1  347.59   16.53
  -2   3  -1  344.86   16.52
  -2   3  -1  358.70   16.68
  -2   3  -1  360.21   16.68
  -2   3  -1  353.61   16.65
  -2   3   0  356.20   16.63
  -2   3   0  364.24   16.81
  -2   3   0  344.59   16.46
  -2   3   0  365.93   16.79
  -2   3   0  344.28   16.54
  -2   3   0  345.23   16.55
  -2   3   1 1523.90   66.82
  -2   3   1 1498.76   66.78
  -2   3   1 1456.06   66.93
  -2   3   1 1453.14   66.75
  -2   3   1 1418.98   66.44
  -2   3   2  201.68    9.79
  -2   3   2  190.35    9.46
  -2   3   2  194.57    9.56
  -2   3   2  194.69    9.47
  -2   3   2  189.47    9.44
  -2   3   2  189.07    9.57
  -2   3   3  993.54   45.74
  -2   3   3 1030.35   45.60
  -2   3   3  963.36   45.28
  -2   3   3  965.35   45.66
  -2   3   3  991.35   45.39
  -2   3   3  999.18   45.39
  -2   3   3  965.15   45.69
  -2   3   4  957.55   44.07
  -2   3   4  980.40   44.26
  -2   3   4  939.48   44.51
  -2   3   4  948.06   44.62
  -2   3   4  903.68   44.66
  -2   3   4 1016.95   44.28
  -2   3   4  944.28   44.51
  -2   3   5    0.46    0.52
  -2   3   5    1.09    0.56
  -2   3   5    2.98    1.25
  -2   3   5    0.95    1.23
  -2   3   5    0.79    0.98
  -2   3   6    1.46    1.32
  -2   3   6    3.23    1.25
  -2   3   6    0.53    1.09
  -2   3   6    2.99    1.21
  -2   3   7  159.64    8.55
  -2   3   7  133.45    8.67
  -2   3   7  151.85    8.13
  -2   3   7  125.83    7.82
  -2   3   8   10.02    1.80
  -2   3   8    4.87    2.25
  -2   3   9    1.83    1.88
  -2   3   9    1.06    1.51
  -2   3   9    0.64    1.17
  -2   3   9    0.69    2.00
  -2   3  10   19.72    2.87
  -2   3  10   20.28    2.61
  -2   3  10   21.93    2.75
  -2   3  11   -0.76    1.68
  -2   3  11   -1.19    1.48
  -2   3  11    1.47    1.17
  -2   3  11    0.51    1.28
  -2   4 -11   19.56    2.47
  -2   4  -8   94.95    6.67
  -2   4  -8   93.42    6.21
  -2   4  -8   88.13    6.62
  -2   4  -8   89.87    6.18
  -2   4  -7  872.72   40.24
  -2   4  -7  813.89   39.94
  -2   4  -7  823.71   40.58
  -2   4  -7  860.60   40.59
  -2   4  -7  797.39   39.66
  -2   4  -7  861.57   40.27
  -2   4  -7  873.80   40.10
  -2   4  -6   24.74    2.63
  -2   4  -6   28.94    2.88
  -2   4  -6   28.92    3.15
  -2   4  -6   25.84    2.68
  -2   4  -6   25.87    2.53
  -2   4  -6   21.83    2.47
  -2   4  -6   28.71    2.93
  -2   4  -5    7.21    1.73
  -2   4  -5    7.96    1.65
  -2   4  -5    7.44    1.90
  -2   4  -5   10.10    1.92
  -2   4  -5    5.75    1.41
  -2   4  -5    8.89    1.51
  -2   4  -5    5.90    1.59
  -2   4  -5    8.07    1.13
  -2   4  -5    7.62    2.03
  -2   4  -4  422.24   19.78
  -2   4  -4  434.64   20.77
  -2   4  -4  419.29   20.20
  -2   4  -4  434.84   20.97
  -2   4  -4  436.18   19.79
  -2   4  -4  438.67   20.81
  -2   4  -4  431.97   19.78
  -2   4  -4  430.02   20.58
  -2   4  -4  422.68   19.76
  -2   4  -4  391.57   20.21
  -2   4  -4  414.18   20.25
  -2   4  -3 1185.33   55.16
  -2   4  -3 1278.07   55.18
  -2   4  -3 1180.89   54.82
  -2   4  -3 1189.87   54.98
  -2   4  -3 1177.08   54.58
  -2   4  -3 1212.84   55.13
  -2   4  -3 1226.38   54.90
  -2   4  -3 1195.31   55.19
  -2   4  -3 1178.18   54.58
  -2   4  -3 1238.00   55.46
  -2   4  -3 1163.85   55.10
  -2   4  -3 1154.70   55.14
  -2   4  -3 1169.98   54.95
  -2   4  -2  494.14   23.47
  -2   4  -2  502.04   23.41
  -2   4  -2  504.86   23.53
  -2   4  -2  493.48   23.20
  -2   4  -2  483.92   23.32
  -2   4  -2  490.66   23.20
  -2   4  -2  499.14   23.39
  -2   4  -2  498.65   23.51
  -2   4  -2  502.40   23.79
  -2   4  -2  496.24   23.45
  -2   4  -2  504.30   23.47
  -2   4  -1   21.40    1.74
  -2   4  -1   18.15    1.48
  -2   4  -1   23.21    2.01
  -2   4  -1   20.68    1.74
  -2   4  -1   18.48    1.59
  -2   4  -1   17.54    1.55
  -2   4  -1   21.82    1.95
  -2   4  -1   19.40    1.82
  -2   4  -1   20.31    1.76
  -2   4  -1   18.90    1.70
  -2   4  -1   21.08    2.18
  -2   4  -1   20.42    1.70
  -2   4  -1   20.01    1.93
  -2   4   0    4.34    0.81
  -2   4   0    4.28    1.39
  -2   4   0    5.15    1.03
  -2   4   0    4.59    0.86
  -2   4   0    4.18    0.88
  -2   4   0    3.66    0.90
  -2   4   0    5.32    1.28
  -2   4   0    3.96    0.91
  -2   4   1  415.95   18.76
  -2   4   1  367.63   18.05
  -2   4   1  396.46   18.58
  -2   4   1  375.11   18.50
  -2   4   1  409.01   18.65
  -2   4   1  409.71   18.57
  -2   4   1  385.62   18.66
  -2   4   2   61.73    3.85
  -2   4   2   64.23    4.02
  -2   4   2   59.88    3.66
  -2   4   2   65.11    3.95
  -2   4   2   63.61    4.14
  -2   4   2   61.23    3.67
  -2   4   2   60.17    3.71
  -2   4   2   63.83    3.79
  -2   4   3  163.39    9.08
  -2   4   3  177.70    8.79
  -2   4   3  183.40    8.80
  -2   4   3  180.62    8.81
  -2   4   3  166.00    9.15
  -2   4   3  161.65    8.87
  -2   4   3  177.78    9.21
  -2   4   3  166.39    8.74
  -2   4   4  382.93   19.47
  -2   4   4  374.08   19.16
  -2   4   4  413.27   19.03
  -2   4   4  375.16   19.60
  -2   4   4  418.73   19.15
  -2   4   4  406.79   19.49
  -2   4   4  414.50   19.16
  -2   4   5   10.78    1.88
  -2   4   5   10.58    1.93
  -2   4   5   11.29    1.78
  -2   4   6   -0.16    1.46
  -2   4   6   -0.53    1.20
  -2   4   6    1.06    1.16
  -2   4   7   11.61    2.90
  -2   4   7   15.51    2.30
  -2   4   8   10.34    1.83
  -2   4   8    8.06    1.84
  -2   4   8   10.67    2.76
  -2   4   9    9.24    2.34
  -2   4   9   10.00    2.02
  -2   4   9    6.82    2.38
  -2   4   9   10.01    1.71
  -2   4  10    2.17    1.79
  -2   4  10    6.44    1.73
  -2   4  10    6.04    1.69
  -2   4  10    2.12    1.68
  -2   4  11    1.26    1.48
  -2   4  11    0.43    1.26
  -2   5 -11    4.20    1.72
  -2   5 -11    7.67    1.69
  -2   5 -10   -0.22    1.96
  -2   5 -10   -0.20    1.60
  -2   5  -9   44.91    3.93
  -2   5  -9   44.72    4.31
  -2   5  -9   44.48    4.01
  -2   5  -9   42.87    4.54
  -2   5  -8   54.12    4.38
  -2   5  -8   41.90    4.35
  -2   5  -8   49.24    4.76
  -2   5  -8   46.24    3.74
  -2   5  -8   46.28    4.23
  -2   5  -8   55.45    4.26
  -2   5  -7   -0.22    1.73
  -2   5  -7    0.99    1.46
  -2   5  -7    3.80    2.36
  -2   5  -7    0.88    1.72
  -2   5  -7    0.60    1.51
  -2   5  -7    1.98    1.25
  -2   5  -7    1.24    1.37
  -2   5  -7    1.31    1.27
  -2   5  -6   20.56    2.54
  -2   5  -6   18.62    2.46
  -2   5  -6   14.15    2.66
  -2   5  -6   17.50    2.62
  -2   5  -6   13.26    2.03
  -2   5  -6   14.38    2.12
  -2   5  -6   16.35    2.47
  -2   5  -6   15.23    2.27
  -2   5  -5    0.17    1.31
  -2   5  -5    0.63    1.37
  -2   5  -5    0.37    1.64
  -2   5  -5    0.14    1.14
  -2   5  -5    0.70    0.71
  -2   5  -5    0.89    0.97
  -2   5  -4   61.14    4.31
  -2   5  -4   58.95    4.23
  -2   5  -4   62.76    4.23
  -2   5  -4   61.50    3.88
  -2   5  -4   62.97    4.36
  -2   5  -4   60.62    4.59
  -2   5  -4   62.52    4.05
  -2   5  -4   59.81    4.30
  -2   5  -4   64.42    4.27
  -2   5  -4   61.46    3.94
  -2   5  -3   67.70    4.40
  -2   5  -3   61.24    4.21
  -2   5  -3   63.39    3.91
  -2   5  -3   70.25    4.20
  -2   5  -3   69.86    4.43
  -2   5  -3   65.98    4.15
  -2   5  -3   69.80    4.45
  -2   5  -3   71.90    4.00
  -2   5  -3   62.05    4.26
  -2   5  -3   74.57    4.45
  -2   5  -3   74.18    4.45
  -2   5  -3   70.33    4.30
  -2   5  -3   69.78    4.70
  -2   5  -2   24.51    2.17
  -2   5  -2   22.23    1.87
  -2   5  -2   24.55    1.91
  -2   5  -2   23.17    1.91
  -2   5  -2   24.79    2.02
  -2   5  -2   23.20    2.06
  -2   5  -2   25.32    2.22
  -2   5  -2   21.91    2.18
  -2   5  -2   20.47    2.39
  -2   5  -2   24.06    2.30
  -2   5  -2   23.16    2.06
  -2   5  -2   22.49    2.19
  -2   5  -1  403.01   19.03
  -2   5  -1  399.79   19.24
  -2   5  -1  382.04   18.73
  -2   5  -1  410.50   19.24
  -2   5  -1  398.86   19.12
  -2   5  -1  412.82   19.31
  -2   5  -1  393.13   19.10
  -2   5  -1  419.67   19.38
  -2   5  -1  400.09   19.04
  -2   5  -1  405.42   19.13
  -2   5  -1  374.67   18.80
  -2   5  -1  409.50   19.39
  -2   5  -1  401.94   19.04
  -2   5  -1  419.44   19.35
  -2   5   0  123.34    6.54
  -2   5   0  146.22    7.37
  -2   5   0  135.71    7.17
  -2   5   0  129.97    6.93
  -2   5   0  131.23    6.92
  -2   5   0  132.27    6.92
  -2   5   0  133.41    7.11
  -2   5   0  125.78    6.57
  -2   5   0  128.36    6.81
  -2   5   0  125.06    6.62
  -2   5   1   10.00    1.67
  -2   5   1   11.01    1.66
  -2   5   1    7.87    1.67
  -2   5   1   11.58    1.38
  -2   5   1   10.02    1.37
  -2   5   1   10.40    1.31
  -2   5   1   10.57    1.48
  -2   5   1    9.13    1.44
  -2   5   1    9.65    0.97
  -2   5   1   13.38    1.84
  -2   5   2   63.30    4.23
  -2   5   2   62.66    4.10
  -2   5   2   58.72    3.66
  -2   5   2   68.83    4.58
  -2   5   2   67.44    4.16
  -2   5   2   65.95    4.45
  -2   5   2   66.22    4.09
  -2   5   2   66.19    4.19
  -2   5   3  103.65    6.55
  -2   5   3  103.77    5.99
  -2   5   3  110.49    6.07
  -2   5   3  103.75    6.54
  -2   5   3  113.57    6.34
  -2   5   4  114.99    6.04
  -2   5   4  105.88    6.66
  -2   5   4  105.43    6.53
  -2   5   4  106.35    6.39
  -2   5   4   98.27    5.85
  -2   5   4  107.38    6.25
  -2   5   5   16.91    2.02
  -2   5   5   20.80    2.62
  -2   5   5   11.94    2.23
  -2   5   5   18.11    1.74
  -2   5   5   19.15    2.36
  -2   5   6   -1.68    1.67
  -2   5   6   -1.78    1.50
  -2   5   6   -1.75    1.36
  -2   5   7   26.40    2.87
  -2   5   7   20.01    3.49
  -2   5   7   19.85    2.76
  -2   5   7   24.43    2.75
  -2   5   8    1.72    2.30
  -2   5   8    7.99    1.96
  -2   5   8    3.67    1.61
  -2   5   8    6.74    1.68
  -2   5   9   12.22    2.67
  -2   5   9   20.33    2.18
  -2   5  10    2.73    1.60
  -2   6 -11    5.11    1.45
  -2   6 -11    2.08    1.43
  -2   6 -10   43.73    3.86
  -2   6 -10   39.94    3.95
  -2   6  -9    4.83    1.76
  -2   6  -9    4.09    1.86
  -2   6  -9    4.08    1.65
  -2   6  -9    6.70    2.47
  -2   6  -8   24.16    2.81
  -2   6  -8   20.47    2.73
  -2   6  -8   23.17    3.01
  -2   6  -8   19.46    2.87
  -2   6  -8   19.95    2.95
  -2   6  -8   21.74    2.58
  -2   6  -8   18.99    3.28
  -2   6  -7  230.18   12.54
  -2   6  -7  222.12   12.43
  -2   6  -7  232.50   12.70
  -2   6  -7  220.51   12.10
  -2   6  -7  205.05   11.84
  -2   6  -7  230.88   12.60
  -2   6  -7  216.65   12.75
  -2   6  -7  234.80   12.46
  -2   6  -6  544.20   26.10
  -2   6  -6  489.76   25.71
  -2   6  -6  558.06   25.97
  -2   6  -6  518.39   25.74
  -2   6  -6  518.55   25.67
  -2   6  -6  519.94   26.20
  -2   6  -5  131.86    7.92
  -2   6  -5  131.08    7.73
  -2   6  -5  142.06    8.06
  -2   6  -5  128.35    7.78
  -2   6  -5  130.82    7.24
  -2   6  -5  130.24    7.93
  -2   6  -5  139.44    8.21
  -2   6  -5  125.50    7.35
  -2   6  -5  132.10    7.88
  -2   6  -4    2.71    1.32
  -2   6  -4    2.93    1.41
  -2   6  -4    1.81    1.14
  -2   6  -4    2.91    1.47
  -2   6  -4    1.22    1.70
  -2   6  -4    2.36    1.03
  -2   6  -4    3.94    1.30
  -2   6  -4    2.51    1.41
  -2   6  -4    3.75    1.47
  -2   6  -4    2.99    1.23
  -2   6  -3  630.34   31.38
  -2   6  -3  671.91   31.67
  -2   6  -3  624.06   31.20
  -2   6  -3  663.90   31.37
  -2   6  -3  679.62   31.93
  -2   6  -3  667.14   31.44
  -2   6  -3  703.25   31.77
  -2   6  -3  679.47   31.65
  -2   6  -3  714.43   31.72
  -2   6  -3  650.04   31.50
  -2   6  -2  994.78   48.04
  -2   6  -2 1035.59   48.42
  -2   6  -2 1077.58   48.56
  -2   6  -2 1033.48   48.60
  -2   6  -2  984.02   48.10
  -2   6  -2 1070.53   48.52
  -2   6  -2 1047.17   48.20
  -2   6  -2 1059.69   48.47
  -2   6  -2 1084.12   48.73
  -2   6  -2 1052.74   48.44
  -2   6  -2 1078.75   48.63
  -2   6  -1    6.86    1.14
  -2   6  -1    6.54    1.20
  -2   6  -1    6.14    1.40
  -2   6  -1    6.41    1.52
  -2   6  -1    8.04    1.52
  -2   6  -1    7.68    1.60
  -2   6  -1    8.32    1.33
  -2   6  -1    9.19    1.85
  -2   6  -1    7.10    1.14
  -2   6   0   20.76    2.33
  -2   6   0   21.42    2.40
  -2   6   0   22.82    2.56
  -2   6   0   19.60    2.05
  -2   6   0   19.66    2.05
  -2   6   0   22.82    2.05
  -2   6   0   19.30    1.70
  -2   6   1 1428.27   64.26
  -2   6   1 1350.87   63.73
  -2   6   1 1410.58   64.07
  -2   6   1 1435.47   64.30
  -2   6   1 1344.67   63.93
  -2   6   1 1358.04   64.11
  -2   6   2    7.38    2.16
  -2   6   2    4.65    1.80
  -2   6   2    6.62    1.53
  -2   6   2    6.69    1.16
  -2   6   2    6.35    1.41
  -2   6   2    6.53    1.49
  -2   6   2    5.77    1.68
  -2   6   3   84.71    6.11
  -2   6   3   90.20    5.52
  -2   6   3   89.93    5.76
  -2   6   3   91.40    5.54
  -2   6   3   93.97    5.82
  -2   6   4  183.46    9.65
  -2   6   4  185.70    9.38
  -2   6   4  185.31   10.16
  -2   6   4  164.30    9.17
  -2   6   5  224.24   11.06
  -2   6   5  204.02   11.25
  -2   6   5  198.15   11.67
  -2   6   5  192.69   11.79
  -2   6   6    1.69    1.87
  -2   6   6    0.37    1.65
  -2   6   6    2.75    1.70
  -2   6   7    2.32    1.38
  -2   6   7    3.10    2.49
  -2   6   7    1.81    1.76
  -2   6   7    4.65    1.69
  -2   6   8  143.83    7.74
  -2   6   8   93.05    7.39
  -2   6   8  103.40    6.88
  -2   6   8  125.76    7.18
  -2   6   9   24.09    2.60
  -2   6   9   14.88    2.56
  -2   6  10   -0.27    1.19
  -2   7 -10   23.39    2.47
  -2   7 -10   21.03    2.51
  -2   7 -10   20.94    2.48
  -2   7 -10   16.01    2.57
  -2   7  -9   21.21    2.73
  -2   7  -9   18.95    2.66
  -2   7  -9   20.90    2.75
  -2   7  -9   17.68    3.00
  -2   7  -8   23.35    2.75
  -2   7  -8   20.50    2.73
  -2   7  -8   12.93    2.34
  -2   7  -8   18.20    3.11
  -2   7  -8   20.69    2.90
  -2   7  -8   16.22    2.35
  -2   7  -8   21.69    2.89
  -2   7  -7  125.15    7.90
  -2   7  -7  123.17    8.11
  -2   7  -7  137.12    8.03
  -2   7  -7  115.41    7.64
  -2   7  -7  128.85    8.38
  -2   7  -7  146.72    8.31
  -2   7  -6  303.13   15.66
  -2   7  -6  285.50   15.18
  -2   7  -6  288.66   15.48
  -2   7  -6  295.03   15.49
  -2   7  -6  301.12   15.69
  -2   7  -6  282.26   15.68
  -2   7  -5   17.50    2.34
  -2   7  -5   12.73    2.21
  -2   7  -5   14.18    2.22
  -2   7  -5   13.72    2.20
  -2   7  -5   13.81    1.78
  -2   7  -5   15.44    2.43
  -2   7  -5   12.84    2.54
  -2   7  -5   14.49    2.08
  -2   7  -5   13.86    2.00
  -2   7  -5   14.01    1.93
  -2   7  -4   41.61    3.54
  -2   7  -4   35.12    3.45
  -2   7  -4   39.78    3.22
  -2   7  -4   40.59    3.58
  -2   7  -4   41.76    3.78
  -2   7  -4   41.88    3.50
  -2   7  -4   39.11    3.52
  -2   7  -4   42.36    3.42
  -2   7  -3   72.67    4.81
  -2   7  -3   67.18    4.66
  -2   7  -3   78.64    4.87
  -2   7  -3   67.39    4.47
  -2   7  -3   69.85    4.80
  -2   7  -3   70.45    4.96
  -2   7  -3   73.59    5.04
  -2   7  -3   73.65    4.88
  -2   7  -3   78.23    4.97
  -2   7  -2  252.37   13.15
  -2   7  -2  253.14   12.83
  -2   7  -2  254.25   13.17
  -2   7  -2  261.90   13.10
  -2   7  -2  231.24   12.63
  -2   7  -2  260.64   12.90
  -2   7  -2  249.73   13.11
  -2   7  -2  254.97   13.30
  -2   7  -2  254.62   12.89
  -2   7  -1   46.85    3.49
  -2   7  -1   38.34    3.45
  -2   7  -1   43.43    3.36
  -2   7  -1   42.18    3.68
  -2   7  -1   41.33    3.38
  -2   7  -1   44.36    3.04
  -2   7  -1   42.29    2.97
  -2   7  -1   40.53    2.98
  -2   7  -1   38.93    2.98
  -2   7   0    1.43    0.75
  -2   7   0    1.31    1.55
  -2   7   0    1.63    1.16
  -2   7   0    0.87    1.68
  -2   7   0    2.56    1.39
  -2   7   0    1.84    1.58
  -2   7   0    1.00    1.08
  -2   7   1    0.34    1.48
  -2   7   1    0.94    1.86
  -2   7   1    1.00    0.98
  -2   7   1    1.54    1.28
  -2   7   1    1.14    1.48
  -2   7   1    0.43    1.14
  -2   7   1    2.58    1.60
  -2   7   2  115.48    7.03
  -2   7   2  116.53    7.59
  -2   7   2  113.61    6.47
  -2   7   2  118.40    7.04
  -2   7   2  116.86    7.41
  -2   7   2  118.24    7.26
  -2   7   2  115.75    7.06
  -2   7   3   41.53    4.16
  -2   7   3   49.96    3.70
  -2   7   3   42.62    3.75
  -2   7   3   41.69    3.48
  -2   7   3   41.39    3.85
  -2   7   4   42.53    3.31
  -2   7   4   29.15    3.67
  -2   7   4   40.05    3.55
  -2   7   4   43.17    4.08
  -2   7   4   33.99    3.12
  -2   7   5    0.22    1.84
  -2   7   5   -1.14    2.07
  -2   7   5    1.34    1.47
  -2   7   5    0.62    1.47
  -2   7   6   10.16    2.24
  -2   7   6   11.39    2.71
  -2   7   6   14.04    2.37
  -2   7   7   11.39    2.03
  -2   7   7   10.17    2.68
  -2   7   7   10.65    2.11
  -2   7   7   10.65    2.36
  -2   7   7    9.09    1.94
  -2   7   8    8.60    1.73
  -2   7   8    9.39    2.13
  -2   7   8    8.08    2.30
  -2   7   8    5.53    1.64
  -2   7   8    7.25    1.63
  -2   7   9    1.90    1.36
  -2   8 -10    5.04    1.40
  -2   8 -10    3.34    1.23
  -2   8 -10    3.06    1.26
  -2   8 -10    3.61    1.55
  -2   8  -9    1.41    1.21
  -2   8  -9    0.93    1.32
  -2   8  -9    1.56    1.30
  -2   8  -9    0.94    1.43
  -2   8  -9    0.77    1.60
  -2   8  -8    1.43    1.38
  -2   8  -8    2.23    1.63
  -2   8  -8    2.39    1.37
  -2   8  -8    2.82    1.43
  -2   8  -8    1.32    1.82
  -2   8  -7   35.15    3.89
  -2   8  -7   43.53    3.96
  -2   8  -7   34.11    3.25
  -2   8  -7   33.44    3.52
  -2   8  -7   37.13    3.59
  -2   8  -7   36.93    3.58
  -2   8  -7   37.75    3.81
  -2   8  -6   72.07    5.27
  -2   8  -6   76.25    5.31
  -2   8  -6   65.94    5.10
  -2   8  -6   67.70    4.92
  -2   8  -6   65.40    5.22
  -2   8  -6   58.71    5.13
  -2   8  -6   55.09    4.45
  -2   8  -5  178.87    9.93
  -2   8  -5  163.32    9.47
  -2   8  -5  174.81    9.97
  -2   8  -5  163.27    9.23
  -2   8  -5  180.95    9.99
  -2   8  -5  157.17    9.50
  -2   8  -5  179.01    9.93
  -2   8  -5  163.70    9.27
  -2   8  -4    1.09    1.19
  -2   8  -4    1.98    1.34
  -2   8  -4    2.81    1.28
  -2   8  -4    3.20    1.24
  -2   8  -4    2.56    1.52
  -2   8  -4    2.59    1.66
  -2   8  -4    2.49    1.41
  -2   8  -3   12.62    1.90
  -2   8  -3   12.79    1.95
  -2   8  -3   11.10    2.27
  -2   8  -3   15.25    2.39
  -2   8  -3   11.21    2.04
  -2   8  -3   13.57    2.02
  -2   8  -3   13.98    2.06
  -2   8  -3   13.41    2.27
  -2   8  -2  390.92   19.90
  -2   8  -2  394.28   19.89
  -2   8  -2  410.82   19.90
  -2   8  -2  391.53   19.41
  -2   8  -2  389.87   19.41
  -2   8  -2  414.17   20.16
  -2   8  -2  397.14   19.53
  -2   8  -2  383.88   19.91
  -2   8  -2  388.36   19.39
  -2   8  -1  310.67   15.76
  -2   8  -1  319.77   16.07
  -2   8  -1  316.17   15.81
  -2   8  -1  310.52   15.66
  -2   8  -1  284.01   15.12
  -2   8  -1  293.54   15.14
  -2   8  -1  319.31   16.01
  -2   8   0   18.66    2.66
  -2   8   0   20.16    2.92
  -2   8   0   20.75    2.35
  -2   8   0   21.99    2.58
  -2   8   0   20.22    2.75
  -2   8   0   21.92    2.38
  -2   8   1   35.44    3.29
  -2   8   1   38.08    3.47
  -2   8   1   46.56    3.37
  -2   8   1   40.61    3.83
  -2   8   1   40.59    4.08
  -2   8   1   33.29    3.48
  -2   8   1   37.08    3.67
  -2   8   2    0.20    1.60
  -2   8   2    1.86    1.66
  -2   8   2    1.95    1.89
  -2   8   2    1.45    1.39
  -2   8   2    0.18    1.38
  -2   8   3    7.57    2.47
  -2   8   3    8.12    1.82
  -2   8   3    6.16    1.71
  -2   8   3    6.97    1.95
  -2   8   3    7.71    2.11
  -2   8   4    0.39    1.51
  -2   8   4    0.95    2.14
  -2   8   4   -1.88    1.99
  -2   8   4    0.50    1.07
  -2   8   4   -0.16    1.24
  -2   8   4    0.21    1.49
  -2   8   5    1.40    1.97
  -2   8   5    2.89    1.99
  -2   8   5    0.69    1.40
  -2   8   6   27.35    3.34
  -2   8   6   35.88    3.71
  -2   8   7    2.14    2.07
  -2   8   7    0.17    1.25
  -2   8   7   -0.52    1.26
  -2   8   7    1.20    1.60
  -2   8   8    0.15    1.30
  -2   8   8    1.99    1.50
  -2   9  -9   12.12    1.65
  -2   9  -8   17.53    2.40
  -2   9  -8   12.43    2.03
  -2   9  -8   14.12    2.36
  -2   9  -7    7.58    1.86
  -2   9  -7    5.75    1.84
  -2   9  -7    6.71    1.84
  -2   9  -7    4.72    1.74
  -2   9  -7    7.51    1.94
  -2   9  -6   77.52    5.59
  -2   9  -6   76.23    5.55
  -2   9  -6   76.91    5.57
  -2   9  -6   64.45    4.92
  -2   9  -6   77.67    5.47
  -2   9  -5  238.38   12.68
  -2   9  -5  234.38   12.65
  -2   9  -5  248.39   12.94
  -2   9  -5  227.50   12.16
  -2   9  -5  235.73   12.70
  -2   9  -5  208.96   12.02
  -2   9  -4  315.20   16.06
  -2   9  -4  303.15   15.91
  -2   9  -4  324.41   16.14
  -2   9  -4  297.56   16.21
  -2   9  -4  313.88   16.12
  -2   9  -4  296.33   15.90
  -2   9  -3  133.42    7.53
  -2   9  -3  125.38    7.61
  -2   9  -3  124.26    7.92
  -2   9  -3  127.43    7.74
  -2   9  -3  127.85    7.49
  -2   9  -3  132.45    8.09
  -2   9  -3  119.98    7.50
  -2   9  -3  122.00    7.81
  -2   9  -2   20.50    2.26
  -2   9  -2   21.86    2.96
  -2   9  -2   20.13    2.58
  -2   9  -2   19.79    2.41
  -2   9  -2   22.07    2.67
  -2   9  -2   19.52    2.91
  -2   9  -2   18.43    2.71
  -2   9  -1  296.59   15.10
  -2   9  -1  285.87   15.22
  -2   9  -1  275.26   14.30
  -2   9  -1  281.21   14.89
  -2   9  -1  272.54   14.75
  -2   9  -1  289.46   15.25
  -2   9   0   72.98    5.12
  -2   9   0   70.24    5.77
  -2   9   0   80.49    5.58
  -2   9   0   81.18    5.49
  -2   9   0   66.56    4.86
  -2   9   0   73.41    5.61
  -2   9   1   39.46    3.33
  -2   9   1   39.76    4.23
  -2   9   1   40.57    3.71
  -2   9   1   44.78    4.13
  -2   9   1   38.85    3.52
  -2   9   1   34.59    3.75
  -2   9   1   41.72    4.04
  -2   9   2   30.81    3.10
  -2   9   2   23.17    3.00
  -2   9   2   26.93    3.35
  -2   9   2   25.35    3.43
  -2   9   2   30.68    3.14
  -2   9   3    3.63    1.69
  -2   9   3    5.37    2.20
  -2   9   3    2.31    1.85
  -2   9   3    1.18    2.00
  -2   9   3    3.85    1.54
  -2   9   3    2.04    1.53
  -2   9   4    3.24    2.18
  -2   9   4    6.10    1.44
  -2   9   4    4.91    1.81
  -2   9   4    7.97    2.03
  -2   9   5   -0.20    1.81
  -2   9   5    1.50    2.03
  -2   9   5    3.68    1.50
  -2   9   6    0.54    1.57
  -2   9   6   -2.16    1.95
  -2   9   6    0.17    1.25
  -2   9   7    1.51    1.23
  -2   9   7    1.60    1.53
  -2   9   7   -0.76    1.15
  -2  10  -8    0.96    1.27
  -2  10  -8   -0.49    1.32
  -2  10  -8    0.87    1.17
  -2  10  -7    1.09    1.20
  -2  10  -7    0.36    1.21
  -2  10  -7    0.18    1.30
  -2  10  -7    0.51    1.44
  -2  10  -7    0.36    1.27
  -2  10  -6  121.00    7.28
  -2  10  -6  120.62    7.44
  -2  10  -6  120.22    7.28
  -2  10  -6   98.62    6.73
  -2  10  -6  124.28    7.37
  -2  10  -5   90.11    5.84
  -2  10  -5   89.12    5.55
  -2  10  -5   83.29    5.77
  -2  10  -5   87.94    5.91
  -2  10  -5   90.15    5.89
  -2  10  -5   77.55    5.37
  -2  10  -4   11.58    1.97
  -2  10  -4   10.48    1.89
  -2  10  -4   14.70    2.10
  -2  10  -4   14.39    2.11
  -2  10  -4   14.05    2.35
  -2  10  -4   12.52    2.43
  -2  10  -4   10.15    1.97
  -2  10  -3   91.94    6.39
  -2  10  -3  110.87    6.97
  -2  10  -3  111.31    6.78
  -2  10  -3  102.49    6.96
  -2  10  -3  100.09    6.33
  -2  10  -3  101.52    6.80
  -2  10  -2   60.16    4.95
  -2  10  -2   70.96    5.01
  -2  10  -2   62.51    4.91
  -2  10  -2   64.97    5.21
  -2  10  -2   57.39    4.95
  -2  10  -1    1.77    1.98
  -2  10  -1    3.60    1.57
  -2  10  -1    3.25    1.64
  -2  10  -1    3.49    1.61
  -2  10  -1    3.62    1.98
  -2  10  -1    5.31    2.07
  -2  10   0   38.81    4.09
  -2  10   0   36.43    3.21
  -2  10   0   34.78    3.29
  -2  10   0   41.71    3.78
  -2  10   0   36.19    3.56
  -2  10   0   36.33    3.82
  -2  10   1    3.62    2.25
  -2  10   1    3.90    2.06
  -2  10   1    4.84    1.59
  -2  10   1    3.37    1.81
  -2  10   1    3.03    1.38
  -2  10   1    3.56    2.03
  -2  10   2   55.70    5.17
  -2  10   2   80.67    5.19
  -2  10   2   73.37    5.09
  -2  10   2   63.34    4.98
  -2  10   2   63.14    5.15
  -2  10   3    1.35    1.95
  -2  10   3   -0.43    1.86
  -2  10   3    0.67    1.17
  -2  10   3    0.81    1.32
  -2  10   3    0.56    1.38
  -2  10   3    1.16    1.62
  -2  10   4    6.79    2.10
  -2  10   4    7.70    1.80
  -2  10   4    4.50    1.57
  -2  10   5   12.92    2.26
  -2  10   5   13.87    1.99
  -2  11  -7   17.75    2.09
  -2  11  -7   16.33    2.15
  -2  11  -7   18.45    2.20
  -2  11  -7   18.14    2.11
  -2  11  -6   17.95    2.10
  -2  11  -6   18.21    2.41
  -2  11  -6   13.48    1.91
  -2  11  -6   10.58    1.79
  -2  11  -5    0.57    0.98
  -2  11  -5   -0.16    0.99
  -2  11  -5    1.39    1.00
  -2  11  -5   -0.15    1.04
  -2  11  -5   -1.89    1.45
  -2  11  -4  138.73    8.57
  -2  11  -4  147.80    8.27
  -2  11  -4  153.82    8.75
  -2  11  -4  133.89    8.17
  -2  11  -3  170.86    9.85
  -2  11  -3  170.82    9.63
  -2  11  -3  169.99    9.98
  -2  11  -3  164.68    9.68
  -2  11  -2   16.98    2.28
  -2  11  -2    8.27    2.15
  -2  11  -2   11.50    2.28
  -2  11  -2   14.25    2.24
  -2  11  -1    1.92    1.80
  -2  11  -1    4.18    1.84
  -2  11  -1    1.38    1.30
  -2  11  -1    1.28    1.42
  -2  11  -1    4.87    1.70
  -2  11  -1   -0.21    1.84
  -2  11   0   54.43    4.83
  -2  11   0   71.94    4.89
  -2  11   0   61.39    4.33
  -2  11   0   62.69    4.70
  -2  11   0   60.34    4.90
  -2  11   1   65.48    5.40
  -2  11   1   74.03    5.11
  -2  11   1   71.13    5.25
  -2  11   1   69.51    4.80
  -2  11   1   75.83    5.29
  -2  11   1   74.59    5.37
  -2  11   2    0.15    1.16
  -2  11   2    0.16    1.31
  -2  11   2   -0.74    1.63
  -2  11   2    0.64    1.03
  -2  11   2   -0.18    1.58
  -2  11   3    2.90    1.24
  -2  11   3    0.18    1.60
  -2  11   3    2.91    1.72
  -2  11   3    1.21    1.30
  -2  11   4   13.13    2.05
  -2  12  -6    0.41    1.08
  -2  12  -6   -0.27    1.20
  -2  12  -5    5.19    1.44
  -2  12  -5    4.76    1.41
  -2  12  -4   99.18    5.87
  -2  12  -4   85.87    5.68
  -2  12  -4   82.30    5.33
  -2  12  -3   40.87    3.34
  -2  12  -3   41.15    3.62
  -2  12  -3   34.91    3.20
  -2  12  -2    0.95    1.06
  -2  12  -2    1.04    1.18
  -2  12  -2   -0.17    1.32
  -2  12  -1    0.49    1.34
  -2  12  -1   -0.16    1.02
  -2  12  -1    0.65    0.96
  -2  12  -1    0.17    1.41
  -2  12  -1   -0.17    1.47
  -2  12   0    3.55    1.68
  -2  12   0    4.04    1.43
  -2  12   0    3.54    1.56
  -2  12   1    1.61    1.30
  -2  12   1    2.33    1.34
  -2  12   1    0.15    1.25
  -2  12   2    0.13    1.14
  -2  12   2    0.76    1.16
  -2  13  -3    2.95    1.26
  -1 -12   1    0.65    1.07
  -1 -12   2    4.11    1.41
  -1 -12   3   43.20    3.46
  -1 -12   4   12.14    1.99
  -1 -12   4   16.30    2.15
  -1 -12   5    3.88    1.41
  -1 -12   5    5.94    1.51
  -1 -12   6    0.98    1.22
  -1 -12   6    1.10    1.17
  -1 -12   7    7.55    1.50
  -1 -11  -2    7.14    1.48
  -1 -11  -2    4.69    1.56
  -1 -11  -2    5.93    1.51
  -1 -11  -1    2.02    1.41
  -1 -11  -1    3.49    1.57
  -1 -11   0    0.55    1.66
  -1 -11   0    1.92    1.44
  -1 -11   0    2.14    1.69
  -1 -11   0    1.06    1.35
  -1 -11   0    1.39    1.49
  -1 -11   1    5.58    1.80
  -1 -11   1    7.61    1.92
  -1 -11   1    4.53    1.66
  -1 -11   1   10.13    1.86
  -1 -11   1    9.78    1.91
  -1 -11   2   53.15    4.22
  -1 -11   2   43.45    3.87
  -1 -11   2   44.39    3.78
  -1 -11   2   50.92    3.98
  -1 -11   3   29.09    3.04
  -1 -11   3   29.60    2.96
  -1 -11   3   30.60    3.18
  -1 -11   3   30.51    3.15
  -1 -11   4    6.96    1.62
  -1 -11   4    8.62    2.01
  -1 -11   4   10.92    2.16
  -1 -11   4    6.20    1.64
  -1 -11   4   10.42    2.16
  -1 -11   4    5.53    1.54
  -1 -11   5   77.88    5.73
  -1 -11   5   79.68    5.65
  -1 -11   5   91.88    5.51
  -1 -11   5   91.20    5.73
  -1 -11   5   80.20    5.57
  -1 -11   5   78.09    5.21
  -1 -11   6   86.21    5.81
  -1 -11   6   77.92    5.54
  -1 -11   6   88.23    5.39
  -1 -11   6   86.13    5.68
  -1 -11   7   -0.17    1.40
  -1 -11   7    0.47    1.39
  -1 -11   7   -0.33    1.16
  -1 -11   8    4.77    1.55
  -1 -11   8    2.75    1.41
  -1 -11   9   49.01    3.56
  -1 -10  -4   -0.83    1.35
  -1 -10  -4    0.50    1.18
  -1 -10  -3    5.17    1.57
  -1 -10  -3    3.49    1.85
  -1 -10  -3    2.70    1.62
  -1 -10  -2   78.35    5.87
  -1 -10  -2   90.71    5.81
  -1 -10  -2   89.85    5.80
  -1 -10  -1   14.90    2.54
  -1 -10  -1   12.72    2.40
  -1 -10  -1   12.72    2.34
  -1 -10  -1   12.28    2.73
  -1 -10  -1   14.30    2.52
  -1 -10   0    1.97    1.81
  -1 -10   0    0.90    1.79
  -1 -10   0   -0.22    1.62
  -1 -10   0    1.85    1.48
  -1 -10   0   -0.82    1.63
  -1 -10   0   -0.21    2.04
  -1 -10   1  197.83   11.20
  -1 -10   1  194.57   11.07
  -1 -10   1  207.00   11.03
  -1 -10   1  187.24   10.67
  -1 -10   1  178.19   10.79
  -1 -10   1  179.79   10.81
  -1 -10   2   48.80    4.17
  -1 -10   2   47.17    4.31
  -1 -10   2   43.06    3.80
  -1 -10   2   51.55    4.25
  -1 -10   2   46.90    3.99
  -1 -10   2   45.71    4.18
  -1 -10   2   47.47    4.11
  -1 -10   3   28.00    3.00
  -1 -10   3   30.25    3.18
  -1 -10   3   30.31    3.38
  -1 -10   3   27.93    3.10
  -1 -10   3   29.75    3.17
  -1 -10   3   30.75    3.44
  -1 -10   4   24.77    3.17
  -1 -10   4   26.53    2.90
  -1 -10   4   27.03    3.17
  -1 -10   4   25.90    3.45
  -1 -10   4   24.07    2.82
  -1 -10   4   29.54    3.14
  -1 -10   4   32.30    3.05
  -1 -10   5    0.66    1.72
  -1 -10   5   -1.47    1.77
  -1 -10   5    0.67    1.31
  -1 -10   5   -1.71    1.76
  -1 -10   5    2.51    2.15
  -1 -10   5    1.17    1.25
  -1 -10   5    0.61    1.57
  -1 -10   5    0.18    1.24
  -1 -10   6    1.72    1.71
  -1 -10   6    0.15    1.26
  -1 -10   6    0.19    1.09
  -1 -10   6    0.85    1.15
  -1 -10   6    1.45    1.83
  -1 -10   6    2.22    1.50
  -1 -10   6   -1.29    1.92
  -1 -10   7    3.32    1.89
  -1 -10   7    2.68    1.17
  -1 -10   7    2.49    1.81
  -1 -10   7    2.81    1.79
  -1 -10   7    2.94    1.47
  -1 -10   8   33.04    3.51
  -1 -10   8   40.99    3.14
  -1 -10   8   32.72    3.20
  -1 -10   8   39.47    3.70
  -1 -10   9   30.85    3.05
  -1 -10   9   26.29    2.88
  -1 -10  10    0.81    1.14
  -1  -9  -5    8.22    1.62
  -1  -9  -5    8.07    2.02
  -1  -9  -5    4.11    1.59
  -1  -9  -4    0.70    1.47
  -1  -9  -4    1.25    1.68
  -1  -9  -3    3.17    1.81
  -1  -9  -3    6.13    2.05
  -1  -9  -3    5.45    2.42
  -1  -9  -2   75.99    5.76
  -1  -9  -2   79.79    5.68
  -1  -9  -2   74.79    5.68
  -1  -9  -2   66.51    5.80
  -1  -9  -2   71.56    5.74
  -1  -9  -1    6.06    2.16
  -1  -9  -1    4.97    2.18
  -1  -9  -1    7.00    2.20
  -1  -9  -1    6.94    2.50
  -1  -9  -1    8.83    1.98
  -1  -9  -1    9.23    2.54
  -1  -9   0   86.84    6.40
  -1  -9   0   86.65    6.20
  -1  -9   0   88.74    6.30
  -1  -9   0   96.57    6.35
  -1  -9   0   80.96    6.14
  -1  -9   0   87.22    6.30
  -1  -9   0   81.71    6.32
  -1  -9   1   40.95    4.05
  -1  -9   1   38.73    3.76
  -1  -9   1   42.16    3.94
  -1  -9   1   42.45    4.13
  -1  -9   1   38.26    3.72
  -1  -9   1   43.64    4.14
  -1  -9   1   41.46    3.93
  -1  -9   1   48.16    4.32
  -1  -9   2  329.77   16.86
  -1  -9   2  330.66   17.08
  -1  -9   2  326.74   17.04
  -1  -9   2  313.06   16.80
  -1  -9   2  340.19   17.02
  -1  -9   2  322.00   16.79
  -1  -9   2  310.39   16.50
  -1  -9   2  303.77   17.19
  -1  -9   3   45.97    4.01
  -1  -9   3   50.61    4.36
  -1  -9   3   47.17    4.01
  -1  -9   3   48.32    4.33
  -1  -9   3   57.93    4.45
  -1  -9   3   43.81    3.70
  -1  -9   3   46.71    4.51
  -1  -9   3   49.49    4.14
  -1  -9   4   -0.91    1.31
  -1  -9   4   -1.17    2.15
  -1  -9   4    0.22    1.88
  -1  -9   4    2.75    1.47
  -1  -9   4    0.41    1.37
  -1  -9   4   -0.56    1.24
  -1  -9   5    0.44    1.72
  -1  -9   5   -0.35    1.49
  -1  -9   5    1.37    1.18
  -1  -9   5    1.60    1.96
  -1  -9   5   -0.44    1.82
  -1  -9   5    1.45    1.43
  -1  -9   5    0.73    1.32
  -1  -9   6    1.44    1.35
  -1  -9   6    1.57    1.78
  -1  -9   6   -0.17    1.27
  -1  -9   6   -0.44    1.84
  -1  -9   6    0.20    1.15
  -1  -9   6    3.11    2.05
  -1  -9   6    1.05    1.39
  -1  -9   7   34.22    3.68
  -1  -9   7   40.17    3.45
  -1  -9   7   31.15    2.98
  -1  -9   7   31.92    3.07
  -1  -9   7   39.02    3.62
  -1  -9   7   32.73    3.60
  -1  -9   7   25.13    3.33
  -1  -9   8   11.86    2.53
  -1  -9   8    7.39    2.02
  -1  -9   8   17.67    2.19
  -1  -9   8   18.46    2.34
  -1  -9   8   13.84    2.59
  -1  -9   9   -1.23    1.83
  -1  -9   9    0.28    0.96
  -1  -9   9   -0.41    1.71
  -1  -9  10   17.05    2.39
  -1  -9  10   15.07    2.46
  -1  -9  11   -0.52    1.07
  -1  -8  -6   -0.14    1.17
  -1  -8  -6    0.13    1.30
  -1  -8  -6    0.33    1.60
  -1  -8  -5   16.74    2.56
  -1  -8  -5   15.51    2.88
  -1  -8  -5   14.99    2.51
  -1  -8  -4    0.84    1.62
  -1  -8  -4   -0.21    1.79
  -1  -8  -3   27.67    3.32
  -1  -8  -3   25.77    3.64
  -1  -8  -3   25.68    3.47
  -1  -8  -2   74.55    5.74
  -1  -8  -2   74.95    5.64
  -1  -8  -2   67.80    5.93
  -1  -8  -2   75.04    5.80
  -1  -8  -2   72.16    5.40
  -1  -8  -1   20.77    2.89
  -1  -8  -1   20.70    3.25
  -1  -8  -1   23.33    2.83
  -1  -8  -1   23.78    3.20
  -1  -8  -1   25.09    3.20
  -1  -8  -1   22.67    3.15
  -1  -8  -1   22.40    3.00
  -1  -8   0  166.84   10.15
  -1  -8   0  173.02   10.22
  -1  -8   0  166.06    9.92
  -1  -8   0  169.15   10.06
  -1  -8   0  179.33   10.12
  -1  -8   0  171.67    9.90
  -1  -8   0  171.64   10.09
  -1  -8   0  174.81    9.98
  -1  -8   0  169.23   10.12
  -1  -8   1  279.46   15.36
  -1  -8   1  293.67   15.27
  -1  -8   1  287.32   15.36
  -1  -8   1  283.62   15.36
  -1  -8   1  284.98   15.20
  -1  -8   1  292.84   15.21
  -1  -8   1  279.59   15.38
  -1  -8   1  285.04   15.36
  -1  -8   1  311.46   15.29
  -1  -8   2  125.19    7.57
  -1  -8   2  126.93    7.77
  -1  -8   2  124.21    7.53
  -1  -8   2  125.10    7.63
  -1  -8   2  121.53    7.68
  -1  -8   2  118.72    7.70
  -1  -8   2  123.15    7.42
  -1  -8   3  477.44   24.07
  -1  -8   3  472.72   23.70
  -1  -8   3  474.52   24.07
  -1  -8   3  485.12   24.60
  -1  -8   3  504.07   24.50
  -1  -8   3  501.65   24.36
  -1  -8   3  518.66   24.16
  -1  -8   4  378.06   19.22
  -1  -8   4  386.07   19.38
  -1  -8   4  402.22   19.34
  -1  -8   4  373.37   19.04
  -1  -8   4  373.52   19.56
  -1  -8   4  384.40   19.72
  -1  -8   4  384.29   19.50
  -1  -8   5   27.45    3.12
  -1  -8   5   28.34    2.83
  -1  -8   5   22.41    2.62
  -1  -8   5   25.09    2.69
  -1  -8   5   24.69    2.83
  -1  -8   5   20.06    3.03
  -1  -8   5   21.90    3.05
  -1  -8   6  180.94   10.40
  -1  -8   6  195.18   10.19
  -1  -8   6  170.09    9.69
  -1  -8   6  181.01    9.94
  -1  -8   6  172.50   10.10
  -1  -8   6  164.46   10.15
  -1  -8   6  159.44   10.14
  -1  -8   7   10.23    2.38
  -1  -8   7    6.83    1.73
  -1  -8   7   10.11    2.45
  -1  -8   7   12.01    2.03
  -1  -8   7    5.77    2.25
  -1  -8   7    7.38    2.03
  -1  -8   7   10.14    1.90
  -1  -8   8    2.79    1.90
  -1  -8   8    4.27    1.45
  -1  -8   8    2.09    1.71
  -1  -8   8    6.48    1.60
  -1  -8   8    2.99    1.49
  -1  -8   8    4.05    2.21
  -1  -8   9    4.06    1.95
  -1  -8   9    3.71    1.33
  -1  -8   9    5.16    1.52
  -1  -8   9   -0.47    1.97
  -1  -8  10   87.43    5.69
  -1  -8  10   62.31    5.43
  -1  -8  11   37.57    3.37
  -1  -8  11   30.19    3.37
  -1  -7  -7    0.82    1.13
  -1  -7  -7   -0.15    1.52
  -1  -7  -7    0.57    1.11
  -1  -7  -6   -0.52    1.61
  -1  -7  -6    3.80    1.70
  -1  -7  -6    1.85    2.08
  -1  -7  -5   -0.42    1.63
  -1  -7  -5   -2.62    2.14
  -1  -7  -5   -0.42    1.80
  -1  -7  -4   12.23    2.91
  -1  -7  -4    9.41    2.34
  -1  -7  -4   13.00    2.64
  -1  -7  -4   11.62    2.51
  -1  -7  -3  284.87   14.87
  -1  -7  -3  298.93   14.85
  -1  -7  -3  256.26   14.63
  -1  -7  -3  259.77   14.76
  -1  -7  -3  256.83   14.17
  -1  -7  -2   34.53    3.50
  -1  -7  -2   35.68    3.68
  -1  -7  -2   28.61    3.33
  -1  -7  -2   32.26    3.87
  -1  -7  -2   38.59    3.48
  -1  -7  -2   33.33    3.75
  -1  -7  -1  334.53   17.35
  -1  -7  -1  346.46   17.26
  -1  -7  -1  338.90   17.20
  -1  -7  -1  324.61   17.18
  -1  -7  -1  327.12   17.44
  -1  -7  -1  326.34   17.05
  -1  -7  -1  334.29   17.33
  -1  -7  -1  324.70   17.22
  -1  -7   0   51.38    4.31
  -1  -7   0   56.83    4.50
  -1  -7   0   62.00    4.52
  -1  -7   0   61.21    4.37
  -1  -7   0   56.04    4.68
  -1  -7   0   61.24    4.42
  -1  -7   0   51.21    4.42
  -1  -7   0   58.35    4.53
  -1  -7   0   52.43    4.47
  -1  -7   1   -0.18    1.47
  -1  -7   1    0.48    1.32
  -1  -7   1    1.03    1.49
  -1  -7   1    1.20    1.73
  -1  -7   1    0.47    1.21
  -1  -7   1    2.43    1.72
  -1  -7   1    1.30    1.26
  -1  -7   1    0.79    1.51
  -1  -7   1    2.11    1.73
  -1  -7   1    0.16    1.11
  -1  -7   2  466.49   22.83
  -1  -7   2  457.94   22.61
  -1  -7   2  437.31   22.53
  -1  -7   2  478.42   22.74
  -1  -7   2  456.71   22.78
  -1  -7   2  468.49   22.48
  -1  -7   2  460.56   22.69
  -1  -7   3  196.91   10.91
  -1  -7   3  189.85   10.46
  -1  -7   3  193.11   10.49
  -1  -7   3  181.78   10.53
  -1  -7   3  195.60   10.24
  -1  -7   3  207.50   10.89
  -1  -7   3  200.90   10.56
  -1  -7   3  200.65   10.82
  -1  -7   4    5.39    1.58
  -1  -7   4    6.35    1.54
  -1  -7   4    6.41    1.49
  -1  -7   4   11.19    2.24
  -1  -7   4    7.44    1.98
  -1  -7   4    8.67    1.78
  -1  -7   4    6.52    1.60
  -1  -7   5   -0.15    1.22
  -1  -7   5    1.70    1.75
  -1  -7   5    2.00    1.26
  -1  -7   5    2.12    1.14
  -1  -7   5    0.69    1.31
  -1  -7   5    1.32    1.65
  -1  -7   6    4.23    1.87
  -1  -7   6    5.31    1.54
  -1  -7   6    5.21    1.47
  -1  -7   6    5.74    1.60
  -1  -7   6    6.99    2.10
  -1  -7   6    7.97    1.87
  -1  -7   6    4.54    2.09
  -1  -7   7   32.11    3.01
  -1  -7   7   28.13    3.32
  -1  -7   7   25.04    2.73
  -1  -7   7   27.14    2.81
  -1  -7   7   20.26    3.26
  -1  -7   7   24.80    3.16
  -1  -7   8   -0.47    2.06
  -1  -7   8    1.13    1.35
  -1  -7   8    1.43    1.35
  -1  -7   8    1.72    2.15
  -1  -7   8    1.39    1.30
  -1  -7   8    1.52    1.65
  -1  -7   9   19.58    3.13
  -1  -7   9   16.90    2.39
  -1  -7   9   20.49    2.42
  -1  -7   9   12.48    2.95
  -1  -7  10    0.22    1.73
  -1  -7  10    0.62    1.10
  -1  -7  10   -0.18    1.10
  -1  -7  10    0.24    2.08
  -1  -7  11    5.04    2.01
  -1  -7  11    2.04    1.91
  -1  -7  11    7.69    1.73
  -1  -7  12    0.13    1.18
  -1  -7  12   -0.59    1.35
  -1  -6  -8    0.51    1.14
  -1  -6  -7   -0.52    1.53
  -1  -6  -7   -0.57    1.79
  -1  -6  -7    0.44    1.33
  -1  -6  -6   -1.14    2.07
  -1  -6  -6    2.03    1.75
  -1  -6  -6   -0.19    1.68
  -1  -6  -5    5.73    2.14
  -1  -6  -5   11.35    2.74
  -1  -6  -5    5.90    2.25
  -1  -6  -4    0.24    2.24
  -1  -6  -4    0.82    1.66
  -1  -6  -4    2.74    2.07
  -1  -6  -4    3.58    2.10
  -1  -6  -4    2.98    1.52
  -1  -6  -3   58.12    4.52
  -1  -6  -3   53.84    4.32
  -1  -6  -3   46.44    4.59
  -1  -6  -3   49.43    4.36
  -1  -6  -3   52.23    4.07
  -1  -6  -3   50.67    4.48
  -1  -6  -2   39.67    3.61
  -1  -6  -2   41.38    3.54
  -1  -6  -2   39.29    3.67
  -1  -6  -2   35.49    3.27
  -1  -6  -2   39.86    3.59
  -1  -6  -1  385.21   19.55
  -1  -6  -1  384.22   19.41
  -1  -6  -1  398.31   19.58
  -1  -6  -1  389.82   19.57
  -1  -6  -1  393.98   19.34
  -1  -6  -1  393.75   19.48
  -1  -6  -1  384.03   19.71
  -1  -6   0  261.32   13.70
  -1  -6   0  262.04   13.85
  -1  -6   0  266.77   13.67
  -1  -6   0  265.26   13.50
  -1  -6   0  260.74   13.62
  -1  -6   0  268.29   13.83
  -1  -6   0  277.13   13.77
  -1  -6   0  251.91   13.50
  -1  -6   0  269.54   13.75
  -1  -6   0  268.76   13.77
  -1  -6   1 1361.83   62.04
  -1  -6   1 1326.84   61.85
  -1  -6   1 1371.46   61.83
  -1  -6   1 1345.41   61.97
  -1  -6   1 1347.80   61.81
  -1  -6   1 1362.59   61.91
  -1  -6   1 1262.31   61.38
  -1  -6   1 1341.93   61.89
  -1  -6   1 1375.21   62.02
  -1  -6   1 1364.73   62.02
  -1  -6   1 1288.06   61.96
  -1  -6   1 1311.01   62.10
  -1  -6   2   59.73    3.98
  -1  -6   2   45.58    3.59
  -1  -6   2   48.57    3.62
  -1  -6   2   49.69    3.59
  -1  -6   2   53.54    3.49
  -1  -6   2   50.65    3.58
  -1  -6   2   50.23    3.87
  -1  -6   2   53.09    3.79
  -1  -6   2   49.06    3.82
  -1  -6   3   10.16    1.68
  -1  -6   3    7.98    1.56
  -1  -6   3    8.50    1.20
  -1  -6   3    7.79    1.68
  -1  -6   3    8.51    1.48
  -1  -6   3    6.75    1.26
  -1  -6   3    6.31    1.36
  -1  -6   3    5.32    1.30
  -1  -6   3    9.45    1.84
  -1  -6   3    8.61    1.80
  -1  -6   3    7.89    1.89
  -1  -6   4  482.62   23.20
  -1  -6   4  480.47   23.12
  -1  -6   4  494.67   23.17
  -1  -6   4  465.40   23.23
  -1  -6   4  480.72   23.46
  -1  -6   4  484.20   23.01
  -1  -6   4  462.67   23.21
  -1  -6   4  483.66   23.51
  -1  -6   4  473.33   23.00
  -1  -6   5  322.09   16.53
  -1  -6   5  335.28   16.58
  -1  -6   5  348.29   16.80
  -1  -6   5  319.88   16.86
  -1  -6   5  317.95   16.86
  -1  -6   5  345.22   16.69
  -1  -6   6    0.18    1.58
  -1  -6   6   -0.29    1.24
  -1  -6   6    2.10    1.76
  -1  -6   6    1.91    1.87
  -1  -6   6   -0.15    1.15
  -1  -6   6    0.16    1.04
  -1  -6   6   -0.17    1.34
  -1  -6   6    0.26    1.06
  -1  -6   7    1.67    1.90
  -1  -6   7    1.72    1.38
  -1  -6   7   -0.74    1.62
  -1  -6   7    0.66    1.22
  -1  -6   7    0.15    1.27
  -1  -6   7    0.66    1.93
  -1  -6   7    0.18    1.15
  -1  -6   8   81.70    6.30
  -1  -6   8   90.02    5.86
  -1  -6   8   84.52    5.53
  -1  -6   8   91.36    5.71
  -1  -6   8   68.83    5.50
  -1  -6   8   81.08    5.61
  -1  -6   8   76.06    6.26
  -1  -6   9   -1.47    2.06
  -1  -6   9    1.46    1.34
  -1  -6   9    0.55    1.21
  -1  -6   9   -0.19    1.59
  -1  -6   9   -1.20    1.63
  -1  -6   9    0.27    2.39
  -1  -6   9    0.20    1.18
  -1  -6  10    6.45    2.29
  -1  -6  10    8.65    2.11
  -1  -6  10   11.96    1.99
  -1  -6  10    8.50    1.75
  -1  -6  10    5.76    2.52
  -1  -6  11   31.28    3.53
  -1  -6  11   34.96    3.30
  -1  -6  12   34.02    3.09
  -1  -6  12   25.65    3.05
  -1  -5  -8   -0.32    1.43
  -1  -5  -8   -0.64    1.54
  -1  -5  -7   35.25    3.46
  -1  -5  -7   32.55    3.16
  -1  -5  -7   25.87    3.45
  -1  -5  -6    5.56    1.91
  -1  -5  -6    3.61    1.93
  -1  -5  -6    3.43    2.19
  -1  -5  -6    2.79    1.58
  -1  -5  -5    0.99    1.63
  -1  -5  -5   -1.12    2.15
  -1  -5  -5    1.76    1.70
  -1  -5  -5   -0.53    1.48
  -1  -5  -4   42.48    3.66
  -1  -5  -4   38.85    3.39
  -1  -5  -4   37.34    3.94
  -1  -5  -4   44.03    3.46
  -1  -5  -4   36.29    3.60
  -1  -5  -4   39.28    3.32
  -1  -5  -4   38.66    4.00
  -1  -5  -3  307.54   16.22
  -1  -5  -3  332.55   16.17
  -1  -5  -3  308.30   15.76
  -1  -5  -3  302.68   16.41
  -1  -5  -3  314.12   16.23
  -1  -5  -3  318.19   15.92
  -1  -5  -3  323.03   16.36
  -1  -5  -2    8.65    1.75
  -1  -5  -2   12.58    1.93
  -1  -5  -2   12.46    1.88
  -1  -5  -2    8.62    1.46
  -1  -5  -2   12.08    1.69
  -1  -5  -2    7.52    1.85
  -1  -5  -2   12.15    1.92
  -1  -5  -1    5.73    1.52
  -1  -5  -1    5.47    1.35
  -1  -5  -1    5.93    1.84
  -1  -5  -1    5.43    1.27
  -1  -5  -1    6.02    1.59
  -1  -5  -1    5.40    1.18
  -1  -5  -1    4.72    1.70
  -1  -5  -1    6.94    1.64
  -1  -5  -1    4.62    1.55
  -1  -5  -1    3.45    0.78
  -1  -5   0   87.32    5.32
  -1  -5   0   81.14    5.16
  -1  -5   0   91.42    5.17
  -1  -5   0   93.08    5.29
  -1  -5   0   89.55    5.44
  -1  -5   0   84.32    5.36
  -1  -5   0   86.18    4.73
  -1  -5   0   87.69    4.76
  -1  -5   0   88.30    5.16
  -1  -5   0   82.81    5.23
  -1  -5   0   88.10    5.44
  -1  -5   0   88.67    5.35
  -1  -5   1  544.10   24.91
  -1  -5   1  521.31   24.78
  -1  -5   1  509.52   24.68
  -1  -5   1  549.34   25.04
  -1  -5   1  510.34   24.36
  -1  -5   1  544.75   24.83
  -1  -5   1  535.51   24.74
  -1  -5   1  525.53   24.44
  -1  -5   1  561.92   24.94
  -1  -5   1  473.60   23.94
  -1  -5   1  533.17   24.77
  -1  -5   1  563.75   24.97
  -1  -5   2    6.89    1.63
  -1  -5   2    8.54    1.66
  -1  -5   2    7.47    1.39
  -1  -5   2    6.55    1.28
  -1  -5   2    7.24    1.11
  -1  -5   2    7.67    1.21
  -1  -5   2    8.88    1.46
  -1  -5   2    7.68    1.54
  -1  -5   2    9.52    1.40
  -1  -5   2    7.18    1.57
  -1  -5   2    4.94    0.93
  -1  -5   3   55.23    3.73
  -1  -5   3   60.26    3.96
  -1  -5   3   61.31    3.90
  -1  -5   3   59.98    3.86
  -1  -5   3   57.61    3.62
  -1  -5   3   67.14    4.01
  -1  -5   3   64.51    3.99
  -1  -5   3   59.64    3.89
  -1  -5   3   62.17    4.12
  -1  -5   3   67.21    4.33
  -1  -5   3   58.22    3.98
  -1  -5   3   56.97    3.66
  -1  -5   4 2024.74   92.09
  -1  -5   4 2043.67   92.09
  -1  -5   4 1900.60   91.44
  -1  -5   4 2023.58   92.06
  -1  -5   4 2172.10   92.49
  -1  -5   4 2043.22   91.97
  -1  -5   4 2070.05   92.19
  -1  -5   4 2076.68   92.40
  -1  -5   4 1953.75   92.14
  -1  -5   4 1950.10   92.12
  -1  -5   4 1976.89   92.06
  -1  -5   4 2029.66   92.01
  -1  -5   5  224.12   11.06
  -1  -5   5  204.12   10.63
  -1  -5   5  197.17   10.15
  -1  -5   5  201.34   10.64
  -1  -5   5  205.33   10.62
  -1  -5   5  192.47   10.37
  -1  -5   5  198.50   10.36
  -1  -5   5  208.66   10.79
  -1  -5   5  203.71   10.99
  -1  -5   5  215.79   10.68
  -1  -5   6    6.63    1.86
  -1  -5   6   10.17    1.62
  -1  -5   6    8.12    1.62
  -1  -5   6    5.65    1.40
  -1  -5   6    8.03    1.79
  -1  -5   6    7.31    1.25
  -1  -5   6   11.09    2.29
  -1  -5   6    7.54    1.84
  -1  -5   7  180.31    9.36
  -1  -5   7  166.47    9.67
  -1  -5   7  161.74    8.95
  -1  -5   7  164.30    9.12
  -1  -5   7  168.64    9.21
  -1  -5   7  147.66    9.12
  -1  -5   7  150.75    9.72
  -1  -5   8  130.93    7.17
  -1  -5   8  121.65    6.85
  -1  -5   8  108.29    6.73
  -1  -5   8  108.84    7.41
  -1  -5   8  117.90    6.90
  -1  -5   8   86.25    6.55
  -1  -5   8   87.01    7.31
  -1  -5   9   -0.19    1.38
  -1  -5   9    0.25    1.89
  -1  -5   9    0.34    1.34
  -1  -5   9   -0.93    1.37
  -1  -5   9   -0.20    1.23
  -1  -5   9   -0.17    1.49
  -1  -5   9    0.81    2.47
  -1  -5  10    1.73    2.07
  -1  -5  10   -0.36    1.23
  -1  -5  10   -0.16    1.21
  -1  -5  10    0.58    1.23
  -1  -5  10   -0.20    1.24
  -1  -5  10    1.10    2.50
  -1  -5  11    3.11    1.97
  -1  -5  11    3.51    1.34
  -1  -5  11    1.75    1.70
  -1  -5  11    2.46    1.18
  -1  -5  11    3.24    2.39
  -1  -5  11    1.88    1.72
  -1  -5  12   -0.35    1.51
  -1  -5  12   -0.15    1.24
  -1  -5  12    0.49    1.29
  -1  -5  12   -1.37    1.85
  -1  -4  -9    0.15    1.26
  -1  -4  -8    9.23    2.03
  -1  -4  -8    9.04    2.19
  -1  -4  -8    9.52    2.15
  -1  -4  -7   68.32    4.96
  -1  -4  -7   48.79    4.15
  -1  -4  -7   59.08    4.78
  -1  -4  -7   59.85    5.02
  -1  -4  -6   71.57    5.13
  -1  -4  -6   70.87    5.19
  -1  -4  -6   58.35    5.11
  -1  -4  -6   58.94    4.71
  -1  -4  -5   47.28    4.13
  -1  -4  -5   51.28    4.19
  -1  -4  -5   56.85    4.28
  -1  -4  -5   50.88    4.42
  -1  -4  -4    0.15    1.30
  -1  -4  -4    2.46    1.83
  -1  -4  -4    0.58    1.26
  -1  -4  -4    1.40    1.65
  -1  -4  -4    0.15    1.37
  -1  -4  -4   -0.78    1.42
  -1  -4  -4    1.36    1.12
  -1  -4  -3   14.70    2.03
  -1  -4  -3   12.60    2.05
  -1  -4  -3   13.45    1.93
  -1  -4  -3   13.06    2.24
  -1  -4  -3   16.90    2.15
  -1  -4  -3   12.66    1.80
  -1  -4  -3   12.74    1.87
  -1  -4  -3   16.66    2.03
  -1  -4  -2    3.89    1.35
  -1  -4  -2    5.38    1.34
  -1  -4  -2    5.34    1.21
  -1  -4  -2    4.23    1.31
  -1  -4  -2    5.46    1.74
  -1  -4  -2    4.69    0.85
  -1  -4  -2    4.61    1.46
  -1  -4  -2    5.33    1.17
  -1  -4  -2    5.85    1.55
  -1  -4  -2    4.82    1.32
  -1  -4  -2    4.67    0.84
  -1  -4  -1  705.32   32.90
  -1  -4  -1  695.34   32.86
  -1  -4  -1  693.85   32.80
  -1  -4  -1  723.39   32.82
  -1  -4  -1  688.56   32.31
  -1  -4  -1  674.44   32.25
  -1  -4  -1  722.68   32.93
  -1  -4  -1  696.01   32.40
  -1  -4  -1  752.69   33.01
  -1  -4  -1  728.79   33.03
  -1  -4  -1  691.38   32.74
  -1  -4   0 3573.46  162.87
  -1  -4   0 3485.90  162.71
  -1  -4   0 3508.20  162.79
  -1  -4   0 3495.40  162.40
  -1  -4   0 3711.49  163.01
  -1  -4   0 3606.91  162.95
  -1  -4   0 3551.37  162.75
  -1  -4   0 3560.40  162.39
  -1  -4   0 3690.92  162.99
  -1  -4   0 3785.58  162.96
  -1  -4   1   41.02    2.83
  -1  -4   1   47.15    2.72
  -1  -4   1   46.69    2.49
  -1  -4   1   40.04    2.54
  -1  -4   1   42.43    2.85
  -1  -4   2    6.51    1.11
  -1  -4   2    4.99    1.04
  -1  -4   2    7.24    1.16
  -1  -4   2    4.87    1.09
  -1  -4   2    6.78    1.20
  -1  -4   2    6.18    0.91
  -1  -4   2    6.27    0.87
  -1  -4   3    1.09    1.24
  -1  -4   3    1.29    1.07
  -1  -4   3   -0.42    1.03
  -1  -4   3    0.75    0.53
  -1  -4   3    0.75    0.93
  -1  -4   3    1.19    0.98
  -1  -4   3    0.21    1.40
  -1  -4   3    0.53    1.00
  -1  -4   3    2.35    0.75
  -1  -4   3    1.54    0.79
  -1  -4   3    0.87    0.72
  -1  -4   4  744.68   34.56
  -1  -4   4  687.42   34.13
  -1  -4   4  740.56   34.57
  -1  -4   4  751.73   34.66
  -1  -4   4  761.95   34.59
  -1  -4   4  778.61   34.87
  -1  -4   4  749.93   34.73
  -1  -4   4  727.34   34.46
  -1  -4   4  774.37   34.90
  -1  -4   4  731.73   34.72
  -1  -4   4  748.76   34.54
  -1  -4   5   22.58    2.21
  -1  -4   5   23.78    2.36
  -1  -4   5   26.27    2.28
  -1  -4   5   26.95    2.63
  -1  -4   5   21.95    2.37
  -1  -4   5   19.28    2.37
  -1  -4   5   27.43    2.86
  -1  -4   5   26.48    2.39
  -1  -4   5   24.02    2.16
  -1  -4   6  221.46   11.43
  -1  -4   6  207.13   10.89
  -1  -4   6  209.92   10.94
  -1  -4   6  185.54   10.92
  -1  -4   6  209.39   11.11
  -1  -4   6  198.72   11.37
  -1  -4   6  231.19   11.08
  -1  -4   7   62.45    4.95
  -1  -4   7   65.45    4.50
  -1  -4   7   65.89    4.45
  -1  -4   7   50.89    4.30
  -1  -4   7   60.13    5.06
  -1  -4   7   65.06    4.47
  -1  -4   8   62.45    5.26
  -1  -4   8   63.76    4.64
  -1  -4   8   71.86    4.80
  -1  -4   8   49.00    4.43
  -1  -4   8   56.66    5.36
  -1  -4   8   74.82    4.88
  -1  -4   9   14.28    2.99
  -1  -4   9   10.92    2.25
  -1  -4   9   16.76    2.32
  -1  -4   9   14.39    2.15
  -1  -4   9   10.01    2.20
  -1  -4   9   13.29    3.15
  -1  -4  10   75.94    4.99
  -1  -4  10   45.81    4.99
  -1  -4  10   54.97    4.38
  -1  -4  10   62.14    4.62
  -1  -4  10   44.94    5.19
  -1  -4  10   68.25    5.25
  -1  -4  11   46.81    3.68
  -1  -4  11   29.03    3.85
  -1  -4  11   39.00    3.57
  -1  -4  11   43.19    3.92
  -1  -4  11   39.59    3.41
  -1  -4  11   32.59    4.31
  -1  -4  12   -0.21    1.87
  -1  -4  12    0.70    1.25
  -1  -4  12    1.47    1.69
  -1  -3 -10    0.97    1.14
  -1  -3  -9    3.91    1.64
  -1  -3  -9    6.00    2.06
  -1  -3  -8   20.73    2.76
  -1  -3  -8   10.89    2.31
  -1  -3  -8   18.32    2.95
  -1  -3  -7   94.79    6.24
  -1  -3  -7   77.92    5.99
  -1  -3  -7   93.88    6.43
  -1  -3  -6   -0.36    1.50
  -1  -3  -6   -0.56    1.73
  -1  -3  -6    1.20    1.35
  -1  -3  -6    0.81    1.68
  -1  -3  -5   31.78    3.04
  -1  -3  -5   31.49    3.25
  -1  -3  -5   30.14    2.93
  -1  -3  -5   32.93    3.22
  -1  -3  -4    0.78    1.17
  -1  -3  -4   -0.15    1.40
  -1  -3  -4    1.59    1.44
  -1  -3  -4    1.30    1.18
  -1  -3  -4    1.37    1.31
  -1  -3  -4    0.89    1.24
  -1  -3  -4    0.10    1.03
  -1  -3  -4    0.95    1.32
  -1  -3  -3  188.16    9.38
  -1  -3  -3  180.61    9.29
  -1  -3  -3  181.44    9.24
  -1  -3  -3  175.09    9.42
  -1  -3  -3  180.21    9.33
  -1  -3  -3  158.44    8.59
  -1  -3  -3  183.32    9.13
  -1  -3  -3  185.49    9.54
  -1  -3  -3  180.38    9.24
  -1  -3  -2  109.91    6.13
  -1  -3  -2  117.65    6.18
  -1  -3  -2  113.97    6.11
  -1  -3  -2  117.81    6.07
  -1  -3  -2  111.70    6.34
  -1  -3  -2  103.97    5.55
  -1  -3  -2  111.78    6.22
  -1  -3  -2  116.26    5.76
  -1  -3  -1   49.62    2.84
  -1  -3  -1   44.67    2.75
  -1  -3  -1   45.05    2.46
  -1  -3   0   20.86    1.66
  -1  -3   0   22.13    1.71
  -1  -3   0   19.07    1.66
  -1  -3   0   25.23    1.48
  -1  -3   0   20.05    1.37
  -1  -3   1  280.01   13.84
  -1  -3   1  278.20   13.85
  -1  -3   1  294.66   13.70
  -1  -3   1  308.05   13.62
  -1  -3   1  290.21   13.62
  -1  -3   2  238.23   11.24
  -1  -3   2  218.43   11.22
  -1  -3   2  226.92   11.25
  -1  -3   2  235.06   11.19
  -1  -3   2  231.28   11.18
  -1  -3   2  244.78   11.21
  -1  -3   2  230.63   11.04
  -1  -3   2  234.82   11.16
  -1  -3   3  233.63   11.59
  -1  -3   3  244.88   11.44
  -1  -3   3  245.20   11.44
  -1  -3   3  237.10   11.63
  -1  -3   3  239.34   11.68
  -1  -3   3  232.12   11.44
  -1  -3   3  231.82   11.61
  -1  -3   3  237.44   11.54
  -1  -3   4  190.99   10.57
  -1  -3   4  215.49   10.51
  -1  -3   4  200.78   10.64
  -1  -3   4  217.73   10.20
  -1  -3   4  219.03   10.20
  -1  -3   4  209.33   10.53
  -1  -3   5 1300.86   61.49
  -1  -3   5 1367.73   61.49
  -1  -3   5 1348.60   61.63
  -1  -3   5 1221.42   61.58
  -1  -3   5 1244.43   61.58
  -1  -3   5 1344.91   61.41
  -1  -3   5 1381.41   61.58
  -1  -3   5 1407.38   61.50
  -1  -3   5 1382.13   61.49
  -1  -3   6  412.89   20.28
  -1  -3   6  439.85   20.31
  -1  -3   6  393.29   20.30
  -1  -3   6  391.69   20.27
  -1  -3   6  420.78   20.24
  -1  -3   6  413.06   20.19
  -1  -3   6  441.15   20.32
  -1  -3   7   17.74    2.38
  -1  -3   7   13.17    2.21
  -1  -3   7   16.36    2.10
  -1  -3   7   13.64    2.40
  -1  -3   7   16.96    2.18
  -1  -3   8  173.68   10.54
  -1  -3   8  188.42   10.15
  -1  -3   8  192.19   10.19
  -1  -3   9  107.34    7.24
  -1  -3   9  111.08    6.66
  -1  -3   9  114.24    6.76
  -1  -3   9  124.97    6.92
  -1  -3  10   66.45    5.96
  -1  -3  10   63.99    5.15
  -1  -3  10   83.80    5.56
  -1  -3  10   91.72    6.15
  -1  -3  10   55.57    6.01
  -1  -3  10   86.12    5.61
  -1  -3  11    0.71    2.11
  -1  -3  11   -0.48    1.35
  -1  -3  11   -0.19    1.28
  -1  -3  11    1.22    1.33
  -1  -3  11   -1.98    1.64
  -1  -3  11    1.88    2.33
  -1  -3  12   13.52    2.46
  -1  -3  12   17.15    2.32
  -1  -3  12    9.01    2.56
  -1  -2 -10    7.89    2.10
  -1  -2 -10    5.74    1.68
  -1  -2  -9    4.47    1.94
  -1  -2  -9    4.57    2.11
  -1  -2  -8    2.07    1.32
  -1  -2  -8    3.38    1.75
  -1  -2  -8    1.95    2.08
  -1  -2  -7    9.94    2.05
  -1  -2  -7    8.16    1.78
  -1  -2  -7    6.21    2.10
  -1  -2  -7   10.00    2.49
  -1  -2  -6   66.51    4.43
  -1  -2  -6   59.74    4.05
  -1  -2  -6   47.77    4.14
  -1  -2  -6   48.72    3.76
  -1  -2  -6   59.87    4.71
  -1  -2  -5  154.10    8.30
  -1  -2  -5  136.92    8.19
  -1  -2  -5  149.45    7.97
  -1  -2  -5  143.96    7.95
  -1  -2  -5  152.25    8.52
  -1  -2  -4  229.34   11.36
  -1  -2  -4  217.43   11.09
  -1  -2  -4  224.20   11.43
  -1  -2  -4  219.75   11.42
  -1  -2  -4  214.58   10.97
  -1  -2  -4  222.16   11.60
  -1  -2  -4  229.56   11.55
  -1  -2  -4  222.65   11.23
  -1  -2  -3  170.77    8.42
  -1  -2  -3  172.96    8.36
  -1  -2  -3  169.12    8.51
  -1  -2  -3  167.93    8.54
  -1  -2  -3  141.95    7.83
  -1  -2  -3  161.74    8.30
  -1  -2  -2  904.79   40.18
  -1  -2  -2  840.03   39.80
  -1  -2  -2  894.54   39.97
  -1  -2  -1  291.90   13.01
  -1  -2  -1  272.96   13.35
  -1  -2  -1  274.61   13.10
  -1  -2   0   56.80    3.04
  -1  -2   0   57.96    3.06
  -1  -2   0   58.85    3.07
  -1  -2   0   56.96    2.79
  -1  -2   0   54.24    2.79
  -1  -2   1 3770.25  161.97
  -1  -2   1 3347.49  162.05
  -1  -2   2 2581.75  121.10
  -1  -2   2 2861.50  121.21
  -1  -2   2 2592.90  121.10
  -1  -2   2 2958.58  121.26
  -1  -2   2 2565.24  121.16
  -1  -2   2 2546.89  121.17
  -1  -2   3 2491.16  112.62
  -1  -2   3 2409.84  112.81
  -1  -2   3 2478.81  112.61
  -1  -2   3 2429.64  112.82
  -1  -2   3 2527.03  112.92
  -1  -2   3 2580.63  112.98
  -1  -2   4  161.94    7.64
  -1  -2   4  149.21    7.98
  -1  -2   4  148.74    8.14
  -1  -2   4  159.73    7.63
  -1  -2   4  145.07    7.98
  -1  -2   4  160.92    7.93
  -1  -2   4  170.60    8.03
  -1  -2   5  648.54   29.47
  -1  -2   5  626.60   30.15
  -1  -2   5  636.02   30.10
  -1  -2   5  633.72   29.46
  -1  -2   5  645.86   30.17
  -1  -2   5  583.71   30.18
  -1  -2   5  650.64   30.05
  -1  -2   5  676.16   30.13
  -1  -2   5  668.04   30.08
  -1  -2   6  309.60   15.05
  -1  -2   6  303.84   14.98
  -1  -2   6  272.49   14.90
  -1  -2   6  304.37   14.91
  -1  -2   6  315.52   15.00
  -1  -2   6  297.00   14.83
  -1  -2   7  182.17   10.75
  -1  -2   7  192.24   10.42
  -1  -2   7  201.37   10.40
  -1  -2   7  167.41   10.23
  -1  -2   7  220.92   10.56
  -1  -2   8   87.67    6.09
  -1  -2   8  101.08    5.80
  -1  -2   8   87.90    5.72
  -1  -2   8   90.73    5.65
  -1  -2   9    7.43    2.48
  -1  -2   9    9.01    2.14
  -1  -2   9    4.41    1.81
  -1  -2   9   13.13    2.10
  -1  -2   9    9.59    2.04
  -1  -2  10    5.09    2.28
  -1  -2  10    0.78    1.54
  -1  -2  10    1.42    1.30
  -1  -2  10    3.39    1.68
  -1  -2  10    2.32    1.64
  -1  -2  11   40.77    4.36
  -1  -2  11   37.50    3.66
  -1  -2  11   48.99    3.97
  -1  -2  11   34.33    4.51
  -1  -2  11   60.95    4.62
  -1  -2  11   59.33    4.22
  -1  -2  12   14.62    2.26
  -1  -2  12   15.49    2.55
  -1  -2  12    8.61    2.61
  -1  -1 -11    4.42    1.59
  -1  -1 -10   -1.17    1.51
  -1  -1 -10    1.70    1.92
  -1  -1  -9   24.11    2.90
  -1  -1  -9   24.39    2.84
  -1  -1  -9   24.24    3.42
  -1  -1  -8   19.76    3.05
  -1  -1  -8   13.27    2.22
  -1  -1  -8   16.72    2.67
  -1  -1  -7   35.01    3.27
  -1  -1  -7   34.04    3.14
  -1  -1  -7   30.90    3.61
  -1  -1  -7   23.50    2.79
  -1  -1  -6   80.48    5.26
  -1  -1  -6   88.48    5.31
  -1  -1  -6   82.31    5.68
  -1  -1  -6   78.04    5.82
  -1  -1  -6   68.66    4.95
  -1  -1  -5    3.70    1.23
  -1  -1  -5    1.22    1.32
  -1  -1  -5    3.71    1.30
  -1  -1  -5    3.95    1.80
  -1  -1  -5    3.20    1.01
  -1  -1  -5    3.71    1.12
  -1  -1  -5    2.49    1.52
  -1  -1  -4  876.28   39.02
  -1  -1  -4  857.90   38.65
  -1  -1  -4  905.95   39.14
  -1  -1  -4  851.61   38.64
  -1  -1  -4  862.66   38.90
  -1  -1  -4  735.49   38.10
  -1  -1  -4  839.31   38.59
  -1  -1  -3    2.65    0.76
  -1  -1  -2   34.88    2.00
  -1  -1  -1  490.33   22.49
  -1  -1  -1  491.66   22.32
  -1  -1  -1  490.02   22.49
  -1  -1   0  166.05    7.73
  -1  -1   0  159.94    7.67
  -1  -1   0  166.69    7.73
  -1  -1   1 3664.92  165.86
  -1  -1   2  828.31   38.32
  -1  -1   2  905.45   38.48
  -1  -1   2  911.04   38.54
  -1  -1   2  825.31   38.31
  -1  -1   2  818.80   38.41
  -1  -1   2  800.62   38.39
  -1  -1   2  833.32   38.32
  -1  -1   3   68.55    3.81
  -1  -1   3   68.39    3.59
  -1  -1   3   66.94    3.40
  -1  -1   3   66.85    3.63
  -1  -1   3   65.01    3.40
  -1  -1   4   89.29    4.45
  -1  -1   4   92.82    4.46
  -1  -1   4   86.88    4.88
  -1  -1   4   94.90    4.86
  -1  -1   4   90.44    4.81
  -1  -1   4   81.15    4.98
  -1  -1   5  771.37   34.91
  -1  -1   5  731.20   35.68
  -1  -1   5  777.59   35.63
  -1  -1   5  684.46   35.64
  -1  -1   5  767.20   34.91
  -1  -1   5  714.63   35.69
  -1  -1   5  789.51   35.62
  -1  -1   5  800.07   35.67
  -1  -1   5  821.56   35.58
  -1  -1   6    0.20    0.74
  -1  -1   6    1.19    1.25
  -1  -1   6    0.11    0.99
  -1  -1   6    0.12    1.33
  -1  -1   6    0.11    0.97
  -1  -1   6   -0.26    1.18
  -1  -1   7  447.62   22.45
  -1  -1   7  482.66   22.52
  -1  -1   7  393.85   22.22
  -1  -1   7  535.38   22.68
  -1  -1   8  238.61   12.81
  -1  -1   8  256.20   12.85
  -1  -1   8  280.33   13.03
  -1  -1   9   41.06    4.36
  -1  -1   9   47.37    4.11
  -1  -1   9   54.26    4.19
  -1  -1   9   56.94    4.18
  -1  -1  10   27.83    3.78
  -1  -1  10   29.13    3.38
  -1  -1  10   40.66    3.68
  -1  -1  10   38.92    3.86
  -1  -1  10   47.96    3.80
  -1  -1  11    7.59    2.48
  -1  -1  11   11.16    2.14
  -1  -1  11   11.56    2.06
  -1  -1  11   15.20    2.35
  -1  -1  12    7.81    2.14
  -1  -1  12    7.58    1.75
  -1   0 -11    0.39    1.21
  -1   0 -11    2.09    1.15
  -1   0 -11    1.23    1.61
  -1   0 -10    1.27    1.63
  -1   0 -10    1.97    1.44
  -1   0 -10    4.17    2.19
  -1   0  -9    0.20    1.59
  -1   0  -9   -1.23    1.60
  -1   0  -9   -0.51    2.11
  -1   0  -8   55.44    4.47
  -1   0  -8   55.35    4.60
  -1   0  -8   56.23    5.05
  -1   0  -7   82.97    5.56
  -1   0  -7   86.83    5.73
  -1   0  -7   68.39    6.10
  -1   0  -7   82.69    5.32
  -1   0  -7   79.69    5.94
  -1   0  -6   -0.41    1.19
  -1   0  -6    0.13    1.09
  -1   0  -6    1.40    1.89
  -1   0  -6    0.18    1.61
  -1   0  -6    1.07    1.31
  -1   0  -5  799.58   36.24
  -1   0  -5  770.10   35.23
  -1   0  -5  813.97   35.79
  -1   0  -5  796.59   35.56
  -1   0  -5  681.26   35.23
  -1   0  -5  780.84   35.26
  -1   0  -5  771.16   35.49
  -1   0  -5  798.59   35.95
  -1   0  -5  682.36   35.14
  -1   0  -4 1815.44   82.88
  -1   0  -4 1803.40   82.67
  -1   0  -4 1785.04   82.21
  -1   0  -4 1747.24   82.36
  -1   0  -4 1937.82   82.34
  -1   0  -4 1876.29   82.98
  -1   0  -4 1840.88   82.55
  -1   0  -4 1678.97   82.21
  -1   0  -4 1787.55   82.22
  -1   0  -3   36.64    2.52
  -1   0  -3   44.17    2.54
  -1   0  -2   66.14    3.18
  -1   0  -2   70.10    3.56
  -1   0  -2   66.82    3.55
  -1   0  -2   67.16    3.18
  -1   0  -1  370.47   16.88
  -1   0  -1  368.24   16.88
  -1   0   0  369.79   16.95
  -1   0   0  371.02   16.95
  -1   0   1   36.21    2.00
  -1   0   1   39.30    1.89
  -1   0   1   36.39    1.91
  -1   0   2   26.57    1.61
  -1   0   2   34.65    1.97
  -1   0   2   28.30    1.70
  -1   0   2   30.62    1.70
  -1   0   2   28.04    1.63
  -1   0   2   31.51    1.77
  -1   0   3 4666.25  207.59
  -1   0   3 4489.16  207.66
  -1   0   4  154.88    8.33
  -1   0   4  160.43    8.45
  -1   0   4  168.99    7.89
  -1   0   4  158.10    8.47
  -1   0   4  171.96    7.90
  -1   0   4  173.66    8.22
  -1   0   5   57.08    3.56
  -1   0   5   50.67    3.54
  -1   0   5   49.29    3.64
  -1   0   5   52.52    3.80
  -1   0   5   54.73    2.81
  -1   0   5   50.59    3.14
  -1   0   5   60.14    3.58
  -1   0   5   58.93    2.84
  -1   0   5   55.88    3.32
  -1   0   6  107.92    6.09
  -1   0   6   93.99    6.10
  -1   0   6   88.87    5.95
  -1   0   6  100.16    5.48
  -1   0   6  112.06    6.10
  -1   0   6  115.08    6.15
  -1   0   6  119.22    5.91
  -1   0   7   -0.91    1.42
  -1   0   7    0.43    1.09
  -1   0   7    0.72    1.10
  -1   0   7    0.60    1.56
  -1   0   7    0.22    0.67
  -1   0   8   -0.36    1.52
  -1   0   8   -0.52    1.15
  -1   0   8    2.08    1.49
  -1   0   8    0.68    1.57
  -1   0   9    1.43    1.77
  -1   0   9    1.77    1.42
  -1   0   9    2.76    1.59
  -1   0   9    3.05    1.84
  -1   0  10    2.26    2.00
  -1   0  10    0.21    1.81
  -1   0  10    0.82    1.19
  -1   0  10    1.22    1.44
  -1   0  10    0.23    1.57
  -1   0  11    3.45    2.12
  -1   0  11    5.73    1.86
  -1   0  11    5.25    1.83
  -1   0  11    5.62    1.69
  -1   0  12    2.09    1.58
  -1   0  12   -3.01    2.04
  -1   1 -11    5.08    1.62
  -1   1 -11    5.40    1.61
  -1   1 -11    5.21    1.97
  -1   1 -10    5.32    1.89
  -1   1 -10    7.02    2.01
  -1   1 -10    4.59    2.26
  -1   1  -9   -0.41    1.61
  -1   1  -9   -0.67    1.77
  -1   1  -9    2.57    2.16
  -1   1  -8    3.62    1.68
  -1   1  -8    3.43    1.79
  -1   1  -8    4.12    1.58
  -1   1  -8    4.82    2.34
  -1   1  -7  182.65   12.45
  -1   1  -7  220.58   11.33
  -1   1  -7  219.62   11.79
  -1   1  -7  231.83   12.12
  -1   1  -7  220.71   11.74
  -1   1  -7  220.78   11.35
  -1   1  -7  216.52   12.16
  -1   1  -6  194.65    9.70
  -1   1  -6  178.60    9.90
  -1   1  -6  171.57   10.70
  -1   1  -6  184.64   10.21
  -1   1  -6  182.87    9.93
  -1   1  -6  179.84    9.63
  -1   1  -6  200.73   10.50
  -1   1  -5   65.73    4.19
  -1   1  -5   69.44    4.00
  -1   1  -5   59.82    4.03
  -1   1  -5   66.28    4.99
  -1   1  -5   52.32    4.01
  -1   1  -5   65.86    4.35
  -1   1  -5   59.18    3.62
  -1   1  -5   65.85    3.96
  -1   1  -5   60.89    4.41
  -1   1  -5   72.81    3.91
  -1   1  -4  648.39   30.54
  -1   1  -4  645.71   30.81
  -1   1  -4  618.35   30.66
  -1   1  -4  682.84   31.29
  -1   1  -4  659.79   30.58
  -1   1  -4  637.92   30.89
  -1   1  -4  660.06   30.71
  -1   1  -4  695.03   30.65
  -1   1  -4  660.54   30.47
  -1   1  -3  131.12    6.33
  -1   1  -3  120.43    6.28
  -1   1  -3  119.31    6.39
  -1   1  -3  124.50    6.32
  -1   1  -3  121.52    6.23
  -1   1  -2  188.32    8.70
  -1   1  -2  188.71    9.18
  -1   1  -2  190.96    8.70
  -1   1  -2  187.12    9.07
  -1   1  -1 2404.44  108.98
  -1   1   0   23.33    1.42
  -1   1   0   21.45    1.29
  -1   1   0   21.91    1.27
  -1   1   0   22.16    1.27
  -1   1   1  784.87   35.98
  -1   1   1  804.78   36.00
  -1   1   1  781.25   35.98
  -1   1   2 4648.27  210.43
  -1   1   3  523.45   23.97
  -1   1   3  508.59   24.03
  -1   1   3  512.52   23.66
  -1   1   3  501.96   23.65
  -1   1   3  532.13   23.67
  -1   1   4   54.22    3.41
  -1   1   4   49.16    3.47
  -1   1   4   59.09    2.97
  -1   1   4   52.66    3.24
  -1   1   4   61.00    3.13
  -1   1   4   57.33    2.96
  -1   1   5   17.25    1.77
  -1   1   5   17.73    1.13
  -1   1   5   12.13    1.67
  -1   1   5   13.81    1.80
  -1   1   5   20.07    1.82
  -1   1   5   19.54    1.46
  -1   1   5   16.81    1.12
  -1   1   5   15.83    1.55
  -1   1   5   12.83    1.98
  -1   1   6 2056.19   96.56
  -1   1   6 1920.51   96.63
  -1   1   6 1771.50   96.22
  -1   1   6 2136.85   96.12
  -1   1   6 2380.53   96.73
  -1   1   6 2374.43   96.15
  -1   1   7  180.94    9.56
  -1   1   7  166.96    8.79
  -1   1   7  190.98    9.62
  -1   1   8    0.90    1.14
  -1   1   8    1.80    1.34
  -1   1   8   -0.95    1.64
  -1   1   8   -0.18    1.69
  -1   1   9    1.06    1.76
  -1   1   9   -0.20    1.23
  -1   1   9    0.61    1.41
  -1   1   9   -1.12    1.70
  -1   1   9    0.88    1.52
  -1   1  10    1.26    1.67
  -1   1  10    0.40    1.26
  -1   1  10    0.81    1.37
  -1   1  10    0.67    1.47
  -1   1  11    0.22    1.71
  -1   1  11    2.26    1.72
  -1   1  11    1.39    1.25
  -1   1  11    2.97    1.56
  -1   1  12   -0.16    1.41
  -1   2 -11   -0.73    1.42
  -1   2 -11   -0.15    1.35
  -1   2 -10   12.60    2.43
  -1   2 -10    9.98    2.21
  -1   2  -9   61.75    4.86
  -1   2  -9   55.58    5.01
  -1   2  -9   59.23    4.74
  -1   2  -8    1.39    1.14
  -1   2  -8    1.33    1.70
  -1   2  -8    2.44    1.96
  -1   2  -8   -0.19    1.56
  -1   2  -8    0.62    1.21
  -1   2  -8    3.43    2.64
  -1   2  -7  161.13    8.92
  -1   2  -7  167.56    9.20
  -1   2  -7  161.54    9.53
  -1   2  -7  155.10   10.04
  -1   2  -7  157.98    9.25
  -1   2  -7  152.80    8.85
  -1   2  -7  168.06    8.77
  -1   2  -6   37.69    3.06
  -1   2  -6   35.89    3.14
  -1   2  -6   40.52    3.47
  -1   2  -6   39.60    3.39
  -1   2  -6   34.48    2.60
  -1   2  -6   41.22    3.17
  -1   2  -6   44.78    3.04
  -1   2  -5  144.36    7.70
  -1   2  -5  143.15    7.92
  -1   2  -5  139.85    7.69
  -1   2  -5  130.18    7.86
  -1   2  -5  138.54    7.38
  -1   2  -5  158.02    7.90
  -1   2  -5  142.37    7.70
  -1   2  -5  154.93    7.66
  -1   2  -4    1.38    0.80
  -1   2  -4    1.41    0.98
  -1   2  -4    0.20    1.17
  -1   2  -4    0.77    0.75
  -1   2  -4    3.22    1.79
  -1   2  -4    0.71    1.14
  -1   2  -4    0.51    0.98
  -1   2  -4    0.77    1.09
  -1   2  -4    0.82    0.78
  -1   2  -4    0.04    0.46
  -1   2  -4    1.23    1.06
  -1   2  -3  843.20   38.55
  -1   2  -3  846.77   39.12
  -1   2  -3  840.84   38.55
  -1   2  -3  856.62   38.54
  -1   2  -3  857.96   38.54
  -1   2  -3  847.00   39.14
  -1   2  -3  866.13   39.32
  -1   2  -3  816.51   38.77
  -1   2  -3  872.19   39.08
  -1   2  -2    9.51    1.36
  -1   2  -2   12.00    1.14
  -1   2  -2   12.97    0.89
  -1   2  -2   12.96    0.89
  -1   2  -2   10.39    1.19
  -1   2  -1 1535.47   70.38
  -1   2  -1 1553.67   70.32
  -1   2  -1 1562.36   70.32
  -1   2  -1 1538.13   70.38
  -1   2  -1 1553.87   70.42
  -1   2   0   26.23    1.44
  -1   2   1   63.59    3.42
  -1   2   1   66.13    3.43
  -1   2   1   72.24    3.63
  -1   2   2 1341.39   60.14
  -1   2   2 1312.66   59.91
  -1   2   2 1303.35   59.91
  -1   2   3   91.14    5.34
  -1   2   3   99.18    5.36
  -1   2   3  104.62    5.34
  -1   2   3  104.50    5.06
  -1   2   3   96.04    5.01
  -1   2   3  101.53    5.04
  -1   2   3   91.65    5.25
  -1   2   3  105.54    4.78
  -1   2   4  144.02    7.71
  -1   2   4  141.60    7.50
  -1   2   4  143.62    7.53
  -1   2   4  148.44    7.18
  -1   2   4  146.79    7.12
  -1   2   4  158.96    7.70
  -1   2   4  153.37    7.20
  -1   2   4  127.29    7.37
  -1   2   4  154.49    7.07
  -1   2   5  176.71    9.81
  -1   2   5  179.97   10.21
  -1   2   5  182.75    9.92
  -1   2   5  216.00    9.60
  -1   2   5  204.13    9.53
  -1   2   5  214.20   10.33
  -1   2   5  196.75   10.11
  -1   2   5  206.40   10.11
  -1   2   5  202.46    9.52
  -1   2   6   42.04    3.77
  -1   2   6   48.20    3.40
  -1   2   6   50.88    3.44
  -1   2   7    1.80    1.18
  -1   2   7    0.89    1.74
  -1   2   7    1.47    1.32
  -1   2   7    1.49    1.03
  -1   2   8   89.41    5.94
  -1   2   8  110.05    6.23
  -1   2   9    2.50    1.84
  -1   2   9    0.65    1.80
  -1   2   9    0.41    1.20
  -1   2   9   -0.21    1.39
  -1   2  10    0.82    1.64
  -1   2  10    0.79    1.28
  -1   2  10    3.17    1.62
  -1   2  10    2.16    1.57
  -1   2  11    7.28    2.21
  -1   2  11    9.70    1.92
  -1   2  11    7.75    1.88
  -1   2  11   10.55    1.84
  -1   3 -12   -0.13    1.05
  -1   3 -12   -1.85    1.43
  -1   3 -11    9.33    2.06
  -1   3 -11    8.65    2.37
  -1   3 -10   25.46    3.18
  -1   3 -10   29.07    3.32
  -1   3 -10   36.20    3.65
  -1   3 -10   17.75    3.13
  -1   3  -9   34.52    3.28
  -1   3  -9   41.64    4.14
  -1   3  -9   37.29    3.80
  -1   3  -9   42.24    3.96
  -1   3  -9   35.66    3.33
  -1   3  -9   31.40    4.20
  -1   3  -8   82.50    5.53
  -1   3  -8   89.06    5.97
  -1   3  -8   85.02    6.01
  -1   3  -8   76.97    5.47
  -1   3  -8   75.52    6.16
  -1   3  -8   84.45    5.34
  -1   3  -7   85.06    5.54
  -1   3  -7   82.52    5.69
  -1   3  -7   71.16    6.35
  -1   3  -7   78.85    5.74
  -1   3  -7   89.16    5.64
  -1   3  -7   77.53    5.94
  -1   3  -6    1.72    1.05
  -1   3  -6    0.40    1.04
  -1   3  -6    0.96    1.37
  -1   3  -6    2.05    2.10
  -1   3  -6    1.79    1.37
  -1   3  -6    1.88    1.48
  -1   3  -6    0.20    0.83
  -1   3  -6    0.41    1.10
  -1   3  -6    0.68    1.64
  -1   3  -6    1.01    1.24
  -1   3  -5  129.97    6.97
  -1   3  -5  125.93    7.65
  -1   3  -5  128.93    7.01
  -1   3  -5  124.85    7.17
  -1   3  -5  127.70    6.71
  -1   3  -5  117.12    6.59
  -1   3  -5  115.39    6.88
  -1   3  -5  117.52    7.21
  -1   3  -5  129.97    6.85
  -1   3  -4  238.89   11.61
  -1   3  -4  232.18   11.54
  -1   3  -4  230.84   10.78
  -1   3  -4  227.11   11.77
  -1   3  -4  245.24   11.60
  -1   3  -4  222.16   11.50
  -1   3  -4  232.39   10.79
  -1   3  -4  232.07   11.69
  -1   3  -4  231.43   10.77
  -1   3  -4  224.19   11.76
  -1   3  -4  232.85   11.69
  -1   3  -4  231.92   10.77
  -1   3  -4  224.86   11.37
  -1   3  -4  227.04   11.04
  -1   3  -4  232.09   11.57
  -1   3  -4  216.05   11.92
  -1   3  -4  238.59   11.49
  -1   3  -3  416.39   19.67
  -1   3  -3  417.97   19.63
  -1   3  -3  416.31   19.27
  -1   3  -3  412.72   19.24
  -1   3  -3  408.55   19.23
  -1   3  -3  415.90   19.40
  -1   3  -3  426.15   19.71
  -1   3  -3  422.14   19.28
  -1   3  -2    0.87    0.80
  -1   3  -2    0.16    0.60
  -1   3  -2    1.44    1.11
  -1   3  -2    0.25    0.62
  -1   3  -2    0.55    0.73
  -1   3  -1 1211.29   55.91
  -1   3  -1 1239.22   55.91
  -1   3  -1 1244.41   56.06
  -1   3  -1 1219.16   56.02
  -1   3   0  861.62   37.35
  -1   3   0  798.21   36.81
  -1   3   0  861.43   37.30
  -1   3   0  771.75   36.98
  -1   3   1   44.21    2.95
  -1   3   1   42.96    2.63
  -1   3   1   47.94    2.84
  -1   3   1   41.11    2.59
  -1   3   2  429.67   20.37
  -1   3   2  433.88   20.15
  -1   3   2  430.72   20.52
  -1   3   2  438.91   20.33
  -1   3   2  422.94   20.22
  -1   3   2  437.67   20.16
  -1   3   3   16.08    1.74
  -1   3   3   17.14    1.39
  -1   3   3   15.45    1.54
  -1   3   3   16.35    1.43
  -1   3   3   18.00    1.39
  -1   3   3   16.08    1.89
  -1   3   4 1320.35   56.82
  -1   3   4 1143.08   56.64
  -1   3   4 1106.57   56.70
  -1   3   4 1203.95   56.78
  -1   3   4 1236.89   56.29
  -1   3   4 1292.26   56.30
  -1   3   4 1274.03   56.30
  -1   3   4 1213.16   56.69
  -1   3   5    0.62    1.19
  -1   3   5    0.35    1.24
  -1   3   5    2.06    1.14
  -1   3   6    4.13    1.45
  -1   3   6    4.81    1.34
  -1   3   6    5.36    1.29
  -1   3   7  175.84   11.39
  -1   3   7  182.06   10.78
  -1   3   7  233.15   11.11
  -1   3   7  263.89   11.90
  -1   3   8  212.52   11.69
  -1   3   8  212.42   10.84
  -1   3   8  248.30   11.92
  -1   3   9    5.26    2.08
  -1   3   9    7.43    1.81
  -1   3   9    3.10    1.60
  -1   3   9    1.16    1.80
  -1   3  10    4.49    1.98
  -1   3  10    6.14    1.78
  -1   3  10    6.42    1.86
  -1   3  11    0.34    1.44
  -1   3  11   -0.85    1.26
  -1   4 -12   -1.41    1.32
  -1   4 -12    0.54    1.15
  -1   4 -11   -0.41    1.77
  -1   4 -10   35.31    3.19
  -1   4 -10   29.66    3.46
  -1   4 -10   29.76    3.03
  -1   4 -10   32.72    3.87
  -1   4  -9    7.00    1.86
  -1   4  -9    7.69    2.16
  -1   4  -9    8.67    2.31
  -1   4  -9    8.75    2.28
  -1   4  -9    7.86    1.93
  -1   4  -9    6.05    2.51
  -1   4  -8  101.06    6.69
  -1   4  -8   97.66    6.78
  -1   4  -8  110.12    7.22
  -1   4  -8  106.14    7.13
  -1   4  -8  104.47    6.78
  -1   4  -8   98.89    7.17
  -1   4  -8  106.68    6.57
  -1   4  -7  469.57   22.49
  -1   4  -7  451.43   22.46
  -1   4  -7  472.75   22.83
  -1   4  -7  412.02   23.17
  -1   4  -7  430.93   21.85
  -1   4  -7  460.33   22.49
  -1   4  -7  441.95   22.81
  -1   4  -7  478.48   22.38
  -1   4  -6  459.89   21.72
  -1   4  -6  441.10   21.67
  -1   4  -6  427.55   22.31
  -1   4  -6  440.66   21.88
  -1   4  -6  435.67   21.29
  -1   4  -6  476.69   21.87
  -1   4  -6  397.25   21.10
  -1   4  -6  440.72   21.66
  -1   4  -6  434.05   21.91
  -1   4  -6  476.46   21.64
  -1   4  -5  293.49   14.18
  -1   4  -5  277.08   14.14
  -1   4  -5  264.46   14.58
  -1   4  -5  273.51   14.23
  -1   4  -5  272.90   13.39
  -1   4  -5  283.22   14.34
  -1   4  -5  293.73   14.25
  -1   4  -5  271.17   13.88
  -1   4  -5  274.75   14.33
  -1   4  -5  291.36   14.21
  -1   4  -5  293.83   14.09
  -1   4  -4   28.76    1.84
  -1   4  -4   27.73    1.83
  -1   4  -4   28.68    1.84
  -1   4  -4   28.35    1.84
  -1   4  -4   25.85    2.47
  -1   4  -4   23.03    2.71
  -1   4  -4   31.99    2.47
  -1   4  -4   30.06    2.36
  -1   4  -4   28.41    2.03
  -1   4  -4   27.24    2.67
  -1   4  -4   26.62    2.46
  -1   4  -3  641.47   30.36
  -1   4  -3  663.74   30.33
  -1   4  -3  676.84   30.05
  -1   4  -3  662.25   30.04
  -1   4  -3  640.76   30.32
  -1   4  -3  644.14   30.11
  -1   4  -3  609.19   29.98
  -1   4  -3  647.82   30.57
  -1   4  -3  650.37   30.31
  -1   4  -3  644.85   30.39
  -1   4  -3  673.33   30.56
  -1   4  -3  647.66   30.34
  -1   4  -2   97.79    5.23
  -1   4  -2   94.79    5.06
  -1   4  -2   94.64    5.20
  -1   4  -2   98.90    5.14
  -1   4  -2   99.79    5.09
  -1   4  -2   93.74    5.22
  -1   4  -2   93.45    5.17
  -1   4  -1   85.11    4.33
  -1   4  -1   91.61    4.80
  -1   4  -1   83.51    4.61
  -1   4  -1   83.91    4.31
  -1   4  -1   82.04    4.52
  -1   4  -1   82.42    4.64
  -1   4   0  298.16   14.05
  -1   4   0  318.09   14.63
  -1   4   0  335.56   14.91
  -1   4   0  294.60   14.37
  -1   4   1    7.42    0.78
  -1   4   1    6.72    1.27
  -1   4   1    6.28    1.15
  -1   4   1    7.58    1.13
  -1   4   2  702.24   31.59
  -1   4   2  662.21   31.09
  -1   4   2  653.58   31.08
  -1   4   2  665.78   31.30
  -1   4   2  663.49   31.21
  -1   4   2  677.83   31.26
  -1   4   2  677.94   31.38
  -1   4   3  961.09   43.60
  -1   4   3  867.57   43.71
  -1   4   3  939.40   43.49
  -1   4   3  955.16   43.49
  -1   4   3  992.23   43.81
  -1   4   3  936.77   43.96
  -1   4   3  946.94   43.79
  -1   4   4  490.28   23.04
  -1   4   4  489.05   23.07
  -1   4   4  502.89   23.09
  -1   4   4  450.43   23.41
  -1   4   4  528.87   23.52
  -1   4   4  495.10   22.95
  -1   4   4  470.09   23.35
  -1   4   4  499.37   22.97
  -1   4   4  452.93   23.20
  -1   4   5   15.46    2.16
  -1   4   5   15.44    2.21
  -1   4   5   17.33    2.08
  -1   4   6   10.20    1.83
  -1   4   6    8.96    1.73
  -1   4   7    2.54    1.46
  -1   4   7   -0.44    1.93
  -1   4   7    1.29    1.46
  -1   4   7    2.37    1.33
  -1   4   8   32.55    2.98
  -1   4   8   38.76    3.65
  -1   4   8   27.47    3.55
  -1   4   8   39.69    3.58
  -1   4   9   18.90    2.38
  -1   4   9   15.39    2.39
  -1   4   9    9.55    2.27
  -1   4   9   17.90    2.78
  -1   4  10    4.02    1.72
  -1   4  10    2.33    1.30
  -1   4  10    5.15    1.67
  -1   5 -12    3.89    1.29
  -1   5 -11   -0.37    1.48
  -1   5 -11   -0.19    1.63
  -1   5 -10    7.23    1.75
  -1   5 -10    8.61    2.44
  -1   5 -10    6.91    2.21
  -1   5 -10    5.96    1.94
  -1   5 -10    8.06    1.87
  -1   5  -9   99.63    6.61
  -1   5  -9  101.84    6.98
  -1   5  -9   92.93    6.86
  -1   5  -9  102.12    6.67
  -1   5  -9   87.93    6.87
  -1   5  -9  105.19    6.49
  -1   5  -8   96.75    6.37
  -1   5  -8   93.21    6.47
  -1   5  -8   82.26    5.54
  -1   5  -8   94.56    6.36
  -1   5  -8   80.36    6.50
  -1   5  -8  101.39    6.22
  -1   5  -7    0.87    1.31
  -1   5  -7    1.30    1.34
  -1   5  -7    3.30    1.74
  -1   5  -7    1.44    1.76
  -1   5  -7    2.05    1.21
  -1   5  -7    2.29    1.80
  -1   5  -7    0.19    1.52
  -1   5  -6    8.00    1.67
  -1   5  -6   10.95    1.93
  -1   5  -6   10.28    1.95
  -1   5  -6    9.02    1.95
  -1   5  -6   10.30    1.71
  -1   5  -6   12.13    2.02
  -1   5  -6    9.48    1.78
  -1   5  -6    8.94    2.19
  -1   5  -5   14.73    1.95
  -1   5  -5   12.83    1.94
  -1   5  -5   13.65    2.11
  -1   5  -5   14.10    1.42
  -1   5  -5   12.20    1.75
  -1   5  -5   14.74    1.85
  -1   5  -5   13.01    2.15
  -1   5  -5   11.78    1.56
  -1   5  -4   14.01    1.77
  -1   5  -4   14.40    1.33
  -1   5  -4   15.76    1.37
  -1   5  -4   13.91    1.83
  -1   5  -4   11.75    1.68
  -1   5  -4    9.13    1.67
  -1   5  -4   16.40    1.54
  -1   5  -4   13.66    1.76
  -1   5  -4   14.04    1.89
  -1   5  -4   13.48    1.63
  -1   5  -4   10.07    1.94
  -1   5  -4   14.34    1.67
  -1   5  -4   10.29    1.43
  -1   5  -3   10.55    1.48
  -1   5  -3   12.06    1.58
  -1   5  -3    9.13    1.21
  -1   5  -3    9.49    1.42
  -1   5  -3   11.77    1.58
  -1   5  -3   12.21    1.56
  -1   5  -3    9.35    1.52
  -1   5  -3    8.79    1.14
  -1   5  -3    9.31    1.27
  -1   5  -3    9.69    1.17
  -1   5  -3   11.24    1.66
  -1   5  -3    8.71    1.24
  -1   5  -3    8.15    1.73
  -1   5  -3    9.64    1.47
  -1   5  -2   12.86    1.54
  -1   5  -2   13.79    1.56
  -1   5  -2   12.34    1.28
  -1   5  -2   12.68    1.39
  -1   5  -2   11.65    1.35
  -1   5  -2   13.32    1.69
  -1   5  -2   13.43    1.52
  -1   5  -2   13.52    1.57
  -1   5  -2   12.30    1.28
  -1   5  -2   15.78    1.87
  -1   5  -2   15.25    1.75
  -1   5  -2   14.49    1.81
  -1   5  -2   14.09    1.74
  -1   5  -1   19.15    1.70
  -1   5  -1   16.63    1.33
  -1   5  -1   21.32    1.84
  -1   5  -1   21.19    1.89
  -1   5  -1   23.19    2.15
  -1   5  -1   16.63    1.84
  -1   5  -1   19.00    1.70
  -1   5  -1   16.31    1.61
  -1   5  -1   23.37    2.10
  -1   5   0    8.40    1.10
  -1   5   0   10.74    0.72
  -1   5   0    8.23    1.37
  -1   5   0    7.55    1.69
  -1   5   0    8.63    1.29
  -1   5   0    8.38    1.57
  -1   5   1    8.37    0.91
  -1   5   1    5.54    1.27
  -1   5   1    8.72    1.27
  -1   5   1    7.93    1.33
  -1   5   1    7.17    1.17
  -1   5   1    7.02    1.47
  -1   5   1    8.41    1.60
  -1   5   2  624.05   29.12
  -1   5   2  616.30   28.94
  -1   5   2  642.91   29.35
  -1   5   2  605.68   28.77
  -1   5   2  601.20   28.77
  -1   5   2  563.17   28.88
  -1   5   2  632.76   28.95
  -1   5   2  616.38   28.64
  -1   5   2  625.83   28.94
  -1   5   3   16.62    2.33
  -1   5   3   17.69    1.85
  -1   5   3   18.39    1.85
  -1   5   3   13.47    1.70
  -1   5   3   18.79    2.16
  -1   5   4   26.43    2.95
  -1   5   4   26.01    2.96
  -1   5   4   28.90    2.39
  -1   5   4   28.56    2.72
  -1   5   4   27.08    2.66
  -1   5   5    0.53    1.49
  -1   5   5    1.58    0.88
  -1   5   5    0.84    1.61
  -1   5   5    1.58    1.20
  -1   5   5    0.32    1.25
  -1   5   6    4.20    1.70
  -1   5   6    3.58    1.84
  -1   5   6    2.80    1.40
  -1   5   7    4.58    1.58
  -1   5   7    1.64    2.06
  -1   5   7    2.75    1.65
  -1   5   7    4.95    1.61
  -1   5   8   84.82    5.74
  -1   5   8   78.12    5.15
  -1   5   8   95.12    5.89
  -1   5   9   11.92    2.44
  -1   5   9   15.34    2.32
  -1   5  10    0.44    1.28
  -1   6 -11   -0.55    1.03
  -1   6 -11   -0.17    1.28
  -1   6 -11    1.11    1.06
  -1   6 -11    0.87    1.52
  -1   6 -10    1.30    1.31
  -1   6 -10    1.85    1.54
  -1   6 -10    3.01    1.50
  -1   6 -10    2.16    1.85
  -1   6  -9   11.92    2.03
  -1   6  -9   10.39    2.13
  -1   6  -9   12.74    2.41
  -1   6  -9   14.76    2.65
  -1   6  -9   12.27    2.33
  -1   6  -9    7.26    2.40
  -1   6  -8   35.14    3.64
  -1   6  -8   33.40    3.68
  -1   6  -8   35.78    3.61
  -1   6  -8   31.30    3.49
  -1   6  -8   28.14    2.92
  -1   6  -8   33.75    3.85
  -1   6  -8   33.63    3.41
  -1   6  -7   45.71    3.96
  -1   6  -7   38.65    3.64
  -1   6  -7   45.54    4.10
  -1   6  -7   41.64    3.52
  -1   6  -7   35.85    3.36
  -1   6  -7   48.52    4.10
  -1   6  -7   40.84    4.01
  -1   6  -7   45.83    3.87
  -1   6  -6  159.14    9.03
  -1   6  -6  152.72    8.98
  -1   6  -6  176.64    9.32
  -1   6  -6  170.19    9.43
  -1   6  -6  150.34    9.31
  -1   6  -6  156.74    9.20
  -1   6  -5  431.82   20.65
  -1   6  -5  390.62   20.17
  -1   6  -5  426.59   20.47
  -1   6  -5  411.86   19.87
  -1   6  -5  445.21   20.50
  -1   6  -5  416.48   20.59
  -1   6  -5  402.96   20.57
  -1   6  -5  411.76   20.57
  -1   6  -5  397.85   20.05
  -1   6  -4   12.89    1.84
  -1   6  -4   11.50    1.80
  -1   6  -4   17.02    1.72
  -1   6  -4   11.23    1.71
  -1   6  -4   14.43    1.92
  -1   6  -4   14.26    1.69
  -1   6  -4   12.82    1.92
  -1   6  -4   12.99    1.65
  -1   6  -4   12.71    2.07
  -1   6  -4   12.45    1.78
  -1   6  -4   12.81    1.72
  -1   6  -3   25.23    2.42
  -1   6  -3   30.81    2.48
  -1   6  -3   27.58    2.21
  -1   6  -3   31.47    2.47
  -1   6  -3   30.29    2.59
  -1   6  -3   29.85    2.73
  -1   6  -3   27.71    2.36
  -1   6  -3   24.61    2.52
  -1   6  -3   28.18    2.50
  -1   6  -3   26.45    2.47
  -1   6  -2  599.21   28.37
  -1   6  -2  623.11   28.64
  -1   6  -2  564.80   27.99
  -1   6  -2  644.88   28.61
  -1   6  -2  586.72   28.23
  -1   6  -2  610.49   28.49
  -1   6  -2  587.11   27.96
  -1   6  -2  598.48   28.39
  -1   6  -2  613.86   28.70
  -1   6  -2  603.30   28.40
  -1   6  -2  624.26   28.63
  -1   6  -1   11.54    1.43
  -1   6  -1   13.94    1.50
  -1   6  -1   13.45    1.11
  -1   6  -1   16.17    2.09
  -1   6  -1   13.96    1.81
  -1   6  -1   11.69    1.76
  -1   6  -1   13.60    1.75
  -1   6  -1    9.90    1.47
  -1   6  -1   11.05    1.44
  -1   6  -1   13.48    1.94
  -1   6   0   82.84    5.01
  -1   6   0   84.47    5.45
  -1   6   0   81.02    5.09
  -1   6   0   84.63    5.08
  -1   6   0   82.49    5.25
  -1   6   0   85.40    4.69
  -1   6   1    2.78    1.12
  -1   6   1    1.24    1.16
  -1   6   1    2.51    0.96
  -1   6   1    2.21    1.31
  -1   6   1    1.95    1.45
  -1   6   2   61.21    4.45
  -1   6   2   57.58    3.91
  -1   6   2   54.08    3.58
  -1   6   2   52.90    3.93
  -1   6   2   51.01    4.05
  -1   6   3   46.76    4.25
  -1   6   3   54.93    3.81
  -1   6   3   51.16    3.74
  -1   6   3   54.56    4.10
  -1   6   4  198.25   11.27
  -1   6   4  215.17   10.63
  -1   6   4  197.83   10.96
  -1   6   4  193.98   11.20
  -1   6   4  186.30   10.76
  -1   6   5  413.85   22.51
  -1   6   5  424.12   22.73
  -1   6   5  482.37   21.95
  -1   6   5  479.32   22.74
  -1   6   5  441.76   22.14
  -1   6   6   42.91    4.08
  -1   6   6   46.39    4.38
  -1   6   7    3.55    2.21
  -1   6   7    3.36    1.53
  -1   6   7    1.54    1.65
  -1   6   7    5.53    1.67
  -1   6   8   22.47    2.66
  -1   6   8   14.29    2.64
  -1   6   8   20.39    2.38
  -1   6   9   23.46    2.71
  -1   7 -11   -0.57    1.24
  -1   7 -11    1.31    1.43
  -1   7 -10   17.70    2.24
  -1   7 -10   17.80    2.41
  -1   7 -10   19.10    2.62
  -1   7 -10   16.75    2.42
  -1   7 -10   16.43    2.64
  -1   7 -10   18.31    2.53
  -1   7  -9    4.97    1.59
  -1   7  -9    4.26    1.75
  -1   7  -9    6.24    2.08
  -1   7  -9    2.38    1.64
  -1   7  -9    4.16    1.77
  -1   7  -9    2.17    1.96
  -1   7  -8   97.67    6.55
  -1   7  -8   87.59    6.37
  -1   7  -8   77.42    5.88
  -1   7  -8   88.50    5.85
  -1   7  -8   95.60    6.49
  -1   7  -8   80.06    6.26
  -1   7  -8  102.19    6.45
  -1   7  -7    0.62    1.48
  -1   7  -7    1.25    1.32
  -1   7  -7   -0.21    1.57
  -1   7  -7    0.55    1.37
  -1   7  -7    2.73    1.98
  -1   7  -6  121.30    7.39
  -1   7  -6  110.17    6.71
  -1   7  -6  116.05    7.18
  -1   7  -6  119.80    7.14
  -1   7  -6  104.24    7.20
  -1   7  -6  102.41    7.03
  -1   7  -6  111.31    6.54
  -1   7  -5   17.14    2.32
  -1   7  -5   18.54    2.45
  -1   7  -5   17.27    2.30
  -1   7  -5   15.52    2.24
  -1   7  -5   17.81    1.92
  -1   7  -5   20.65    2.59
  -1   7  -5   17.97    2.09
  -1   7  -5   16.38    2.53
  -1   7  -5   17.84    2.22
  -1   7  -5   16.90    1.99
  -1   7  -4   45.47    3.64
  -1   7  -4   44.54    3.76
  -1   7  -4   45.30    3.28
  -1   7  -4   46.84    3.46
  -1   7  -4   46.87    3.55
  -1   7  -4   42.65    3.28
  -1   7  -4   47.41    3.72
  -1   7  -4   43.83    3.67
  -1   7  -4   53.83    3.84
  -1   7  -4   52.00    3.78
  -1   7  -4   43.66    3.48
  -1   7  -3   42.22    3.21
  -1   7  -3   36.42    3.08
  -1   7  -3   46.05    3.30
  -1   7  -3   35.04    3.12
  -1   7  -3   36.09    3.31
  -1   7  -3   40.90    3.19
  -1   7  -3   35.51    3.17
  -1   7  -2  143.73    7.76
  -1   7  -2  134.10    8.02
  -1   7  -2  140.04    7.92
  -1   7  -2  138.41    8.04
  -1   7  -2  147.96    7.82
  -1   7  -2  137.98    7.76
  -1   7  -2  142.71    8.23
  -1   7  -2  139.67    7.46
  -1   7  -2  144.73    7.82
  -1   7  -2  150.50    8.18
  -1   7  -1   62.63    4.00
  -1   7  -1   71.10    4.55
  -1   7  -1   64.99    4.49
  -1   7  -1   64.19    4.45
  -1   7  -1   65.14    4.06
  -1   7  -1   70.33    4.82
  -1   7  -1   59.70    4.03
  -1   7  -1   70.63    4.74
  -1   7   0    0.82    0.75
  -1   7   0    0.62    1.43
  -1   7   0    1.20    1.73
  -1   7   0    0.14    1.20
  -1   7   0    1.31    1.15
  -1   7   0   -0.16    1.44
  -1   7   1  259.33   13.45
  -1   7   1  264.76   13.22
  -1   7   1  246.18   13.49
  -1   7   1  262.96   13.72
  -1   7   2   20.23    3.00
  -1   7   2   23.61    2.16
  -1   7   2   18.29    2.71
  -1   7   2   20.38    2.38
  -1   7   2   20.68    2.50
  -1   7   2   19.06    2.63
  -1   7   3    1.91    1.24
  -1   7   3    0.78    1.30
  -1   7   3    4.20    1.93
  -1   7   3    3.20    2.07
  -1   7   3    2.03    1.69
  -1   7   4   98.75    6.61
  -1   7   4  115.79    6.53
  -1   7   4  104.89    7.20
  -1   7   4   90.93    7.00
  -1   7   4  107.07    6.85
  -1   7   5    7.13    2.40
  -1   7   5    5.73    2.28
  -1   7   5   12.69    2.26
  -1   7   5    7.97    1.87
  -1   7   6   -0.44    1.74
  -1   7   6    0.39    1.64
  -1   7   6    2.42    1.54
  -1   7   7    2.41    2.06
  -1   7   7    4.17    1.80
  -1   7   7    5.74    1.63
  -1   7   8   -0.16    1.51
  -1   8 -10   -0.17    1.12
  -1   8 -10    1.41    1.22
  -1   8 -10    1.74    1.42
  -1   8 -10    0.68    1.25
  -1   8 -10    1.09    1.48
  -1   8  -9   42.10    3.75
  -1   8  -9   34.94    3.27
  -1   8  -9   36.41    3.63
  -1   8  -9   33.22    3.04
  -1   8  -9   41.08    3.78
  -1   8  -9   32.02    3.47
  -1   8  -9   46.80    3.75
  -1   8  -8    2.54    1.48
  -1   8  -8    1.67    1.28
  -1   8  -8    1.26    1.56
  -1   8  -8    2.51    1.35
  -1   8  -8    0.81    1.76
  -1   8  -7   53.99    4.66
  -1   8  -7   55.30    4.50
  -1   8  -7   54.89    4.39
  -1   8  -7   52.88    4.63
  -1   8  -7   48.79    4.36
  -1   8  -6    0.41    1.41
  -1   8  -6   -0.41    1.52
  -1   8  -6    0.95    1.33
  -1   8  -6    0.55    1.47
  -1   8  -6   -0.99    1.51
  -1   8  -6    0.21    1.40
  -1   8  -6   -2.48    1.73
  -1   8  -5  120.94    7.45
  -1   8  -5  128.96    7.61
  -1   8  -5  124.52    7.00
  -1   8  -5  120.43    7.48
  -1   8  -5  119.86    7.15
  -1   8  -5  109.23    7.15
  -1   8  -5  118.90    7.45
  -1   8  -5  111.89    6.84
  -1   8  -4   52.15    4.08
  -1   8  -4   49.12    3.71
  -1   8  -4   52.10    3.92
  -1   8  -4   56.89    4.26
  -1   8  -4   52.08    4.19
  -1   8  -4   50.91    4.04
  -1   8  -4   52.24    3.95
  -1   8  -3   74.63    5.05
  -1   8  -3   78.31    5.22
  -1   8  -3   78.81    5.48
  -1   8  -3   79.31    5.23
  -1   8  -3   81.66    5.19
  -1   8  -3   73.24    5.35
  -1   8  -3   78.93    5.16
  -1   8  -3   76.07    5.31
  -1   8  -2   78.04    5.03
  -1   8  -2   82.68    5.57
  -1   8  -2   83.03    5.63
  -1   8  -2   84.47    5.44
  -1   8  -2   82.50    5.21
  -1   8  -2   76.46    5.05
  -1   8  -2   75.29    4.82
  -1   8  -2   80.84    5.65
  -1   8  -2   86.11    5.19
  -1   8  -2   82.24    5.55
  -1   8  -1   19.65    1.97
  -1   8  -1   21.10    2.82
  -1   8  -1   20.14    2.52
  -1   8  -1   16.51    2.24
  -1   8  -1   18.38    2.34
  -1   8  -1   17.14    2.00
  -1   8  -1   17.42    2.55
  -1   8   0   86.43    5.96
  -1   8   0   87.48    5.64
  -1   8   0   78.61    5.28
  -1   8   0   82.59    5.66
  -1   8   0   73.84    5.16
  -1   8   0   75.03    5.65
  -1   8   1  162.56   10.13
  -1   8   1  186.48    9.94
  -1   8   1  166.64    9.40
  -1   8   1  175.11   10.15
  -1   8   1  169.44    9.64
  -1   8   1  171.57    9.83
  -1   8   1  169.57   10.03
  -1   8   2   38.35    4.07
  -1   8   2   32.29    3.19
  -1   8   2   32.64    2.85
  -1   8   2   36.72    3.86
  -1   8   2   32.26    3.23
  -1   8   2   33.13    3.28
  -1   8   2   35.56    3.64
  -1   8   3   89.66    6.73
  -1   8   3   98.70    6.09
  -1   8   3   92.62    6.27
  -1   8   3   84.78    5.86
  -1   8   3   85.29    6.18
  -1   8   4   19.31    3.26
  -1   8   4   20.45    3.12
  -1   8   4   23.89    2.54
  -1   8   4   21.30    2.90
  -1   8   5   29.33    3.61
  -1   8   5   31.53    3.70
  -1   8   5   41.61    3.66
  -1   8   5   29.94    3.15
  -1   8   6   55.62    4.60
  -1   8   6   64.43    4.47
  -1   8   7    0.16    1.21
  -1   8   7    0.89    1.34
  -1   8   7    1.61    1.80
  -1   8   7    0.58    1.08
  -1   9 -10    6.66    1.49
  -1   9 -10    5.73    1.53
  -1   9  -9   29.07    3.02
  -1   9  -9   26.62    2.62
  -1   9  -8   38.62    3.63
  -1   9  -8   42.03    3.54
  -1   9  -8   42.14    3.87
  -1   9  -8   36.60    3.54
  -1   9  -7    6.30    1.71
  -1   9  -7    5.33    1.77
  -1   9  -7    4.93    1.69
  -1   9  -7    9.75    1.99
  -1   9  -7    6.06    1.89
  -1   9  -6   39.12    3.60
  -1   9  -6   31.51    3.10
  -1   9  -6   35.37    3.54
  -1   9  -6   31.95    3.47
  -1   9  -6   35.86    3.27
  -1   9  -6   34.40    3.42
  -1   9  -5   27.80    2.94
  -1   9  -5   24.81    3.02
  -1   9  -5   30.99    2.79
  -1   9  -5   34.22    3.41
  -1   9  -5   27.03    3.09
  -1   9  -5   25.36    3.05
  -1   9  -5   23.92    2.61
  -1   9  -4  259.80   13.78
  -1   9  -4  261.72   13.71
  -1   9  -4  262.75   13.83
  -1   9  -4  264.42   14.05
  -1   9  -4  259.27   13.82
  -1   9  -4  250.69   13.65
  -1   9  -3    1.00    1.06
  -1   9  -3    0.79    1.18
  -1   9  -3    0.88    1.53
  -1   9  -3    0.20    1.41
  -1   9  -3    2.88    1.38
  -1   9  -3   -0.16    1.21
  -1   9  -3    1.45    1.72
  -1   9  -3   -0.57    1.46
  -1   9  -2  124.93    8.03
  -1   9  -2  122.20    7.62
  -1   9  -2  137.23    8.08
  -1   9  -2  137.20    8.18
  -1   9  -2  129.47    7.36
  -1   9  -2  137.37    8.41
  -1   9  -2  132.05    7.58
  -1   9  -2  139.23    8.27
  -1   9  -1   83.74    5.84
  -1   9  -1   74.01    5.36
  -1   9  -1   74.18    5.28
  -1   9  -1   72.37    5.28
  -1   9  -1   65.55    4.81
  -1   9  -1   83.46    5.72
  -1   9  -1   71.19    5.50
  -1   9   0  281.80   15.87
  -1   9   0  317.88   15.69
  -1   9   0  294.54   15.31
  -1   9   0  291.45   15.60
  -1   9   0  283.51   15.22
  -1   9   0  294.84   15.76
  -1   9   1   68.29    5.72
  -1   9   1   77.25    5.41
  -1   9   1   66.30    4.78
  -1   9   1   75.16    5.68
  -1   9   1   74.32    5.21
  -1   9   1   70.36    5.38
  -1   9   1   66.75    5.47
  -1   9   2   -0.23    2.00
  -1   9   2    0.97    1.36
  -1   9   2   -0.39    1.46
  -1   9   2    1.20    1.58
  -1   9   2   -0.66    1.82
  -1   9   3    0.55    1.23
  -1   9   3   -0.24    2.08
  -1   9   3    0.87    1.42
  -1   9   3    0.41    1.63
  -1   9   3   -1.05    1.75
  -1   9   4   39.48    4.17
  -1   9   4   46.02    3.55
  -1   9   4   39.02    4.14
  -1   9   4   43.19    3.86
  -1   9   5   13.71    2.04
  -1   9   5   14.83    2.67
  -1   9   5   13.68    2.48
  -1   9   5   16.89    2.40
  -1   9   6   28.13    2.98
  -1   9   6   21.01    3.01
  -1  10  -9    0.60    1.09
  -1  10  -9    0.34    0.88
  -1  10  -9    0.15    1.12
  -1  10  -8   25.63    2.66
  -1  10  -8   17.23    2.42
  -1  10  -8   22.83    2.57
  -1  10  -8   23.82    2.69
  -1  10  -7   -1.16    1.22
  -1  10  -7    2.11    1.46
  -1  10  -7    1.11    1.39
  -1  10  -7   -0.78    1.43
  -1  10  -6    9.30    1.95
  -1  10  -6    9.33    1.97
  -1  10  -6    5.47    1.83
  -1  10  -6    4.54    1.67
  -1  10  -6    2.36    1.50
  -1  10  -5    3.87    1.51
  -1  10  -5    5.98    1.72
  -1  10  -5    4.62    1.93
  -1  10  -5    5.04    1.31
  -1  10  -5    4.18    1.56
  -1  10  -5    1.75    1.62
  -1  10  -5    5.86    1.48
  -1  10  -4    0.37    1.06
  -1  10  -4    0.17    1.25
  -1  10  -4    1.69    1.60
  -1  10  -4    0.71    1.18
  -1  10  -4    3.14    1.42
  -1  10  -4    1.47    1.78
  -1  10  -4    0.72    1.43
  -1  10  -3   47.28    4.16
  -1  10  -3   52.52    4.41
  -1  10  -3   52.00    4.54
  -1  10  -3   52.62    3.97
  -1  10  -3   48.06    4.26
  -1  10  -3   55.12    4.26
  -1  10  -2   22.30    3.01
  -1  10  -2   20.81    2.72
  -1  10  -2   20.50    2.52
  -1  10  -2   18.07    2.50
  -1  10  -2   20.89    2.90
  -1  10  -1    4.55    2.26
  -1  10  -1    5.73    1.77
  -1  10  -1    4.39    1.80
  -1  10  -1    8.66    1.93
  -1  10  -1    4.26    1.97
  -1  10  -1    3.58    1.32
  -1  10  -1    4.23    2.04
  -1  10   0   61.18    4.45
  -1  10   0   52.63    4.94
  -1  10   0   62.78    4.81
  -1  10   0   61.05    4.89
  -1  10   0   57.89    4.41
  -1  10   0   56.21    4.88
  -1  10   1   18.00    3.14
  -1  10   1   14.95    2.03
  -1  10   1   15.21    2.72
  -1  10   1   17.24    2.47
  -1  10   1   13.23    2.42
  -1  10   1   18.81    2.42
  -1  10   1   16.71    2.74
  -1  10   2   21.30    3.08
  -1  10   2   19.96    2.56
  -1  10   2   28.94    2.95
  -1  10   2   19.64    2.68
  -1  10   2   17.07    2.83
  -1  10   3    1.06    1.85
  -1  10   3   -0.66    1.82
  -1  10   3    0.98    1.14
  -1  10   3    0.44    1.26
  -1  10   3   -0.56    1.40
  -1  10   3    2.63    1.65
  -1  10   4    4.16    1.82
  -1  10   4    4.37    1.60
  -1  10   4    5.13    1.56
  -1  10   5    7.20    1.79
  -1  11  -8    0.55    1.01
  -1  11  -8    2.18    1.17
  -1  11  -8    0.42    1.10
  -1  11  -7    5.28    1.57
  -1  11  -7   10.94    1.82
  -1  11  -7    9.39    1.76
  -1  11  -6   20.60    2.40
  -1  11  -6   19.03    2.35
  -1  11  -6   19.98    2.55
  -1  11  -6   19.82    2.37
  -1  11  -6   19.04    2.36
  -1  11  -5    1.70    1.26
  -1  11  -5    0.31    1.06
  -1  11  -5    1.01    1.06
  -1  11  -5   -0.47    1.12
  -1  11  -5    0.72    1.44
  -1  11  -4    1.60    1.07
  -1  11  -4    1.00    1.43
  -1  11  -4   -0.33    1.03
  -1  11  -4    2.40    1.75
  -1  11  -4    2.69    1.50
  -1  11  -3   10.65    2.04
  -1  11  -3   13.22    2.23
  -1  11  -3   12.65    2.05
  -1  11  -3   10.38    2.32
  -1  11  -3   13.27    2.32
  -1  11  -2    0.98    1.67
  -1  11  -2    2.26    1.44
  -1  11  -2    1.74    1.21
  -1  11  -2    2.84    1.82
  -1  11  -1    2.11    1.91
  -1  11  -1    4.67    1.58
  -1  11  -1    1.88    1.52
  -1  11  -1    3.91    1.63
  -1  11  -1    4.86    1.95
  -1  11  -1    5.23    2.00
  -1  11   0   30.43    3.58
  -1  11   0   33.80    3.18
  -1  11   0   31.19    2.92
  -1  11   0   31.22    3.33
  -1  11   0   29.24    2.85
  -1  11   0   33.88    3.43
  -1  11   1   38.58    3.27
  -1  11   1   25.34    3.12
  -1  11   1   30.03    2.90
  -1  11   1   29.61    3.11
  -1  11   1   28.47    3.20
  -1  11   1   31.68    3.51
  -1  11   2    1.09    1.59
  -1  11   2    0.29    1.27
  -1  11   2    0.77    1.19
  -1  11   2   -0.69    1.47
  -1  11   3    5.82    1.85
  -1  11   3    7.12    1.50
  -1  11   3    5.35    1.51
  -1  12  -6    1.88    1.16
  -1  12  -6    1.03    1.05
  -1  12  -5    0.16    1.22
  -1  12  -5    1.02    1.27
  -1  12  -4   42.04    3.66
  -1  12  -4   39.94    3.29
  -1  12  -3   25.28    2.49
  -1  12  -3   21.47    2.55
  -1  12  -3   27.50    2.95
  -1  12  -3   22.79    2.56
  -1  12  -2    7.20    1.55
  -1  12  -2    4.94    1.39
  -1  12  -2    4.33    1.64
  -1  12  -1   13.39    2.26
  -1  12  -1   21.13    2.17
  -1  12  -1   18.94    2.48
  -1  12  -1   19.85    2.51
  -1  12   0    2.26    1.32
  -1  12   0    3.21    1.42
  -1  12   1    1.45    1.25
  -1  12   1   -0.25    1.17
  -1  12   1    2.86    1.39
  -1  13  -3   11.26    1.74
  -1  13  -2   14.43    1.85
   0 -12   0   22.18    2.40
   0 -12   0   15.71    2.16
   0 -12   1    9.31    1.89
   0 -12   1    8.56    1.89
   0 -12   2   12.29    2.00
   0 -12   2   10.94    2.01
   0 -12   2   12.34    2.16
   0 -12   3   31.34    3.06
   0 -12   3   33.68    3.10
   0 -12   3   28.85    3.07
   0 -12   4    2.12    1.35
   0 -12   4    1.30    1.35
   0 -12   4    3.79    1.29
   0 -12   4    1.85    1.56
   0 -12   5    0.31    1.32
   0 -12   5   -0.16    1.23
   0 -12   5    1.46    1.44
   0 -12   5    0.31    1.04
   0 -12   6   34.63    2.93
   0 -12   6   33.63    2.95
   0 -12   7   57.39    3.77
   0 -12   7   50.49    3.70
   0 -12   7   46.12    3.73
   0 -11  -3    3.53    1.36
   0 -11  -3    2.23    1.41
   0 -11  -3    3.50    1.53
   0 -11  -2    0.66    1.40
   0 -11  -2    0.31    1.56
   0 -11  -2   -2.19    1.56
   0 -11  -2    0.77    1.45
   0 -11  -1   37.21    3.44
   0 -11  -1   25.37    3.01
   0 -11  -1   28.91    3.27
   0 -11  -1   29.04    3.05
   0 -11   0   43.61    3.88
   0 -11   0   42.04    3.61
   0 -11   0   41.72    3.91
   0 -11   0   34.93    3.47
   0 -11   0   33.50    3.45
   0 -11   1    9.99    2.10
   0 -11   1    9.07    2.32
   0 -11   1    6.27    1.80
   0 -11   2    3.13    1.83
   0 -11   2    3.93    2.13
   0 -11   3    5.16    1.93
   0 -11   3    7.64    2.22
   0 -11   3    5.32    1.93
   0 -11   4    2.42    1.74
   0 -11   4    2.82    1.72
   0 -11   4    1.70    1.16
   0 -11   4    5.62    2.11
   0 -11   4    2.14    1.37
   0 -11   5    0.19    1.50
   0 -11   5    0.20    1.46
   0 -11   5   -1.06    1.71
   0 -11   5    0.19    1.25
   0 -11   6   33.45    3.35
   0 -11   6   36.14    3.45
   0 -11   6   35.39    3.61
   0 -11   6   32.24    3.18
   0 -11   7   11.00    2.02
   0 -11   7    5.94    1.78
   0 -11   7   11.39    1.90
   0 -11   7    7.42    2.03
   0 -11   8    3.65    1.46
   0 -11   8    2.03    1.46
   0 -11   9   -0.55    1.28
   0 -10  -4   34.23    3.12
   0 -10  -4   25.76    3.16
   0 -10  -3    0.38    1.49
   0 -10  -3   -0.40    1.97
   0 -10  -3    0.62    1.75
   0 -10  -3   -0.38    1.64
   0 -10  -2   30.27    3.35
   0 -10  -2   28.76    3.45
   0 -10  -2   27.18    3.45
   0 -10  -2   26.82    3.37
   0 -10  -1    0.46    1.86
   0 -10  -1    0.21    1.99
   0 -10  -1   -0.24    2.06
   0 -10  -1    1.07    1.47
   0 -10  -1    0.83    1.78
   0 -10   0    2.47    2.02
   0 -10   0    3.67    2.01
   0 -10   0    0.98    2.03
   0 -10   0    3.02    1.75
   0 -10   0    4.18    1.92
   0 -10   1    3.88    2.15
   0 -10   1   -0.23    1.77
   0 -10   1   -1.33    1.76
   0 -10   1    0.18    1.69
   0 -10   2    2.24    1.81
   0 -10   2    0.18    1.34
   0 -10   2    0.24    1.96
   0 -10   2   -0.47    1.46
   0 -10   3   23.82    3.08
   0 -10   3   22.60    2.58
   0 -10   3   22.37    2.99
   0 -10   3   17.89    3.03
   0 -10   3   23.75    2.64
   0 -10   4    5.43    2.02
   0 -10   4    9.74    1.77
   0 -10   4   12.82    2.38
   0 -10   4    6.40    2.22
   0 -10   4    7.73    1.88
   0 -10   4    8.72    1.79
   0 -10   4   11.39    1.87
   0 -10   5  228.22   12.54
   0 -10   5  230.01   12.29
   0 -10   5  220.70   11.91
   0 -10   5  225.30   12.44
   0 -10   5  215.38   12.64
   0 -10   6   34.99    3.61
   0 -10   6   39.12    3.58
   0 -10   6   32.94    3.24
   0 -10   6   37.02    3.09
   0 -10   6   43.81    4.11
   0 -10   7    9.84    2.22
   0 -10   7    9.30    1.77
   0 -10   7    5.48    2.23
   0 -10   7   12.11    2.12
   0 -10   8   21.29    2.65
   0 -10   8   23.07    2.63
   0 -10   9    0.47    1.26
   0 -10   9    1.68    1.67
   0 -10   9    1.12    1.07
   0 -10  10    8.68    1.50
   0 -10  10    7.80    1.78
   0  -9  -6   -0.40    1.18
   0  -9  -6    0.13    1.19
   0  -9  -5    0.18    1.43
   0  -9  -5    0.20    1.81
   0  -9  -5   -0.52    1.60
   0  -9  -4   34.95    4.14
   0  -9  -4   39.84    4.18
   0  -9  -3  206.74   11.24
   0  -9  -3  179.22   11.14
   0  -9  -3  185.87   11.33
   0  -9  -3  185.90   11.06
   0  -9  -2   12.80    2.52
   0  -9  -2   12.57    2.86
   0  -9  -2   12.04    2.84
   0  -9  -2   12.76    2.64
   0  -9  -1    1.39    1.94
   0  -9  -1    3.17    2.08
   0  -9  -1    3.27    2.24
   0  -9  -1    3.69    1.70
   0  -9  -1    0.22    1.88
   0  -9   0  233.04   13.47
   0  -9   0  269.13   14.05
   0  -9   0  233.97   13.40
   0  -9   0  246.72   13.33
   0  -9   1   94.77    6.70
   0  -9   1   99.04    6.43
   0  -9   1   99.77    6.39
   0  -9   1  105.09    7.07
   0  -9   1   89.52    6.23
   0  -9   1   97.54    6.49
   0  -9   2   20.27    2.84
   0  -9   2   19.23    2.39
   0  -9   2   18.35    2.44
   0  -9   2   19.36    3.01
   0  -9   2   18.69    2.56
   0  -9   2   16.73    2.36
   0  -9   3    4.84    1.95
   0  -9   3    9.34    1.85
   0  -9   3    9.44    2.34
   0  -9   3    7.34    1.63
   0  -9   3    6.92    2.28
   0  -9   3    6.95    2.22
   0  -9   3    5.81    1.61
   0  -9   4  337.64   17.74
   0  -9   4  329.99   17.06
   0  -9   4  347.31   17.51
   0  -9   4  337.46   17.25
   0  -9   4  350.42   18.11
   0  -9   4  339.89   17.81
   0  -9   4  341.57   17.66
   0  -9   5  182.89   10.67
   0  -9   5  195.63   10.47
   0  -9   5  191.27   10.15
   0  -9   5  170.00   10.42
   0  -9   5  164.33   10.69
   0  -9   5  194.88   10.67
   0  -9   6   81.20    5.88
   0  -9   6   84.21    5.57
   0  -9   6   84.57    5.30
   0  -9   6   67.89    5.47
   0  -9   6   84.59    5.85
   0  -9   6   71.99    6.01
   0  -9   7   59.86    4.93
   0  -9   7   73.60    4.85
   0  -9   7   66.92    4.38
   0  -9   7   48.52    4.36
   0  -9   7   63.07    4.92
   0  -9   7   59.54    5.29
   0  -9   8   63.52    5.04
   0  -9   8   70.36    4.77
   0  -9   8   54.17    5.14
   0  -9   8   64.85    4.96
   0  -9   9    3.19    1.67
   0  -9   9    3.16    2.11
   0  -9   9    3.39    1.50
   0  -9  10    0.76    1.30
   0  -9  10    0.16    1.14
   0  -9  10    1.52    1.78
   0  -9  11   10.94    1.92
   0  -8  -7    1.65    1.28
   0  -8  -7    1.07    1.63
   0  -8  -7    0.95    1.20
   0  -8  -6    6.18    1.91
   0  -8  -6    6.72    2.32
   0  -8  -6    7.44    2.06
   0  -8  -5    2.34    1.79
   0  -8  -5    0.21    1.87
   0  -8  -4  105.52    6.81
   0  -8  -4   88.86    6.84
   0  -8  -4   87.69    6.66
   0  -8  -4   83.69    6.78
   0  -8  -3  404.33   20.09
   0  -8  -3  394.36   20.40
   0  -8  -3  353.95   20.14
   0  -8  -2   25.75    2.75
   0  -8  -2   27.46    3.34
   0  -8  -2   26.28    3.54
   0  -8  -2   29.51    3.62
   0  -8  -2   30.13    3.26
   0  -8  -2   32.41    3.62
   0  -8  -1    0.84    1.72
   0  -8  -1    3.01    1.97
   0  -8  -1    1.18    1.43
   0  -8  -1    2.20    2.00
   0  -8  -1    1.48    2.01
   0  -8   0  415.79   21.53
   0  -8   0  427.06   21.35
   0  -8   0  434.34   21.34
   0  -8   0  426.77   21.52
   0  -8   0  430.56   21.83
   0  -8   0  424.12   21.38
   0  -8   1  326.29   16.99
   0  -8   1  331.01   17.30
   0  -8   1  342.61   16.80
   0  -8   1  317.74   16.63
   0  -8   1  331.69   16.84
   0  -8   1  319.53   16.61
   0  -8   2   85.43    5.64
   0  -8   2   84.97    5.29
   0  -8   2   75.82    5.10
   0  -8   2   75.95    5.24
   0  -8   2   73.37    5.43
   0  -8   2   79.16    5.22
   0  -8   2   79.73    5.69
   0  -8   2   80.43    5.77
   0  -8   2   73.96    4.98
   0  -8   3   28.59    3.16
   0  -8   3   28.58    2.74
   0  -8   3   28.45    2.82
   0  -8   3   30.79    2.79
   0  -8   3   30.19    3.22
   0  -8   3   27.84    2.65
   0  -8   3   31.68    3.49
   0  -8   4   58.74    4.53
   0  -8   4   58.86    4.21
   0  -8   4   55.24    3.91
   0  -8   4   53.19    3.98
   0  -8   4   59.33    4.57
   0  -8   4   52.23    3.88
   0  -8   4   48.69    4.14
   0  -8   4   56.80    4.73
   0  -8   5    6.22    2.34
   0  -8   5    6.12    1.87
   0  -8   5    3.93    1.36
   0  -8   5    5.10    1.42
   0  -8   5    4.88    1.31
   0  -8   5    6.33    1.91
   0  -8   5    3.02    1.66
   0  -8   5    6.45    1.57
   0  -8   6  191.75   10.52
   0  -8   6  198.54   10.25
   0  -8   6  182.91    9.83
   0  -8   6  167.64   10.62
   0  -8   6  166.61    9.81
   0  -8   6  190.37   10.46
   0  -8   6  162.77    9.93
   0  -8   7   92.53    6.70
   0  -8   7  117.33    6.61
   0  -8   7   99.82    6.04
   0  -8   7   92.66    6.24
   0  -8   7   83.78    6.01
   0  -8   7  106.12    6.76
   0  -8   7   95.54    7.08
   0  -8   8  120.50    8.01
   0  -8   8  115.76    7.57
   0  -8   8  111.99    8.37
   0  -8   8  133.19    8.11
   0  -8   9    1.45    1.46
   0  -8   9    1.05    1.74
   0  -8   9    0.51    1.04
   0  -8   9    0.53    1.39
   0  -8   9   -0.76    2.23
   0  -8  10    1.98    1.63
   0  -8  10   -0.31    1.29
   0  -8  10   -0.18    1.21
   0  -8  10    0.22    1.85
   0  -8  11    2.15    1.18
   0  -8  11   -0.71    1.46
   0  -7  -8   13.02    1.91
   0  -7  -8    8.67    1.92
   0  -7  -7   17.51    2.46
   0  -7  -7   13.66    2.22
   0  -7  -6   18.42    3.27
   0  -7  -6   19.01    2.93
   0  -7  -5    6.19    1.82
   0  -7  -5    3.89    2.43
   0  -7  -5   11.87    2.48
   0  -7  -5   10.33    2.51
   0  -7  -4  373.14   18.94
   0  -7  -4  347.32   18.39
   0  -7  -4  358.64   19.25
   0  -7  -4  370.76   18.94
   0  -7  -3    2.25    1.66
   0  -7  -3    3.63    2.18
   0  -7  -3    1.20    1.33
   0  -7  -3    1.88    2.09
   0  -7  -3    0.32    1.37
   0  -7  -2   41.99    3.90
   0  -7  -2   47.84    4.38
   0  -7  -2   46.97    3.66
   0  -7  -2   53.01    4.54
   0  -7  -2   43.98    4.08
   0  -7  -2   48.09    3.87
   0  -7  -2   47.12    3.94
   0  -7  -1  227.77   12.36
   0  -7  -1  242.30   12.75
   0  -7  -1  240.29   12.99
   0  -7  -1  245.69   12.76
   0  -7  -1  246.03   13.12
   0  -7  -1  234.38   12.85
   0  -7  -1  247.45   12.78
   0  -7   0  114.21    7.13
   0  -7   0  116.81    7.01
   0  -7   0  119.51    6.95
   0  -7   0  113.37    6.68
   0  -7   0  126.14    7.52
   0  -7   0  127.52    7.20
   0  -7   0  117.85    7.13
   0  -7   0  112.60    7.20
   0  -7   1  250.22   12.68
   0  -7   1  236.57   12.35
   0  -7   1  237.51   12.42
   0  -7   1  239.69   12.35
   0  -7   1  228.76   12.11
   0  -7   1  240.73   12.50
   0  -7   1  254.53   12.92
   0  -7   1  233.19   12.38
   0  -7   1  238.47   12.78
   0  -7   1  238.20   12.63
   0  -7   2  456.45   22.37
   0  -7   2  452.63   22.04
   0  -7   2  470.59   22.22
   0  -7   2  446.93   22.04
   0  -7   2  439.00   21.91
   0  -7   2  457.99   22.07
   0  -7   2  460.67   22.60
   0  -7   2  446.90   21.89
   0  -7   2  476.77   22.55
   0  -7   3   23.51    2.54
   0  -7   3   18.58    2.02
   0  -7   3   20.18    2.50
   0  -7   3   17.01    2.06
   0  -7   3   21.06    2.68
   0  -7   3   17.53    2.05
   0  -7   3   17.95    2.05
   0  -7   4   82.00    5.42
   0  -7   4   79.44    5.13
   0  -7   4   83.74    4.95
   0  -7   4   77.89    4.62
   0  -7   4   78.14    4.98
   0  -7   4   72.74    4.92
   0  -7   4   76.50    5.24
   0  -7   4   79.75    5.63
   0  -7   4   83.26    5.38
   0  -7   5  160.52    9.07
   0  -7   5  170.49    8.82
   0  -7   5  149.66    8.32
   0  -7   5  152.99    8.25
   0  -7   5  163.45    8.56
   0  -7   5  147.04    8.76
   0  -7   5  152.94    8.87
   0  -7   5  148.09    9.16
   0  -7   5  145.56    8.58
   0  -7   6   25.64    2.55
   0  -7   6   20.66    2.82
   0  -7   6   21.78    2.17
   0  -7   6   20.44    2.56
   0  -7   6   20.50    2.27
   0  -7   6   18.09    2.48
   0  -7   6   21.89    2.64
   0  -7   6   23.44    3.20
   0  -7   7   11.18    2.70
   0  -7   7    8.88    2.39
   0  -7   7   10.92    2.13
   0  -7   7   10.89    1.73
   0  -7   7   10.84    1.71
   0  -7   7    7.33    2.00
   0  -7   7    9.76    1.80
   0  -7   7    8.43    1.90
   0  -7   8    5.83    2.28
   0  -7   8    9.18    1.75
   0  -7   8    6.14    1.51
   0  -7   8    8.84    2.19
   0  -7   8    6.70    2.80
   0  -7   8    9.95    2.17
   0  -7   8    7.99    1.74
   0  -7   9   16.54    2.86
   0  -7   9   19.09    2.40
   0  -7   9   21.60    2.89
   0  -7   9   24.42    2.64
   0  -7   9   17.67    3.52
   0  -7   9   26.35    3.02
   0  -7  10   26.65    3.27
   0  -7  10   27.86    3.21
   0  -7  10   39.70    3.56
   0  -7  10   32.68    3.99
   0  -7  11    2.67    2.08
   0  -7  11    1.11    1.31
   0  -7  11    1.22    1.28
   0  -7  11    1.13    1.17
   0  -7  12    2.74    1.46
   0  -6  -9    1.36    1.15
   0  -6  -8   -0.52    1.44
   0  -6  -8   -0.18    1.77
   0  -6  -7    1.03    1.80
   0  -6  -7    1.58    1.97
   0  -6  -7   -0.54    1.48
   0  -6  -7    2.81    1.69
   0  -6  -6  133.44    7.88
   0  -6  -6  112.45    7.46
   0  -6  -6  107.98    7.28
   0  -6  -6  115.27    7.98
   0  -6  -5    5.24    1.94
   0  -6  -5    4.93    1.95
   0  -6  -5   10.19    2.83
   0  -6  -5    4.79    2.45
   0  -6  -5    7.73    2.26
   0  -6  -5    3.19    1.63
   0  -6  -4    1.18    1.56
   0  -6  -4    0.91    1.46
   0  -6  -4    0.45    1.95
   0  -6  -4    0.59    1.71
   0  -6  -4    1.57    1.65
   0  -6  -3   72.76    5.14
   0  -6  -3   73.23    4.64
   0  -6  -3   68.07    5.40
   0  -6  -3   75.88    5.08
   0  -6  -3   75.93    5.52
   0  -6  -3   77.50    5.14
   0  -6  -3   78.86    5.36
   0  -6  -3   67.70    4.76
   0  -6  -3   70.21    4.89
   0  -6  -2  628.49   30.84
   0  -6  -2  632.06   30.28
   0  -6  -2  637.13   30.68
   0  -6  -2  649.77   31.20
   0  -6  -2  678.92   30.89
   0  -6  -2  658.86   31.20
   0  -6  -2  630.28   30.65
   0  -6  -2  646.54   30.97
   0  -6  -2  639.71   30.54
   0  -6  -1  378.76   18.40
   0  -6  -1  351.64   17.74
   0  -6  -1  370.24   18.26
   0  -6  -1  384.31   18.68
   0  -6  -1  356.69   18.27
   0  -6  -1  350.44   17.97
   0  -6  -1  398.51   18.75
   0  -6  -1  392.10   18.55
   0  -6  -1  383.29   18.39
   0  -6  -1  368.62   18.16
   0  -6  -1  377.62   18.04
   0  -6   0  323.68   16.20
   0  -6   0  325.83   16.07
   0  -6   0  324.04   16.03
   0  -6   0  314.91   15.53
   0  -6   0  325.63   16.00
   0  -6   0  333.72   16.44
   0  -6   0  323.18   15.90
   0  -6   0  338.44   16.22
   0  -6   0  335.93   16.23
   0  -6   0  314.26   15.90
   0  -6   0  322.59   16.20
   0  -6   1    8.60    1.62
   0  -6   1    8.24    1.80
   0  -6   1    7.79    1.46
   0  -6   1    9.06    1.86
   0  -6   1    7.48    1.64
   0  -6   1    9.85    1.50
   0  -6   1    7.22    1.32
   0  -6   1    8.42    1.45
   0  -6   1    9.70    1.16
   0  -6   1   10.28    1.61
   0  -6   1    7.75    1.69
   0  -6   1    6.99    1.09
   0  -6   1    9.05    1.45
   0  -6   2  863.24   40.00
   0  -6   2  881.47   39.82
   0  -6   2  843.86   39.67
   0  -6   2  830.47   39.33
   0  -6   2  843.73   39.69
   0  -6   2  912.63   40.26
   0  -6   2  881.66   40.06
   0  -6   2  850.85   39.66
   0  -6   2  882.45   39.70
   0  -6   2  824.97   39.54
   0  -6   2  824.13   39.86
   0  -6   2  855.14   39.55
   0  -6   2  849.61   39.96
   0  -6   2  829.21   39.34
   0  -6   3   66.81    4.47
   0  -6   3   63.62    4.17
   0  -6   3   61.69    4.02
   0  -6   3   63.80    3.85
   0  -6   3   67.38    4.13
   0  -6   3   62.85    4.43
   0  -6   3   67.34    4.16
   0  -6   3   65.03    4.29
   0  -6   3   61.80    4.14
   0  -6   3   72.10    4.73
   0  -6   3   66.76    3.97
   0  -6   4    0.57    0.75
   0  -6   4    0.60    0.93
   0  -6   4    0.99    1.42
   0  -6   4    0.67    1.09
   0  -6   4    1.86    1.12
   0  -6   4    1.86    0.99
   0  -6   4    1.55    1.19
   0  -6   4    0.90    0.70
   0  -6   4    0.67    1.29
   0  -6   4    2.26    1.62
   0  -6   5   18.03    2.36
   0  -6   5   12.43    1.70
   0  -6   5   16.38    2.15
   0  -6   5   15.91    1.82
   0  -6   5   16.60    1.85
   0  -6   5   14.64    2.05
   0  -6   5   11.39    1.90
   0  -6   5   16.45    2.51
   0  -6   5   20.30    2.07
   0  -6   6    1.42    1.61
   0  -6   6   -0.59    1.03
   0  -6   6    0.58    1.35
   0  -6   6   -0.14    1.02
   0  -6   6    0.13    0.99
   0  -6   6    1.95    1.47
   0  -6   6    0.17    1.29
   0  -6   6    0.88    1.01
   0  -6   6    2.08    2.01
   0  -6   7   -0.61    1.76
   0  -6   7    0.33    1.09
   0  -6   7    0.57    1.01
   0  -6   7   -0.76    1.58
   0  -6   7    0.16    1.00
   0  -6   7   -0.19    1.48
   0  -6   7   -0.72    2.15
   0  -6   8  174.21   10.68
   0  -6   8  188.16   10.28
   0  -6   8  200.61   10.52
   0  -6   8  181.27    9.92
   0  -6   8  169.12   10.49
   0  -6   8  192.12   10.76
   0  -6   8  168.41   11.12
   0  -6   9   28.37    2.88
   0  -6   9   26.39    3.44
   0  -6   9   30.68    3.12
   0  -6   9   24.94    2.65
   0  -6   9   25.29    3.27
   0  -6   9   31.86    3.40
   0  -6   9   27.38    4.05
   0  -6  10    0.22    1.81
   0  -6  10   -0.44    1.67
   0  -6  10    2.12    1.57
   0  -6  10   -0.39    1.32
   0  -6  10    0.27    2.43
   0  -6  10    0.99    1.00
   0  -6  11    1.61    1.56
   0  -6  11    2.03    1.64
   0  -6  11    2.31    1.44
   0  -6  11    3.67    2.27
   0  -6  12   -0.24    1.05
   0  -6  12   -0.39    1.05
   0  -6  12    2.01    1.51
   0  -5  -9    2.56    1.47
   0  -5  -9    0.76    1.56
   0  -5  -9    4.37    1.61
   0  -5  -8    4.17    1.86
   0  -5  -8    3.71    2.15
   0  -5  -8    6.11    2.10
   0  -5  -7  225.84   11.81
   0  -5  -7  193.43   11.74
   0  -5  -7  190.01   11.14
   0  -5  -7  207.31   11.67
   0  -5  -6  379.67   21.30
   0  -5  -6  430.39   21.29
   0  -5  -6  446.00   21.37
   0  -5  -6  411.58   20.97
   0  -5  -6  405.92   21.18
   0  -5  -5   45.24    3.98
   0  -5  -5   50.92    4.16
   0  -5  -5   42.24    3.82
   0  -5  -5   41.95    4.19
   0  -5  -5   37.00    3.69
   0  -5  -5   40.89    4.22
   0  -5  -4    4.46    1.59
   0  -5  -4    3.87    1.62
   0  -5  -4    4.55    1.98
   0  -5  -4    7.54    2.14
   0  -5  -4    4.87    1.81
   0  -5  -4    4.75    1.60
   0  -5  -3 1534.75   69.58
   0  -5  -3 1511.40   69.23
   0  -5  -3 1515.85   69.52
   0  -5  -3 1534.91   69.87
   0  -5  -3 1576.59   69.57
   0  -5  -3 1461.75   69.62
   0  -5  -3 1420.31   69.14
   0  -5  -3 1491.65   69.48
   0  -5  -2 1377.34   61.04
   0  -5  -2 1310.22   60.94
   0  -5  -2 1305.67   60.58
   0  -5  -2 1365.21   61.22
   0  -5  -2 1221.63   60.51
   0  -5  -2 1355.54   61.22
   0  -5  -2 1339.14   60.92
   0  -5  -2 1326.96   60.88
   0  -5  -2 1301.60   60.80
   0  -5  -2 1325.66   60.79
   0  -5  -1  525.59   25.03
   0  -5  -1  527.76   24.83
   0  -5  -1  530.42   24.46
   0  -5  -1  544.54   24.80
   0  -5  -1  528.51   24.71
   0  -5  -1  486.63   24.69
   0  -5  -1  502.15   24.53
   0  -5  -1  532.87   25.05
   0  -5  -1  520.41   24.94
   0  -5  -1  524.25   24.60
   0  -5  -1  516.53   24.82
   0  -5   0   56.51    3.73
   0  -5   0   54.00    3.57
   0  -5   0   51.69    3.21
   0  -5   0   52.95    3.50
   0  -5   0   59.66    3.78
   0  -5   0   59.24    3.77
   0  -5   0   58.36    3.07
   0  -5   0   58.34    3.54
   0  -5   0   57.27    3.89
   0  -5   0   50.40    3.35
   0  -5   0   54.39    3.74
   0  -5   1 2426.33  109.65
   0  -5   1 2336.52  109.43
   0  -5   1 2335.27  109.47
   0  -5   1 2342.64  109.17
   0  -5   1 2357.15  109.44
   0  -5   1 2472.11  109.24
   0  -5   1 2454.14  109.54
   0  -5   1 2593.46  109.89
   0  -5   1 2331.12  109.42
   0  -5   1 2519.53  109.77
   0  -5   1 2367.07  109.07
   0  -5   2  276.29   13.04
   0  -5   2  247.78   12.75
   0  -5   2  249.83   12.50
   0  -5   2  258.30   12.73
   0  -5   2  281.09   13.08
   0  -5   2  270.15   12.80
   0  -5   2  265.09   12.93
   0  -5   2  285.19   13.25
   0  -5   2  258.43   12.96
   0  -5   2  249.24   12.74
   0  -5   2  248.89   12.51
   0  -5   3   32.83    2.77
   0  -5   3   30.60    2.46
   0  -5   3   32.60    2.35
   0  -5   3   33.36    2.46
   0  -5   3   38.83    2.87
   0  -5   3   36.20    3.05
   0  -5   3   30.51    2.60
   0  -5   3   37.54    2.85
   0  -5   3   33.90    2.52
   0  -5   3   39.50    2.77
   0  -5   3   30.48    2.33
   0  -5   4  451.71   21.41
   0  -5   4  443.35   21.12
   0  -5   4  432.99   20.98
   0  -5   4  425.77   20.93
   0  -5   4  442.81   21.04
   0  -5   4  467.34   21.29
   0  -5   4  455.80   21.66
   0  -5   4  431.39   21.19
   0  -5   4  442.42   21.28
   0  -5   4  438.83   21.36
   0  -5   4  430.23   21.08
   0  -5   5   88.04    5.61
   0  -5   5   94.81    5.32
   0  -5   5   86.52    5.19
   0  -5   5   81.48    5.01
   0  -5   5   89.21    5.16
   0  -5   5   82.95    5.25
   0  -5   5   85.75    5.85
   0  -5   5   91.14    5.49
   0  -5   5   88.35    5.25
   0  -5   6   12.93    2.35
   0  -5   6   11.65    1.67
   0  -5   6   14.48    1.90
   0  -5   6   11.49    1.63
   0  -5   6   15.59    1.83
   0  -5   6   17.62    2.22
   0  -5   6   11.70    2.58
   0  -5   6   11.70    1.90
   0  -5   7    2.34    1.81
   0  -5   7    1.98    1.15
   0  -5   7    2.83    1.31
   0  -5   7    1.68    1.18
   0  -5   7    1.65    1.57
   0  -5   7    3.47    2.23
   0  -5   7    1.38    1.13
   0  -5   8  249.17   12.17
   0  -5   8  211.91   12.56
   0  -5   8  236.54   12.36
   0  -5   8  217.91   11.76
   0  -5   8  221.56   12.45
   0  -5   8  186.51   12.80
   0  -5   9   41.36    3.49
   0  -5   9   35.63    4.01
   0  -5   9   39.73    3.73
   0  -5   9   40.76    3.29
   0  -5   9   29.49    4.49
   0  -5   9   36.12    3.81
   0  -5  10   22.10    3.15
   0  -5  10   22.29    2.81
   0  -5  10   25.15    2.57
   0  -5  10   19.33    2.85
   0  -5  10   14.35    3.60
   0  -5  11    5.60    1.95
   0  -5  11    7.69    1.72
   0  -5  11    4.11    1.99
   0  -5  11    5.51    1.71
   0  -5  11    4.42    2.62
   0  -5  12    6.27    2.14
   0  -5  12    6.41    1.55
   0  -5  12    7.94    1.76
   0  -4 -10   -0.14    1.22
   0  -4 -10   -1.49    1.39
   0  -4  -9    0.35    1.63
   0  -4  -9    1.12    1.61
   0  -4  -9    2.70    1.94
   0  -4  -8   42.07    3.96
   0  -4  -8   34.78    3.95
   0  -4  -8   36.43    3.99
   0  -4  -7    9.52    2.32
   0  -4  -7   11.57    2.78
   0  -4  -7   12.24    2.18
   0  -4  -7    6.57    2.34
   0  -4  -6   65.70    4.80
   0  -4  -6   62.89    4.83
   0  -4  -6   47.60    4.55
   0  -4  -6   60.62    4.49
   0  -4  -6   50.67    4.69
   0  -4  -6   60.94    4.93
   0  -4  -5    1.01    1.49
   0  -4  -5   -0.74    1.79
   0  -4  -5   -0.17    1.36
   0  -4  -5    0.39    1.64
   0  -4  -5    0.51    1.42
   0  -4  -5   -0.16    1.52
   0  -4  -5    1.97    1.74
   0  -4  -4   -0.29    1.28
   0  -4  -4    2.25    1.51
   0  -4  -4    1.11    1.65
   0  -4  -4    2.54    1.07
   0  -4  -4   -0.81    1.59
   0  -4  -4    0.55    1.19
   0  -4  -4    1.11    1.37
   0  -4  -4    1.31    1.41
   0  -4  -3  851.63   39.68
   0  -4  -3  862.36   39.62
   0  -4  -3  786.65   39.20
   0  -4  -3  873.22   39.46
   0  -4  -3  865.01   39.63
   0  -4  -3  896.85   39.61
   0  -4  -3  864.07   39.85
   0  -4  -3  836.90   39.68
   0  -4  -3  798.33   39.23
   0  -4  -3  868.49   39.63
   0  -4  -2 1255.21   57.68
   0  -4  -2 1224.46   57.61
   0  -4  -2 1255.21   57.43
   0  -4  -2 1257.00   57.61
   0  -4  -2 1311.37   57.90
   0  -4  -2 1213.43   57.35
   0  -4  -2 1247.66   57.41
   0  -4  -2 1251.11   57.59
   0  -4  -2 1262.04   57.83
   0  -4  -1 1286.52   56.44
   0  -4  -1 1306.30   56.19
   0  -4  -1 1298.35   56.39
   0  -4  -1 1338.03   56.64
   0  -4  -1 1255.77   56.22
   0  -4  -1 1159.60   55.63
   0  -4  -1 1283.04   56.24
   0  -4  -1 1300.33   56.58
   0  -4  -1 1184.17   55.62
   0  -4   0 1896.92   87.83
   0  -4   0 1870.49   88.01
   0  -4   0 1986.49   87.69
   0  -4   0 1979.44   88.02
   0  -4   0 1899.06   87.94
   0  -4   1   93.35    5.04
   0  -4   1   94.27    4.86
   0  -4   1   90.81    5.01
   0  -4   1   99.54    4.97
   0  -4   1   96.17    5.14
   0  -4   1   94.79    5.00
   0  -4   1   94.07    4.79
   0  -4   2  937.40   43.77
   0  -4   2  932.80   43.62
   0  -4   2  943.83   43.73
   0  -4   2  989.97   43.85
   0  -4   2  981.89   43.93
   0  -4   2  961.07   43.79
   0  -4   2  930.25   43.62
   0  -4   3 2368.61  104.99
   0  -4   3 2239.31  104.87
   0  -4   3 2288.20  104.91
   0  -4   3 2358.90  105.16
   0  -4   3 2299.86  105.09
   0  -4   3 2279.43  105.03
   0  -4   3 2313.19  104.94
   0  -4   4  708.90   32.89
   0  -4   4  739.70   33.21
   0  -4   4  701.75   32.86
   0  -4   4  695.72   32.80
   0  -4   4  708.88   33.05
   0  -4   4  724.36   33.03
   0  -4   4  680.88   33.12
   0  -4   4  659.37   33.10
   0  -4   4  715.84   33.40
   0  -4   4  719.27   32.92
   0  -4   5  328.76   16.12
   0  -4   5  298.11   15.53
   0  -4   5  313.50   16.27
   0  -4   5  334.46   15.70
   0  -4   5  304.35   15.68
   0  -4   5  338.24   16.02
   0  -4   5  332.66   15.84
   0  -4   5  331.51   15.77
   0  -4   6   13.49    2.28
   0  -4   6   13.55    1.78
   0  -4   6   10.01    1.78
   0  -4   6   19.58    1.95
   0  -4   6   16.44    2.18
   0  -4   6   12.67    2.54
   0  -4   6   19.94    2.01
   0  -4   7   40.69    3.94
   0  -4   7   39.25    3.22
   0  -4   7   42.68    3.40
   0  -4   7   42.52    4.34
   0  -4   7   48.16    3.88
   0  -4   7   45.15    3.45
   0  -4   8    6.98    2.30
   0  -4   8    4.76    1.48
   0  -4   8    6.02    1.54
   0  -4   8    4.51    1.40
   0  -4   8    6.51    2.08
   0  -4   8    4.39    2.87
   0  -4   9   43.33    4.68
   0  -4   9   58.60    4.66
   0  -4   9   51.18    4.02
   0  -4   9   54.86    4.71
   0  -4   9   57.86    4.25
   0  -4  10   75.09    4.84
   0  -4  10   71.01    5.24
   0  -4  10   58.58    4.37
   0  -4  10   66.93    5.20
   0  -4  11   58.71    4.35
   0  -4  11   50.24    4.16
   0  -4  12    0.15    1.30
   0  -4  12   -0.84    1.40
   0  -3 -10    0.17    1.40
   0  -3 -10    0.78    1.72
   0  -3  -9    5.31    1.94
   0  -3  -9    5.61    2.05
   0  -3  -9    7.90    2.27
   0  -3  -8    4.04    2.03
   0  -3  -8   -0.21    1.87
   0  -3  -8    5.97    2.49
   0  -3  -7    1.20    1.74
   0  -3  -7    0.40    1.70
   0  -3  -7    1.17    2.03
   0  -3  -7    1.63    1.38
   0  -3  -7   -0.92    1.89
   0  -3  -6   39.18    3.58
   0  -3  -6   34.94    3.75
   0  -3  -6   41.88    3.75
   0  -3  -6   38.57    3.85
   0  -3  -6   36.96    3.20
   0  -3  -6   43.96    3.98
   0  -3  -6   35.15    3.45
   0  -3  -5   79.55    5.38
   0  -3  -5   86.73    5.59
   0  -3  -5   88.03    5.77
   0  -3  -5   96.45    5.81
   0  -3  -5   82.66    5.44
   0  -3  -5   86.26    5.92
   0  -3  -5   95.17    5.87
   0  -3  -5   85.42    5.80
   0  -3  -4   85.11    4.91
   0  -3  -4   98.70    4.95
   0  -3  -4   86.11    5.08
   0  -3  -4   97.09    5.11
   0  -3  -4   83.33    5.12
   0  -3  -4   81.00    4.56
   0  -3  -4   78.87    5.03
   0  -3  -4   81.94    4.86
   0  -3  -4   89.65    5.10
   0  -3  -3    0.66    0.88
   0  -3  -3    1.95    1.26
   0  -3  -3    0.56    1.05
   0  -3  -3    1.07    1.41
   0  -3  -3    0.51    0.84
   0  -3  -3    0.54    1.23
   0  -3  -3    0.57    1.14
   0  -3  -3   -0.48    1.02
   0  -3  -3   -0.38    0.63
   0  -3  -3    0.59    1.23
   0  -3  -3    0.58    0.46
   0  -3  -2  748.78   32.26
   0  -3  -2  730.61   32.17
   0  -3  -2  732.80   32.19
   0  -3  -2  735.57   32.33
   0  -3  -2  657.02   31.62
   0  -3  -1 5156.92  233.80
   0  -3  -1 5054.42  233.91
   0  -3  -1 5068.12  233.44
   0  -3  -1 5312.89  233.83
   0  -3  -1 5071.91  233.80
   0  -3  -1 5277.02  233.44
   0  -3   0 1694.67   79.20
   0  -3   0 1655.84   79.31
   0  -3   0 1857.66   79.35
   0  -3   0 1668.70   79.26
   0  -3   0 1830.80   79.12
   0  -3   1 1598.46   75.54
   0  -3   1 1755.36   75.54
   0  -3   1 1743.11   75.64
   0  -3   1 1615.60   75.52
   0  -3   1 1619.70   75.39
   0  -3   2 1427.62   65.57
   0  -3   2 1414.44   65.48
   0  -3   2 1362.22   65.66
   0  -3   2 1454.23   65.60
   0  -3   2 1568.46   65.73
   0  -3   2 1425.26   65.51
   0  -3   3 1093.68   51.09
   0  -3   3 1144.36   51.22
   0  -3   3 1101.09   51.25
   0  -3   3 1136.73   51.36
   0  -3   3 1129.51   51.15
   0  -3   3 1097.46   51.12
   0  -3   4   14.75    1.52
   0  -3   4   15.88    1.72
   0  -3   4   18.14    1.60
   0  -3   5  489.61   24.45
   0  -3   5  530.56   24.11
   0  -3   5  475.54   24.34
   0  -3   5  473.94   24.34
   0  -3   5  499.91   24.31
   0  -3   5  542.07   24.17
   0  -3   5  535.96   24.21
   0  -3   6   82.50    5.58
   0  -3   6   83.02    5.16
   0  -3   6   93.21    5.26
   0  -3   6   74.29    4.98
   0  -3   6   87.10    5.45
   0  -3   6   99.30    5.36
   0  -3   6   86.49    5.21
   0  -3   7   14.51    2.45
   0  -3   7   15.04    2.01
   0  -3   7   19.02    2.10
   0  -3   7   13.11    2.00
   0  -3   7   16.76    2.28
   0  -3   8   76.80    5.81
   0  -3   8   63.85    4.88
   0  -3   8   85.03    5.30
   0  -3   8   80.59    5.25
   0  -3   8   85.67    5.76
   0  -3   9  235.36   13.52
   0  -3   9  211.33   12.45
   0  -3   9  250.13   12.87
   0  -3   9  248.68   13.42
   0  -3   9  268.82   13.12
   0  -3  10   20.97    2.41
   0  -3  10   22.76    2.53
   0  -3  10   17.91    2.74
   0  -3  11    0.84    1.74
   0  -3  11    0.85    1.38
   0  -3  11    3.00    1.65
   0  -3  12   -0.15    1.38
   0  -2 -11    6.80    1.71
   0  -2 -11    8.86    2.03
   0  -2 -10    1.14    1.52
   0  -2 -10    2.26    2.01
   0  -2  -9    0.43    1.59
   0  -2  -9    1.06    1.59
   0  -2  -9    2.28    2.15
   0  -2  -8   16.93    2.23
   0  -2  -8   21.36    2.87
   0  -2  -8   13.95    2.82
   0  -2  -8   10.13    2.43
   0  -2  -8   18.98    3.18
   0  -2  -7   23.17    2.53
   0  -2  -7   29.58    3.00
   0  -2  -7   22.90    3.07
   0  -2  -7   19.31    2.85
   0  -2  -7   20.44    3.26
   0  -2  -7   28.38    3.27
   0  -2  -6   61.68    5.22
   0  -2  -6   72.16    4.85
   0  -2  -6   72.20    4.97
   0  -2  -6   67.48    4.45
   0  -2  -6   57.90    4.90
   0  -2  -6   68.59    4.42
   0  -2  -6   83.18    5.39
   0  -2  -6   65.47    4.74
   0  -2  -5  705.26   32.88
   0  -2  -5  748.85   33.25
   0  -2  -5  742.71   33.69
   0  -2  -5  751.26   33.39
   0  -2  -5  599.67   32.77
   0  -2  -5  721.81   32.93
   0  -2  -5  690.63   33.16
   0  -2  -5  744.33   33.44
   0  -2  -5  658.60   33.25
   0  -2  -4    5.20    1.29
   0  -2  -4    6.85    1.47
   0  -2  -4    8.47    1.05
   0  -2  -4    6.68    1.28
   0  -2  -4    7.09    1.66
   0  -2  -4    9.46    1.78
   0  -2  -4    6.04    1.34
   0  -2  -4    8.02    1.72
   0  -2  -4    8.61    1.14
   0  -2  -4    4.75    1.47
   0  -2  -3  192.67    9.16
   0  -2  -3  179.42    9.02
   0  -2  -3  194.19    9.06
   0  -2  -3  173.01    8.74
   0  -2  -2 6703.46  306.16
   0  -2  -2 6510.90  306.17
   0  -2  -2 6930.29  305.83
   0  -2  -2 6735.11  306.09
   0  -2  -1 6443.15  291.44
   0  -2   0  542.25   24.13
   0  -2   0  546.16   24.26
   0  -2   0  507.37   24.22
   0  -2   0  522.44   24.08
   0  -2   1 3132.54  142.09
   0  -2   1 3142.29  142.09
   0  -2   2    2.30    0.74
   0  -2   2    2.54    1.03
   0  -2   2    1.77    0.61
   0  -2   3  643.09   31.01
   0  -2   3  707.92   31.14
   0  -2   3  668.13   30.91
   0  -2   4  422.35   19.39
   0  -2   4  404.98   19.28
   0  -2   4  404.56   19.54
   0  -2   4  408.62   19.43
   0  -2   4  395.20   19.53
   0  -2   4  417.17   19.33
   0  -2   5  387.96   17.28
   0  -2   5  339.14   17.43
   0  -2   5  351.72   17.14
   0  -2   5  315.06   17.30
   0  -2   5  333.46   17.35
   0  -2   5  354.84   17.31
   0  -2   5  381.32   17.32
   0  -2   5  383.52   17.25
   0  -2   6   52.82    4.27
   0  -2   6   53.88    3.91
   0  -2   6   59.33    3.96
   0  -2   6   61.32    4.15
   0  -2   6   67.23    4.13
   0  -2   6   67.20    4.06
   0  -2   6   59.93    3.93
   0  -2   7   67.11    5.37
   0  -2   7   70.64    4.90
   0  -2   7   77.26    4.93
   0  -2   7   78.44    5.25
   0  -2   7   85.05    5.04
   0  -2   8    4.80    2.17
   0  -2   8    6.08    1.70
   0  -2   8    5.54    1.46
   0  -2   8    4.76    1.53
   0  -2   8    5.01    1.84
   0  -2   9    0.47    2.00
   0  -2   9    1.01    1.42
   0  -2   9   -0.54    1.14
   0  -2   9   -0.70    1.42
   0  -2   9    1.09    1.72
   0  -2  10   37.59    4.27
   0  -2  10   43.00    3.71
   0  -2  10   47.22    4.23
   0  -2  10   53.39    3.97
   0  -2  11    0.42    1.80
   0  -2  11    0.65    1.33
   0  -2  11   -0.40    1.53
   0  -2  11    1.29    2.30
   0  -2  12    3.90    1.53
   0  -2  12    9.17    2.34
   0  -1 -11    4.59    1.71
   0  -1 -11    1.95    1.78
   0  -1 -10    6.14    1.99
   0  -1 -10    4.65    1.62
   0  -1 -10    8.27    2.57
   0  -1  -9   -0.86    1.65
   0  -1  -9   -1.73    1.56
   0  -1  -9   -0.26    2.09
   0  -1  -8   -0.40    1.62
   0  -1  -8    0.83    1.61
   0  -1  -8    0.19    1.31
   0  -1  -8    1.99    2.12
   0  -1  -8   -2.14    2.01
   0  -1  -7    0.23    1.96
   0  -1  -7    2.03    1.50
   0  -1  -7    3.46    1.60
   0  -1  -7    3.08    1.43
   0  -1  -7    1.73    2.01
   0  -1  -7    2.02    1.86
   0  -1  -6   34.32    3.63
   0  -1  -6   37.48    3.16
   0  -1  -6   33.36    3.05
   0  -1  -6   39.52    3.75
   0  -1  -6   34.40    3.15
   0  -1  -6   40.66    3.54
   0  -1  -6   37.83    2.77
   0  -1  -5    0.61    1.19
   0  -1  -5    1.09    1.16
   0  -1  -5    1.59    1.62
   0  -1  -5   -0.14    1.65
   0  -1  -5    0.44    0.96
   0  -1  -5    0.11    1.04
   0  -1  -5   -0.21    1.34
   0  -1  -5   -0.10    0.95
   0  -1  -5    1.67    1.48
   0  -1  -5    0.64    0.57
   0  -1  -4  131.42    6.91
   0  -1  -4  142.63    6.56
   0  -1  -4  125.39    6.98
   0  -1  -4  120.79    6.65
   0  -1  -4  132.61    7.09
   0  -1  -4  124.79    6.81
   0  -1  -3  638.26   28.30
   0  -1  -3  625.80   28.60
   0  -1  -3  595.66   28.50
   0  -1  -3  582.46   28.39
   0  -1  -3  622.80   28.32
   0  -1  -3  627.65   28.51
   0  -1  -2 2357.00  108.52
   0  -1  -2 2451.96  108.48
   0  -1  -2 2515.83  108.38
   0  -1  -2 2323.59  108.31
   0  -1  -2 2322.63  108.44
   0  -1  -1 1576.30   70.92
   0  -1  -1 1508.07   70.91
   0  -1  -1 1590.20   70.80
   0  -1   0    7.00    0.55
   0  -1   0    2.69    0.37
   0  -1   1  658.89   29.99
   0  -1   2  191.69    8.90
   0  -1   2  193.16    8.94
   0  -1   2  176.39    8.73
   0  -1   3  239.35   10.65
   0  -1   3  210.06   10.74
   0  -1   3  212.04   10.71
   0  -1   3  222.43   10.58
   0  -1   4  702.76   31.22
   0  -1   4  656.41   31.16
   0  -1   4  638.26   31.29
   0  -1   4  649.92   31.30
   0  -1   4  695.99   31.26
   0  -1   4  690.15   31.20
   0  -1   5   44.53    2.89
   0  -1   5   43.03    2.91
   0  -1   5   39.39    3.05
   0  -1   5   35.85    3.03
   0  -1   5   48.54    3.04
   0  -1   5   44.07    2.95
   0  -1   6    1.67    1.13
   0  -1   6    2.11    1.06
   0  -1   6    1.41    1.00
   0  -1   6    0.91    1.18
   0  -1   6    2.37    0.88
   0  -1   6    0.39    1.18
   0  -1   6    2.54    0.88
   0  -1   6    1.64    1.19
   0  -1   7    0.14    1.34
   0  -1   7    0.69    1.03
   0  -1   7    0.68    1.08
   0  -1   7    0.79    1.32
   0  -1   8    5.55    1.76
   0  -1   8    8.89    1.62
   0  -1   8    7.45    1.68
   0  -1   8    5.71    1.72
   0  -1   9   46.18    4.69
   0  -1   9   51.65    4.35
   0  -1   9   56.09    4.38
   0  -1   9   64.94    4.56
   0  -1   9   63.78    4.92
   0  -1  10   52.50    5.18
   0  -1  10   46.86    4.28
   0  -1  10   71.47    4.78
   0  -1  10   67.33    5.13
   0  -1  10   75.02    4.87
   0  -1  11    7.24    2.25
   0  -1  11    8.16    1.98
   0  -1  12    2.99    1.40
   0  -1  12   -0.18    1.76
   0   0 -12   -0.37    1.16
   0   0 -12    0.15    1.35
   0   0 -11   49.31    4.01
   0   0 -11   39.65    3.56
   0   0 -11   42.77    4.14
   0   0 -10   14.71    2.68
   0   0 -10   12.50    2.39
   0   0 -10   19.08    3.11
   0   0  -9    2.78    1.89
   0   0  -9   -0.57    2.37
   0   0  -9    1.71    1.67
   0   0  -9   -0.47    1.18
   0   0  -9    3.55    2.47
   0   0  -8   50.24    4.19
   0   0  -8   47.64    4.19
   0   0  -8   42.58    4.81
   0   0  -8   47.74    3.75
   0   0  -7   75.83    5.13
   0   0  -7   81.74    5.24
   0   0  -7   68.05    5.55
   0   0  -7   59.10    4.53
   0   0  -7   80.24    4.86
   0   0  -7   70.53    5.80
   0   0  -6    1.17    0.79
   0   0  -6    0.76    1.27
   0   0  -6    5.54    1.23
   0   0  -6    1.19    1.37
   0   0  -6    1.51    1.32
   0   0  -6    1.12    1.13
   0   0  -6    1.91    1.79
   0   0  -6    1.98    1.97
   0   0  -6    0.94    0.75
   0   0  -6    0.94    0.78
   0   0  -5   37.34    2.46
   0   0  -5   35.32    2.85
   0   0  -5   42.88    2.65
   0   0  -5   33.69    2.78
   0   0  -5   32.51    3.29
   0   0  -5   39.84    2.78
   0   0  -5   39.36    2.98
   0   0  -5   40.54    2.68
   0   0  -5   37.69    2.48
   0   0  -5   37.37    3.44
   0   0  -5   39.00    2.35
   0   0  -4 1762.18   75.99
   0   0  -4 1627.20   76.14
   0   0  -4 1528.68   76.10
   0   0  -4 1714.45   76.03
   0   0  -4 1671.95   75.77
   0   0  -3  517.15   22.89
   0   0  -3  493.78   23.03
   0   0  -3  492.05   23.02
   0   0  -3  503.24   22.91
   0   0  -3  476.65   22.74
   0   0  -2  508.59   24.02
   0   0  -2  542.86   24.16
   0   0  -2  562.67   24.16
   0   0  -2  501.29   24.05
   0   0  -1 2212.90   99.90
   0   0  -1 2201.70   99.90
   0   0   1 2191.42   95.86
   0   0   1 2046.60   95.86
   0   0   2  515.45   24.18
   0   0   2  527.43   23.91
   0   0   2  542.02   24.27
   0   0   2  517.99   24.27
   0   0   2  514.69   24.23
   0   0   2  532.68   23.91
   0   0   3  507.09   22.78
   0   0   3  476.13   22.87
   0   0   3  474.18   22.85
   0   0   3  511.21   22.86
   0   0   3  491.30   22.82
   0   0   4 1741.56   76.67
   0   0   4 1532.18   76.70
   0   0   4 1650.20   76.81
   0   0   4 1791.59   76.80
   0   0   4 1695.94   76.73
   0   0   5   43.57    2.67
   0   0   5   31.78    2.75
   0   0   5   31.30    2.72
   0   0   5   45.91    2.88
   0   0   5   41.70    2.80
   0   0   6    0.80    0.98
   0   0   6    1.70    1.02
   0   0   6    0.11    1.14
   0   0   6    1.05    0.99
   0   0   6    0.82    0.66
   0   0   6    1.22    0.85
   0   0   7   71.81    5.11
   0   0   7   82.38    5.21
   0   0   7   86.07    5.21
   0   0   8   42.53    3.94
   0   0   8   52.68    4.27
   0   0   8   49.70    4.04
   0   0   8   59.11    4.14
   0   0   9   -1.69    1.52
   0   0   9   -0.37    1.21
   0   0   9    0.56    1.31
   0   0   9    2.82    1.82
   0   0  10   12.92    2.93
   0   0  10   17.27    2.51
   0   0  10   20.70    2.45
   0   0  10   21.01    2.51
   0   0  10   19.52    2.69
   0   0  11   37.87    4.05
   0   0  11   56.57    4.19
   0   0  12   -0.16    1.68
   0   1 -12   -0.13    1.05
   0   1 -12   -0.14    1.29
   0   1 -11    7.68    2.19
   0   1 -11    6.59    1.97
   0   1 -10   61.09    5.08
   0   1 -10   61.26    5.09
   0   1  -9   61.87    4.95
   0   1  -9   55.62    4.81
   0   1  -9   56.03    4.36
   0   1  -8    5.35    1.20
   0   1  -8    5.04    1.81
   0   1  -8    3.89    1.86
   0   1  -8    4.51    2.48
   0   1  -8    4.86    2.21
   0   1  -8    5.48    1.73
   0   1  -7   -0.27    0.66
   0   1  -7    0.75    0.79
   0   1  -7   -0.69    1.45
   0   1  -7   -0.89    2.05
   0   1  -7    0.15    1.40
   0   1  -7    0.29    1.23
   0   1  -7    1.47    1.69
   0   1  -7    0.43    0.83
   0   1  -7   -0.82    1.07
   0   1  -6    1.73    0.73
   0   1  -6    1.97    1.33
   0   1  -6    3.69    0.98
   0   1  -6    1.47    1.13
   0   1  -6    2.25    1.37
   0   1  -6    0.94    1.22
   0   1  -6    1.45    1.88
   0   1  -6    1.57    1.18
   0   1  -6    1.68    0.99
   0   1  -6    2.79    1.63
   0   1  -6    2.62    1.01
   0   1  -5   44.00    2.80
   0   1  -5   45.40    3.77
   0   1  -5   44.02    2.84
   0   1  -5   37.44    2.96
   0   1  -5   38.25    3.06
   0   1  -5   39.27    3.13
   0   1  -5   38.31    2.96
   0   1  -5   38.52    3.39
   0   1  -5   45.88    2.97
   0   1  -5   43.64    2.82
   0   1  -5   42.63    3.30
   0   1  -5   42.43    2.67
   0   1  -4  682.45   31.29
   0   1  -4  662.27   31.49
   0   1  -4  682.96   31.34
   0   1  -4  672.17   31.15
   0   1  -3  228.75   10.73
   0   1  -3  196.43   10.83
   0   1  -3  221.32   10.75
   0   1  -3  225.73   10.25
   0   1  -3  217.48   10.61
   0   1  -3  228.83   10.25
   0   1  -2  176.58    8.13
   0   1  -2  176.74    8.13
   0   1  -1  632.12   30.64
   0   1  -1  688.34   30.58
   0   1  -1  687.77   30.58
   0   1   0    3.21    0.35
   0   1   0    3.84    0.31
   0   1   1 1535.60   68.78
   0   1   1 1501.26   68.78
   0   1   1 1515.45   68.66
   0   1   2 2404.21  107.22
   0   1   2 2389.47  107.33
   0   1   2 2293.61  107.32
   0   1   3  620.40   28.40
   0   1   3  630.05   28.19
   0   1   3  634.43   28.19
   0   1   3  561.87   28.55
   0   1   3  620.22   28.16
   0   1   3  625.69   28.16
   0   1   3  645.02   28.61
   0   1   3  568.47   28.43
   0   1   4  134.13    6.63
   0   1   4  136.70    6.13
   0   1   4  129.30    6.12
   0   1   4  116.89    6.63
   0   1   4  119.91    6.79
   0   1   4  147.00    6.92
   0   1   4  131.16    6.12
   0   1   4  133.28    6.12
   0   1   5    0.10    0.90
   0   1   5    0.75    0.52
   0   1   5    0.73    0.89
   0   1   5    0.89    0.96
   0   1   5    0.10    0.70
   0   1   5    0.62    0.74
   0   1   6   29.84    2.89
   0   1   6   39.23    2.57
   0   1   6   39.39    2.99
   0   1   6   38.40    2.67
   0   1   7    2.60    1.25
   0   1   7    4.73    1.44
   0   1   8    1.30    1.53
   0   1   8    0.89    1.16
   0   1   8   -1.61    1.35
   0   1   9    0.39    1.65
   0   1   9   -0.57    1.29
   0   1   9   -0.76    1.32
   0   1   9   -0.43    1.48
   0   1  10    6.13    2.30
   0   1  10    9.07    1.99
   0   1  10    5.86    1.64
   0   1  10    6.88    1.88
   0   1  11    2.89    1.72
   0   1  11    4.54    1.46
   0   2 -12    8.78    1.79
   0   2 -12    4.82    1.51
   0   2 -12    5.30    1.86
   0   2 -11    1.39    1.78
   0   2 -11    0.42    1.57
   0   2 -11   -1.36    1.88
   0   2 -10   41.72    4.14
   0   2 -10   42.91    4.20
   0   2 -10   39.18    3.73
   0   2 -10   33.71    4.82
   0   2 -10   36.08    4.30
   0   2  -9    0.14    0.94
   0   2  -9   -0.43    1.84
   0   2  -9    0.30    2.70
   0   2  -9    0.24    1.64
   0   2  -9   -0.41    1.60
   0   2  -9   -1.22    2.12
   0   2  -9    1.71    1.18
   0   2  -8    7.25    1.29
   0   2  -8    6.80    1.40
   0   2  -8    5.05    1.91
   0   2  -8    5.24    2.03
   0   2  -8    5.75    1.82
   0   2  -8    4.51    1.40
   0   2  -8    2.38    1.96
   0   2  -7   78.58    4.86
   0   2  -7   71.76    5.17
   0   2  -7   79.99    5.27
   0   2  -7   77.89    5.41
   0   2  -7   83.09    5.18
   0   2  -7   81.58    4.93
   0   2  -7   63.35    5.26
   0   2  -7   79.24    4.70
   0   2  -6   62.51    3.89
   0   2  -6   65.64    4.22
   0   2  -6   57.83    4.13
   0   2  -6   59.26    4.02
   0   2  -6   56.61    3.84
   0   2  -6   54.47    4.29
   0   2  -6   54.71    4.42
   0   2  -6   60.26    3.76
   0   2  -5  352.80   16.97
   0   2  -5  364.74   17.07
   0   2  -5  346.68   17.12
   0   2  -5  328.02   17.24
   0   2  -5  348.13   17.42
   0   2  -5  332.08   17.29
   0   2  -5  370.47   17.16
   0   2  -5  380.46   17.30
   0   2  -5  349.09   16.99
   0   2  -5  346.98   17.30
   0   2  -5  351.02   17.71
   0   2  -5  358.97   16.88
   0   2  -4  404.40   19.28
   0   2  -4  414.72   19.33
   0   2  -4  405.08   18.71
   0   2  -4  406.17   19.54
   0   2  -4  396.52   19.28
   0   2  -4  416.54   18.72
   0   2  -4  408.09   19.22
   0   2  -3  683.66   31.20
   0   2  -3  676.83   30.88
   0   2  -3  673.41   30.88
   0   2  -2    1.83    0.75
   0   2  -2    2.22    0.51
   0   2  -2    2.19    0.52
   0   2  -2    2.80    1.02
   0   2  -1 3043.29  137.91
   0   2  -1 3025.46  137.91
   0   2  -1 3065.05  137.89
   0   2   0  519.08   23.74
   0   2   0  553.22   23.75
   0   2   0  498.39   23.68
   0   2   0  513.79   23.74
   0   2   0  511.18   23.54
   0   2   1 6733.80  304.56
   0   2   2 6702.62  303.29
   0   2   3  187.05    8.74
   0   2   3  192.64    8.78
   0   2   3  192.80    8.78
   0   2   3  191.75    8.73
   0   2   3  187.12    8.73
   0   2   3  160.63    8.69
   0   2   3  175.00    9.02
   0   2   3  179.09    8.89
   0   2   3  193.99    9.11
   0   2   4   10.10    0.75
   0   2   4    8.17    0.87
   0   2   4    3.28    1.18
   0   2   4    5.55    0.93
   0   2   4   10.32    0.75
   0   2   4    8.83    0.74
   0   2   4    6.67    0.88
   0   2   4    8.67    0.74
   0   2   4   10.18    1.21
   0   2   4    6.91    1.25
   0   2   5  782.53   33.02
   0   2   5  641.66   33.11
   0   2   5  627.85   33.26
   0   2   5  815.70   33.66
   0   2   6   52.93    4.31
   0   2   6   61.16    4.08
   0   2   6   67.87    4.09
   0   2   6   77.63    4.59
   0   2   7   19.20    2.66
   0   2   7   27.44    2.36
   0   2   8   22.68    2.61
   0   2   8   18.56    2.55
   0   2   9    0.20    1.57
   0   2   9    1.14    1.25
   0   2   9    1.16    1.41
   0   2   9    1.08    1.49
   0   2  10    1.20    1.47
   0   2  10    2.37    1.30
   0   2  10    2.92    1.58
   0   2  11    6.28    1.72
   0   3 -12    1.00    1.33
   0   3 -12    1.72    1.58
   0   3 -11    0.40    1.62
   0   3 -11   -0.22    1.69
   0   3 -11    1.87    1.56
   0   3 -11    0.45    2.11
   0   3 -10   16.42    2.84
   0   3 -10   15.29    2.57
   0   3 -10   22.46    3.15
   0   3 -10   14.12    3.13
   0   3  -9  259.03   12.84
   0   3  -9  233.74   13.33
   0   3  -9  261.81   13.51
   0   3  -9  236.86   12.72
   0   3  -9  216.15   13.37
   0   3  -9  219.76   14.04
   0   3  -9  241.42   12.43
   0   3  -8   75.56    5.11
   0   3  -8   69.63    5.46
   0   3  -8   61.59    6.04
   0   3  -8   87.17    5.74
   0   3  -8   92.16    5.68
   0   3  -8   73.82    5.10
   0   3  -8   68.94    5.65
   0   3  -8   78.93    4.96
   0   3  -7   14.69    1.78
   0   3  -7   14.81    1.95
   0   3  -7   10.41    2.98
   0   3  -7   13.42    2.30
   0   3  -7   12.24    2.21
   0   3  -7   13.42    2.19
   0   3  -7   15.12    2.03
   0   3  -7   13.91    1.98
   0   3  -7   13.65    2.34
   0   3  -6   90.63    5.32
   0   3  -6   82.09    5.48
   0   3  -6   90.11    5.57
   0   3  -6   88.21    5.70
   0   3  -6   82.55    4.84
   0   3  -6   98.03    5.50
   0   3  -6   88.19    6.18
   0   3  -6   85.90    5.31
   0   3  -6   87.33    5.60
   0   3  -6   85.72    5.15
   0   3  -5  500.90   24.56
   0   3  -5  536.79   24.78
   0   3  -5  522.70   23.81
   0   3  -5  539.05   24.88
   0   3  -5  488.01   24.84
   0   3  -5  530.97   25.19
   0   3  -5  513.62   24.30
   0   3  -5  509.43   24.61
   0   3  -5  518.35   23.81
   0   3  -5  502.97   24.75
   0   3  -5  534.81   24.53
   0   3  -4   14.89    1.61
   0   3  -4   16.58    1.58
   0   3  -4   16.04    1.69
   0   3  -4   16.67    1.17
   0   3  -4   14.09    1.64
   0   3  -4   15.63    1.52
   0   3  -4   16.10    1.18
   0   3  -3 1114.34   50.56
   0   3  -3 1122.58   50.84
   0   3  -3 1122.04   50.56
   0   3  -3 1133.30   51.04
   0   3  -3 1089.62   50.53
   0   3  -3 1135.19   50.86
   0   3  -3 1048.75   50.80
   0   3  -2 1438.62   66.15
   0   3  -2 1473.89   66.09
   0   3  -2 1535.72   66.31
   0   3  -2 1413.18   66.14
   0   3  -2 1452.46   66.08
   0   3  -2 1425.90   66.06
   0   3  -2 1437.03   66.22
   0   3  -1 1629.68   73.73
   0   3  -1 1596.35   73.59
   0   3  -1 1641.04   73.73
   0   3  -1 1608.29   73.73
   0   3  -1 1602.94   73.70
   0   3  -1 1723.66   73.71
   0   3  -1 1608.60   73.72
   0   3  -1 1571.43   73.57
   0   3   0 1668.75   75.77
   0   3   0 1706.46   76.09
   0   3   0 1662.22   76.00
   0   3   0 1702.35   76.08
   0   3   0 1630.92   75.97
   0   3   1 4937.46  229.20
   0   3   1 4951.71  229.21
   0   3   1 5271.43  229.20
   0   3   1 5067.56  229.17
   0   3   1 5095.56  229.28
   0   3   1 5047.48  229.02
   0   3   2  720.52   33.02
   0   3   2  737.19   33.50
   0   3   2  742.57   33.50
   0   3   2  712.11   33.50
   0   3   2  739.52   33.54
   0   3   2  717.82   33.57
   0   3   2  710.62   33.21
   0   3   2  735.98   33.02
   0   3   3    0.06    0.49
   0   3   3    1.09    0.84
   0   3   3    0.63    0.51
   0   3   3    0.52    0.32
   0   3   3    0.07    0.65
   0   3   3    0.23    0.64
   0   3   4   98.66    4.92
   0   3   4  104.93    4.95
   0   3   4   76.16    5.14
   0   3   4   77.33    5.41
   0   3   4   97.21    4.88
   0   3   4   95.97    4.86
   0   3   4   92.46    5.11
   0   3   4   96.78    5.39
   0   3   4   97.33    4.72
   0   3   5   70.79    4.53
   0   3   6   37.72    3.23
   0   3   6   41.47    3.13
   0   3   7    0.36    1.18
   0   3   7    0.71    1.65
   0   3   7    1.46    1.06
   0   3   8    5.66    1.65
   0   3   8    2.97    1.63
   0   3   9    6.56    2.03
   0   3   9    8.51    1.72
   0   3   9    3.79    1.63
   0   3  10    1.10    1.37
   0   3  10   -0.15    1.15
   0   3  10    1.22    1.33
   0   4 -12   -1.32    1.61
   0   4 -11   44.54    3.97
   0   4 -11   38.81    4.03
   0   4 -10   63.79    4.57
   0   4 -10   64.15    5.16
   0   4 -10   47.09    5.48
   0   4 -10   69.61    5.27
   0   4 -10   60.56    5.12
   0   4 -10   65.77    4.64
   0   4 -10   54.00    5.10
   0   4  -9   53.70    4.14
   0   4  -9   44.76    4.44
   0   4  -9   34.74    4.79
   0   4  -9   51.82    4.59
   0   4  -9   55.84    4.27
   0   4  -9   46.71    4.53
   0   4  -9   45.99    4.60
   0   4  -9   51.31    3.88
   0   4  -8    7.33    1.55
   0   4  -8    5.66    1.63
   0   4  -8    3.77    1.90
   0   4  -8    4.83    1.90
   0   4  -8    6.11    2.08
   0   4  -8    2.34    2.39
   0   4  -8    7.37    1.76
   0   4  -8    5.68    1.60
   0   4  -8    3.13    2.01
   0   4  -7   52.26    3.82
   0   4  -7   41.45    3.89
   0   4  -7   45.37    3.87
   0   4  -7   43.54    3.16
   0   4  -7   38.23    4.31
   0   4  -7   44.91    3.67
   0   4  -7   39.25    3.80
   0   4  -7   50.87    3.61
   0   4  -6   19.56    2.05
   0   4  -6   17.39    2.77
   0   4  -6   20.26    2.17
   0   4  -6   16.57    2.29
   0   4  -6   15.75    2.25
   0   4  -6   16.76    2.31
   0   4  -6   16.99    1.82
   0   4  -6   19.39    2.16
   0   4  -6   19.67    2.19
   0   4  -6   16.52    2.29
   0   4  -5  318.57   15.87
   0   4  -5  315.35   15.94
   0   4  -5  321.88   15.18
   0   4  -5  328.17   16.06
   0   4  -5  307.35   15.91
   0   4  -5  327.98   16.27
   0   4  -5  307.56   15.60
   0   4  -5  341.80   15.96
   0   4  -5  329.90   15.93
   0   4  -5  323.26   15.90
   0   4  -5  318.21   15.18
   0   4  -5  328.07   15.81
   0   4  -4  701.68   32.85
   0   4  -4  725.88   33.29
   0   4  -4  727.27   33.28
   0   4  -4  691.17   33.47
   0   4  -4  713.27   33.38
   0   4  -4  696.34   32.82
   0   4  -4  717.35   33.19
   0   4  -4  739.99   33.30
   0   4  -4  708.76   32.85
   0   4  -3 2314.14  105.91
   0   4  -3 2358.69  105.65
   0   4  -3 2339.48  105.81
   0   4  -3 2354.27  105.65
   0   4  -3 2323.75  105.63
   0   4  -3 2312.90  105.81
   0   4  -3 2345.90  105.89
   0   4  -3 2339.31  106.01
   0   4  -3 2342.47  105.95
   0   4  -3 2174.62  105.87
   0   4  -2  948.74   44.26
   0   4  -2  956.88   44.10
   0   4  -2  969.74   44.16
   0   4  -2  997.68   44.22
   0   4  -2  992.43   44.28
   0   4  -2  958.89   44.16
   0   4  -2  931.71   44.07
   0   4  -2  960.42   44.16
   0   4  -2  952.31   44.28
   0   4  -2  944.14   44.25
   0   4  -1   96.97    4.86
   0   4  -1  105.43    5.37
   0   4  -1   92.57    5.04
   0   4  -1   94.73    5.12
   0   4  -1   94.72    4.82
   0   4  -1   92.71    5.07
   0   4   0 1924.08   86.32
   0   4   0 1876.96   85.85
   0   4   0 1899.18   86.30
   0   4   0 1881.73   86.21
   0   4   0 1898.45   86.16
   0   4   1 1229.56   55.87
   0   4   1 1310.87   56.59
   0   4   1 1170.98   55.85
   0   4   1 1287.66   56.51
   0   4   1 1294.26   56.49
   0   4   1 1253.49   56.63
   0   4   1 1253.59   56.30
   0   4   1 1282.85   56.57
   0   4   2 1228.82   56.59
   0   4   2 1205.34   56.52
   0   4   2 1279.16   56.61
   0   4   2 1249.13   56.69
   0   4   2 1232.86   56.51
   0   4   2 1235.18   56.59
   0   4   2 1213.18   56.19
   0   4   3  822.04   38.15
   0   4   3  817.37   38.76
   0   4   3  786.28   38.19
   0   4   3  860.01   38.36
   0   4   3  832.49   38.31
   0   4   3  830.68   38.16
   0   4   3  819.00   38.25
   0   4   4   -0.14    1.40
   0   4   4    1.37    0.87
   0   4   4    1.04    0.81
   0   4   5    0.90    1.46
   0   4   5    0.78    0.80
   0   4   5    0.61    1.12
   0   4   6   47.71    3.96
   0   4   6   47.43    4.05
   0   4   7   15.57    2.21
   0   4   7   12.49    2.07
   0   4   7    8.76    2.21
   0   4   7   11.98    1.90
   0   4   8   40.03    3.90
   0   4   8   52.41    4.07
   0   4   9    0.37    1.59
   0   4   9   -0.53    1.25
   0   4  10    0.67    1.19
   0   5 -12    9.52    1.82
   0   5 -12    6.40    1.73
   0   5 -11    7.20    1.52
   0   5 -11    4.71    1.86
   0   5 -11    8.08    2.00
   0   5 -11    7.59    1.60
   0   5 -11    6.18    2.02
   0   5 -10   23.37    2.48
   0   5 -10   17.94    2.52
   0   5 -10   19.28    2.90
   0   5 -10   20.84    3.06
   0   5 -10   22.80    2.70
   0   5 -10   16.90    2.97
   0   5  -9   39.59    3.57
   0   5  -9   36.90    3.85
   0   5  -9   37.12    3.56
   0   5  -9   30.52    3.68
   0   5  -9   37.52    3.33
   0   5  -8  224.30   12.03
   0   5  -8  214.78   12.12
   0   5  -8  225.41   12.06
   0   5  -8  205.02   11.95
   0   5  -8  237.56   11.90
   0   5  -7    2.43    1.21
   0   5  -7    1.04    1.38
   0   5  -7    1.24    1.42
   0   5  -7    0.22    2.00
   0   5  -7    1.91    1.48
   0   5  -7    1.70    1.14
   0   5  -7    0.71    1.21
   0   5  -7    1.59    1.43
   0   5  -7    2.13    1.65
   0   5  -6   16.54    2.03
   0   5  -6   14.20    2.00
   0   5  -6   11.22    2.47
   0   5  -6   10.28    1.87
   0   5  -6   12.90    2.25
   0   5  -6   16.44    1.87
   0   5  -6   17.30    2.11
   0   5  -6   16.00    2.15
   0   5  -6   14.70    2.19
   0   5  -5   96.72    5.65
   0   5  -5   76.16    5.18
   0   5  -5   86.41    5.44
   0   5  -5   86.71    5.25
   0   5  -5   81.63    4.68
   0   5  -5   91.65    5.35
   0   5  -5   86.79    4.76
   0   5  -5   87.77    5.32
   0   5  -5   84.60    4.94
   0   5  -5   95.30    5.42
   0   5  -5   85.03    4.76
   0   5  -4  447.26   21.15
   0   5  -4  446.35   21.56
   0   5  -4  449.27   21.15
   0   5  -4  428.00   21.24
   0   5  -4  422.21   21.60
   0   5  -4  452.30   21.53
   0   5  -4  454.55   21.14
   0   5  -4  451.58   21.50
   0   5  -4  450.40   21.42
   0   5  -4  445.90   21.57
   0   5  -4  468.33   21.45
   0   5  -4  443.53   21.36
   0   5  -3   33.55    2.69
   0   5  -3   31.73    2.37
   0   5  -3   30.55    2.38
   0   5  -3   36.07    2.52
   0   5  -3   39.92    2.62
   0   5  -3   29.59    2.33
   0   5  -3   32.51    2.67
   0   5  -3   32.23    2.67
   0   5  -3   34.60    2.43
   0   5  -3   33.82    2.72
   0   5  -3   39.26    2.79
   0   5  -3   38.73    2.71
   0   5  -3   36.29    2.57
   0   5  -2  255.58   12.79
   0   5  -2  250.88   12.54
   0   5  -2  256.27   12.75
   0   5  -2  297.42   12.98
   0   5  -2  252.21   12.73
   0   5  -2  259.14   12.76
   0   5  -2  240.28   12.47
   0   5  -2  260.57   12.84
   0   5  -2  281.86   13.07
   0   5  -2  257.03   12.80
   0   5  -2  275.57   12.91
   0   5  -1 2339.18  108.06
   0   5  -1 2323.35  107.73
   0   5  -1 2428.48  108.22
   0   5  -1 2585.59  108.45
   0   5  -1 2342.78  108.10
   0   5  -1 2382.90  108.27
   0   5  -1 2275.91  107.63
   0   5  -1 2344.03  108.09
   0   5  -1 2417.38  108.10
   0   5  -1 2489.36  108.36
   0   5   0   51.68    3.16
   0   5   0   50.52    3.19
   0   5   0   52.83    2.76
   0   5   0   50.98    3.31
   0   5   0   60.65    3.87
   0   5   0   48.75    3.19
   0   5   0   49.82    3.46
   0   5   0   49.81    3.17
   0   5   0   51.63    3.32
   0   5   0   59.58    3.73
   0   5   1  531.24   25.20
   0   5   1  524.21   25.09
   0   5   1  546.62   25.32
   0   5   1  529.28   25.20
   0   5   1  542.63   25.23
   0   5   1  521.79   25.36
   0   5   1  534.32   24.86
   0   5   2 1288.65   59.45
   0   5   2 1307.60   59.58
   0   5   2 1346.66   60.01
   0   5   2 1229.23   59.32
   0   5   2 1319.04   59.43
   0   5   2 1268.75   59.43
   0   5   2 1277.31   59.36
   0   5   2 1306.06   59.60
   0   5   3 1441.54   68.33
   0   5   3 1527.74   67.92
   0   5   3 1489.20   67.93
   0   5   3 1433.34   67.82
   0   5   3 1461.79   68.13
   0   5   4    4.16    1.73
   0   5   4    4.07    1.15
   0   5   4    3.80    1.50
   0   5   5   37.37    3.79
   0   5   5   45.52    3.24
   0   5   5   38.55    3.46
   0   5   6  413.21   20.33
   0   5   6  473.83   20.39
   0   5   7  201.44   11.43
   0   5   7  226.55   11.54
   0   5   8    3.44    1.54
   0   5   9    2.28    1.45
   0   6 -12   -0.83    1.18
   0   6 -12   -0.98    1.21
   0   6 -11    2.44    1.31
   0   6 -11    2.13    1.57
   0   6 -11    3.52    1.81
   0   6 -11    2.17    1.27
   0   6 -11    3.32    1.75
   0   6 -10    0.52    1.13
   0   6 -10    0.98    1.32
   0   6 -10    2.13    1.63
   0   6 -10    2.19    1.54
   0   6 -10   -0.41    1.86
   0   6  -9   29.31    3.24
   0   6  -9   29.41    3.38
   0   6  -9   25.33    3.27
   0   6  -9   35.85    3.46
   0   6  -9   18.88    3.00
   0   6  -9   28.51    2.99
   0   6  -8  178.08   10.42
   0   6  -8  141.43   10.38
   0   6  -8  190.34   10.78
   0   6  -8  178.16   10.30
   0   6  -8  177.16    9.71
   0   6  -8  210.28   10.72
   0   6  -8  179.03   10.48
   0   6  -8  156.87   10.04
   0   6  -8  205.20   10.49
   0   6  -7    0.18    1.24
   0   6  -7    2.48    1.52
   0   6  -7    1.07    1.19
   0   6  -7    1.69    1.95
   0   6  -7    0.88    1.35
   0   6  -7    0.60    1.65
   0   6  -7   -0.39    1.43
   0   6  -7    0.18    1.20
   0   6  -7    1.07    1.47
   0   6  -6    0.98    1.21
   0   6  -6    0.17    1.69
   0   6  -6    0.29    1.27
   0   6  -6   -0.51    1.36
   0   6  -6    0.73    1.17
   0   6  -6    0.63    1.10
   0   6  -6    0.92    1.40
   0   6  -5   15.52    2.13
   0   6  -5   15.46    1.89
   0   6  -5   16.57    2.15
   0   6  -5   20.00    1.74
   0   6  -5   16.03    2.01
   0   6  -5   15.86    1.94
   0   6  -5   14.44    2.09
   0   6  -5   15.39    2.02
   0   6  -5   11.61    1.72
   0   6  -4    0.91    0.98
   0   6  -4    1.32    1.13
   0   6  -4    0.36    1.04
   0   6  -4    0.71    0.98
   0   6  -4    0.66    1.16
   0   6  -4    0.40    0.85
   0   6  -4    1.10    0.83
   0   6  -4    1.75    1.36
   0   6  -4   -0.46    1.14
   0   6  -4    1.35    1.21
   0   6  -4    0.21    1.05
   0   6  -3   60.75    4.12
   0   6  -3   62.15    4.02
   0   6  -3   57.49    3.82
   0   6  -3   62.93    4.02
   0   6  -3   63.33    3.84
   0   6  -3   63.17    4.19
   0   6  -3   63.83    4.25
   0   6  -3   68.05    4.19
   0   6  -3   63.75    4.15
   0   6  -2  833.03   39.52
   0   6  -2  824.47   39.15
   0   6  -2  880.10   39.74
   0   6  -2  825.91   39.57
   0   6  -2  871.70   39.77
   0   6  -2  819.80   39.05
   0   6  -2  847.38   39.57
   0   6  -2  886.46   39.86
   0   6  -2  865.09   39.60
   0   6  -2  865.18   39.72
   0   6  -1   10.27    1.44
   0   6  -1    8.29    1.28
   0   6  -1    7.46    1.83
   0   6  -1    7.91    1.58
   0   6  -1    7.38    1.35
   0   6  -1    7.86    1.30
   0   6  -1    7.44    1.73
   0   6   0  316.94   15.55
   0   6   0  316.71   15.98
   0   6   0  346.74   16.43
   0   6   0  326.11   15.82
   0   6   0  320.97   16.02
   0   6   0  323.78   15.59
   0   6   0  326.44   16.20
   0   6   0  315.32   15.63
   0   6   1  365.94   17.98
   0   6   1  375.78   18.25
   0   6   1  369.95   18.15
   0   6   1  377.07   18.36
   0   6   1  361.36   17.64
   0   6   1  378.03   18.49
   0   6   2  632.79   29.79
   0   6   2  617.24   29.50
   0   6   2  591.20   30.20
   0   6   2  633.98   29.80
   0   6   2  629.97   30.05
   0   6   3   64.42    5.26
   0   6   3   72.08    4.75
   0   6   3   75.92    4.81
   0   6   3   70.24    5.08
   0   6   4    0.83    2.11
   0   6   4   -0.15    1.10
   0   6   4    0.35    1.50
   0   6   5    4.35    2.23
   0   6   5    2.73    2.02
   0   6   5    4.29    1.72
   0   6   5    4.76    1.64
   0   6   6   91.78    6.78
   0   6   6  105.03    7.09
   0   6   7    0.78    1.19
   0   6   7    1.16    1.81
   0   6   7    1.22    1.56
   0   6   7    2.98    1.41
   0   6   8   -1.36    1.27
   0   7 -11    1.48    1.14
   0   7 -11    3.44    1.41
   0   7 -11   -0.35    1.39
   0   7 -11    0.30    1.08
   0   7 -11    0.56    1.31
   0   7 -10   43.33    3.64
   0   7 -10   31.51    3.34
   0   7 -10   31.32    3.53
   0   7 -10   35.16    3.43
   0   7 -10   23.42    3.09
   0   7 -10   42.53    3.39
   0   7  -9   20.90    2.57
   0   7  -9   22.76    2.89
   0   7  -9   13.32    2.37
   0   7  -9   17.79    2.90
   0   7  -9   22.69    2.94
   0   7  -9   16.40    2.64
   0   7  -8    9.46    1.93
   0   7  -8    6.11    1.93
   0   7  -8    6.91    1.92
   0   7  -8    7.56    2.16
   0   7  -8    6.45    1.63
   0   7  -8    9.77    2.18
   0   7  -8    9.33    1.95
   0   7  -8    4.93    1.95
   0   7  -7   14.13    2.25
   0   7  -7   12.04    2.01
   0   7  -7   10.38    2.16
   0   7  -7   11.03    2.02
   0   7  -7   11.34    2.05
   0   7  -7   11.67    2.21
   0   7  -6   24.97    2.79
   0   7  -6   17.33    2.18
   0   7  -6   20.19    2.63
   0   7  -6   23.49    2.52
   0   7  -6   25.93    2.68
   0   7  -6   20.11    2.67
   0   7  -6   19.43    2.42
   0   7  -6   18.81    2.20
   0   7  -5  169.64    9.23
   0   7  -5  160.97    9.01
   0   7  -5  154.89    8.53
   0   7  -5  162.77    9.10
   0   7  -5  167.66    8.91
   0   7  -5  163.92    9.25
   0   7  -5  154.72    8.72
   0   7  -5  155.13    8.85
   0   7  -5  159.14    9.15
   0   7  -4   76.19    5.11
   0   7  -4   72.31    4.71
   0   7  -4   77.87    4.87
   0   7  -4   78.33    5.25
   0   7  -4   78.06    4.79
   0   7  -4   74.51    4.86
   0   7  -4   84.82    5.28
   0   7  -4   81.51    5.22
   0   7  -4   83.98    5.23
   0   7  -4   72.52    4.86
   0   7  -3   15.65    2.03
   0   7  -3   18.60    2.15
   0   7  -3   19.21    2.21
   0   7  -3   21.01    2.29
   0   7  -3   18.11    1.70
   0   7  -3   18.49    2.05
   0   7  -3   24.17    2.60
   0   7  -3   16.82    2.14
   0   7  -2  460.98   22.21
   0   7  -2  463.81   22.53
   0   7  -2  459.19   22.40
   0   7  -2  452.95   22.54
   0   7  -2  455.56   22.22
   0   7  -2  465.54   22.69
   0   7  -2  467.11   22.32
   0   7  -2  452.98   22.52
   0   7  -1  234.41   12.03
   0   7  -1  247.43   12.80
   0   7  -1  241.09   12.47
   0   7  -1  238.60   12.51
   0   7  -1  230.08   12.04
   0   7  -1  237.97   12.66
   0   7  -1  238.39   12.16
   0   7  -1  250.76   12.71
   0   7   0  127.83    7.51
   0   7   0  123.52    7.07
   0   7   0  124.58    7.05
   0   7   0  110.42    7.09
   0   7   0  111.07    6.47
   0   7   1  235.73   12.42
   0   7   1  240.16   12.25
   0   7   1  227.09   12.43
   0   7   1  230.32   12.69
   0   7   2   40.27    4.20
   0   7   2   50.61    3.83
   0   7   2   46.82    3.53
   0   7   2   40.50    3.67
   0   7   2   51.59    4.15
   0   7   3    3.60    2.21
   0   7   3    0.85    1.13
   0   7   3    2.11    1.48
   0   7   3    0.98    1.63
   0   7   4  312.15   18.23
   0   7   4  374.44   17.84
   0   7   4  364.14   18.29
   0   7   4  341.70   18.04
   0   7   5    9.99    2.57
   0   7   5    8.27    2.40
   0   7   5    8.87    2.14
   0   7   5    7.44    1.95
   0   7   6   14.79    2.47
   0   7   6   19.37    2.89
   0   7   6   22.24    2.65
   0   7   7   10.70    2.03
   0   7   7   14.58    1.96
   0   8 -11    7.07    1.65
   0   8 -11    4.19    1.26
   0   8 -11    4.52    1.34
   0   8 -10    2.35    1.50
   0   8 -10   -0.88    1.23
   0   8 -10    2.64    1.56
   0   8 -10    2.57    1.54
   0   8  -9    0.79    1.25
   0   8  -9   -1.26    1.52
   0   8  -9    1.76    1.33
   0   8  -9   -0.63    1.64
   0   8  -9    0.43    1.56
   0   8  -8  131.87    8.24
   0   8  -8  127.68    7.73
   0   8  -8  131.61    8.14
   0   8  -7  107.20    7.02
   0   8  -7  100.99    6.65
   0   8  -7  102.78    6.62
   0   8  -7   98.24    6.76
   0   8  -7  106.08    7.03
   0   8  -6  198.37   10.90
   0   8  -6  185.88   10.68
   0   8  -6  196.54   10.52
   0   8  -6  190.80   10.90
   0   8  -6  187.18   10.58
   0   8  -6  178.15   10.28
   0   8  -6  198.39   10.84
   0   8  -5    5.86    1.65
   0   8  -5    6.25    1.73
   0   8  -5    3.38    1.44
   0   8  -5    4.86    1.77
   0   8  -5    6.91    1.39
   0   8  -5    5.81    1.75
   0   8  -5    5.98    1.32
   0   8  -5    3.78    1.67
   0   8  -5    6.44    1.57
   0   8  -4   45.65    3.86
   0   8  -4   45.88    3.66
   0   8  -4   50.36    3.81
   0   8  -4   56.92    4.32
   0   8  -4   53.86    4.11
   0   8  -4   46.56    4.04
   0   8  -4   53.61    4.08
   0   8  -4   54.48    3.97
   0   8  -3   30.76    2.80
   0   8  -3   31.37    3.07
   0   8  -3   27.84    2.79
   0   8  -3   26.82    2.58
   0   8  -3   27.86    3.04
   0   8  -3   27.14    2.74
   0   8  -3   25.08    2.66
   0   8  -3   25.81    2.99
   0   8  -3   29.93    2.97
   0   8  -2   76.57    4.86
   0   8  -2   79.58    5.43
   0   8  -2   68.11    5.02
   0   8  -2   67.27    5.14
   0   8  -2   72.87    4.83
   0   8  -2   78.06    5.47
   0   8  -2   73.37    4.88
   0   8  -2   84.19    5.46
   0   8  -1  309.10   15.74
   0   8  -1  325.47   16.75
   0   8  -1  335.30   16.50
   0   8  -1  327.61   16.47
   0   8  -1  305.79   15.75
   0   8  -1  328.73   16.69
   0   8  -1  308.60   15.87
   0   8  -1  328.34   16.68
   0   8   0  429.75   21.58
   0   8   0  437.93   21.18
   0   8   0  404.37   20.95
   0   8   0  413.78   21.24
   0   8   1    0.32    1.29
   0   8   1    1.12    1.48
   0   8   1    1.55    1.45
   0   8   1    4.18    1.88
   0   8   2   24.94    3.55
   0   8   2   30.39    3.12
   0   8   2   31.46    2.91
   0   8   2   30.58    3.28
   0   8   2   31.47    3.48
   0   8   3  339.24   19.28
   0   8   3  397.90   18.94
   0   8   3  375.18   19.47
   0   8   3  364.27   18.63
   0   8   3  363.67   19.14
   0   8   4   77.91    6.25
   0   8   4   94.61    5.78
   0   8   4   85.77    6.44
   0   8   4   87.13    6.10
   0   8   4   82.80    5.95
   0   8   5    4.39    2.04
   0   8   5    3.48    2.03
   0   8   5    6.46    1.82
   0   8   5    2.92    1.48
   0   8   6    7.18    1.92
   0   8   6    7.61    1.67
   0   9 -10    0.16    1.18
   0   9 -10    0.15    1.28
   0   9 -10   -0.81    1.16
   0   9  -9    3.11    1.31
   0   9  -9    2.31    1.40
   0   9  -9    2.87    1.23
   0   9  -8   69.98    5.24
   0   9  -8   63.80    4.92
   0   9  -8   62.72    4.73
   0   9  -8   68.59    5.25
   0   9  -8   73.47    5.17
   0   9  -7   65.50    5.06
   0   9  -7   57.53    4.65
   0   9  -7   65.41    4.89
   0   9  -7   67.71    5.18
   0   9  -7   70.91    5.12
   0   9  -6   83.56    5.78
   0   9  -6   87.06    5.82
   0   9  -6   79.96    5.30
   0   9  -6   82.77    5.78
   0   9  -6   68.90    5.22
   0   9  -6   76.63    5.63
   0   9  -5  186.94   10.48
   0   9  -5  179.56    9.97
   0   9  -5  193.29   10.66
   0   9  -5  186.25   10.50
   0   9  -5  192.04   10.52
   0   9  -5  182.76   10.42
   0   9  -5  168.91    9.86
   0   9  -4  348.21   17.02
   0   9  -4  290.10   16.45
   0   9  -4  341.75   16.87
   0   9  -4  349.11   17.07
   0   9  -4  331.58   17.23
   0   9  -4  330.24   16.98
   0   9  -4  326.71   16.85
   0   9  -3    5.98    1.55
   0   9  -3    6.77    1.55
   0   9  -3    6.05    1.89
   0   9  -3    7.07    2.07
   0   9  -3    9.44    1.81
   0   9  -3    8.37    1.78
   0   9  -3    9.26    2.32
   0   9  -3    8.22    1.99
   0   9  -2   17.83    2.11
   0   9  -2   13.52    1.90
   0   9  -2   24.52    3.02
   0   9  -2   17.53    2.50
   0   9  -2   13.92    2.36
   0   9  -2   16.24    2.40
   0   9  -2   15.93    2.01
   0   9  -2   15.17    2.61
   0   9  -1   91.44    6.70
   0   9  -1   98.71    6.54
   0   9  -1   99.09    6.48
   0   9  -1   99.42    6.75
   0   9  -1   97.03    6.74
   0   9   0  236.59   13.77
   0   9   0  257.14   13.53
   0   9   0  245.47   13.22
   0   9   0  245.11   13.58
   0   9   1    0.99    2.01
   0   9   1    2.19    1.41
   0   9   1    1.15    2.00
   0   9   1    2.43    1.41
   0   9   1    0.21    1.60
   0   9   1    0.45    1.91
   0   9   2   13.47    2.70
   0   9   2   14.74    3.01
   0   9   2   18.23    2.38
   0   9   2   10.04    2.20
   0   9   2   16.50    2.53
   0   9   2   15.78    2.64
   0   9   3  171.07   11.22
   0   9   3  220.31   10.95
   0   9   3  214.02   11.24
   0   9   3  175.15   10.41
   0   9   3  193.49   11.09
   0   9   4   44.32    3.40
   0   9   4   37.19    3.92
   0   9   4   46.18    3.83
   0   9   4   41.83    3.64
   0   9   5    1.02    1.48
   0   9   5    0.18    1.53
   0   9   5   -0.65    1.25
   0   9   6    1.15    1.21
   0  10  -9    2.27    1.38
   0  10  -9    1.28    1.13
   0  10  -9    2.03    1.03
   0  10  -9    2.14    1.30
   0  10  -8   26.21    2.69
   0  10  -8   20.54    2.60
   0  10  -8   20.32    2.61
   0  10  -8   16.46    2.30
   0  10  -7   10.32    1.93
   0  10  -7    9.98    1.99
   0  10  -7    9.21    1.99
   0  10  -7    8.36    2.10
   0  10  -6   34.40    3.47
   0  10  -6   44.52    3.77
   0  10  -6   41.17    3.70
   0  10  -6   34.41    3.31
   0  10  -6   35.63    3.45
   0  10  -5  219.62   11.93
   0  10  -5  222.91   12.15
   0  10  -5  223.21   11.60
   0  10  -5  217.68   11.94
   0  10  -5  218.00   12.01
   0  10  -5  226.41   11.99
   0  10  -5  193.93   11.35
   0  10  -4   10.65    1.95
   0  10  -4    7.28    1.68
   0  10  -4   11.20    2.27
   0  10  -4    5.88    1.59
   0  10  -4   11.13    1.98
   0  10  -4    9.38    2.31
   0  10  -4    8.17    1.94
   0  10  -3   22.24    2.44
   0  10  -3   19.79    2.36
   0  10  -3   21.05    2.81
   0  10  -3   22.90    2.71
   0  10  -3   22.34    2.45
   0  10  -3   18.12    2.66
   0  10  -3   27.39    3.29
   0  10  -3   21.54    2.87
   0  10  -2    1.72    1.91
   0  10  -2   -0.21    1.56
   0  10  -2   -0.53    1.59
   0  10  -2    0.20    1.38
   0  10  -2    0.75    1.08
   0  10  -2   -0.43    1.78
   0  10  -1    0.19    1.64
   0  10  -1    1.00    1.68
   0  10  -1    2.07    1.57
   0  10  -1    2.08    2.06
   0  10  -1    2.02    1.93
   0  10  -1   -0.17    1.25
   0  10  -1    3.36    2.02
   0  10   0    4.32    2.20
   0  10   0    1.24    1.32
   0  10   0    2.14    1.92
   0  10   0    2.87    1.51
   0  10   0    3.45    2.10
   0  10   0    2.56    1.48
   0  10   1    2.41    1.27
   0  10   1   -0.66    2.01
   0  10   1    1.18    1.31
   0  10   1   -2.40    2.09
   0  10   1   -0.40    1.53
   0  10   1    0.19    1.36
   0  10   1    2.63    1.86
   0  10   2   21.06    3.20
   0  10   2   23.88    3.17
   0  10   2   26.61    2.77
   0  10   2   20.16    2.61
   0  10   2   23.21    2.76
   0  10   2   24.09    3.02
   0  10   3   -0.20    1.80
   0  10   3   -0.15    1.02
   0  10   3    1.04    1.38
   0  10   3    0.35    1.49
   0  10   4   25.71    2.82
   0  10   4   25.63    2.52
   0  11  -8    3.36    1.29
   0  11  -8    2.64    1.19
   0  11  -8    2.37    1.24
   0  11  -7   10.76    1.86
   0  11  -6   36.16    3.10
   0  11  -6   30.31    3.11
   0  11  -6   31.61    3.06
   0  11  -6   30.83    2.96
   0  11  -6   31.12    3.01
   0  11  -5   -0.51    1.10
   0  11  -5   -0.47    1.16
   0  11  -5    0.14    0.96
   0  11  -5   -0.32    1.17
   0  11  -5   -0.18    1.42
   0  11  -4    1.12    1.12
   0  11  -4    2.95    1.50
   0  11  -4    2.68    1.24
   0  11  -4    5.42    1.93
   0  11  -4    2.84    1.48
   0  11  -3    2.42    1.55
   0  11  -3    3.51    1.67
   0  11  -3    4.35    1.46
   0  11  -3    3.77    1.96
   0  11  -3    3.19    1.65
   0  11  -2    5.85    1.94
   0  11  -2    3.17    1.59
   0  11  -2    3.08    1.53
   0  11  -2    2.64    1.50
   0  11  -2    4.99    1.91
   0  11  -1    4.99    1.97
   0  11  -1    5.43    1.60
   0  11  -1    5.75    1.90
   0  11  -1    4.90    1.60
   0  11  -1    8.13    2.14
   0  11  -1    8.33    1.55
   0  11  -1    6.70    2.05
   0  11   0   38.50    3.93
   0  11   0   41.41    3.36
   0  11   0   50.46    3.81
   0  11   0   37.78    3.63
   0  11   0   39.32    3.35
   0  11   0   41.23    3.79
   0  11   1   30.53    3.47
   0  11   1   36.50    3.15
   0  11   1   30.50    3.24
   0  11   1   38.30    3.10
   0  11   1   30.29    3.04
   0  11   1   31.46    3.25
   0  11   2   -1.49    1.49
   0  11   2   -0.12    1.08
   0  11   2    0.57    1.03
   0  11   2   -0.31    1.33
   0  11   3    2.10    1.39
   0  11   3    2.01    1.18
   0  12  -6   33.52    2.82
   0  12  -6   24.44    2.43
   0  12  -5    1.61    1.32
   0  12  -4    0.48    1.26
   0  12  -4    2.12    1.54
   0  12  -4    0.77    1.14
   0  12  -3   36.59    3.10
   0  12  -3   36.56    3.34
   0  12  -3   27.79    2.90
   0  12  -2   12.63    1.88
   0  12  -2   14.92    2.29
   0  12  -2   14.86    2.15
   0  12  -1    7.44    1.39
   0  12  -1    8.31    1.53
   0  12  -1    9.67    1.91
   0  12  -1    7.46    1.72
   0  12   0   13.86    1.97
   0  12   0   19.20    2.18
   0  12   1   13.64    1.85
   1 -12  -2    0.24    1.00
   1 -12  -1    1.85    1.24
   1 -12  -1    1.94    1.51
   1 -12   0    3.75    1.49
   1 -12   0    5.18    1.58
   1 -12   0    4.84    1.83
   1 -12   1   18.95    2.39
   1 -12   1   18.13    2.43
   1 -12   1   20.59    2.74
   1 -12   1   17.61    2.24
   1 -12   2    7.91    1.75
   1 -12   2    6.05    1.71
   1 -12   2    8.31    2.16
   1 -12   2    5.91    1.54
   1 -12   3   24.23    2.65
   1 -12   3   25.50    2.75
   1 -12   3   30.64    2.78
   1 -12   3   19.52    2.80
   1 -12   4   54.84    4.00
   1 -12   4   51.20    3.99
   1 -12   4   56.05    3.99
   1 -12   4   44.35    4.11
   1 -12   5    0.14    1.13
   1 -12   5    1.37    1.41
   1 -12   5   -0.30    1.06
   1 -12   5   -0.36    1.53
   1 -12   6    2.11    1.18
   1 -12   6    1.24    1.28
   1 -12   6    1.52    1.53
   1 -12   7   31.65    2.68
   1 -12   7   32.90    3.07
   1 -11  -4    6.86    1.45
   1 -11  -3    2.79    1.58
   1 -11  -3    6.11    1.69
   1 -11  -3    4.71    1.65
   1 -11  -3    3.80    1.79
   1 -11  -2   -0.18    1.47
   1 -11  -2   -0.16    1.48
   1 -11  -2   -1.46    1.85
   1 -11  -2    1.86    1.61
   1 -11  -1   35.93    3.52
   1 -11  -1   32.67    3.35
   1 -11  -1   32.44    3.20
   1 -11  -1   33.03    3.68
   1 -11  -1   28.23    3.12
   1 -11   0   34.33    3.48
   1 -11   0   34.17    3.44
   1 -11   0   39.90    3.47
   1 -11   0   27.42    3.53
   1 -11   0   30.74    3.19
   1 -11   1    4.29    1.93
   1 -11   1    4.30    1.72
   1 -11   1    4.51    2.20
   1 -11   1    3.18    1.52
   1 -11   2    1.21    1.77
   1 -11   2    1.43    1.63
   1 -11   2    0.95    2.04
   1 -11   2    3.18    1.54
   1 -11   3   10.44    2.10
   1 -11   3   10.68    2.20
   1 -11   3    9.18    2.50
   1 -11   3   12.74    2.14
   1 -11   4    1.33    1.57
   1 -11   4   -0.20    1.50
   1 -11   4    3.02    2.12
   1 -11   4    2.49    1.43
   1 -11   5    0.54    1.50
   1 -11   5    0.76    1.57
   1 -11   5   -0.45    1.83
   1 -11   5    2.59    1.46
   1 -11   6   21.09    2.52
   1 -11   6   16.90    2.46
   1 -11   6   15.38    2.84
   1 -11   6   21.45    2.51
   1 -11   7    6.68    1.58
   1 -11   7    9.29    1.84
   1 -11   7    8.40    2.24
   1 -11   7   10.77    1.77
   1 -11   8    1.27    1.06
   1 -11   8    1.61    1.22
   1 -11   8    1.05    1.59
   1 -11   9    0.83    1.33
   1 -10  -5    8.84    1.74
   1 -10  -5    7.14    1.96
   1 -10  -5    6.08    1.80
   1 -10  -4    6.98    2.13
   1 -10  -4    4.53    1.73
   1 -10  -4    4.28    1.98
   1 -10  -4    4.36    1.97
   1 -10  -3    1.43    1.65
   1 -10  -3    0.97    2.10
   1 -10  -3    0.61    1.82
   1 -10  -3    3.07    2.00
   1 -10  -2   21.10    3.00
   1 -10  -2   20.74    2.86
   1 -10  -2   18.09    2.93
   1 -10  -2   12.27    2.96
   1 -10  -1   18.29    2.74
   1 -10  -1   17.13    2.71
   1 -10  -1   10.98    2.45
   1 -10  -1   13.73    2.98
   1 -10  -1   16.01    2.40
   1 -10  -1   15.78    2.64
   1 -10   0   55.87    4.77
   1 -10   0   72.19    5.08
   1 -10   0   56.27    4.66
   1 -10   0   59.62    4.60
   1 -10   0   62.32    5.28
   1 -10   0   53.84    4.53
   1 -10   0   51.85    4.18
   1 -10   1    4.55    1.94
   1 -10   1    6.54    1.67
   1 -10   1    7.16    2.08
   1 -10   1    6.11    2.32
   1 -10   1    5.47    1.72
   1 -10   1    4.70    1.69
   1 -10   2   18.43    2.73
   1 -10   2   22.64    2.59
   1 -10   2   22.32    2.90
   1 -10   2   23.16    3.38
   1 -10   2   19.12    2.64
   1 -10   3   51.66    4.34
   1 -10   3   49.85    4.37
   1 -10   3   47.23    3.90
   1 -10   3   56.33    4.43
   1 -10   3   53.21    4.91
   1 -10   4    1.42    1.62
   1 -10   4    1.05    1.74
   1 -10   4    0.54    1.09
   1 -10   4    1.24    2.11
   1 -10   4   -0.41    1.34
   1 -10   4    0.51    1.25
   1 -10   5    5.57    1.74
   1 -10   5    4.22    1.60
   1 -10   5    5.84    1.78
   1 -10   5    3.26    1.24
   1 -10   5    3.97    2.26
   1 -10   6    4.01    1.68
   1 -10   6    5.16    2.24
   1 -10   6    5.11    1.69
   1 -10   6    3.67    1.53
   1 -10   6    8.22    1.53
   1 -10   7    0.35    1.45
   1 -10   7   -0.48    1.19
   1 -10   7    2.84    2.11
   1 -10   7    0.19    1.24
   1 -10   8   17.05    2.28
   1 -10   8   19.61    3.03
   1 -10   8   24.30    2.53
   1 -10   9    1.06    1.03
   1 -10   9    0.18    1.51
   1 -10  10    2.51    1.39
   1  -9  -6   21.57    2.96
   1  -9  -6   23.30    2.69
   1  -9  -5   15.59    2.52
   1  -9  -5   11.99    2.79
   1  -9  -5   15.14    2.91
   1  -9  -5   16.06    2.57
   1  -9  -5   16.55    2.16
   1  -9  -4   42.78    4.04
   1  -9  -4   41.63    3.67
   1  -9  -4   46.90    4.68
   1  -9  -4   39.84    4.17
   1  -9  -3   -0.69    1.75
   1  -9  -3    1.57    1.88
   1  -9  -3    0.70    2.12
   1  -9  -3    0.38    1.31
   1  -9  -3    1.34    2.27
   1  -9  -3   -0.68    2.06
   1  -9  -2    0.23    1.76
   1  -9  -2    0.22    1.74
   1  -9  -2   -0.22    2.02
   1  -9  -2    0.38    1.40
   1  -9  -2    0.79    2.36
   1  -9  -2    0.86    1.49
   1  -9  -2    0.88    2.01
   1  -9  -1   73.15    5.38
   1  -9  -1   72.37    5.47
   1  -9  -1   69.48    5.36
   1  -9  -1   72.51    5.88
   1  -9  -1   69.18    5.34
   1  -9  -1   72.06    5.12
   1  -9  -1   66.30    5.31
   1  -9   0  309.47   15.82
   1  -9   0  287.62   15.31
   1  -9   0  298.87   15.72
   1  -9   0  279.43   15.33
   1  -9   0  288.30   15.42
   1  -9   0  298.46   15.62
   1  -9   0  309.83   16.23
   1  -9   1   80.90    5.59
   1  -9   1   74.91    5.52
   1  -9   1   74.55    5.25
   1  -9   1   83.61    5.63
   1  -9   1   80.59    6.02
   1  -9   1   68.01    5.10
   1  -9   2  132.00    8.26
   1  -9   2  138.54    7.70
   1  -9   2  134.67    8.26
   1  -9   2  135.22    7.77
   1  -9   2  132.71    7.98
   1  -9   2  136.33    8.22
   1  -9   2  132.52    8.62
   1  -9   3    1.29    1.18
   1  -9   3    1.57    1.64
   1  -9   3    1.40    1.25
   1  -9   3    1.36    1.27
   1  -9   3    1.91    2.13
   1  -9   3    2.24    1.26
   1  -9   4  270.01   14.13
   1  -9   4  279.56   13.89
   1  -9   4  260.85   13.37
   1  -9   4  257.33   13.85
   1  -9   4  240.32   14.36
   1  -9   4  261.73   14.07
   1  -9   5   29.90    3.25
   1  -9   5   33.45    2.93
   1  -9   5   27.07    3.68
   1  -9   5   25.88    2.98
   1  -9   5   28.67    3.02
   1  -9   6   37.74    3.65
   1  -9   6   36.28    3.13
   1  -9   6   31.81    3.34
   1  -9   6   37.12    3.52
   1  -9   6   30.66    4.05
   1  -9   7    6.81    1.95
   1  -9   7    8.15    2.04
   1  -9   7    3.09    2.23
   1  -9   7    5.61    1.74
   1  -9   8   31.66    3.38
   1  -9   8   34.91    3.44
   1  -9   8   41.72    3.55
   1  -9   9   23.70    2.66
   1  -9   9   32.32    2.95
   1  -9   9   24.06    2.71
   1  -9  10    6.71    1.49
   1  -8  -7    1.37    1.43
   1  -8  -6   50.12    4.36
   1  -8  -6   54.33    4.20
   1  -8  -6   44.37    3.91
   1  -8  -5   36.15    3.72
   1  -8  -5   38.87    3.71
   1  -8  -5   33.08    3.97
   1  -8  -5   36.00    4.21
   1  -8  -5   36.28    3.90
   1  -8  -5   36.45    3.59
   1  -8  -4   19.38    3.49
   1  -8  -4   26.42    3.28
   1  -8  -4   20.83    3.37
   1  -8  -4   26.84    3.08
   1  -8  -4   24.34    3.03
   1  -8  -3   93.20    6.40
   1  -8  -3   92.91    6.35
   1  -8  -3   86.39    5.57
   1  -8  -3   79.51    6.36
   1  -8  -3   91.59    6.17
   1  -8  -3   92.39    6.82
   1  -8  -3   77.02    6.26
   1  -8  -3   88.93    5.96
   1  -8  -2   33.87    3.54
   1  -8  -2   33.47    3.65
   1  -8  -2   33.96    3.50
   1  -8  -2   31.65    2.86
   1  -8  -2   33.39    3.37
   1  -8  -2   38.37    4.13
   1  -8  -2   39.45    3.57
   1  -8  -2   30.24    3.54
   1  -8  -2   36.13    3.34
   1  -8  -1  175.08   10.05
   1  -8  -1  168.13   10.01
   1  -8  -1  167.76    9.95
   1  -8  -1  170.08    9.37
   1  -8  -1  178.49    9.95
   1  -8  -1  190.81   10.12
   1  -8  -1  178.70   10.48
   1  -8  -1  173.44   10.02
   1  -8  -1  176.53    9.73
   1  -8   0   88.44    5.67
   1  -8   0   71.39    5.34
   1  -8   0   71.34    4.79
   1  -8   0   82.36    5.39
   1  -8   0   87.12    6.05
   1  -8   0   74.54    5.32
   1  -8   0   82.72    5.43
   1  -8   0   78.18    5.40
   1  -8   1   18.53    2.41
   1  -8   1   17.06    1.90
   1  -8   1   19.13    2.33
   1  -8   1   16.03    1.99
   1  -8   1   15.89    2.29
   1  -8   1   17.31    2.33
   1  -8   1   19.06    2.81
   1  -8   1   17.55    2.25
   1  -8   1   16.89    2.03
   1  -8   1   16.19    2.21
   1  -8   2   80.45    5.47
   1  -8   2   78.77    4.98
   1  -8   2   87.27    5.34
   1  -8   2   80.34    5.00
   1  -8   2   82.30    5.08
   1  -8   2   76.95    5.31
   1  -8   2   79.89    5.44
   1  -8   2   90.23    6.01
   1  -8   2   75.11    4.89
   1  -8   3   81.77    5.45
   1  -8   3   78.74    5.17
   1  -8   3   75.02    4.92
   1  -8   3   82.76    4.97
   1  -8   3   81.90    5.50
   1  -8   3   82.65    5.42
   1  -8   3   77.47    5.36
   1  -8   3   78.53    5.81
   1  -8   4   51.53    4.17
   1  -8   4   48.43    3.80
   1  -8   4   48.42    3.71
   1  -8   4   56.47    3.71
   1  -8   4   59.94    4.26
   1  -8   4   58.22    4.25
   1  -8   4   49.06    4.08
   1  -8   4   53.59    4.67
   1  -8   5  114.60    7.20
   1  -8   5  123.20    6.96
   1  -8   5  112.32    6.76
   1  -8   5  104.84    6.73
   1  -8   5  114.18    7.19
   1  -8   5  119.43    7.27
   1  -8   6    0.97    1.57
   1  -8   6    0.19    1.41
   1  -8   6    1.40    1.53
   1  -8   6   -0.16    0.96
   1  -8   6    1.27    1.13
   1  -8   7   48.90    4.25
   1  -8   7   51.21    3.87
   1  -8   7   52.30    4.09
   1  -8   7   46.56    4.40
   1  -8   7   58.17    4.49
   1  -8   8    2.54    1.67
   1  -8   8    1.64    1.24
   1  -8   8    3.90    1.93
   1  -8   8    1.01    1.51
   1  -8   9   31.16    3.28
   1  -8   9   38.64    3.81
   1  -8  10    1.49    1.19
   1  -8  10    1.68    1.42
   1  -8  10    1.52    1.16
   1  -7  -8    1.99    1.89
   1  -7  -8    1.17    1.33
   1  -7  -7    2.76    1.81
   1  -7  -7    4.78    1.86
   1  -7  -7    2.71    2.17
   1  -7  -6    3.00    2.09
   1  -7  -6    3.30    1.85
   1  -7  -6    0.21    1.79
   1  -7  -5   14.20    2.43
   1  -7  -5    6.97    2.61
   1  -7  -5    9.79    2.39
   1  -7  -5    3.71    2.54
   1  -7  -5    6.45    2.42
   1  -7  -5    9.08    2.35
   1  -7  -4  116.35    7.23
   1  -7  -4  115.80    6.78
   1  -7  -4   91.39    7.20
   1  -7  -4  110.99    7.12
   1  -7  -4  110.71    7.69
   1  -7  -4   98.48    7.16
   1  -7  -4  104.82    7.00
   1  -7  -3    2.11    1.62
   1  -7  -3    1.58    1.61
   1  -7  -3    2.48    1.68
   1  -7  -3    2.74    2.11
   1  -7  -3    2.64    1.20
   1  -7  -3    2.96    2.13
   1  -7  -3    2.21    1.53
   1  -7  -3    1.65    1.57
   1  -7  -2   24.62    2.81
   1  -7  -2   22.64    2.72
   1  -7  -2   20.89    2.91
   1  -7  -2   20.61    2.64
   1  -7  -2   22.04    2.95
   1  -7  -2   23.84    2.56
   1  -7  -2   21.55    2.85
   1  -7  -2   20.71    2.22
   1  -7  -2   22.90    2.65
   1  -7  -1  233.84   13.05
   1  -7  -1  246.83   13.10
   1  -7  -1  257.11   12.79
   1  -7  -1  258.42   13.22
   1  -7  -1  250.19   13.08
   1  -7  -1  249.01   13.49
   1  -7  -1  252.94   13.19
   1  -7  -1  250.97   13.28
   1  -7   0    1.94    1.35
   1  -7   0    1.40    1.18
   1  -7   0    0.45    1.31
   1  -7   0    0.56    1.42
   1  -7   0    1.00    1.06
   1  -7   0    0.71    0.92
   1  -7   0    2.35    1.89
   1  -7   0    1.01    1.11
   1  -7   0    2.09    1.36
   1  -7   0    2.22    1.44
   1  -7   1   68.46    4.56
   1  -7   1   67.38    4.23
   1  -7   1   66.00    4.31
   1  -7   1   63.60    4.48
   1  -7   1   64.16    4.18
   1  -7   1   63.60    4.16
   1  -7   1   64.18    4.55
   1  -7   1   70.46    4.38
   1  -7   1   62.83    4.28
   1  -7   1   63.22    4.83
   1  -7   1   68.37    4.48
   1  -7   2  143.96    7.90
   1  -7   2  135.45    7.40
   1  -7   2  138.46    7.67
   1  -7   2  140.41    7.60
   1  -7   2  136.59    7.46
   1  -7   2  135.35    7.94
   1  -7   2  141.95    7.94
   1  -7   2  150.05    7.94
   1  -7   2  130.79    7.35
   1  -7   3   35.90    3.25
   1  -7   3   39.89    3.03
   1  -7   3   40.98    3.09
   1  -7   3   41.82    2.91
   1  -7   3   34.80    3.19
   1  -7   3   39.61    3.34
   1  -7   3   41.15    3.31
   1  -7   4   48.58    3.77
   1  -7   4   51.21    3.54
   1  -7   4   44.44    3.47
   1  -7   4   47.64    3.24
   1  -7   4   45.34    3.63
   1  -7   4   45.18    3.75
   1  -7   4   47.63    3.70
   1  -7   5   15.40    2.25
   1  -7   5   17.94    2.03
   1  -7   5   17.56    2.13
   1  -7   5   17.79    2.55
   1  -7   5   17.22    1.82
   1  -7   5   17.39    2.28
   1  -7   6  102.57    7.09
   1  -7   6  126.05    6.92
   1  -7   6  119.02    7.09
   1  -7   6  107.30    7.33
   1  -7   6  116.51    7.25
   1  -7   7   -0.20    1.64
   1  -7   7    2.11    1.24
   1  -7   7    3.76    1.98
   1  -7   7    1.23    1.07
   1  -7   7    2.17    1.54
   1  -7   8   76.66    5.92
   1  -7   8   89.18    6.08
   1  -7   8   83.85    6.34
   1  -7   8   96.46    6.22
   1  -7   9    2.66    1.68
   1  -7   9    2.62    1.47
   1  -7   9    4.58    2.11
   1  -7   9    3.35    1.56
   1  -7  10   13.75    2.14
   1  -7  10   17.84    2.68
   1  -7  10   17.31    2.25
   1  -7  11   -0.30    1.20
   1  -7  11    2.00    1.63
   1  -6  -9   17.93    2.59
   1  -6  -9   21.55    2.53
   1  -6  -8   14.88    2.92
   1  -6  -8   15.04    2.56
   1  -6  -7    4.36    1.93
   1  -6  -7    4.65    2.64
   1  -6  -7    4.35    1.95
   1  -6  -7    1.16    1.88
   1  -6  -6   46.67    4.98
   1  -6  -6   51.25    4.60
   1  -6  -6   50.37    4.98
   1  -6  -6   48.92    4.46
   1  -6  -6   56.55    4.82
   1  -6  -5  474.53   24.02
   1  -6  -5  512.37   23.89
   1  -6  -5  490.81   24.19
   1  -6  -5  465.47   24.46
   1  -6  -5  430.67   23.83
   1  -6  -5  491.92   24.14
   1  -6  -4  207.63   11.58
   1  -6  -4  222.82   11.50
   1  -6  -4  190.07   11.81
   1  -6  -4  218.56   11.79
   1  -6  -4  209.43   12.03
   1  -6  -4  207.13   11.76
   1  -6  -4  217.34   11.77
   1  -6  -3   53.08    4.14
   1  -6  -3   59.43    4.25
   1  -6  -3   47.71    3.76
   1  -6  -3   51.55    4.37
   1  -6  -3   53.61    4.01
   1  -6  -3   47.56    4.32
   1  -6  -3   56.82    4.24
   1  -6  -3   54.32    4.23
   1  -6  -2   49.17    3.91
   1  -6  -2   56.47    4.02
   1  -6  -2   55.49    3.74
   1  -6  -2   49.97    4.18
   1  -6  -2   54.23    4.00
   1  -6  -2   52.74    3.88
   1  -6  -2   53.90    4.24
   1  -6  -2   53.10    4.14
   1  -6  -1    1.54    1.20
   1  -6  -1    3.18    1.37
   1  -6  -1    2.42    1.58
   1  -6  -1    1.73    1.34
   1  -6  -1    0.98    0.94
   1  -6  -1    1.86    1.03
   1  -6  -1    3.05    1.51
   1  -6   0   88.12    5.18
   1  -6   0   75.73    4.89
   1  -6   0   77.37    5.06
   1  -6   0   91.36    5.04
   1  -6   0   83.85    4.91
   1  -6   0   90.55    5.26
   1  -6   0   89.42    5.22
   1  -6   0   79.38    5.02
   1  -6   0   89.68    5.20
   1  -6   0   80.05    4.72
   1  -6   1   12.18    1.76
   1  -6   1   10.08    1.41
   1  -6   1   12.28    1.92
   1  -6   1   12.48    1.55
   1  -6   1   13.86    1.63
   1  -6   1    8.92    1.50
   1  -6   1   11.22    1.50
   1  -6   1   12.84    1.64
   1  -6   1   11.08    1.77
   1  -6   1   13.77    1.48
   1  -6   1   12.66    1.69
   1  -6   1   12.22    1.05
   1  -6   2  603.09   28.28
   1  -6   2  591.86   27.84
   1  -6   2  595.48   28.08
   1  -6   2  603.49   28.14
   1  -6   2  580.82   27.88
   1  -6   2  614.60   28.30
   1  -6   2  605.69   28.37
   1  -6   2  608.22   28.27
   1  -6   2  585.35   28.26
   1  -6   2  582.62   27.75
   1  -6   3   29.69    2.59
   1  -6   3   31.86    2.39
   1  -6   3   28.01    2.42
   1  -6   3   27.47    2.17
   1  -6   3   27.32    2.67
   1  -6   3   25.62    2.50
   1  -6   3   26.81    2.45
   1  -6   3   27.19    2.42
   1  -6   3   28.38    2.22
   1  -6   4   11.10    1.90
   1  -6   4   13.78    1.79
   1  -6   4   12.91    1.74
   1  -6   4   11.42    1.95
   1  -6   4   12.90    1.46
   1  -6   4   12.31    1.55
   1  -6   4   15.11    1.86
   1  -6   4   12.13    1.53
   1  -6   5  432.50   20.96
   1  -6   5  441.16   20.67
   1  -6   5  433.38   20.95
   1  -6   5  415.54   20.30
   1  -6   5  406.05   21.12
   1  -6   5  419.74   20.91
   1  -6   6  149.74    9.13
   1  -6   6  173.39    8.93
   1  -6   6  170.38    9.30
   1  -6   6  154.02    9.46
   1  -6   6  158.46    9.16
   1  -6   7   45.45    4.05
   1  -6   7   44.92    3.46
   1  -6   7   46.02    3.93
   1  -6   7   36.52    4.01
   1  -6   7   38.59    4.60
   1  -6   7   45.53    3.89
   1  -6   8   36.67    2.97
   1  -6   8   26.05    3.22
   1  -6   8   32.65    3.36
   1  -6   8   27.07    3.56
   1  -6   8   35.22    3.45
   1  -6   8   27.77    4.29
   1  -6   9    9.86    2.33
   1  -6   9   14.56    2.36
   1  -6   9    7.84    2.36
   1  -6   9   14.11    2.40
   1  -6   9    7.57    3.05
   1  -6  10    0.35    1.46
   1  -6  10    3.84    1.57
   1  -6  10    4.02    2.04
   1  -6  10    2.37    1.43
   1  -6  10    1.78    2.36
   1  -6  11   -1.07    1.48
   1  -6  11   -1.21    1.78
   1  -5 -10    0.14    1.24
   1  -5 -10    0.45    1.36
   1  -5  -9   11.97    2.51
   1  -5  -9    8.97    2.29
   1  -5  -8   61.85    5.37
   1  -5  -8   58.74    4.61
   1  -5  -8   66.67    5.43
   1  -5  -7    5.84    2.48
   1  -5  -7    6.38    2.19
   1  -5  -7    4.29    2.11
   1  -5  -7    3.08    1.95
   1  -5  -7    6.38    2.45
   1  -5  -6    3.00    2.17
   1  -5  -6    1.48    1.82
   1  -5  -6    9.68    2.33
   1  -5  -6    4.85    2.52
   1  -5  -6    3.47    1.89
   1  -5  -6    3.19    2.09
   1  -5  -5    1.27    1.51
   1  -5  -5    1.16    1.71
   1  -5  -5    1.22    1.27
   1  -5  -5    0.18    1.45
   1  -5  -5    0.36    1.60
   1  -5  -5    1.59    1.99
   1  -5  -4   29.37    2.95
   1  -5  -4   28.97    2.87
   1  -5  -4   31.48    2.79
   1  -5  -4   28.00    3.30
   1  -5  -4   23.75    2.77
   1  -5  -4   31.58    3.14
   1  -5  -4   27.10    2.91
   1  -5  -4   30.83    3.16
   1  -5  -3   16.40    2.17
   1  -5  -3   15.86    2.10
   1  -5  -3   20.35    2.05
   1  -5  -3   15.48    2.45
   1  -5  -3   18.89    2.29
   1  -5  -3   18.63    2.06
   1  -5  -3   17.53    2.18
   1  -5  -3   17.35    2.27
   1  -5  -2  640.89   28.83
   1  -5  -2  622.31   28.76
   1  -5  -2  645.47   28.72
   1  -5  -2  630.19   28.87
   1  -5  -2  649.29   29.08
   1  -5  -2  561.50   28.03
   1  -5  -2  573.07   28.03
   1  -5  -2  631.10   28.71
   1  -5  -2  572.93   28.63
   1  -5  -2  649.80   28.99
   1  -5  -1    6.79    1.40
   1  -5  -1    7.37    1.32
   1  -5  -1    6.84    1.32
   1  -5  -1    6.23    1.58
   1  -5  -1    6.92    1.37
   1  -5  -1    9.43    1.56
   1  -5  -1    6.30    1.04
   1  -5  -1    5.77    1.05
   1  -5  -1    7.96    1.28
   1  -5  -1   10.15    1.38
   1  -5  -1    8.34    1.66
   1  -5   0    6.99    1.33
   1  -5   0    7.60    1.36
   1  -5   0   12.00    1.60
   1  -5   0    8.36    1.22
   1  -5   0    8.47    1.23
   1  -5   0    8.70    1.26
   1  -5   0    6.75    1.43
   1  -5   0    9.50    1.31
   1  -5   0    9.19    1.53
   1  -5   0    7.54    1.18
   1  -5   0    8.26    1.16
   1  -5   0    9.08    0.67
   1  -5   1   19.33    1.85
   1  -5   1   17.15    1.62
   1  -5   1   17.80    1.59
   1  -5   1   22.91    2.08
   1  -5   1   15.09    1.69
   1  -5   1   20.40    2.01
   1  -5   1   18.87    1.76
   1  -5   1   21.17    1.87
   1  -5   1   20.39    1.96
   1  -5   1   16.15    1.65
   1  -5   1   16.83    1.33
   1  -5   2   14.83    1.67
   1  -5   2   12.59    1.46
   1  -5   2   11.22    1.24
   1  -5   2   11.64    1.21
   1  -5   2   11.95    1.35
   1  -5   2   14.74    1.69
   1  -5   2   13.96    1.79
   1  -5   2   10.78    1.48
   1  -5   2   10.11    1.33
   1  -5   2   14.25    1.72
   1  -5   3   11.26    1.53
   1  -5   3    9.78    1.57
   1  -5   3   10.68    1.44
   1  -5   3    8.34    1.63
   1  -5   3    7.59    1.08
   1  -5   3    9.03    1.17
   1  -5   3    8.66    1.25
   1  -5   3   11.67    1.74
   1  -5   3   13.58    2.12
   1  -5   4   16.36    1.60
   1  -5   4   12.19    1.87
   1  -5   4   14.37    1.44
   1  -5   4   11.46    1.62
   1  -5   4   12.13    1.92
   1  -5   4   12.20    1.55
   1  -5   4   12.16    1.68
   1  -5   4   13.32    2.39
   1  -5   5   10.51    1.90
   1  -5   5   12.01    1.79
   1  -5   5   13.54    1.48
   1  -5   5    9.10    1.90
   1  -5   5   13.16    1.58
   1  -5   5   15.06    1.89
   1  -5   5   13.67    2.56
   1  -5   6    8.37    1.93
   1  -5   6    8.18    1.79
   1  -5   6    8.03    1.47
   1  -5   6    8.35    1.73
   1  -5   6   11.24    2.58
   1  -5   6    9.57    1.34
   1  -5   7    1.68    1.68
   1  -5   7    1.96    1.47
   1  -5   7    1.11    0.98
   1  -5   7    1.83    1.55
   1  -5   7    3.97    2.50
   1  -5   8   92.54    6.58
   1  -5   8  100.86    6.06
   1  -5   8  110.64    6.94
   1  -5   8  103.52    6.71
   1  -5   9   79.35    6.23
   1  -5   9  111.21    6.78
   1  -5   9  101.10    6.51
   1  -5   9   72.57    6.85
   1  -5  10    4.86    1.96
   1  -5  10    8.07    1.93
   1  -5  10    6.64    2.26
   1  -5  10    8.22    1.95
   1  -5  10    8.73    2.92
   1  -5  11    0.70    1.19
   1  -5  11    2.14    1.63
   1  -5  11    0.60    1.12
   1  -5  11   -0.22    1.92
   1  -5  12    0.80    1.14
   1  -5  12    0.15    1.32
   1  -4 -10    4.14    1.68
   1  -4 -10    5.13    1.88
   1  -4 -10    2.97    1.65
   1  -4  -9   13.61    2.73
   1  -4  -9   15.68    2.93
   1  -4  -8   27.13    3.57
   1  -4  -8   31.95    3.88
   1  -4  -8   24.77    2.89
   1  -4  -8   35.48    3.98
   1  -4  -7   -0.45    1.90
   1  -4  -7    0.23    1.67
   1  -4  -7   -0.48    1.84
   1  -4  -7    1.40    1.64
   1  -4  -7    1.19    1.99
   1  -4  -6   12.12    2.60
   1  -4  -6   18.15    2.57
   1  -4  -6   16.31    2.73
   1  -4  -6   11.42    2.32
   1  -4  -6   14.02    2.61
   1  -4  -5   16.72    2.63
   1  -4  -5   17.83    2.34
   1  -4  -5   18.65    2.69
   1  -4  -5   20.89    2.54
   1  -4  -5   16.18    2.38
   1  -4  -5   21.67    2.36
   1  -4  -5   19.61    2.74
   1  -4  -4  480.53   23.96
   1  -4  -4  522.51   24.08
   1  -4  -4  491.32   24.10
   1  -4  -4  502.45   24.22
   1  -4  -4  498.41   24.20
   1  -4  -4  491.40   24.12
   1  -4  -3  935.93   44.01
   1  -4  -3  947.47   43.94
   1  -4  -3  998.06   43.98
   1  -4  -3 1021.81   44.32
   1  -4  -3  893.36   43.33
   1  -4  -3  962.45   43.90
   1  -4  -3  881.38   43.85
   1  -4  -3  953.85   44.03
   1  -4  -3  983.84   44.11
   1  -4  -3  948.25   44.06
   1  -4  -3  945.01   44.11
   1  -4  -2  663.11   31.70
   1  -4  -2  682.33   31.69
   1  -4  -2  700.33   31.70
   1  -4  -2  663.07   31.63
   1  -4  -2  701.71   31.82
   1  -4  -2  659.92   31.27
   1  -4  -2  656.87   31.68
   1  -4  -2  669.33   31.61
   1  -4  -2  739.23   31.99
   1  -4  -1    8.60    1.17
   1  -4  -1    7.05    1.02
   1  -4  -1    7.22    1.28
   1  -4  -1    6.96    1.07
   1  -4  -1    6.56    1.00
   1  -4   0  291.71   14.59
   1  -4   0  306.80   14.55
   1  -4   0  315.46   14.67
   1  -4   0  304.90   14.50
   1  -4   0  310.80   14.59
   1  -4   0  304.97   14.76
   1  -4   0  314.82   14.66
   1  -4   0  304.85   14.13
   1  -4   1   82.08    4.49
   1  -4   1   85.45    4.64
   1  -4   1   84.89    4.41
   1  -4   1   79.63    4.56
   1  -4   1   95.71    4.77
   1  -4   1   86.26    4.80
   1  -4   1   85.32    4.64
   1  -4   1   82.36    4.32
   1  -4   2  100.26    5.05
   1  -4   2   93.92    5.01
   1  -4   2   92.91    5.30
   1  -4   2   91.01    5.17
   1  -4   2   97.79    5.20
   1  -4   3  657.63   30.30
   1  -4   3  662.88   30.15
   1  -4   3  652.75   30.43
   1  -4   3  634.52   29.98
   1  -4   3  654.46   30.57
   1  -4   3  628.12   30.34
   1  -4   3  625.35   30.51
   1  -4   3  698.86   30.80
   1  -4   4   26.72    2.46
   1  -4   4   32.57    2.41
   1  -4   4   32.37    2.23
   1  -4   4   28.36    2.46
   1  -4   4   27.98    2.04
   1  -4   4   28.73    2.42
   1  -4   4   24.10    2.94
   1  -4   5  288.59   13.75
   1  -4   5  287.28   14.05
   1  -4   5  273.36   14.12
   1  -4   5  274.21   14.15
   1  -4   5  276.46   13.53
   1  -4   5  259.23   14.56
   1  -4   5  283.61   14.07
   1  -4   6  421.99   21.87
   1  -4   6  454.00   22.02
   1  -4   6  440.40   21.19
   1  -4   6  408.27   22.33
   1  -4   6  456.26   21.84
   1  -4   6  467.30   21.46
   1  -4   7  427.72   22.60
   1  -4   7  486.18   23.00
   1  -4   7  441.21   21.88
   1  -4   7  386.96   23.08
   1  -4   7  468.03   22.70
   1  -4   7  511.47   22.32
   1  -4   8  109.84    6.29
   1  -4   8   91.73    6.75
   1  -4   8  107.44    7.06
   1  -4   8   85.10    7.28
   1  -4   8  109.13    6.89
   1  -4   9    7.07    2.29
   1  -4   9    9.43    2.12
   1  -4   9    6.28    2.05
   1  -4   9    7.15    2.88
   1  -4  10   34.92    3.61
   1  -4  10   38.42    3.73
   1  -4  10   40.77    3.71
   1  -4  11   -0.15    1.26
   1  -4  11    0.61    1.64
   1  -4  11   -0.63    1.27
   1  -4  11    3.35    2.24
   1  -4  12    0.14    1.19
   1  -4  12   -0.91    1.52
   1  -3 -11    0.45    1.36
   1  -3 -11    0.86    1.61
   1  -3 -10    9.02    2.09
   1  -3 -10    4.56    2.19
   1  -3  -9    4.43    2.31
   1  -3  -9    1.90    2.21
   1  -3  -9    5.10    2.27
   1  -3  -8  164.87   10.31
   1  -3  -8  191.56   11.24
   1  -3  -8  166.20   10.48
   1  -3  -8  206.64   11.25
   1  -3  -7  196.79   11.68
   1  -3  -7  201.05   11.96
   1  -3  -7  242.07   12.28
   1  -3  -7  231.40   12.54
   1  -3  -7  200.38   11.31
   1  -3  -7  227.59   12.35
   1  -3  -6    7.50    2.20
   1  -3  -6    3.76    1.76
   1  -3  -6    6.72    1.87
   1  -3  -6    6.06    2.13
   1  -3  -6    3.23    1.55
   1  -3  -6    5.04    1.92
   1  -3  -5    0.53    1.26
   1  -3  -5    1.35    1.71
   1  -3  -5    0.66    1.33
   1  -3  -5    1.73    1.30
   1  -3  -5    1.63    1.18
   1  -3  -5    0.81    1.54
   1  -3  -5    1.24    1.31
   1  -3  -5    0.46    1.54
   1  -3  -4 1264.28   57.09
   1  -3  -4 1230.96   56.94
   1  -3  -4 1326.89   57.07
   1  -3  -4 1308.21   57.27
   1  -3  -4 1190.60   56.48
   1  -3  -4 1116.98   56.85
   1  -3  -4 1195.63   57.16
   1  -3  -4 1276.71   57.00
   1  -3  -4 1226.78   57.14
   1  -3  -4 1244.84   57.24
   1  -3  -3   17.37    1.82
   1  -3  -3   16.17    1.64
   1  -3  -3   13.74    1.66
   1  -3  -3   16.11    1.79
   1  -3  -3   19.46    1.81
   1  -3  -3   16.20    1.96
   1  -3  -3   18.62    1.97
   1  -3  -3   14.98    1.49
   1  -3  -3   16.61    1.47
   1  -3  -3   15.96    1.92
   1  -3  -2  428.72   20.27
   1  -3  -2  453.56   20.37
   1  -3  -2  427.98   20.09
   1  -3  -2  426.95   20.35
   1  -3  -2  426.68   20.27
   1  -3  -1   42.78    2.60
   1  -3  -1   41.50    2.55
   1  -3  -1   44.25    2.71
   1  -3  -1   41.24    2.53
   1  -3   0  794.00   36.92
   1  -3   0  834.04   37.30
   1  -3   0  784.63   37.14
   1  -3   0  830.25   37.25
   1  -3   0  851.85   37.38
   1  -3   1 1242.11   57.01
   1  -3   1 1213.84   57.02
   1  -3   1 1240.43   57.22
   1  -3   1 1343.49   57.29
   1  -3   2    0.40    0.83
   1  -3   2   -0.05    0.59
   1  -3   2    0.48    0.57
   1  -3   2    0.28    1.13
   1  -3   2    1.03    0.83
   1  -3   2    0.56    0.59
   1  -3   3  423.49   19.88
   1  -3   3  434.43   20.10
   1  -3   3  417.86   20.18
   1  -3   3  424.62   20.08
   1  -3   3  426.86   20.14
   1  -3   4  225.47   10.94
   1  -3   4  239.02   11.36
   1  -3   4  222.21   11.51
   1  -3   4  211.81   11.39
   1  -3   4  218.18   11.73
   1  -3   4  234.78   11.09
   1  -3   5  123.99    7.03
   1  -3   5  130.40    6.92
   1  -3   5  123.79    6.51
   1  -3   5  126.60    6.94
   1  -3   5  132.47    6.67
   1  -3   6   -1.34    1.47
   1  -3   6    0.22    0.81
   1  -3   6    1.19    0.87
   1  -3   6    1.98    1.23
   1  -3   7   92.20    5.44
   1  -3   7   96.75    6.04
   1  -3   7   97.96    5.60
   1  -3   8   75.62    5.90
   1  -3   8   84.95    5.79
   1  -3   8   67.61    6.21
   1  -3   8   90.90    5.39
   1  -3   9   35.76    3.81
   1  -3   9   42.93    4.00
   1  -3   9   42.69    3.81
   1  -3  10   29.82    3.37
   1  -3  10   32.75    3.47
   1  -3  10   26.54    3.11
   1  -3  11    8.52    1.90
   1  -3  11   15.08    2.08
   1  -3  11   12.60    2.71
   1  -3  12    0.45    1.43
   1  -2 -11    8.03    2.00
   1  -2 -11    7.01    2.16
   1  -2 -10    0.63    1.68
   1  -2 -10    1.47    2.00
   1  -2  -9    0.29    2.29
   1  -2  -9    1.21    1.97
   1  -2  -9   -1.24    2.14
   1  -2  -9   -0.18    1.34
   1  -2  -9    1.02    1.95
   1  -2  -8   72.17    6.14
   1  -2  -8   87.29    5.59
   1  -2  -8   88.65    6.70
   1  -2  -8   72.22    5.78
   1  -2  -8   87.27    6.33
   1  -2  -7    2.88    1.91
   1  -2  -7   -0.41    1.87
   1  -2  -7    1.80    1.27
   1  -2  -7    2.53    2.15
   1  -2  -7    1.01    1.74
   1  -2  -7   -0.12    1.14
   1  -2  -6   45.07    4.13
   1  -2  -6   55.23    4.47
   1  -2  -6   49.44    3.58
   1  -2  -6   54.55    3.63
   1  -2  -6   41.39    3.94
   1  -2  -6   49.86    4.05
   1  -2  -5  190.39   10.26
   1  -2  -5  207.98   10.51
   1  -2  -5  219.73   10.63
   1  -2  -5  212.05    9.68
   1  -2  -5  203.59   10.77
   1  -2  -5  187.82   10.16
   1  -2  -5  178.72   10.39
   1  -2  -5  204.38   10.78
   1  -2  -5  199.03   10.88
   1  -2  -5  201.95   10.33
   1  -2  -5  204.75    9.78
   1  -2  -5  202.82   10.78
   1  -2  -5  202.28   10.71
   1  -2  -4  146.83    7.80
   1  -2  -4  148.91    7.84
   1  -2  -4  152.36    7.15
   1  -2  -4  149.24    8.04
   1  -2  -4  153.70    7.68
   1  -2  -4  146.82    7.89
   1  -2  -4  143.23    8.00
   1  -2  -4  159.37    8.18
   1  -2  -4  147.15    7.23
   1  -2  -4  153.42    7.77
   1  -2  -4  142.75    7.96
   1  -2  -3  102.94    4.75
   1  -2  -3  105.44    5.39
   1  -2  -3   93.72    5.39
   1  -2  -3   95.51    5.18
   1  -2  -3   96.87    4.81
   1  -2  -3  102.31    5.27
   1  -2  -2 1304.68   60.81
   1  -2  -2 1345.88   60.86
   1  -2  -2 1345.14   60.70
   1  -2  -1   65.15    3.49
   1  -2   0   26.44    1.72
   1  -2   0   26.55    1.43
   1  -2   0   24.74    1.48
   1  -2   0   26.18    1.62
   1  -2   1 1525.95   70.65
   1  -2   1 1504.73   70.91
   1  -2   1 1568.79   70.77
   1  -2   1 1665.41   70.95
   1  -2   1 1560.14   70.84
   1  -2   2   14.96    1.21
   1  -2   2   12.91    1.24
   1  -2   2   10.28    1.50
   1  -2   2   11.41    0.99
   1  -2   3  821.61   38.10
   1  -2   3  848.83   38.37
   1  -2   3  808.33   38.20
   1  -2   3  831.49   37.93
   1  -2   4    2.11    0.76
   1  -2   4    0.88    0.68
   1  -2   4    0.17    0.62
   1  -2   4   -0.50    1.08
   1  -2   4    1.56    0.91
   1  -2   4    0.09    1.04
   1  -2   5  140.26    7.84
   1  -2   5  155.23    7.79
   1  -2   5  144.90    7.41
   1  -2   5  137.80    7.68
   1  -2   5  124.56    7.80
   1  -2   5  126.32    7.68
   1  -2   5  152.70    7.76
   1  -2   5  157.52    7.54
   1  -2   6   34.81    3.25
   1  -2   6   41.04    2.94
   1  -2   6   38.79    3.22
   1  -2   6   43.98    3.01
   1  -2   7  161.57    8.97
   1  -2   7  178.38    9.53
   1  -2   7  183.68    9.17
   1  -2   8   -0.20    1.87
   1  -2   8    1.04    1.05
   1  -2   8   -0.43    1.06
   1  -2   8    0.19    1.32
   1  -2   9   51.11    4.74
   1  -2   9   62.45    4.78
   1  -2  10    8.75    2.43
   1  -2  10   12.23    2.22
   1  -2  10   12.61    3.21
   1  -2  11    1.24    1.37
   1  -2  11   -0.62    1.20
   1  -2  11   -0.44    2.03
   1  -2  12    2.33    1.34
   1  -1 -12    1.40    1.30
   1  -1 -11    3.47    1.85
   1  -1 -11    1.54    1.23
   1  -1 -10    0.44    1.70
   1  -1 -10    1.61    2.43
   1  -1 -10   -0.58    1.55
   1  -1  -9   -0.93    1.83
   1  -1  -9   -1.09    2.42
   1  -1  -9   -1.41    1.50
   1  -1  -9    0.57    2.21
   1  -1  -8   -0.36    1.64
   1  -1  -8    0.19    1.54
   1  -1  -8    0.25    1.95
   1  -1  -8    0.77    2.17
   1  -1  -7  179.93    9.85
   1  -1  -7  172.57   10.01
   1  -1  -7  161.61    9.73
   1  -1  -7  171.03   10.48
   1  -1  -7  181.23   10.56
   1  -1  -7  190.07    9.28
   1  -1  -6 2178.49   96.48
   1  -1  -6 2183.71   96.30
   1  -1  -6 2086.51   96.88
   1  -1  -6 1839.73   95.98
   1  -1  -6 2078.32   95.79
   1  -1  -6 2159.97   96.91
   1  -1  -6 1977.72   95.69
   1  -1  -6 2360.03   95.83
   1  -1  -6 2071.34   96.26
   1  -1  -5   18.59    1.38
   1  -1  -5   16.55    1.86
   1  -1  -5   13.48    2.02
   1  -1  -5   12.55    1.81
   1  -1  -5   16.01    2.29
   1  -1  -5   14.20    1.82
   1  -1  -5   12.56    1.76
   1  -1  -5   12.47    1.72
   1  -1  -5   11.79    2.14
   1  -1  -5   16.94    1.44
   1  -1  -4   54.22    2.95
   1  -1  -4   52.85    3.34
   1  -1  -4   51.18    3.39
   1  -1  -4   55.14    3.04
   1  -1  -3  497.87   23.29
   1  -1  -3  547.23   23.64
   1  -1  -3  524.03   23.74
   1  -1  -3  486.88   23.35
   1  -1  -2 4821.69  212.06
   1  -1  -2 4561.12  212.01
   1  -1  -1  746.39   35.41
   1  -1  -1  746.79   35.41
   1  -1  -1  839.61   35.53
   1  -1  -1  780.28   35.44
   1  -1  -1  787.92   35.30
   1  -1   0   23.07    1.29
   1  -1   0   24.23    1.46
   1  -1   0   21.85    1.30
   1  -1   0   23.39    1.31
   1  -1   0   22.39    1.31
   1  -1   1 2402.79  114.03
   1  -1   1 2684.10  114.18
   1  -1   2  181.10    8.89
   1  -1   2  183.64    8.59
   1  -1   3  124.81    6.27
   1  -1   3  125.11    6.46
   1  -1   3  119.01    6.29
   1  -1   3  123.10    6.09
   1  -1   4  690.94   30.78
   1  -1   4  627.97   30.51
   1  -1   4  619.47   30.82
   1  -1   4  639.00   30.74
   1  -1   4  697.21   30.77
   1  -1   4  688.68   30.60
   1  -1   5   67.17    4.04
   1  -1   5   62.52    3.79
   1  -1   5   56.02    4.01
   1  -1   5   54.48    3.92
   1  -1   5   69.89    4.07
   1  -1   5   72.73    3.96
   1  -1   6  174.44    9.50
   1  -1   6  182.34    9.53
   1  -1   6  175.07    9.78
   1  -1   6  202.63    9.66
   1  -1   7  203.44   11.45
   1  -1   7  220.23   11.51
   1  -1   7  226.08   11.93
   1  -1   7  244.09   11.73
   1  -1   8    2.87    1.81
   1  -1   8    7.64    1.54
   1  -1   8    3.73    1.29
   1  -1   8    4.24    1.53
   1  -1   9   -1.09    2.00
   1  -1   9   -0.83    1.38
   1  -1  10    6.66    2.10
   1  -1  10    7.54    1.85
   1  -1  11    2.90    1.98
   1  -1  11    3.42    1.56
   1   0 -12    2.84    1.55
   1   0 -12   -0.39    1.05
   1   0 -12    1.40    1.65
   1   0 -11    5.34    2.11
   1   0 -11    3.92    2.39
   1   0 -11    4.42    1.72
   1   0 -11    6.20    2.30
   1   0 -10    0.89    1.81
   1   0 -10    0.59    2.40
   1   0 -10    1.11    1.62
   1   0 -10    1.77    2.06
   1   0  -9    1.74    1.67
   1   0  -9    2.60    2.72
   1   0  -9    2.40    1.33
   1   0  -9    6.05    2.40
   1   0  -8    0.26    2.34
   1   0  -8    0.97    1.52
   1   0  -8   -0.32    1.53
   1   0  -8   -0.45    1.14
   1   0  -8    0.21    1.80
   1   0  -8    0.42    0.92
   1   0  -7    0.98    1.48
   1   0  -7   -0.43    2.12
   1   0  -7    0.33    1.39
   1   0  -7    0.64    1.03
   1   0  -7    2.02    0.99
   1   0  -7    0.87    1.65
   1   0  -6  100.72    6.71
   1   0  -6   95.37    6.10
   1   0  -6  110.73    5.71
   1   0  -6   99.11    5.98
   1   0  -6  107.41    6.17
   1   0  -6   88.79    5.91
   1   0  -6  103.28    5.85
   1   0  -6  112.63    5.80
   1   0  -6  107.65    6.34
   1   0  -6   93.64    5.92
   1   0  -5   55.63    4.15
   1   0  -5   57.11    3.29
   1   0  -5   55.95    3.60
   1   0  -5   54.70    3.69
   1   0  -5   53.68    3.65
   1   0  -5   55.05    3.68
   1   0  -5   52.16    3.67
   1   0  -5   48.44    3.59
   1   0  -5   53.94    3.97
   1   0  -5   56.57    3.38
   1   0  -5   50.63    3.68
   1   0  -5   55.11    2.94
   1   0  -4  163.32    8.11
   1   0  -4  170.82    8.34
   1   0  -4  159.66    8.19
   1   0  -4  169.55    8.44
   1   0  -4  171.73    7.83
   1   0  -4  159.73    8.40
   1   0  -4  166.19    7.82
   1   0  -4  159.82    7.84
   1   0  -3 4460.42  204.32
   1   0  -3 4512.81  204.44
   1   0  -3 4601.58  204.52
   1   0  -3 4500.42  204.38
   1   0  -2   33.22    2.08
   1   0  -2   29.72    1.81
   1   0  -2   32.33    1.72
   1   0  -2   28.36    1.78
   1   0  -2   32.95    1.72
   1   0  -2   30.61    1.79
   1   0  -1   39.49    2.05
   1   0  -1   37.42    2.10
   1   0  -1   37.41    1.91
   1   0  -1   38.60    2.01
   1   0   0  367.46   16.90
   1   0   0  371.13   16.81
   1   0   0  371.22   16.76
   1   0   0  362.77   16.90
   1   0   1  366.54   16.84
   1   0   1  359.47   17.01
   1   0   1  373.33   16.99
   1   0   1  374.84   16.87
   1   0   1  367.26   16.84
   1   0   2   67.09    3.57
   1   0   2   70.10    3.51
   1   0   2   68.41    3.61
   1   0   2   68.12    3.22
   1   0   2   70.74    3.51
   1   0   2   67.31    3.22
   1   0   3   44.52    2.53
   1   0   3   38.45    2.53
   1   0   3   36.98    2.43
   1   0   3   45.74    2.53
   1   0   4 1833.48   82.18
   1   0   4 1681.53   82.08
   1   0   4 1674.15   82.06
   1   0   4 1950.95   82.22
   1   0   4 1883.66   82.10
   1   0   5  860.25   36.17
   1   0   5  668.57   35.84
   1   0   5  685.46   35.85
   1   0   5  859.88   36.20
   1   0   5  845.67   36.06
   1   0   6    0.34    0.77
   1   0   6   -0.46    0.97
   1   0   7   86.05    5.37
   1   0   7   82.39    5.61
   1   0   7   85.96    5.34
   1   0   8   54.15    4.36
   1   0   8   65.41    4.47
   1   0   8   60.11    4.81
   1   0   8   66.00    4.44
   1   0   9   -1.53    1.88
   1   0   9    0.16    1.07
   1   0   9    1.02    1.49
   1   0  10    0.78    1.68
   1   0  10    5.37    1.66
   1   0  11    2.03    1.24
   1   0  11    1.68    1.79
   1   1 -12    3.43    1.46
   1   1 -12    1.11    1.67
   1   1 -11   14.04    2.57
   1   1 -11    6.27    2.81
   1   1 -11   12.34    2.46
   1   1 -11    9.83    2.45
   1   1 -10   29.41    3.62
   1   1 -10   21.95    4.23
   1   1 -10   35.40    3.79
   1   1 -10   32.82    3.25
   1   1 -10   31.22    4.05
   1   1  -9   34.46    4.79
   1   1  -9   54.46    4.55
   1   1  -9   50.21    4.01
   1   1  -9   34.15    4.37
   1   1  -9   54.15    4.70
   1   1  -8  207.76   13.56
   1   1  -8  237.65   13.11
   1   1  -8  246.97   12.73
   1   1  -8  214.67   13.21
   1   1  -8  222.60   13.00
   1   1  -7  451.49   21.92
   1   1  -7  479.98   22.89
   1   1  -7  474.53   22.52
   1   1  -7  426.41   22.99
   1   1  -7  529.53   22.55
   1   1  -7  436.75   23.31
   1   1  -7  442.15   21.93
   1   1  -7  446.31   22.71
   1   1  -6    0.34    0.60
   1   1  -6    0.08    0.77
   1   1  -6   -0.24    1.25
   1   1  -6    1.50    1.57
   1   1  -6    1.76    1.32
   1   1  -6   -0.13    1.11
   1   1  -6    0.32    1.23
   1   1  -6    1.27    1.13
   1   1  -6    1.71    1.02
   1   1  -6    0.49    0.80
   1   1  -6    0.13    1.44
   1   1  -5  724.45   34.86
   1   1  -5  781.40   35.09
   1   1  -5  756.93   35.22
   1   1  -5  754.58   35.41
   1   1  -5  736.22   35.33
   1   1  -5  754.14   35.24
   1   1  -5  770.98   35.51
   1   1  -5  763.13   34.47
   1   1  -5  771.13   35.17
   1   1  -5  764.60   34.47
   1   1  -5  711.15   34.86
   1   1  -5  752.06   35.31
   1   1  -5  761.58   34.78
   1   1  -4   92.51    4.77
   1   1  -4   79.99    4.98
   1   1  -4   91.04    4.85
   1   1  -4   90.34    4.38
   1   1  -4   89.51    4.37
   1   1  -4   83.79    4.56
   1   1  -3   66.46    3.59
   1   1  -3   63.14    3.30
   1   1  -3   70.84    3.80
   1   1  -3   69.44    3.63
   1   1  -3   61.99    3.30
   1   1  -3   65.04    3.45
   1   1  -2  788.70   38.01
   1   1  -2  918.25   38.25
   1   1  -2  883.73   38.20
   1   1  -2  799.75   38.02
   1   1  -1 3670.91  166.17
   1   1   0  160.54    8.01
   1   1   0  192.81    7.89
   1   1   0  165.22    7.76
   1   1   0  165.34    8.00
   1   1   0  170.43    8.01
   1   1   1  479.06   22.43
   1   1   1  510.90   22.26
   1   1   1  479.96   22.18
   1   1   1  478.19   22.29
   1   1   1  491.25   22.36
   1   1   1  491.02   22.36
   1   1   2   36.59    2.16
   1   1   2   33.63    2.00
   1   1   2   32.34    1.98
   1   1   2   39.61    1.96
   1   1   2   39.47    2.11
   1   1   2   39.24    1.96
   1   1   3    3.55    0.64
   1   1   3    3.48    0.35
   1   1   3    2.93    0.63
   1   1   3    2.61    0.66
   1   1   3    3.27    0.34
   1   1   3    3.92    0.64
   1   1   4  891.01   37.96
   1   1   4  752.42   37.62
   1   1   4  758.11   37.71
   1   1   4  940.25   38.05
   1   1   5    2.62    0.90
   1   1   5    3.53    0.80
   1   1   5    3.00    0.93
   1   1   5    4.10    0.93
   1   1   6   93.94    5.61
   1   1   7   36.59    3.20
   1   1   7   39.85    3.21
   1   1   8   10.69    2.07
   1   1   8   15.93    2.10
   1   1   8   13.12    2.02
   1   1   9   20.27    2.61
   1   1   9   26.35    2.74
   1   1   9   29.18    3.20
   1   1  10   -0.18    1.63
   1   1  10    0.34    1.15
   1   1  11    3.00    1.67
   1   2 -12   13.08    2.33
   1   2 -12   11.05    2.17
   1   2 -12   12.77    2.37
   1   2 -11   47.18    4.34
   1   2 -11   51.09    4.38
   1   2 -11   32.96    4.59
   1   2 -11   44.24    3.78
   1   2 -11   34.78    4.03
   1   2 -10    3.40    2.14
   1   2 -10    3.43    3.03
   1   2 -10    1.47    1.85
   1   2 -10   -0.63    1.53
   1   2 -10    1.70    2.09
   1   2  -9   12.76    2.59
   1   2  -9    7.53    2.01
   1   2  -9   10.19    2.47
   1   2  -9    9.87    1.90
   1   2  -8   87.98    5.34
   1   2  -8   88.50    6.12
   1   2  -8   90.28    5.99
   1   2  -8   69.24    6.03
   1   2  -8   98.89    5.90
   1   2  -8   94.73    5.47
   1   2  -8   71.37    5.87
   1   2  -8   89.05    5.10
   1   2  -7  196.80   10.16
   1   2  -7  180.64   11.29
   1   2  -7  196.56   10.61
   1   2  -7  179.79   10.87
   1   2  -7  216.35   10.63
   1   2  -7  195.84   10.19
   1   2  -7  187.62   10.61
   1   2  -7  202.24   10.02
   1   2  -6  283.39   14.28
   1   2  -6  303.14   14.68
   1   2  -6  284.57   15.23
   1   2  -6  291.47   14.71
   1   2  -6  295.61   13.58
   1   2  -6  268.66   14.91
   1   2  -6  316.59   14.66
   1   2  -6  291.25   13.57
   1   2  -6  278.47   14.29
   1   2  -6  285.88   14.63
   1   2  -6  297.44   14.19
   1   2  -5  612.62   29.56
   1   2  -5  651.03   29.74
   1   2  -5  640.44   29.80
   1   2  -5  641.26   30.27
   1   2  -5  627.46   29.93
   1   2  -5  591.06   29.91
   1   2  -5  612.77   29.86
   1   2  -5  625.52   29.94
   1   2  -5  687.23   29.86
   1   2  -5  641.23   29.10
   1   2  -5  619.73   29.59
   1   2  -5  628.51   29.49
   1   2  -5  640.25   29.09
   1   2  -4  153.38    7.89
   1   2  -4  157.81    7.94
   1   2  -4  154.03    7.53
   1   2  -4  152.55    7.90
   1   2  -4  160.12    7.55
   1   2  -4  156.76    7.84
   1   2  -3 2606.83  114.66
   1   2  -3 2431.57  114.50
   1   2  -3 2537.16  114.29
   1   2  -3 2501.02  114.28
   1   2  -3 2535.72  114.47
   1   2  -2 2980.93  120.11
   1   2  -2 2531.31  119.98
   1   2  -2 2593.31  119.92
   1   2  -2 2639.88  120.00
   1   2  -2 2594.94  119.92
   1   2  -2 2606.82  119.98
   1   2  -1 3836.95  156.08
   1   2  -1 3284.55  156.09
   1   2  -1 3345.30  156.15
   1   2  -1 3300.71  156.09
   1   2   0   57.62    3.05
   1   2   0   56.06    3.03
   1   2   0   58.53    2.70
   1   2   0   51.85    2.94
   1   2   0   57.28    2.80
   1   2   0   55.57    3.07
   1   2   0   52.45    2.94
   1   2   1  275.96   12.94
   1   2   1  265.13   12.86
   1   2   1  280.92   12.69
   1   2   1  270.54   12.78
   1   2   1  286.77   12.89
   1   2   1  270.76   12.93
   1   2   2  894.38   40.11
   1   2   2  816.69   39.92
   1   2   2  899.03   40.09
   1   2   2  897.86   40.04
   1   2   2  893.97   40.04
   1   2   3  179.76    7.49
   1   2   3  155.87    7.29
   1   2   3  173.87    7.18
   1   2   3  187.76    7.59
   1   2   3  176.34    7.18
   1   2   4  240.65   11.02
   1   2   4  244.24   11.16
   1   2   5  166.19    8.75
   1   2   6   61.17    4.04
   1   2   6   72.41    4.55
   1   2   7   12.02    1.75
   1   2   7    6.23    1.64
   1   2   8    3.73    1.28
   1   2   8    1.41    1.27
   1   2   9    3.10    1.53
   1   2   9    7.53    1.59
   1   2   9    4.56    1.72
   1   2  10    4.49    1.68
   1   3 -12   12.91    2.28
   1   3 -12    9.31    1.75
   1   3 -12    7.81    2.12
   1   3 -11   -0.22    1.74
   1   3 -11    2.55    1.93
   1   3 -11   -0.82    1.48
   1   3 -11    1.11    1.97
   1   3 -10   73.56    5.94
   1   3 -10   78.97    5.85
   1   3 -10   60.17    6.23
   1   3 -10   69.16    5.75
   1   3  -9  112.96    6.94
   1   3  -9  124.82    7.71
   1   3  -9  114.89    6.99
   1   3  -9  106.64    7.46
   1   3  -8  204.44   11.01
   1   3  -8  192.58   10.37
   1   3  -8  158.46   11.25
   1   3  -8  182.82   10.86
   1   3  -8  208.06   10.85
   1   3  -8  183.48   10.33
   1   3  -8  188.85   10.78
   1   3  -8  204.76   10.24
   1   3  -7   15.92    1.85
   1   3  -7   16.78    2.00
   1   3  -7   18.30    2.38
   1   3  -7   15.79    2.30
   1   3  -7   15.39    2.45
   1   3  -7   16.98    2.20
   1   3  -7   18.82    2.10
   1   3  -7   15.91    2.90
   1   3  -7   16.42    2.36
   1   3  -6  418.71   19.58
   1   3  -6  411.91   20.27
   1   3  -6  414.99   19.84
   1   3  -6  392.27   19.85
   1   3  -6  366.15   19.72
   1   3  -6  423.15   19.76
   1   3  -6  397.58   18.79
   1   3  -6  412.31   19.59
   1   3  -6  399.27   19.65
   1   3  -6  423.64   19.90
   1   3  -6  424.01   19.47
   1   3  -6  384.79   18.76
   1   3  -5 1388.73   62.02
   1   3  -5 1332.14   62.08
   1   3  -5 1367.99   61.47
   1   3  -5 1327.77   62.15
   1   3  -5 1218.88   62.14
   1   3  -5 1295.14   61.62
   1   3  -5 1381.46   62.04
   1   3  -5 1363.64   61.47
   1   3  -5 1384.61   62.48
   1   3  -5 1388.44   61.95
   1   3  -4  211.06   10.52
   1   3  -4  206.88   10.50
   1   3  -4  207.33   10.15
   1   3  -4  206.88   10.60
   1   3  -4  198.72   10.64
   1   3  -4  217.37   10.56
   1   3  -4  216.92   10.58
   1   3  -4  208.30   10.16
   1   3  -4  218.04   10.49
   1   3  -3  242.35   11.42
   1   3  -3  253.46   11.58
   1   3  -3  228.90   11.12
   1   3  -3  227.93   11.39
   1   3  -3  221.40   11.22
   1   3  -3  247.33   11.46
   1   3  -3  229.60   11.24
   1   3  -2  233.36   11.15
   1   3  -2  247.44   11.12
   1   3  -2  234.07   11.04
   1   3  -2  227.92   11.15
   1   3  -2  217.11   11.03
   1   3  -2  229.64   11.05
   1   3  -2  221.49   11.05
   1   3  -1  270.28   13.15
   1   3  -1  300.19   13.09
   1   3  -1  273.38   13.29
   1   3  -1  270.15   13.18
   1   3   0   18.76    1.53
   1   3   0   17.09    1.48
   1   3   0   20.12    1.33
   1   3   0   19.33    1.38
   1   3   0   19.87    1.40
   1   3   1   48.01    2.86
   1   3   1   48.79    2.88
   1   3   1   46.68    2.63
   1   3   1   48.06    2.68
   1   3   1   49.26    2.85
   1   3   1   50.40    2.69
   1   3   2  120.48    5.75
   1   3   2  115.65    5.69
   1   3   2   99.78    5.60
   1   3   2  116.35    5.82
   1   3   2  115.85    5.89
   1   3   2  118.68    5.87
   1   3   2  118.53    5.87
   1   3   3  181.87    8.71
   1   3   3  185.09    8.69
   1   3   3  154.26    8.58
   1   3   3  187.45    8.92
   1   3   3  186.65    8.84
   1   3   3  178.11    8.68
   1   3   3  178.43    8.68
   1   3   4    1.25    0.81
   1   3   4    0.77    0.64
   1   3   5   22.20    2.60
   1   3   5   31.50    2.32
   1   3   6    0.16    1.03
   1   3   6   -0.53    1.04
   1   3   7  116.43    7.08
   1   3   8   21.96    2.41
   1   3   8   21.45    2.61
   1   3   9    5.25    1.62
   1   3   9    5.24    1.38
   1   3   9    8.11    1.77
   1   4 -12   -0.33    1.30
   1   4 -12   -1.00    1.43
   1   4 -11   29.27    3.45
   1   4 -11   21.31    3.85
   1   4 -11   28.39    3.46
   1   4 -10   60.37    4.39
   1   4 -10   55.32    4.97
   1   4 -10   57.02    4.97
   1   4 -10   55.45    4.93
   1   4 -10   52.41    5.53
   1   4 -10   74.88    5.13
   1   4 -10   53.54    4.30
   1   4 -10   52.14    4.77
   1   4  -9   14.80    2.02
   1   4  -9    7.02    3.05
   1   4  -9   12.08    2.57
   1   4  -9   18.40    2.75
   1   4  -9   18.87    2.53
   1   4  -9   11.64    2.39
   1   4  -8   69.03    4.78
   1   4  -8   57.54    5.55
   1   4  -8   68.91    5.22
   1   4  -8   60.95    5.04
   1   4  -8   74.15    5.07
   1   4  -8   71.45    4.94
   1   4  -8   57.19    4.78
   1   4  -8   69.64    4.65
   1   4  -7   68.05    4.55
   1   4  -7   62.48    5.14
   1   4  -7   57.42    4.53
   1   4  -7   62.29    4.46
   1   4  -7   63.26    4.54
   1   4  -7   66.86    4.36
   1   4  -6  216.92   10.96
   1   4  -6  212.19   11.14
   1   4  -6  194.14   11.29
   1   4  -6  193.67   10.99
   1   4  -6  220.37   11.06
   1   4  -6  207.14   10.50
   1   4  -6  212.57   10.96
   1   4  -6  203.47   10.76
   1   4  -6  210.43   10.83
   1   4  -6  202.81   11.10
   1   4  -5   21.20    2.24
   1   4  -5   31.00    2.83
   1   4  -5   25.94    2.56
   1   4  -5   22.04    1.77
   1   4  -5   22.37    2.28
   1   4  -5   25.00    2.31
   1   4  -5   22.43    2.08
   1   4  -5   23.00    2.39
   1   4  -5   24.76    2.39
   1   4  -5   21.23    1.75
   1   4  -5   28.26    2.32
   1   4  -4  743.59   35.01
   1   4  -4  739.28   35.12
   1   4  -4  737.15   35.07
   1   4  -4  742.12   34.54
   1   4  -4  755.26   34.99
   1   4  -4  772.45   34.94
   1   4  -4  743.39   34.69
   1   4  -4  777.38   35.05
   1   4  -4  737.67   34.69
   1   4  -3    1.05    0.66
   1   4  -3    0.89    0.99
   1   4  -3    0.42    1.06
   1   4  -3    1.21    0.73
   1   4  -3    1.42    0.76
   1   4  -3    0.85    1.03
   1   4  -3    0.26    0.72
   1   4  -3    3.14    0.93
   1   4  -3    0.64    1.04
   1   4  -2    5.19    0.94
   1   4  -2    5.35    1.13
   1   4  -2    6.74    1.08
   1   4  -2    6.28    0.95
   1   4  -2    5.73    0.96
   1   4  -2    5.95    1.21
   1   4  -2    8.69    1.14
   1   4  -2    5.91    0.93
   1   4  -2    5.12    1.24
   1   4  -2    5.24    1.07
   1   4  -1   38.39    2.66
   1   4  -1   36.24    2.59
   1   4  -1   37.84    2.63
   1   4  -1   47.14    2.37
   1   4  -1   38.20    2.41
   1   4  -1   44.30    2.84
   1   4  -1   35.58    2.64
   1   4  -1   41.24    2.68
   1   4  -1   39.67    2.46
   1   4   0 3503.84  158.20
   1   4   0 3450.06  158.30
   1   4   0 3440.93  158.30
   1   4   0 3517.72  157.99
   1   4   0 3446.89  157.88
   1   4   0 3584.94  158.37
   1   4   0 3464.04  158.21
   1   4   0 3503.73  158.23
   1   4   0 3466.93  157.96
   1   4   1  686.49   32.49
   1   4   1  708.29   32.64
   1   4   1  706.24   32.64
   1   4   1  705.05   32.22
   1   4   1  713.70   32.37
   1   4   1  687.73   32.14
   1   4   1  692.47   32.51
   1   4   1  702.76   32.52
   1   4   1  709.50   32.24
   1   4   2    3.65    0.86
   1   4   2    5.31    0.88
   1   4   2    6.62    0.98
   1   4   2    5.70    0.70
   1   4   2    4.63    0.64
   1   4   2    5.69    0.86
   1   4   2    3.78    0.87
   1   4   2    4.66    0.87
   1   4   3   16.02    1.51
   1   4   3   12.38    1.57
   1   4   3   14.01    1.32
   1   4   4    0.24    0.91
   1   4   5   43.04    3.97
   1   4   5   53.90    3.54
   1   4   6   74.49    4.74
   1   4   6   80.52    5.04
   1   4   7   61.92    4.49
   1   4   7   78.95    5.09
   1   4   8    9.13    1.85
   1   4   9    0.27    1.23
   1   5 -12    0.17    1.36
   1   5 -12   -0.33    1.34
   1   5 -12   -0.43    1.27
   1   5 -11    3.20    1.34
   1   5 -11    2.09    2.34
   1   5 -11    3.39    1.81
   1   5 -11    1.07    1.63
   1   5 -11    2.94    1.30
   1   5 -11    1.84    1.72
   1   5 -10    0.32    1.01
   1   5 -10   -0.19    1.20
   1   5 -10   -1.12    2.27
   1   5 -10    0.46    1.79
   1   5 -10    1.89    1.70
   1   5 -10    0.77    1.33
   1   5 -10   -0.89    1.33
   1   5 -10    2.82    1.77
   1   5  -9   -0.18    1.16
   1   5  -9   -0.79    1.49
   1   5  -9    0.27    2.32
   1   5  -9    0.66    1.63
   1   5  -9   -0.80    1.52
   1   5  -9    0.39    1.60
   1   5  -8  112.18    7.02
   1   5  -8   95.36    7.49
   1   5  -8  110.44    7.18
   1   5  -8  112.44    7.11
   1   5  -8  114.39    7.09
   1   5  -8   99.56    6.77
   1   5  -8  124.00    6.98
   1   5  -7  164.99    9.27
   1   5  -7  158.14    9.66
   1   5  -7  162.40    9.33
   1   5  -7  153.75    9.40
   1   5  -7  155.04    8.69
   1   5  -7  172.82    9.41
   1   5  -7  165.79    9.34
   1   5  -7  159.58    8.98
   1   5  -7  178.10    9.28
   1   5  -6    8.52    1.62
   1   5  -6    7.81    1.72
   1   5  -6    7.34    1.56
   1   5  -6    8.40    1.88
   1   5  -6    6.53    1.92
   1   5  -6    6.50    1.42
   1   5  -6    7.40    1.52
   1   5  -6    6.88    1.71
   1   5  -6    6.90    1.52
   1   5  -5  224.28   10.88
   1   5  -5  199.92   10.57
   1   5  -5  204.91   10.81
   1   5  -5  195.37   10.24
   1   5  -5  193.88   10.03
   1   5  -5  199.31   10.62
   1   5  -5  207.20   10.63
   1   5  -5  202.62   10.39
   1   5  -5  200.69   10.28
   1   5  -5  226.29   10.85
   1   5  -4 2066.23   91.99
   1   5  -4 1962.73   91.40
   1   5  -4 1951.85   91.90
   1   5  -4 2010.04   91.92
   1   5  -4 1961.22   91.48
   1   5  -4 2076.83   91.84
   1   5  -4 2010.75   91.88
   1   5  -4 2092.11   92.05
   1   5  -4 2014.62   91.67
   1   5  -4 2024.28   91.81
   1   5  -4 1967.86   91.50
   1   5  -4 1978.79   91.65
   1   5  -3   63.17    4.05
   1   5  -3   59.76    3.78
   1   5  -3   59.96    3.83
   1   5  -3   62.28    3.90
   1   5  -3   61.67    3.77
   1   5  -3   56.26    3.70
   1   5  -3   60.54    3.99
   1   5  -3   65.81    4.13
   1   5  -3   67.85    4.08
   1   5  -3   60.85    3.81
   1   5  -3   61.02    3.82
   1   5  -2    6.94    1.39
   1   5  -2    7.18    1.09
   1   5  -2   11.06    1.38
   1   5  -2    9.42    1.22
   1   5  -2    9.35    1.29
   1   5  -2    7.74    1.28
   1   5  -2   10.68    1.26
   1   5  -2    8.56    1.57
   1   5  -2    9.30    1.44
   1   5  -1  521.05   24.47
   1   5  -1  527.24   24.58
   1   5  -1  530.06   24.59
   1   5  -1  510.74   24.57
   1   5  -1  500.38   24.07
   1   5  -1  532.33   24.68
   1   5  -1  523.08   24.50
   1   5  -1  524.15   24.51
   1   5  -1  506.33   24.18
   1   5   0   86.13    4.99
   1   5   0   95.52    5.21
   1   5   0   88.22    5.15
   1   5   0   87.06    4.81
   1   5   0   86.44    5.21
   1   5   0   86.32    5.22
   1   5   0   81.40    4.98
   1   5   0   89.61    5.04
   1   5   0   92.92    4.70
   1   5   1    5.38    1.04
   1   5   1    3.30    1.25
   1   5   1    5.94    1.26
   1   5   1    4.22    0.83
   1   5   1    6.31    1.11
   1   5   1    3.64    0.96
   1   5   2   10.13    1.57
   1   5   2   10.52    1.65
   1   5   2   12.03    1.36
   1   5   3  342.70   16.48
   1   5   3  332.21   16.18
   1   5   3  309.94   16.30
   1   5   4   28.56    3.50
   1   5   4   48.04    3.39
   1   5   5    2.41    1.77
   1   5   5    2.21    1.10
   1   5   5    0.34    1.39
   1   5   6    4.85    1.50
   1   5   6    2.36    1.63
   1   5   6    5.98    2.04
   1   5   6    6.22    1.62
   1   5   7   34.39    3.13
   1   5   7   45.73    3.57
   1   5   8    1.86    1.19
   1   6 -12   40.87    3.43
   1   6 -12   41.77    3.49
   1   6 -11   45.23    3.66
   1   6 -11   43.59    3.92
   1   6 -11   46.41    4.15
   1   6 -11   45.91    3.73
   1   6 -10   10.41    1.85
   1   6 -10   10.81    2.05
   1   6 -10    9.96    2.83
   1   6 -10    9.96    2.30
   1   6 -10    9.59    1.98
   1   6 -10    7.97    1.98
   1   6  -9    2.46    1.37
   1   6  -9    0.83    1.45
   1   6  -9    1.01    2.17
   1   6  -9    0.42    1.61
   1   6  -9    0.46    1.71
   1   6  -9   -0.21    1.55
   1   6  -9    0.65    1.32
   1   6  -9    1.61    1.56
   1   6  -8   85.97    5.94
   1   6  -8   82.14    5.85
   1   6  -8   86.54    6.21
   1   6  -8   80.42    5.23
   1   6  -8   90.17    6.02
   1   6  -8   90.59    6.08
   1   6  -8   80.66    5.53
   1   6  -8   72.69    6.06
   1   6  -8   95.27    5.94
   1   6  -7    0.17    1.19
   1   6  -7    0.19    1.39
   1   6  -7    0.20    1.74
   1   6  -7   -0.34    1.29
   1   6  -7   -1.74    1.77
   1   6  -7    2.46    1.19
   1   6  -7    0.90    1.17
   1   6  -7   -0.19    1.44
   1   6  -6    0.32    1.29
   1   6  -6    0.16    1.52
   1   6  -6    2.78    1.29
   1   6  -6    1.52    1.39
   1   6  -6   -0.14    1.14
   1   6  -6    0.16    1.12
   1   6  -6   -0.48    1.02
   1   6  -5  320.51   16.62
   1   6  -5  324.17   16.57
   1   6  -5  329.82   16.00
   1   6  -5  338.89   16.51
   1   6  -5  328.32   16.52
   1   6  -5  325.99   16.68
   1   6  -5  331.25   16.37
   1   6  -4  492.05   23.16
   1   6  -4  452.74   22.58
   1   6  -4  471.36   22.92
   1   6  -4  461.49   22.67
   1   6  -4  489.00   22.86
   1   6  -4  464.37   23.06
   1   6  -4  477.81   23.15
   1   6  -4  480.53   23.04
   1   6  -4  498.44   23.16
   1   6  -4  473.28   22.71
   1   6  -3   11.04    1.70
   1   6  -3    9.67    1.60
   1   6  -3    8.53    1.42
   1   6  -3    7.94    1.65
   1   6  -3    6.42    1.37
   1   6  -3   10.76    1.76
   1   6  -3   10.82    1.49
   1   6  -3    8.83    1.27
   1   6  -3    7.73    1.56
   1   6  -3   10.33    1.90
   1   6  -3    6.11    1.49
   1   6  -2   49.91    3.47
   1   6  -2   45.77    3.07
   1   6  -2   50.10    3.49
   1   6  -2   44.68    2.97
   1   6  -2   47.01    3.57
   1   6  -2   46.30    3.46
   1   6  -2   49.67    3.74
   1   6  -2   44.85    3.37
   1   6  -1 1326.73   62.29
   1   6  -1 1432.65   62.55
   1   6  -1 1361.66   62.58
   1   6  -1 1313.19   62.30
   1   6  -1 1329.28   62.32
   1   6   0  256.76   12.74
   1   6   0  256.59   13.08
   1   6   0  254.95   13.15
   1   6   0  249.87   12.74
   1   6   0  254.93   12.79
   1   6   1  389.97   19.12
   1   6   1  389.71   19.04
   1   6   1  368.78   18.55
   1   6   1  398.74   19.27
   1   6   2   40.88    3.91
   1   6   2   34.56    3.15
   1   6   2   34.77    3.11
   1   6   2   40.03    3.38
   1   6   3   35.64    4.00
   1   6   3   48.63    3.70
   1   6   3   42.30    3.33
   1   6   3   43.26    3.56
   1   6   4    0.45    1.86
   1   6   4    2.62    1.37
   1   6   4    1.15    1.59
   1   6   5    4.75    2.09
   1   6   5    6.59    1.83
   1   6   6   -0.37    1.06
   1   6   6    0.39    1.65
   1   6   6    0.70    1.27
   1   6   7    0.54    1.01
   1   7 -12    0.60    1.05
   1   7 -11    6.84    1.56
   1   7 -11    5.97    1.85
   1   7 -11    4.33    1.55
   1   7 -11    4.57    1.49
   1   7 -10    0.70    1.08
   1   7 -10    0.78    1.31
   1   7 -10    1.11    1.39
   1   7 -10   -0.87    1.59
   1   7 -10    1.98    1.55
   1   7 -10    1.22    1.27
   1   7  -9   18.95    2.50
   1   7  -9   19.44    2.64
   1   7  -9   13.26    2.25
   1   7  -9   17.43    2.87
   1   7  -9   15.47    2.46
   1   7  -9   19.03    2.52
   1   7  -8    1.19    1.46
   1   7  -8    0.63    1.59
   1   7  -8   -0.20    1.74
   1   7  -8    2.13    1.45
   1   7  -8    1.74    1.63
   1   7  -8    2.64    1.37
   1   7  -8    0.21    1.59
   1   7  -7   29.83    3.03
   1   7  -7   22.53    2.55
   1   7  -7   25.14    3.01
   1   7  -7   23.81    2.64
   1   7  -7   25.90    2.80
   1   7  -6    7.46    1.82
   1   7  -6    3.54    1.60
   1   7  -6    2.84    1.56
   1   7  -6    5.78    1.43
   1   7  -6    4.18    1.78
   1   7  -6    4.47    1.49
   1   7  -5    0.85    1.14
   1   7  -5    1.21    1.33
   1   7  -5    0.15    1.24
   1   7  -5    0.50    1.32
   1   7  -5    1.20    0.96
   1   7  -5    1.15    1.04
   1   7  -5    0.18    1.33
   1   7  -5    2.33    1.44
   1   7  -5    0.60    1.01
   1   7  -4    6.59    1.57
   1   7  -4    6.28    1.66
   1   7  -4    9.17    1.69
   1   7  -4    4.94    1.62
   1   7  -4    5.50    1.29
   1   7  -4    5.78    1.23
   1   7  -4    7.37    1.68
   1   7  -4    8.60    1.84
   1   7  -4    6.63    1.49
   1   7  -4    8.30    1.61
   1   7  -3  185.04   10.30
   1   7  -3  192.94   10.36
   1   7  -3  192.16   10.23
   1   7  -3  182.71    9.74
   1   7  -3  189.26   10.37
   1   7  -3  206.66   10.68
   1   7  -3  193.98   10.37
   1   7  -3  189.11   10.32
   1   7  -2  449.62   22.19
   1   7  -2  475.24   22.57
   1   7  -2  456.88   22.30
   1   7  -2  445.81   22.43
   1   7  -2  447.96   22.21
   1   7  -2  446.69   22.19
   1   7  -2  462.83   22.45
   1   7  -1    2.72    1.32
   1   7  -1   -0.26    1.05
   1   7  -1    2.74    1.75
   1   7  -1    0.98    1.37
   1   7  -1    1.11    1.27
   1   7  -1    0.93    1.17
   1   7  -1    1.95    1.60
   1   7   0   51.55    3.71
   1   7   0   56.93    4.67
   1   7   0   56.06    4.18
   1   7   0   55.36    4.24
   1   7   0   52.34    3.75
   1   7   0   58.43    4.48
   1   7   0   57.61    3.85
   1   7   1  343.03   17.07
   1   7   1  320.08   16.81
   1   7   1  332.20   17.11
   1   7   2   32.09    3.96
   1   7   2   32.74    3.24
   1   7   2   40.22    3.29
   1   7   2   36.45    3.40
   1   7   2   31.13    3.54
   1   7   3  241.27   14.39
   1   7   3  290.89   14.16
   1   7   3  247.86   13.66
   1   7   3  271.45   14.34
   1   7   4    6.86    2.40
   1   7   4   11.61    1.93
   1   7   4   10.05    2.24
   1   7   5    0.84    1.82
   1   7   5    0.22    1.88
   1   7   5    0.58    1.42
   1   7   5    0.51    1.39
   1   7   6   -0.52    1.52
   1   7   6    0.80    1.23
   1   8 -11   50.36    3.64
   1   8 -11   43.78    3.68
   1   8 -11   43.64    3.52
   1   8 -10   86.08    5.71
   1   8 -10   75.62    5.70
   1   8 -10   83.19    5.68
   1   8 -10   85.20    5.52
   1   8  -9    3.87    1.51
   1   8  -9    2.27    1.51
   1   8  -9    2.31    1.84
   1   8  -9    5.04    1.89
   1   8  -9    4.52    1.59
   1   8  -8    7.53    1.83
   1   8  -8    7.55    2.16
   1   8  -8    5.67    1.68
   1   8  -8    5.29    1.67
   1   8  -7    8.18    2.04
   1   8  -7   10.25    2.13
   1   8  -7   10.86    1.96
   1   8  -7    9.76    1.91
   1   8  -7   12.60    2.33
   1   8  -6  179.23   10.39
   1   8  -6  179.20   10.24
   1   8  -6  190.54   10.11
   1   8  -6  187.68   10.51
   1   8  -6  167.51    9.90
   1   8  -6  184.83   10.40
   1   8  -6  176.14   10.08
   1   8  -5   21.18    2.67
   1   8  -5   27.71    2.93
   1   8  -5   27.14    2.65
   1   8  -5   21.82    2.35
   1   8  -5   26.85    2.48
   1   8  -5   25.29    2.91
   1   8  -5   22.81    2.84
   1   8  -5   25.31    2.88
   1   8  -5   19.40    2.39
   1   8  -4  390.23   19.47
   1   8  -4  349.89   18.95
   1   8  -4  390.95   19.18
   1   8  -4  399.11   19.66
   1   8  -4  403.64   19.57
   1   8  -4  396.78   19.66
   1   8  -4  382.42   19.46
   1   8  -4  374.41   19.20
   1   8  -3  474.85   23.96
   1   8  -3  479.47   24.10
   1   8  -3  512.25   24.14
   1   8  -3  475.59   23.99
   1   8  -3  507.63   24.47
   1   8  -3  493.35   24.08
   1   8  -3  480.16   24.13
   1   8  -2  136.00    7.60
   1   8  -2  128.97    8.04
   1   8  -2  129.56    7.77
   1   8  -2  124.23    7.87
   1   8  -2  127.97    7.55
   1   8  -2  124.63    7.53
   1   8  -2  125.43    7.93
   1   8  -1  283.76   14.64
   1   8  -1  298.60   15.60
   1   8  -1  284.70   15.16
   1   8  -1  302.45   15.34
   1   8  -1  286.37   14.68
   1   8  -1  276.20   15.36
   1   8  -1  294.13   14.83
   1   8  -1  286.56   15.39
   1   8   0  160.00   10.02
   1   8   0  166.73    9.67
   1   8   0  169.86    9.68
   1   8   0  175.19    9.96
   1   8   0  163.24    9.03
   1   8   1   22.81    2.79
   1   8   1   28.20    3.02
   1   8   1   19.85    2.92
   1   8   1   23.31    3.19
   1   8   2   64.54    5.81
   1   8   2   77.38    5.36
   1   8   2   78.06    5.09
   1   8   2   66.39    5.19
   1   8   2   71.93    5.59
   1   8   3   20.92    3.34
   1   8   3   30.84    3.01
   1   8   3   23.23    2.76
   1   8   3   26.56    3.28
   1   8   4    0.22    1.82
   1   8   4   -0.45    1.90
   1   8   4   -0.63    1.12
   1   8   4   -0.80    1.39
   1   8   4    1.69    1.70
   1   8   5   10.51    2.22
   1   8   5   12.10    2.33
   1   8   5   12.60    2.06
   1   8   5   12.13    1.94
   1   8   6    0.27    1.28
   1   9 -11    0.25    1.03
   1   9 -10   21.61    2.44
   1   9 -10   18.80    2.34
   1   9 -10   17.50    2.39
   1   9  -9    2.54    1.32
   1   9  -9   -0.36    1.45
   1   9  -8   19.41    2.51
   1   9  -8   18.28    2.66
   1   9  -8   15.64    2.38
   1   9  -8   18.15    2.34
   1   9  -8   16.10    2.60
   1   9  -8   19.09    2.31
   1   9  -7   33.43    3.42
   1   9  -7   37.18    3.38
   1   9  -7   37.05    3.42
   1   9  -7   35.89    3.18
   1   9  -7   36.17    3.64
   1   9  -7   31.74    3.02
   1   9  -7   34.95    3.42
   1   9  -6    0.41    1.39
   1   9  -6    1.03    1.41
   1   9  -6    0.80    1.49
   1   9  -6    0.21    1.52
   1   9  -6    1.08    1.47
   1   9  -5    0.40    1.29
   1   9  -5   -0.20    1.49
   1   9  -5    0.41    1.57
   1   9  -5    1.41    1.07
   1   9  -5   -0.20    1.44
   1   9  -5   -3.97    1.89
   1   9  -5    1.40    1.37
   1   9  -4    0.96    1.23
   1   9  -4    0.74    1.35
   1   9  -4    0.67    1.47
   1   9  -4    0.35    1.20
   1   9  -4    4.36    1.66
   1   9  -4    0.85    1.71
   1   9  -4    1.44    1.53
   1   9  -3   48.56    3.93
   1   9  -3   47.30    4.23
   1   9  -3   51.41    4.14
   1   9  -3   52.63    4.43
   1   9  -3   49.64    4.01
   1   9  -3   51.05    4.54
   1   9  -3   52.69    4.07
   1   9  -3   49.36    4.33
   1   9  -2  299.26   15.38
   1   9  -2  315.42   16.28
   1   9  -2  309.06   15.94
   1   9  -2  317.06   16.12
   1   9  -2  287.25   15.33
   1   9  -2  290.56   15.48
   1   9  -2  304.97   16.15
   1   9  -1   39.01    4.14
   1   9  -1   38.64    3.70
   1   9  -1   41.97    3.84
   1   9  -1   44.44    4.19
   1   9  -1   39.75    3.23
   1   9  -1   34.06    3.93
   1   9   0   83.96    6.40
   1   9   0   91.29    6.12
   1   9   0   87.49    5.98
   1   9   0   78.56    6.04
   1   9   1    7.72    1.88
   1   9   1    6.95    1.79
   1   9   1    4.55    1.90
   1   9   1    8.44    2.34
   1   9   2   71.01    5.82
   1   9   2   73.60    5.24
   1   9   2   71.64    5.20
   1   9   2   72.42    5.54
   1   9   3    4.02    2.15
   1   9   3    3.91    1.91
   1   9   3    4.64    1.43
   1   9   3    3.46    1.81
   1   9   4    0.74    1.69
   1   9   4   -0.93    1.64
   1   9   4   -0.17    1.26
   1   9   4   -0.75    1.31
   1   9   5    9.03    1.75
   1  10  -9   32.56    3.05
   1  10  -9   27.67    2.64
   1  10  -9   34.60    3.13
   1  10  -8   38.13    3.46
   1  10  -8   34.51    3.16
   1  10  -8   38.98    3.51
   1  10  -7    1.33    1.29
   1  10  -7    2.11    1.53
   1  10  -7    1.07    1.33
   1  10  -7    2.15    1.52
   1  10  -7    3.27    1.32
   1  10  -6    2.14    1.40
   1  10  -6    0.96    1.38
   1  10  -6    1.57    1.61
   1  10  -6   -0.20    1.42
   1  10  -6   -1.06    1.48
   1  10  -5   -0.58    1.20
   1  10  -5    0.37    1.33
   1  10  -5    0.62    1.61
   1  10  -5    0.95    1.17
   1  10  -5    0.57    1.37
   1  10  -5    1.80    1.64
   1  10  -5    0.46    1.23
   1  10  -4   26.67    2.82
   1  10  -4   23.67    2.76
   1  10  -4   25.04    2.82
   1  10  -4   30.12    3.35
   1  10  -4   28.28    2.89
   1  10  -4   27.87    3.02
   1  10  -3   25.35    2.59
   1  10  -3   21.20    2.92
   1  10  -3   30.93    3.09
   1  10  -3   31.15    3.26
   1  10  -3   19.67    2.56
   1  10  -3   28.38    2.76
   1  10  -3   26.34    3.26
   1  10  -3   27.27    2.74
   1  10  -3   26.23    3.12
   1  10  -2   50.88    4.44
   1  10  -2   43.16    3.86
   1  10  -2   45.25    4.02
   1  10  -2   39.15    3.73
   1  10  -2   44.19    4.14
   1  10  -1  181.89   10.96
   1  10  -1  183.35   10.64
   1  10  -1  193.17   10.67
   1  10  -1  187.50   10.89
   1  10  -1  186.10   10.89
   1  10   0   -0.23    1.99
   1  10   0   -0.17    1.38
   1  10   0    1.27    1.71
   1  10   0    0.20    1.25
   1  10   0    0.62    1.68
   1  10   1   12.88    2.63
   1  10   1   11.92    1.86
   1  10   1   11.48    2.51
   1  10   1   12.14    2.05
   1  10   1   11.65    2.21
   1  10   1   13.32    2.19
   1  10   1   12.94    2.48
   1  10   2   74.50    5.88
   1  10   2   96.04    5.65
   1  10   2   89.75    5.99
   1  10   2   90.01    5.68
   1  10   2   75.02    5.24
   1  10   2   80.82    5.73
   1  10   3    5.08    1.57
   1  10   4   -0.39    1.17
   1  11  -8    5.15    1.37
   1  11  -8    5.78    1.28
   1  11  -8    3.06    1.27
   1  11  -7   -0.15    1.12
   1  11  -7    0.31    1.15
   1  11  -7    0.95    1.27
   1  11  -6   84.24    5.45
   1  11  -6   92.27    5.74
   1  11  -6   85.93    5.51
   1  11  -6   74.16    5.28
   1  11  -5   81.28    5.27
   1  11  -5   75.23    5.04
   1  11  -5   87.07    5.40
   1  11  -5   80.31    5.57
   1  11  -5   84.60    5.42
   1  11  -4    6.62    1.51
   1  11  -4    8.10    1.85
   1  11  -4    6.86    1.52
   1  11  -4    6.37    2.00
   1  11  -4    6.22    1.75
   1  11  -3   23.11    2.84
   1  11  -3   31.62    2.97
   1  11  -3   31.23    3.13
   1  11  -3   29.49    3.27
   1  11  -3   27.20    2.98
   1  11  -2   40.75    3.89
   1  11  -2   43.78    3.71
   1  11  -2   52.08    4.01
   1  11  -2   41.11    3.62
   1  11  -2   44.75    4.02
   1  11  -2   48.60    4.02
   1  11  -1    7.53    2.20
   1  11  -1    3.94    1.50
   1  11  -1    6.12    1.81
   1  11  -1   12.48    1.92
   1  11  -1    7.60    1.94
   1  11  -1    7.62    1.55
   1  11  -1    6.16    1.99
   1  11   0    0.57    1.66
   1  11   0    1.42    1.04
   1  11   0    0.17    1.51
   1  11   0    1.29    1.10
   1  11   0    1.15    1.43
   1  11   0    0.29    1.07
   1  11   1    4.23    1.57
   1  11   1    3.82    1.36
   1  11   1    3.28    1.23
   1  11   1    2.50    1.50
   1  11   2    6.23    1.58
   1  11   2    5.39    1.46
   1  12  -6    3.53    1.20
   1  12  -6   -0.11    0.93
   1  12  -5    4.33    1.44
   1  12  -4   16.78    2.02
   1  12  -4   10.97    1.93
   1  12  -4   11.62    1.68
   1  12  -3   37.77    3.03
   1  12  -3   34.63    3.12
   1  12  -3   33.32    2.92
   1  12  -2    3.71    1.18
   1  12  -2    3.21    1.44
   1  12  -2    5.03    1.41
   1  12  -1    2.08    1.25
   1  12  -1    0.53    1.16
   2 -13   2    0.98    1.31
   2 -13   3    2.92    1.39
   2 -12  -2   -0.25    1.05
   2 -12  -2    0.63    1.34
   2 -12  -1    3.22    1.40
   2 -12  -1    1.96    1.57
   2 -12   0    4.83    1.40
   2 -12   0    4.81    1.52
   2 -12   0    2.11    1.77
   2 -12   1    0.58    1.24
   2 -12   1    0.62    1.29
   2 -12   1    1.58    1.83
   2 -12   1    0.15    1.11
   2 -12   2    0.85    1.22
   2 -12   2    3.24    1.41
   2 -12   2    0.77    1.07
   2 -12   3   41.01    3.26
   2 -12   3   37.81    3.11
   2 -12   3   34.11    3.14
   2 -12   4   84.61    5.33
   2 -12   5    3.56    1.30
   2 -11  -4   14.02    1.90
   2 -11  -4   14.01    2.24
   2 -11  -3    2.37    1.35
   2 -11  -3    1.81    1.49
   2 -11  -3    0.40    1.74
   2 -11  -2   -0.18    1.46
   2 -11  -2   -0.44    1.12
   2 -11  -1   78.52    5.32
   2 -11  -1   77.87    5.37
   2 -11  -1   69.40    5.11
   2 -11  -1   72.92    5.02
   2 -11   0   65.36    4.83
   2 -11   0   69.81    5.02
   2 -11   0   61.31    4.60
   2 -11   0   66.58    4.84
   2 -11   1    0.92    1.45
   2 -11   1    1.91    1.65
   2 -11   1    4.13    1.67
   2 -11   1    2.82    1.41
   2 -11   2   16.36    2.35
   2 -11   2   10.94    2.11
   2 -11   2   11.27    2.09
   2 -11   2   16.15    2.28
   2 -11   3  158.46    9.21
   2 -11   3  164.61    9.44
   2 -11   3  156.37    9.20
   2 -11   3  175.56    9.48
   2 -11   4  138.70    8.20
   2 -11   4  146.29    8.45
   2 -11   4  141.56    8.29
   2 -11   4  148.60    8.45
   2 -11   5    0.72    1.18
   2 -11   5   -0.66    1.32
   2 -11   5    2.28    1.39
   2 -11   5    0.82    1.25
   2 -11   6   14.53    2.10
   2 -11   6   17.87    2.23
   2 -11   6   15.14    2.74
   2 -11   6   15.98    2.03
   2 -11   7   16.85    1.99
   2 -11   7   14.48    2.48
   2 -11   7   15.40    1.97
   2 -11   8    0.47    1.36
   2 -10  -5   12.78    2.04
   2 -10  -5    7.10    2.08
   2 -10  -5   13.44    1.82
   2 -10  -4    3.82    1.73
   2 -10  -4    2.99    1.97
   2 -10  -4    4.69    1.51
   2 -10  -4    1.71    1.77
   2 -10  -3    0.20    1.53
   2 -10  -3    0.78    1.84
   2 -10  -3   -0.19    1.51
   2 -10  -3   -0.62    1.73
   2 -10  -2   71.22    5.15
   2 -10  -2   60.88    4.92
   2 -10  -2   70.46    5.19
   2 -10  -2   57.85    4.90
   2 -10  -2   69.45    5.10
   2 -10  -2   58.56    4.62
   2 -10  -1    5.95    1.94
   2 -10  -1    4.35    1.91
   2 -10  -1    5.69    1.79
   2 -10  -1    3.87    1.76
   2 -10  -1    2.94    1.89
   2 -10  -1    3.45    1.60
   2 -10   0   43.68    3.92
   2 -10   0   39.39    3.85
   2 -10   0   42.28    3.88
   2 -10   0   41.91    3.75
   2 -10   0   42.74    3.69
   2 -10   1    3.69    1.62
   2 -10   1    6.86    2.03
   2 -10   1    2.97    1.46
   2 -10   1    3.18    1.47
   2 -10   1    3.43    1.59
   2 -10   2   60.16    4.71
   2 -10   2   55.63    4.69
   2 -10   2   69.06    5.01
   2 -10   2   66.40    4.83
   2 -10   3  109.00    6.68
   2 -10   3   98.48    6.73
   2 -10   3   98.63    6.67
   2 -10   3  104.59    6.69
   2 -10   3  107.68    7.45
   2 -10   4   11.58    2.05
   2 -10   4   12.19    2.30
   2 -10   4   12.83    2.26
   2 -10   4   13.86    2.96
   2 -10   4   13.01    2.17
   2 -10   5   82.64    5.52
   2 -10   5   83.28    5.69
   2 -10   5   81.68    5.79
   2 -10   5   86.61    5.73
   2 -10   5   77.02    6.34
   2 -10   6   94.59    6.18
   2 -10   6  106.21    6.75
   2 -10   6  112.61    6.63
   2 -10   6   97.07    7.15
   2 -10   7    1.08    1.47
   2 -10   7    0.45    1.90
   2 -10   7    0.94    1.06
   2 -10   8    1.57    1.35
   2 -10   8    0.59    1.67
   2 -10   9   33.48    3.17
   2  -9  -7    0.90    1.09
   2  -9  -7    2.71    1.62
   2  -9  -6    0.17    1.35
   2  -9  -6    0.38    1.77
   2  -9  -6    0.49    1.32
   2  -9  -6   -1.04    1.40
   2  -9  -5    5.08    1.84
   2  -9  -5    2.59    1.59
   2  -9  -5    0.43    2.10
   2  -9  -5    2.22    1.60
   2  -9  -4    4.00    1.93
   2  -9  -4    5.88    2.45
   2  -9  -4    6.11    1.97
   2  -9  -4    2.68    2.05
   2  -9  -4    8.77    2.24
   2  -9  -3    2.56    1.94
   2  -9  -3    3.58    1.82
   2  -9  -3    4.35    1.40
   2  -9  -3    1.99    2.18
   2  -9  -3    4.50    2.27
   2  -9  -3    3.97    1.93
   2  -9  -2   28.89    3.21
   2  -9  -2   23.99    3.06
   2  -9  -2   22.77    3.19
   2  -9  -2   29.35    3.26
   2  -9  -2   25.13    2.70
   2  -9  -2   28.23    3.00
   2  -9  -2   25.20    3.26
   2  -9  -2   30.27    3.32
   2  -9  -1   36.35    3.66
   2  -9  -1   35.04    3.65
   2  -9  -1   41.18    3.79
   2  -9  -1   40.52    3.37
   2  -9  -1   41.59    3.84
   2  -9  -1   40.83    3.78
   2  -9  -1   41.75    3.67
   2  -9   0   79.94    5.49
   2  -9   0   78.64    5.51
   2  -9   0   70.45    4.97
   2  -9   0   75.43    5.58
   2  -9   0   72.12    5.30
   2  -9   0   76.10    5.92
   2  -9   0   75.25    5.24
   2  -9   1  283.23   14.98
   2  -9   1  275.10   15.00
   2  -9   1  275.31   14.74
   2  -9   1  299.38   15.35
   2  -9   1  304.08   15.14
   2  -9   1  300.48   15.79
   2  -9   1  278.17   14.63
   2  -9   2   21.05    2.59
   2  -9   2   21.15    2.62
   2  -9   2   23.10    2.80
   2  -9   2   24.98    3.31
   2  -9   2   17.02    2.39
   2  -9   2   18.33    2.28
   2  -9   3  126.09    7.54
   2  -9   3  126.31    7.47
   2  -9   3  121.83    7.63
   2  -9   3  121.28    7.80
   2  -9   3  130.67    7.72
   2  -9   3  125.21    8.25
   2  -9   4  286.53   15.58
   2  -9   4  308.72   15.71
   2  -9   4  309.84   15.42
   2  -9   4  295.54   16.06
   2  -9   4  320.90   15.95
   2  -9   4  301.26   16.51
   2  -9   5  235.55   12.34
   2  -9   5  218.71   12.03
   2  -9   5  222.40   12.13
   2  -9   5  222.00   12.59
   2  -9   5  227.66   13.05
   2  -9   6   66.47    4.85
   2  -9   6   71.82    5.04
   2  -9   6   72.21    5.49
   2  -9   6   73.29    5.10
   2  -9   6   68.55    5.82
   2  -9   7    6.28    1.63
   2  -9   7    9.02    2.23
   2  -9   7    5.76    2.44
   2  -9   7    7.87    1.67
   2  -9   8   13.89    2.00
   2  -9   8   11.86    2.27
   2  -9   8   11.29    2.60
   2  -9   8   16.54    2.07
   2  -9   9   13.16    2.15
   2  -9   9   13.94    2.46
   2  -9  10   -1.14    1.39
   2  -8  -8    1.59    1.21
   2  -8  -7    1.21    1.58
   2  -8  -7   -0.18    1.37
   2  -8  -7    1.02    2.01
   2  -8  -7    1.24    1.60
   2  -8  -6   35.38    3.61
   2  -8  -6   42.12    3.89
   2  -8  -6   27.23    3.90
   2  -8  -6   35.45    3.74
   2  -8  -6   40.91    3.90
   2  -8  -5    3.44    1.96
   2  -8  -5    0.49    2.24
   2  -8  -5    3.28    1.96
   2  -8  -5    2.34    1.36
   2  -8  -5    0.23    2.08
   2  -8  -5    2.06    2.00
   2  -8  -4    0.64    1.68
   2  -8  -4   -0.47    2.07
   2  -8  -4    1.88    1.76
   2  -8  -4   -0.59    1.27
   2  -8  -4   -1.60    1.93
   2  -8  -3    7.43    2.15
   2  -8  -3    4.06    1.81
   2  -8  -3    5.52    2.29
   2  -8  -3    7.65    2.19
   2  -8  -3    8.02    1.78
   2  -8  -3   10.52    2.73
   2  -8  -3    7.29    2.27
   2  -8  -3   10.01    2.35
   2  -8  -2   -1.53    1.68
   2  -8  -2   -0.19    1.48
   2  -8  -2    1.38    1.82
   2  -8  -2    0.21    1.69
   2  -8  -2    2.12    2.23
   2  -8  -2    0.70    1.16
   2  -8  -2   -0.74    1.31
   2  -8  -2    0.20    1.74
   2  -8  -2    0.20    1.80
   2  -8  -1   38.62    3.50
   2  -8  -1   37.74    3.48
   2  -8  -1   41.77    3.42
   2  -8  -1   41.01    3.82
   2  -8  -1   43.12    4.14
   2  -8  -1   39.15    3.39
   2  -8  -1   40.16    3.55
   2  -8  -1   34.45    3.52
   2  -8   0   19.92    2.53
   2  -8   0   18.90    2.46
   2  -8   0   21.60    3.06
   2  -8   0   20.71    2.41
   2  -8   0   22.13    2.55
   2  -8   0   21.40    2.77
   2  -8   1  310.91   15.86
   2  -8   1  304.60   15.92
   2  -8   1  313.22   15.89
   2  -8   1  312.82   16.21
   2  -8   1  305.10   15.87
   2  -8   1  321.52   16.57
   2  -8   1  314.83   15.66
   2  -8   2  407.88   19.78
   2  -8   2  390.06   19.75
   2  -8   2  388.97   19.79
   2  -8   2  401.01   20.13
   2  -8   2  395.82   19.81
   2  -8   2  400.47   20.45
   2  -8   3   13.02    2.04
   2  -8   3   10.58    1.87
   2  -8   3    9.82    2.07
   2  -8   3   14.73    1.75
   2  -8   3   10.63    2.55
   2  -8   3   11.90    1.93
   2  -8   4    2.54    1.36
   2  -8   4    4.17    1.65
   2  -8   4    2.93    1.45
   2  -8   4    1.83    0.94
   2  -8   4    3.70    2.16
   2  -8   4    1.86    1.21
   2  -8   4    4.05    1.77
   2  -8   5  155.00    9.05
   2  -8   5  162.29    9.33
   2  -8   5  170.14    9.78
   2  -8   5  171.47    9.40
   2  -8   5  155.50    9.95
   2  -8   5  157.51    9.24
   2  -8   6   61.71    4.51
   2  -8   6   72.97    5.00
   2  -8   6   54.71    4.96
   2  -8   6   75.14    4.91
   2  -8   6   55.87    5.40
   2  -8   6   49.54    4.56
   2  -8   7   27.57    2.98
   2  -8   7   40.01    3.59
   2  -8   7   29.87    3.67
   2  -8   7   42.10    3.45
   2  -8   7   29.82    3.50
   2  -8   7   29.67    4.08
   2  -8   8    1.40    1.27
   2  -8   8    2.96    2.00
   2  -8   8    1.51    2.25
   2  -8   8    2.54    1.31
   2  -8   8    2.41    1.74
   2  -8   9    1.40    1.67
   2  -8   9    1.11    1.92
   2  -8   9    0.99    0.99
   2  -8   9    2.28    1.56
   2  -8  10    4.04    1.45
   2  -8  10    0.34    1.52
   2  -7  -9    2.72    1.26
   2  -7  -9    0.15    1.43
   2  -7  -8    5.21    1.80
   2  -7  -8    7.71    2.42
   2  -7  -8    8.08    2.11
   2  -7  -7    8.76    2.19
   2  -7  -7    9.98    2.43
   2  -7  -7    8.97    2.22
   2  -7  -7   10.82    2.54
   2  -7  -6   14.46    2.56
   2  -7  -6    8.79    2.84
   2  -7  -6   12.12    2.56
   2  -7  -6   11.36    2.92
   2  -7  -6    9.77    2.58
   2  -7  -6   10.05    2.57
   2  -7  -5   -1.27    1.82
   2  -7  -5    1.19    1.75
   2  -7  -5   -0.21    1.34
   2  -7  -5   -2.59    2.23
   2  -7  -5    0.98    2.24
   2  -7  -5    0.23    1.95
   2  -7  -5   -1.68    2.03
   2  -7  -4   40.17    3.66
   2  -7  -4   44.77    3.63
   2  -7  -4   26.96    3.81
   2  -7  -4   32.50    3.85
   2  -7  -4   49.35    4.15
   2  -7  -4   28.29    3.25
   2  -7  -4   36.97    3.83
   2  -7  -3   49.20    3.99
   2  -7  -3   48.68    4.00
   2  -7  -3   52.76    4.03
   2  -7  -3   50.71    4.32
   2  -7  -3   40.15    4.18
   2  -7  -3   50.87    3.95
   2  -7  -3   43.08    4.23
   2  -7  -3   42.95    3.77
   2  -7  -3   48.13    4.31
   2  -7  -3   51.26    4.40
   2  -7  -2  112.17    6.91
   2  -7  -2  109.02    6.88
   2  -7  -2  115.68    6.92
   2  -7  -2  118.60    7.26
   2  -7  -2  116.45    7.25
   2  -7  -2  114.10    6.84
   2  -7  -2  118.45    7.38
   2  -7  -2  112.83    6.79
   2  -7  -2  108.89    7.13
   2  -7  -1    1.61    1.32
   2  -7  -1    2.21    1.29
   2  -7  -1    0.15    1.52
   2  -7  -1    2.43    1.17
   2  -7  -1    3.17    1.77
   2  -7  -1    2.00    1.14
   2  -7  -1    1.77    1.24
   2  -7  -1    0.31    1.56
   2  -7  -1    0.88    1.41
   2  -7   0    0.54    1.19
   2  -7   0    0.56    1.13
   2  -7   0   -0.12    1.26
   2  -7   0    0.84    1.41
   2  -7   0   -0.54    1.66
   2  -7   0    1.22    1.03
   2  -7   0    0.66    1.19
   2  -7   0    0.94    1.28
   2  -7   0    1.31    1.16
   2  -7   1   33.59    2.98
   2  -7   1   43.06    3.32
   2  -7   1   41.16    3.24
   2  -7   1   37.93    3.43
   2  -7   1   43.31    3.22
   2  -7   1   49.61    3.95
   2  -7   1   41.12    3.25
   2  -7   1   38.89    3.09
   2  -7   2  241.81   12.50
   2  -7   2  250.62   12.74
   2  -7   2  252.41   12.35
   2  -7   2  259.35   13.06
   2  -7   2  244.51   12.57
   2  -7   2  243.31   13.17
   2  -7   2  223.45   12.54
   2  -7   3   66.26    4.52
   2  -7   3   70.57    4.34
   2  -7   3   73.83    4.86
   2  -7   3   77.27    5.16
   2  -7   3   72.53    4.71
   2  -7   3   69.41    5.26
   2  -7   3   61.89    4.71
   2  -7   4   41.11    3.32
   2  -7   4   39.68    2.91
   2  -7   4   39.30    3.39
   2  -7   4   40.54    3.70
   2  -7   4   39.02    3.26
   2  -7   4   42.25    4.01
   2  -7   4   35.92    3.47
   2  -7   5   13.43    2.03
   2  -7   5   15.73    2.28
   2  -7   5   12.15    2.34
   2  -7   5   15.60    1.73
   2  -7   5   11.67    2.62
   2  -7   5   15.31    2.50
   2  -7   5   17.16    2.12
   2  -7   6  282.10   15.06
   2  -7   6  320.96   15.81
   2  -7   6  286.11   15.87
   2  -7   6  307.23   15.36
   2  -7   6  275.01   16.01
   2  -7   7  112.46    7.26
   2  -7   7  151.48    8.31
   2  -7   7  122.00    8.23
   2  -7   7  138.53    7.76
   2  -7   7  100.14    8.14
   2  -7   8   26.20    2.97
   2  -7   8   22.94    3.28
   2  -7   8   17.53    2.41
   2  -7   8   19.29    3.38
   2  -7   9   16.75    2.95
   2  -7   9   18.09    3.16
   2  -7   9   18.55    2.28
   2  -7  10   14.44    2.60
   2  -7  10   14.59    2.39
   2  -6  -9   18.80    2.46
   2  -6  -9   12.16    2.61
   2  -6  -9   15.94    2.55
   2  -6  -8  127.51    7.65
   2  -6  -8  107.07    7.84
   2  -6  -8  129.14    7.95
   2  -6  -8  100.84    7.32
   2  -6  -8  124.23    7.98
   2  -6  -7    3.02    1.84
   2  -6  -7    3.17    1.94
   2  -6  -7    1.15    1.90
   2  -6  -7    1.04    1.93
   2  -6  -7    4.82    2.38
   2  -6  -6    2.74    2.06
   2  -6  -6    0.25    2.31
   2  -6  -6    0.96    1.89
   2  -6  -6    2.63    1.44
   2  -6  -6    0.77    2.26
   2  -6  -6    3.18    1.90
   2  -6  -6    1.30    1.88
   2  -6  -6    0.99    2.08
   2  -6  -5  228.20   12.53
   2  -6  -5  262.11   12.85
   2  -6  -5  202.25   12.80
   2  -6  -5  231.65   12.81
   2  -6  -5  218.49   12.93
   2  -6  -5  225.58   12.70
   2  -6  -5  236.74   12.92
   2  -6  -5  216.58   12.56
   2  -6  -4  181.36   10.12
   2  -6  -4  199.36   10.34
   2  -6  -4  166.18   10.42
   2  -6  -4  177.85   10.39
   2  -6  -4  188.83   10.63
   2  -6  -4  168.22   10.15
   2  -6  -4  188.66   10.50
   2  -6  -3   97.64    6.07
   2  -6  -3   92.91    5.91
   2  -6  -3   93.67    6.00
   2  -6  -3   92.30    6.18
   2  -6  -3   95.42    6.34
   2  -6  -3  101.85    5.97
   2  -6  -3  103.22    6.47
   2  -6  -3   88.65    5.97
   2  -6  -3   92.67    6.33
   2  -6  -2    7.56    1.58
   2  -6  -2    6.16    1.57
   2  -6  -2    6.01    1.72
   2  -6  -2    6.16    1.70
   2  -6  -2    9.19    1.66
   2  -6  -2    6.85    1.96
   2  -6  -2    7.61    1.42
   2  -6  -2    6.26    1.54
   2  -6  -2    5.04    1.77
   2  -6  -1 1345.60   62.71
   2  -6  -1 1329.74   62.68
   2  -6  -1 1447.53   63.00
   2  -6  -1 1411.80   63.15
   2  -6  -1 1449.76   62.92
   2  -6  -1 1370.31   62.71
   2  -6  -1 1245.12   62.45
   2  -6  -1 1274.02   62.56
   2  -6  -1 1385.19   63.15
   2  -6  -1 1411.84   62.91
   2  -6  -1 1360.34   62.95
   2  -6   0   16.68    1.94
   2  -6   0   22.61    2.24
   2  -6   0   21.80    2.14
   2  -6   0   22.03    2.08
   2  -6   0   23.50    2.44
   2  -6   0   18.94    1.97
   2  -6   0   16.69    1.98
   2  -6   0   22.52    2.57
   2  -6   0   18.92    2.22
   2  -6   0   23.66    2.27
   2  -6   1    7.21    1.33
   2  -6   1    7.07    1.01
   2  -6   1    8.83    1.55
   2  -6   1    7.93    1.74
   2  -6   1    6.33    1.10
   2  -6   1    9.94    1.89
   2  -6   1    8.73    1.39
   2  -6   1    9.14    1.64
   2  -6   1    8.38    1.47
   2  -6   1    6.88    0.85
   2  -6   2 1018.81   47.85
   2  -6   2 1046.58   48.19
   2  -6   2 1005.11   47.65
   2  -6   2 1061.83   48.41
   2  -6   2 1063.96   48.21
   2  -6   2 1041.68   47.93
   2  -6   2 1074.75   48.51
   2  -6   2  996.27   47.63
   2  -6   3  634.95   30.97
   2  -6   3  650.36   30.73
   2  -6   3  673.58   31.39
   2  -6   3  660.61   31.57
   2  -6   3  653.69   31.08
   2  -6   3  685.72   31.77
   2  -6   3  667.68   31.46
   2  -6   3  650.23   30.95
   2  -6   4    2.32    1.20
   2  -6   4    2.84    1.33
   2  -6   4    3.18    1.64
   2  -6   4    2.25    0.88
   2  -6   4    2.06    1.08
   2  -6   4    2.80    1.80
   2  -6   5  127.10    7.52
   2  -6   5  138.92    7.21
   2  -6   5  133.30    8.00
   2  -6   5  130.55    8.21
   2  -6   5  135.75    7.71
   2  -6   5  132.95    8.46
   2  -6   6  487.73   25.25
   2  -6   6  574.93   26.19
   2  -6   6  516.72   26.14
   2  -6   6  535.14   25.50
   2  -6   6  506.27   26.30
   2  -6   7  210.28   11.84
   2  -6   7  241.93   12.78
   2  -6   7  221.30   12.87
   2  -6   7  237.80   12.19
   2  -6   7  203.23   12.93
   2  -6   8   15.65    3.12
   2  -6   8   23.46    2.68
   2  -6   8   14.87    3.26
   2  -6   9    2.91    1.67
   2  -6   9    5.10    2.27
   2  -6   9    5.12    1.43
   2  -6   9    2.80    2.32
   2  -6  10   46.24    3.95
   2  -6  10   30.19    3.73
   2  -6  11    4.44    1.47
   2  -6  11    2.09    1.48
   2  -5 -10    9.23    1.81
   2  -5 -10    3.49    1.87
   2  -5  -9   19.56    2.70
   2  -5  -9   14.64    2.97
   2  -5  -9   15.74    2.80
   2  -5  -9   24.67    3.24
   2  -5  -8    3.96    2.53
   2  -5  -8    5.56    1.99
   2  -5  -8    5.55    2.12
   2  -5  -8    5.10    2.27
   2  -5  -8    6.91    2.51
   2  -5  -7   24.46    3.03
   2  -5  -7   19.64    3.50
   2  -5  -7   24.37    3.44
   2  -5  -7   18.34    3.20
   2  -5  -7   22.48    3.08
   2  -5  -7   26.99    3.59
   2  -5  -6    0.19    1.45
   2  -5  -6    2.42    1.85
   2  -5  -6    0.41    1.36
   2  -5  -6   -1.40    1.98
   2  -5  -6   -0.70    1.98
   2  -5  -6   -0.20    1.66
   2  -5  -6   -1.38    1.95
   2  -5  -5   27.47    2.77
   2  -5  -5   13.85    2.85
   2  -5  -5   19.11    2.71
   2  -5  -5   25.16    2.70
   2  -5  -5   19.87    2.91
   2  -5  -5   22.63    3.04
   2  -5  -5   15.11    2.65
   2  -5  -5   23.61    2.98
   2  -5  -4  109.83    6.98
   2  -5  -4  118.06    6.82
   2  -5  -4  119.18    6.93
   2  -5  -4  110.14    7.17
   2  -5  -4  122.60    7.16
   2  -5  -4  106.19    7.10
   2  -5  -4  111.29    7.00
   2  -5  -4  114.03    7.08
   2  -5  -3  110.80    6.30
   2  -5  -3  101.34    6.15
   2  -5  -3  108.68    6.37
   2  -5  -3  111.21    6.52
   2  -5  -3  116.67    6.72
   2  -5  -3   95.41    5.81
   2  -5  -3  109.89    6.20
   2  -5  -3  106.42    6.54
   2  -5  -3  112.71    6.57
   2  -5  -2   65.07    4.18
   2  -5  -2   60.95    4.08
   2  -5  -2   74.95    4.41
   2  -5  -2   64.32    4.42
   2  -5  -2   70.18    4.53
   2  -5  -2   69.04    4.13
   2  -5  -2   63.80    3.99
   2  -5  -2   56.35    4.29
   2  -5  -2   67.46    4.39
   2  -5  -2   67.39    4.47
   2  -5  -1    9.38    1.47
   2  -5  -1   12.05    1.51
   2  -5  -1   12.62    1.76
   2  -5  -1   12.48    1.68
   2  -5  -1    8.52    1.42
   2  -5  -1   11.98    1.72
   2  -5  -1    8.57    1.73
   2  -5  -1   11.40    1.39
   2  -5  -1   11.46    1.74
   2  -5  -1    8.66    1.70
   2  -5  -1    9.89    1.73
   2  -5   0  136.83    7.21
   2  -5   0  130.58    6.95
   2  -5   0  143.26    7.40
   2  -5   0  133.36    6.94
   2  -5   0  129.08    7.12
   2  -5   0  129.55    7.29
   2  -5   0  138.82    7.31
   2  -5   0  133.66    7.11
   2  -5   0  127.36    6.42
   2  -5   1  393.40   18.78
   2  -5   1  409.26   19.33
   2  -5   1  402.71   18.87
   2  -5   1  399.62   18.68
   2  -5   1  398.85   19.44
   2  -5   1  387.78   19.01
   2  -5   1  398.30   19.32
   2  -5   1  423.44   19.55
   2  -5   1  395.68   19.35
   2  -5   2   22.28    1.83
   2  -5   2   23.46    1.72
   2  -5   2   23.54    2.24
   2  -5   2   23.43    2.41
   2  -5   2   24.13    1.98
   2  -5   2   17.90    2.15
   2  -5   2   16.80    2.14
   2  -5   2   20.30    2.37
   2  -5   2   21.55    2.30
   2  -5   3   70.29    4.23
   2  -5   3   74.92    4.36
   2  -5   3   66.26    3.93
   2  -5   3   75.18    4.67
   2  -5   3   71.99    4.78
   2  -5   3   65.41    4.21
   2  -5   3   72.40    4.95
   2  -5   4   63.30    4.07
   2  -5   4   62.20    3.69
   2  -5   4   62.48    4.42
   2  -5   4   67.73    4.15
   2  -5   4   64.16    4.64
   2  -5   4   51.86    4.56
   2  -5   5    1.02    1.18
   2  -5   5   -0.17    1.37
   2  -5   5    0.38    1.62
   2  -5   5    1.19    1.09
   2  -5   5    0.80    0.67
   2  -5   5   -1.37    1.83
   2  -5   6   13.95    2.09
   2  -5   6   16.16    2.46
   2  -5   6   18.91    2.82
   2  -5   6   12.70    2.03
   2  -5   6   15.55    2.97
   2  -5   7   -0.17    1.50
   2  -5   7   -0.22    1.57
   2  -5   7    1.71    2.13
   2  -5   7    0.70    1.23
   2  -5   7    2.06    2.46
   2  -5   8   34.32    3.48
   2  -5   8   52.58    4.45
   2  -5   8   48.48    3.84
   2  -5   8   32.64    4.51
   2  -5   9   47.41    4.23
   2  -5   9   42.40    3.63
   2  -5   9   39.40    4.56
   2  -5  10    2.24    1.36
   2  -5  10    2.65    2.06
   2  -5  11    4.28    1.71
   2  -4 -11    0.69    1.28
   2  -4 -11    1.44    1.49
   2  -4 -10    4.25    1.70
   2  -4 -10    2.84    2.06
   2  -4  -9    9.26    2.12
   2  -4  -9    6.48    2.47
   2  -4  -9    4.02    2.41
   2  -4  -9   10.31    2.59
   2  -4  -8    8.71    2.23
   2  -4  -8    4.15    2.52
   2  -4  -8    8.56    2.73
   2  -4  -8   12.75    2.88
   2  -4  -7   18.61    2.65
   2  -4  -7   17.39    3.30
   2  -4  -7   19.46    3.23
   2  -4  -7   15.64    2.58
   2  -4  -7   26.41    3.38
   2  -4  -6    0.34    1.42
   2  -4  -6   -0.18    1.27
   2  -4  -6   -0.62    1.94
   2  -4  -6   -1.11    1.78
   2  -4  -6    0.17    1.60
   2  -4  -6   -0.62    1.78
   2  -4  -5   14.07    2.01
   2  -4  -5   14.16    1.99
   2  -4  -5    8.55    2.19
   2  -4  -5    9.35    2.14
   2  -4  -5   11.51    2.12
   2  -4  -5   11.20    2.14
   2  -4  -4  404.75   19.30
   2  -4  -4  426.86   19.50
   2  -4  -4  407.58   19.69
   2  -4  -4  354.34   18.89
   2  -4  -4  387.44   19.56
   2  -4  -4  397.29   19.65
   2  -4  -4  411.95   19.52
   2  -4  -4  394.85   19.61
   2  -4  -3  176.42    9.11
   2  -4  -3  176.31    9.06
   2  -4  -3  198.50    9.32
   2  -4  -3  169.47    9.41
   2  -4  -3  168.62    8.89
   2  -4  -3  178.57    9.01
   2  -4  -3  159.26    9.13
   2  -4  -3  173.72    9.33
   2  -4  -3  173.68    9.36
   2  -4  -2   65.74    4.07
   2  -4  -2   72.93    4.35
   2  -4  -2   60.16    3.77
   2  -4  -2   69.29    4.17
   2  -4  -2   64.39    4.17
   2  -4  -2   64.36    4.25
   2  -4  -2   64.17    4.23
   2  -4  -2   64.33    3.89
   2  -4  -1  375.33   17.31
   2  -4  -1  412.64   18.21
   2  -4  -1  391.23   17.88
   2  -4  -1  366.49   17.35
   2  -4  -1  382.32   18.03
   2  -4   0    4.94    1.13
   2  -4   0    4.31    0.61
   2  -4   0    4.09    1.15
   2  -4   0    3.01    1.12
   2  -4   0    4.22    0.88
   2  -4   0    4.40    0.91
   2  -4   1   20.34    1.53
   2  -4   1   19.86    1.86
   2  -4   1   17.93    1.40
   2  -4   1   19.28    1.57
   2  -4   1   20.48    1.95
   2  -4   1   23.32    2.00
   2  -4   1   18.17    1.66
   2  -4   2  494.66   22.81
   2  -4   2  466.78   22.43
   2  -4   2  507.40   23.13
   2  -4   2  471.69   22.69
   2  -4   2  480.07   23.11
   2  -4   2  488.37   23.12
   2  -4   2  521.26   23.26
   2  -4   2  476.38   22.92
   2  -4   3 1195.07   54.95
   2  -4   3 1235.17   55.50
   2  -4   3 1252.08   55.78
   2  -4   3 1227.99   55.31
   2  -4   3 1093.07   55.58
   2  -4   3 1218.50   55.91
   2  -4   4  430.70   21.13
   2  -4   4  445.25   20.76
   2  -4   4  447.96   21.40
   2  -4   4  450.99   21.65
   2  -4   4  449.40   21.21
   2  -4   4  426.57   21.74
   2  -4   5    8.34    1.62
   2  -4   5    9.51    1.91
   2  -4   5    8.51    1.15
   2  -4   5    7.68    1.44
   2  -4   5    8.29    2.32
   2  -4   6   19.87    2.48
   2  -4   6   30.33    3.10
   2  -4   6   23.79    3.33
   2  -4   6   28.81    2.67
   2  -4   7  755.80   38.45
   2  -4   7  859.83   39.34
   2  -4   7  759.95   39.44
   2  -4   7  874.45   38.80
   2  -4   8   75.55    5.56
   2  -4   8   79.94    6.69
   2  -4   9   18.17    2.44
   2  -4   9   13.40    3.21
   2  -4  10   -0.45    1.65
   2  -4  10    0.90    1.96
   2  -4  11   17.20    2.39
   2  -4  11   13.63    2.35
   2  -3 -11   -1.49    1.54
   2  -3 -11    0.77    1.70
   2  -3 -10   17.05    2.71
   2  -3 -10   16.66    3.30
   2  -3  -9   -1.50    1.74
   2  -3  -9    1.15    1.95
   2  -3  -9   -0.23    2.26
   2  -3  -9    1.15    2.43
   2  -3  -8    6.89    2.09
   2  -3  -8    5.99    2.47
   2  -3  -8    3.67    2.12
   2  -3  -8    7.45    2.78
   2  -3  -7  145.18    8.26
   2  -3  -7  130.69    8.64
   2  -3  -7  121.81    8.31
   2  -3  -7  139.33    7.76
   2  -3  -7  143.62    9.01
   2  -3  -7  132.52    7.96
   2  -3  -6    2.24    1.45
   2  -3  -6    1.71    1.44
   2  -3  -6    2.33    1.88
   2  -3  -6    2.00    1.13
   2  -3  -6    2.16    1.69
   2  -3  -6    3.25    1.98
   2  -3  -6    3.91    1.68
   2  -3  -6    1.27    1.90
   2  -3  -5    0.37    1.17
   2  -3  -5    0.57    1.28
   2  -3  -5    2.18    1.64
   2  -3  -5    0.68    1.08
   2  -3  -5    1.77    1.63
   2  -3  -5    0.82    1.49
   2  -3  -5    0.51    1.33
   2  -3  -4  973.29   44.28
   2  -3  -4  935.23   44.45
   2  -3  -4  989.94   44.66
   2  -3  -4  914.44   44.15
   2  -3  -4  933.45   44.46
   2  -3  -4  947.37   44.50
   2  -3  -4  991.17   44.76
   2  -3  -4  961.59   44.47
   2  -3  -4  953.90   44.41
   2  -3  -3  979.15   46.40
   2  -3  -3 1033.86   46.54
   2  -3  -3 1012.25   46.25
   2  -3  -3  956.78   46.43
   2  -3  -3  993.12   46.41
   2  -3  -3 1034.96   46.60
   2  -3  -3 1043.86   46.44
   2  -3  -3  975.26   46.25
   2  -3  -2  181.91    8.49
   2  -3  -2  199.12    9.25
   2  -3  -2  178.41    8.99
   2  -3  -2  183.12    8.63
   2  -3  -2  196.18    9.19
   2  -3  -2  182.23    8.50
   2  -3  -1 1502.52   67.42
   2  -3  -1 1434.20   67.47
   2  -3  -1 1514.06   67.99
   2  -3  -1 1525.48   67.84
   2  -3   0  343.67   16.28
   2  -3   0  366.46   16.69
   2  -3   0  346.33   16.51
   2  -3   1  352.27   16.51
   2  -3   1  366.46   16.82
   2  -3   1  366.41   17.08
   2  -3   1  354.20   16.91
   2  -3   2    1.75    0.71
   2  -3   2    0.82    1.01
   2  -3   2    1.30    1.07
   2  -3   2    2.37    0.74
   2  -3   2    2.30    0.45
   2  -3   2    2.38    0.77
   2  -3   3   31.38    1.97
   2  -3   3   34.14    2.42
   2  -3   3   30.82    2.27
   2  -3   3   36.25    2.84
   2  -3   3   32.38    2.39
   2  -3   3   32.70    2.63
   2  -3   3   37.82    2.99
   2  -3   4  435.37   20.02
   2  -3   4  436.83   20.64
   2  -3   4  412.59   20.88
   2  -3   4  414.89   20.66
   2  -3   4  416.32   21.02
   2  -3   4  435.70   20.46
   2  -3   5   41.30    3.30
   2  -3   5   45.97    3.34
   2  -3   5   40.97    3.90
   2  -3   5   47.66    2.91
   2  -3   6    3.48    1.56
   2  -3   6    7.92    1.54
   2  -3   6    2.30    2.13
   2  -3   7   81.54    5.72
   2  -3   7   94.94    6.35
   2  -3   7   76.54    6.41
   2  -3   7   98.47    5.94
   2  -3   8  112.75    7.34
   2  -3   8  130.19    8.11
   2  -3   8  106.30    8.17
   2  -3   8  134.68    7.59
   2  -3   9    0.95    1.50
   2  -3   9   -0.18    1.30
   2  -3   9   -1.05    2.20
   2  -3  10    1.06    1.39
   2  -3  10    3.37    2.15
   2  -3  11    0.33    1.31
   2  -3  11    2.07    1.59
   2  -2 -12    1.22    1.30
   2  -2 -12    1.69    1.44
   2  -2 -11   -0.56    1.65
   2  -2 -11    1.59    1.76
   2  -2 -11    1.71    1.82
   2  -2 -10    5.66    2.55
   2  -2 -10    7.03    2.17
   2  -2 -10    4.54    2.39
   2  -2 -10    6.10    1.71
   2  -2 -10    2.48    2.13
   2  -2  -9    3.18    1.87
   2  -2  -9    1.32    2.16
   2  -2  -9   -0.53    2.21
   2  -2  -9   -1.71    1.47
   2  -2  -9    0.50    2.04
   2  -2  -8   -1.34    1.67
   2  -2  -8   -1.00    2.11
   2  -2  -8   -0.21    1.63
   2  -2  -8    1.26    1.35
   2  -2  -8    1.49    1.97
   2  -2  -8    0.53    2.12
   2  -2  -8    1.37    1.93
   2  -2  -7    2.27    1.66
   2  -2  -7    1.13    1.94
   2  -2  -7    3.12    1.60
   2  -2  -7    2.41    2.09
   2  -2  -7    3.98    1.63
   2  -2  -7    1.13    1.92
   2  -2  -7    1.56    1.76
   2  -2  -6    0.93    1.27
   2  -2  -6   -0.16    1.75
   2  -2  -6    0.15    1.29
   2  -2  -6   -0.18    1.85
   2  -2  -6    0.14    1.11
   2  -2  -6   -0.13    1.20
   2  -2  -6    1.10    1.65
   2  -2  -6   -0.24    1.22
   2  -2  -6    0.96    1.63
   2  -2  -5   63.63    4.61
   2  -2  -5   64.55    4.77
   2  -2  -5   74.99    3.64
   2  -2  -5   67.31    4.32
   2  -2  -5   74.60    4.54
   2  -2  -5   66.19    4.48
   2  -2  -5   60.67    4.21
   2  -2  -5   62.60    4.48
   2  -2  -5   60.29    4.65
   2  -2  -5   74.00    3.81
   2  -2  -5   59.56    4.23
   2  -2  -5   71.17    4.65
   2  -2  -4   45.72    2.46
   2  -2  -4   44.40    3.01
   2  -2  -4   43.50    3.07
   2  -2  -4   45.50    3.28
   2  -2  -4   42.90    3.08
   2  -2  -4   42.26    3.18
   2  -2  -4   51.45    3.49
   2  -2  -4   45.20    2.62
   2  -2  -4   44.57    3.13
   2  -2  -4   43.75    3.15
   2  -2  -4   48.20    3.02
   2  -2  -4   39.87    3.17
   2  -2  -3  325.05   15.02
   2  -2  -3  326.77   15.53
   2  -2  -3  345.16   15.59
   2  -2  -3  314.56   15.12
   2  -2  -3  317.85   15.44
   2  -2  -2  833.80   38.25
   2  -2  -2  814.19   38.24
   2  -2  -2  779.96   38.26
   2  -2  -2  827.49   37.92
   2  -2  -2  818.17   38.12
   2  -2  -2  867.72   37.85
   2  -2  -1 1987.67   91.05
   2  -2  -1 2009.18   90.74
   2  -2  -1 1955.46   90.80
   2  -2  -1 2135.88   91.08
   2  -2  -1 1953.83   90.90
   2  -2   0  621.57   28.94
   2  -2   0  621.87   28.74
   2  -2   0  617.39   28.77
   2  -2   0  623.99   28.77
   2  -2   0  683.55   28.95
   2  -2   0  599.57   28.74
   2  -2   1  394.65   18.60
   2  -2   1  389.13   18.41
   2  -2   1  404.35   18.64
   2  -2   1  389.21   18.48
   2  -2   1  394.65   18.37
   2  -2   2    6.43    1.22
   2  -2   2    5.62    0.54
   2  -2   2    5.23    0.97
   2  -2   2    8.32    1.35
   2  -2   2    6.96    1.17
   2  -2   2    6.87    0.92
   2  -2   3  933.66   42.71
   2  -2   3  910.06   42.28
   2  -2   3  925.94   42.44
   2  -2   3  904.16   42.65
   2  -2   3  908.48   42.48
   2  -2   3  925.04   41.96
   2  -2   4   51.91    3.47
   2  -2   4   58.53    3.47
   2  -2   4   49.26    3.36
   2  -2   4   48.20    3.68
   2  -2   4   51.79    3.48
   2  -2   4   54.69    3.05
   2  -2   5   13.54    1.92
   2  -2   5   14.65    1.87
   2  -2   5   16.56    1.88
   2  -2   5   16.87    1.81
   2  -2   5   19.81    1.61
   2  -2   6   -0.43    1.28
   2  -2   6    1.41    1.04
   2  -2   7  137.86    8.35
   2  -2   7  152.62    8.50
   2  -2   8  140.08    8.74
   2  -2   8  175.01    9.72
   2  -2   8  164.18    8.99
   2  -2   8  129.54    9.47
   2  -2   9  138.89    8.00
   2  -2   9  120.78    7.14
   2  -2  10   -1.44    1.45
   2  -2  10    0.22    2.01
   2  -2  11    0.46    1.28
   2  -2  11   -0.30    1.44
   2  -1 -12    9.24    1.90
   2  -1 -12    7.98    1.96
   2  -1 -11    2.01    1.75
   2  -1 -11    0.50    2.23
   2  -1 -11    1.42    1.43
   2  -1 -11    4.30    2.18
   2  -1 -10    6.08    2.04
   2  -1 -10    2.59    2.71
   2  -1 -10    7.37    2.06
   2  -1 -10    7.23    2.46
   2  -1  -9   23.45    3.09
   2  -1  -9   18.35    3.69
   2  -1  -9   27.62    3.17
   2  -1  -9   21.64    3.38
   2  -1  -8    1.64    1.63
   2  -1  -8    0.20    1.43
   2  -1  -8   -0.52    2.15
   2  -1  -8    0.77    1.60
   2  -1  -8    0.97    1.97
   2  -1  -8    0.21    1.77
   2  -1  -7    5.77    1.67
   2  -1  -7    3.99    1.57
   2  -1  -7    3.98    2.34
   2  -1  -7    3.67    1.67
   2  -1  -7    2.78    1.12
   2  -1  -7    3.24    2.09
   2  -1  -7    4.43    1.05
   2  -1  -7    4.79    1.94
   2  -1  -6  187.03   10.36
   2  -1  -6  222.03   10.62
   2  -1  -6  190.68   10.53
   2  -1  -6  202.45   11.12
   2  -1  -6  198.40   10.69
   2  -1  -6  186.90   10.08
   2  -1  -6  208.18   10.08
   2  -1  -6  196.13   10.63
   2  -1  -5    3.66    1.18
   2  -1  -5    2.68    1.57
   2  -1  -5    3.95    1.32
   2  -1  -5    3.07    1.80
   2  -1  -5    4.24    0.78
   2  -1  -5    3.45    1.10
   2  -1  -5    2.48    1.21
   2  -1  -5    3.51    1.33
   2  -1  -5    3.73    0.89
   2  -1  -5    9.12    1.66
   2  -1  -4   82.22    4.36
   2  -1  -4   85.21    4.70
   2  -1  -4   81.17    4.77
   2  -1  -4   81.44    4.34
   2  -1  -4   85.62    4.37
   2  -1  -4   76.03    4.95
   2  -1  -4   82.12    4.46
   2  -1  -4   83.06    4.59
   2  -1  -3  173.14    8.79
   2  -1  -3  157.12    8.83
   2  -1  -3  153.73    8.85
   2  -1  -3  189.78    8.69
   2  -1  -3  183.63    8.68
   2  -1  -3  192.76    8.70
   2  -1  -3  185.24    8.75
   2  -1  -3  183.11    8.62
   2  -1  -1 3728.03  172.36
   2  -1  -1 3784.94  172.33
   2  -1  -1 3924.29  172.49
   2  -1  -1 3964.26  172.36
   2  -1  -1 3733.58  172.34
   2  -1  -1 3726.51  172.34
   2  -1   0  621.50   28.93
   2  -1   0  618.40   28.87
   2  -1   0  651.86   28.83
   2  -1   0  626.42   28.83
   2  -1   0  623.64   28.70
   2  -1   0  626.69   28.83
   2  -1   1 1323.46   62.61
   2  -1   1 1453.36   62.67
   2  -1   1 1372.08   62.41
   2  -1   1 1381.80   62.35
   2  -1   1 1359.95   62.35
   2  -1   1 1353.87   62.35
   2  -1   2  822.52   38.64
   2  -1   2  837.18   38.35
   2  -1   2  855.95   38.11
   2  -1   2  863.00   38.61
   2  -1   2  760.37   38.32
   2  -1   2  849.21   38.11
   2  -1   2  840.16   38.01
   2  -1   3    3.32    0.54
   2  -1   3    3.82    0.91
   2  -1   3    3.64    1.18
   2  -1   3    2.73    0.70
   2  -1   3    3.36    0.75
   2  -1   3    2.70    0.61
   2  -1   4  133.07    7.14
   2  -1   4  128.69    6.65
   2  -1   4  130.71    6.98
   2  -1   4  116.68    7.08
   2  -1   4  125.87    6.87
   2  -1   4  149.80    7.05
   2  -1   4  140.97    6.73
   2  -1   5  657.47   30.83
   2  -1   5  713.39   30.89
   2  -1   5  698.10   30.52
   2  -1   6   33.87    3.01
   2  -1   6   39.57    2.73
   2  -1   7   23.29    2.82
   2  -1   7   31.02    2.96
   2  -1   8   23.14    3.01
   2  -1   8   33.12    3.07
   2  -1   9  197.56   10.47
   2  -1   9  188.12    9.77
   2  -1  10   -0.61    1.95
   2   0 -12    5.14    1.80
   2   0 -12    4.55    2.23
   2   0 -12    5.76    1.62
   2   0 -12    4.82    1.94
   2   0 -11    1.05    1.81
   2   0 -11    1.69    2.57
   2   0 -11    1.26    1.61
   2   0 -11    1.16    2.02
   2   0 -10   -1.76    1.85
   2   0 -10    0.31    2.63
   2   0 -10    0.46    1.74
   2   0 -10    0.28    2.19
   2   0 -10    0.74    2.00
   2   0  -9   18.04    2.64
   2   0  -9   12.38    3.28
   2   0  -9   14.85    2.69
   2   0  -9   11.13    2.01
   2   0  -9   11.23    2.87
   2   0  -9   13.33    2.72
   2   0  -9   15.08    1.96
   2   0  -8    0.53    1.55
   2   0  -8   -0.26    2.35
   2   0  -8    2.01    1.65
   2   0  -8    0.76    1.23
   2   0  -8   -0.23    1.94
   2   0  -8    0.28    0.86
   2   0  -8   -0.20    1.74
   2   0  -7   51.63    4.91
   2   0  -7   55.62    4.07
   2   0  -7   48.80    4.25
   2   0  -7   50.53    4.04
   2   0  -7   53.28    4.27
   2   0  -7   54.12    3.88
   2   0  -7   48.03    4.45
   2   0  -7   59.20    3.79
   2   0  -7   54.73    4.26
   2   0  -6   87.22    5.38
   2   0  -6   84.39    5.49
   2   0  -6   94.02    5.47
   2   0  -6   74.64    5.92
   2   0  -6   93.18    5.43
   2   0  -6   81.92    5.72
   2   0  -6  103.17    5.35
   2   0  -6   83.27    5.45
   2   0  -5   69.71    4.00
   2   0  -5   66.00    4.13
   2   0  -5   72.31    4.19
   2   0  -5   62.95    4.11
   2   0  -5   69.02    4.78
   2   0  -5   62.24    4.27
   2   0  -5   67.60    3.71
   2   0  -5   66.90    4.18
   2   0  -5   67.17    4.47
   2   0  -5   74.38    3.76
   2   0  -5   73.29    4.14
   2   0  -5   62.87    4.41
   2   0  -5   65.46    4.23
   2   0  -5   67.40    3.56
   2   0  -4  272.46   12.57
   2   0  -4  258.87   12.57
   2   0  -4  255.54   12.80
   2   0  -4  251.64   12.80
   2   0  -4  265.77   12.61
   2   0  -4  259.84   12.36
   2   0  -4  260.19   12.36
   2   0  -4  257.16   12.25
   2   0  -3  102.50    5.61
   2   0  -3  107.00    5.81
   2   0  -3  110.26    5.69
   2   0  -3  114.81    5.60
   2   0  -3  116.56    5.61
   2   0  -3  117.61    5.61
   2   0  -3  105.94    5.46
   2   0  -3  114.49    5.65
   2   0  -2 9178.92  429.23
   2   0  -2 9999.00  429.51
   2   0  -2 9513.55  429.26
   2   0  -1 1098.48   47.93
   2   0  -1  995.00   47.88
   2   0  -1 1114.84   47.73
   2   0  -1 1034.18   47.83
   2   0  -1 1030.20   47.53
   2   0  -1 1031.65   47.82
   2   0   0   19.83    1.38
   2   0   0   24.23    1.26
   2   0   0   20.64    1.09
   2   0   0   20.37    1.42
   2   0   0   18.84    1.39
   2   0   1  822.90   40.85
   2   0   1  899.35   40.94
   2   0   1  893.42   40.56
   2   0   1  939.70   40.87
   2   0   1  835.03   40.49
   2   0   1  931.87   40.52
   2   0   1  902.60   40.70
   2   0   1  905.26   40.54
   2   0   1  904.83   40.69
   2   0   2   16.60    1.45
   2   0   2   15.01    1.33
   2   0   2   12.13    1.07
   2   0   2   17.92    1.13
   2   0   2   16.31    1.05
   2   0   2   15.10    1.14
   2   0   2   15.07    1.03
   2   0   3  194.91    9.62
   2   0   3  183.58    9.48
   2   0   3  175.07    9.15
   2   0   3  192.94    8.88
   2   0   3  194.51    8.88
   2   0   3  200.79    9.36
   2   0   3  195.85    9.25
   2   0   4  263.52   12.77
   2   0   4  261.11   12.60
   2   0   4  225.33   12.21
   2   0   4  279.34   12.57
   2   0   4  267.35   12.40
   2   0   5   78.92    4.71
   2   0   5   81.14    4.59
   2   0   6    9.85    1.37
   2   0   6    8.40    1.32
   2   0   6    9.18    1.61
   2   0   7    2.86    1.40
   2   0   8    7.92    1.99
   2   0   8   12.61    2.06
   2   0   9   -0.43    1.35
   2   0   9    0.66    1.12
   2   0  10    0.73    1.73
   2   1 -12   14.26    2.43
   2   1 -12   10.58    2.84
   2   1 -12   12.88    2.24
   2   1 -12    8.69    2.24
   2   1 -11   11.19    2.47
   2   1 -11    8.00    3.19
   2   1 -11   12.32    2.61
   2   1 -11    9.61    1.81
   2   1 -11    9.16    2.49
   2   1 -10    1.33    1.96
   2   1 -10   -0.31    2.65
   2   1 -10    1.94    1.92
   2   1 -10    1.15    1.42
   2   1 -10   -1.10    2.41
   2   1 -10    0.71    1.93
   2   1 -10    1.25    1.10
   2   1  -9   30.46    3.36
   2   1  -9   26.81    4.07
   2   1  -9   27.64    3.52
   2   1  -9   24.51    2.95
   2   1  -9   19.39    3.50
   2   1  -9   33.96    3.01
   2   1  -9   28.35    3.43
   2   1  -8   13.68    2.38
   2   1  -8   17.54    3.65
   2   1  -8   20.71    2.79
   2   1  -8   21.06    2.51
   2   1  -8   14.73    2.88
   2   1  -8   21.04    2.30
   2   1  -8   17.27    2.54
   2   1  -7    2.01    0.92
   2   1  -7    2.20    1.55
   2   1  -7    4.61    1.64
   2   1  -7    3.10    1.35
   2   1  -7    1.98    1.71
   2   1  -7    3.96    1.33
   2   1  -7    2.24    0.96
   2   1  -7    3.17    1.54
   2   1  -6   72.69    4.24
   2   1  -6   75.10    4.68
   2   1  -6   70.62    4.75
   2   1  -6   74.69    3.97
   2   1  -6   59.23    4.84
   2   1  -6   78.51    4.65
   2   1  -6   72.86    3.95
   2   1  -6   69.37    4.21
   2   1  -6   73.88    4.71
   2   1  -6   72.22    4.06
   2   1  -5  101.74    5.63
   2   1  -5  109.01    5.85
   2   1  -5  109.47    5.89
   2   1  -5  114.30    5.98
   2   1  -5  110.09    6.52
   2   1  -5   94.06    6.03
   2   1  -5   95.96    5.94
   2   1  -5  108.04    6.01
   2   1  -5  105.55    6.11
   2   1  -5  106.44    5.45
   2   1  -5  105.62    5.67
   2   1  -5  103.87    5.43
   2   1  -5  107.87    5.54
   2   1  -4    0.60    0.54
   2   1  -4    0.45    0.78
   2   1  -4    0.77    0.53
   2   1  -4    0.88    0.70
   2   1  -4    1.41    0.73
   2   1  -4    0.53    1.03
   2   1  -4    1.39    0.99
   2   1  -4    1.51    0.89
   2   1  -4    1.21    0.80
   2   1  -3 5399.65  244.16
   2   1  -3 5288.08  244.02
   2   1  -3 5576.35  244.43
   2   1  -3 5486.43  244.32
   2   1  -3 5404.43  244.29
   2   1  -3 5376.44  244.16
   2   1  -3 5393.64  244.16
   2   1  -3 5313.86  244.25
   2   1  -2  841.36   37.89
   2   1  -2  831.43   37.72
   2   1  -2  800.51   37.77
   2   1  -1 2874.03  136.65
   2   1  -1 3180.64  136.66
   2   1  -1 2871.28  136.71
   2   1  -1 3227.50  136.40
   2   1  -1 2879.83  136.65
   2   1  -1 2840.33  136.68
   2   1   0   22.71    1.56
   2   1   0   22.24    1.65
   2   1   0   23.04    1.56
   2   1   0   22.23    1.56
   2   1   1   87.09    4.34
   2   1   1   81.45    4.26
   2   1   1   83.82    4.01
   2   1   1   87.74    4.35
   2   1   1   84.20    4.50
   2   1   2   75.29    3.80
   2   1   2   80.88    4.20
   2   1   2   67.65    3.82
   2   1   2   72.22    3.75
   2   1   2   76.00    3.80
   2   1   3  526.96   22.43
   2   1   3  465.73   21.90
   2   1   3  507.04   21.70
   2   1   3  526.93   22.06
   2   1   3  511.04   21.70
   2   1   4   59.52    3.83
   2   1   4   63.15    3.62
   2   1   4   60.71    3.64
   2   1   5   56.08    3.58
   2   1   6   62.89    4.28
   2   1   6   70.12    4.31
   2   1   7    0.14    0.97
   2   1   7    0.17    1.07
   2   1   8   62.33    4.63
   2   1   9   42.51    3.75
   2   1  10   14.31    2.20
   2   2 -13    0.65    1.09
   2   2 -12    1.85    1.67
   2   2 -12    0.50    2.19
   2   2 -12    3.29    1.64
   2   2 -12    1.11    1.14
   2   2 -12   -0.18    1.63
   2   2 -11   54.21    4.68
   2   2 -11   49.11    4.57
   2   2 -11   51.01    4.23
   2   2 -11   42.55    4.29
   2   2 -10   25.03    3.36
   2   2 -10   22.61    3.29
   2   2 -10   24.94    3.06
   2   2 -10   27.07    2.93
   2   2 -10   28.32    3.47
   2   2  -9   66.47    5.13
   2   2  -9   61.40    5.25
   2   2  -9   58.53    4.88
   2   2  -9   49.90    5.11
   2   2  -9   76.29    5.04
   2   2  -9   61.27    5.01
   2   2  -8   24.25    2.34
   2   2  -8   30.00    3.18
   2   2  -8   21.48    3.62
   2   2  -8   27.91    2.98
   2   2  -8   22.55    3.18
   2   2  -8   26.98    2.79
   2   2  -8   27.21    2.43
   2   2  -8   24.24    2.92
   2   2  -7  130.05    8.69
   2   2  -7  143.34    7.59
   2   2  -7  135.36    8.00
   2   2  -7  148.74    8.18
   2   2  -7  122.93    8.07
   2   2  -7  157.56    8.13
   2   2  -7  141.19    7.60
   2   2  -7  125.61    7.77
   2   2  -7  139.90    7.37
   2   2  -6   47.89    3.26
   2   2  -6   42.67    3.43
   2   2  -6   35.16    3.90
   2   2  -6   53.04    3.72
   2   2  -6   39.16    3.54
   2   2  -6   49.63    3.52
   2   2  -6   46.51    2.83
   2   2  -6   46.59    3.28
   2   2  -6   45.76    3.38
   2   2  -6   46.47    2.84
   2   2  -6   51.19    3.20
   2   2  -5  329.28   16.30
   2   2  -5  329.28   16.80
   2   2  -5  333.61   16.38
   2   2  -5  347.37   16.57
   2   2  -5  306.51   16.51
   2   2  -5  363.27   16.54
   2   2  -5  340.82   16.00
   2   2  -5  329.54   16.32
   2   2  -5  341.74   16.20
   2   2  -5  339.87   16.00
   2   2  -4 1220.70   55.87
   2   2  -4 1238.84   55.70
   2   2  -4 1201.73   56.08
   2   2  -4 1197.43   55.69
   2   2  -4 1203.98   55.87
   2   2  -4 1225.98   55.81
   2   2  -4 1217.15   55.91
   2   2  -3   54.27    3.21
   2   2  -3   51.37    3.05
   2   2  -3   60.33    3.42
   2   2  -3   48.34    3.14
   2   2  -3   54.99    3.24
   2   2  -3   50.42    3.04
   2   2  -3   49.75    3.10
   2   2  -2  357.19   17.19
   2   2  -2  397.41   17.18
   2   2  -2  355.37   17.16
   2   2  -2  347.06   17.18
   2   2  -2  356.62   17.15
   2   2  -2  367.66   17.16
   2   2  -1 2334.80  106.98
   2   2  -1 2446.96  106.82
   2   2  -1 2332.51  107.00
   2   2  -1 2325.82  106.98
   2   2  -1 2295.94  106.99
   2   2   0   55.40    2.92
   2   2   0   55.76    3.26
   2   2   0   59.97    3.26
   2   2   0   57.80    3.25
   2   2   1    0.22    0.52
   2   2   1    1.05    0.50
   2   2   1    0.23    0.25
   2   2   1    0.31    0.26
   2   2   1   -0.32    0.62
   2   2   1    0.61    0.51
   2   2   1   -0.02    0.20
   2   2   2  584.62   27.05
   2   2   2  583.98   26.77
   2   2   2  579.03   26.60
   2   2   2  568.41   26.75
   2   2   3   85.15    4.49
   2   2   3   90.71    5.00
   2   2   3   93.62    4.68
   2   2   3   86.41    4.49
   2   2   4   21.96    1.95
   2   2   5  322.30   15.93
   2   2   6  187.29    9.98
   2   2   7   58.39    4.21
   2   2   8    4.93    1.45
   2   3 -13    1.36    1.19
   2   3 -12    1.73    2.37
   2   3 -12    8.21    1.97
   2   3 -12    5.22    1.62
   2   3 -12    5.71    1.74
   2   3 -11   24.15    3.13
   2   3 -11   24.02    3.06
   2   3 -11   18.26    2.83
   2   3 -11   30.07    2.94
   2   3 -10   12.34    2.68
   2   3 -10   11.47    3.49
   2   3 -10   17.61    2.85
   2   3 -10   14.98    2.36
   2   3 -10   10.25    2.37
   2   3  -9   47.94    3.66
   2   3  -9   45.56    4.41
   2   3  -9   36.73    4.76
   2   3  -9   43.85    4.22
   2   3  -9   47.10    4.29
   2   3  -9   43.43    4.32
   2   3  -9   46.70    3.64
   2   3  -9   35.63    3.78
   2   3  -8   56.88    4.07
   2   3  -8   59.37    4.56
   2   3  -8   51.08    4.97
   2   3  -8   53.59    4.58
   2   3  -8   51.40    4.43
   2   3  -8   47.89    4.42
   2   3  -8   68.63    4.65
   2   3  -8   52.97    4.05
   2   3  -8   53.08    4.23
   2   3  -8   59.48    3.92
   2   3  -7  170.83    8.84
   2   3  -7  161.19    9.09
   2   3  -7  148.18    9.55
   2   3  -7  160.86    9.20
   2   3  -7  139.76    8.94
   2   3  -7  157.72    9.20
   2   3  -7  178.45    9.25
   2   3  -7  168.60    8.85
   2   3  -7  148.77    8.66
   2   3  -7  168.25    8.69
   2   3  -6   71.28    4.42
   2   3  -6   66.68    4.56
   2   3  -6   63.66    4.97
   2   3  -6   63.01    4.46
   2   3  -6   70.84    3.96
   2   3  -6   72.97    4.49
   2   3  -6   58.39    4.06
   2   3  -6   68.22    4.29
   2   3  -6   68.03    3.92
   2   3  -5  471.56   22.39
   2   3  -5  465.80   22.02
   2   3  -5  474.84   22.42
   2   3  -5  436.60   22.51
   2   3  -5  457.86   22.49
   2   3  -5  448.85   21.99
   2   3  -5  470.38   22.70
   2   3  -5  468.37   22.02
   2   3  -5  476.52   22.42
   2   3  -5  497.08   22.34
   2   3  -4   21.30    2.02
   2   3  -4   20.35    1.70
   2   3  -4   19.77    2.09
   2   3  -4   19.30    2.04
   2   3  -4   21.30    2.02
   2   3  -4   21.13    1.81
   2   3  -4   19.30    1.96
   2   3  -4   21.09    1.73
   2   3  -4   20.37    1.92
   2   3  -4   18.02    1.80
   2   3  -3  166.91    8.54
   2   3  -3  173.82    8.68
   2   3  -3  172.60    8.64
   2   3  -3  170.46    8.57
   2   3  -3  170.41    8.65
   2   3  -3  169.84    8.56
   2   3  -3  166.98    8.62
   2   3  -2  508.96   23.74
   2   3  -2  520.74   23.55
   2   3  -2  496.51   23.62
   2   3  -2  505.32   23.75
   2   3  -2  489.22   23.64
   2   3  -1 1037.40   48.36
   2   3  -1 1072.35   47.90
   2   3  -1 1028.72   48.23
   2   3  -1 1033.52   48.30
   2   3  -1 1058.54   48.40
   2   3  -1 1078.62   48.37
   2   3  -1 1040.14   48.30
   2   3  -1 1035.68   48.24
   2   3   0  113.65    5.85
   2   3   0  110.14    5.91
   2   3   0  113.72    6.03
   2   3   0  110.71    5.87
   2   3   0  112.58    5.92
   2   3   1  105.85    5.52
   2   3   1  107.56    5.51
   2   3   1  100.12    5.00
   2   3   1  107.07    5.52
   2   3   1  107.12    5.70
   2   3   1  102.82    5.50
   2   3   1   97.54    5.45
   2   3   2  223.00   10.85
   2   3   2  213.00   10.66
   2   3   2  224.53   10.81
   2   3   2  216.78   10.39
   2   3   2  224.42   10.99
   2   3   2  213.06   10.66
   2   3   3   31.79    2.37
   2   3   3   31.34    2.32
   2   3   3   34.61    2.53
   2   3   4  104.23    5.90
   2   3   5   24.39    2.26
   2   3   7   -0.48    1.12
   2   4 -12    0.47    2.23
   2   4 -12    0.38    1.60
   2   4 -12    0.86    1.43
   2   4 -12   -1.44    1.37
   2   4 -11    1.95    2.57
   2   4 -11    5.63    2.02
   2   4 -11    5.64    1.92
   2   4 -11    8.76    1.84
   2   4 -11    4.86    1.85
   2   4 -10   43.55    3.54
   2   4 -10   29.89    4.53
   2   4 -10   34.00    3.95
   2   4 -10   41.24    4.12
   2   4 -10   47.02    4.02
   2   4 -10   43.40    3.57
   2   4 -10   37.99    3.65
   2   4  -9    0.30    1.03
   2   4  -9   -0.18    1.19
   2   4  -9   -0.66    1.75
   2   4  -9    3.30    2.44
   2   4  -9    0.22    1.69
   2   4  -9    0.45    1.75
   2   4  -9   -0.63    1.39
   2   4  -9    0.53    1.32
   2   4  -9   -0.53    1.58
   2   4  -8   20.18    2.18
   2   4  -8   15.92    2.15
   2   4  -8   11.46    3.00
   2   4  -8   15.50    2.66
   2   4  -8   14.62    2.44
   2   4  -8   16.91    2.59
   2   4  -8   19.28    2.47
   2   4  -8   13.68    2.10
   2   4  -8   14.43    2.21
   2   4  -7    0.70    1.02
   2   4  -7    1.84    1.20
   2   4  -7    1.68    1.64
   2   4  -7    0.52    1.49
   2   4  -7    2.28    2.02
   2   4  -7    1.56    1.30
   2   4  -6  273.32   13.89
   2   4  -6  263.40   13.99
   2   4  -6  287.12   14.03
   2   4  -6  266.70   13.39
   2   4  -6  262.98   13.86
   2   4  -6  259.21   14.20
   2   4  -6  280.78   13.79
   2   4  -5   11.57    1.62
   2   4  -5   12.02    1.80
   2   4  -5   11.60    1.37
   2   4  -5   11.70    2.09
   2   4  -5   10.78    1.80
   2   4  -5   11.90    1.20
   2   4  -5   13.00    1.41
   2   4  -5   10.63    1.51
   2   4  -5   10.60    1.69
   2   4  -5   13.37    1.90
   2   4  -4  120.62    6.73
   2   4  -4  132.57    7.07
   2   4  -4  120.85    7.00
   2   4  -4  122.76    6.55
   2   4  -4  128.96    6.95
   2   4  -4  131.57    6.90
   2   4  -4  124.36    6.77
   2   4  -4  132.73    7.02
   2   4  -3  543.91   26.06
   2   4  -3  554.35   25.91
   2   4  -3  532.48   25.98
   2   4  -3  552.14   25.97
   2   4  -3  544.36   25.94
   2   4  -3  569.30   26.04
   2   4  -3  557.18   26.10
   2   4  -3  548.20   25.97
   2   4  -2   40.06    2.95
   2   4  -2   41.54    2.62
   2   4  -2   40.98    2.84
   2   4  -2   45.58    2.85
   2   4  -2   37.82    2.93
   2   4  -2   44.83    3.02
   2   4  -2   40.56    2.79
   2   4  -1  118.52    6.25
   2   4  -1   97.73    5.39
   2   4  -1  122.64    6.06
   2   4  -1  127.81    6.31
   2   4  -1  117.66    6.28
   2   4  -1  119.96    6.25
   2   4  -1  126.47    6.30
   2   4  -1  118.01    6.06
   2   4   0   67.73    4.10
   2   4   0   64.98    3.81
   2   4   0   63.02    3.98
   2   4   0   70.24    4.16
   2   4   0   66.68    4.09
   2   4   0   64.56    4.01
   2   4   0   66.08    3.86
   2   4   1  325.04   15.86
   2   4   1  330.72   15.63
   2   4   1  322.25   15.52
   2   4   1  319.91   15.75
   2   4   1  317.61   15.86
   2   4   1  331.27   15.87
   2   4   1  328.87   15.61
   2   4   1  317.96   15.75
   2   4   2    3.13    1.08
   2   4   2    3.89    0.75
   2   4   2    3.29    1.02
   2   4   2    4.07    1.02
   2   4   3   12.28    1.55
   2   4   3   11.26    1.56
   2   4   3   11.43    1.46
   2   4   4   91.03    5.68
   2   4   5  159.70    9.97
   2   4   5  187.62    9.60
   2   4   6   61.07    4.32
   2   4   7   13.09    1.94
   2   5 -12    1.92    1.50
   2   5 -12    3.42    2.00
   2   5 -12    2.23    1.48
   2   5 -11    2.70    1.22
   2   5 -11   -0.26    2.15
   2   5 -11    1.48    1.60
   2   5 -11    1.50    1.57
   2   5 -11    1.53    1.14
   2   5 -11    1.21    1.15
   2   5 -10   20.73    2.61
   2   5 -10   17.74    3.41
   2   5 -10   19.59    2.93
   2   5 -10   20.42    3.16
   2   5 -10   26.48    2.92
   2   5 -10   20.72    2.65
   2   5  -9   14.89    2.10
   2   5  -9   12.73    2.10
   2   5  -9    7.36    2.73
   2   5  -9   15.49    2.56
   2   5  -9   15.87    2.35
   2   5  -8   48.11    3.85
   2   5  -8   38.60    3.78
   2   5  -8   32.86    4.12
   2   5  -8   43.32    3.97
   2   5  -8   45.11    3.89
   2   5  -8   41.54    3.71
   2   5  -8   48.38    3.71
   2   5  -7   93.45    5.96
   2   5  -7   85.14    6.25
   2   5  -7   85.59    5.89
   2   5  -7   94.60    6.22
   2   5  -7   99.66    6.18
   2   5  -7   79.62    5.30
   2   5  -7   96.32    6.06
   2   5  -7  102.43    5.97
   2   5  -6    9.44    1.72
   2   5  -6   12.20    1.85
   2   5  -6    7.08    2.03
   2   5  -6    7.29    1.71
   2   5  -6   10.57    1.96
   2   5  -6   10.67    1.59
   2   5  -6    9.90    1.78
   2   5  -6    8.86    1.78
   2   5  -6    8.35    1.48
   2   5  -5    2.08    1.21
   2   5  -5    1.89    1.53
   2   5  -5    0.88    1.30
   2   5  -5    1.38    1.21
   2   5  -5    1.11    0.77
   2   5  -5    2.48    1.13
   2   5  -4  411.37   19.78
   2   5  -4  369.70   19.47
   2   5  -4  408.53   19.75
   2   5  -4  393.50   19.30
   2   5  -4  418.71   19.67
   2   5  -4  414.30   19.70
   2   5  -4  416.22   19.82
   2   5  -3   25.95    2.35
   2   5  -3   17.90    1.84
   2   5  -3   22.61    2.19
   2   5  -3   21.55    1.98
   2   5  -3   20.48    1.99
   2   5  -3   20.63    2.20
   2   5  -3   20.53    2.24
   2   5  -3   22.18    2.20
   2   5  -2   28.33    2.51
   2   5  -2   28.98    2.31
   2   5  -2   26.17    2.16
   2   5  -2   23.50    2.42
   2   5  -2   29.71    2.51
   2   5  -1 1010.12   47.35
   2   5  -1  999.51   46.96
   2   5  -1 1049.43   47.53
   2   5  -1 1028.79   47.40
   2   5  -1 1013.35   47.36
   2   5   0  338.15   16.34
   2   5   0  319.25   15.84
   2   5   0  344.71   16.58
   2   5   0  327.08   16.33
   2   5   0  337.42   16.38
   2   5   1   10.54    1.52
   2   5   2   25.03    2.31
   2   5   2   28.03    2.71
   2   5   2   25.58    2.61
   2   5   2   29.17    2.47
   2   5   2   29.33    2.37
   2   5   3  250.59   13.02
   2   5   3  240.48   12.71
   2   5   4  121.76    8.52
   2   5   4  153.52    8.23
   2   5   5   77.60    5.75
   2   5   6   14.68    2.02
   2   5   7   49.58    3.70
   2   6 -12    2.58    1.34
   2   6 -12    0.32    1.31
   2   6 -11    8.30    1.61
   2   6 -11    3.58    2.22
   2   6 -11    6.05    1.88
   2   6 -11    5.89    1.51
   2   6 -11    6.93    1.69
   2   6 -10    5.67    1.48
   2   6 -10    6.44    1.72
   2   6 -10    4.39    2.23
   2   6 -10    7.04    1.99
   2   6 -10    6.36    1.85
   2   6  -9    0.36    1.17
   2   6  -9    0.80    1.44
   2   6  -9    0.24    2.03
   2   6  -9   -0.21    1.49
   2   6  -9    1.14    1.82
   2   6  -9   -0.21    1.24
   2   6  -9   -0.41    1.51
   2   6  -8   13.03    2.19
   2   6  -8   19.34    2.59
   2   6  -8   17.87    2.54
   2   6  -8   15.12    2.78
   2   6  -8   13.68    2.57
   2   6  -8   18.31    2.44
   2   6  -8   14.87    2.39
   2   6  -7  140.82    8.28
   2   6  -7  113.44    7.96
   2   6  -7  136.58    8.04
   2   6  -7  135.31    8.35
   2   6  -7  142.94    8.25
   2   6  -7  131.50    7.69
   2   6  -7  139.87    8.32
   2   6  -7  149.12    8.22
   2   6  -6   -0.68    1.27
   2   6  -6   -0.57    1.18
   2   6  -6    0.18    1.40
   2   6  -6    0.45    1.17
   2   6  -6   -0.67    1.12
   2   6  -6   -0.27    1.20
   2   6  -5   -0.33    1.45
   2   6  -5    0.16    1.25
   2   6  -5    0.60    1.29
   2   6  -5    0.33    0.80
   2   6  -5    0.60    1.10
   2   6  -5    0.17    1.42
   2   6  -5   -0.44    1.30
   2   6  -4  207.16   10.67
   2   6  -4  190.38   10.39
   2   6  -4  187.61   10.15
   2   6  -4  184.69   10.21
   2   6  -4  202.26   10.57
   2   6  -4  192.10   10.59
   2   6  -4  202.98   10.62
   2   6  -3  452.18   21.43
   2   6  -3  423.77   21.06
   2   6  -3  418.08   21.11
   2   6  -3  434.47   21.02
   2   6  -3  435.83   21.42
   2   6  -3  443.18   21.43
   2   6  -3  441.37   21.38
   2   6  -2  149.42    8.41
   2   6  -2  147.43    7.95
   2   6  -2  155.10    8.41
   2   6  -2  148.98    8.45
   2   6  -2  153.24    8.44
   2   6  -1  175.50    9.40
   2   6  -1  175.13    9.56
   2   6  -1  178.19    9.69
   2   6  -1  163.33    9.33
   2   6  -1  179.00    9.49
   2   6   0  124.98    7.24
   2   6   0  135.79    7.69
   2   6   0  128.61    7.64
   2   6   0  125.76    7.29
   2   6   0  130.76    7.36
   2   6   1    1.14    1.01
   2   6   1    0.49    1.26
   2   6   1    0.85    1.30
   2   6   1    0.39    1.07
   2   6   1    0.26    0.95
   2   6   2   60.35    4.52
   2   6   2   56.21    4.30
   2   6   2   61.18    4.65
   2   6   3   89.75    6.83
   2   6   3  103.93    6.45
   2   6   3   96.96    6.12
   2   6   3   99.02    6.29
   2   6   4  315.32   18.24
   2   6   4  375.08   17.84
   2   6   5    3.70    1.93
   2   6   5    1.54    1.55
   2   6   6    0.48    1.45
   2   6   6    1.44    1.15
   2   7 -12    8.98    1.52
   2   7 -11    2.75    1.28
   2   7 -11    2.47    1.39
   2   7 -11    3.92    1.74
   2   7 -11    4.34    1.43
   2   7 -10   14.34    2.05
   2   7 -10   15.77    2.29
   2   7 -10   12.85    2.19
   2   7 -10   12.81    2.49
   2   7 -10   11.65    2.15
   2   7 -10   15.82    2.28
   2   7  -9   29.59    3.21
   2   7  -9   26.48    3.03
   2   7  -9   27.34    3.32
   2   7  -9   36.40    3.40
   2   7  -9   27.85    3.23
   2   7  -9   29.43    3.02
   2   7  -8   36.96    3.58
   2   7  -8   32.58    3.23
   2   7  -8   35.36    3.62
   2   7  -8   28.45    2.86
   2   7  -8   33.73    3.37
   2   7  -8   38.28    3.70
   2   7  -8   40.90    3.53
   2   7  -7   21.44    2.67
   2   7  -7   22.74    2.85
   2   7  -7   22.07    2.55
   2   7  -7   24.62    2.70
   2   7  -6    3.74    1.65
   2   7  -6    1.30    1.48
   2   7  -6    6.44    1.79
   2   7  -6    4.37    1.35
   2   7  -6    4.61    1.77
   2   7  -6    2.73    1.44
   2   7  -5   35.09    3.40
   2   7  -5   34.58    3.18
   2   7  -5   30.62    2.80
   2   7  -5   35.02    3.07
   2   7  -5   35.95    3.32
   2   7  -5   34.15    3.34
   2   7  -5   35.59    3.33
   2   7  -5   38.48    3.47
   2   7  -5   32.81    2.86
   2   7  -4   60.73    4.66
   2   7  -4   63.45    4.45
   2   7  -4   57.49    4.28
   2   7  -4   60.79    4.31
   2   7  -4   59.50    4.18
   2   7  -4   70.35    4.84
   2   7  -4   62.29    4.74
   2   7  -4   69.22    4.88
   2   7  -4   58.40    4.53
   2   7  -4   62.95    4.43
   2   7  -3  342.02   17.26
   2   7  -3  335.73   17.09
   2   7  -3  342.38   16.69
   2   7  -3  332.51   17.24
   2   7  -3  335.40   17.51
   2   7  -3  337.14   17.24
   2   7  -2  181.34    9.89
   2   7  -2  177.30    9.91
   2   7  -2  166.66   10.03
   2   7  -2  171.71    9.85
   2   7  -2  189.57    9.96
   2   7  -1   14.14    2.01
   2   7  -1   16.00    2.06
   2   7  -1   15.54    2.35
   2   7  -1   15.83    2.25
   2   7  -1   12.38    2.00
   2   7   0    1.06    1.12
   2   7   0    0.87    1.15
   2   7   0    0.56    1.41
   2   7   0    2.99    1.40
   2   7   0   -0.15    1.13
   2   7   0   -0.20    1.59
   2   7   1  405.16   20.73
   2   7   1  414.62   20.65
   2   7   1  415.26   20.12
   2   7   1  395.62   20.78
   2   7   2   14.91    3.03
   2   7   2   15.19    2.30
   2   7   2   15.90    2.32
   2   7   2   14.57    2.49
   2   7   3   56.84    5.33
   2   7   3   76.91    5.15
   2   7   3   65.63    4.80
   2   7   3   70.37    5.43
   2   7   4   18.68    3.03
   2   7   4   18.12    2.27
   2   7   4   15.17    2.52
   2   7   5    3.16    1.79
   2   7   5    4.53    1.76
   2   7   5    4.62    1.50
   2   7   5    3.76    1.48
   2   7   6   -0.51    1.22
   2   8 -11    0.42    1.01
   2   8 -11    2.22    1.38
   2   8 -11    1.28    1.05
   2   8 -10   -0.48    1.02
   2   8 -10    1.24    1.35
   2   8 -10    0.76    1.48
   2   8 -10    1.62    1.33
   2   8  -9   24.95    2.96
   2   8  -9   24.27    3.08
   2   8  -9   28.20    2.92
   2   8  -9   26.22    3.08
   2   8  -9   28.87    2.95
   2   8  -8   57.19    4.72
   2   8  -8   58.98    4.33
   2   8  -8   60.49    4.61
   2   8  -8   63.92    4.77
   2   8  -7   54.45    4.57
   2   8  -7   51.23    4.35
   2   8  -7   51.77    4.16
   2   8  -7   52.77    4.17
   2   8  -7   55.89    4.58
   2   8  -7   47.59    3.83
   2   8  -7   53.75    4.36
   2   8  -6  361.90   18.22
   2   8  -6  344.53   17.80
   2   8  -6  353.96   17.96
   2   8  -6  362.30   17.76
   2   8  -6  347.77   18.18
   2   8  -6  322.76   17.65
   2   8  -5   -0.61    1.44
   2   8  -5   -0.20    1.42
   2   8  -5   -0.32    1.27
   2   8  -5    1.20    1.57
   2   8  -5    1.36    1.13
   2   8  -5    1.53    1.03
   2   8  -5    0.21    1.56
   2   8  -5   -0.20    1.68
   2   8  -5   -0.15    1.32
   2   8  -4   48.29    4.15
   2   8  -4   47.37    3.95
   2   8  -4   51.42    4.01
   2   8  -4   49.34    4.23
   2   8  -4   53.08    4.33
   2   8  -4   57.09    4.60
   2   8  -4   49.36    4.13
   2   8  -4   45.14    3.91
   2   8  -3   20.48    2.64
   2   8  -3   17.49    2.44
   2   8  -3   17.16    2.68
   2   8  -3   18.89    2.41
   2   8  -3   18.73    2.58
   2   8  -3   20.56    2.94
   2   8  -3   18.75    2.69
   2   8  -2  126.73    7.50
   2   8  -2  110.52    7.72
   2   8  -2  130.76    7.71
   2   8  -2  119.08    7.75
   2   8  -2  113.56    7.36
   2   8  -2  128.23    7.55
   2   8  -2  122.64    7.80
   2   8  -1   23.83    2.62
   2   8  -1   21.51    3.25
   2   8  -1   24.01    3.07
   2   8  -1   28.56    3.05
   2   8  -1   27.67    2.78
   2   8  -1   26.19    2.69
   2   8  -1   25.25    3.35
   2   8  -1   24.84    3.13
   2   8   0    6.01    1.41
   2   8   0    2.71    2.24
   2   8   0    7.68    2.13
   2   8   0    6.39    1.90
   2   8   0    4.63    2.02
   2   8   1   86.78    6.04
   2   8   1   81.81    5.87
   2   8   1   87.82    6.13
   2   8   1   87.08    6.34
   2   8   2   37.05    4.24
   2   8   2   44.94    3.84
   2   8   2   41.82    3.57
   2   8   2   41.01    3.78
   2   8   2   42.13    4.22
   2   8   3   -0.87    1.21
   2   8   3   -0.92    2.01
   2   8   3   -0.60    1.74
   2   8   4   23.30    3.09
   2   8   4   26.71    3.17
   2   8   4   29.56    2.94
   2   8   4   28.48    2.91
   2   8   5    8.81    1.84
   2   9 -11    3.44    1.22
   2   9 -10    3.75    1.34
   2   9 -10    3.44    1.39
   2   9 -10    3.97    1.41
   2   9  -9   13.70    2.01
   2   9  -9    9.88    1.98
   2   9  -9   10.95    2.03
   2   9  -9   11.74    2.15
   2   9  -8   11.88    2.03
   2   9  -8    8.94    2.08
   2   9  -8   10.80    2.01
   2   9  -8   10.62    1.86
   2   9  -8   12.55    2.22
   2   9  -8   10.78    1.76
   2   9  -7   84.12    5.74
   2   9  -7   77.39    5.25
   2   9  -7   77.61    5.38
   2   9  -7   84.43    5.80
   2   9  -7   67.04    4.98
   2   9  -6    0.82    1.44
   2   9  -6    0.41    1.41
   2   9  -6   -0.20    1.44
   2   9  -6    1.69    1.56
   2   9  -6    0.74    1.50
   2   9  -5   50.69    4.14
   2   9  -5   45.01    3.61
   2   9  -5   41.84    3.97
   2   9  -5   42.73    3.99
   2   9  -5   49.55    4.18
   2   9  -5   48.60    4.06
   2   9  -5   42.53    3.63
   2   9  -4   11.19    2.05
   2   9  -4   11.87    2.11
   2   9  -4   11.86    2.18
   2   9  -4   13.87    2.15
   2   9  -4   16.25    2.40
   2   9  -4   13.41    2.55
   2   9  -4    9.88    2.17
   2   9  -3    6.13    1.78
   2   9  -3    5.30    1.76
   2   9  -3    3.52    1.96
   2   9  -3    6.98    2.05
   2   9  -3    6.01    1.74
   2   9  -3    4.09    1.64
   2   9  -3    3.42    1.96
   2   9  -3    5.95    2.00
   2   9  -2    5.17    1.54
   2   9  -2    6.64    1.65
   2   9  -2    4.30    2.24
   2   9  -2    8.21    2.14
   2   9  -2    7.31    1.90
   2   9  -2    6.58    1.69
   2   9  -2    6.11    2.26
   2   9  -1    2.87    2.16
   2   9  -1    1.46    1.75
   2   9  -1    2.28    1.57
   2   9  -1   -0.23    1.82
   2   9  -1    2.26    2.00
   2   9   0    2.20    2.28
   2   9   0    1.17    1.51
   2   9   0   -0.41    1.38
   2   9   0    0.86    1.80
   2   9   1   -0.17    1.26
   2   9   1   -0.39    1.26
   2   9   1   -0.19    1.52
   2   9   1    1.30    1.77
   2   9   2    7.24    2.27
   2   9   2   10.99    1.94
   2   9   2    6.70    1.73
   2   9   2    7.40    2.07
   2   9   3   31.97    3.46
   2   9   3   34.41    3.44
   2   9   3   41.62    3.37
   2   9   3   35.22    3.27
   2   9   4    1.28    1.33
   2  10  -9    8.72    1.65
   2  10  -9    8.25    1.68
   2  10  -8    6.00    1.67
   2  10  -8    9.02    1.62
   2  10  -8    6.63    1.75
   2  10  -7   25.79    2.84
   2  10  -7   27.46    2.95
   2  10  -7   33.84    3.07
   2  10  -7   28.16    2.97
   2  10  -7   27.44    2.71
   2  10  -6    2.81    1.36
   2  10  -6    3.50    1.55
   2  10  -6    5.43    1.72
   2  10  -6    4.69    1.71
   2  10  -6    5.56    1.78
   2  10  -5   54.88    4.40
   2  10  -5   52.23    4.04
   2  10  -5   66.91    4.81
   2  10  -5   62.90    4.58
   2  10  -5   57.19    4.59
   2  10  -5   58.46    4.48
   2  10  -5   57.86    4.20
   2  10  -4    9.21    1.81
   2  10  -4    9.89    1.88
   2  10  -4   13.76    1.99
   2  10  -4    9.03    1.85
   2  10  -4   10.06    2.32
   2  10  -4   10.90    2.06
   2  10  -3    5.21    1.45
   2  10  -3    5.98    1.46
   2  10  -3    3.46    1.79
   2  10  -3    7.16    1.93
   2  10  -3    5.72    1.63
   2  10  -3    4.06    1.45
   2  10  -3    3.66    2.05
   2  10  -3    1.94    1.64
   2  10  -2   27.35    3.43
   2  10  -2   31.22    3.12
   2  10  -2   32.65    3.32
   2  10  -2   27.09    3.30
   2  10  -2   36.80    3.52
   2  10  -1   65.26    5.50
   2  10  -1   82.03    5.44
   2  10  -1   81.82    5.39
   2  10  -1   70.86    5.43
   2  10  -1   73.16    5.48
   2  10   0    4.22    1.94
   2  10   0    6.80    1.66
   2  10   0    5.87    1.67
   2  10   0    7.08    1.90
   2  10   1    0.90    1.61
   2  10   1    2.53    1.40
   2  10   1    1.93    1.57
   2  10   2    9.44    1.98
   2  10   2   12.01    1.76
   2  10   2    9.55    1.80
   2  11  -7    7.80    1.51
   2  11  -7    8.72    1.61
   2  11  -7    8.09    1.57
   2  11  -6    4.11    1.25
   2  11  -6    4.49    1.43
   2  11  -6    5.19    1.37
   2  11  -6    6.35    1.52
   2  11  -5   61.69    4.08
   2  11  -5   56.70    4.28
   2  11  -5   56.46    4.02
   2  11  -5   52.85    4.17
   2  11  -4   11.18    1.96
   2  11  -4   13.28    2.25
   2  11  -4   11.12    1.82
   2  11  -3    6.80    1.66
   2  11  -3    7.98    1.81
   2  11  -2    8.31    1.72
   2  11  -2    6.12    1.57
   2  11  -2   10.24    2.05
   2  11  -2   10.74    1.59
   2  11  -2    9.23    1.96
   2  11  -1   23.96    2.40
   2  11  -1   24.80    2.61
   2  11  -1   22.81    2.57
   2  11  -1   25.95    2.73
   2  11   0    4.47    1.47
   2  11   0    4.31    1.37
   2  12  -4   -0.74    1.10
   3 -12  -2   27.19    2.84
   3 -12  -1   10.24    1.54
   3 -12  -1    9.86    1.55
   3 -12  -1    9.26    2.00
   3 -12   0   16.66    1.99
   3 -12   0   16.97    2.04
   3 -12   0   20.35    2.70
   3 -12   1   53.51    3.85
   3 -12   1   56.78    4.04
   3 -12   1   64.83    4.72
   3 -12   2    4.50    1.40
   3 -12   2    3.02    1.78
   3 -12   3    2.38    1.65
   3 -12   3    0.55    1.12
   3 -12   4   -0.39    1.01
   3 -12   4    0.87    1.60
   3 -12   5    2.05    1.48
   3 -12   6   -0.27    1.19
   3 -11  -4    1.96    1.10
   3 -11  -4    1.99    1.07
   3 -11  -4   -1.18    1.46
   3 -11  -3    0.14    1.12
   3 -11  -3    1.53    1.24
   3 -11  -3    3.75    1.88
   3 -11  -2    0.76    1.24
   3 -11  -2    1.55    1.47
   3 -11  -2    0.86    1.80
   3 -11  -2    1.37    1.37
   3 -11  -1    0.80    1.30
   3 -11  -1    1.66    1.43
   3 -11  -1    0.45    1.92
   3 -11  -1    0.49    1.43
   3 -11   0    3.70    1.47
   3 -11   0    1.90    1.40
   3 -11   0    1.39    1.93
   3 -11   0    2.92    1.35
   3 -11   0    0.34    1.42
   3 -11   1   30.81    3.05
   3 -11   1   38.47    3.45
   3 -11   1   34.96    3.12
   3 -11   1   34.20    3.82
   3 -11   2    0.31    1.18
   3 -11   2   -0.46    1.95
   3 -11   2    0.62    1.06
   3 -11   2    0.19    1.50
   3 -11   3   38.04    3.18
   3 -11   3   43.99    3.69
   3 -11   3   34.43    3.05
   3 -11   3   33.19    3.79
   3 -11   4   11.94    2.13
   3 -11   4   11.29    2.42
   3 -11   5    1.21    1.35
   3 -11   5   -1.02    1.73
   3 -11   6   11.84    1.98
   3 -11   6    9.50    2.16
   3 -11   7    0.39    1.04
   3 -11   7   -0.61    1.38
   3 -10  -5    1.82    1.26
   3 -10  -5    4.89    1.59
   3 -10  -5    4.64    1.92
   3 -10  -5    1.86    1.61
   3 -10  -5    1.64    1.39
   3 -10  -4   13.91    2.19
   3 -10  -4   13.24    2.36
   3 -10  -4   11.17    2.21
   3 -10  -4   10.94    2.48
   3 -10  -4    8.46    2.00
   3 -10  -3    6.91    1.87
   3 -10  -3    6.96    1.98
   3 -10  -3    4.90    1.88
   3 -10  -3    6.02    2.28
   3 -10  -3    4.36    1.87
   3 -10  -2  174.61    9.94
   3 -10  -2  179.99    9.86
   3 -10  -2  179.18   10.36
   3 -10  -2  163.92   10.55
   3 -10  -2  176.38   10.21
   3 -10  -1  135.09    8.21
   3 -10  -1  138.88    8.39
   3 -10  -1  135.35    8.26
   3 -10  -1  143.10    8.86
   3 -10  -1  161.66    8.60
   3 -10  -1  142.33    9.17
   3 -10   0   22.95    2.74
   3 -10   0   32.40    3.05
   3 -10   0   28.07    2.97
   3 -10   0   26.70    3.22
   3 -10   0   28.07    3.68
   3 -10   0   27.09    2.85
   3 -10   1    8.11    1.88
   3 -10   1   10.64    2.29
   3 -10   1    6.51    1.60
   3 -10   1   11.99    2.67
   3 -10   1    9.50    1.72
   3 -10   2  245.07   13.45
   3 -10   2  273.07   13.80
   3 -10   2  263.22   14.17
   3 -10   2  252.84   13.51
   3 -10   2  259.24   14.45
   3 -10   3  175.65   10.02
   3 -10   3  166.32    9.76
   3 -10   3  184.43   10.58
   3 -10   3  192.67   10.02
   3 -10   3  178.14   10.84
   3 -10   4   11.78    1.94
   3 -10   4   11.20    1.96
   3 -10   4   12.38    2.32
   3 -10   4   14.75    2.82
   3 -10   4   10.42    1.76
   3 -10   5   -0.85    1.76
   3 -10   5    1.17    2.08
   3 -10   5    0.35    1.07
   3 -10   6    1.67    1.20
   3 -10   6    3.92    2.03
   3 -10   6    4.38    1.75
   3 -10   7    5.48    1.82
   3 -10   7    5.38    2.01
   3 -10   8    3.02    1.42
   3 -10   8    0.31    1.37
   3  -9  -7    0.37    1.03
   3  -9  -7   -1.38    1.51
   3  -9  -7    0.73    1.20
   3  -9  -7    0.41    1.18
   3  -9  -6    7.18    1.69
   3  -9  -6    3.37    1.87
   3  -9  -6    5.83    1.80
   3  -9  -6    5.33    1.93
   3  -9  -5   46.63    3.96
   3  -9  -5   51.54    3.99
   3  -9  -5   57.38    4.55
   3  -9  -5   49.13    4.56
   3  -9  -5   49.29    4.29
   3  -9  -4    2.29    1.74
   3  -9  -4    1.48    2.08
   3  -9  -4    1.64    1.88
   3  -9  -4    0.59    1.26
   3  -9  -4    1.26    2.10
   3  -9  -4   -0.92    1.97
   3  -9  -3   20.57    2.78
   3  -9  -3   15.87    2.79
   3  -9  -3   21.42    2.98
   3  -9  -3   21.89    2.64
   3  -9  -3   19.85    3.28
   3  -9  -3   18.85    3.00
   3  -9  -3   14.89    2.81
   3  -9  -2   58.69    4.44
   3  -9  -2   59.30    4.52
   3  -9  -2   55.69    4.48
   3  -9  -2   54.66    4.81
   3  -9  -2   52.40    4.96
   3  -9  -2   60.30    4.83
   3  -9  -2   53.52    4.39
   3  -9  -1  173.18    9.41
   3  -9  -1  157.88    9.34
   3  -9  -1  176.59    9.70
   3  -9  -1  165.64    9.96
   3  -9  -1  164.94    9.42
   3  -9  -1  147.54    9.96
   3  -9   0   51.45    4.12
   3  -9   0   60.62    4.36
   3  -9   0   57.33    4.44
   3  -9   0   55.04    4.74
   3  -9   0   57.05    4.27
   3  -9   0   59.29    5.06
   3  -9   1   28.96    2.75
   3  -9   1   27.26    2.88
   3  -9   1   27.05    3.32
   3  -9   1   25.26    2.93
   3  -9   1   28.07    2.79
   3  -9   1   36.12    3.93
   3  -9   2   73.07    5.24
   3  -9   2   75.02    5.05
   3  -9   2   80.23    5.69
   3  -9   2   68.34    4.86
   3  -9   2   70.36    5.73
   3  -9   3  133.40    7.73
   3  -9   3  111.27    7.13
   3  -9   3  126.72    8.04
   3  -9   3  127.39    7.30
   3  -9   3  119.54    8.14
   3  -9   3  115.06    7.33
   3  -9   4   -0.31    1.32
   3  -9   4    0.60    1.44
   3  -9   4    0.69    1.76
   3  -9   4   -1.23    2.10
   3  -9   4   -0.63    1.17
   3  -9   4    1.10    1.54
   3  -9   5   -0.61    1.41
   3  -9   5    0.23    1.70
   3  -9   5    1.23    2.14
   3  -9   5    0.46    1.08
   3  -9   5    0.57    1.54
   3  -9   6    6.39    2.09
   3  -9   6    4.79    1.60
   3  -9   6    3.82    2.18
   3  -9   6    3.01    1.69
   3  -9   7   38.98    3.42
   3  -9   7   37.44    3.73
   3  -9   7   33.00    3.70
   3  -9   7   27.60    3.17
   3  -9   8    9.89    2.05
   3  -9   8    6.91    2.03
   3  -9   9    1.13    1.20
   3  -9   9    0.42    1.30
   3  -8  -8    0.51    1.12
   3  -8  -8    1.48    1.74
   3  -8  -8    4.53    1.65
   3  -8  -7    3.13    1.54
   3  -8  -7    3.69    2.20
   3  -8  -7    2.62    1.80
   3  -8  -7    3.07    1.90
   3  -8  -6    2.44    1.70
   3  -8  -6   -2.53    2.11
   3  -8  -6    0.93    1.77
   3  -8  -6    2.88    1.45
   3  -8  -6    1.70    2.08
   3  -8  -6   -0.71    2.00
   3  -8  -5    8.89    2.21
   3  -8  -5    7.11    2.71
   3  -8  -5   13.73    2.63
   3  -8  -5   11.08    2.05
   3  -8  -5    9.95    2.81
   3  -8  -5    9.91    2.48
   3  -8  -4   12.10    2.29
   3  -8  -4   10.74    2.66
   3  -8  -4   18.56    2.84
   3  -8  -4   12.74    2.22
   3  -8  -4   17.66    3.07
   3  -8  -4   16.07    2.55
   3  -8  -4   13.28    2.88
   3  -8  -4   13.49    2.72
   3  -8  -3    8.71    2.00
   3  -8  -3    6.24    2.27
   3  -8  -3    4.47    2.08
   3  -8  -3    9.38    1.92
   3  -8  -3    8.70    2.45
   3  -8  -3    6.33    1.95
   3  -8  -3    8.21    2.46
   3  -8  -3    5.19    2.23
   3  -8  -2   33.28    3.09
   3  -8  -2   32.78    3.19
   3  -8  -2   33.18    3.28
   3  -8  -2   37.18    3.70
   3  -8  -2   34.06    3.09
   3  -8  -2   31.86    3.64
   3  -8  -2   26.26    3.07
   3  -8  -2   31.50    3.56
   3  -8  -2   31.08    3.35
   3  -8  -1   57.84    4.17
   3  -8  -1   56.62    4.19
   3  -8  -1   57.99    4.49
   3  -8  -1   58.21    4.83
   3  -8  -1   51.89    4.10
   3  -8  -1   57.02    4.80
   3  -8  -1   55.38    4.41
   3  -8  -1   62.31    4.59
   3  -8   0   39.22    3.26
   3  -8   0   40.94    3.40
   3  -8   0   45.58    3.76
   3  -8   0   43.89    3.98
   3  -8   0   37.79    3.22
   3  -8   0   40.95    4.01
   3  -8   0   40.29    3.59
   3  -8   1   59.22    4.24
   3  -8   1   44.56    3.55
   3  -8   1   54.84    4.46
   3  -8   1   43.00    3.49
   3  -8   1   46.34    4.28
   3  -8   1   39.89    3.76
   3  -8   2   84.73    5.81
   3  -8   2   77.37    5.28
   3  -8   2   80.29    5.96
   3  -8   2   91.47    5.48
   3  -8   2   87.25    6.25
   3  -8   2   93.34    5.98
   3  -8   3  123.99    7.32
   3  -8   3  123.99    7.69
   3  -8   3  106.15    6.65
   3  -8   3  111.54    7.54
   3  -8   3  108.21    7.14
   3  -8   4  279.04   14.41
   3  -8   4  275.83   14.68
   3  -8   4  261.70   13.65
   3  -8   4  270.59   14.67
   3  -8   4  243.65   14.17
   3  -8   5   64.55    4.92
   3  -8   5   61.62    5.15
   3  -8   5   62.75    4.31
   3  -8   5   58.41    5.30
   3  -8   5   55.70    4.94
   3  -8   6   75.04    5.35
   3  -8   6   67.12    5.49
   3  -8   6   60.00    5.39
   3  -8   6   58.81    5.15
   3  -8   7   22.33    2.74
   3  -8   7   19.52    2.98
   3  -8   7   15.19    2.97
   3  -8   7   14.46    2.78
   3  -8   8    1.16    1.33
   3  -8   8   -1.07    1.73
   3  -8   8    0.84    1.75
   3  -8   8    0.20    1.67
   3  -8   9    4.48    1.65
   3  -8   9    1.49    1.53
   3  -8   9    0.16    1.46
   3  -7  -9   -0.51    1.22
   3  -7  -9    0.96    1.48
   3  -7  -8    5.69    1.80
   3  -7  -8    1.67    1.43
   3  -7  -8    6.31    2.26
   3  -7  -8    2.76    1.88
   3  -7  -7  133.18    7.93
   3  -7  -7  153.76    8.69
   3  -7  -7  113.73    7.95
   3  -7  -7  149.18    8.78
   3  -7  -7  103.17    8.08
   3  -7  -6   10.44    2.22
   3  -7  -6    2.50    2.48
   3  -7  -6   11.15    2.52
   3  -7  -6    7.53    1.97
   3  -7  -6    6.60    2.54
   3  -7  -6    8.17    2.33
   3  -7  -6   10.52    2.62
   3  -7  -5   32.46    3.40
   3  -7  -5   39.52    3.67
   3  -7  -5   26.21    3.79
   3  -7  -5   32.75    3.77
   3  -7  -5   33.77    3.96
   3  -7  -5   30.29    3.70
   3  -7  -5   35.49    3.93
   3  -7  -4   37.81    3.59
   3  -7  -4   42.97    3.84
   3  -7  -4   45.12    4.23
   3  -7  -4   38.44    4.14
   3  -7  -4   42.88    4.20
   3  -7  -4   34.08    3.79
   3  -7  -4   39.33    4.18
   3  -7  -4   42.89    4.22
   3  -7  -3   10.03    1.88
   3  -7  -3    9.82    2.12
   3  -7  -3   11.01    2.48
   3  -7  -3    8.99    1.95
   3  -7  -3    5.32    2.14
   3  -7  -3    7.33    2.09
   3  -7  -3    8.23    2.33
   3  -7  -2    6.74    1.65
   3  -7  -2    7.40    1.65
   3  -7  -2    7.93    1.98
   3  -7  -2    8.61    1.78
   3  -7  -2    6.30    2.13
   3  -7  -2    5.38    1.41
   3  -7  -2    9.84    2.19
   3  -7  -2    7.89    2.02
   3  -7  -2    7.01    1.96
   3  -7  -1  388.99   19.07
   3  -7  -1  365.87   19.04
   3  -7  -1  392.39   19.60
   3  -7  -1  406.93   19.88
   3  -7  -1  383.97   19.10
   3  -7  -1  391.46   19.74
   3  -7  -1  398.44   19.67
   3  -7  -1  393.41   19.46
   3  -7   0  658.93   32.23
   3  -7   0  698.50   32.95
   3  -7   0  661.54   32.32
   3  -7   0  737.62   33.22
   3  -7   0  667.54   32.35
   3  -7   0  698.16   33.06
   3  -7   0  704.28   32.99
   3  -7   1   67.95    5.02
   3  -7   1   75.34    4.68
   3  -7   1   76.85    5.32
   3  -7   1   72.95    4.64
   3  -7   1   73.94    5.37
   3  -7   1   75.18    5.27
   3  -7   2   10.85    1.92
   3  -7   2    9.31    2.19
   3  -7   2    7.61    2.14
   3  -7   2    8.28    1.45
   3  -7   2    4.70    1.74
   3  -7   3  473.28   22.32
   3  -7   3  445.89   22.39
   3  -7   3  427.94   21.44
   3  -7   3  448.89   22.38
   3  -7   3  428.94   22.23
   3  -7   4  268.76   14.06
   3  -7   4  256.59   14.23
   3  -7   4  253.59   13.22
   3  -7   4  259.04   14.14
   3  -7   4  259.10   14.17
   3  -7   5   48.00    4.19
   3  -7   5   39.95    4.20
   3  -7   5   48.08    3.50
   3  -7   5   41.98    4.31
   3  -7   5   41.54    4.22
   3  -7   6   89.04    6.20
   3  -7   6   88.05    6.42
   3  -7   6   76.38    6.25
   3  -7   6   77.36    6.32
   3  -7   7   20.19    3.13
   3  -7   7   14.67    3.04
   3  -7   7   12.85    2.80
   3  -7   8    0.22    1.34
   3  -7   8    2.58    2.05
   3  -7   8    1.35    1.96
   3  -7   8    2.59    2.12
   3  -7   9   -1.18    1.77
   3  -7   9    0.55    1.65
   3  -7   9    0.39    1.68
   3  -7  10    1.01    1.21
   3  -7  10    0.71    1.27
   3  -6 -10    3.85    1.25
   3  -6 -10    3.35    1.55
   3  -6  -9    6.88    1.81
   3  -6  -9    8.75    2.59
   3  -6  -9    7.99    2.09
   3  -6  -9   12.09    2.47
   3  -6  -8   11.32    2.15
   3  -6  -8   15.25    2.62
   3  -6  -8    6.53    2.43
   3  -6  -8   14.26    2.83
   3  -6  -7    0.81    1.71
   3  -6  -7    2.05    2.51
   3  -6  -7    1.63    1.38
   3  -6  -7    1.30    2.08
   3  -6  -7    1.30    2.11
   3  -6  -6    8.81    2.07
   3  -6  -6   10.49    2.85
   3  -6  -6   13.12    2.34
   3  -6  -6   10.26    2.67
   3  -6  -6    8.89    2.72
   3  -6  -6   13.57    2.89
   3  -6  -5    1.26    1.55
   3  -6  -5    1.38    2.32
   3  -6  -5    0.21    1.39
   3  -6  -5    0.68    1.88
   3  -6  -5    1.86    1.97
   3  -6  -5    2.16    2.03
   3  -6  -5    1.39    1.89
   3  -6  -4  220.00   12.15
   3  -6  -4  246.28   12.64
   3  -6  -4  235.80   12.86
   3  -6  -4  230.89   12.70
   3  -6  -4  213.32   12.64
   3  -6  -4  235.40   12.81
   3  -6  -3    1.39    1.23
   3  -6  -3    0.87    1.80
   3  -6  -3    1.21    1.28
   3  -6  -3    1.25    1.56
   3  -6  -3    0.75    1.66
   3  -6  -3    0.72    1.87
   3  -6  -2   18.30    2.16
   3  -6  -2   24.32    2.34
   3  -6  -2   31.75    2.81
   3  -6  -2   22.57    2.67
   3  -6  -2   26.70    2.30
   3  -6  -2   23.53    2.73
   3  -6  -2   27.04    2.96
   3  -6  -2   22.54    2.72
   3  -6  -1  453.70   21.91
   3  -6  -1  471.93   22.51
   3  -6  -1  449.37   21.94
   3  -6  -1  462.30   22.07
   3  -6  -1  444.29   21.91
   3  -6  -1  471.26   22.52
   3  -6  -1  488.39   22.71
   3  -6  -1  439.04   22.32
   3  -6   0  179.35    9.86
   3  -6   0  174.32    9.29
   3  -6   0  171.65    9.27
   3  -6   0  192.04   10.03
   3  -6   0  203.10   10.15
   3  -6   1    5.53    1.16
   3  -6   1    3.90    1.39
   3  -6   1    4.16    1.40
   3  -6   1    4.88    1.66
   3  -6   1    6.16    1.18
   3  -6   1    7.07    1.89
   3  -6   2    8.74    1.75
   3  -6   2    7.22    1.15
   3  -6   2    4.21    1.79
   3  -6   2    6.83    1.20
   3  -6   2    2.93    1.70
   3  -6   3  113.68    6.81
   3  -6   3  101.41    5.96
   3  -6   3  108.78    6.81
   3  -6   3  107.19    6.89
   3  -6   4   14.43    2.28
   3  -6   4   11.66    2.49
   3  -6   4   11.74    1.59
   3  -6   4   12.05    2.47
   3  -6   5  217.70   11.67
   3  -6   5  205.90   10.61
   3  -6   5  180.36   11.40
   3  -6   6   11.63    2.34
   3  -6   6    3.58    2.34
   3  -6   7   41.99    3.96
   3  -6   7   23.89    3.59
   3  -6   8   10.67    2.18
   3  -6   8    4.66    2.21
   3  -6   9    1.00    1.35
   3  -6   9   -1.95    1.86
   3  -6  10    4.00    1.59
   3  -6  10    1.80    1.44
   3  -6  10    3.03    1.65
   3  -5 -10   22.74    2.54
   3  -5 -10   18.68    2.84
   3  -5 -10   22.89    2.99
   3  -5  -9    0.57    1.62
   3  -5  -9    4.17    2.44
   3  -5  -9    1.01    2.04
   3  -5  -9    1.19    1.89
   3  -5  -8   29.92    3.42
   3  -5  -8   31.42    4.13
   3  -5  -8   40.13    4.27
   3  -5  -7   27.37    3.23
   3  -5  -7   34.45    3.53
   3  -5  -7   25.42    3.70
   3  -5  -7   28.75    3.78
   3  -5  -6   49.48    4.05
   3  -5  -6   39.82    4.58
   3  -5  -6   41.68    4.31
   3  -5  -6   47.44    4.59
   3  -5  -5   69.71    4.71
   3  -5  -5   67.09    4.86
   3  -5  -5   50.47    4.98
   3  -5  -5   66.16    5.00
   3  -5  -5   63.76    5.09
   3  -5  -5   71.42    5.44
   3  -5  -5   68.13    5.07
   3  -5  -4   37.06    3.03
   3  -5  -4   39.07    3.30
   3  -5  -4   39.98    3.40
   3  -5  -4   32.00    3.51
   3  -5  -4   26.49    3.08
   3  -5  -4   30.06    3.39
   3  -5  -3    5.66    1.33
   3  -5  -3    5.39    1.90
   3  -5  -3    4.49    1.48
   3  -5  -3    4.86    1.45
   3  -5  -3    4.23    1.59
   3  -5  -3    7.76    1.99
   3  -5  -3    3.99    1.76
   3  -5  -2    9.99    1.49
   3  -5  -2   11.74    1.52
   3  -5  -2    9.47    1.79
   3  -5  -2   14.74    1.89
   3  -5  -2   11.71    1.96
   3  -5  -2   13.37    1.48
   3  -5  -2    9.40    2.03
   3  -5  -2   10.09    1.81
   3  -5  -2   10.18    2.01
   3  -5  -1  284.05   14.99
   3  -5  -1  330.24   16.11
   3  -5  -1  327.80   15.55
   3  -5  -1  326.67   16.18
   3  -5  -1  361.21   15.85
   3  -5  -1  352.09   15.94
   3  -5  -1  316.03   15.52
   3  -5  -1  348.43   16.11
   3  -5  -1  358.33   16.43
   3  -5   0    9.35    1.63
   3  -5   0   10.06    1.83
   3  -5   0    8.82    1.64
   3  -5   0    9.19    0.99
   3  -5   0    5.73    1.52
   3  -5   0    9.38    1.17
   3  -5   0    9.43    1.89
   3  -5   1 1203.81   55.10
   3  -5   1 1161.44   55.59
   3  -5   1 1209.37   55.77
   3  -5   1 1171.25   54.93
   3  -5   1 1225.52   55.58
   3  -5   1 1234.67   55.87
   3  -5   2   95.23    5.38
   3  -5   2   91.01    5.88
   3  -5   2   90.38    5.05
   3  -5   2   91.62    5.77
   3  -5   2   97.88    6.04
   3  -5   3  304.34   15.99
   3  -5   3  308.52   14.99
   3  -5   3  312.50   15.79
   3  -5   4  110.71    6.92
   3  -5   4  102.34    5.83
   3  -5   4   98.96    6.71
   3  -5   5  830.58   38.79
   3  -5   5  810.55   37.54
   3  -5   5  753.06   38.41
   3  -5   6  180.17   10.30
   3  -5   6  151.43    9.89
   3  -5   7    5.39    2.38
   3  -5   7    9.00    2.64
   3  -5   8   30.57    3.68
   3  -5   8   24.92    3.44
   3  -5   9   -0.88    1.82
   3  -5   9   -1.20    1.72
   3  -5  10   -0.85    1.44
   3  -5  10   -0.86    1.34
   3  -4 -11    2.62    1.37
   3  -4 -10   27.55    3.07
   3  -4 -10   32.17    3.85
   3  -4  -9   71.45    5.28
   3  -4  -9   60.32    5.57
   3  -4  -9   60.23    5.75
   3  -4  -8   23.86    2.99
   3  -4  -8   19.01    3.60
   3  -4  -8   20.59    3.02
   3  -4  -8   18.84    3.03
   3  -4  -8   19.20    3.47
   3  -4  -7  104.60    6.61
   3  -4  -7  111.72    7.14
   3  -4  -7  108.84    7.56
   3  -4  -6  350.14   16.91
   3  -4  -6  311.00   17.37
   3  -4  -6  362.75   17.37
   3  -4  -6  307.08   17.02
   3  -4  -6  308.96   17.15
   3  -4  -6  343.92   17.71
   3  -4  -5   38.47    3.16
   3  -4  -5   34.10    3.75
   3  -4  -5   44.20    3.56
   3  -4  -5   36.94    3.44
   3  -4  -5   36.71    3.46
   3  -4  -5   30.61    3.57
   3  -4  -5   36.67    3.44
   3  -4  -5   39.30    3.62
   3  -4  -4   87.82    5.07
   3  -4  -4   84.07    5.40
   3  -4  -4   80.21    5.54
   3  -4  -4   75.82    5.32
   3  -4  -4   83.92    5.66
   3  -4  -4   87.09    5.50
   3  -4  -4   82.15    5.38
   3  -4  -3  322.94   15.51
   3  -4  -3  299.66   15.89
   3  -4  -3  329.80   16.03
   3  -4  -3  323.91   15.89
   3  -4  -3  313.20   15.78
   3  -4  -3  326.36   16.22
   3  -4  -3  321.61   16.00
   3  -4  -2  204.42   10.09
   3  -4  -2  215.15   11.13
   3  -4  -2  220.82   11.01
   3  -4  -2  224.80   11.09
   3  -4  -2  205.47   10.96
   3  -4  -2  219.59   10.58
   3  -4  -2  209.58   11.05
   3  -4  -2  219.33   10.28
   3  -4  -2  220.06   10.96
   3  -4  -2  230.19   11.40
   3  -4  -2  216.68   10.13
   3  -4  -1   52.13    3.11
   3  -4  -1   55.16    3.86
   3  -4  -1   63.71    3.90
   3  -4  -1   54.90    3.22
   3  -4  -1   56.27    3.25
   3  -4  -1   63.24    3.92
   3  -4  -1   61.16    3.72
   3  -4  -1   60.71    4.06
   3  -4   0  150.11    7.63
   3  -4   0  150.68    8.20
   3  -4   0  147.08    7.47
   3  -4   0  159.49    8.24
   3  -4   0  158.93    8.19
   3  -4   0  160.82    8.48
   3  -4   0  149.42    7.88
   3  -4   1 1640.08   74.83
   3  -4   1 1613.24   74.38
   3  -4   1 1623.71   74.91
   3  -4   1 1632.41   74.78
   3  -4   1 1656.13   74.64
   3  -4   1 1583.73   74.50
   3  -4   1 1646.43   75.05
   3  -4   2  416.87   20.16
   3  -4   2  416.24   19.81
   3  -4   2  413.98   20.26
   3  -4   2  394.42   19.95
   3  -4   2  417.98   20.03
   3  -4   3   27.17    2.64
   3  -4   3   24.43    2.72
   3  -4   3   25.55    2.70
   3  -4   4    4.62    1.62
   3  -4   4    2.89    1.77
   3  -4   4    5.12    1.95
   3  -4   5  170.59    9.54
   3  -4   5  158.43    9.62
   3  -4   5  151.70    9.35
   3  -4   6   73.86    5.44
   3  -4   6   69.80    5.48
   3  -4   6   59.52    5.24
   3  -4   7   18.53    2.81
   3  -4   7   12.78    2.86
   3  -4   7   20.32    3.28
   3  -4   8    3.31    1.67
   3  -4   8    3.47    1.98
   3  -4   8    2.33    2.12
   3  -4   9   11.46    2.12
   3  -4   9   10.38    2.34
   3  -4   9    6.21    2.17
   3  -4  10   -1.88    1.62
   3  -4  10    0.57    1.34
   3  -3 -11   15.23    2.34
   3  -3 -11   13.28    2.74
   3  -3 -11   16.04    2.56
   3  -3 -10   11.39    2.39
   3  -3 -10    7.10    2.37
   3  -3 -10   10.64    2.88
   3  -3 -10   12.82    2.71
   3  -3  -9    0.82    1.62
   3  -3  -9   -0.25    2.22
   3  -3  -9    1.53    2.28
   3  -3  -9    0.47    1.78
   3  -3  -9   -1.75    2.14
   3  -3  -9    3.01    2.34
   3  -3  -8    1.93    1.68
   3  -3  -8   -1.34    1.69
   3  -3  -8    1.59    1.42
   3  -3  -8    0.24    2.31
   3  -3  -8    1.02    2.20
   3  -3  -8    0.83    2.28
   3  -3  -8    0.48    2.16
   3  -3  -7  174.75    9.85
   3  -3  -7  201.38   10.34
   3  -3  -7  158.58   10.31
   3  -3  -7  177.25   10.18
   3  -3  -7  172.80    9.76
   3  -3  -7  178.23   10.76
   3  -3  -7  173.85   10.33
   3  -3  -7  168.23   10.53
   3  -3  -6   59.86    4.18
   3  -3  -6   54.63    4.28
   3  -3  -6   56.30    4.37
   3  -3  -6   51.02    4.75
   3  -3  -6   61.93    4.95
   3  -3  -6   58.22    4.65
   3  -3  -5   74.15    4.55
   3  -3  -5   74.25    4.73
   3  -3  -5   60.52    4.93
   3  -3  -5   76.70    4.94
   3  -3  -5   70.59    4.78
   3  -3  -5   62.42    4.92
   3  -3  -5   66.60    4.81
   3  -3  -4    2.32    1.04
   3  -3  -4    4.37    1.78
   3  -3  -4    1.47    1.17
   3  -3  -4    1.63    1.64
   3  -3  -4    3.45    1.27
   3  -3  -4    2.82    1.29
   3  -3  -4    0.56    1.15
   3  -3  -4    3.53    1.64
   3  -3  -4    1.48    0.60
   3  -3  -3  135.81    7.53
   3  -3  -3  130.66    7.52
   3  -3  -3  137.02    6.79
   3  -3  -3  148.81    7.78
   3  -3  -3  153.91    7.86
   3  -3  -3  140.05    7.61
   3  -3  -3  136.10    7.63
   3  -3  -3  137.15    6.98
   3  -3  -3  140.99    7.89
   3  -3  -3  146.07    6.86
   3  -3  -2   52.57    3.49
   3  -3  -2   50.56    2.96
   3  -3  -2   57.45    3.61
   3  -3  -2   61.51    3.81
   3  -3  -2   64.81    3.76
   3  -3  -2   54.92    3.59
   3  -3  -2   52.95    3.08
   3  -3  -2   56.15    3.89
   3  -3  -2   51.75    3.26
   3  -3  -2   51.52    2.97
   3  -3  -1  529.30   25.37
   3  -3  -1  544.28   24.98
   3  -3  -1  545.96   25.41
   3  -3  -1  528.00   25.03
   3  -3  -1  547.42   25.39
   3  -3  -1  534.03   25.14
   3  -3   0  778.70   36.66
   3  -3   0  775.29   36.36
   3  -3   0  785.59   36.68
   3  -3   0  854.16   36.70
   3  -3   0  760.04   36.37
   3  -3   1  960.32   43.21
   3  -3   1  916.85   42.88
   3  -3   1  902.51   43.18
   3  -3   1  964.14   43.29
   3  -3   1  939.43   43.04
   3  -3   1  905.27   42.81
   3  -3   2  112.78    6.28
   3  -3   2  115.14    6.03
   3  -3   2  110.47    6.32
   3  -3   2   98.29    6.16
   3  -3   2  103.34    5.97
   3  -3   2  108.68    5.84
   3  -3   3   27.93    2.63
   3  -3   3   28.55    2.34
   3  -3   3   25.21    2.72
   3  -3   3   24.28    2.30
   3  -3   3   22.71    2.59
   3  -3   4  266.64   13.56
   3  -3   4  248.99   13.39
   3  -3   5   73.78    5.05
   3  -3   5   55.64    4.70
   3  -3   6    6.88    1.94
   3  -3   6    3.43    2.16
   3  -3   7  175.05    9.45
   3  -3   7  122.47    8.86
   3  -3   8   -0.46    1.61
   3  -3   8    0.97    1.81
   3  -3   8    0.68    2.04
   3  -3   9   -0.84    1.39
   3  -3   9    1.51    1.77
   3  -3   9    0.98    1.80
   3  -3  10    2.14    1.51
   3  -2 -12    0.54    1.30
   3  -2 -12    1.10    1.41
   3  -2 -11   19.52    2.78
   3  -2 -11   18.59    3.11
   3  -2 -11   21.67    3.38
   3  -2 -11   23.15    3.13
   3  -2 -10    3.70    1.82
   3  -2 -10    1.09    2.32
   3  -2 -10    4.39    1.66
   3  -2 -10    5.33    2.36
   3  -2  -9   11.82    2.39
   3  -2  -9    6.03    3.04
   3  -2  -9   10.50    2.22
   3  -2  -9   11.69    2.58
   3  -2  -8  206.60   11.21
   3  -2  -8  182.17   11.48
   3  -2  -8  215.17   11.53
   3  -2  -8  184.32   12.04
   3  -2  -8  204.78   11.30
   3  -2  -8  199.93   11.66
   3  -2  -7    4.10    1.52
   3  -2  -7    2.01    2.03
   3  -2  -7    1.66    2.30
   3  -2  -7    2.45    1.40
   3  -2  -7    3.24    1.60
   3  -2  -7    4.82    1.95
   3  -2  -6   24.76    2.52
   3  -2  -6   30.57    2.75
   3  -2  -6   26.44    2.72
   3  -2  -6   21.46    3.23
   3  -2  -6   27.02    2.09
   3  -2  -6   28.49    2.97
   3  -2  -5  964.74   46.28
   3  -2  -5 1057.40   46.58
   3  -2  -5 1000.75   46.82
   3  -2  -5  975.07   46.53
   3  -2  -5 1019.73   47.00
   3  -2  -5  935.95   46.41
   3  -2  -5 1040.56   46.07
   3  -2  -5  985.14   46.63
   3  -2  -4  313.33   15.33
   3  -2  -4  289.27   15.28
   3  -2  -4  328.04   15.73
   3  -2  -4  299.48   15.56
   3  -2  -4  299.87   15.42
   3  -2  -4  292.90   15.42
   3  -2  -4  327.96   15.02
   3  -2  -4  313.15   15.66
   3  -2  -4  331.99   14.88
   3  -2  -3  308.98   14.61
   3  -2  -3  320.85   14.87
   3  -2  -3  297.26   14.44
   3  -2  -3  304.20   14.46
   3  -2  -3  289.58   14.65
   3  -2  -3  305.19   14.33
   3  -2  -3  304.64   14.76
   3  -2  -3  299.28   14.92
   3  -2  -3  293.53   14.39
   3  -2  -3  286.67   13.96
   3  -2  -3  302.94   14.90
   3  -2  -3  305.48   14.22
   3  -2  -2   83.52    4.61
   3  -2  -2   81.14    4.42
   3  -2  -2   81.44    4.66
   3  -2  -2   85.57    4.96
   3  -2  -2   77.45    4.33
   3  -2  -2   82.21    4.33
   3  -2  -1 1258.20   57.91
   3  -2  -1 1277.52   57.72
   3  -2  -1 1270.29   57.80
   3  -2  -1 1249.43   58.04
   3  -2  -1 1274.99   57.84
   3  -2  -1 1242.29   57.84
   3  -2  -1 1275.84   57.85
   3  -2  -1 1247.94   57.63
   3  -2   0  234.54   11.67
   3  -2   0  232.60   11.49
   3  -2   0  235.61   11.45
   3  -2   0  242.67   11.52
   3  -2   0  238.93   11.46
   3  -2   0  235.96   11.30
   3  -2   1  233.70   11.89
   3  -2   1  243.57   11.79
   3  -2   1  236.94   11.53
   3  -2   1  244.15   11.54
   3  -2   1  247.02   12.03
   3  -2   1  228.49   11.62
   3  -2   1  245.43   11.52
   3  -2   2 1996.62   89.51
   3  -2   2 1988.64   89.33
   3  -2   2 1932.78   89.51
   3  -2   2 1970.03   89.47
   3  -2   2 1877.54   89.03
   3  -2   2 1971.45   89.01
   3  -2   3  732.74   31.15
   3  -2   3  642.79   30.93
   3  -2   3  575.08   30.35
   3  -2   3  704.21   30.54
   3  -2   3  651.42   30.48
   3  -2   3  645.58   30.84
   3  -2   4  362.03   17.30
   3  -2   4  357.64   16.62
   3  -2   5  617.59   26.70
   3  -2   5  475.59   26.12
   3  -2   6  341.16   16.24
   3  -2   6  267.26   15.74
   3  -2   7   -0.23    1.49
   3  -2   7   -0.23    1.98
   3  -2   8    2.25    1.47
   3  -2   8    2.64    2.00
   3  -2   9    1.00    1.44
   3  -2   9    1.23    1.63
   3  -2   9    2.04    1.78
   3  -2  10   -0.30    1.23
   3  -1 -12    1.39    1.43
   3  -1 -12   -1.16    1.79
   3  -1 -12   -0.26    1.02
   3  -1 -12   -1.03    1.54
   3  -1 -11   -0.39    1.59
   3  -1 -11   -0.26    2.34
   3  -1 -11   -0.76    1.41
   3  -1 -11   -0.26    2.01
   3  -1 -11    3.51    2.12
   3  -1 -10   13.69    2.54
   3  -1 -10   12.02    3.30
   3  -1 -10   13.77    2.58
   3  -1 -10    7.93    2.80
   3  -1 -10   12.45    2.76
   3  -1  -9   57.80    4.55
   3  -1  -9   52.82    5.41
   3  -1  -9   53.61    4.62
   3  -1  -9   45.94    4.86
   3  -1  -9   43.94    4.46
   3  -1  -8    5.35    1.85
   3  -1  -8    6.25    1.78
   3  -1  -8    5.22    1.94
   3  -1  -8    6.55    2.77
   3  -1  -8    2.94    2.32
   3  -1  -8    7.32    1.38
   3  -1  -8    5.77    2.03
   3  -1  -7    1.04    1.31
   3  -1  -7    3.92    1.98
   3  -1  -7    2.89    1.58
   3  -1  -7    1.16    2.11
   3  -1  -7    0.95    1.22
   3  -1  -7    2.28    1.27
   3  -1  -7    1.24    1.80
   3  -1  -7    2.78    1.01
   3  -1  -7    3.49    1.76
   3  -1  -6   83.98    5.29
   3  -1  -6   89.79    5.43
   3  -1  -6   89.48    5.88
   3  -1  -6   84.12    5.44
   3  -1  -6   89.03    6.12
   3  -1  -6   87.70    5.33
   3  -1  -6   85.00    5.92
   3  -1  -6   90.99    5.23
   3  -1  -6   90.47    5.67
   3  -1  -5 1499.64   65.77
   3  -1  -5 1387.18   65.80
   3  -1  -5 1449.23   66.02
   3  -1  -5 1354.70   65.99
   3  -1  -5 1421.83   66.54
   3  -1  -5 1451.02   65.74
   3  -1  -5 1453.57   65.73
   3  -1  -5 1410.08   65.95
   3  -1  -5 1367.56   66.35
   3  -1  -5 1502.33   65.91
   3  -1  -5 1426.02   66.10
   3  -1  -4    6.24    0.96
   3  -1  -4    6.78    0.95
   3  -1  -4    6.23    1.95
   3  -1  -4    7.53    1.21
   3  -1  -4    6.39    1.40
   3  -1  -4    4.45    1.30
   3  -1  -4    4.71    1.48
   3  -1  -4    5.43    1.04
   3  -1  -4    6.60    0.97
   3  -1  -4    4.98    1.30
   3  -1  -4    6.76    0.98
   3  -1  -4    7.06    0.80
   3  -1  -3   67.65    3.91
   3  -1  -3   57.78    3.97
   3  -1  -3   67.81    3.90
   3  -1  -3   67.21    3.87
   3  -1  -3   67.95    3.87
   3  -1  -3   68.46    3.74
   3  -1  -3   70.85    3.67
   3  -1  -3   68.22    4.41
   3  -1  -3   72.55    3.86
   3  -1  -2 1648.49   75.18
   3  -1  -2 1710.88   75.45
   3  -1  -2 1682.87   75.23
   3  -1  -2 1726.08   75.23
   3  -1  -2 1565.38   74.92
   3  -1  -2 1615.87   75.13
   3  -1  -1    3.07    0.76
   3  -1  -1    4.90    0.89
   3  -1  -1    3.64    1.19
   3  -1  -1    4.42    0.90
   3  -1  -1    4.15    0.91
   3  -1  -1    4.48    0.57
   3  -1  -1    4.58    0.83
   3  -1   0   85.95    4.70
   3  -1   0   90.61    4.76
   3  -1   0   83.46    4.46
   3  -1   0   87.65    4.61
   3  -1   0   83.48    4.27
   3  -1   0   89.84    4.63
   3  -1   1  128.95    6.54
   3  -1   1  113.82    6.43
   3  -1   1  130.46    6.62
   3  -1   1  128.44    6.12
   3  -1   1  117.91    6.19
   3  -1   1  123.93    6.02
   3  -1   1  117.65    6.18
   3  -1   2 1777.14   78.30
   3  -1   2 1581.56   77.59
   3  -1   2 1741.79   77.65
   3  -1   2 1750.89   77.70
   3  -1   2 1723.02   77.65
   3  -1   2 1711.51   77.63
   3  -1   3  978.48   44.64
   3  -1   3  986.75   44.52
   3  -1   3  885.78   44.36
   3  -1   3  969.45   43.94
   3  -1   4    0.15    1.04
   3  -1   5   10.15    1.86
   3  -1   6  366.66   18.94
   3  -1   7    3.52    1.73
   3  -1   7   -1.09    2.00
   3  -1   8   16.74    2.46
   3  -1   8    7.74    2.30
   3  -1   9    0.19    1.45
   3   0 -12   11.20    2.05
   3   0 -12    8.41    2.52
   3   0 -12    9.12    1.83
   3   0 -12    7.57    1.96
   3   0 -11    1.22    1.74
   3   0 -11    1.15    2.57
   3   0 -11   -1.95    1.67
   3   0 -11    1.31    2.13
   3   0 -11    0.22    1.67
   3   0 -10  120.47    7.52
   3   0 -10   90.36    8.02
   3   0 -10  123.35    7.69
   3   0 -10  101.04    7.75
   3   0 -10  107.12    7.42
   3   0  -9  460.57   21.81
   3   0  -9  366.27   22.40
   3   0  -9  433.23   22.06
   3   0  -9  427.75   21.28
   3   0  -9  367.46   21.94
   3   0  -9  500.18   21.40
   3   0  -9  396.52   21.65
   3   0  -8   43.32    3.88
   3   0  -8   40.98    4.77
   3   0  -8   46.36    4.29
   3   0  -8   50.05    3.97
   3   0  -8   39.88    4.27
   3   0  -8   56.17    3.83
   3   0  -8   41.27    3.87
   3   0  -7   41.42    3.37
   3   0  -7   36.31    3.19
   3   0  -7   39.85    4.19
   3   0  -7   43.03    3.39
   3   0  -7   38.67    3.80
   3   0  -7   43.67    3.25
   3   0  -7   33.05    3.29
   3   0  -6   72.37    4.58
   3   0  -6   73.26    4.57
   3   0  -6   72.34    4.59
   3   0  -6   69.33    5.40
   3   0  -6   74.76    4.24
   3   0  -6   73.42    4.75
   3   0  -6   71.25    4.20
   3   0  -6   71.98    5.13
   3   0  -6   71.61    4.60
   3   0  -6   70.72    4.73
   3   0  -5   72.97    4.22
   3   0  -5   69.11    3.97
   3   0  -5   67.31    4.13
   3   0  -5   76.07    4.25
   3   0  -5   66.45    4.14
   3   0  -5   55.27    4.26
   3   0  -5   71.29    4.41
   3   0  -5   71.62    4.07
   3   0  -5   77.28    4.36
   3   0  -5   57.67    4.53
   3   0  -5   71.52    4.06
   3   0  -5   68.03    3.98
   3   0  -5   67.53    4.25
   3   0  -5   71.75    3.85
   3   0  -4   25.12    1.88
   3   0  -4   23.56    1.90
   3   0  -4   28.54    2.42
   3   0  -4   25.14    2.28
   3   0  -4   27.12    2.25
   3   0  -4   27.64    2.15
   3   0  -4   26.37    2.43
   3   0  -4   25.56    1.95
   3   0  -4   25.48    1.94
   3   0  -4   24.08    1.89
   3   0  -4   24.51    1.78
   3   0  -4   25.38    2.00
   3   0  -3 1177.98   55.23
   3   0  -3 1174.24   55.16
   3   0  -3 1288.55   55.84
   3   0  -3 1213.98   55.60
   3   0  -3 1241.49   55.43
   3   0  -3 1218.05   55.43
   3   0  -3 1193.73   55.33
   3   0  -3 1198.03   55.25
   3   0  -3 1204.15   55.05
   3   0  -3 1182.22   55.31
   3   0  -3 1224.41   55.21
   3   0  -3 1205.67   55.35
   3   0  -2   48.88    2.85
   3   0  -2   57.47    3.34
   3   0  -2   50.59    3.16
   3   0  -2   56.78    3.03
   3   0  -2   47.66    2.63
   3   0  -2   48.50    3.03
   3   0  -1  845.89   38.74
   3   0  -1  862.51   39.05
   3   0  -1  890.31   38.67
   3   0  -1  873.76   38.96
   3   0  -1  820.76   38.31
   3   0  -1  854.68   38.94
   3   0   0    1.10    0.62
   3   0   0    0.68    0.63
   3   0   0    1.11    0.59
   3   0   0    1.02    0.92
   3   0   0    1.21    0.47
   3   0   1  876.84   39.75
   3   0   1  907.58   39.95
   3   0   1  910.06   39.79
   3   0   1  831.98   39.05
   3   0   1  892.65   39.57
   3   0   1  842.23   39.05
   3   0   1  901.60   39.56
   3   0   2    3.13    0.90
   3   0   2    2.68    0.59
   3   0   2    3.06    0.85
   3   0   2    1.59    0.80
   3   0   2    3.53    0.49
   3   0   2    3.60    0.50
   3   0   2    3.07    0.59
   3   0   3  374.01   18.37
   3   0   3  375.29   18.30
   3   0   4  124.55    7.30
   3   0   5   10.41    1.89
   3   0   6   37.95    3.65
   3   0   7   65.62    5.04
   3   0   8   54.35    4.05
   3   0   8   29.48    3.56
   3   0   9    2.52    1.35
   3   1 -13    2.17    1.72
   3   1 -12    1.93    1.63
   3   1 -12    1.22    2.22
   3   1 -12    1.86    1.58
   3   1 -12    2.56    1.63
   3   1 -11    4.44    2.70
   3   1 -11    7.35    2.27
   3   1 -11    5.75    1.62
   3   1 -11    6.01    2.17
   3   1 -10   18.28    2.79
   3   1 -10    9.99    3.26
   3   1 -10   12.24    2.65
   3   1 -10   17.04    2.49
   3   1 -10   11.18    2.99
   3   1 -10   15.04    2.12
   3   1 -10   15.06    2.63
   3   1  -9    0.41    1.81
   3   1  -9    1.41    1.88
   3   1  -9   -0.39    1.42
   3   1  -9    2.24    2.16
   3   1  -9    0.55    1.27
   3   1  -9   -0.40    1.73
   3   1  -8  109.58    6.79
   3   1  -8  107.87    7.10
   3   1  -8  104.96    6.76
   3   1  -8   94.53    7.04
   3   1  -8  113.58    6.70
   3   1  -8  100.46    6.57
   3   1  -7  110.53    6.33
   3   1  -7  118.08    6.87
   3   1  -7  114.27    7.03
   3   1  -7  113.42    7.21
   3   1  -7  134.96    7.13
   3   1  -7  107.51    6.32
   3   1  -7  118.46    6.86
   3   1  -6    0.50    0.73
   3   1  -6    0.10    0.89
   3   1  -6    0.46    1.23
   3   1  -6    0.63    0.58
   3   1  -6    1.06    1.72
   3   1  -6    0.50    0.86
   3   1  -6    0.14    1.27
   3   1  -6    3.34    1.59
   3   1  -6    0.90    1.02
   3   1  -6    1.29    1.01
   3   1  -6    0.89    1.14
   3   1  -6    0.63    0.58
   3   1  -5  165.65    8.62
   3   1  -5  166.57    8.67
   3   1  -5  171.74    8.54
   3   1  -5  155.50    9.19
   3   1  -5  157.79    8.89
   3   1  -5  166.26    8.95
   3   1  -5  176.10    8.91
   3   1  -5  158.64    8.91
   3   1  -5  174.92    8.62
   3   1  -5  164.60    8.64
   3   1  -5  175.47    8.62
   3   1  -5  174.13    8.54
   3   1  -4  645.09   30.31
   3   1  -4  639.66   30.06
   3   1  -4  685.55   30.94
   3   1  -4  664.73   30.70
   3   1  -4  649.41   30.49
   3   1  -4  627.70   30.55
   3   1  -4  672.51   30.52
   3   1  -4  645.47   30.33
   3   1  -4  651.02   30.34
   3   1  -4  653.56   30.25
   3   1  -4  653.93   30.33
   3   1  -4  634.34   30.42
   3   1  -3 1047.47   48.24
   3   1  -3 1008.47   47.78
   3   1  -3 1117.08   48.67
   3   1  -3 1052.00   48.41
   3   1  -3 1033.80   48.13
   3   1  -3 1025.00   48.36
   3   1  -3 1097.35   48.37
   3   1  -3 1050.22   48.22
   3   1  -3 1051.84   48.26
   3   1  -3 1056.77   48.19
   3   1  -3 1051.04   48.30
   3   1  -3 1044.05   48.22
   3   1  -2  129.46    6.55
   3   1  -2  128.20    6.17
   3   1  -2  125.85    6.65
   3   1  -2  121.93    6.43
   3   1  -2  124.38    6.48
   3   1  -2  112.92    6.42
   3   1  -2  122.09    6.42
   3   1  -1  263.77   12.80
   3   1  -1  276.45   12.81
   3   1  -1  267.28   12.92
   3   1  -1  266.18   12.82
   3   1  -1  250.31   12.85
   3   1   0 1058.33   48.93
   3   1   0 1075.87   49.42
   3   1   0 1061.87   49.12
   3   1   0 1078.80   49.23
   3   1   0 1091.85   49.22
   3   1   1    0.59    0.54
   3   1   1    2.92    0.67
   3   1   1    1.17    0.57
   3   1   1    1.60    0.78
   3   1   1    1.53    0.74
   3   1   1    1.86    0.66
   3   1   1    1.24    0.92
   3   1   2  446.47   21.60
   3   1   2  480.05   21.89
   3   1   2  444.03   21.23
   3   1   2  458.32   21.25
   3   1   3  956.25   44.65
   3   1   4  183.04    9.94
   3   1   5   17.78    2.23
   3   1   6   23.10    2.67
   3   1   7   36.40    3.44
   3   2 -13    1.43    1.66
   3   2 -13    1.89    1.20
   3   2 -12   14.64    2.43
   3   2 -12   13.04    2.28
   3   2 -12    9.66    1.77
   3   2 -12   10.64    2.01
   3   2 -11    9.12    2.51
   3   2 -11   12.82    2.63
   3   2 -11   11.49    2.21
   3   2 -11   12.54    1.96
   3   2 -11    8.55    2.23
   3   2 -10   -1.10    1.93
   3   2 -10    2.77    2.84
   3   2 -10    0.73    1.74
   3   2 -10    0.64    1.64
   3   2 -10    0.25    2.03
   3   2 -10   -0.40    1.26
   3   2 -10   -1.97    1.74
   3   2  -9  117.02    7.62
   3   2  -9  112.12    8.48
   3   2  -9  119.96    7.64
   3   2  -9  110.45    7.77
   3   2  -9  136.33    7.66
   3   2  -9  110.36    7.23
   3   2  -8  276.74   14.26
   3   2  -8  299.20   14.99
   3   2  -8  271.19   15.66
   3   2  -8  307.14   15.18
   3   2  -8  255.84   15.01
   3   2  -8  328.24   15.15
   3   2  -8  273.03   14.27
   3   2  -8  269.37   14.51
   3   2  -7  477.91   22.76
   3   2  -7  468.05   23.00
   3   2  -7  427.08   23.77
   3   2  -7  485.00   23.33
   3   2  -7  441.29   23.15
   3   2  -7  531.79   23.41
   3   2  -7  473.73   22.78
   3   2  -7  443.15   22.66
   3   2  -7  486.74   22.58
   3   2  -6   65.27    4.21
   3   2  -6   58.97    4.19
   3   2  -6   57.87    4.77
   3   2  -6   64.97    4.55
   3   2  -6   62.07    4.43
   3   2  -6   64.11    4.38
   3   2  -6   66.73    4.24
   3   2  -6   65.92    4.05
   3   2  -5 1420.62   65.09
   3   2  -5 1401.96   65.05
   3   2  -5 1435.29   65.61
   3   2  -5 1443.25   65.36
   3   2  -5 1489.81   65.32
   3   2  -5 1388.10   65.11
   3   2  -5 1328.27   64.66
   3   2  -5 1408.96   64.99
   3   2  -5 1439.57   65.13
   3   2  -5 1450.03   65.02
   3   2  -5 1417.54   64.98
   3   2  -4  520.16   24.57
   3   2  -4  518.78   24.50
   3   2  -4  529.68   24.81
   3   2  -4  513.26   24.50
   3   2  -4  530.02   24.60
   3   2  -4  494.14   24.46
   3   2  -4  535.43   24.93
   3   2  -3    0.27    0.98
   3   2  -3    0.61    0.69
   3   2  -3    0.69    0.71
   3   2  -3    1.79    1.36
   3   2  -3    1.99    1.06
   3   2  -3   -0.60    1.10
   3   2  -3    0.75    1.11
   3   2  -3    0.93    1.09
   3   2  -3    1.39    0.88
   3   2  -2   62.04    3.69
   3   2  -2   64.90    3.70
   3   2  -2   62.96    3.89
   3   2  -2   63.20    3.82
   3   2  -2   57.20    3.82
   3   2  -2   61.57    3.69
   3   2  -2   64.03    3.81
   3   2  -2   54.75    3.67
   3   2  -2   63.34    3.88
   3   2  -1  290.94   14.19
   3   2  -1  296.10   13.97
   3   2  -1  298.31   14.30
   3   2  -1  291.60   14.19
   3   2  -1  286.61   14.26
   3   2   0   86.40    4.97
   3   2   0   91.11    4.67
   3   2   0   94.49    5.19
   3   2   0   94.17    4.69
   3   2   0   86.97    4.98
   3   2   1  364.67   17.65
   3   2   1  370.59   17.98
   3   2   1  389.72   18.01
   3   2   1  364.80   17.66
   3   2   2  568.56   27.54
   3   2   2  592.20   27.57
   3   2   3  521.98   26.10
   3   2   3  583.50   26.40
   3   2   4   42.37    3.24
   3   2   4   39.09    3.15
   3   2   5    0.50    0.92
   3   2   5   -0.58    0.86
   3   3 -13    2.66    1.73
   3   3 -13   -0.97    1.20
   3   3 -12    2.93    2.21
   3   3 -12    5.24    1.56
   3   3 -11    1.43    2.53
   3   3 -11    0.41    1.61
   3   3 -11   -1.16    1.29
   3   3 -10   10.83    2.55
   3   3 -10    1.20    2.62
   3   3 -10    6.74    2.44
   3   3 -10    5.13    2.11
   3   3 -10   12.93    2.17
   3   3 -10    3.15    1.67
   3   3  -9  109.92    6.52
   3   3  -9  100.30    7.10
   3   3  -9   87.62    7.69
   3   3  -9  112.35    7.42
   3   3  -9  115.08    7.30
   3   3  -9   95.58    6.93
   3   3  -9  128.67    7.34
   3   3  -9  106.34    6.52
   3   3  -8  231.92   11.40
   3   3  -8  213.44   11.68
   3   3  -8  187.15   12.29
   3   3  -8  213.79   11.94
   3   3  -8  204.32   11.78
   3   3  -8  171.91   11.28
   3   3  -8  237.31   11.96
   3   3  -8  222.73   11.37
   3   3  -8  217.63   11.08
   3   3  -7   24.20    2.53
   3   3  -7   25.76    2.74
   3   3  -7   29.59    3.54
   3   3  -7   24.33    2.92
   3   3  -7   26.03    2.74
   3   3  -7   27.58    2.81
   3   3  -7   27.70    2.75
   3   3  -7   23.10    2.30
   3   3  -6  400.39   19.91
   3   3  -6  401.62   20.49
   3   3  -6  405.29   19.97
   3   3  -6  417.78   19.86
   3   3  -5   33.30    2.80
   3   3  -5   37.29    3.22
   3   3  -5   34.28    2.98
   3   3  -5   33.35    2.50
   3   3  -5   32.28    2.80
   3   3  -5   28.75    2.57
   3   3  -4  588.56   27.27
   3   3  -4  578.61   27.37
   3   3  -4  554.22   27.23
   3   3  -4  564.44   27.31
   3   3  -4  585.34   27.28
   3   3  -4  568.25   27.00
   3   3  -4  574.25   27.27
   3   3  -4  574.31   27.16
   3   3  -3   86.45    5.29
   3   3  -3  104.81    5.49
   3   3  -3   98.26    5.25
   3   3  -3   92.58    5.39
   3   3  -3   82.40    5.20
   3   3  -3   84.03    5.31
   3   3  -3   86.61    5.25
   3   3  -2  779.64   37.26
   3   3  -2  830.53   37.00
   3   3  -2  813.45   37.37
   3   3  -2  787.96   37.28
   3   3  -2  775.80   37.25
   3   3  -1   44.47    3.10
   3   3  -1   48.56    2.73
   3   3  -1   39.67    3.08
   3   3  -1   51.02    3.33
   3   3  -1   47.60    3.34
   3   3  -1   48.80    3.18
   3   3  -1   52.16    3.41
   3   3  -1   45.30    3.28
   3   3   0   26.17    2.17
   3   3   0   33.53    2.41
   3   3   0   26.67    2.35
   3   3   0   30.72    2.28
   3   3   0   29.16    2.47
   3   3   1  255.14   12.83
   3   3   1  255.72   12.78
   3   3   1  254.12   12.94
   3   3   2   20.20    1.97
   3   3   2   20.41    2.18
   3   3   3   89.59    5.28
   3   3   3   80.78    5.34
   3   3   4   86.96    5.45
   3   3   5  418.27   20.61
   3   4 -13    1.16    1.55
   3   4 -13    2.53    1.22
   3   4 -12    8.71    2.50
   3   4 -12   10.02    2.07
   3   4 -12   10.91    2.02
   3   4 -11   -0.27    2.32
   3   4 -11    0.22    1.68
   3   4 -11    2.95    1.77
   3   4 -11    2.76    1.33
   3   4 -10    1.76    1.22
   3   4 -10    0.86    2.63
   3   4 -10    2.57    1.83
   3   4 -10    0.46    1.72
   3   4 -10    3.41    1.44
   3   4 -10    2.28    1.34
   3   4  -9   12.12    1.81
   3   4  -9   11.65    2.01
   3   4  -9   12.93    3.26
   3   4  -9   12.92    2.57
   3   4  -9   10.85    2.43
   3   4  -9   15.89    2.41
   3   4  -9   11.52    2.02
   3   4  -8    0.15    1.04
   3   4  -8    1.19    1.29
   3   4  -8    0.50    2.17
   3   4  -8    1.66    1.58
   3   4  -8    1.79    1.36
   3   4  -8    0.87    1.30
   3   4  -7  133.47    7.91
   3   4  -7  131.89    8.55
   3   4  -7  134.52    7.99
   3   4  -7  138.24    7.80
   3   4  -6  592.52   28.43
   3   4  -6  566.87   28.75
   3   4  -6  599.10   28.69
   3   4  -6  615.50   28.65
   3   4  -6  565.35   27.91
   3   4  -6  589.84   28.46
   3   4  -6  607.10   28.36
   3   4  -5  112.04    6.72
   3   4  -5  118.48    6.87
   3   4  -5  101.45    6.68
   3   4  -5  111.41    6.04
   3   4  -5  121.94    6.79
   3   4  -5  111.11    6.42
   3   4  -5  108.39    6.68
   3   4  -5  119.03    6.69
   3   4  -4    0.40    1.18
   3   4  -4    0.86    1.25
   3   4  -4   -0.49    1.06
   3   4  -4    1.21    1.26
   3   4  -4   -0.71    1.10
   3   4  -4    0.38    1.05
   3   4  -4    1.62    1.22
   3   4  -4   -0.13    1.11
   3   4  -3 1184.68   56.19
   3   4  -3 1225.32   56.57
   3   4  -3 1261.53   56.53
   3   4  -2    4.75    1.29
   3   4  -2    4.44    1.32
   3   4  -2    3.18    1.09
   3   4  -2    4.83    1.41
   3   4  -2    4.67    1.28
   3   4  -1  261.44   13.37
   3   4  -1  268.34   13.24
   3   4  -1  266.74   13.17
   3   4  -1  260.22   13.38
   3   4  -1  259.34   13.36
   3   4   0    2.48    1.16
   3   4   0    0.54    0.95
   3   4   0    2.57    0.90
   3   4   0    2.12    1.21
   3   4   0    2.98    1.19
   3   4   1  414.57   20.71
   3   4   1  434.65   21.14
   3   4   1  438.04   21.09
   3   4   1  441.57   21.12
   3   4   2    7.74    1.59
   3   4   2    7.82    1.28
   3   4   2    8.75    1.75
   3   4   2    9.68    1.65
   3   4   3   25.32    2.57
   3   4   3   28.25    2.69
   3   4   3   24.98    2.48
   3   4   4   36.82    3.26
   3   4   5   50.54    4.43
   3   5 -12    1.62    1.90
   3   5 -12    2.53    1.53
   3   5 -12    3.01    1.49
   3   5 -11    6.87    2.47
   3   5 -11    6.75    2.05
   3   5 -11   12.24    2.32
   3   5 -11   13.03    2.11
   3   5 -10   18.03    2.30
   3   5 -10   12.90    3.00
   3   5 -10   15.22    2.64
   3   5 -10   14.78    2.66
   3   5 -10   20.00    2.60
   3   5 -10   14.82    2.24
   3   5  -9    0.17    1.07
   3   5  -9    1.12    1.28
   3   5  -9    1.29    2.12
   3   5  -9    0.87    1.60
   3   5  -9    0.57    1.48
   3   5  -8   48.45    4.04
   3   5  -8   49.89    4.71
   3   5  -8   46.56    4.23
   3   5  -8   54.72    4.54
   3   5  -8   48.43    4.18
   3   5  -8   46.25    4.06
   3   5  -8   51.27    3.95
   3   5  -7  466.89   22.72
   3   5  -7  435.56   22.88
   3   5  -7  459.85   22.70
   3   5  -7  447.44   22.95
   3   5  -7  490.94   22.96
   3   5  -7  419.01   21.93
   3   5  -7  473.02   22.79
   3   5  -7  465.83   22.58
   3   5  -6  143.83    8.64
   3   5  -6  147.08    8.81
   3   5  -6  157.25    8.79
   3   5  -6  146.39    8.28
   3   5  -6  144.98    8.69
   3   5  -6  147.29    8.72
   3   5  -6  157.58    8.65
   3   5  -5   59.09    4.30
   3   5  -5   55.02    4.32
   3   5  -5   54.82    3.64
   3   5  -5   57.87    4.19
   3   5  -5   57.41    4.07
   3   5  -5   49.72    4.16
   3   5  -5   59.54    4.27
   3   5  -4   78.71    5.27
   3   5  -4   77.60    5.13
   3   5  -4   86.17    5.31
   3   5  -3  997.27   46.95
   3   5  -3  968.67   46.72
   3   5  -3 1005.58   46.69
   3   5  -3  998.33   46.87
   3   5  -3  994.26   46.99
   3   5  -3 1035.57   46.94
   3   5  -2 1146.47   53.25
   3   5  -2 1090.14   52.94
   3   5  -2 1134.09   52.93
   3   5  -2 1181.68   53.34
   3   5  -2 1165.71   53.29
   3   5  -1   54.19    3.97
   3   5  -1   47.96    3.60
   3   5  -1   54.89    3.67
   3   5  -1   56.33    4.07
   3   5  -1   58.41    4.03
   3   5   0    8.69    1.65
   3   5   0    8.21    1.27
   3   5   0    8.99    1.68
   3   5   0    9.32    1.68
   3   5   1    6.28    1.51
   3   5   1    4.11    1.45
   3   5   1    3.01    1.23
   3   5   2    1.04    1.14
   3   5   2    0.15    1.09
   3   5   2    1.20    1.01
   3   5   3   39.10    3.52
   3   5   3   36.90    3.36
   3   5   4  164.53    9.35
   3   5   5   -3.52    1.87
   3   6 -12    5.27    1.81
   3   6 -12    5.24    1.47
   3   6 -12    7.95    1.75
   3   6 -11    2.90    1.25
   3   6 -11    4.47    2.07
   3   6 -11    2.49    1.58
   3   6 -11    3.69    1.30
   3   6 -10    2.50    1.15
   3   6 -10    3.94    1.51
   3   6 -10   -0.23    1.92
   3   6 -10    1.19    1.55
   3   6 -10    0.22    1.65
   3   6 -10    2.07    1.28
   3   6 -10    1.64    1.38
   3   6  -9    1.42    1.21
   3   6  -9    0.59    1.37
   3   6  -9   -1.81    2.04
   3   6  -9    3.00    1.66
   3   6  -9    0.23    1.74
   3   6  -9    1.72    1.30
   3   6  -9    0.60    1.39
   3   6  -8   41.57    3.79
   3   6  -8   38.28    3.65
   3   6  -8   29.04    3.66
   3   6  -8   37.44    3.92
   3   6  -8   44.14    3.84
   3   6  -8   39.66    3.83
   3   6  -8   46.09    3.71
   3   6  -7   79.62    5.83
   3   6  -7   80.55    5.60
   3   6  -7   84.37    6.07
   3   6  -7   88.39    5.96
   3   6  -7   77.68    5.37
   3   6  -7   84.46    5.96
   3   6  -7   99.06    6.04
   3   6  -6   27.74    3.14
   3   6  -6   29.88    2.87
   3   6  -6   29.26    3.17
   3   6  -6   31.61    3.10
   3   6  -6   29.33    3.01
   3   6  -6   32.80    3.41
   3   6  -6   36.88    3.15
   3   6  -6   28.41    3.09
   3   6  -5  291.23   15.16
   3   6  -5  281.13   14.51
   3   6  -5  293.77   15.05
   3   6  -5  301.39   15.09
   3   6  -5  281.12   15.10
   3   6  -4   50.97    4.07
   3   6  -4   48.90    3.88
   3   6  -4   46.74    3.61
   3   6  -4   48.49    3.75
   3   6  -4   50.21    4.02
   3   6  -4   49.31    4.06
   3   6  -4   51.72    4.11
   3   6  -3  114.88    6.95
   3   6  -3  105.73    6.50
   3   6  -3  110.29    6.51
   3   6  -3  110.25    6.61
   3   6  -3  106.71    6.85
   3   6  -3  106.91    6.90
   3   6  -3  111.46    6.84
   3   6  -2   71.10    5.05
   3   6  -2   75.26    4.76
   3   6  -2   69.36    4.60
   3   6  -2   72.40    5.04
   3   6  -2   75.79    5.18
   3   6  -2   80.14    5.25
   3   6  -1  120.09    6.98
   3   6  -1  109.06    6.94
   3   6  -1  106.75    6.98
   3   6  -1  107.22    6.85
   3   6  -1  114.95    6.88
   3   6   0    7.91    1.70
   3   6   0    7.11    1.86
   3   6   0    7.05    1.85
   3   6   0   10.67    1.89
   3   6   0    7.40    1.68
   3   6   1  199.08   11.05
   3   6   1  213.42   11.58
   3   6   1  213.24   11.51
   3   6   1  206.02   11.14
   3   6   1  202.43   11.09
   3   6   2    3.51    1.72
   3   6   2    4.12    1.55
   3   6   3    2.93    2.25
   3   6   3    0.51    1.30
   3   6   3    0.38    1.27
   3   6   3    1.19    1.41
   3   6   4   11.66    2.61
   3   6   4   16.00    2.11
   3   6   5   14.49    2.35
   3   6   5   19.72    2.24
   3   7 -11   -0.56    1.02
   3   7 -11   -0.14    1.13
   3   7 -11    2.12    1.57
   3   7 -11   -0.43    1.08
   3   7 -10   -0.79    1.13
   3   7 -10   -0.35    1.20
   3   7 -10    0.64    1.27
   3   7 -10   -0.20    1.50
   3   7 -10    0.19    1.17
   3   7 -10   -0.18    1.28
   3   7  -9    2.92    1.52
   3   7  -9    3.76    1.56
   3   7  -9    2.65    1.45
   3   7  -9    4.34    1.87
   3   7  -9    4.08    1.52
   3   7  -9    3.22    1.62
   3   7  -8   26.22    2.90
   3   7  -8   22.20    2.87
   3   7  -8   27.45    3.29
   3   7  -8   19.59    2.33
   3   7  -8   24.78    2.86
   3   7  -8   24.96    2.99
   3   7  -7    3.27    1.52
   3   7  -7    3.00    1.79
   3   7  -7    0.21    1.53
   3   7  -7    2.06    1.42
   3   7  -7    2.39    1.41
   3   7  -7    1.52    1.58
   3   7  -7    0.63    1.38
   3   7  -6  206.32   11.44
   3   7  -6  212.04   11.38
   3   7  -6  200.70   11.31
   3   7  -6  188.45   11.11
   3   7  -6  214.24   11.61
   3   7  -5  450.52   22.83
   3   7  -5  442.27   22.49
   3   7  -5  445.96   22.12
   3   7  -5  486.78   22.56
   3   7  -5  456.76   22.69
   3   7  -5  474.56   22.98
   3   7  -5  461.68   22.78
   3   7  -5  414.88   22.02
   3   7  -4    0.99    1.34
   3   7  -4    1.61    1.44
   3   7  -4    1.46    1.35
   3   7  -4    1.60    1.73
   3   7  -4    1.32    1.22
   3   7  -4    0.95    1.01
   3   7  -4    3.67    1.81
   3   7  -3   75.79    5.43
   3   7  -3   74.94    5.24
   3   7  -3   75.44    4.86
   3   7  -3   69.17    5.40
   3   7  -3   78.91    5.54
   3   7  -3   76.63    5.43
   3   7  -2  700.78   34.00
   3   7  -2  713.89   34.09
   3   7  -2  685.51   34.23
   3   7  -2  707.53   34.06
   3   7  -2  713.57   34.06
   3   7  -1   74.97    5.39
   3   7  -1   92.01    5.90
   3   7  -1   77.23    5.71
   3   7  -1   83.89    5.57
   3   7  -1   72.14    5.35
   3   7   0   30.23    2.91
   3   7   0   31.24    3.32
   3   7   0   24.56    2.98
   3   7   0   26.21    2.81
   3   7   0   24.69    2.74
   3   7   1  248.98   13.76
   3   7   1  256.51   13.72
   3   7   1  252.94   13.88
   3   7   2   15.89    3.10
   3   7   2   18.36    2.47
   3   7   2   16.31    2.38
   3   7   2   15.16    2.50
   3   7   3   17.32    2.97
   3   7   3   20.38    2.44
   3   7   3   19.77    2.82
   3   7   4    5.09    1.97
   3   7   4    0.96    1.41
   3   7   5   38.01    3.15
   3   8 -11    6.99    1.61
   3   8 -10   41.68    3.43
   3   8 -10   35.09    3.41
   3   8 -10   38.78    3.43
   3   8  -9   59.39    4.57
   3   8  -9   48.37    4.35
   3   8  -9   64.18    4.51
   3   8  -9   58.58    4.57
   3   8  -9   57.09    4.32
   3   8  -8   -0.59    1.29
   3   8  -8   -0.62    1.58
   3   8  -8    1.76    1.51
   3   8  -8   -0.61    1.07
   3   8  -8    0.56    1.15
   3   8  -8    0.63    1.49
   3   8  -7  109.38    6.93
   3   8  -7  113.68    6.84
   3   8  -7  122.61    6.98
   3   8  -7  106.22    6.98
   3   8  -6   76.33    5.87
   3   8  -6   87.47    5.72
   3   8  -6   88.83    5.93
   3   8  -6   90.51    5.66
   3   8  -6   77.64    5.91
   3   8  -6   75.95    5.64
   3   8  -5  114.80    7.36
   3   8  -5  102.35    6.68
   3   8  -5  113.64    6.79
   3   8  -5  115.57    7.35
   3   8  -5  119.15    7.49
   3   8  -5  114.56    7.36
   3   8  -5  113.82    7.37
   3   8  -5  105.68    6.74
   3   8  -4   62.19    4.93
   3   8  -4   58.38    4.68
   3   8  -4   63.14    4.65
   3   8  -4   59.85    4.99
   3   8  -4   65.78    5.04
   3   8  -4   64.37    5.14
   3   8  -4   61.45    4.89
   3   8  -4   66.36    4.83
   3   8  -3   70.58    5.41
   3   8  -3   64.14    5.46
   3   8  -3   72.06    5.31
   3   8  -3   76.24    5.52
   3   8  -3   83.21    5.95
   3   8  -3   87.14    5.65
   3   8  -2  166.48    9.55
   3   8  -2  145.12    9.77
   3   8  -2  169.76    9.73
   3   8  -2  164.11    9.87
   3   8  -2  175.31    9.68
   3   8  -2  166.60    9.62
   3   8  -1   37.43    3.43
   3   8  -1   31.25    3.92
   3   8  -1   39.88    3.66
   3   8  -1   36.34    3.76
   3   8  -1   35.09    3.38
   3   8  -1   39.59    3.41
   3   8  -1   36.63    3.95
   3   8   0  151.29    9.87
   3   8   0  165.57    9.55
   3   8   0  161.62    9.55
   3   8   0  162.79    9.76
   3   8   1   10.85    2.14
   3   8   1    9.82    1.98
   3   8   1    9.61    2.10
   3   8   1   10.95    2.44
   3   8   2   23.52    3.38
   3   8   2   33.41    3.06
   3   8   2   31.94    2.89
   3   8   2   28.77    2.89
   3   8   2   26.25    3.23
   3   8   3    0.94    1.62
   3   8   3   -0.16    1.41
   3   8   4    3.63    1.53
   3   9 -10    2.23    1.17
   3   9 -10    0.39    1.03
   3   9 -10    2.56    1.20
   3   9  -9    1.33    1.32
   3   9  -9    1.04    1.17
   3   9  -9    0.85    1.30
   3   9  -8    1.97    1.18
   3   9  -8    0.93    1.23
   3   9  -8    1.43    1.20
   3   9  -7    5.51    1.78
   3   9  -7    5.16    1.50
   3   9  -7    6.02    1.74
   3   9  -7    6.22    1.93
   3   9  -7    4.60    1.55
   3   9  -6  107.83    6.87
   3   9  -6  100.34    6.75
   3   9  -6  104.44    6.89
   3   9  -6   98.29    6.63
   3   9  -6  112.12    6.93
   3   9  -5    2.03    1.49
   3   9  -5    0.80    1.47
   3   9  -5    0.41    1.50
   3   9  -5    0.16    1.11
   3   9  -5    2.45    1.66
   3   9  -5   -0.21    1.71
   3   9  -5    0.31    1.31
   3   9  -4    2.19    1.38
   3   9  -4    3.30    1.61
   3   9  -4    3.63    1.78
   3   9  -4    3.39    1.80
   3   9  -4    3.53    1.38
   3   9  -4    4.15    1.71
   3   9  -4    2.40    1.86
   3   9  -4    0.55    1.63
   3   9  -3   73.19    5.02
   3   9  -3   53.07    4.94
   3   9  -3   66.88    4.95
   3   9  -3   73.28    5.39
   3   9  -3   70.15    4.98
   3   9  -3   69.78    5.44
   3   9  -3   73.21    5.06
   3   9  -3   67.83    5.16
   3   9  -2    2.63    1.31
   3   9  -2    2.29    1.35
   3   9  -2    2.43    1.98
   3   9  -2    1.05    1.60
   3   9  -2    2.35    1.37
   3   9  -2    1.83    1.30
   3   9  -2    2.88    1.93
   3   9  -2    2.94    1.83
   3   9  -1   12.21    2.61
   3   9  -1   11.65    2.22
   3   9  -1   12.67    2.12
   3   9  -1   17.27    2.65
   3   9  -1   13.34    2.55
   3   9   0   46.70    4.49
   3   9   0   55.19    4.21
   3   9   0   52.22    4.15
   3   9   0   50.87    4.28
   3   9   1    8.67    1.71
   3   9   1    9.03    1.70
   3   9   1    6.86    1.67
   3   9   1    9.14    2.06
   3   9   2    0.15    1.25
   3  10  -8   55.96    3.92
   3  10  -8   43.85    3.44
   3  10  -8   55.31    3.96
   3  10  -7   65.48    4.50
   3  10  -7   58.30    4.22
   3  10  -7   66.70    4.54
   3  10  -7   54.80    4.02
   3  10  -6   46.01    3.73
   3  10  -6   49.98    3.82
   3  10  -6   52.62    3.90
   3  10  -5  220.54   11.56
   3  10  -5  190.70   11.04
   3  10  -5  216.88   11.72
   3  10  -5  217.95   11.58
   3  10  -5  231.07   11.85
   3  10  -5  222.20   11.64
   3  10  -4  167.71    9.27
   3  10  -4  166.32    9.25
   3  10  -4  162.17    9.23
   3  10  -4  172.55    9.74
   3  10  -4  171.37    9.39
   3  10  -4  162.49    9.24
   3  10  -3   -1.54    1.62
   3  10  -3    0.55    1.38
   3  10  -3    0.49    1.09
   3  10  -3   -1.19    1.39
   3  10  -2    3.28    1.70
   3  10  -2    2.25    1.47
   3  10  -2    3.81    1.35
   3  10  -2    3.14    1.78
   3  10  -2    3.34    1.70
   3  10  -1   30.23    3.27
   3  10  -1   35.53    3.08
   3  10  -1   33.33    3.21
   3  10  -1   38.27    3.43
   3  10   0   17.28    2.00
   3  10   0   16.72    2.15
   3  10   1    1.74    1.27
   3  10   1    1.80    1.21
   3  11  -6   11.04    1.62
   3  11  -6    9.23    1.57
   3  11  -5   73.03    4.58
   3  11  -5   62.02    4.42
   3  11  -4   31.12    2.87
   3  11  -3    0.79    1.11
   3  11  -3   -0.73    1.12
   3  11  -2    0.91    1.15
   3  11  -2    0.49    1.07
   4 -12  -1    3.58    1.30
   4 -12  -1    4.16    1.52
   4 -12   0    2.33    1.23
   4 -12   0    3.13    1.57
   4 -12   1   -0.28    1.17
   4 -12   1    2.85    1.60
   4 -12   1    1.36    1.17
   4 -12   2   12.22    1.79
   4 -12   2    7.44    1.81
   4 -12   3    0.81    1.08
   4 -12   3   -0.88    1.28
   4 -12   4    0.12    1.06
   4 -11  -4   16.53    2.01
   4 -11  -4   10.30    1.92
   4 -11  -3   33.85    3.08
   4 -11  -3   32.21    3.25
   4 -11  -3   31.35    2.98
   4 -11  -2   -0.18    1.41
   4 -11  -2   -1.52    1.69
   4 -11  -2   -0.99    1.44
   4 -11  -1    3.00    1.62
   4 -11  -1    0.20    1.69
   4 -11  -1    0.18    1.56
   4 -11   0   -0.77    1.46
   4 -11   0    0.20    1.72
   4 -11   1   35.87    3.45
   4 -11   1   30.60    3.39
   4 -11   2    1.35    1.55
   4 -11   2    0.99    1.72
   4 -11   3   -0.75    1.65
   4 -11   3   -0.38    1.62
   4 -11   4    0.71    1.45
   4 -11   4    2.82    1.72
   4 -11   5    1.12    1.34
   4 -11   5    2.02    1.51
   4 -11   6   -0.41    1.11
   4 -10  -5    4.29    1.77
   4 -10  -5    7.67    1.83
   4 -10  -4    0.39    1.54
   4 -10  -4    0.20    1.63
   4 -10  -4    1.90    1.67
   4 -10  -3    9.99    2.21
   4 -10  -3    9.32    1.77
   4 -10  -3    8.01    2.28
   4 -10  -3    9.55    2.26
   4 -10  -2   23.10    2.97
   4 -10  -2   18.12    2.41
   4 -10  -2   21.55    3.08
   4 -10  -2   16.71    2.73
   4 -10  -1   91.92    6.13
   4 -10  -1   93.13    6.54
   4 -10  -1   91.27    6.51
   4 -10   0    0.46    1.68
   4 -10   0   -1.38    1.40
   4 -10   0    0.45    1.91
   4 -10   1  108.65    6.82
   4 -10   1  109.49    7.15
   4 -10   1   93.45    6.90
   4 -10   2   51.50    4.25
   4 -10   2   51.23    4.56
   4 -10   2   47.41    4.43
   4 -10   3   22.19    2.62
   4 -10   3   16.77    2.76
   4 -10   3   19.72    2.96
   4 -10   4    3.59    1.50
   4 -10   4    3.51    2.01
   4 -10   4    6.69    2.06
   4 -10   5    4.44    1.89
   4 -10   5    6.07    1.99
   4 -10   6   49.04    3.90
   4 -10   6   37.68    3.56
   4 -10   7    1.48    1.32
   4  -9  -7   -0.60    1.23
   4  -9  -7    0.90    1.31
   4  -9  -6    1.35    1.67
   4  -9  -6   -2.08    1.60
   4  -9  -6    1.53    1.72
   4  -9  -5   29.17    2.82
   4  -9  -5   36.63    3.33
   4  -9  -5   40.28    3.73
   4  -9  -5   26.15    3.30
   4  -9  -5   28.45    3.44
   4  -9  -5   30.54    3.48
   4  -9  -4    6.27    1.59
   4  -9  -4    7.66    2.13
   4  -9  -4   10.93    2.46
   4  -9  -4    9.94    2.06
   4  -9  -4    6.65    2.20
   4  -9  -4    9.16    2.43
   4  -9  -3   16.72    2.24
   4  -9  -3   22.75    3.10
   4  -9  -3   19.79    2.61
   4  -9  -3   23.90    3.24
   4  -9  -3   13.20    2.34
   4  -9  -3   18.29    2.98
   4  -9  -2   29.18    3.50
   4  -9  -2   27.95    3.05
   4  -9  -2   22.80    3.21
   4  -9  -2   25.22    3.04
   4  -9  -1    4.82    2.12
   4  -9  -1    7.54    1.83
   4  -9  -1    5.74    2.17
   4  -9  -1    7.75    2.08
   4  -9   0  199.14   10.98
   4  -9   0  196.10   11.25
   4  -9   0  177.33   10.88
   4  -9   0  182.84   10.67
   4  -9   1   15.87    2.77
   4  -9   1   14.46    2.42
   4  -9   1   16.93    2.87
   4  -9   1   11.69    2.37
   4  -9   2    7.79    1.92
   4  -9   2    4.73    2.16
   4  -9   2    4.58    2.02
   4  -9   2    5.78    2.07
   4  -9   3   71.47    5.14
   4  -9   3   59.13    5.09
   4  -9   3   60.07    5.12
   4  -9   3   60.94    4.99
   4  -9   4    4.73    1.64
   4  -9   4    4.04    2.11
   4  -9   4    4.84    2.12
   4  -9   4    4.44    2.03
   4  -9   5    0.63    1.34
   4  -9   5    0.23    1.74
   4  -9   5   -0.63    1.69
   4  -9   5    0.21    1.73
   4  -9   6   40.56    3.47
   4  -9   6   37.26    3.71
   4  -9   6   28.94    3.30
   4  -9   6   25.80    3.19
   4  -9   7   -0.37    1.56
   4  -9   7    0.62    1.42
   4  -9   7    0.49    1.41
   4  -9   8    0.86    1.21
   4  -8  -8    4.51    1.54
   4  -8  -8    3.90    1.63
   4  -8  -7   -0.67    1.19
   4  -8  -7    1.36    1.99
   4  -8  -7   -1.78    1.60
   4  -8  -7   -1.35    1.45
   4  -8  -7    0.21    1.77
   4  -8  -6    0.31    1.22
   4  -8  -6    4.77    2.31
   4  -8  -6    0.91    1.79
   4  -8  -6    0.63    1.26
   4  -8  -6    0.22    1.79
   4  -8  -6    1.24    1.78
   4  -8  -6    1.18    1.83
   4  -8  -5   15.30    2.22
   4  -8  -5   15.52    2.92
   4  -8  -5   17.61    2.57
   4  -8  -5   16.35    2.87
   4  -8  -5   13.45    2.66
   4  -8  -5   17.18    2.96
   4  -8  -4    0.49    1.34
   4  -8  -4    1.68    1.86
   4  -8  -4    1.12    1.36
   4  -8  -4   -0.47    2.09
   4  -8  -4   -1.59    1.92
   4  -8  -4    0.75    2.14
   4  -8  -3   39.90    3.38
   4  -8  -3   39.02    3.78
   4  -8  -3   35.33    3.74
   4  -8  -3   40.29    4.06
   4  -8  -3   43.92    4.20
   4  -8  -2    2.83    1.60
   4  -8  -2    0.87    1.65
   4  -8  -2    0.22    1.74
   4  -8  -1   48.36    4.20
   4  -8  -1   47.47    4.28
   4  -8  -1   45.67    4.25
   4  -8   0  272.08   14.34
   4  -8   0  252.05   14.18
   4  -8   0  264.17   14.30
   4  -8   1   88.91    5.96
   4  -8   1   81.60    5.76
   4  -8   1   68.13    5.60
   4  -8   2    2.17    1.49
   4  -8   2    3.17    1.86
   4  -8   2    2.70    2.14
   4  -8   3    0.89    1.50
   4  -8   3    0.65    1.78
   4  -8   3   -1.62    1.94
   4  -8   4   12.02    2.34
   4  -8   4   10.91    2.48
   4  -8   4   12.43    2.71
   4  -8   5    5.91    1.93
   4  -8   5    0.86    1.79
   4  -8   5    1.21    2.05
   4  -8   6   38.32    3.91
   4  -8   6   39.34    4.25
   4  -8   7   14.19    2.23
   4  -8   7    8.73    2.09
   4  -8   7   12.72    2.51
   4  -8   8   15.43    2.06
   4  -8   8   19.33    2.51
   4  -7  -9    0.16    1.40
   4  -7  -8    4.21    1.45
   4  -7  -8    3.57    1.75
   4  -7  -8    5.68    2.19
   4  -7  -7   10.91    2.00
   4  -7  -7    9.59    2.78
   4  -7  -7   17.86    2.49
   4  -7  -7   10.48    2.56
   4  -7  -7   13.80    2.84
   4  -7  -6    6.16    1.72
   4  -7  -6    7.57    2.56
   4  -7  -6    9.87    2.16
   4  -7  -6    5.34    2.28
   4  -7  -6    3.04    2.15
   4  -7  -6    8.40    2.47
   4  -7  -5    0.84    1.38
   4  -7  -5    1.42    2.22
   4  -7  -5    2.28    1.55
   4  -7  -5    1.85    2.03
   4  -7  -5    0.75    1.82
   4  -7  -5    2.27    2.21
   4  -7  -4   -0.16    1.25
   4  -7  -4    1.50    2.15
   4  -7  -4    0.44    1.36
   4  -7  -4    1.32    1.94
   4  -7  -4    0.96    1.94
   4  -7  -4    1.21    2.14
   4  -7  -3  407.06   19.84
   4  -7  -3  385.78   19.87
   4  -7  -3  359.68   19.31
   4  -7  -3  376.76   19.56
   4  -7  -3  388.07   19.98
   4  -7  -2    7.51    1.84
   4  -7  -2    7.30    2.06
   4  -7  -2    7.07    2.15
   4  -7  -2   11.59    2.31
   4  -7  -1   81.20    5.60
   4  -7  -1   75.76    5.55
   4  -7  -1   70.27    5.30
   4  -7  -1   76.19    5.70
   4  -7   0   52.04    4.36
   4  -7   0   52.88    4.55
   4  -7   0   53.54    4.31
   4  -7   0   65.24    4.88
   4  -7   1  147.85    8.89
   4  -7   1  145.05    9.00
   4  -7   1  151.33    8.75
   4  -7   1  148.76    9.10
   4  -7   2    5.59    1.87
   4  -7   2    5.94    1.99
   4  -7   2    6.12    1.95
   4  -7   2    2.45    1.68
   4  -7   2    4.96    2.18
   4  -7   3   50.66    4.36
   4  -7   3   48.10    4.43
   4  -7   3   46.72    4.13
   4  -7   3   43.78    4.38
   4  -7   4  100.99    6.70
   4  -7   4   90.81    6.74
   4  -7   4   88.88    6.38
   4  -7   4   93.01    6.87
   4  -7   5   66.86    5.11
   4  -7   5   63.37    5.32
   4  -7   5   51.20    4.67
   4  -7   5   58.99    5.36
   4  -7   6   26.17    3.14
   4  -7   6   23.68    3.27
   4  -7   6   14.32    2.69
   4  -7   6   15.82    3.08
   4  -7   7   20.14    2.67
   4  -7   7   22.27    2.98
   4  -7   7   13.29    2.40
   4  -7   7   12.95    2.81
   4  -7   8   19.00    2.45
   4  -7   8   22.54    3.05
   4  -7   9    1.69    1.29
   4  -7   9   -0.45    1.39
   4  -6  -9    4.49    1.43
   4  -6  -9    4.71    1.75
   4  -6  -9    7.57    2.13
   4  -6  -8   -0.67    1.39
   4  -6  -8    0.96    2.27
   4  -6  -8   -0.45    1.59
   4  -6  -8    0.77    2.07
   4  -6  -7    4.22    1.66
   4  -6  -7    3.82    2.61
   4  -6  -7    5.98    2.07
   4  -6  -7    4.16    1.69
   4  -6  -7    3.55    2.25
   4  -6  -6    0.86    1.33
   4  -6  -6    0.75    2.21
   4  -6  -6    2.38    1.91
   4  -6  -6    0.23    1.45
   4  -6  -6    0.45    1.94
   4  -6  -6   -1.07    2.04
   4  -6  -5   72.21    4.93
   4  -6  -5   75.81    5.49
   4  -6  -5   70.05    5.47
   4  -6  -5   63.00    5.62
   4  -6  -5   72.19    5.44
   4  -6  -5   73.25    5.82
   4  -6  -4   79.09    5.15
   4  -6  -4   84.39    6.00
   4  -6  -4   81.38    5.97
   4  -6  -4   80.41    5.71
   4  -6  -4   76.75    6.04
   4  -6  -3    1.38    1.66
   4  -6  -3    2.36    1.62
   4  -6  -3    3.32    1.69
   4  -6  -3    3.48    1.95
   4  -6  -2    2.22    1.43
   4  -6  -2    1.45    1.51
   4  -6  -2    2.07    1.86
   4  -6  -2    1.88    1.40
   4  -6  -1  122.98    7.61
   4  -6  -1  124.83    7.31
   4  -6  -1  122.14    7.26
   4  -6  -1  129.51    7.86
   4  -6   0   24.19    2.78
   4  -6   0   20.10    2.49
   4  -6   0   18.68    2.39
   4  -6   0   23.04    2.93
   4  -6   1    7.19    1.92
   4  -6   1    5.83    1.83
   4  -6   1    7.26    1.79
   4  -6   1    7.38    2.18
   4  -6   2   39.47    3.76
   4  -6   2   39.39    3.45
   4  -6   2   46.05    4.22
   4  -6   3   10.76    2.24
   4  -6   3    7.77    1.87
   4  -6   3   10.52    2.52
   4  -6   4    1.62    1.93
   4  -6   4    0.19    1.65
   4  -6   4    0.25    2.23
   4  -6   5   30.50    3.69
   4  -6   5   30.62    3.43
   4  -6   5   28.98    3.88
   4  -6   6   13.97    2.77
   4  -6   6   15.58    2.57
   4  -6   6   19.35    3.34
   4  -6   7   12.48    2.33
   4  -6   7   10.58    2.41
   4  -6   7    9.04    2.19
   4  -6   7   14.17    2.94
   4  -6   8    2.55    1.43
   4  -6   8    1.01    1.59
   4  -6   8    1.55    2.00
   4  -6   9   10.19    1.87
   4  -6   9    6.46    1.84
   4  -5 -10    0.67    1.18
   4  -5 -10    2.87    1.91
   4  -5 -10    0.37    1.56
   4  -5  -9   24.38    2.70
   4  -5  -9   22.86    2.95
   4  -5  -9   21.40    3.40
   4  -5  -9   20.46    3.14
   4  -5  -8    0.18    1.46
   4  -5  -8    0.26    2.32
   4  -5  -8    0.23    1.72
   4  -5  -8   -1.41    2.36
   4  -5  -8   -0.50    1.98
   4  -5  -7   -0.53    1.52
   4  -5  -7   -1.03    2.31
   4  -5  -7    1.64    1.68
   4  -5  -7    3.64    2.30
   4  -5  -7   -1.50    2.13
   4  -5  -6   69.61    4.66
   4  -5  -6   60.67    5.42
   4  -5  -6   63.88    5.16
   4  -5  -6   56.42    4.90
   4  -5  -6   61.42    4.96
   4  -5  -6   67.52    5.63
   4  -5  -6   55.28    5.12
   4  -5  -5   62.64    4.41
   4  -5  -5   73.09    5.10
   4  -5  -5   72.17    5.19
   4  -5  -5   59.54    5.22
   4  -5  -5   55.44    4.81
   4  -5  -5   64.06    4.87
   4  -5  -5   63.73    5.37
   4  -5  -5   75.33    5.36
   4  -5  -4   81.42    5.52
   4  -5  -4   78.58    5.58
   4  -5  -4   83.13    5.85
   4  -5  -4   76.08    5.41
   4  -5  -4   84.24    5.45
   4  -5  -4   78.37    5.90
   4  -5  -3   12.68    2.24
   4  -5  -3    7.96    1.84
   4  -5  -3    7.98    1.75
   4  -5  -3    8.32    1.98
   4  -5  -3    9.85    1.89
   4  -5  -3   11.49    2.36
   4  -5  -2   93.33    5.93
   4  -5  -2   93.63    5.99
   4  -5  -2   85.06    5.58
   4  -5  -2   97.73    5.97
   4  -5  -2   95.30    5.67
   4  -5  -2   92.30    6.21
   4  -5  -1    1.69    1.31
   4  -5  -1   -0.46    1.61
   4  -5  -1    0.49    1.13
   4  -5  -1    1.98    1.70
   4  -5  -1    0.63    1.29
   4  -5  -1    0.84    0.67
   4  -5   0  261.74   13.51
   4  -5   0  261.21   13.51
   4  -5   0  254.53   13.52
   4  -5   0  256.75   12.84
   4  -5   0  257.51   13.06
   4  -5   0  256.41   13.78
   4  -5   1  119.43    6.95
   4  -5   1  112.51    6.91
   4  -5   1  101.54    6.37
   4  -5   1  119.71    7.27
   4  -5   2  154.70    8.60
   4  -5   2  143.43    8.48
   4  -5   2  134.57    7.96
   4  -5   2  145.71    8.78
   4  -5   3   41.84    3.74
   4  -5   3   38.96    3.77
   4  -5   3   40.46    3.41
   4  -5   3   35.84    3.94
   4  -5   4    7.26    2.26
   4  -5   4    2.11    1.60
   4  -5   4    4.97    2.31
   4  -5   5  300.63   14.47
   4  -5   5  274.49   14.32
   4  -5   6   27.47    3.23
   4  -5   6   22.15    3.31
   4  -5   6   19.06    2.84
   4  -5   7   57.69    4.50
   4  -5   7   51.15    4.46
   4  -5   8    7.46    1.82
   4  -5   8    3.07    1.76
   4  -5   9   14.99    2.15
   4  -4 -11    1.42    1.22
   4  -4 -11    3.49    1.75
   4  -4 -11    4.20    1.65
   4  -4 -10    0.48    1.34
   4  -4 -10   -0.25    2.06
   4  -4 -10   -1.91    1.87
   4  -4  -9   20.60    2.65
   4  -4  -9   14.58    2.79
   4  -4  -9   18.30    3.35
   4  -4  -9   22.16    2.95
   4  -4  -9   20.79    3.23
   4  -4  -8    4.18    1.77
   4  -4  -8    8.24    2.23
   4  -4  -8    3.72    2.33
   4  -4  -8    5.43    1.87
   4  -4  -8    3.74    2.48
   4  -4  -8    7.19    2.48
   4  -4  -7   10.04    1.94
   4  -4  -7    6.16    2.86
   4  -4  -7    9.40    2.24
   4  -4  -7    8.36    2.67
   4  -4  -7   11.37    2.04
   4  -4  -7    9.96    2.84
   4  -4  -7   11.27    2.58
   4  -4  -6   14.95    2.10
   4  -4  -6   16.39    2.97
   4  -4  -6   20.65    2.67
   4  -4  -6   15.36    2.93
   4  -4  -6   22.14    2.69
   4  -4  -6   15.42    2.87
   4  -4  -6   16.74    2.76
   4  -4  -5   80.36    5.08
   4  -4  -5   99.85    5.89
   4  -4  -5   83.63    5.72
   4  -4  -5   79.76    5.94
   4  -4  -5   78.54    5.90
   4  -4  -5   80.96    5.44
   4  -4  -5   82.55    6.05
   4  -4  -5   84.05    5.83
   4  -4  -4   59.16    4.30
   4  -4  -4   61.09    4.37
   4  -4  -4   53.80    4.52
   4  -4  -4   63.28    4.70
   4  -4  -4   55.83    4.04
   4  -4  -4   59.38    4.73
   4  -4  -3  680.35   32.32
   4  -4  -3  660.07   32.31
   4  -4  -3  680.26   32.33
   4  -4  -3  684.22   32.53
   4  -4  -3  659.07   31.93
   4  -4  -3  715.39   32.78
   4  -4  -2 1067.58   49.17
   4  -4  -2 1040.22   48.35
   4  -4  -2 1079.42   49.16
   4  -4  -2 1104.90   49.39
   4  -4  -2 1026.40   48.48
   4  -4  -2 1027.69   49.43
   4  -4  -1  219.55   11.44
   4  -4  -1  217.26   10.87
   4  -4  -1  219.11   11.42
   4  -4  -1  221.55   11.62
   4  -4  -1  218.64   10.99
   4  -4   0   59.37    4.14
   4  -4   0   58.91    3.71
   4  -4   0   57.85    4.20
   4  -4   0   63.41    4.50
   4  -4   1    3.49    1.35
   4  -4   1    3.07    1.53
   4  -4   1    3.30    0.92
   4  -4   2  286.52   14.59
   4  -4   2  274.50   14.60
   4  -4   3    1.27    1.34
   4  -4   3    1.29    1.58
   4  -4   4   14.09    2.28
   4  -4   4   10.39    2.38
   4  -4   4    7.26    1.85
   4  -4   5    1.80    1.60
   4  -4   5    0.92    1.77
   4  -4   5   -0.73    1.62
   4  -4   6   57.51    4.63
   4  -4   6   54.49    4.71
   4  -4   7   52.15    4.32
   4  -4   7   39.24    4.13
   4  -4   8   38.86    3.50
   4  -4   8   28.99    3.35
   4  -4   9    5.35    1.63
   4  -4   9    4.22    1.83
   4  -3 -11    4.47    1.63
   4  -3 -11   10.89    2.45
   4  -3 -11    8.06    2.10
   4  -3 -10    8.50    1.99
   4  -3 -10   11.35    2.66
   4  -3 -10    6.42    2.57
   4  -3 -10    5.38    2.31
   4  -3  -9    5.81    1.83
   4  -3  -9    8.78    2.18
   4  -3  -9    5.21    2.56
   4  -3  -9    6.90    1.83
   4  -3  -9    3.14    2.19
   4  -3  -8    1.07    1.50
   4  -3  -8    1.29    1.58
   4  -3  -8    3.06    2.51
   4  -3  -8    0.59    1.52
   4  -3  -8    1.08    1.42
   4  -3  -8    0.94    1.94
   4  -3  -7   11.87    2.00
   4  -3  -7   14.06    2.41
   4  -3  -7   11.48    2.87
   4  -3  -7   14.20    2.23
   4  -3  -7   14.61    2.72
   4  -3  -6   11.25    1.74
   4  -3  -6    9.96    2.61
   4  -3  -6   11.17    2.09
   4  -3  -6   12.16    2.72
   4  -3  -6   16.15    2.16
   4  -3  -6   11.50    2.26
   4  -3  -5   56.01    4.04
   4  -3  -5   54.97    4.11
   4  -3  -5   58.55    4.58
   4  -3  -5   49.20    4.48
   4  -3  -5   49.00    3.78
   4  -3  -5   51.39    4.21
   4  -3  -4  230.72   11.51
   4  -3  -4  204.70   11.32
   4  -3  -4  217.22   11.80
   4  -3  -4  218.56   10.84
   4  -3  -3   13.48    1.26
   4  -3  -3   13.56    1.74
   4  -3  -3   12.16    1.71
   4  -3  -3   20.51    2.54
   4  -3  -3   10.46    1.48
   4  -3  -3   23.60    2.59
   4  -3  -3   12.08    1.42
   4  -3  -2  338.77   16.97
   4  -3  -2  340.55   16.55
   4  -3  -2  340.98   16.91
   4  -3  -2  380.83   17.49
   4  -3  -2  341.48   16.67
   4  -3  -2  349.65   17.01
   4  -3  -2  364.48   17.44
   4  -3  -2  332.83   16.53
   4  -3  -1  391.94   19.30
   4  -3  -1  396.28   18.99
   4  -3  -1  397.91   19.28
   4  -3  -1  405.52   19.70
   4  -3  -1  407.53   19.11
   4  -3  -1  383.38   19.18
   4  -3  -1  389.80   19.66
   4  -3  -1  402.14   18.90
   4  -3   0  221.71   11.04
   4  -3   0  215.42   10.79
   4  -3   0  212.24   10.97
   4  -3   0  212.55   10.80
   4  -3   0  210.55   11.37
   4  -3   0  206.39   10.49
   4  -3   1  190.18    9.76
   4  -3   1  184.36    9.52
   4  -3   1  182.73    9.71
   4  -3   1  172.37    9.33
   4  -3   1  181.05   10.10
   4  -3   2   22.24    2.47
   4  -3   2   21.46    2.42
   4  -3   2   23.00    2.93
   4  -3   3    2.22    1.41
   4  -3   3    1.02    1.49
   4  -3   4    6.66    1.82
   4  -3   4    6.10    1.99
   4  -3   5   96.43    6.49
   4  -3   5   88.57    6.56
   4  -3   6   86.08    6.04
   4  -3   6   74.71    5.91
   4  -3   7   62.69    4.75
   4  -3   7   47.06    4.46
   4  -3   8   20.00    2.52
   4  -3   8   14.39    2.43
   4  -3   9    3.26    1.37
   4  -3   9    0.35    1.60
   4  -2 -12    0.42    1.29
   4  -2 -11   31.81    3.10
   4  -2 -11   27.46    2.76
   4  -2 -11   28.61    3.69
   4  -2 -11   31.11    3.37
   4  -2 -10    3.19    1.75
   4  -2 -10    1.12    2.38
   4  -2 -10    2.78    1.69
   4  -2 -10    2.48    2.11
   4  -2 -10    0.68    2.00
   4  -2  -9   -0.38    1.54
   4  -2  -9    0.42    1.50
   4  -2  -9    0.90    2.46
   4  -2  -9   -0.44    1.60
   4  -2  -9   -1.70    2.69
   4  -2  -9   -1.39    1.83
   4  -2  -8   56.69    4.57
   4  -2  -8   66.94    4.85
   4  -2  -8   62.22    4.81
   4  -2  -8   54.07    5.49
   4  -2  -8   54.06    5.22
   4  -2  -8   64.15    5.09
   4  -2  -7    7.14    1.67
   4  -2  -7    4.73    1.64
   4  -2  -7    3.27    2.33
   4  -2  -7   10.17    1.84
   4  -2  -7    6.07    2.28
   4  -2  -7    7.35    2.04
   4  -2  -6   12.70    1.73
   4  -2  -6   12.81    2.01
   4  -2  -6   11.92    2.68
   4  -2  -6   11.54    1.81
   4  -2  -6    9.95    1.69
   4  -2  -6   11.86    2.45
   4  -2  -6   10.64    1.49
   4  -2  -6   12.44    2.16
   4  -2  -5  149.15    8.00
   4  -2  -5  138.49    7.89
   4  -2  -5  144.29    8.58
   4  -2  -5  139.82    7.78
   4  -2  -5  150.26    7.74
   4  -2  -5  144.25    8.50
   4  -2  -5  135.16    8.00
   4  -2  -4  307.18   15.14
   4  -2  -4  286.10   15.01
   4  -2  -4  321.39   15.81
   4  -2  -4  296.31   14.99
   4  -2  -4  312.30   14.95
   4  -2  -4  311.59   15.64
   4  -2  -4  306.15   14.78
   4  -2  -3  719.19   32.41
   4  -2  -3  668.99   32.25
   4  -2  -3  705.06   32.92
   4  -2  -3  673.54   32.46
   4  -2  -3  691.30   32.36
   4  -2  -3  711.12   32.29
   4  -2  -3  695.41   32.83
   4  -2  -3  665.64   32.05
   4  -2  -3  688.33   32.15
   4  -2  -2    0.44    0.65
   4  -2  -2    0.18    0.96
   4  -2  -2    2.16    0.95
   4  -2  -2    0.14    1.66
   4  -2  -2    1.10    0.68
   4  -2  -2    1.87    1.07
   4  -2  -2    1.20    1.48
   4  -2  -2    1.05    0.89
   4  -2  -2    0.07    0.46
   4  -2  -1  499.17   23.13
   4  -2  -1  487.61   23.04
   4  -2  -1  481.84   23.00
   4  -2  -1  508.41   23.67
   4  -2  -1  484.31   23.37
   4  -2  -1  487.24   23.14
   4  -2  -1  487.81   22.97
   4  -2  -1  485.29   23.05
   4  -2  -1  478.52   23.04
   4  -2  -1  509.24   23.56
   4  -2  -1  463.24   22.59
   4  -2   0  790.75   37.00
   4  -2   0  792.27   36.99
   4  -2   0  770.29   36.89
   4  -2   0  830.06   37.14
   4  -2   0  796.05   36.83
   4  -2   0  795.69   36.70
   4  -2   0  794.64   36.83
   4  -2   0  793.21   37.45
   4  -2   0  777.24   36.41
   4  -2   1   50.65    3.44
   4  -2   1   42.88    3.19
   4  -2   1   39.93    3.24
   4  -2   1   48.76    3.00
   4  -2   1   49.60    3.00
   4  -2   1   41.69    3.74
   4  -2   2   89.96    5.43
   4  -2   2   79.60    5.24
   4  -2   3  298.60   14.84
   4  -2   3  273.47   14.75
   4  -2   4   12.46    2.02
   4  -2   4    8.25    2.08
   4  -2   5   21.11    2.67
   4  -2   5   13.63    2.52
   4  -2   6   10.35    2.10
   4  -2   6    8.33    2.25
   4  -2   7   13.53    2.34
   4  -2   7    8.99    2.27
   4  -2   8    5.45    1.74
   4  -2   9    4.88    1.68
   4  -1 -12   17.07    2.16
   4  -1 -12   12.59    2.51
   4  -1 -12   13.02    1.87
   4  -1 -12   15.72    2.21
   4  -1 -11   32.23    3.29
   4  -1 -11   27.13    3.99
   4  -1 -11   32.69    3.32
   4  -1 -11   30.00    3.80
   4  -1 -11   33.15    3.44
   4  -1 -10    0.58    1.53
   4  -1 -10    1.21    2.57
   4  -1 -10   -0.68    1.66
   4  -1 -10   -1.10    2.21
   4  -1 -10   -0.65    1.80
   4  -1  -9   -0.19    1.60
   4  -1  -9    0.92    2.80
   4  -1  -9    1.18    1.69
   4  -1  -9   -1.09    2.30
   4  -1  -9   -0.43    1.84
   4  -1  -8   16.22    2.38
   4  -1  -8   13.88    2.21
   4  -1  -8   16.10    3.52
   4  -1  -8   16.44    2.31
   4  -1  -8   11.99    2.81
   4  -1  -8   17.80    2.08
   4  -1  -8   15.40    2.50
   4  -1  -7   30.66    2.92
   4  -1  -7   38.47    3.17
   4  -1  -7   32.34    3.10
   4  -1  -7   33.59    4.17
   4  -1  -7   34.51    3.14
   4  -1  -7   32.47    3.70
   4  -1  -7   42.39    3.12
   4  -1  -7   29.34    3.25
   4  -1  -6   43.93    3.24
   4  -1  -6   51.51    3.57
   4  -1  -6   43.02    3.40
   4  -1  -6   37.82    4.10
   4  -1  -6   46.61    3.57
   4  -1  -6   45.67    4.03
   4  -1  -6   47.13    3.45
   4  -1  -6   45.34    3.58
   4  -1  -5  239.97   11.61
   4  -1  -5  212.93   11.42
   4  -1  -5  211.41   12.28
   4  -1  -5  246.15   11.67
   4  -1  -5  219.86   12.11
   4  -1  -5  223.31   11.60
   4  -1  -4 1597.33   74.91
   4  -1  -4 1693.54   75.21
   4  -1  -4 1564.05   75.02
   4  -1  -4 1681.84   75.99
   4  -1  -4 1546.69   75.38
   4  -1  -4 1661.14   75.40
   4  -1  -4 1742.65   75.34
   4  -1  -4 1631.19   75.72
   4  -1  -4 1617.25   74.93
   4  -1  -4 1669.13   74.99
   4  -1  -4 1660.49   74.87
   4  -1  -3   52.43    3.34
   4  -1  -3   50.48    3.45
   4  -1  -3   50.41    3.57
   4  -1  -3   55.65    3.56
   4  -1  -3   51.80    3.88
   4  -1  -3   56.19    3.11
   4  -1  -3   51.53    3.23
   4  -1  -2  697.99   33.09
   4  -1  -2  719.39   33.52
   4  -1  -2  723.32   33.35
   4  -1  -2  743.08   33.14
   4  -1  -2  705.05   33.28
   4  -1  -2  740.19   33.61
   4  -1  -2  711.57   33.28
   4  -1  -2  686.52   32.66
   4  -1  -1  334.85   16.41
   4  -1  -1  335.69   16.57
   4  -1  -1  387.93   17.30
   4  -1  -1  349.41   16.79
   4  -1  -1  341.03   16.69
   4  -1  -1  362.30   16.26
   4  -1  -1  330.07   16.51
   4  -1  -1  367.08   16.98
   4  -1  -1  338.72   16.53
   4  -1  -1  325.48   15.81
   4  -1   0    4.90    0.94
   4  -1   0    6.83    1.16
   4  -1   0    7.08    1.14
   4  -1   0    7.64    1.39
   4  -1   0    7.38    0.93
   4  -1   0    9.48    1.89
   4  -1   0    5.41    1.33
   4  -1   0    5.14    1.00
   4  -1   1   47.13    3.19
   4  -1   1   40.57    3.21
   4  -1   1   41.99    3.25
   4  -1   1   46.66    2.90
   4  -1   1   45.75    3.64
   4  -1   1   43.62    2.84
   4  -1   2  141.17    7.49
   4  -1   2  123.99    7.29
   4  -1   3   52.96    3.86
   4  -1   3   44.69    3.67
   4  -1   4    4.18    1.43
   4  -1   4    0.89    1.31
   4  -1   5    0.61    1.27
   4  -1   5    1.39    1.58
   4  -1   6   71.15    5.10
   4  -1   6   58.54    4.92
   4  -1   7   10.95    2.05
   4  -1   7    8.95    2.00
   4  -1   8   -0.75    1.25
   4   0 -12   11.99    1.95
   4   0 -12   10.43    2.60
   4   0 -12   13.18    2.07
   4   0 -12    7.98    1.80
   4   0 -11    0.55    1.69
   4   0 -11    1.98    2.56
   4   0 -11   -0.64    1.55
   4   0 -11   -0.74    1.94
   4   0 -11    0.19    1.53
   4   0 -10   28.87    3.26
   4   0 -10   25.51    4.18
   4   0 -10   27.56    3.43
   4   0 -10   28.86    2.88
   4   0 -10   22.22    3.51
   4   0 -10   19.62    2.91
   4   0  -9   23.15    3.01
   4   0  -9   19.91    3.95
   4   0  -9   30.28    3.51
   4   0  -9   28.40    2.97
   4   0  -9   19.52    3.47
   4   0  -9   33.63    2.88
   4   0  -9   24.67    3.06
   4   0  -8    2.29    1.62
   4   0  -8    4.15    2.65
   4   0  -8    4.06    1.65
   4   0  -8    5.39    2.20
   4   0  -8    3.89    1.45
   4   0  -8    1.93    1.56
   4   0  -7   44.23    3.64
   4   0  -7   46.04    3.59
   4   0  -7   51.15    4.03
   4   0  -7   51.21    4.42
   4   0  -7   56.98    4.01
   4   0  -7   48.53    3.78
   4   0  -6  122.39    7.16
   4   0  -6  137.16    7.35
   4   0  -6  144.21    7.80
   4   0  -6  115.49    7.73
   4   0  -6  154.11    7.75
   4   0  -6  129.37    7.37
   4   0  -5  368.46   18.01
   4   0  -5  365.24   18.06
   4   0  -5  385.43   18.54
   4   0  -5  392.18   18.46
   4   0  -5  393.11   18.71
   4   0  -5  364.00   18.01
   4   0  -5  371.76   18.10
   4   0  -5  375.06   17.91
   4   0  -4 1591.20   73.17
   4   0  -4 1578.15   72.99
   4   0  -4 1583.74   73.92
   4   0  -4 1524.34   73.33
   4   0  -4 1590.52   73.53
   4   0  -4 1693.92   73.50
   4   0  -4 1590.68   73.58
   4   0  -4 1598.24   73.18
   4   0  -4 1617.45   73.10
   4   0  -3  632.38   30.93
   4   0  -3  702.27   31.95
   4   0  -3  642.93   31.55
   4   0  -3  656.41   31.19
   4   0  -3  665.99   31.55
   4   0  -3  690.50   31.53
   4   0  -3  698.13   31.57
   4   0  -3  691.19   31.27
   4   0  -2   76.45    4.23
   4   0  -2   78.98    5.16
   4   0  -2   73.73    4.70
   4   0  -2   79.14    4.74
   4   0  -2   78.72    4.27
   4   0  -2   76.25    4.72
   4   0  -2   81.50    4.64
   4   0  -2   79.26    4.61
   4   0  -1   46.92    2.85
   4   0  -1   49.00    3.30
   4   0  -1   47.64    2.57
   4   0  -1   47.04    3.32
   4   0  -1   42.29    3.04
   4   0  -1   50.59    3.72
   4   0  -1   45.08    3.09
   4   0   0   93.98    5.35
   4   0   0  104.91    5.91
   4   0   0   98.93    5.68
   4   0   0  103.05    5.71
   4   0   0  104.62    5.96
   4   0   0  104.20    5.57
   4   0   0   96.62    5.50
   4   0   1  765.41   34.55
   4   0   1  788.95   35.12
   4   0   1  681.76   34.51
   4   0   1  728.85   34.65
   4   0   1  742.32   35.05
   4   0   1  742.19   34.39
   4   0   1  744.83   34.39
   4   0   2    0.23    0.84
   4   0   3   53.87    3.89
   4   0   4   44.98    3.65
   4   0   5    2.07    1.30
   4   0   5   -1.66    1.59
   4   0   6  104.75    6.58
   4   0   6   97.19    6.46
   4   1 -13    5.32    1.86
   4   1 -12    1.65    2.08
   4   1 -12    1.97    1.55
   4   1 -11   99.04    6.11
   4   1 -11   79.02    6.86
   4   1 -11  104.93    6.51
   4   1 -11   89.23    5.65
   4   1 -11   70.18    6.04
   4   1 -11   70.96    5.48
   4   1 -10  103.57    6.87
   4   1 -10  102.35    7.19
   4   1 -10   98.99    6.66
   4   1 -10   90.78    7.06
   4   1 -10   89.21    6.42
   4   1  -9   39.88    3.70
   4   1  -9   35.88    3.98
   4   1  -9   40.84    3.82
   4   1  -9   40.41    4.30
   4   1  -9   49.49    3.82
   4   1  -9   29.97    3.37
   4   1  -8    2.61    1.63
   4   1  -8    3.81    2.58
   4   1  -8    5.15    1.91
   4   1  -8    3.27    1.90
   4   1  -8    5.70    1.60
   4   1  -8    3.38    1.55
   4   1  -7   54.88    3.70
   4   1  -7   49.34    3.89
   4   1  -7   57.77    5.18
   4   1  -7   57.77    4.47
   4   1  -7   54.89    4.42
   4   1  -7   62.12    4.34
   4   1  -7   50.68    3.62
   4   1  -6  272.78   13.52
   4   1  -6  254.72   13.43
   4   1  -6  274.66   14.52
   4   1  -6  276.66   14.02
   4   1  -6  285.97   13.97
   4   1  -6  274.14   14.02
   4   1  -6  262.67   13.49
   4   1  -6  262.39   13.30
   4   1  -5  398.04   19.19
   4   1  -5  389.11   18.79
   4   1  -5  396.92   20.03
   4   1  -5  384.16   19.53
   4   1  -5  425.13   19.55
   4   1  -5  378.06   19.37
   4   1  -5  394.95   19.22
   4   1  -5  407.61   19.11
   4   1  -4  126.22    6.95
   4   1  -4  134.79    7.68
   4   1  -4  123.93    6.83
   4   1  -4  120.17    7.19
   4   1  -4  135.73    7.20
   4   1  -4  125.42    6.97
   4   1  -4  122.48    6.94
   4   1  -4  125.90    6.87
   4   1  -3  116.57    6.22
   4   1  -3  108.20    6.64
   4   1  -3  109.34    6.25
   4   1  -3  103.20    5.71
   4   1  -3  106.32    6.24
   4   1  -3  105.58    6.03
   4   1  -3  110.50    6.20
   4   1  -3  117.44    6.18
   4   1  -2    6.11    1.80
   4   1  -2    5.13    1.27
   4   1  -2    7.51    1.51
   4   1  -2    9.81    1.43
   4   1  -1    1.64    1.66
   4   1  -1    2.95    1.04
   4   1  -1    2.69    1.11
   4   1   0  856.88   40.38
   4   1   0  854.02   40.14
   4   1   1  128.62    7.11
   4   1   1  115.94    6.83
   4   1   2   13.27    1.90
   4   1   3  115.30    6.99
   4   1   4  237.58   12.72
   4   1   5  104.70    6.61
   4   2 -13    2.05    1.19
   4   2 -12   -1.11    1.55
   4   2 -12   -0.27    1.14
   4   2 -11   37.47    4.84
   4   2 -11   51.95    4.55
   4   2 -11   51.73    4.12
   4   2 -11   32.56    3.91
   4   2 -11   53.21    3.90
   4   2 -10   99.52    6.70
   4   2 -10   85.70    7.65
   4   2 -10  106.66    6.89
   4   2 -10   81.92    6.66
   4   2  -9   29.65    3.24
   4   2  -9   24.69    3.99
   4   2  -9   30.28    3.39
   4   2  -9   22.93    3.25
   4   2  -9   31.60    3.12
   4   2  -8    5.34    1.33
   4   2  -8    6.91    1.87
   4   2  -8    2.42    2.49
   4   2  -8    5.42    1.83
   4   2  -8    4.94    1.98
   4   2  -8    6.43    1.70
   4   2  -8    4.46    1.33
   4   2  -7   57.05    4.21
   4   2  -7   55.75    5.19
   4   2  -7   66.48    4.86
   4   2  -7   57.33    4.55
   4   2  -7   70.75    4.81
   4   2  -7   60.99    4.32
   4   2  -7   68.14    4.20
   4   2  -6   11.68    1.79
   4   2  -6   10.60    2.54
   4   2  -6    8.64    1.88
   4   2  -6   12.52    1.96
   4   2  -6   11.26    1.89
   4   2  -6   10.93    1.81
   4   2  -6   12.07    1.62
   4   2  -5   39.14    3.04
   4   2  -5   39.32    3.60
   4   2  -5   35.25    3.03
   4   2  -5   35.53    2.66
   4   2  -5   31.94    2.90
   4   2  -5   36.67    2.89
   4   2  -4   17.18    2.00
   4   2  -4   16.05    2.44
   4   2  -4   18.74    2.04
   4   2  -4   17.58    1.90
   4   2  -3   81.68    4.95
   4   2  -3   85.03    5.23
   4   2  -3   74.08    4.77
   4   2  -3   76.41    5.05
   4   2  -3   79.96    4.98
   4   2  -3   76.56    4.92
   4   2  -3   77.56    4.83
   4   2  -2   51.39    3.82
   4   2  -2   47.02    3.25
   4   2  -2   48.18    3.64
   4   2  -2   50.49    3.58
   4   2  -2   49.76    3.56
   4   2  -2   46.95    3.48
   4   2  -2   48.95    3.55
   4   2  -1    8.48    1.75
   4   2  -1    9.98    1.68
   4   2  -1   11.70    1.65
   4   2   0  288.59   15.25
   4   2   0  316.79   15.27
   4   2   1   35.87    3.28
   4   2   1   36.75    3.07
   4   2   2  185.48   10.12
   4   2   3   60.64    4.37
   4   2   4   37.83    3.22
   4   2   4   31.46    3.15
   4   2   5    1.14    1.06
   4   3 -13    1.31    1.57
   4   3 -12    0.69    2.08
   4   3 -12   -0.31    1.20
   4   3 -11   -1.10    2.47
   4   3 -11    0.22    1.64
   4   3 -11    0.20    1.49
   4   3 -11    1.65    1.16
   4   3 -10    2.96    2.74
   4   3 -10    2.63    1.94
   4   3 -10   -0.44    1.65
   4   3 -10    0.39    1.55
   4   3 -10    2.68    1.45
   4   3  -9   39.65    3.32
   4   3  -9   40.04    4.92
   4   3  -9   45.85    4.30
   4   3  -9   46.29    4.27
   4   3  -9   37.22    3.73
   4   3  -9   53.16    4.17
   4   3  -9   38.09    3.37
   4   3  -8  145.40    8.43
   4   3  -8  140.85    9.52
   4   3  -8  162.52    9.25
   4   3  -8  148.24    8.90
   4   3  -8  136.90    8.36
   4   3  -8  151.09    8.24
   4   3  -7    0.73    0.98
   4   3  -7    4.20    1.57
   4   3  -7    1.17    2.20
   4   3  -7    1.01    1.51
   4   3  -7    2.65    1.39
   4   3  -7    0.49    1.41
   4   3  -6    0.14    1.02
   4   3  -6    1.86    1.31
   4   3  -6    0.40    1.86
   4   3  -6    0.33    0.87
   4   3  -6    2.05    1.39
   4   3  -5  132.13    7.80
   4   3  -5  143.54    8.23
   4   3  -5  136.48    8.01
   4   3  -5  140.60    7.98
   4   3  -5  129.71    7.46
   4   3  -5  139.86    7.91
   4   3  -5  137.38    7.75
   4   3  -4    1.85    1.23
   4   3  -4    3.83    1.69
   4   3  -4    0.31    1.30
   4   3  -4    1.59    1.24
   4   3  -4    0.29    1.25
   4   3  -4    0.54    1.05
   4   3  -3    6.60    1.51
   4   3  -3    4.04    1.59
   4   3  -3    6.78    1.56
   4   3  -3    6.05    1.40
   4   3  -3    6.86    1.48
   4   3  -3    7.33    1.47
   4   3  -2    3.82    1.57
   4   3  -2    3.65    1.43
   4   3  -2    2.82    1.23
   4   3  -1    2.36    1.40
   4   3  -1    2.74    1.42
   4   3  -1    0.98    1.21
   4   3  -1    1.36    1.04
   4   3  -1    0.90    1.19
   4   3  -1    0.87    1.21
   4   3   0    9.41    1.79
   4   3   0    7.91    1.48
   4   3   0    7.42    1.68
   4   3   1   13.41    2.03
   4   3   1   14.39    1.92
   4   3   1   14.31    2.06
   4   3   2   39.81    3.29
   4   3   2   43.98    3.60
   4   3   3   13.57    1.84
   4   3   3   14.20    2.11
   4   3   4   56.84    4.21
   4   4 -12    2.51    2.02
   4   4 -12    0.52    1.39
   4   4 -12    0.32    1.30
   4   4 -11    4.58    2.51
   4   4 -11    7.14    2.04
   4   4 -11    7.59    2.01
   4   4 -11    5.59    1.53
   4   4 -10  126.21    8.11
   4   4 -10  129.00    8.09
   4   4 -10  152.73    8.22
   4   4  -9  282.73   14.78
   4   4  -9  295.98   15.58
   4   4  -9  304.13   15.64
   4   4  -9  312.28   15.55
   4   4  -9  273.19   14.76
   4   4  -8    5.19    1.39
   4   4  -8    2.90    1.49
   4   4  -8    2.58    2.48
   4   4  -8    3.00    1.58
   4   4  -8    1.66    1.42
   4   4  -7   -0.50    1.19
   4   4  -7   -0.36    1.43
   4   4  -7   -1.61    2.07
   4   4  -7    1.07    1.60
   4   4  -7   -0.37    1.35
   4   4  -6  169.07    9.80
   4   4  -6  179.66   10.12
   4   4  -6  177.51   10.03
   4   4  -6  183.13   10.00
   4   4  -6  161.49    9.22
   4   4  -6  167.38    9.79
   4   4  -6  177.04    9.70
   4   4  -5   28.25    3.00
   4   4  -5   27.92    3.06
   4   4  -5   30.65    3.18
   4   4  -5   30.93    2.98
   4   4  -5   29.33    2.76
   4   4  -5   32.02    3.13
   4   4  -5   31.03    2.93
   4   4  -4    1.30    1.36
   4   4  -4   -0.45    1.43
   4   4  -4    0.83    1.38
   4   4  -4   -0.87    1.22
   4   4  -4    0.47    1.08
   4   4  -4    0.66    1.34
   4   4  -4   -0.31    1.14
   4   4  -3  273.07   14.14
   4   4  -3  273.08   14.05
   4   4  -2  181.55   10.20
   4   4  -2  183.32   10.06
   4   4  -2  189.11   10.05
   4   4  -2  182.69   10.24
   4   4  -2  189.51   10.19
   4   4  -1    0.33    1.24
   4   4  -1   -0.44    1.27
   4   4  -1   -0.14    1.00
   4   4  -1   -1.01    1.30
   4   4  -1   -0.16    1.17
   4   4   0   67.90    4.74
   4   4   0   60.10    4.39
   4   4   0   58.81    4.29
   4   4   0   69.57    4.80
   4   4   0   63.55    4.61
   4   4   1  601.70   29.89
   4   4   1  581.26   29.45
   4   4   1  620.83   29.54
   4   4   1  620.42   29.99
   4   4   1  665.20   30.00
   4   4   2   32.33    3.08
   4   4   2   25.81    2.87
   4   4   2   30.52    2.93
   4   4   3  191.24   10.25
   4   4   3  174.41   10.11
   4   4   3  185.72   10.15
   4   4   4    5.01    1.46
   4   5 -12    0.35    1.58
   4   5 -12    0.76    1.24
   4   5 -12    1.68    1.35
   4   5 -11    1.32    1.90
   4   5 -11   -0.19    1.49
   4   5 -11    1.17    1.55
   4   5 -10   42.44    3.54
   4   5 -10   42.08    4.01
   4   5 -10   36.88    4.19
   4   5 -10   40.78    3.59
   4   5  -9   71.28    5.03
   4   5  -9   59.62    5.58
   4   5  -9   71.74    5.45
   4   5  -9   68.47    5.00
   4   5  -9   72.25    4.86
   4   5  -8    4.15    1.52
   4   5  -8    8.48    1.94
   4   5  -8    3.32    2.15
   4   5  -8    4.59    1.97
   4   5  -8    5.84    2.29
   4   5  -8    6.16    1.75
   4   5  -8    4.61    1.87
   4   5  -7   42.70    3.99
   4   5  -7   43.67    4.33
   4   5  -7   53.30    4.52
   4   5  -7   53.94    4.31
   4   5  -7   41.15    3.45
   4   5  -7   51.19    4.19
   4   5  -7   51.24    4.08
   4   5  -6   20.08    2.60
   4   5  -6   19.61    2.68
   4   5  -6   16.16    2.71
   4   5  -6   22.31    2.98
   4   5  -6   21.99    2.46
   4   5  -6   18.38    2.59
   4   5  -6   20.56    2.73
   4   5  -5  187.66   10.50
   4   5  -5  182.91   10.47
   4   5  -5  191.54   10.39
   4   5  -5  172.23    9.69
   4   5  -5  183.88   10.14
   4   5  -5  183.21   10.47
   4   5  -5  185.50   10.36
   4   5  -4   55.48    4.36
   4   5  -4   52.24    4.10
   4   5  -4   56.80    4.29
   4   5  -4   52.97    4.24
   4   5  -3    0.18    1.39
   4   5  -3    1.98    1.37
   4   5  -3    0.53    1.29
   4   5  -3    0.64    1.07
   4   5  -3   -0.18    1.36
   4   5  -3    0.89    1.49
   4   5  -2  119.13    7.69
   4   5  -2  135.51    7.66
   4   5  -2  125.31    7.49
   4   5  -2  131.27    7.88
   4   5  -2  138.29    7.91
   4   5  -1    4.54    1.61
   4   5  -1    5.04    1.55
   4   5  -1    3.68    1.22
   4   5  -1    3.51    1.60
   4   5  -1    5.07    1.60
   4   5   0    0.18    1.26
   4   5   0    1.13    1.04
   4   5   0    0.19    1.41
   4   5   0    0.55    1.16
   4   5   1   39.75    3.59
   4   5   1   39.50    3.61
   4   5   1   44.50    3.65
   4   5   2  434.68   21.73
   4   5   2  428.46   21.73
   4   5   2  449.76   21.80
   4   5   3    2.79    1.49
   4   5   3    2.42    1.37
   4   5   4    2.08    1.75
   4   5   4    3.31    1.25
   4   6 -12    0.14    1.15
   4   6 -11    4.34    1.47
   4   6 -10    0.16    1.25
   4   6 -10   -0.96    1.76
   4   6 -10    0.18    1.37
   4   6 -10    1.04    1.78
   4   6 -10   -0.39    1.22
   4   6 -10   -1.34    1.29
   4   6  -9   35.95    3.51
   4   6  -9   37.65    3.61
   4   6  -9   38.03    3.89
   4   6  -9   46.14    3.92
   4   6  -9   37.39    3.59
   4   6  -9   39.64    3.41
   4   6  -8  134.14    8.64
   4   6  -8  140.25    8.49
   4   6  -8  148.16    9.16
   4   6  -8  154.11    8.96
   4   6  -8  140.66    8.77
   4   6  -8  151.89    8.72
   4   6  -7  132.38    7.96
   4   6  -7  119.52    7.35
   4   6  -7  124.10    7.92
   4   6  -7  122.25    7.75
   4   6  -7  125.29    7.26
   4   6  -7  128.28    7.95
   4   6  -7  106.06    7.07
   4   6  -7  117.88    7.59
   4   6  -6   17.10    2.48
   4   6  -6   17.00    2.69
   4   6  -6   17.02    2.63
   4   6  -6   15.86    2.36
   4   6  -6   20.10    2.53
   4   6  -6   21.02    2.90
   4   6  -5  184.50   10.34
   4   6  -5  176.68    9.75
   4   6  -5  176.57   10.14
   4   6  -5  177.55   10.20
   4   6  -5  180.63   10.38
   4   6  -4   81.99    5.68
   4   6  -4   73.23    5.27
   4   6  -4   78.92    5.26
   4   6  -4   72.17    5.06
   4   6  -4   76.00    5.46
   4   6  -4   68.48    5.44
   4   6  -3   32.89    3.30
   4   6  -3   30.22    2.94
   4   6  -3   26.31    2.77
   4   6  -3   27.38    3.11
   4   6  -3   23.38    2.76
   4   6  -3   26.58    3.09
   4   6  -3   30.48    3.17
   4   6  -2    9.01    2.03
   4   6  -2    7.96    1.74
   4   6  -2    8.80    1.62
   4   6  -2    9.37    2.03
   4   6  -2   12.54    2.11
   4   6  -1  126.41    7.69
   4   6  -1  116.99    7.73
   4   6  -1  121.04    7.65
   4   6  -1  123.12    7.59
   4   6   0    2.41    1.50
   4   6   0    1.04    1.58
   4   6   0    1.64    1.49
   4   6   0    0.57    1.46
   4   6   0    0.75    1.30
   4   6   1   44.15    3.62
   4   6   1   43.33    3.87
   4   6   1   44.75    3.95
   4   6   1   45.97    3.72
   4   6   1   37.86    3.52
   4   6   2  302.16   15.52
   4   6   2  301.12   15.45
   4   6   2  280.22   15.32
   4   6   3   19.92    3.10
   4   6   3   29.72    2.84
   4   6   3   24.82    2.63
   4   6   4    2.38    1.41
   4   7 -11   17.99    2.31
   4   7 -10    1.57    1.20
   4   7 -10    2.21    1.53
   4   7 -10    3.20    1.37
   4   7  -9   48.02    4.01
   4   7  -9   49.32    4.25
   4   7  -9   47.70    3.99
   4   7  -9   50.25    4.13
   4   7  -9   46.46    3.78
   4   7  -8  319.13   17.12
   4   7  -8  316.33   17.18
   4   7  -8  343.18   17.20
   4   7  -8  307.13   17.08
   4   7  -8  353.59   17.17
   4   7  -7   11.42    2.07
   4   7  -7    8.25    2.07
   4   7  -7    6.50    1.99
   4   7  -7    7.36    1.79
   4   7  -7   10.27    1.99
   4   7  -7    8.17    2.11
   4   7  -7    6.37    1.76
   4   7  -6   77.51    5.65
   4   7  -6   82.82    5.59
   4   7  -6   78.28    5.52
   4   7  -6   70.82    5.45
   4   7  -6   84.80    5.82
   4   7  -5    5.94    1.88
   4   7  -5    7.00    1.93
   4   7  -5   11.64    2.22
   4   7  -5    4.15    1.32
   4   7  -5    7.72    1.69
   4   7  -5    5.59    2.16
   4   7  -4   62.37    5.03
   4   7  -4   59.48    4.60
   4   7  -4   71.16    4.83
   4   7  -4   67.15    4.67
   4   7  -4   58.36    4.95
   4   7  -4   66.77    5.18
   4   7  -4   67.21    5.11
   4   7  -3   17.30    2.52
   4   7  -3   19.62    2.70
   4   7  -3   15.78    2.65
   4   7  -3   15.74    2.34
   4   7  -3   20.61    2.80
   4   7  -2   17.28    2.51
   4   7  -2   14.63    2.61
   4   7  -2   18.99    2.57
   4   7  -2   16.57    2.52
   4   7  -2   19.29    2.60
   4   7  -1    5.30    1.72
   4   7  -1    2.81    1.69
   4   7  -1    3.93    1.63
   4   7  -1    3.47    1.74
   4   7  -1    6.38    1.73
   4   7   0   40.25    3.58
   4   7   0   42.65    3.82
   4   7   0   37.86    3.84
   4   7   0   43.56    3.69
   4   7   0   48.26    3.76
   4   7   1    7.10    1.88
   4   7   1    4.42    1.53
   4   7   1    8.74    2.10
   4   7   2   31.56    3.74
   4   7   2   41.80    3.46
   4   7   2   36.41    3.33
   4   7   3   23.29    2.60
   4   8 -10   27.53    2.64
   4   8 -10   29.95    2.79
   4   8 -10   27.48    2.66
   4   8  -9    3.02    1.44
   4   8  -9    2.00    1.41
   4   8  -9    2.57    1.48
   4   8  -8    0.90    1.23
   4   8  -8    0.19    1.24
   4   8  -8    2.46    1.58
   4   8  -8    0.80    1.09
   4   8  -8    0.39    1.36
   4   8  -7    0.20    1.21
   4   8  -7    0.88    1.32
   4   8  -7   -0.66    1.23
   4   8  -7    0.86    1.10
   4   8  -7    1.27    1.29
   4   8  -6    1.05    1.48
   4   8  -6   -0.84    1.35
   4   8  -6   -0.75    1.42
   4   8  -6    1.93    1.62
   4   8  -6    3.03    1.69
   4   8  -5    9.00    1.91
   4   8  -5    6.76    1.88
   4   8  -5    9.13    2.13
   4   8  -5    7.55    1.57
   4   8  -5    8.81    2.10
   4   8  -5    8.59    2.13
   4   8  -5    6.98    1.76
   4   8  -4    1.66    1.40
   4   8  -4    0.83    1.48
   4   8  -4    0.77    1.64
   4   8  -4    2.11    1.71
   4   8  -4    4.07    1.44
   4   8  -4    3.16    1.73
   4   8  -4    1.56    1.83
   4   8  -4    3.50    1.68
   4   8  -3    8.06    1.96
   4   8  -3    6.16    1.79
   4   8  -3    4.28    1.99
   4   8  -3    8.15    1.78
   4   8  -3    4.85    1.86
   4   8  -3    7.06    2.36
   4   8  -2    6.64    1.70
   4   8  -2    7.57    1.83
   4   8  -2    3.85    2.09
   4   8  -2    4.24    1.78
   4   8  -2    4.90    1.66
   4   8  -2    7.32    1.91
   4   8  -2    7.63    2.33
   4   8  -1    5.12    1.48
   4   8  -1    3.73    1.45
   4   8  -1    0.68    1.88
   4   8  -1    3.42    1.74
   4   8  -1    1.16    1.24
   4   8  -1    3.96    1.49
   4   8  -1    4.87    1.95
   4   8   0   -1.31    1.89
   4   8   0    1.45    1.38
   4   8   0   -1.28    1.32
   4   8   0   -1.69    1.60
   4   8   1   -0.99    1.74
   4   8   1    1.64    1.23
   4   8   1   -0.46    1.28
   4   8   1   -0.18    1.58
   4   8   2    1.02    1.28
   4   9  -9   17.15    2.08
   4   9  -9   16.95    1.92
   4   9  -9   21.00    2.25
   4   9  -7  241.47   12.18
   4   9  -7  227.85   11.77
   4   9  -7  230.51   12.12
   4   9  -7  204.02   11.51
   4   9  -6  100.59    6.54
   4   9  -6  107.92    6.53
   4   9  -6  110.27    6.73
   4   9  -6   97.92    6.38
   4   9  -6  100.91    6.49
   4   9  -5    4.02    1.48
   4   9  -5    5.96    1.68
   4   9  -5    4.36    1.76
   4   9  -5    3.16    1.13
   4   9  -5    5.69    1.71
   4   9  -5    5.19    1.87
   4   9  -4    1.44    1.24
   4   9  -4    1.92    1.40
   4   9  -4    1.14    1.43
   4   9  -4   -0.38    1.45
   4   9  -4    0.31    1.12
   4   9  -4    1.24    1.35
   4   9  -4    0.79    1.63
   4   9  -4    3.20    1.51
   4   9  -3   79.38    5.07
   4   9  -3   58.56    4.99
   4   9  -3   74.98    5.01
   4   9  -3   77.25    5.07
   4   9  -3   74.35    5.18
   4   9  -2    0.57    1.72
   4   9  -2    0.54    1.48
   4   9  -2   -0.34    1.16
   4   9  -2   -0.19    1.57
   4   9  -2   -0.54    1.54
   4   9  -1   -1.11    1.67
   4   9  -1    1.45    1.35
   4   9  -1   -0.34    1.49
   4   9  -1   -1.38    1.55
   4   9   0    9.49    1.63
   4   9   0   10.22    1.78
   4   9   1    0.13    1.10
   4  10  -6   14.37    1.88
   4  10  -6   12.87    1.85
   4  10  -5    3.86    1.35
   4  10  -5    3.17    1.40
   4  10  -4   -0.76    1.34
   4  10  -4    0.35    1.02
   4  10  -3    8.83    1.71
   4  10  -3    7.73    1.59
   4  10  -2   11.07    1.81
   4  10  -2    9.92    1.70
   5 -11  -3   15.07    2.03
   5 -11  -3   13.60    2.03
   5 -11  -2    1.79    1.40
   5 -11  -2    1.52    1.29
   5 -11  -2   -0.79    1.43
   5 -11  -1    2.41    1.47
   5 -11  -1    1.17    1.36
   5 -11  -1    0.84    1.55
   5 -11   0   45.67    3.77
   5 -11   0   38.69    3.39
   5 -11   1   28.30    2.85
   5 -11   1   20.23    2.43
   5 -11   2    4.99    1.67
   5 -11   2    3.29    1.38
   5 -11   3    7.60    1.79
   5 -11   4    9.48    1.81
   5 -10  -5    0.15    1.25
   5 -10  -4    2.51    1.57
   5 -10  -4    1.35    1.35
   5 -10  -4    0.18    1.58
   5 -10  -3   19.48    2.53
   5 -10  -3   19.85    2.90
   5 -10  -2    1.30    1.21
   5 -10  -2   -1.59    1.55
   5 -10  -2    0.21    1.78
   5 -10  -1   19.14    2.55
   5 -10  -1   20.17    2.66
   5 -10  -1   21.96    2.64
   5 -10   0   31.26    3.14
   5 -10   0   24.32    2.94
   5 -10   0   25.02    2.87
   5 -10   1   10.22    2.02
   5 -10   1    9.79    2.03
   5 -10   1    8.14    2.01
   5 -10   2   17.37    2.40
   5 -10   2   18.21    2.46
   5 -10   2   16.74    2.45
   5 -10   3   26.57    2.74
   5 -10   3   26.19    2.95
   5 -10   4   28.40    2.94
   5 -10   5    3.38    1.37
   5  -9  -7    1.97    1.30
   5  -9  -6   -0.54    1.57
   5  -9  -5   14.83    2.32
   5  -9  -5   16.71    2.39
   5  -9  -5   17.58    2.74
   5  -9  -4   14.08    2.20
   5  -9  -4   13.47    2.32
   5  -9  -4   12.21    2.34
   5  -9  -4   12.58    2.62
   5  -9  -3    1.60    1.68
   5  -9  -3   -0.21    1.29
   5  -9  -3    0.19    1.57
   5  -9  -3    1.44    1.68
   5  -9  -3    0.24    2.05
   5  -9  -2    5.63    2.09
   5  -9  -2    2.62    1.42
   5  -9  -2    4.28    1.97
   5  -9  -2    0.64    1.73
   5  -9  -1    2.14    1.81
   5  -9  -1    2.44    1.46
   5  -9  -1    1.93    1.68
   5  -9  -1    1.54    1.80
   5  -9   0   58.43    4.66
   5  -9   0   59.91    4.96
   5  -9   0   48.16    4.23
   5  -9   0   51.32    4.68
   5  -9   1   52.71    4.42
   5  -9   1   49.94    4.54
   5  -9   1   47.97    4.16
   5  -9   1   53.05    4.57
   5  -9   2   40.62    4.04
   5  -9   2   32.33    3.41
   5  -9   2   33.62    3.86
   5  -9   3    1.14    1.74
   5  -9   3    1.08    1.43
   5  -9   3    0.17    1.52
   5  -9   3    1.10    1.81
   5  -9   4    3.89    1.97
   5  -9   4    4.91    1.68
   5  -9   4    2.73    2.00
   5  -9   5    3.73    1.67
   5  -9   5    4.76    1.93
   5  -9   6    4.66    1.60
   5  -9   6    5.46    1.69
   5  -9   7    7.13    1.44
   5  -8  -8    0.14    1.14
   5  -8  -8   -0.75    1.40
   5  -8  -7    0.18    1.45
   5  -8  -7   -1.94    1.53
   5  -8  -6   12.10    2.34
   5  -8  -6    8.66    2.27
   5  -8  -5    2.04    1.72
   5  -8  -5    3.88    1.60
   5  -8  -5    0.77    1.68
   5  -8  -5    6.69    2.21
   5  -8  -4    1.65    1.68
   5  -8  -4    0.45    1.30
   5  -8  -4    0.20    1.64
   5  -8  -4   -0.24    1.92
   5  -8  -3  116.55    7.51
   5  -8  -3  112.72    7.64
   5  -8  -3  116.70    7.31
   5  -8  -3  108.79    7.68
   5  -8  -2  125.99    8.02
   5  -8  -2  125.93    8.19
   5  -8  -2  118.43    7.61
   5  -8  -2  129.19    8.37
   5  -8  -1    2.86    2.02
   5  -8  -1    0.69    1.51
   5  -8  -1    2.80    1.63
   5  -8  -1    3.46    2.11
   5  -8   0   30.39    3.45
   5  -8   0   31.52    3.41
   5  -8   0   27.40    3.07
   5  -8   0   26.68    3.55
   5  -8   1  108.48    7.22
   5  -8   1  103.41    7.32
   5  -8   1  104.70    6.71
   5  -8   1  110.01    7.57
   5  -8   2   34.65    3.46
   5  -8   2   32.19    3.58
   5  -8   2   23.92    2.94
   5  -8   2   30.94    3.75
   5  -8   3    0.92    1.53
   5  -8   3    1.19    1.73
   5  -8   3    1.95    1.91
   5  -8   3    0.75    1.93
   5  -8   4  179.27   10.10
   5  -8   4  147.77    9.31
   5  -8   4  159.09    9.94
   5  -8   5  139.23    7.89
   5  -8   5  125.64    7.89
   5  -8   6    0.57    1.39
   5  -8   6   -0.17    1.56
   5  -8   6    0.20    1.78
   5  -8   7    1.20    1.31
   5  -8   7    0.80    1.42
   5  -7  -9    1.33    1.17
   5  -7  -9    0.44    1.30
   5  -7  -8    1.06    1.38
   5  -7  -8   -2.76    1.80
   5  -7  -8    1.15    1.77
   5  -7  -7    5.02    1.92
   5  -7  -7    3.77    2.07
   5  -7  -7    5.18    2.22
   5  -7  -6   43.53    4.14
   5  -7  -6   37.95    4.27
   5  -7  -6   40.01    4.24
   5  -7  -5   11.45    2.39
   5  -7  -5    9.00    2.27
   5  -7  -5    7.52    2.48
   5  -7  -5    4.21    2.30
   5  -7  -4    4.19    2.05
   5  -7  -4    1.92    1.71
   5  -7  -4    4.12    2.28
   5  -7  -3   44.21    4.31
   5  -7  -3   48.58    4.10
   5  -7  -2   23.74    3.05
   5  -7  -2   23.46    2.80
   5  -7  -2   26.77    3.50
   5  -7  -1    4.27    1.89
   5  -7  -1    6.00    1.74
   5  -7  -1    6.28    2.36
   5  -7   0   32.95    3.58
   5  -7   0   25.84    3.22
   5  -7   1  128.86    8.35
   5  -7   1  128.30    8.09
   5  -7   1  135.74    8.74
   5  -7   2   20.28    2.69
   5  -7   2   21.18    3.04
   5  -7   2   14.21    2.75
   5  -7   2   10.38    2.95
   5  -7   2   12.74    1.86
   5  -7   3   76.09    5.43
   5  -7   3   66.30    5.38
   5  -7   3   56.02    5.15
   5  -7   3   65.29    5.71
   5  -7   4    0.23    1.49
   5  -7   4   -0.24    1.74
   5  -7   4    3.71    2.37
   5  -7   5   39.10    3.80
   5  -7   5   43.09    4.16
   5  -7   5   39.04    4.31
   5  -7   6   -0.81    1.41
   5  -7   6    0.81    1.63
   5  -7   6    2.99    2.16
   5  -7   7    0.17    1.30
   5  -7   7    0.57    1.57
   5  -6  -9    4.14    1.58
   5  -6  -9    5.47    2.02
   5  -6  -9    4.04    1.78
   5  -6  -8    1.82    1.59
   5  -6  -8    4.65    1.54
   5  -6  -8   -0.74    1.97
   5  -6  -8   -0.22    1.79
   5  -6  -7    1.34    1.78
   5  -6  -7    7.95    1.93
   5  -6  -7    2.95    2.21
   5  -6  -7    2.41    2.19
   5  -6  -6    0.23    1.75
   5  -6  -6   -0.45    1.37
   5  -6  -6    1.36    2.35
   5  -6  -6    0.25    2.07
   5  -6  -5    3.61    1.99
   5  -6  -5   -0.22    1.40
   5  -6  -5    0.73    1.50
   5  -6  -5    2.64    2.27
   5  -6  -5    2.40    1.90
   5  -6  -4   35.17    3.62
   5  -6  -4   32.37    3.46
   5  -6  -4   32.62    3.40
   5  -6  -4   38.58    4.16
   5  -6  -3   98.77    6.85
   5  -6  -3  102.42    6.96
   5  -6  -3  105.40    6.79
   5  -6  -3  114.06    7.49
   5  -6  -2   35.15    3.35
   5  -6  -2   31.06    3.35
   5  -6  -2   27.04    3.23
   5  -6  -2   25.98    3.57
   5  -6  -1  115.82    7.15
   5  -6  -1  107.45    7.00
   5  -6  -1  105.59    7.00
   5  -6  -1  102.66    7.33
   5  -6   0   -0.41    1.57
   5  -6   0    2.25    1.75
   5  -6   0   -0.21    1.89
   5  -6   0    1.45    2.02
   5  -6   1  115.71    7.28
   5  -6   1  103.78    7.11
   5  -6   1  111.31    7.39
   5  -6   1  103.93    6.50
   5  -6   1  122.65    7.79
   5  -6   2   13.49    2.41
   5  -6   2   15.07    2.59
   5  -6   2   12.42    2.78
   5  -6   2   13.60    2.77
   5  -6   3   69.31    5.22
   5  -6   3   62.41    5.15
   5  -6   3   56.42    5.39
   5  -6   4    3.02    1.62
   5  -6   4   -0.70    1.70
   5  -6   4    1.37    2.15
   5  -6   5    1.14    1.47
   5  -6   5    1.37    1.61
   5  -6   5    2.70    2.34
   5  -6   6   65.40    4.83
   5  -6   6   52.98    4.67
   5  -6   7   -0.52    1.44
   5  -6   8    2.37    1.15
   5  -5 -10    4.04    1.78
   5  -5 -10    3.47    1.65
   5  -5  -9   14.39    2.31
   5  -5  -9   13.68    2.89
   5  -5  -9   13.13    2.54
   5  -5  -8   12.14    2.33
   5  -5  -8   10.55    2.08
   5  -5  -8   11.20    2.83
   5  -5  -8    8.44    2.53
   5  -5  -7    2.22    1.86
   5  -5  -7    1.15    1.97
   5  -5  -7   -0.44    1.39
   5  -5  -7   -0.28    2.29
   5  -5  -7   -0.48    2.09
   5  -5  -6   -0.22    1.69
   5  -5  -6    0.46    2.03
   5  -5  -6    1.95    1.56
   5  -5  -6    0.81    2.23
   5  -5  -6    3.29    2.23
   5  -5  -5  138.86    8.07
   5  -5  -5  126.84    7.95
   5  -5  -5  117.97    7.94
   5  -5  -5  118.54    8.30
   5  -5  -5  125.56    8.13
   5  -5  -4   40.03    3.62
   5  -5  -4   42.69    3.72
   5  -5  -4   34.06    3.76
   5  -5  -4   31.23    3.84
   5  -5  -3    2.95    1.57
   5  -5  -3    3.39    1.59
   5  -5  -3    3.44    2.02
   5  -5  -3    2.56    2.11
   5  -5  -2  132.33    7.78
   5  -5  -2  127.73    7.75
   5  -5  -2  127.59    7.90
   5  -5  -2  116.50    8.07
   5  -5  -1  169.76    9.33
   5  -5  -1  158.63    9.18
   5  -5  -1  166.59    9.55
   5  -5  -1  150.62    8.52
   5  -5   0   56.81    4.38
   5  -5   0   56.03    4.38
   5  -5   0   48.57    4.52
   5  -5   0   56.26    3.90
   5  -5   1  144.58    8.55
   5  -5   1  142.95    8.56
   5  -5   1  129.00    8.80
   5  -5   1  148.04    8.21
   5  -5   2  162.61    9.62
   5  -5   2  162.19    9.61
   5  -5   3   22.87    2.87
   5  -5   3   19.18    2.82
   5  -5   4   12.12    2.36
   5  -5   4   10.63    2.51
   5  -5   5    4.12    1.69
   5  -5   5    4.06    2.01
   5  -5   5    3.32    2.37
   5  -5   6   42.07    3.65
   5  -5   6   30.54    3.40
   5  -5   6   31.04    3.97
   5  -5   7    4.66    1.69
   5  -5   7    1.95    1.98
   5  -5   8    0.37    1.04
   5  -5   8    0.16    1.48
   5  -4 -11    5.73    1.77
   5  -4 -11    3.54    1.37
   5  -4 -10    2.28    2.02
   5  -4 -10   -0.56    1.59
   5  -4  -9    4.10    1.76
   5  -4  -9    2.29    2.08
   5  -4  -9    1.10    1.81
   5  -4  -8   -0.21    1.46
   5  -4  -8    1.30    2.15
   5  -4  -8    1.51    1.54
   5  -4  -8    0.94    2.10
   5  -4  -7    6.04    1.91
   5  -4  -7    4.18    2.36
   5  -4  -7    8.11    1.95
   5  -4  -7    7.60    2.42
   5  -4  -6   94.15    6.54
   5  -4  -6   91.07    7.04
   5  -4  -6   93.92    6.73
   5  -4  -5   69.34    4.91
   5  -4  -5   67.12    4.90
   5  -4  -5   58.64    5.29
   5  -4  -5   60.71    4.87
   5  -4  -4   13.27    2.15
   5  -4  -4   14.73    2.86
   5  -4  -4   13.99    2.10
   5  -4  -3  111.97    6.82
   5  -4  -3  119.43    6.86
   5  -4  -3  116.31    7.33
   5  -4  -3  100.62    6.29
   5  -4  -3  107.05    6.19
   5  -4  -3  116.97    7.42
   5  -4  -2  490.93   23.67
   5  -4  -2  482.45   23.55
   5  -4  -2  496.07   24.09
   5  -4  -2  473.29   23.13
   5  -4  -2  452.60   23.19
   5  -4  -2  513.39   24.25
   5  -4  -1  171.42    9.62
   5  -4  -1  168.60    9.51
   5  -4  -1  179.91   10.18
   5  -4  -1  172.00    9.30
   5  -4  -1  172.49   10.08
   5  -4   0   52.42    4.12
   5  -4   0   54.04    4.10
   5  -4   0   56.81    4.82
   5  -4   0   57.41    4.05
   5  -4   0   57.62    4.74
   5  -4   1   15.00    2.17
   5  -4   1   14.05    2.20
   5  -4   1   16.08    2.84
   5  -4   1   15.60    2.08
   5  -4   2  531.59   25.47
   5  -4   2  511.75   25.32
   5  -4   2  491.38   25.96
   5  -4   3   17.27    2.56
   5  -4   3   21.61    2.90
   5  -4   3   17.47    3.24
   5  -4   4   13.56    2.32
   5  -4   4    8.86    2.31
   5  -4   4    9.41    2.83
   5  -4   5   11.68    2.32
   5  -4   5    7.84    2.16
   5  -4   5   11.42    3.03
   5  -4   6   21.78    2.74
   5  -4   6   18.10    2.64
   5  -4   6   18.38    3.30
   5  -4   7    4.13    1.59
   5  -4   7    2.40    2.01
   5  -4   8    1.14    1.50
   5  -3 -11    0.16    1.53
   5  -3 -11    2.78    1.77
   5  -3 -11    3.35    1.57
   5  -3 -10   -0.93    2.03
   5  -3 -10    0.75    1.99
   5  -3 -10   -0.19    1.66
   5  -3  -9   -1.53    1.56
   5  -3  -9   -0.83    2.48
   5  -3  -9    0.77    1.44
   5  -3  -9    0.28    2.17
   5  -3  -9    0.44    1.71
   5  -3  -8    1.37    1.52
   5  -3  -8   -1.71    2.56
   5  -3  -8    0.42    1.26
   5  -3  -8   -1.39    2.29
   5  -3  -8   -0.67    1.80
   5  -3  -7   65.41    4.61
   5  -3  -7   56.80    4.44
   5  -3  -7   56.09    5.13
   5  -3  -7   52.01    4.59
   5  -3  -6    0.35    1.28
   5  -3  -6    1.22    2.14
   5  -3  -6    2.72    1.28
   5  -3  -6    3.85    2.22
   5  -3  -6    0.77    1.72
   5  -3  -5    3.27    1.51
   5  -3  -5    6.48    2.42
   5  -3  -5    4.46    1.34
   5  -3  -5    3.44    1.25
   5  -3  -5    4.86    2.09
   5  -3  -5    4.23    1.07
   5  -3  -5    4.54    1.79
   5  -3  -4  105.98    6.16
   5  -3  -4   93.36    5.93
   5  -3  -4   98.03    6.75
   5  -3  -4   93.11    5.79
   5  -3  -4   94.03    5.66
   5  -3  -4  103.26    6.71
   5  -3  -3  143.30    7.79
   5  -3  -3  132.41    7.55
   5  -3  -3  127.91    8.27
   5  -3  -3  131.78    7.59
   5  -3  -3  140.71    7.55
   5  -3  -3  131.81    8.23
   5  -3  -2   93.49    5.75
   5  -3  -2   90.59    5.60
   5  -3  -2   99.73    6.43
   5  -3  -2   91.80    5.60
   5  -3  -2   91.64    6.24
   5  -3  -1   10.12    1.63
   5  -3  -1    6.76    1.46
   5  -3  -1    8.77    2.31
   5  -3  -1    8.76    2.15
   5  -3  -1    6.12    1.41
   5  -3   0  281.23   14.63
   5  -3   0  279.55   14.46
   5  -3   0  291.86   15.39
   5  -3   0  294.33   14.75
   5  -3   0  286.43   15.20
   5  -3   1  110.20    6.56
   5  -3   1   94.58    6.23
   5  -3   1  115.68    6.69
   5  -3   1  100.62    7.01
   5  -3   2   84.68    5.49
   5  -3   2   72.20    5.24
   5  -3   2   78.13    5.98
   5  -3   3  181.55   10.66
   5  -3   3  177.89   11.32
   5  -3   4  441.78   21.09
   5  -3   4  412.23   20.81
   5  -3   4  366.95   21.33
   5  -3   5   33.82    3.59
   5  -3   5   27.71    3.86
   5  -3   6    5.61    1.64
   5  -3   6    2.44    1.64
   5  -3   6    1.78    2.22
   5  -3   7   18.82    2.32
   5  -3   7   16.85    2.87
   5  -3   8   -1.21    1.46
   5  -2 -12   -0.62    1.42
   5  -2 -11   -0.21    1.90
   5  -2 -11    0.14    1.18
   5  -2 -11   -0.65    1.87
   5  -2 -11    0.94    1.41
   5  -2 -10    7.61    2.77
   5  -2 -10   11.85    2.20
   5  -2 -10    4.92    2.34
   5  -2 -10   11.33    2.25
   5  -2  -9   -2.38    2.74
   5  -2  -9   -0.22    1.69
   5  -2  -9    1.65    2.14
   5  -2  -9    1.65    1.89
   5  -2  -8    6.70    1.75
   5  -2  -8    5.85    2.74
   5  -2  -8    9.98    1.88
   5  -2  -8    6.70    2.62
   5  -2  -8    8.95    2.21
   5  -2  -7   15.25    2.22
   5  -2  -7   20.11    3.52
   5  -2  -7   23.31    2.54
   5  -2  -7   17.17    2.26
   5  -2  -7   16.29    3.05
   5  -2  -7   21.29    2.73
   5  -2  -6    5.43    1.52
   5  -2  -6    5.30    2.45
   5  -2  -6    4.48    1.34
   5  -2  -6    4.75    1.46
   5  -2  -6    4.23    2.07
   5  -2  -6    5.00    1.25
   5  -2  -6    5.39    1.67
   5  -2  -5   13.44    1.84
   5  -2  -5   14.91    2.87
   5  -2  -5   17.88    2.01
   5  -2  -5   16.05    2.16
   5  -2  -5   12.96    2.50
   5  -2  -5   19.52    2.03
   5  -2  -4  565.79   26.38
   5  -2  -4  512.09   26.09
   5  -2  -4  542.91   27.15
   5  -2  -4  557.60   26.51
   5  -2  -4  569.30   26.42
   5  -2  -4  558.04   27.06
   5  -2  -3   21.14    2.13
   5  -2  -3   23.54    3.09
   5  -2  -3   21.90    2.26
   5  -2  -3   21.26    2.36
   5  -2  -3   24.77    2.83
   5  -2  -2    1.57    1.03
   5  -2  -2    3.28    1.93
   5  -2  -2    3.12    1.63
   5  -2  -2    3.27    1.18
   5  -2  -1  113.65    6.61
   5  -2  -1  118.61    6.89
   5  -2  -1  117.81    7.20
   5  -2   0  415.26   20.84
   5  -2   0  447.20   21.25
   5  -2   0  423.63   21.43
   5  -2   1   83.42    5.36
   5  -2   1   86.41    5.67
   5  -2   1   83.60    5.97
   5  -2   2   94.71    5.82
   5  -2   2   81.48    5.47
   5  -2   2   87.95    6.42
   5  -2   3    3.87    1.54
   5  -2   3    2.71    1.50
   5  -2   3   -1.22    1.95
   5  -2   4  124.49    7.90
   5  -2   4  121.40    8.65
   5  -2   5    4.03    1.65
   5  -2   5    2.60    1.56
   5  -2   5    3.14    2.33
   5  -2   6    3.67    1.33
   5  -2   6    1.90    2.10
   5  -2   6    0.41    1.23
   5  -2   7   21.42    2.96
   5  -1 -12   -0.35    1.64
   5  -1 -12   -1.33    1.49
   5  -1 -11    7.90    2.61
   5  -1 -11    8.95    2.02
   5  -1 -11   10.01    2.58
   5  -1 -11    9.71    1.88
   5  -1 -10   17.01    3.67
   5  -1 -10   26.17    3.18
   5  -1 -10   17.75    3.19
   5  -1 -10   23.91    2.83
   5  -1  -9    4.30    2.87
   5  -1  -9    5.59    2.38
   5  -1  -9    4.88    1.81
   5  -1  -8   50.38    5.33
   5  -1  -8   52.45    4.16
   5  -1  -8   52.97    5.05
   5  -1  -8   63.06    4.18
   5  -1  -8   46.63    4.18
   5  -1  -7   13.25    3.20
   5  -1  -7   14.04    1.88
   5  -1  -7   14.00    2.14
   5  -1  -7   10.56    2.54
   5  -1  -7   10.88    1.75
   5  -1  -7    6.70    1.78
   5  -1  -6   62.13    4.27
   5  -1  -6   64.85    5.50
   5  -1  -6   63.92    4.63
   5  -1  -6   64.57    4.43
   5  -1  -6   58.26    4.86
   5  -1  -6   59.09    4.28
   5  -1  -5   12.29    1.61
   5  -1  -5   12.37    1.95
   5  -1  -5   11.80    2.21
   5  -1  -5   14.58    1.91
   5  -1  -5   12.39    1.80
   5  -1  -4   27.21    2.40
   5  -1  -4   30.39    2.38
   5  -1  -4   30.85    2.85
   5  -1  -4   26.95    2.63
   5  -1  -4   32.72    3.13
   5  -1  -4   27.68    2.41
   5  -1  -4   28.46    2.32
   5  -1  -3  204.60   10.88
   5  -1  -3  218.50   11.50
   5  -1  -3  226.59   11.44
   5  -1  -3  226.60   11.68
   5  -1  -3  214.00   11.08
   5  -1  -2   26.22    2.21
   5  -1  -2   33.49    3.37
   5  -1  -2   26.79    2.59
   5  -1  -2   30.19    2.96
   5  -1  -1  580.55   28.68
   5  -1  -1  632.47   29.85
   5  -1  -1  613.26   29.31
   5  -1  -1  633.55   29.46
   5  -1   0  105.58    6.16
   5  -1   0  114.90    7.32
   5  -1   0  115.28    6.77
   5  -1   0  106.35    6.82
   5  -1   1  148.14    8.09
   5  -1   1  147.19    8.75
   5  -1   2    6.70    1.45
   5  -1   2    6.22    2.15
   5  -1   2    7.21    1.74
   5  -1   3  216.41   11.55
   5  -1   3  228.40   12.08
   5  -1   3  197.43   12.06
   5  -1   4    1.60    1.23
   5  -1   4    2.88    2.00
   5  -1   4    2.73    1.40
   5  -1   5    0.94    2.00
   5  -1   5    3.13    1.56
   5  -1   6    1.04    1.74
   5  -1   6    0.75    1.11
   5  -1   7    6.72    1.69
   5   0 -12    2.82    2.01
   5   0 -12    6.46    1.60
   5   0 -12    8.12    1.85
   5   0 -11   12.67    3.09
   5   0 -11   12.16    2.34
   5   0 -11    9.30    2.46
   5   0 -10    3.92    2.81
   5   0 -10    6.53    2.26
   5   0 -10    0.49    1.31
   5   0 -10    5.88    2.27
   5   0  -9   -0.93    2.60
   5   0  -9    0.38    1.50
   5   0  -9   -1.75    1.99
   5   0  -9   -0.17    1.07
   5   0  -8    3.19    1.61
   5   0  -8    6.83    2.29
   5   0  -8    3.85    1.43
   5   0  -7    1.72    1.57
   5   0  -7    1.06    1.68
   5   0  -7    3.36    1.46
   5   0  -6   13.63    2.98
   5   0  -6   18.08    2.46
   5   0  -6   16.36    2.53
   5   0  -6   22.05    2.36
   5   0  -5   38.72    2.98
   5   0  -5   38.49    3.97
   5   0  -5   39.85    3.50
   5   0  -5   46.71    3.45
   5   0  -5   34.33    3.39
   5   0  -5   34.87    2.89
   5   0  -5   37.96    2.82
   5   0  -4    6.51    1.38
   5   0  -4    5.98    2.23
   5   0  -4    5.94    1.69
   5   0  -4    4.07    1.46
   5   0  -4    4.49    1.44
   5   0  -4    4.84    1.35
   5   0  -4    4.71    1.15
   5   0  -3  430.22   21.31
   5   0  -3  421.13   20.88
   5   0  -3  404.56   20.72
   5   0  -3  416.60   20.68
   5   0  -3  427.26   20.61
   5   0  -3  424.87   20.52
   5   0  -3  427.67   20.59
   5   0  -2  315.61   16.16
   5   0  -2  321.57   15.78
   5   0  -2  291.52   15.73
   5   0  -2  309.89   15.60
   5   0  -1    9.61    2.44
   5   0  -1   13.24    2.02
   5   0   0   38.24    4.00
   5   0   0   41.82    3.49
   5   0   0   39.28    3.38
   5   0   1  307.03   16.80
   5   0   1  343.97   16.61
   5   0   1  305.42   16.23
   5   0   2  105.43    6.53
   5   0   2   88.03    6.22
   5   0   3   -1.61    1.70
   5   0   3    0.20    1.31
   5   0   4  138.13    7.77
   5   0   4  101.96    7.33
   5   0   5   38.90    3.43
   5   0   5   27.14    3.29
   5   1 -12   -0.64    2.06
   5   1 -12    1.13    1.36
   5   1 -11   -0.63    1.77
   5   1 -11    0.60    1.13
   5   1 -11    0.99    1.59
   5   1 -10    0.24    1.72
   5   1 -10    2.48    1.61
   5   1 -10    3.12    1.99
   5   1 -10    0.52    1.05
   5   1  -9   10.13    3.49
   5   1  -9   10.14    2.28
   5   1  -9    9.27    2.33
   5   1  -9   14.99    2.22
   5   1  -8   23.07    3.92
   5   1  -8   17.94    2.70
   5   1  -8   14.27    2.67
   5   1  -8   20.61    2.56
   5   1  -7  320.02   17.64
   5   1  -7  330.89   17.12
   5   1  -7  305.16   16.76
   5   1  -7  347.33   17.04
   5   1  -6  181.76    9.71
   5   1  -6  168.69   10.63
   5   1  -6  188.87   10.34
   5   1  -6  196.74   10.25
   5   1  -6  169.16    9.89
   5   1  -6  173.44    9.68
   5   1  -6  184.12    9.61
   5   1  -5    7.80    1.56
   5   1  -5    9.50    2.42
   5   1  -5    8.14    1.92
   5   1  -5    6.94    1.67
   5   1  -5    9.80    1.82
   5   1  -5    7.23    1.51
   5   1  -5    7.64    1.47
   5   1  -4    0.14    1.09
   5   1  -4   -0.39    1.79
   5   1  -4    1.35    1.51
   5   1  -4   -0.26    1.20
   5   1  -4    0.16    1.11
   5   1  -4   -0.43    1.23
   5   1  -4    0.13    0.95
   5   1  -3  251.48   13.17
   5   1  -3  264.30   13.72
   5   1  -3  253.55   13.21
   5   1  -3  252.85   13.11
   5   1  -2   11.46    2.33
   5   1  -2   12.12    2.01
   5   1  -2   10.97    1.77
   5   1  -1   27.61    3.23
   5   1  -1   26.76    2.78
   5   1  -1   31.09    2.96
   5   1   0  617.49   31.99
   5   1   0  701.45   31.98
   5   1   1  263.78   15.26
   5   1   1  312.09   15.29
   5   1   2   35.55    3.88
   5   1   2   43.05    3.67
   5   1   3    0.19    1.09
   5   1   4  117.04    8.65
   5   1   4  183.27    9.07
   5   1   5  107.65    6.24
   5   1   5  117.91    6.42
   5   2 -12    1.27    1.89
   5   2 -12   -1.49    1.43
   5   2 -12    0.35    1.00
   5   2 -11    0.53    2.33
   5   2 -11   -1.02    1.38
   5   2 -10    7.70    3.14
   5   2 -10    9.68    2.20
   5   2 -10    5.34    1.91
   5   2 -10   12.59    1.97
   5   2  -9    0.90    2.49
   5   2  -9   -0.67    1.60
   5   2  -9    2.53    1.80
   5   2  -9    3.54    1.51
   5   2  -8    9.06    1.64
   5   2  -8    7.66    2.82
   5   2  -8    8.11    2.28
   5   2  -8   10.51    2.03
   5   2  -8    7.28    1.57
   5   2  -7    1.26    0.89
   5   2  -7    0.32    1.16
   5   2  -7    1.80    2.54
   5   2  -7    3.01    1.82
   5   2  -7    0.81    1.29
   5   2  -7    0.65    1.38
   5   2  -6  206.08   11.42
   5   2  -6  210.46   12.27
   5   2  -6  207.45   11.89
   5   2  -6  223.16   11.89
   5   2  -6  215.76   11.53
   5   2  -6  221.76   11.42
   5   2  -5   30.54    3.01
   5   2  -5   33.97    3.74
   5   2  -5   39.17    3.38
   5   2  -5   34.93    3.20
   5   2  -5   35.87    3.05
   5   2  -4   35.84    3.22
   5   2  -4   37.96    3.78
   5   2  -4   38.20    3.48
   5   2  -4   37.44    3.27
   5   2  -4   41.08    3.27
   5   2  -3  196.62   10.38
   5   2  -3  189.00   10.64
   5   2  -3  190.03   10.50
   5   2  -3  179.66   10.30
   5   2  -3  186.89   10.32
   5   2  -3  187.10   10.23
   5   2  -2   12.35    2.01
   5   2  -2   11.38    2.23
   5   2  -2   13.26    2.10
   5   2  -2   15.67    2.13
   5   2  -2   10.35    1.95
   5   2  -2   13.49    2.01
   5   2  -1  175.68   10.17
   5   2  -1  183.69   10.08
   5   2  -1  179.61   10.18
   5   2   0   18.27    2.71
   5   2   0   21.02    2.63
   5   2   0   21.65    2.54
   5   2   0   22.70    2.64
   5   2   1   67.89    5.44
   5   2   1   85.24    5.51
   5   2   1   77.80    5.54
   5   2   2   31.87    3.67
   5   2   2   43.27    3.65
   5   2   2   37.96    3.54
   5   2   3  140.82    7.67
   5   2   3  139.19    7.82
   5   2   4    0.16    1.21
   5   2   4    0.70    1.13
   5   2   5    2.79    1.20
   5   2   5    1.94    1.23
   5   3 -12   -0.20    1.71
   5   3 -12    0.16    1.32
   5   3 -12    0.79    1.06
   5   3 -11   17.42    3.24
   5   3 -11   21.28    2.83
   5   3 -11   18.14    2.51
   5   3 -10    1.68    2.52
   5   3 -10    2.07    1.91
   5   3 -10    2.13    1.74
   5   3 -10    1.39    1.26
   5   3  -9    0.29    2.51
   5   3  -9    0.70    1.62
   5   3  -9    2.16    1.42
   5   3  -8    0.17    1.21
   5   3  -8    2.75    2.46
   5   3  -8    0.94    1.85
   5   3  -8    0.44    1.32
   5   3  -8   -0.17    1.29
   5   3  -7    8.32    1.70
   5   3  -7    7.02    1.77
   5   3  -7    5.52    2.58
   5   3  -7    7.00    2.22
   5   3  -7   10.62    2.18
   5   3  -7    9.70    1.99
   5   3  -6   35.67    3.38
   5   3  -6   37.04    4.11
   5   3  -6   35.79    2.98
   5   3  -6   42.54    3.66
   5   3  -6   39.08    3.37
   5   3  -5  205.25   11.20
   5   3  -5  187.14   11.37
   5   3  -5  194.99   11.35
   5   3  -5  208.22   11.35
   5   3  -5  195.15   10.79
   5   3  -5  223.51   11.38
   5   3  -5  212.49   11.15
   5   3  -4    2.29    1.54
   5   3  -4    2.81    1.87
   5   3  -4    3.39    1.69
   5   3  -4    2.33    1.38
   5   3  -4    1.79    1.42
   5   3  -4    2.03    1.27
   5   3  -3   63.04    4.76
   5   3  -3   64.02    4.80
   5   3  -3   64.33    4.86
   5   3  -3   61.41    4.69
   5   3  -3   73.50    5.00
   5   3  -3   68.32    4.79
   5   3  -2   21.28    2.63
   5   3  -2   20.03    2.57
   5   3  -2   18.93    2.38
   5   3  -1   91.25    6.14
   5   3  -1   85.30    5.94
   5   3  -1   93.09    6.17
   5   3  -1   92.98    6.08
   5   3  -1   91.00    6.20
   5   3  -1   97.17    6.23
   5   3   0    0.20    1.45
   5   3   0   -0.37    1.46
   5   3   0    0.18    1.13
   5   3   0    0.20    1.53
   5   3   0   -0.20    1.29
   5   3   1   11.55    2.22
   5   3   1    6.80    1.95
   5   3   1    7.49    1.75
   5   3   1    6.18    1.92
   5   3   1    6.77    1.72
   5   3   2   65.88    4.83
   5   3   2   66.53    4.86
   5   3   2   63.92    5.06
   5   3   2   74.22    5.16
   5   3   2   73.79    5.23
   5   3   3    0.55    1.23
   5   3   3    0.55    1.29
   5   3   3    0.90    1.19
   5   3   4   14.20    1.99
   5   3   4   14.12    2.01
   5   4 -12    0.85    1.67
   5   4 -12    4.06    1.38
   5   4 -12    4.42    1.38
   5   4 -11    0.22    2.00
   5   4 -11   -0.93    1.56
   5   4 -11    1.26    1.53
   5   4 -10    1.50    2.32
   5   4 -10    2.13    1.70
   5   4 -10    4.05    1.99
   5   4 -10    3.79    1.54
   5   4  -9   21.71    2.47
   5   4  -9   24.94    3.12
   5   4  -9   24.25    3.20
   5   4  -9   29.29    3.04
   5   4  -9   19.93    2.46
   5   4  -8    2.69    1.33
   5   4  -8    3.19    1.61
   5   4  -8    3.33    2.52
   5   4  -8    2.86    1.55
   5   4  -7    6.94    1.68
   5   4  -7    8.12    1.94
   5   4  -7    8.10    2.61
   5   4  -7    8.37    2.29
   5   4  -7    8.86    2.06
   5   4  -6  133.64    8.22
   5   4  -6  126.34    8.26
   5   4  -6  134.78    8.49
   5   4  -6  135.45    8.31
   5   4  -6  124.10    7.63
   5   4  -6  139.87    8.34
   5   4  -6  144.81    8.22
   5   4  -5  119.78    7.46
   5   4  -5  109.94    7.29
   5   4  -5  117.49    7.54
   5   4  -5  111.45    7.32
   5   4  -5  114.47    7.08
   5   4  -5  124.51    7.57
   5   4  -5  123.48    7.43
   5   4  -4  420.79   20.49
   5   4  -4  383.01   20.06
   5   4  -4  386.84   20.37
   5   4  -4  405.28   20.35
   5   4  -4  404.40   20.16
   5   4  -4  418.63   20.50
   5   4  -4  399.71   20.34
   5   4  -3  196.07   10.77
   5   4  -3  189.34   10.65
   5   4  -3  186.50   10.74
   5   4  -2  286.10   15.16
   5   4  -2  275.81   14.95
   5   4  -2  279.97   14.87
   5   4  -2  286.94   15.19
   5   4  -2  295.03   15.14
   5   4  -1   52.05    4.46
   5   4  -1   52.02    4.33
   5   4  -1   63.14    4.45
   5   4  -1   60.59    4.72
   5   4  -1   55.48    4.49
   5   4   0   18.03    2.58
   5   4   0   14.61    2.26
   5   4   0   22.71    2.48
   5   4   0   15.63    2.54
   5   4   0   16.17    2.38
   5   4   1  101.25    6.65
   5   4   1   93.40    6.14
   5   4   1   98.10    6.18
   5   4   1  100.90    6.66
   5   4   1  101.56    6.56
   5   4   2  264.37   13.72
   5   4   2  237.78   13.54
   5   4   2  268.30   13.71
   5   4   3    3.10    1.35
   5   4   3    3.30    1.36
   5   4   3    4.02    1.20
   5   4   4    0.40    1.00
   5   5 -12    0.76    1.00
   5   5 -11    0.87    1.67
   5   5 -11   -0.31    1.25
   5   5 -11    0.68    1.40
   5   5 -10    0.28    1.00
   5   5 -10    1.43    1.94
   5   5 -10    1.11    1.44
   5   5 -10   -0.85    1.10
   5   5  -9    1.73    1.33
   5   5  -9    3.08    2.14
   5   5  -9   -0.40    1.54
   5   5  -9    1.06    1.36
   5   5  -8    2.16    1.25
   5   5  -8    2.37    1.45
   5   5  -8    1.98    1.85
   5   5  -8   -0.60    1.46
   5   5  -8    1.64    1.75
   5   5  -8    0.89    1.27
   5   5  -8    2.81    1.68
   5   5  -7   16.43    2.36
   5   5  -7   15.94    2.48
   5   5  -7   11.14    2.52
   5   5  -7   10.88    2.37
   5   5  -6    8.89    1.94
   5   5  -6    8.72    2.10
   5   5  -6    6.91    2.26
   5   5  -6    9.40    1.93
   5   5  -6   10.01    2.06
   5   5  -6    9.09    2.24
   5   5  -5   12.66    2.44
   5   5  -5   16.71    2.65
   5   5  -5   18.58    2.41
   5   5  -5   15.38    2.32
   5   5  -5   17.82    2.70
   5   5  -5   14.63    2.31
   5   5  -4  170.08    9.98
   5   5  -4  172.93    9.87
   5   5  -4  165.04    9.85
   5   5  -4  178.39   10.05
   5   5  -3    1.67    1.56
   5   5  -3    1.71    1.64
   5   5  -3    0.81    1.49
   5   5  -3    0.56    1.37
   5   5  -3    2.33    1.74
   5   5  -2   19.82    2.71
   5   5  -2   23.68    2.76
   5   5  -2   14.83    2.54
   5   5  -2   22.27    2.55
   5   5  -2   23.56    2.90
   5   5  -2   22.96    2.81
   5   5  -1   33.57    3.46
   5   5  -1   33.13    3.22
   5   5  -1   31.44    3.01
   5   5  -1   36.27    3.60
   5   5  -1   40.40    3.61
   5   5   0   12.78    2.22
   5   5   0    9.95    2.15
   5   5   0   12.57    2.09
   5   5   1    3.47    1.53
   5   5   1    1.59    1.52
   5   5   1    2.04    1.38
   5   5   1    3.66    1.50
   5   5   2   10.16    1.81
   5   5   2    8.83    1.83
   5   5   2    6.35    1.63
   5   5   2    8.30    1.72
   5   5   2   10.64    1.78
   5   5   3    5.71    1.50
   5   6 -11    3.14    1.17
   5   6 -10   13.29    1.81
   5   6 -10   12.68    1.91
   5   6 -10   12.15    2.18
   5   6 -10   10.06    1.69
   5   6  -9   -0.31    0.96
   5   6  -9    0.34    1.24
   5   6  -9    0.16    1.20
   5   6  -9   -0.61    1.56
   5   6  -9    0.19    1.11
   5   6  -9    1.74    1.41
   5   6  -8    0.36    1.18
   5   6  -8    1.17    1.46
   5   6  -8   -0.49    1.31
   5   6  -8   -0.43    1.65
   5   6  -8   -0.41    1.25
   5   6  -8    0.60    1.42
   5   6  -7    8.96    1.89
   5   6  -7    7.18    2.00
   5   6  -7    6.35    2.01
   5   6  -7    6.06    1.60
   5   6  -7    7.13    1.74
   5   6  -7    7.73    2.04
   5   6  -6   10.20    1.98
   5   6  -6    6.74    2.16
   5   6  -6    9.21    2.17
   5   6  -6    6.84    1.77
   5   6  -6    8.44    1.87
   5   6  -6    6.41    2.21
   5   6  -5    6.34    1.79
   5   6  -5    5.12    1.92
   5   6  -5    4.88    1.84
   5   6  -5    3.16    1.27
   5   6  -5    5.94    1.74
   5   6  -4  163.12    9.76
   5   6  -4  152.00    9.37
   5   6  -4  165.37    9.44
   5   6  -4  168.62    9.38
   5   6  -4  166.44    9.66
   5   6  -4  163.62    9.82
   5   6  -3   21.14    2.93
   5   6  -3   23.51    2.76
   5   6  -3   27.44    2.73
   5   6  -3   28.26    3.17
   5   6  -3   27.04    2.87
   5   6  -3   24.34    3.16
   5   6  -3   20.14    2.79
   5   6  -2    2.29    1.58
   5   6  -2    1.00    1.32
   5   6  -2    2.54    1.78
   5   6  -2    2.92    1.55
   5   6  -1  351.79   18.32
   5   6  -1  356.20   18.38
   5   6  -1  342.99   18.50
   5   6  -1  354.53   18.39
   5   6  -1  376.54   18.50
   5   6   0   96.44    6.29
   5   6   0   95.52    6.43
   5   6   0   94.19    6.46
   5   6   0  101.57    6.42
   5   6   0  100.57    6.37
   5   6   1    8.99    1.69
   5   6   1   11.42    2.04
   5   6   1    6.47    1.66
   5   6   1    6.10    1.60
   5   6   2   12.10    1.90
   5   7 -10    0.30    1.15
   5   7  -9   12.66    1.97
   5   7  -9   13.32    2.16
   5   7  -9   16.08    2.14
   5   7  -8   10.69    1.91
   5   7  -8   11.40    2.07
   5   7  -8   10.87    2.18
   5   7  -8   13.64    2.27
   5   7  -7   13.44    2.21
   5   7  -7   17.06    2.49
   5   7  -7   17.04    2.49
   5   7  -7   14.59    2.06
   5   7  -7   13.60    2.07
   5   7  -7   15.94    2.44
   5   7  -7   13.53    2.08
   5   7  -6   19.67    2.59
   5   7  -6   20.37    2.69
   5   7  -6   19.36    2.52
   5   7  -6   23.57    2.57
   5   7  -6   21.26    2.79
   5   7  -5    2.74    1.64
   5   7  -5    0.18    1.46
   5   7  -5    2.12    1.68
   5   7  -5    1.53    1.02
   5   7  -5    1.41    1.11
   5   7  -5    2.57    1.71
   5   7  -4   42.02    4.02
   5   7  -4   44.84    3.68
   5   7  -4   44.73    3.66
   5   7  -4   41.43    3.93
   5   7  -4   45.32    4.16
   5   7  -4   49.45    4.05
   5   7  -3   59.22    4.78
   5   7  -3   61.51    4.66
   5   7  -3   63.18    4.94
   5   7  -3   67.28    4.97
   5   7  -3   61.02    4.81
   5   7  -2    9.73    2.07
   5   7  -2    8.33    1.87
   5   7  -2   11.84    2.19
   5   7  -2   11.20    2.03
   5   7  -1    1.36    1.36
   5   7  -1    0.39    1.54
   5   7  -1    0.18    1.18
   5   7  -1    1.56    1.37
   5   7  -1    2.10    1.28
   5   7   0   52.99    3.98
   5   7   0   62.76    4.37
   5   7   0   59.94    4.43
   5   7   0   55.59    4.06
   5   7   0   55.83    4.38
   5   7   1    2.25    1.20
   5   7   1    0.97    1.23
   5   7   2   12.30    1.83
   5   8  -9    9.35    1.59
   5   8  -8    8.46    1.68
   5   8  -8   10.88    1.75
   5   8  -8    9.72    1.80
   5   8  -7    2.82    1.27
   5   8  -7    1.45    1.09
   5   8  -7    1.06    1.10
   5   8  -6   16.09    2.36
   5   8  -6   17.24    2.24
   5   8  -6   20.22    2.55
   5   8  -6   16.55    2.38
   5   8  -5    9.87    1.85
   5   8  -5   11.97    2.15
   5   8  -5   10.22    2.09
   5   8  -5   12.35    2.10
   5   8  -5    7.91    2.06
   5   8  -4    1.27    1.18
   5   8  -4    2.17    1.41
   5   8  -4    3.33    1.68
   5   8  -4    1.82    1.44
   5   8  -4    1.37    1.07
   5   8  -4    2.94    1.48
   5   8  -4    3.30    1.76
   5   8  -4    4.37    1.57
   5   8  -3    1.36    1.34
   5   8  -3    3.28    1.70
   5   8  -3    1.94    1.18
   5   8  -3    2.76    1.46
   5   8  -2    9.27    1.74
   5   8  -2    6.28    1.96
   5   8  -2   11.30    2.03
   5   8  -2    8.20    1.71
   5   8  -2    8.12    1.97
   5   8  -1    5.88    1.56
   5   8  -1    3.00    1.52
   5   8  -1    4.68    1.74
   5   8   0    2.26    1.23
   5   9  -6   47.16    3.37
   5   9  -6   40.56    3.26
   5   9  -5    0.83    1.19
   5   9  -5    1.43    1.28
   5   9  -4    6.59    1.52
   5   9  -4    5.97    1.61
   5   9  -4    5.13    1.31
   5   9  -3   38.75    3.10
   5   9  -2   11.50    1.79
   5   9  -2   13.53    1.84
   6 -11  -1   12.89    1.84
   6 -11  -1   11.02    1.81
   6 -11   0    7.45    1.53
   6 -11   1   15.66    2.01
   6 -10  -4    6.37    1.60
   6 -10  -4    8.37    1.76
   6 -10  -3   -1.30    1.31
   6 -10  -3   -1.36    1.59
   6 -10  -2   20.44    2.42
   6 -10  -2   13.60    2.08
   6 -10  -1   13.95    2.24
   6 -10  -1   12.88    2.07
   6 -10   0    2.69    1.57
   6 -10   0    0.65    1.41
   6 -10   1   15.99    2.28
   6 -10   1   10.30    1.98
   6 -10   2    1.67    1.42
   6 -10   2    1.38    1.36
   6 -10   3    1.67    1.34
   6 -10   3    0.84    1.24
   6 -10   4   23.81    2.38
   6  -9  -6   -1.51    1.21
   6  -9  -5   13.80    2.09
   6  -9  -5    9.31    1.96
   6  -9  -4    1.47    1.47
   6  -9  -4    2.75    1.72
   6  -9  -4    1.57    1.82
   6  -9  -3    1.18    1.47
   6  -9  -3    2.69    1.37
   6  -9  -3    4.17    1.90
   6  -9  -3    2.93    1.95
   6  -9  -2  126.37    7.68
   6  -9  -2  124.86    7.74
   6  -9  -2  115.13    7.69
   6  -9  -1   51.45    4.33
   6  -9  -1   52.30    4.53
   6  -9   0    2.71    1.78
   6  -9   0    1.09    1.70
   6  -9   1   11.02    2.25
   6  -9   1   11.46    2.36
   6  -9   2    8.21    2.04
   6  -9   2    9.79    2.29
   6  -9   3    0.90    1.53
   6  -9   3   -0.58    1.70
   6  -9   4    7.49    1.75
   6  -9   4    6.51    1.87
   6  -9   5    7.11    1.49
   6  -8  -7    5.43    1.45
   6  -8  -7    4.45    1.65
   6  -8  -7    4.45    1.61
   6  -8  -6   23.62    2.66
   6  -8  -6   17.86    2.70
   6  -8  -6   18.21    2.70
   6  -8  -5   96.23    6.16
   6  -8  -5   88.45    6.13
   6  -8  -5   85.01    6.27
   6  -8  -5   91.10    6.32
   6  -8  -4   27.10    3.09
   6  -8  -4   25.42    2.86
   6  -8  -4   19.98    3.20
   6  -8  -4   20.62    3.07
   6  -8  -3   20.74    2.93
   6  -8  -3   26.49    2.95
   6  -8  -3   17.99    3.11
   6  -8  -2   -0.22    1.60
   6  -8  -2   -1.10    1.41
   6  -8  -2    2.00    2.24
   6  -8  -1   15.94    2.70
   6  -8  -1   16.04    2.51
   6  -8  -1   19.81    3.27
   6  -8   0   -1.10    1.74
   6  -8   0   -0.89    1.48
   6  -8   0    2.03    2.26
   6  -8   1    8.93    2.16
   6  -8   1   13.65    2.31
   6  -8   1   13.30    2.84
   6  -8   2   47.82    4.12
   6  -8   2   49.76    4.18
   6  -8   2   36.47    3.81
   6  -8   2   47.77    4.54
   6  -8   3    5.39    1.91
   6  -8   3    3.87    1.59
   6  -8   3    6.15    2.02
   6  -8   3    4.15    2.17
   6  -8   4   32.51    3.14
   6  -8   4   26.79    3.24
   6  -8   5   15.28    2.35
   6  -8   5   19.54    2.69
   6  -7  -8    0.28    1.13
   6  -7  -8    1.05    1.47
   6  -7  -8    1.27    1.43
   6  -7  -7    9.49    1.96
   6  -7  -7    7.25    2.17
   6  -7  -7    9.25    2.22
   6  -7  -6  105.08    6.54
   6  -7  -6  101.08    6.51
   6  -7  -6  102.50    6.78
   6  -7  -5    3.99    1.81
   6  -7  -5    4.45    1.64
   6  -7  -5    0.25    1.98
   6  -7  -5    5.03    2.13
   6  -7  -4   -0.22    1.69
   6  -7  -4    0.22    1.39
   6  -7  -4    3.12    2.28
   6  -7  -4    1.18    1.93
   6  -7  -3    0.22    1.66
   6  -7  -3    1.78    1.45
   6  -7  -3   -1.32    2.18
   6  -7  -2    7.02    1.94
   6  -7  -2    7.86    2.01
   6  -7  -2    5.34    2.05
   6  -7  -2   10.47    2.78
   6  -7  -1    0.22    1.56
   6  -7  -1    0.68    1.43
   6  -7  -1   -1.05    1.84
   6  -7  -1    0.54    2.40
   6  -7   0   14.93    2.51
   6  -7   0   16.94    2.51
   6  -7   0   13.60    2.64
   6  -7   0    8.62    2.71
   6  -7   1    2.19    1.81
   6  -7   1    0.45    1.37
   6  -7   1    0.90    1.97
   6  -7   1    1.60    2.21
   6  -7   2    1.51    1.71
   6  -7   2    1.11    1.41
   6  -7   2    0.69    2.05
   6  -7   2    2.90    2.30
   6  -7   3   45.49    4.13
   6  -7   3   37.09    4.23
   6  -7   3   44.72    4.58
   6  -7   4    1.00    1.49
   6  -7   4   -1.33    1.52
   6  -7   4    0.43    1.92
   6  -7   4    1.88    2.09
   6  -7   5   45.98    3.66
   6  -7   5   36.49    3.76
   6  -7   5   42.25    4.01
   6  -7   6   -1.23    1.12
   6  -7   6    1.04    1.44
   6  -7   6    0.16    1.41
   6  -6  -9    0.12    1.04
   6  -6  -9    2.98    1.68
   6  -6  -9    2.35    1.40
   6  -6  -8   13.17    2.07
   6  -6  -8   11.88    2.61
   6  -6  -8   13.02    2.33
   6  -6  -7   26.53    2.96
   6  -6  -7   25.92    2.90
   6  -6  -7   20.57    3.35
   6  -6  -7   23.17    3.05
   6  -6  -6   11.66    2.28
   6  -6  -6   11.81    2.13
   6  -6  -6    6.02    2.42
   6  -6  -6   12.68    2.56
   6  -6  -5   -0.42    1.63
   6  -6  -5    1.48    1.90
   6  -6  -5    1.73    1.33
   6  -6  -5    1.07    2.23
   6  -6  -5    1.39    1.85
   6  -6  -4  217.31   11.52
   6  -6  -4  198.50   11.32
   6  -6  -4  187.57   11.29
   6  -6  -4  190.95   11.88
   6  -6  -3   21.64    2.98
   6  -6  -3   21.76    3.14
   6  -6  -3   26.72    3.07
   6  -6  -3   28.06    3.85
   6  -6  -2   20.71    2.84
   6  -6  -2   23.65    2.81
   6  -6  -2   20.34    3.21
   6  -6  -2   22.42    3.49
   6  -6  -1   23.18    2.94
   6  -6  -1   26.14    2.99
   6  -6  -1   25.43    3.53
   6  -6   0   67.45    5.09
   6  -6   0   65.96    5.03
   6  -6   0   60.80    5.30
   6  -6   1   32.43    3.37
   6  -6   1   28.82    3.31
   6  -6   1   29.59    3.83
   6  -6   1   31.53    2.98
   6  -6   2   17.51    2.55
   6  -6   2   14.37    2.47
   6  -6   2   15.65    3.22
   6  -6   2   16.28    2.22
   6  -6   3   50.93    4.15
   6  -6   3   43.46    3.97
   6  -6   3   35.99    4.33
   6  -6   3   38.73    3.65
   6  -6   4   34.79    3.45
   6  -6   4   28.30    3.92
   6  -6   4   35.75    3.39
   6  -6   5   11.12    1.99
   6  -6   5   12.47    2.68
   6  -6   5    9.97    2.51
   6  -6   6    4.55    1.31
   6  -6   6    2.48    1.73
   6  -6   6    2.84    1.81
   6  -5 -10    1.96    1.50
   6  -5  -9    0.29    1.11
   6  -5  -9    3.21    2.11
   6  -5  -9    0.17    1.47
   6  -5  -8   11.46    2.12
   6  -5  -8    9.32    2.30
   6  -5  -8   14.72    2.15
   6  -5  -8    9.44    2.27
   6  -5  -7   13.82    2.26
   6  -5  -7    6.24    2.39
   6  -5  -7    9.61    1.97
   6  -5  -7   11.78    2.44
   6  -5  -6   35.20    3.43
   6  -5  -6   32.76    3.40
   6  -5  -6   23.55    3.59
   6  -5  -6   35.92    3.78
   6  -5  -5  207.97   11.75
   6  -5  -5  212.27   11.71
   6  -5  -5  202.71   12.04
   6  -5  -5  212.21   11.94
   6  -5  -4  490.85   23.14
   6  -5  -4  446.18   22.75
   6  -5  -4  430.41   23.24
   6  -5  -3  107.69    6.74
   6  -5  -3   96.83    6.43
   6  -5  -3   91.83    6.96
   6  -5  -2   26.00    2.98
   6  -5  -2   28.33    3.06
   6  -5  -2   29.40    3.72
   6  -5  -2   22.47    2.55
   6  -5  -2   29.55    3.77
   6  -5  -1   32.28    3.32
   6  -5  -1   33.36    3.27
   6  -5  -1   34.17    3.96
   6  -5  -1   26.65    2.70
   6  -5  -1   36.04    3.96
   6  -5   0  117.01    7.29
   6  -5   0  101.65    6.95
   6  -5   0  114.90    7.95
   6  -5   0  120.11    6.98
   6  -5   0  107.60    7.82
   6  -5   1    7.99    1.89
   6  -5   1   12.86    2.28
   6  -5   1   11.40    3.05
   6  -5   1   14.45    2.96
   6  -5   1   11.54    1.96
   6  -5   2    4.95    1.72
   6  -5   2    2.79    1.74
   6  -5   2    2.47    2.56
   6  -5   2    4.64    2.45
   6  -5   2    5.33    1.63
   6  -5   3   -1.08    1.42
   6  -5   3   -1.39    1.53
   6  -5   3    1.95    2.58
   6  -5   3    1.64    2.19
   6  -5   3    0.64    1.32
   6  -5   4    4.11    1.57
   6  -5   4    1.12    1.47
   6  -5   4    3.23    2.55
   6  -5   4    1.30    2.16
   6  -5   4    5.08    1.70
   6  -5   5   27.10    2.84
   6  -5   5   27.91    3.68
   6  -5   5   26.54    3.54
   6  -5   6   25.98    3.27
   6  -5   6   32.42    3.31
   6  -4 -10    0.59    1.64
   6  -4 -10   -1.27    1.27
   6  -4  -9   14.90    2.08
   6  -4  -9    9.59    2.54
   6  -4  -9   15.29    2.96
   6  -4  -9   16.46    2.48
   6  -4  -8   11.00    2.05
   6  -4  -8   11.28    2.74
   6  -4  -8   13.61    2.15
   6  -4  -8    9.73    2.69
   6  -4  -8    9.71    2.30
   6  -4  -7    2.55    1.54
   6  -4  -7   -0.79    2.33
   6  -4  -7    3.19    1.47
   6  -4  -7    3.51    2.39
   6  -4  -7    4.64    1.93
   6  -4  -6   12.73    2.12
   6  -4  -6   11.18    2.85
   6  -4  -6   16.85    2.34
   6  -4  -6    9.85    2.68
   6  -4  -6   15.44    2.53
   6  -4  -5    6.32    1.74
   6  -4  -5   10.66    2.85
   6  -4  -5    6.17    1.73
   6  -4  -5    5.47    2.38
   6  -4  -5    5.24    1.92
   6  -4  -4   36.20    3.32
   6  -4  -4   32.57    3.17
   6  -4  -4   27.21    3.82
   6  -4  -4   36.62    4.01
   6  -4  -3  112.99    7.24
   6  -4  -3  119.30    7.14
   6  -4  -3  115.69    7.97
   6  -4  -3  116.67    7.02
   6  -4  -3  123.61    6.94
   6  -4  -3  113.72    7.95
   6  -4  -2  196.01   10.62
   6  -4  -2  186.89   10.33
   6  -4  -2  180.43   11.17
   6  -4  -2  192.89   10.32
   6  -4  -2  188.09   10.48
   6  -4  -2  184.33   11.21
   6  -4  -1   46.87    3.87
   6  -4  -1   43.80    3.70
   6  -4  -1   44.72    4.72
   6  -4  -1   51.70    3.90
   6  -4  -1   45.68    4.53
   6  -4   0    1.14    1.51
   6  -4   0    2.85    1.50
   6  -4   0    7.33    2.60
   6  -4   0    4.54    2.36
   6  -4   0    1.49    1.29
   6  -4   1    9.40    1.88
   6  -4   1    5.92    1.67
   6  -4   1   12.57    3.19
   6  -4   1    8.32    2.53
   6  -4   1   10.11    2.00
   6  -4   2   16.45    2.39
   6  -4   2   11.02    2.07
   6  -4   2   13.70    3.38
   6  -4   2   14.50    3.11
   6  -4   2   18.82    2.54
   6  -4   3   96.60    6.07
   6  -4   3   76.92    5.53
   6  -4   3   67.24    6.41
   6  -4   3   85.01    6.03
   6  -4   3   81.56    6.50
   6  -4   4   36.01    3.45
   6  -4   4   33.21    3.34
   6  -4   4   39.30    3.72
   6  -4   4   39.93    4.31
   6  -4   5   34.38    3.89
   6  -4   6    2.24    1.93
   6  -4   6    3.85    1.88
   6  -3 -11    0.32    1.37
   6  -3 -10    3.95    2.10
   6  -3 -10    4.95    2.10
   6  -3 -10    3.78    1.47
   6  -3  -9    1.03    2.33
   6  -3  -9    2.35    1.58
   6  -3  -9    2.26    2.09
   6  -3  -9    1.41    1.52
   6  -3  -8   -2.22    2.60
   6  -3  -8    4.05    1.43
   6  -3  -8    1.33    2.22
   6  -3  -8    3.07    1.76
   6  -3  -7   -0.28    2.40
   6  -3  -7    2.04    1.28
   6  -3  -7   -0.79    2.29
   6  -3  -7    2.52    1.72
   6  -3  -6    2.95    2.42
   6  -3  -6    2.34    1.23
   6  -3  -6    2.55    2.24
   6  -3  -6    4.11    1.75
   6  -3  -5    7.24    2.61
   6  -3  -5    8.42    1.75
   6  -3  -5    6.91    1.75
   6  -3  -5    6.87    2.33
   6  -3  -5    9.06    1.59
   6  -3  -5   11.50    2.15
   6  -3  -4   66.85    4.62
   6  -3  -4   61.02    5.43
   6  -3  -4   59.66    4.57
   6  -3  -4   60.26    4.34
   6  -3  -4   69.38    5.50
   6  -3  -3  228.90   12.27
   6  -3  -3  230.79   13.32
   6  -3  -3  224.80   12.43
   6  -3  -3  232.10   12.30
   6  -3  -3  247.01   13.23
   6  -3  -2  208.89   10.76
   6  -3  -2  193.09   11.58
   6  -3  -2  196.21   10.79
   6  -3  -2  182.30   10.84
   6  -3  -2  197.88   11.47
   6  -3  -1   16.76    2.19
   6  -3  -1   16.60    3.04
   6  -3  -1   18.91    3.04
   6  -3  -1   16.06    2.21
   6  -3   0   88.35    5.65
   6  -3   0   82.15    5.74
   6  -3   0   78.76    6.22
   6  -3   1  212.10   11.47
   6  -3   1  219.17   11.86
   6  -3   1  193.53   12.11
   6  -3   2    3.53    1.53
   6  -3   2    5.94    2.48
   6  -3   2    5.73    1.77
   6  -3   3   13.42    2.13
   6  -3   3   10.24    3.12
   6  -3   3    9.95    2.87
   6  -3   3   11.70    2.15
   6  -3   4    1.00    2.04
   6  -3   5    4.74    2.38
   6  -3   5    3.07    2.04
   6  -3   6   -0.40    1.89
   6  -3   6    0.17    1.42
   6  -2 -11    3.14    1.90
   6  -2 -11    4.04    1.78
   6  -2 -10    2.70    2.32
   6  -2 -10    3.50    1.50
   6  -2 -10    1.33    1.84
   6  -2  -9    7.04    2.85
   6  -2  -9    4.51    2.34
   6  -2  -8   40.83    4.78
   6  -2  -8   46.13    4.60
   6  -2  -8   38.31    3.57
   6  -2  -7  293.62   14.08
   6  -2  -7  239.48   15.14
   6  -2  -7  269.96   14.00
   6  -2  -7  265.43   14.85
   6  -2  -7  254.15   13.87
   6  -2  -6    5.69    2.86
   6  -2  -6    2.04    1.26
   6  -2  -6    0.35    1.38
   6  -2  -6    3.82    2.08
   6  -2  -6    1.60    1.09
   6  -2  -5   43.87    3.47
   6  -2  -5   42.34    4.56
   6  -2  -5   47.66    3.90
   6  -2  -5   50.85    3.71
   6  -2  -5   34.47    4.01
   6  -2  -4  434.68   21.89
   6  -2  -4  452.74   23.24
   6  -2  -4  446.37   22.42
   6  -2  -4  457.98   22.30
   6  -2  -4  462.80   22.87
   6  -2  -3  541.49   26.16
   6  -2  -3  558.54   26.79
   6  -2  -3  557.29   26.67
   6  -2  -3  539.80   27.05
   6  -2  -3  523.49   26.19
   6  -2  -3  553.73   26.24
   6  -2  -3  539.69   26.22
   6  -2  -2    4.77    1.35
   6  -2  -2    7.19    2.02
   6  -2  -2    5.56    2.16
   6  -2  -2    6.16    1.65
   6  -2  -1   50.15    3.76
   6  -2  -1   57.36    4.39
   6  -2  -1   58.27    4.70
   6  -2   0   57.18    4.01
   6  -2   0   52.98    5.22
   6  -2   0   55.40    4.48
   6  -2   0   52.46    4.75
   6  -2   1   64.72    5.84
   6  -2   1   66.12    5.04
   6  -2   1   62.68    5.28
   6  -2   2    5.93    2.65
   6  -2   2    1.44    1.98
   6  -2   3    2.82    2.59
   6  -2   3    1.92    2.17
   6  -2   3    2.43    1.42
   6  -2   4  130.10    9.21
   6  -2   4  120.20    8.60
   6  -2   5    0.70    2.14
   6  -2   5    0.58    1.73
   6  -2   6   -0.54    1.77
   6  -2   6    0.84    1.19
   6  -1 -11    0.85    1.90
   6  -1 -11    4.76    1.50
   6  -1 -11    1.23    1.53
   6  -1 -10    2.93    2.38
   6  -1 -10    5.39    1.92
   6  -1 -10    2.61    1.93
   6  -1  -9    1.47    2.63
   6  -1  -9    1.91    2.09
   6  -1  -8   -0.30    2.62
   6  -1  -8    0.92    1.53
   6  -1  -8   -0.24    1.88
   6  -1  -7   46.97    4.92
   6  -1  -7   35.62    3.65
   6  -1  -7   48.21    3.72
   6  -1  -7   37.81    4.05
   6  -1  -6  315.73   16.71
   6  -1  -6  340.57   16.63
   6  -1  -6  301.29   16.84
   6  -1  -5   51.23    4.40
   6  -1  -5   63.18    4.51
   6  -1  -5   56.71    4.66
   6  -1  -4    0.57    1.06
   6  -1  -4    1.75    2.40
   6  -1  -4    0.58    1.57
   6  -1  -4    1.97    1.75
   6  -1  -4    1.43    1.19
   6  -1  -4   -0.15    1.18
   6  -1  -4   -0.14    1.01
   6  -1  -3   75.00    5.98
   6  -1  -3   79.63    5.52
   6  -1  -3   78.81    5.35
   6  -1  -3   72.77    5.40
   6  -1  -3   75.06    5.11
   6  -1  -3   70.78    4.92
   6  -1  -3   80.08    5.15
   6  -1  -2  143.35    8.80
   6  -1  -2  124.91    7.94
   6  -1  -2  133.74    8.13
   6  -1  -2  138.42    8.17
   6  -1  -2  124.65    7.68
   6  -1  -1  261.19   15.07
   6  -1  -1  280.04   14.60
   6  -1  -1  271.25   14.48
   6  -1   0    7.00    2.57
   6  -1   0    5.66    2.12
   6  -1   0   10.21    2.03
   6  -1   1    9.59    2.88
   6  -1   1    8.34    2.20
   6  -1   2   41.10    4.65
   6  -1   2   45.71    4.01
   6  -1   2   42.75    4.09
   6  -1   3    1.83    2.37
   6  -1   3    3.10    1.88
   6  -1   3    6.63    1.80
   6  -1   4   14.01    3.00
   6  -1   4   11.43    2.25
   6  -1   5    5.29    2.08
   6  -1   6    1.46    1.44
   6   0 -12    3.14    1.69
   6   0 -11   -1.15    2.08
   6   0 -11   -0.52    1.36
   6   0 -11   -0.16    1.42
   6   0 -10    3.41    1.88
   6   0 -10    4.71    1.47
   6   0 -10    2.40    1.76
   6   0  -9    5.21    1.77
   6   0  -9   -0.22    1.76
   6   0  -8    1.44    1.68
   6   0  -8    0.44    1.76
   6   0  -8   -0.38    1.13
   6   0  -7   84.51    6.92
   6   0  -7   86.76    6.24
   6   0  -7   86.05    6.15
   6   0  -7   96.28    6.12
   6   0  -6  323.85   18.69
   6   0  -6  353.56   18.14
   6   0  -6  374.83   18.08
   6   0  -6  336.53   17.90
   6   0  -5   22.80    2.41
   6   0  -5   24.09    3.71
   6   0  -5   23.49    2.92
   6   0  -5   21.90    2.82
   6   0  -5   26.39    2.62
   6   0  -5   24.41    2.76
   6   0  -5   23.02    2.35
   6   0  -4   16.60    2.15
   6   0  -4   18.09    3.21
   6   0  -4   19.09    2.59
   6   0  -4   16.16    2.39
   6   0  -4   20.55    2.53
   6   0  -4   17.04    2.24
   6   0  -4   18.32    2.14
   6   0  -3   33.19    3.17
   6   0  -3   36.13    3.94
   6   0  -3   35.68    3.50
   6   0  -3   32.05    3.17
   6   0  -3   29.06    3.20
   6   0  -3   37.02    3.34
   6   0  -3   37.58    3.16
   6   0  -2  665.97   32.80
   6   0  -2  712.42   32.41
   6   0  -2  628.34   31.81
   6   0  -2  660.01   32.08
   6   0  -1  132.32    8.68
   6   0  -1  124.62    7.80
   6   0  -1  144.79    8.24
   6   0   0    0.50    2.13
   6   0   0    0.64    1.34
   6   0   1   56.87    5.45
   6   0   1   70.39    5.17
   6   0   2  102.90    7.73
   6   0   2  130.20    7.69
   6   0   3   29.88    3.97
   6   0   3   50.94    3.95
   6   0   4   22.01    3.28
   6   0   4   38.86    3.33
   6   0   5    7.55    1.92
   6   0   5   10.60    1.84
   6   1 -12    6.67    1.47
   6   1 -11    1.86    2.06
   6   1 -11    0.72    1.48
   6   1 -10    6.31    2.91
   6   1 -10   10.45    2.37
   6   1 -10   10.33    1.98
   6   1  -9   35.80    4.68
   6   1  -9   45.19    3.99
   6   1  -9   31.01    3.47
   6   1  -9   49.41    3.82
   6   1  -8    2.33    2.57
   6   1  -8    1.10    1.80
   6   1  -8    1.23    1.30
   6   1  -7   -0.83    2.40
   6   1  -7   -0.89    1.72
   6   1  -7    1.66    1.46
   6   1  -6  127.79    7.46
   6   1  -6  113.17    8.32
   6   1  -6  131.62    8.11
   6   1  -6  141.81    8.04
   6   1  -6  125.86    7.47
   6   1  -6  116.15    7.16
   6   1  -5   70.84    4.98
   6   1  -5   76.45    5.98
   6   1  -5   77.42    5.56
   6   1  -5   79.52    5.43
   6   1  -5   67.12    4.94
   6   1  -5   68.63    4.85
   6   1  -4    7.18    1.76
   6   1  -4    1.90    2.29
   6   1  -4    6.66    1.98
   6   1  -4    4.72    1.56
   6   1  -4    3.74    1.57
   6   1  -4    5.84    1.46
   6   1  -3  125.75    7.93
   6   1  -3  144.37    8.73
   6   1  -3  130.69    8.01
   6   1  -3  133.82    7.93
   6   1  -2  266.76   15.28
   6   1  -2  278.57   15.11
   6   1  -2  289.71   15.02
   6   1  -2  293.07   14.97
   6   1  -2  277.97   14.92
   6   1  -1   30.50    3.81
   6   1  -1   35.61    3.51
   6   1  -1   36.91    3.72
   6   1  -1   35.22    3.48
   6   1   0  120.92    8.01
   6   1   0  125.25    7.78
   6   1   0  115.34    7.74
   6   1   1   12.06    2.80
   6   1   1   14.95    2.60
   6   1   1   14.16    2.36
   6   1   1   19.71    2.51
   6   1   2    1.75    1.95
   6   1   2    1.64    1.63
   6   1   2    2.02    1.44
   6   1   2    0.62    1.36
   6   1   3    9.72    2.41
   6   1   3   16.78    2.55
   6   1   3   16.44    2.25
   6   1   3   18.65    2.38
   6   1   4    7.10    1.62
   6   2 -12    2.32    1.67
   6   2 -11   -1.11    2.04
   6   2 -11    0.28    1.11
   6   2 -10    1.57    2.31
   6   2 -10   -0.43    1.71
   6   2 -10    0.19    1.47
   6   2  -9    1.12    2.36
   6   2  -9   -1.51    1.69
   6   2  -9    1.00    1.29
   6   2  -8    4.48    2.49
   6   2  -8    3.44    1.92
   6   2  -8    2.79    1.53
   6   2  -7    8.09    1.81
   6   2  -7   10.41    2.90
   6   2  -7   13.57    2.49
   6   2  -7    6.48    1.86
   6   2  -7    8.41    1.83
   6   2  -6   45.16    3.82
   6   2  -6   36.18    4.29
   6   2  -6   44.58    4.24
   6   2  -6   52.20    4.25
   6   2  -6   42.14    3.78
   6   2  -6   47.80    3.72
   6   2  -5    0.18    1.27
   6   2  -5    0.24    2.21
   6   2  -5    0.41    1.39
   6   2  -5    0.37    1.32
   6   2  -5   -0.17    1.16
   6   2  -4   63.55    4.73
   6   2  -4   60.70    5.18
   6   2  -4   65.83    5.04
   6   2  -4   60.23    4.69
   6   2  -4   59.43    4.55
   6   2  -3   13.04    2.17
   6   2  -3   12.90    2.76
   6   2  -3   13.68    2.51
   6   2  -3    8.57    1.94
   6   2  -3   14.46    2.39
   6   2  -3   12.41    2.01
   6   2  -2    5.59    1.80
   6   2  -2    9.45    2.41
   6   2  -2    9.94    2.34
   6   2  -2    7.47    1.84
   6   2  -2    4.63    1.75
   6   2  -2    5.44    1.74
   6   2  -1  111.61    7.55
   6   2  -1  119.00    7.63
   6   2  -1  117.02    7.48
   6   2   0   56.18    5.25
   6   2   0   76.85    5.64
   6   2   0   80.38    5.55
   6   2   0   79.99    5.70
   6   2   0   74.27    5.45
   6   2   0   75.67    5.60
   6   2   1   18.03    2.62
   6   2   1   12.87    2.56
   6   2   1   18.06    2.66
   6   2   1   20.05    2.53
   6   2   1   17.46    2.62
   6   2   1   17.87    2.47
   6   2   2    0.59    1.40
   6   2   2    2.19    1.56
   6   2   2    1.83    1.19
   6   2   2    3.82    1.68
   6   2   2    3.69    1.50
   6   2   3   10.74    1.99
   6   2   3   15.66    2.16
   6   2   3   11.25    2.07
   6   2   3   15.85    2.15
   6   2   4    0.55    1.01
   6   2   4   -1.25    1.12
   6   3 -11   18.22    2.87
   6   3 -11   24.86    2.71
   6   3 -11   22.67    2.48
   6   3 -10   -0.71    1.97
   6   3 -10    0.20    1.50
   6   3 -10    1.89    1.52
   6   3  -9    8.47    2.72
   6   3  -9    5.87    2.04
   6   3  -9    8.96    1.85
   6   3  -8  116.82    6.89
   6   3  -8  105.81    7.80
   6   3  -8  111.09    7.55
   6   3  -8  126.71    7.56
   6   3  -8  104.47    6.75
   6   3  -7   29.63    3.06
   6   3  -7   26.02    3.71
   6   3  -7   29.30    3.24
   6   3  -7   31.09    3.14
   6   3  -7   29.29    2.88
   6   3  -6   20.77    2.65
   6   3  -6   22.20    3.29
   6   3  -6   22.32    2.83
   6   3  -6   19.21    2.43
   6   3  -5  257.16   13.71
   6   3  -5  248.61   13.90
   6   3  -5  270.39   14.09
   6   3  -5  246.96   13.77
   6   3  -5  248.87   13.24
   6   3  -5  249.44   13.68
   6   3  -5  252.77   13.54
   6   3  -4  289.62   14.70
   6   3  -4  252.53   14.52
   6   3  -4  258.55   14.67
   6   3  -4  277.51   14.68
   6   3  -4  281.88   14.69
   6   3  -4  273.64   14.52
   6   3  -3    7.51    2.06
   6   3  -3    6.85    2.12
   6   3  -3    6.23    2.14
   6   3  -3    6.41    1.70
   6   3  -3    7.00    2.01
   6   3  -3    8.12    1.87
   6   3  -2   56.91    4.59
   6   3  -2   52.41    4.59
   6   3  -2   56.80    4.52
   6   3  -2   55.25    4.54
   6   3  -1  629.30   30.44
   6   3  -1  623.77   30.31
   6   3  -1  623.57   30.26
   6   3  -1  623.19   30.48
   6   3  -1  586.16   30.22
   6   3   0  242.24   13.33
   6   3   0  224.44   13.00
   6   3   0  256.40   13.20
   6   3   0  247.33   13.39
   6   3   0  238.43   13.23
   6   3   1   31.95    3.22
   6   3   1   30.05    2.93
   6   3   1   24.03    2.87
   6   3   1   22.53    2.92
   6   3   1   31.80    3.09
   6   3   2   21.67    2.57
   6   3   2   17.21    2.22
   6   3   2   16.82    2.41
   6   3   2   23.66    2.57
   6   3   3   66.27    4.39
   6   3   3   59.91    4.33
   6   4 -11    3.21    1.61
   6   4 -11    3.57    1.35
   6   4 -11    2.29    1.33
   6   4 -10    0.59    1.87
   6   4 -10    0.52    1.33
   6   4 -10    1.09    1.45
   6   4  -9   -0.14    0.97
   6   4  -9   -0.22    1.86
   6   4  -9    0.19    1.41
   6   4  -9   -0.63    1.66
   6   4  -9    0.20    1.16
   6   4  -9    0.57    1.06
   6   4  -8   11.31    1.94
   6   4  -8    9.98    2.50
   6   4  -8   10.44    1.98
   6   4  -7   35.49    3.44
   6   4  -7   28.59    3.47
   6   4  -7   34.96    3.45
   6   4  -7   30.98    3.32
   6   4  -7   39.70    3.30
   6   4  -6    8.94    2.04
   6   4  -6    4.20    2.08
   6   4  -6    6.09    2.01
   6   4  -6    6.07    1.60
   6   4  -6    6.02    1.83
   6   4  -6    2.90    1.71
   6   4  -6    6.71    1.74
   6   4  -5   43.37    4.02
   6   4  -5   45.59    4.22
   6   4  -5   41.08    3.82
   6   4  -5   43.56    3.69
   6   4  -5   43.30    4.07
   6   4  -5   46.98    3.93
   6   4  -4  100.62    6.58
   6   4  -4   89.68    6.49
   6   4  -4   91.96    6.39
   6   4  -4   91.23    6.30
   6   4  -4  105.21    6.73
   6   4  -4   99.81    6.57
   6   4  -3    1.46    1.76
   6   4  -3    2.23    1.41
   6   4  -3    1.47    1.40
   6   4  -2    4.32    1.63
   6   4  -2    5.81    1.94
   6   4  -2    6.71    1.72
   6   4  -2    3.74    1.94
   6   4  -1   30.05    3.39
   6   4  -1   34.07    3.25
   6   4  -1   33.21    3.23
   6   4  -1   33.58    3.57
   6   4  -1   32.16    3.28
   6   4   0   68.84    5.19
   6   4   0   69.46    4.92
   6   4   0   72.59    4.97
   6   4   0   74.46    5.35
   6   4   0   72.87    5.24
   6   4   1    3.16    1.56
   6   4   1    2.14    1.48
   6   4   1    4.02    1.45
   6   4   2    0.72    1.02
   6   4   2    1.09    1.27
   6   4   2    2.33    1.29
   6   5 -11    2.83    1.22
   6   5 -10    6.91    1.54
   6   5  -9    0.42    1.05
   6   5  -9   -0.32    1.20
   6   5  -9   -0.76    1.51
   6   5  -9    0.14    1.22
   6   5  -8    0.31    0.97
   6   5  -8   -0.52    1.24
   6   5  -8   -0.84    1.35
   6   5  -8   -1.04    1.58
   6   5  -8   -0.79    1.24
   6   5  -8   -1.23    1.26
   6   5  -7   46.66    4.14
   6   5  -7   51.24    4.49
   6   5  -7   55.37    4.34
   6   5  -7   50.40    4.26
   6   5  -7   54.80    4.16
   6   5  -6    3.49    1.52
   6   5  -6    4.08    1.75
   6   5  -6    1.93    1.77
   6   5  -6    4.81    1.58
   6   5  -6    3.91    1.43
   6   5  -6    2.90    1.74
   6   5  -5    1.88    1.62
   6   5  -5    0.21    1.62
   6   5  -5    1.26    1.46
   6   5  -5    0.61    1.06
   6   5  -5   -0.20    1.19
   6   5  -5    0.64    1.58
   6   5  -5    0.60    1.31
   6   5  -4   16.73    2.48
   6   5  -4   10.86    2.15
   6   5  -4   11.38    2.08
   6   5  -4   11.58    2.15
   6   5  -3  102.31    6.67
   6   5  -3   99.40    6.45
   6   5  -3   96.81    6.30
   6   5  -3   94.12    6.46
   6   5  -3   89.06    6.49
   6   5  -2    1.24    1.48
   6   5  -2    1.55    1.45
   6   5  -2    1.84    1.72
   6   5  -2    3.14    1.32
   6   5  -2    4.61    1.80
   6   5  -2    1.43    1.44
   6   5  -1    0.19    1.37
   6   5  -1    0.78    1.41
   6   5  -1   -0.77    1.34
   6   5   0  418.64   20.74
   6   5   0  399.81   20.76
   6   5   0  414.12   20.75
   6   5   0  424.56   20.73
   6   5   1  124.07    7.14
   6   5   1  122.35    7.30
   6   5   1  126.11    7.19
   6   6 -10   42.39    3.33
   6   6  -9    2.57    1.44
   6   6  -8   -0.16    1.15
   6   6  -8    0.53    1.43
   6   6  -8   -0.97    1.26
   6   6  -7    2.88    1.34
   6   6  -7    1.44    1.45
   6   6  -7    1.49    1.54
   6   6  -7    0.37    1.43
   6   6  -7    2.78    1.35
   6   6  -6   21.39    2.51
   6   6  -6   15.02    2.41
   6   6  -6   16.39    2.39
   6   6  -6   16.00    2.20
   6   6  -6   23.12    2.77
   6   6  -5   21.61    2.55
   6   6  -5   15.93    2.45
   6   6  -5   17.38    2.37
   6   6  -5   16.61    2.00
   6   6  -4  131.56    8.43
   6   6  -4  144.64    8.30
   6   6  -4  140.20    8.11
   6   6  -4  144.95    8.47
   6   6  -4  141.41    8.61
   6   6  -3   63.20    4.67
   6   6  -3   50.54    4.05
   6   6  -3   54.13    4.19
   6   6  -3   55.81    4.46
   6   6  -3   60.75    4.63
   6   6  -3   60.57    4.55
   6   6  -2   31.46    3.21
   6   6  -2   32.82    3.12
   6   6  -2   33.60    3.35
   6   6  -2   38.30    3.48
   6   6  -2   35.85    3.28
   6   6  -1    0.48    1.27
   6   6  -1    0.52    1.34
   6   6  -1    0.49    1.08
   6   6  -1    0.16    1.29
   6   6   0   21.63    2.45
   6   7  -9    2.31    1.12
   6   7  -8   30.90    2.80
   6   7  -7   64.54    4.36
   6   7  -7   63.22    4.28
   6   7  -7   61.55    4.37
   6   7  -7   51.23    3.87
   6   7  -6    0.57    1.14
   6   7  -6   -0.13    1.06
   6   7  -6    0.91    1.26
   6   7  -5    0.69    1.35
   6   7  -5    0.77    1.26
   6   7  -5    0.88    1.48
   6   7  -5   -0.17    1.43
   6   7  -4   38.28    3.37
   6   7  -4   35.76    3.20
   6   7  -4   31.28    3.18
   6   7  -3   35.29    3.11
   6   7  -3   32.16    3.06
   6   7  -3   29.68    2.99
   6   7  -2    2.06    1.47
   6   7  -1   13.86    1.90
   6   7  -1   13.10    1.92
   6   8  -5   15.04    1.95
   6   8  -4    0.53    1.14
   7  -9  -4   -0.13    1.00
   7  -9  -4    3.69    1.42
   7  -9  -4    2.03    1.41
   7  -9  -3    2.94    1.34
   7  -9  -3    1.14    1.40
   7  -9  -3    0.16    1.40
   7  -9  -2    6.33    1.53
   7  -9  -2    7.59    1.90
   7  -9  -2    6.59    1.79
   7  -9  -1    2.65    1.62
   7  -9   0    0.88    1.18
   7  -9   0   -1.40    1.50
   7  -9   1    5.23    1.42
   7  -9   1    4.18    1.62
   7  -9   2   42.80    3.57
   7  -8  -6    0.16    1.33
   7  -8  -6    0.55    1.25
   7  -8  -5    4.98    1.43
   7  -8  -5    7.77    2.01
   7  -8  -5    5.46    1.75
   7  -8  -4    3.40    1.47
   7  -8  -4    2.38    1.75
   7  -8  -4    1.23    1.48
   7  -8  -3   -0.33    1.26
   7  -8  -3    0.63    1.73
   7  -8  -3    1.30    1.62
   7  -8  -2   10.45    1.94
   7  -8  -2   10.45    2.47
   7  -8  -1   35.18    3.30
   7  -8  -1   33.59    3.70
   7  -8   0    5.47    1.68
   7  -8   0    4.98    2.11
   7  -8   1   -0.63    1.32
   7  -8   1   -1.25    1.81
   7  -8   2    0.57    1.21
   7  -8   2   -0.58    1.71
   7  -8   3    7.05    1.86
   7  -7  -7    0.86    1.45
   7  -7  -7    1.11    1.25
   7  -7  -6    0.14    1.16
   7  -7  -6   -0.20    1.63
   7  -7  -6   -0.99    1.46
   7  -7  -5    2.21    1.39
   7  -7  -5    2.86    1.97
   7  -7  -5    2.02    1.61
   7  -7  -4   10.32    1.97
   7  -7  -4   10.98    1.91
   7  -7  -4   12.35    2.66
   7  -7  -4    8.37    2.17
   7  -7  -3    5.43    1.67
   7  -7  -3    1.93    1.38
   7  -7  -3    4.61    2.19
   7  -7  -2    6.92    1.77
   7  -7  -2    7.27    2.11
   7  -7  -2    8.24    1.81
   7  -7  -2   11.60    2.55
   7  -7  -1   10.81    2.00
   7  -7  -1    6.50    1.73
   7  -7  -1    6.39    2.07
   7  -7   0    0.17    1.34
   7  -7   0    2.72    1.39
   7  -7   0    1.83    1.91
   7  -7   1    7.82    1.74
   7  -7   1    7.89    1.77
   7  -7   1    6.24    2.23
   7  -7   2   21.89    2.43
   7  -7   2   17.09    2.71
   7  -7   3    1.42    1.15
   7  -7   3    0.52    1.68
   7  -6  -7   32.42    3.13
   7  -6  -6   37.56    3.21
   7  -6  -6   36.14    3.48
   7  -6  -5    4.57    1.54
   7  -6  -5    5.02    2.08
   7  -6  -5    6.70    1.58
   7  -6  -5    5.41    1.95
   7  -6  -4    7.83    1.78
   7  -6  -4    8.18    2.36
   7  -6  -4    8.11    1.84
   7  -6  -4    7.00    2.08
   7  -6  -3    1.38    1.45
   7  -6  -3    1.13    1.94
   7  -6  -3    0.59    1.20
   7  -6  -2   -0.69    1.32
   7  -6  -2    3.74    2.12
   7  -6  -2    2.59    1.43
   7  -6  -2    3.41    2.40
   7  -6  -1   37.70    3.43
   7  -6  -1   31.61    3.11
   7  -6  -1   33.72    3.83
   7  -6  -1   30.36    3.89
   7  -6   0   86.38    5.57
   7  -6   0   75.23    5.19
   7  -6   0   76.11    5.96
   7  -6   0   69.70    5.03
   7  -6   0   75.14    6.07
   7  -6   1    1.80    1.45
   7  -6   1    1.54    1.36
   7  -6   1    3.10    2.20
   7  -6   1    1.25    2.05
   7  -6   2    6.40    2.41
   7  -6   2    5.21    2.27
   7  -6   3   29.44    3.51
   7  -6   3   22.98    3.23
   7  -6   4   18.16    2.72
   7  -6   4   21.97    2.76
   7  -5  -9   -0.17    1.40
   7  -5  -8    3.66    1.74
   7  -5  -8    2.05    1.98
   7  -5  -8    1.28    1.32
   7  -5  -7    0.62    1.83
   7  -5  -7    2.77    2.15
   7  -5  -7    3.69    1.69
   7  -5  -6   -1.59    2.05
   7  -5  -6   -0.18    1.04
   7  -5  -6    2.47    2.06
   7  -5  -6    0.73    1.56
   7  -5  -5    0.48    2.13
   7  -5  -5    2.04    1.24
   7  -5  -5    4.09    2.21
   7  -5  -5   -0.95    1.62
   7  -5  -4    6.21    2.52
   7  -5  -4    3.03    1.43
   7  -5  -4    4.97    2.44
   7  -5  -4    1.16    1.60
   7  -5  -3   11.73    2.85
   7  -5  -3   16.07    2.26
   7  -5  -3   11.37    2.76
   7  -5  -2   -0.78    2.28
   7  -5  -2    1.54    1.34
   7  -5  -2    0.33    1.24
   7  -5  -2    0.80    2.18
   7  -5  -1    4.82    1.59
   7  -5  -1    8.43    2.68
   7  -5  -1    6.21    1.78
   7  -5  -1    5.57    2.47
   7  -5   0  131.70    7.88
   7  -5   0  124.81    8.64
   7  -5   0  127.20    7.69
   7  -5   0  131.77    7.95
   7  -5   0  126.58    8.57
   7  -5   1   14.65    2.17
   7  -5   1   12.38    3.11
   7  -5   1   10.53    2.66
   7  -5   1   12.71    2.06
   7  -5   2    5.69    1.53
   7  -5   2    3.42    2.32
   7  -5   3   39.96    4.20
   7  -5   3   38.19    3.99
   7  -5   4   12.68    2.54
   7  -5   4    9.74    2.22
   7  -5   5    1.51    1.53
   7  -4  -9    4.17    1.91
   7  -4  -9    8.55    2.07
   7  -4  -8   -0.22    1.92
   7  -4  -8   -0.67    1.91
   7  -4  -7    0.73    2.00
   7  -4  -7    1.21    1.92
   7  -4  -7   -0.16    1.37
   7  -4  -6   32.76    3.02
   7  -4  -6   29.89    3.83
   7  -4  -6   29.92    3.75
   7  -4  -6   27.21    3.00
   7  -4  -5   65.68    4.53
   7  -4  -5   56.84    5.33
   7  -4  -5   57.83    5.20
   7  -4  -5   55.54    4.44
   7  -4  -4    2.14    2.54
   7  -4  -4    1.40    1.10
   7  -4  -4    2.43    1.30
   7  -4  -4    3.87    2.27
   7  -4  -4    2.45    1.61
   7  -4  -3    1.09    2.32
   7  -4  -3    1.94    1.27
   7  -4  -3    3.40    1.51
   7  -4  -3    1.04    2.02
   7  -4  -2    4.68    2.73
   7  -4  -2    3.35    1.35
   7  -4  -2    2.33    1.61
   7  -4  -2    2.34    2.09
   7  -4  -2    2.46    1.31
   7  -4  -1    5.12    1.52
   7  -4  -1    6.95    2.78
   7  -4  -1    7.83    2.02
   7  -4  -1    6.24    2.55
   7  -4  -1    7.18    1.74
   7  -4   0    2.28    1.36
   7  -4   0    5.32    2.73
   7  -4   0    4.13    2.46
   7  -4   0    3.00    1.40
   7  -4   1   13.36    3.10
   7  -4   1    9.86    2.83
   7  -4   1   14.84    2.27
   7  -4   2   71.13    4.96
   7  -4   2   49.60    4.94
   7  -4   3   16.90    2.82
   7  -4   4   -1.61    1.64
   7  -4   5   12.58    2.18
   7  -3 -10    6.37    1.93
   7  -3 -10    9.62    1.94
   7  -3  -9    5.41    2.23
   7  -3  -9    9.93    1.77
   7  -3  -9    4.42    1.94
   7  -3  -8   -0.75    2.23
   7  -3  -8    1.14    1.97
   7  -3  -7    4.51    2.57
   7  -3  -7    4.32    2.20
   7  -3  -6   49.45    4.96
   7  -3  -6   46.14    4.58
   7  -3  -5   28.38    3.92
   7  -3  -5   19.14    2.54
   7  -3  -5   28.33    3.50
   7  -3  -4    1.11    2.45
   7  -3  -4    0.19    1.51
   7  -3  -4   -0.25    2.03
   7  -3  -4    0.17    1.05
   7  -3  -3    5.33    2.57
   7  -3  -3    3.41    1.68
   7  -3  -3    5.93    2.32
   7  -3  -3    4.40    1.49
   7  -3  -2   17.80    3.57
   7  -3  -2   19.09    2.71
   7  -3  -2   14.59    2.87
   7  -3  -2   17.01    2.34
   7  -3  -2   18.81    2.24
   7  -3  -1   -0.22    1.78
   7  -3  -1   -0.25    2.02
   7  -3  -1   -1.03    1.42
   7  -3   0   72.82    5.32
   7  -3   0   68.52    5.65
   7  -3   1   12.14    3.11
   7  -3   1   13.55    2.77
   7  -3   1   15.32    2.40
   7  -3   2   -0.54    2.45
   7  -3   2    1.57    1.99
   7  -3   2    0.84    1.28
   7  -3   3    8.06    2.59
   7  -3   3   10.90    2.27
   7  -3   4    0.61    1.86
   7  -3   4    3.64    1.60
   7  -2 -10   16.84    2.81
   7  -2 -10   23.18    2.35
   7  -2 -10   14.71    2.32
   7  -2  -9    5.57    2.40
   7  -2  -9   12.76    2.45
   7  -2  -8    4.29    2.55
   7  -2  -8    7.05    2.27
   7  -2  -7   11.12    3.13
   7  -2  -7   15.87    2.18
   7  -2  -7   13.72    2.70
   7  -2  -6    4.76    2.76
   7  -2  -6    2.40    1.62
   7  -2  -6    1.61    1.91
   7  -2  -6    1.67    1.05
   7  -2  -5   10.36    3.01
   7  -2  -5   11.77    2.28
   7  -2  -5    8.68    2.40
   7  -2  -5   15.42    2.12
   7  -2  -4   10.72    2.25
   7  -2  -4    8.88    2.31
   7  -2  -4    9.31    1.88
   7  -2  -3   10.57    2.24
   7  -2  -3    7.72    2.27
   7  -2  -3    9.19    1.81
   7  -2  -3    7.94    1.56
   7  -2  -2    6.71    1.72
   7  -2  -2   17.87    3.47
   7  -2  -2    8.52    2.15
   7  -2  -2   12.91    2.57
   7  -2  -2   10.67    2.11
   7  -2  -2   12.91    2.01
   7  -2  -1    4.55    2.76
   7  -2  -1    5.06    2.07
   7  -2  -1    4.27    2.05
   7  -2  -1    5.85    1.79
   7  -2  -1    3.69    1.52
   7  -2   0   19.49    3.67
   7  -2   0   30.58    3.48
   7  -2   0   29.24    3.39
   7  -2   0   31.94    3.23
   7  -2   1  220.33   13.69
   7  -2   1  225.63   13.07
   7  -2   2    1.03    2.32
   7  -2   2    2.89    1.86
   7  -2   3    1.82    2.07
   7  -2   3    2.46    1.45
   7  -2   4   23.82    3.05
   7  -1 -10    0.87    2.05
   7  -1 -10    1.95    1.33
   7  -1 -10   -0.15    1.39
   7  -1  -9    2.05    2.45
   7  -1  -9    0.37    1.50
   7  -1  -8   45.78    3.75
   7  -1  -8   40.23    3.97
   7  -1  -7    1.15    1.50
   7  -1  -7    1.67    1.74
   7  -1  -7    0.53    1.13
   7  -1  -6    2.85    1.70
   7  -1  -6    1.45    1.73
   7  -1  -6    2.25    1.30
   7  -1  -5  120.91    8.48
   7  -1  -5  108.83    7.50
   7  -1  -5  124.32    7.53
   7  -1  -5  122.32    7.58
   7  -1  -4  126.06    8.47
   7  -1  -4  121.96    7.69
   7  -1  -4  118.29    7.42
   7  -1  -4  106.15    7.23
   7  -1  -4  113.91    6.85
   7  -1  -3   22.26    2.62
   7  -1  -3   22.57    3.68
   7  -1  -3   21.16    2.90
   7  -1  -3   16.32    2.65
   7  -1  -3   24.26    2.87
   7  -1  -3   28.30    2.85
   7  -1  -3   23.22    2.54
   7  -1  -2   11.49    2.15
   7  -1  -2   13.37    3.20
   7  -1  -2   13.40    2.52
   7  -1  -2   11.80    2.37
   7  -1  -2    9.80    2.04
   7  -1  -2   11.88    2.19
   7  -1  -2   11.48    2.04
   7  -1  -1    1.66    2.48
   7  -1  -1   -0.70    1.73
   7  -1  -1   -1.16    1.69
   7  -1  -1    0.22    1.33
   7  -1  -1    0.81    1.21
   7  -1   0   12.67    3.04
   7  -1   0   15.48    2.41
   7  -1   0   17.87    2.45
   7  -1   1    6.90    2.72
   7  -1   1    3.52    1.90
   7  -1   1    2.83    1.50
   7  -1   2   54.05    4.15
   7  -1   2   49.24    4.17
   7  -1   3   23.46    3.12
   7  -1   3   28.42    2.99
   7  -1   4    8.09    1.93
   7  -1   4    7.67    1.63
   7   0 -11   -0.52    1.10
   7   0 -10    9.04    1.93
   7   0  -9   60.85    5.47
   7   0  -9   57.49    4.30
   7   0  -8   92.87    6.15
   7   0  -8   98.63    6.04
   7   0  -7   16.64    3.31
   7   0  -7   14.98    2.52
   7   0  -7    9.64    1.95
   7   0  -6   -0.27    2.41
   7   0  -6   -0.43    1.69
   7   0  -6   -0.20    1.26
   7   0  -5   31.85    3.00
   7   0  -5   38.61    4.29
   7   0  -5   34.57    3.36
   7   0  -5   33.99    3.60
   7   0  -5   29.32    2.98
   7   0  -4    7.30    1.78
   7   0  -4    8.88    2.80
   7   0  -4    8.33    2.21
   7   0  -4    9.13    1.83
   7   0  -4    6.89    1.78
   7   0  -4    7.15    1.56
   7   0  -3    6.17    1.80
   7   0  -3   11.53    2.94
   7   0  -3   10.81    2.41
   7   0  -3    6.30    1.89
   7   0  -3    8.04    1.97
   7   0  -3    9.89    1.87
   7   0  -2   40.72    3.79
   7   0  -2   45.22    4.60
   7   0  -2   40.76    3.82
   7   0  -2   38.06    3.77
   7   0  -2   39.34    3.62
   7   0  -1    5.69    1.78
   7   0  -1    6.50    2.68
   7   0  -1    9.04    2.26
   7   0  -1    8.99    2.14
   7   0  -1   10.34    2.04
   7   0   0   -0.74    2.10
   7   0   0   -0.45    1.75
   7   0   0    0.43    1.33
   7   0   0   -0.41    1.25
   7   0   1    4.31    2.31
   7   0   1    4.36    1.88
   7   0   1    3.65    1.45
   7   0   2   33.99    3.71
   7   0   2   39.17    3.60
   7   0   2   42.33    3.55
   7   0   3   63.14    4.17
   7   0   3   54.12    4.00
   7   0   3   57.27    4.07
   7   1 -11   -0.17    1.58
   7   1 -11   -0.27    1.15
   7   1 -10    0.65    1.96
   7   1 -10    0.67    1.10
   7   1  -9    3.23    2.44
   7   1  -9    5.10    1.74
   7   1  -8   15.79    3.22
   7   1  -8   18.86    2.68
   7   1  -8   22.59    2.59
   7   1  -7    3.71    2.54
   7   1  -7    6.06    1.98
   7   1  -7    5.47    1.59
   7   1  -6    7.87    1.73
   7   1  -6   11.80    2.82
   7   1  -6   10.44    2.28
   7   1  -6   12.32    2.14
   7   1  -6    9.65    1.82
   7   1  -5   83.46    5.58
   7   1  -5   75.17    6.21
   7   1  -5   83.67    6.08
   7   1  -5   79.90    5.80
   7   1  -5   85.69    5.64
   7   1  -5   82.36    5.43
   7   1  -4   34.89    3.27
   7   1  -4   27.45    3.71
   7   1  -4   27.46    3.17
   7   1  -4   28.33    3.19
   7   1  -4   34.89    3.16
   7   1  -3   57.24    4.64
   7   1  -3   60.95    5.22
   7   1  -3   55.13    4.60
   7   1  -3   58.71    4.56
   7   1  -2   16.39    2.46
   7   1  -2   11.26    3.11
   7   1  -2   14.45    2.59
   7   1  -2    9.69    2.05
   7   1  -2   14.96    2.41
   7   1  -2    9.00    1.94
   7   1  -1   37.02    3.75
   7   1  -1   37.29    4.04
   7   1  -1   40.83    3.97
   7   1  -1   40.77    3.75
   7   1  -1   38.28    3.75
   7   1  -1   42.00    3.74
   7   1   0   -1.07    1.94
   7   1   0    1.25    1.69
   7   1   0   -0.20    1.28
   7   1   0    0.80    1.24
   7   1   1    0.19    1.32
   7   1   1    0.93    1.78
   7   1   1    0.94    1.43
   7   1   1    0.96    1.56
   7   1   1    1.87    1.23
   7   1   2    2.68    1.38
   7   1   2    3.32    1.42
   7   1   2    4.42    1.61
   7   1   3   -0.36    0.98
   7   2 -11    0.64    1.14
   7   2 -10    0.40    1.90
   7   2 -10    0.83    1.37
   7   2 -10    3.03    1.42
   7   2  -9   -0.23    2.02
   7   2  -9    1.27    1.46
   7   2  -8   36.35    4.30
   7   2  -8   44.86    3.98
   7   2  -7  122.83    7.28
   7   2  -7  110.09    8.04
   7   2  -7  129.67    8.06
   7   2  -7  132.62    7.88
   7   2  -7  126.74    7.34
   7   2  -6   50.90    3.94
   7   2  -6   38.68    4.46
   7   2  -6   50.37    4.37
   7   2  -6   46.41    4.06
   7   2  -6   49.52    3.95
   7   2  -6   44.64    3.65
   7   2  -5    0.75    1.42
   7   2  -5    4.73    2.33
   7   2  -5    0.75    1.20
   7   2  -5    1.92    1.45
   7   2  -5    1.91    1.39
   7   2  -5    1.24    1.25
   7   2  -4   31.91    3.16
   7   2  -4   28.78    3.54
   7   2  -4   25.59    3.25
   7   2  -4   27.82    3.11
   7   2  -4   30.51    3.09
   7   2  -3   33.84    3.39
   7   2  -3   27.33    3.51
   7   2  -3   35.28    3.48
   7   2  -3   28.81    3.44
   7   2  -3   30.87    3.36
   7   2  -3   32.86    3.23
   7   2  -2    1.68    1.57
   7   2  -2    2.10    2.00
   7   2  -2    3.70    1.89
   7   2  -2    0.63    1.30
   7   2  -2    1.71    1.58
   7   2  -2    0.82    1.36
   7   2  -1    2.49    1.79
   7   2  -1    5.55    1.98
   7   2  -1    1.41    1.26
   7   2  -1    2.81    1.42
   7   2   0    0.58    1.40
   7   2   0   -0.18    1.41
   7   2   0    0.20    1.45
   7   2   0   -0.19    1.23
   7   2   1   22.29    2.52
   7   2   1   18.14    2.28
   7   2   1   17.59    2.39
   7   2   2   -0.14    1.03
   7   2   2   -0.12    0.99
   7   2   2   -1.02    1.22
   7   3 -10    1.33    1.63
   7   3 -10    3.36    1.44
   7   3 -10    2.84    1.33
   7   3  -9    2.35    1.89
   7   3  -9    2.63    1.51
   7   3  -8   44.76    4.37
   7   3  -8   53.41    4.27
   7   3  -7   42.47    3.61
   7   3  -7   42.52    4.24
   7   3  -7   53.74    4.16
   7   3  -7   47.16    3.77
   7   3  -6   29.54    3.15
   7   3  -6   32.55    3.65
   7   3  -6   36.58    3.64
   7   3  -6   32.09    3.25
   7   3  -6   37.36    3.24
   7   3  -5   49.43    4.07
   7   3  -5   49.35    4.31
   7   3  -5   47.10    4.23
   7   3  -5   48.58    4.09
   7   3  -5   41.79    3.59
   7   3  -5   50.13    4.13
   7   3  -5   51.17    4.01
   7   3  -4  116.86    7.47
   7   3  -4  113.91    7.46
   7   3  -4  115.41    7.66
   7   3  -4  124.68    7.63
   7   3  -4  113.33    7.20
   7   3  -4  128.27    7.69
   7   3  -4  124.77    7.49
   7   3  -3   58.38    4.53
   7   3  -3   48.51    4.35
   7   3  -3   55.92    4.42
   7   3  -3   54.21    4.55
   7   3  -3   51.99    4.31
   7   3  -2    1.41    1.59
   7   3  -2    1.18    1.55
   7   3  -2    1.16    1.16
   7   3  -2    0.20    1.52
   7   3  -2   -0.20    1.31
   7   3  -1    9.70    2.01
   7   3  -1   12.16    2.16
   7   3   0   62.41    4.56
   7   3   0   59.84    4.31
   7   3   0   63.62    4.63
   7   3   1   18.37    2.17
   7   3   1   17.19    2.17
   7   4 -10    2.20    1.20
   7   4  -9   -0.42    1.16
   7   4  -8   11.08    1.64
   7   4  -8   11.82    1.75
   7   4  -7    3.19    1.37
   7   4  -7    3.30    1.78
   7   4  -7    3.25    1.47
   7   4  -6  106.91    6.84
   7   4  -6  121.33    7.31
   7   4  -6  107.02    6.87
   7   4  -6  108.61    6.73
   7   4  -5   22.85    2.76
   7   4  -5   29.29    3.12
   7   4  -5   24.99    2.61
   7   4  -5   23.07    2.83
   7   4  -5   29.78    2.89
   7   4  -4    6.92    1.82
   7   4  -4    2.13    1.58
   7   4  -4    3.56    1.57
   7   4  -4    3.52    1.83
   7   4  -4    6.17    1.68
   7   4  -3    4.21    1.59
   7   4  -3    2.18    1.53
   7   4  -3    0.53    1.41
   7   4  -3    1.56    1.64
   7   4  -3    1.69    1.31
   7   4  -2   37.94    3.47
   7   4  -2   32.07    3.21
   7   4  -2   39.67    3.52
   7   4  -1    7.93    1.79
   7   4  -1    4.97    1.44
   7   4  -1    6.69    1.72
   7   4  -1    5.88    1.60
   7   4   0    3.52    1.25
   7   4   0    1.58    1.23
   7   5  -9   -0.54    1.15
   7   5  -8   -0.15    1.18
   7   5  -7   -0.15    1.13
   7   5  -7   -1.00    1.44
   7   5  -7    0.90    1.30
   7   5  -6   35.54    3.25
   7   5  -6   38.36    3.44
   7   5  -6   37.99    3.34
   7   5  -5   33.83    3.15
   7   5  -5   27.24    2.95
   7   5  -5   26.67    2.70
   7   5  -5   35.48    3.19
   7   5  -4   -0.17    1.38
   7   5  -4    0.48    1.27
   7   5  -4   -0.93    1.26
   7   5  -4   -0.35    1.47
   7   5  -3   80.29    5.40
   7   5  -3   76.24    5.12
   7   5  -3   85.72    5.39
   7   5  -3   79.46    5.42
   7   5  -2   59.53    4.16
   7   5  -2   53.15    4.08
   7   5  -2   54.61    4.10
   7   6  -7   46.78    3.46
   7   6  -6   37.44    2.97
   7   6  -6   31.97    2.83
   8  -8  -3    0.73    1.31
   8  -8  -2    0.45    1.29
   8  -8  -1   13.60    2.09
   8  -7  -2    4.21    1.91
   8  -7  -2    5.71    1.42
   8  -7  -1   11.86    2.00
   8  -7  -1   11.37    2.17
   8  -7   0    2.75    1.56
   8  -7   1    4.36    1.60
   8  -6  -6    6.08    1.79
   8  -6  -5    3.67    1.69
   8  -6  -5    5.75    1.89
   8  -6  -4   22.36    2.70
   8  -6  -4   20.08    2.88
   8  -6  -3   24.86    3.02
   8  -6  -3   30.62    3.33
   8  -6  -2   17.82    2.70
   8  -6  -2   17.79    2.74
   8  -6  -1   18.08    2.73
   8  -6  -1   19.90    2.82
   8  -6   0   43.11    3.90
   8  -6   0   44.94    3.99
   8  -6   1   15.55    2.43
   8  -6   1   16.85    2.50
   8  -5  -7    0.50    1.42
   8  -5  -6   -0.72    1.68
   8  -5  -6    1.51    1.63
   8  -5  -5    3.15    1.95
   8  -5  -5   -0.81    1.79
   8  -5  -4    4.39    2.03
   8  -5  -4    3.79    1.93
   8  -5  -3   30.83    3.76
   8  -5  -3   41.28    3.87
   8  -5  -2    0.44    2.04
   8  -5  -2    1.08    1.78
   8  -5  -1    1.10    2.10
   8  -5  -1    2.19    1.25
   8  -5  -1    1.47    1.84
   8  -5   0   27.84    3.43
   8  -5   0   30.46    2.87
   8  -5   0   33.88    3.46
   8  -5   1   34.87    3.67
   8  -5   1   42.73    3.35
   8  -5   1   34.96    3.52
   8  -5   2    7.69    1.99
   8  -5   2    7.48    1.52
   8  -5   2    4.37    1.66
   8  -4  -8    3.08    1.51
   8  -4  -7    0.58    1.70
   8  -4  -7    1.79    1.60
   8  -4  -6    1.06    2.02
   8  -4  -6    3.73    1.85
   8  -4  -5    0.68    2.06
   8  -4  -5    1.65    1.89
   8  -4  -4    1.18    2.21
   8  -4  -4    2.13    1.97
   8  -4  -3    0.96    2.21
   8  -4  -3    1.24    1.26
   8  -4  -3    0.86    1.80
   8  -4  -2   36.14    4.11
   8  -4  -2   37.04    3.33
   8  -4  -2   36.72    3.76
   8  -4  -1   34.50    4.07
   8  -4  -1   38.32    3.50
   8  -4  -1   42.57    3.96
   8  -4   0   -0.84    1.08
   8  -4   0    0.46    2.22
   8  -4   0    0.18    1.36
   8  -4   0    0.39    1.65
   8  -4   0   -1.14    1.22
   8  -4   1   20.59    2.54
   8  -4   1   20.62    2.68
   8  -4   2   10.99    1.90
   8  -3  -8    2.11    1.82
   8  -3  -8    0.63    1.39
   8  -3  -7    0.44    1.97
   8  -3  -7   -1.07    1.58
   8  -3  -6   38.75    4.12
   8  -3  -6   32.73    3.47
   8  -3  -5   64.07    5.69
   8  -3  -5   71.53    4.79
   8  -3  -5   74.63    5.36
   8  -3  -4    6.76    2.59
   8  -3  -4    2.68    1.45
   8  -3  -4    3.45    1.91
   8  -3  -3   10.93    3.03
   8  -3  -3    5.97    1.80
   8  -3  -3    7.50    2.11
   8  -3  -2   74.07    5.18
   8  -3  -2   65.58    5.14
   8  -3  -1   28.49    2.73
   8  -3  -1   30.74    3.14
   8  -3  -1   27.31    3.07
   8  -3  -1   24.49    2.65
   8  -3   0   -0.16    1.11
   8  -3   0   -0.70    2.24
   8  -3   0    1.31    1.51
   8  -3   0    0.69    1.49
   8  -3   0    0.16    1.17
   8  -3   1   20.17    3.07
   8  -3   1   25.63    2.79
   8  -3   1   18.25    2.38
   8  -3   2  111.94    7.67
   8  -3   2  149.37    7.74
   8  -2  -9   -0.53    1.68
   8  -2  -8   21.88    3.08
   8  -2  -8   21.53    2.52
   8  -2  -7    6.93    2.52
   8  -2  -7    7.81    1.85
   8  -2  -6   -1.42    1.34
   8  -2  -6    0.88    1.46
   8  -2  -5    5.08    1.73
   8  -2  -5    3.97    1.80
   8  -2  -4    0.38    1.51
   8  -2  -4   -0.90    1.51
   8  -2  -3    5.13    2.41
   8  -2  -3    6.30    1.95
   8  -2  -3    3.17    1.61
   8  -2  -2   12.84    1.97
   8  -2  -2    9.85    2.80
   8  -2  -2   13.67    2.38
   8  -2  -2   13.21    1.98
   8  -2  -1   -0.16    1.28
   8  -2  -1   -0.73    2.25
   8  -2  -1   -0.60    1.58
   8  -2  -1   -1.50    1.32
   8  -2   0    6.00    1.57
   8  -2   0    6.06    2.35
   8  -2   0    5.26    1.78
   8  -2   0    5.11    1.62
   8  -2   1   -0.15    1.13
   8  -2   1    0.59    1.87
   8  -2   1    0.61    1.19
   8  -2   2   -0.16    1.55
   8  -2   2   -1.71    1.30
   8  -1  -7    5.16    2.30
   8  -1  -7    3.59    1.45
   8  -1  -6    1.96    2.32
   8  -1  -6    3.36    1.52
   8  -1  -5   11.00    2.87
   8  -1  -5    5.70    1.94
   8  -1  -4   37.83    4.33
   8  -1  -4   40.64    3.76
   8  -1  -3    2.98    1.27
   8  -1  -3   -1.49    2.32
   8  -1  -3   -0.20    1.56
   8  -1  -3    1.91    1.38
   8  -1  -3    1.69    1.06
   8  -1  -2   -1.34    1.33
   8  -1  -2    1.91    2.25
   8  -1  -2   -1.02    1.60
   8  -1  -2   -0.68    1.31
   8  -1  -2    0.16    1.00
   8  -1  -1   80.40    5.42
   8  -1  -1   76.94    5.96
   8  -1  -1   86.85    5.55
   8  -1   0   34.98    3.12
   8  -1   0   27.50    3.40
   8  -1   0   37.50    3.28
   8  -1   1    1.32    1.19
   8  -1   1   -0.68    1.63
   8  -1   1    0.63    1.32
   8  -1   1    0.15    1.17
   8  -1   2   21.57    2.26
   8   0  -9    1.12    1.85
   8   0  -8    3.40    2.25
   8   0  -8    4.90    1.46
   8   0  -7   24.38    3.32
   8   0  -7   26.86    2.88
   8   0  -6    3.99    2.29
   8   0  -6    4.66    1.78
   8   0  -5   50.98    4.79
   8   0  -5   54.98    4.39
   8   0  -4   42.08    3.44
   8   0  -4   42.82    4.25
   8   0  -4   45.19    4.01
   8   0  -4   41.27    3.44
   8   0  -3   17.22    2.28
   8   0  -3   11.41    2.80
   8   0  -3   19.81    2.72
   8   0  -3   15.16    2.23
   8   0  -2    3.40    1.49
   8   0  -2    0.21    1.98
   8   0  -1   27.18    2.87
   8   0  -1   26.39    3.29
   8   0  -1   35.08    3.34
   8   0  -1   32.34    3.07
   8   0   0    5.37    1.49
   8   0   0    7.11    2.01
   8   0   0    6.34    1.67
   8   0   0    5.77    1.56
   8   0   1    3.54    1.36
   8   1  -9    5.20    1.87
   8   1  -8    2.17    1.81
   8   1  -8    1.82    1.38
   8   1  -7    0.21    1.87
   8   1  -7    1.91    1.51
   8   1  -6    1.93    2.06
   8   1  -6    0.94    1.61
   8   1  -5   11.45    1.83
   8   1  -5   12.00    2.69
   8   1  -5   14.75    2.40
   8   1  -5   12.98    1.91
   8   1  -4    6.37    1.65
   8   1  -4    4.16    2.06
   8   1  -4    7.94    1.73
   8   1  -3    7.98    1.77
   8   1  -3    5.67    2.03
   8   1  -3    7.28    1.97
   8   1  -3    6.08    1.65
   8   1  -2    7.59    1.67
   8   1  -2    8.10    2.10
   8   1  -2    7.58    1.93
   8   1  -2    2.85    1.44
   8   1  -1   47.33    3.68
   8   1  -1   47.37    3.76
   8   1  -1   51.29    3.75
   8   1   0    0.55    1.21
   8   2  -8    4.38    1.86
   8   2  -8    7.75    1.67
   8   2  -7   26.84    3.14
   8   2  -7   32.47    3.06
   8   2  -6   22.30    2.91
   8   2  -6   23.10    2.74
   8   2  -5    4.72    1.39
   8   2  -5    6.41    1.97
   8   2  -5    2.70    1.34
   8   2  -4   13.04    1.99
   8   2  -4   13.61    2.28
   8   2  -4   14.85    2.31
   8   2  -4   15.87    1.95
   8   2  -4   18.86    2.29
   8   2  -3   87.66    5.62
   8   2  -3   90.56    5.83
   8   2  -3   84.23    5.41
   8   2  -3   87.89    5.69
   8   2  -2   49.27    3.77
   8   2  -2   48.98    3.83
   8   2  -2   49.00    3.80
   8   2  -1    9.07    1.63
   8   3  -8    1.09    1.17
   8   3  -6   10.20    1.97
   8   3  -5   11.90    1.98
   8   3  -4   16.96    2.14
   8   3  -4   19.28    2.33
   8   3  -4   19.19    2.27
   8   3  -3    5.29    1.51
   8   3  -3    5.57    1.34
   8   3  -2    4.39    1.28
   8   4  -6    0.40    1.13
   8   4  -5    3.55    1.32
   9  -4  -4    7.80    1.86
   9  -4  -3   -0.48    1.55
   9  -3  -5    6.93    1.92
   9  -3  -2    6.47    1.92
   9  -2  -5    1.19    1.62
   9  -2  -4   -1.55    1.73
   9  -2  -3    1.67    1.66
   9  -2  -3   -0.77    1.09
   9  -1  -5    0.33    1.56
   9  -1  -4   17.48    2.45
   9  -1  -4   15.92    1.99
   9  -1  -3   12.11    1.78
   0   0   0    0.00    0.00


TITL zhushuxiang-zsx-c1-20210405-rt in P-1
REM P-1 (#2 in standard setting)
CELL 1.54184   7.738617  11.093900  11.201224 102.2353 107.2728  99.6555
ZERR   10.00   0.000162   0.000213   0.000270   0.0018   0.0020   0.0017
LATT  1
SFAC C H N O S Cl
UNIT 10.00 10.00 10.00 10.00 10.00 10.00
TREF
HKLF 4
END
_computing_structure_solution     'SHELXT 2014/5 (Sheldrick, 2014)'
;
_shelx_hkl_checksum              10018
_olex2_submission_special_instructions 'No special instructions were received'
_oxdiff_exptl_absorpt_empirical_details
;
Empirical correction (ABSPACK) includes:
- Absorption correction using spherical harmonics
- Frame scaling
;
_oxdiff_exptl_absorpt_empirical_full_max 1.425
_oxdiff_exptl_absorpt_empirical_full_min 0.783
loop_
_space_group_symop_operation_xyz
'x, y, z'
'-x, -y, -z'
loop_
_atom_site_label
_atom_site_type_symbol
_atom_site_fract_x
_atom_site_fract_y
_atom_site_fract_z
_atom_site_U_iso_or_equiv
_atom_site_adp_type
_atom_site_occupancy
_atom_site_site_symmetry_order
_atom_site_calc_flag
_atom_site_refinement_flags_posn
_atom_site_refinement_flags_adp
_atom_site_refinement_flags_occupancy
_atom_site_disorder_assembly
_atom_site_disorder_group
S1 S 0.07494(6) 0.18032(4) 0.50609(5) 0.06526(16) Uani 1 1 d . . . . .
Cl1 Cl 0.83476(7) 0.06442(5) 0.77829(6) 0.08305(19) Uani 1 1 d . . . . .
O1 O 0.55583(17) 0.63678(10) 0.77957(13) 0.0666(3) Uani 1 1 d . . . . .
O2 O 0.34627(18) 0.66025(11) 0.60456(13) 0.0719(4) Uani 1 1 d . . . . .
N2 N 0.00809(18) 0.28545(12) 0.30933(14) 0.0573(4) Uani 1 1 d . . . . .
N1 N 0.25634(19) 0.40822(12) 0.48386(15) 0.0587(4) Uani 1 1 d . . . . .
N3 N -0.0954(2) 0.16556(13) 0.23128(17) 0.0687(4) Uani 1 1 d . . . . .
N4 N -0.1967(2) 0.17526(14) 0.12119(18) 0.0754(4) Uani 1 1 d . . . . .
C12 C 0.2958(2) 0.15578(14) 0.58413(17) 0.0529(4) Uani 1 1 d . . . . .
C13 C 0.4440(2) 0.17584(15) 0.53843(17) 0.0563(4) Uani 1 1 d . . . . .
H13 H 0.4309 0.2072 0.4664 0.068 Uiso 1 1 calc R . . . .
C15 C 0.6268(2) 0.10003(14) 0.70424(18) 0.0584(4) Uani 1 1 d . . . . .
C3 C 0.4218(2) 0.59434(16) 0.66413(18) 0.0564(4) Uani 1 1 d . . . . .
C5 C 0.1319(2) 0.30509(15) 0.43703(17) 0.0555(4) Uani 1 1 d . . . . .
C6 C -0.0319(2) 0.37443(15) 0.24305(17) 0.0562(4) Uani 1 1 d . . . . .
C14 C 0.6099(2) 0.14938(15) 0.59966(18) 0.0585(4) Uani 1 1 d . . . . .
H14 H 0.7100 0.1648 0.5705 0.070 Uiso 1 1 calc R . . . .
C4 C 0.3776(2) 0.45060(14) 0.61827(17) 0.0599(4) Uani 1 1 d . . . . .
H4A H 0.4922 0.4230 0.6269 0.072 Uiso 1 1 calc R . . . .
H4B H 0.3168 0.4140 0.6712 0.072 Uiso 1 1 calc R . . . .
C16 C 0.4800(3) 0.07664(16) 0.74921(18) 0.0637(5) Uani 1 1 d . . . . .
H16 H 0.4923 0.0419 0.8191 0.076 Uiso 1 1 calc R . . . .
C11 C -0.1630(3) 0.30363(16) 0.12359(19) 0.0636(5) Uani 1 1 d . . . . .
C17 C 0.3146(2) 0.10548(15) 0.68907(18) 0.0599(4) Uani 1 1 d . . . . .
H17 H 0.2154 0.0910 0.7192 0.072 Uiso 1 1 calc R . . . .
C7 C 0.0267(3) 0.50712(16) 0.2752(2) 0.0661(5) Uani 1 1 d . . . . .
H7 H 0.1145 0.5552 0.3553 0.079 Uiso 1 1 calc R . . . .
C2 C 0.6160(3) 0.77485(16) 0.8332(2) 0.0747(5) Uani 1 1 d . . . . .
H2A H 0.5082 0.8097 0.8290 0.090 Uiso 1 1 calc R . . . .
H2B H 0.6816 0.8118 0.7829 0.090 Uiso 1 1 calc R . . . .
C10 C -0.2419(3) 0.3606(2) 0.0292(2) 0.0770(5) Uani 1 1 d . . . . .
H10 H -0.3289 0.3128 -0.0513 0.092 Uiso 1 1 calc R . . . .
C8 C -0.0537(3) 0.56151(19) 0.1812(2) 0.0777(6) Uani 1 1 d . . . . .
H8 H -0.0190 0.6496 0.1985 0.093 Uiso 1 1 calc R . . . .
C1 C 0.7396(4) 0.8060(2) 0.9687(2) 0.0955(7) Uani 1 1 d . . . . .
H1A H 0.8469 0.7723 0.9721 0.143 Uiso 1 1 calc GR . . . .
H1B H 0.6739 0.7693 1.0180 0.143 Uiso 1 1 calc GR . . . .
H1C H 0.7791 0.8967 1.0047 0.143 Uiso 1 1 calc GR . . . .
C9 C -0.1858(3) 0.4909(2) 0.0601(2) 0.0816(6) Uani 1 1 d . . . . .
H9 H -0.2363 0.5328 -0.0004 0.098 Uiso 1 1 calc R . . . .
loop_
_atom_site_aniso_label
_atom_site_aniso_U_11
_atom_site_aniso_U_22
_atom_site_aniso_U_33
_atom_site_aniso_U_23
_atom_site_aniso_U_13
_atom_site_aniso_U_12
S1 0.0479(2) 0.0589(3) 0.0902(4) 0.0286(2) 0.0243(2) 0.00525(19)
Cl1 0.0612(3) 0.0755(3) 0.1063(4) 0.0346(3) 0.0141(3) 0.0159(2)
O1 0.0688(8) 0.0471(6) 0.0713(8) 0.0102(6) 0.0142(7) 0.0074(5)
O2 0.0778(9) 0.0535(7) 0.0809(9) 0.0246(7) 0.0204(7) 0.0124(6)
N2 0.0499(8) 0.0432(7) 0.0715(10) 0.0125(7) 0.0160(7) 0.0061(6)
N1 0.0523(8) 0.0476(7) 0.0698(10) 0.0138(7) 0.0172(7) 0.0057(6)
N3 0.0616(9) 0.0455(8) 0.0814(11) 0.0088(7) 0.0112(8) 0.0033(6)
N4 0.0703(10) 0.0555(9) 0.0806(12) 0.0094(8) 0.0108(9) 0.0041(7)
C12 0.0515(9) 0.0384(8) 0.0645(10) 0.0105(7) 0.0212(8) 0.0031(6)
C13 0.0586(10) 0.0473(8) 0.0666(11) 0.0189(8) 0.0267(9) 0.0097(7)
C15 0.0540(9) 0.0411(8) 0.0706(11) 0.0110(8) 0.0145(9) 0.0059(7)
C3 0.0521(9) 0.0501(9) 0.0653(11) 0.0153(8) 0.0224(9) 0.0050(7)
C5 0.0469(9) 0.0464(9) 0.0715(12) 0.0142(8) 0.0209(9) 0.0092(7)
C6 0.0504(9) 0.0496(9) 0.0682(11) 0.0146(8) 0.0226(9) 0.0096(7)
C14 0.0528(9) 0.0467(9) 0.0763(12) 0.0139(8) 0.0275(9) 0.0075(7)
C4 0.0573(10) 0.0453(9) 0.0697(12) 0.0148(8) 0.0166(9) 0.0043(7)
C16 0.0695(11) 0.0521(9) 0.0682(12) 0.0204(8) 0.0228(10) 0.0092(8)
C11 0.0587(10) 0.0532(9) 0.0718(12) 0.0120(9) 0.0196(9) 0.0076(8)
C17 0.0600(10) 0.0506(9) 0.0717(12) 0.0185(8) 0.0300(9) 0.0056(8)
C7 0.0680(11) 0.0510(9) 0.0740(12) 0.0153(9) 0.0221(10) 0.0078(8)
C2 0.0811(13) 0.0471(9) 0.0799(14) 0.0074(9) 0.0195(11) 0.0021(9)
C10 0.0745(13) 0.0740(13) 0.0688(13) 0.0171(10) 0.0129(11) 0.0073(10)
C8 0.0892(14) 0.0555(10) 0.0856(15) 0.0247(10) 0.0260(12) 0.0115(10)
C1 0.1058(18) 0.0680(13) 0.0810(16) 0.0031(11) 0.0100(14) 0.0016(12)
C9 0.0887(14) 0.0731(13) 0.0829(15) 0.0326(11) 0.0237(12) 0.0166(11)
loop_
_atom_type_symbol
_atom_type_description
_atom_type_scat_dispersion_real
_atom_type_scat_dispersion_imag
_atom_type_scat_source
C C 0.0181 0.0091 'International Tables Vol C Tables 4.2.6.8 and 6.1.1.4'
H H 0.0000 0.0000 'International Tables Vol C Tables 4.2.6.8 and 6.1.1.4'
Cl Cl 0.3639 0.7018 'International Tables Vol C Tables 4.2.6.8 and 6.1.1.4'
N N 0.0311 0.0180 'International Tables Vol C Tables 4.2.6.8 and 6.1.1.4'
O O 0.0492 0.0322 'International Tables Vol C Tables 4.2.6.8 and 6.1.1.4'
S S 0.3331 0.5567 'International Tables Vol C Tables 4.2.6.8 and 6.1.1.4'
loop_
_geom_angle_atom_site_label_1
_geom_angle_atom_site_label_2
_geom_angle_atom_site_label_3
_geom_angle
_geom_angle_site_symmetry_1
_geom_angle_site_symmetry_3
_geom_angle_publ_flag
C12 S1 C5 102.85(7) . . ?
C3 O1 C2 115.61(14) . . ?
N3 N2 C5 121.93(13) . . ?
C6 N2 N3 109.51(14) . . ?
C6 N2 C5 128.56(13) . . ?
C5 N1 C4 122.68(15) . . ?
N4 N3 N2 108.96(14) . . ?
N3 N4 C11 108.52(15) . . ?
C13 C12 S1 122.75(13) . . ?
C17 C12 S1 117.51(12) . . ?
C17 C12 C13 119.56(16) . . ?
C12 C13 H13 119.9 . . ?
C14 C13 C12 120.14(16) . . ?
C14 C13 H13 119.9 . . ?
C14 C15 Cl1 119.07(13) . . ?
C14 C15 C16 121.16(17) . . ?
C16 C15 Cl1 119.75(14) . . ?
O1 C3 C4 110.08(15) . . ?
O2 C3 O1 124.95(16) . . ?
O2 C3 C4 124.97(17) . . ?
N2 C5 S1 112.78(11) . . ?
N1 C5 S1 131.37(15) . . ?
N1 C5 N2 115.78(15) . . ?
N2 C6 C11 104.23(14) . . ?
N2 C6 C7 133.90(17) . . ?
C11 C6 C7 121.83(17) . . ?
C13 C14 C15 119.61(15) . . ?
C13 C14 H14 120.2 . . ?
C15 C14 H14 120.2 . . ?
N1 C4 C3 108.98(14) . . ?
N1 C4 H4A 109.9 . . ?
N1 C4 H4B 109.9 . . ?
C3 C4 H4A 109.9 . . ?
C3 C4 H4B 109.9 . . ?
H4A C4 H4B 108.3 . . ?
C15 C16 H16 120.4 . . ?
C15 C16 C17 119.14(17) . . ?
C17 C16 H16 120.4 . . ?
C6 C11 N4 108.77(17) . . ?
C6 C11 C10 121.67(17) . . ?
C10 C11 N4 129.54(18) . . ?
C12 C17 H17 119.8 . . ?
C16 C17 C12 120.35(16) . . ?
C16 C17 H17 119.8 . . ?
C6 C7 H7 122.2 . . ?
C8 C7 C6 115.60(19) . . ?
C8 C7 H7 122.2 . . ?
O1 C2 H2A 109.9 . . ?
O1 C2 H2B 109.9 . . ?
O1 C2 C1 109.04(17) . . ?
H2A C2 H2B 108.3 . . ?
C1 C2 H2A 109.9 . . ?
C1 C2 H2B 109.9 . . ?
C11 C10 H10 121.6 . . ?
C9 C10 C11 116.89(19) . . ?
C9 C10 H10 121.6 . . ?
C7 C8 H8 118.5 . . ?
C7 C8 C9 123.02(19) . . ?
C9 C8 H8 118.5 . . ?
C2 C1 H1A 109.5 . . ?
C2 C1 H1B 109.5 . . ?
C2 C1 H1C 109.5 . . ?
H1A C1 H1B 109.5 . . ?
H1A C1 H1C 109.5 . . ?
H1B C1 H1C 109.5 . . ?
C10 C9 C8 121.0(2) . . ?
C10 C9 H9 119.5 . . ?
C8 C9 H9 119.5 . . ?
loop_
_geom_bond_atom_site_label_1
_geom_bond_atom_site_label_2
_geom_bond_distance
_geom_bond_site_symmetry_2
_geom_bond_publ_flag
S1 C12 1.7688(17) . ?
S1 C5 1.7777(17) . ?
Cl1 C15 1.7304(17) . ?
O1 C3 1.323(2) . ?
O1 C2 1.459(2) . ?
O2 C3 1.200(2) . ?
N2 N3 1.3817(18) . ?
N2 C5 1.413(2) . ?
N2 C6 1.378(2) . ?
N1 C5 1.260(2) . ?
N1 C4 1.443(2) . ?
N3 N4 1.287(2) . ?
N4 C11 1.397(2) . ?
C12 C13 1.392(2) . ?
C12 C17 1.385(2) . ?
C13 H13 0.9300 . ?
C13 C14 1.376(2) . ?
C15 C14 1.376(3) . ?
C15 C16 1.381(2) . ?
C3 C4 1.513(2) . ?
C6 C11 1.385(3) . ?
C6 C7 1.399(2) . ?
C14 H14 0.9300 . ?
C4 H4A 0.9700 . ?
C4 H4B 0.9700 . ?
C16 H16 0.9300 . ?
C16 C17 1.383(2) . ?
C11 C10 1.385(3) . ?
C17 H17 0.9300 . ?
C7 H7 0.9300 . ?
C7 C8 1.366(3) . ?
C2 H2A 0.9700 . ?
C2 H2B 0.9700 . ?
C2 C1 1.463(3) . ?
C10 H10 0.9300 . ?
C10 C9 1.373(3) . ?
C8 H8 0.9300 . ?
C8 C9 1.398(3) . ?
C1 H1A 0.9600 . ?
C1 H1B 0.9600 . ?
C1 H1C 0.9600 . ?
C9 H9 0.9300 . ?
