#------------------------------------------------------------------------------
#$Date: 2021-10-01 01:16:56 +0300 (Fri, 01 Oct 2021) $
#$Revision: 269405 $
#$URL: file:///home/coder/svn-repositories/cod/cif/1/56/47/1564775.cif $
#------------------------------------------------------------------------------
#
# This file is available in the Crystallography Open Database (COD),
# http://www.crystallography.net/
#
# All data on this site have been placed in the public domain by the
# contributors.
#
data_1564775
loop_
_publ_author_name
'Turner, Gemma F.'
'McKellar, Scott C.'
'Allan, David R.'
'Cheetham, Anthony K.'
'Henke, Sebastian'
'Moggach, Stephen A.'
_publ_section_title
;
 Guest-mediated phase transitions in a flexible pillared-layered
 metal--organic framework under high-pressure
;
_journal_name_full               'Chemical Science'
_journal_paper_doi               10.1039/D1SC03108B
_journal_year                    2021
_chemical_formula_moiety         '(C22 H20 N2 O8 Zn2)n. 4(C3H7NO)'
_chemical_formula_sum            'C34 H48 N6 O12 Zn2'
_chemical_formula_weight         863.55
_space_group_IT_number           123
_space_group_name_Hall           '-P 4 2'
_space_group_name_H-M_alt        'P 4/m m m'
_symmetry_cell_setting           tetragonal
_symmetry_space_group_name_Hall  '-P 4 2'
_symmetry_space_group_name_H-M   'P 4/m m m'
_atom_sites_solution_hydrogens   difmap
_atom_sites_solution_primary     other
_audit_creation_date             2021-05-26
_audit_creation_method           CRYSTALS_ver_14.61_build_6999
_audit_update_record
;
2021-06-03 deposited with the CCDC.	2021-09-29 downloaded from the CCDC.
;
_cell_angle_alpha                90
_cell_angle_beta                 90
_cell_angle_gamma                90
_cell_formula_units_Z            1
_cell_length_a                   10.6890(6)
_cell_length_b                   10.6890(6)
_cell_length_c                   9.6506(5)
_cell_measurement_reflns_used    4883
_cell_measurement_temperature    298
_cell_measurement_theta_max      17
_cell_measurement_theta_min      2
_cell_volume                     1102.63(10)
_computing_cell_refinement       'USER DEFINED CELL REFINEMENT'
_computing_data_collection       'USER DEFINED DATA COLLECTION'
_computing_data_reduction        'Apex2 (Bruker AXS, 2006)'
_computing_molecular_graphics    'CAMERON (Watkin et al., 1996)'
_computing_publication_material  'CRYSTALS (Betteridge et al., 2003)'
_computing_structure_refinement  'CRYSTALS (Betteridge et al., 2003)'
_computing_structure_solution    'Superflip (Palatinus & Chapuis, 2007)'
_diffrn_ambient_pressure         330000
_diffrn_ambient_temperature      298
_diffrn_measured_fraction_theta_full 0.837
_diffrn_measured_fraction_theta_max 0.837
_diffrn_measurement_device       Area
_diffrn_measurement_device_type  Synchrotron
_diffrn_measurement_method       \w
_diffrn_radiation_monochromator  'focussing mirrors'
_diffrn_radiation_type           synchrotron
_diffrn_radiation_wavelength     0.48590
_diffrn_reflns_av_R_equivalents  0.093
_diffrn_reflns_av_unetI/netI     0.130
_diffrn_reflns_limit_h_max       6
_diffrn_reflns_limit_h_min       -9
_diffrn_reflns_limit_k_max       13
_diffrn_reflns_limit_k_min       -13
_diffrn_reflns_limit_l_max       12
_diffrn_reflns_limit_l_min       -12
_diffrn_reflns_number            5314
_diffrn_reflns_theta_full        17.687
_diffrn_reflns_theta_max         17.687
_diffrn_reflns_theta_min         2.340
_diffrn_standards_number         0
_exptl_absorpt_coefficient_mu    1.114
_exptl_absorpt_correction_T_max  0.95
_exptl_absorpt_correction_T_min  0.58
_exptl_absorpt_correction_type   multi-scan
_exptl_absorpt_process_details   'SADABS (Siemens, 1996)'
_exptl_crystal_colour            colourless
_exptl_crystal_density_diffrn    1.301
_exptl_crystal_density_meas      ?
_exptl_crystal_density_method    'not measured'
_exptl_crystal_description       plate
_exptl_crystal_F_000             1800
_exptl_crystal_size_max          0.150
_exptl_crystal_size_mid          0.150
_exptl_crystal_size_min          0.050
_platon_squeeze_details
;
see text for details
;
_refine_diff_density_max         1.74
_refine_diff_density_min         -0.79
_refine_ls_extinction_method     None
_refine_ls_goodness_of_fit_ref   1.0063
_refine_ls_hydrogen_treatment    constr
_refine_ls_matrix_type           full
_refine_ls_number_parameters     51
_refine_ls_number_reflns         557
_refine_ls_number_restraints     167
_refine_ls_R_factor_all          0.1292
_refine_ls_R_factor_gt           0.1169
_refine_ls_shift/su_max          0.0001492
_refine_ls_shift/su_mean         0.0000141
_refine_ls_structure_factor_coef Fsqd
_refine_ls_weighting_details
;
 Method= Modified Sheldrick 
 w=1/[\s^2^(F^2^) + ( 0.17P)^2^ + 0.75P] 
 ,where P=(max(Fo^2^,0) + 2Fc^2^)/3 
;
_refine_ls_weighting_scheme      calc
_refine_ls_wR_factor_all         0.4487
_refine_ls_wR_factor_gt          0.4331
_refine_ls_wR_factor_ref         0.2030
_reflns_limit_h_max              8
_reflns_limit_h_min              0
_reflns_limit_k_max              13
_reflns_limit_k_min              0
_reflns_limit_l_max              12
_reflns_limit_l_min              0
_reflns_number_gt                506
_reflns_number_total             600
_reflns_threshold_expression     I>2.0\s(I)
_oxford_diffrn_Wilson_B_factor   1.77
_oxford_diffrn_Wilson_scale      17.49
_oxford_refine_ls_r_factor_ref   0.0800
_oxford_refine_ls_scale          0.546(6)
_oxford_reflns_number_all        600
_iucr_refine_instructions_details
;
#
# Punched on 26/05/21 at 00:29:13
#
#LIST     12                                                                    
BLOCK SCALE X'S  U'S 
RIDE C   (   3,X'S) H   (  32,X'S) 
RIDE C   (   4,X'S) H   (  41,X'S) 
RIDE C   (   5,X'S) H   (  51,X'S) 
END                                                                             
#
# Punched on 26/05/21 at 00:29:13
#
#LIST     16                                                                    
DIST   1.472,.01= N(1) TO C(4) 
DIST   1.472,.01= N(1) TO C(5) 
DIST   1.472,.01= N(1) TO C(4,2) 
DIST   1.472,.01= N(1) TO C(4,3) 
DIST   1.472,.01= N(1) TO C(4,4) 
DIST   1.252,.01= O(1) TO C(1) 
DIST   1.499,.01= C(1) TO C(2) 
DIST   1.375,.01= C(2) TO C(3) 
DIST   1.375,.01= C(2) TO C(3,-3,1,0,0,1) 
DIST   1.397,.01= C(3) TO C(3,5,1,1) 
DIST   1.540,.01= C(4) TO C(4,-3,1,0,0,2) 
DIST   1.540,.01= C(5) TO C(5,-7,1,0,0,2) 
ANGL 120,1= C(2) TO C(1) TO O(1) 
ANGL 120,1= C(3) TO C(2) TO C(1) 
ANGL 120, 1 = C(3) TO C(2) TO C(3,-3,1,0,0,1) 
REM   HREST   START (DO NOT REMOVE THIS LINE) 
REM   HREST   END (DO NOT REMOVE THIS LINE) 
PLANAR 0.010000 O(1) C(1) C(2) C(3) 
PLANAR 0.010000 C(4) N(1) C(4,3) C(4,-8,1,0,0,2) 
PLANAR 0.010000 C(5) N(1) C(5,7) C(5,-7,1,0,0,2) 
REM   DELU   START (DO NOT REMOVE THIS LINE) 
VIBR .0, 0.00200 = N(1) TO C(5,2) 
VIBR .0, 0.00200 = N(1) TO C(5,3) 
VIBR .0, 0.00200 = N(1) TO C(5,4) 
VIBR .0, 0.00200 = N(1) TO C(4,2) 
VIBR .0, 0.00200 = N(1) TO C(4,7) 
VIBR .0, 0.00200 = N(1) TO C(4,3) 
VIBR .0, 0.00200 = N(1) TO C(4) 
VIBR .0, 0.00200 = N(1) TO C(5) 
VIBR .0, 0.00500 = C(5,3) TO C(5,2) 
VIBR .0, 0.00500 = C(5,4) TO C(5,2) 
VIBR .0, 0.00500 = C(5,4) TO C(5,3) 
VIBR .0, 0.00500 = C(4,2) TO C(5,2) 
VIBR .0, 0.00500 = C(4,2) TO C(5,3) 
VIBR .0, 0.00500 = C(4,2) TO C(5,4) 
VIBR .0, 0.00500 = C(4,7) TO C(5,2) 
VIBR .0, 0.00500 = C(4,7) TO C(5,3) 
VIBR .0, 0.00500 = C(4,7) TO C(5,4) 
VIBR .0, 0.00500 = C(4,7) TO C(4,2) 
VIBR .0, 0.00500 = C(4,3) TO C(5,2) 
VIBR .0, 0.00500 = C(4,3) TO C(5,3) 
VIBR .0, 0.00500 = C(4,3) TO C(5,4) 
VIBR .0, 0.00500 = C(4,3) TO C(4,2) 
VIBR .0, 0.00500 = C(4,3) TO C(4,7) 
VIBR .0, 0.00500 = C(4) TO C(5,2) 
VIBR .0, 0.00500 = C(4) TO C(5,3) 
VIBR .0, 0.00500 = C(4) TO C(5,4) 
VIBR .0, 0.00500 = C(4) TO C(4,2) 
VIBR .0, 0.00500 = C(4) TO C(4,7) 
VIBR .0, 0.00500 = C(4) TO C(4,3) 
VIBR .0, 0.00500 = C(5) TO C(5,2) 
VIBR .0, 0.00500 = C(5) TO C(5,3) 
VIBR .0, 0.00500 = C(5) TO C(5,4) 
VIBR .0, 0.00500 = C(5) TO C(4,2) 
VIBR .0, 0.00500 = C(5) TO C(4,7) 
VIBR .0, 0.00500 = C(5) TO C(4,3) 
VIBR .0, 0.00500 = C(5) TO C(4) 
VIBR .0, 0.00200 = O(1) TO O(1,6) 
VIBR .0, 0.00200 = O(1) TO O(1,7) 
VIBR .0, 0.00200 = O(1) TO C(1) 
VIBR .0, 0.00500 = O(1,7) TO O(1,6) 
VIBR .0, 0.00500 = C(1) TO O(1,6) 
VIBR .0, 0.00500 = C(1) TO O(1,7) 
VIBR .0, 0.00200 = C(1) TO C(1,7) 
VIBR .0, 0.00200 = C(1) TO C(2) 
VIBR .0, 0.00500 = O(1,-3,1,0,0,1) TO C(1,7) 
VIBR .0, 0.00500 = O(1) TO C(1,7) 
VIBR .0, 0.00500 = O(1) TO O(1,-3,1,0,0,1) 
VIBR .0, 0.00500 = C(2) TO C(1,7) 
VIBR .0, 0.00500 = C(2) TO O(1,-3,1,0,0,1) 
VIBR .0, 0.00500 = C(2) TO O(1) 
VIBR .0, 0.00200 = C(2) TO C(3,-3,1,0,0,1) 
VIBR .0, 0.00200 = C(2) TO C(2,-5,1,0,0,1) 
VIBR .0, 0.00200 = C(2) TO C(3) 
VIBR .0, 0.00500 = C(3,-3,1,0,0,1) TO C(1) 
VIBR .0, 0.00500 = C(2,-5,1,0,0,1) TO C(1) 
VIBR .0, 0.00500 = C(2,-5,1,0,0,1) TO C(3,-3,1,0,0,1) 
VIBR .0, 0.00500 = C(3) TO C(1) 
VIBR .0, 0.00500 = C(3) TO C(3,-3,1,0,0,1) 
VIBR .0, 0.00500 = C(3) TO C(2,-5,1,0,0,1) 
VIBR .0, 0.00200 = C(3) TO C(3,5,1,1) 
VIBR .0, 0.00500 = C(2) TO C(3,5,1,1) 
VIBR .0, 0.00200 = C(4) TO C(4,-3,1,0,0,2) 
VIBR .0, 0.00500 = N(1) TO C(4,-3,1,0,0,2) 
VIBR .0, 0.00200 = C(5) TO C(5,-3,1,0,0,2) 
VIBR .0, 0.00500 = N(1) TO C(5,-3,1,0,0,2) 
REM   DELU   END (DO NOT REMOVE THIS LINE) 
REM   THERMSIM   START (DO NOT REMOVE THIS LINE) 
U(IJ) .0, 0.04000 = N(1) TO C(5,2) 
U(IJ) .0, 0.04000 = N(1) TO C(5,3) 
U(IJ) .0, 0.04000 = N(1) TO C(5,4) 
U(IJ) .0, 0.04000 = N(1) TO C(4,2) 
U(IJ) .0, 0.04000 = N(1) TO C(4,7) 
U(IJ) .0, 0.04000 = N(1) TO C(4,3) 
U(IJ) .0, 0.04000 = N(1) TO C(4) 
U(IJ) .0, 0.04000 = N(1) TO C(5) 
U(IJ) .0, 0.04000 = O(1) TO O(1,6) 
U(IJ) .0, 0.04000 = O(1) TO O(1,7) 
U(IJ) .0, 0.04000 = O(1) TO C(1) 
U(IJ) .0, 0.04000 = C(1) TO C(1,7) 
U(IJ) .0, 0.04000 = C(1) TO C(2) 
U(IJ) .0, 0.04000 = C(2) TO C(3,-3,1,0,0,1) 
U(IJ) .0, 0.04000 = C(2) TO C(2,-5,1,0,0,1) 
U(IJ) .0, 0.04000 = C(2) TO C(3) 
U(IJ) .0, 0.04000 = C(3) TO C(3,5,1,1) 
U(IJ) .0, 0.04000 = C(4) TO C(4,-3,1,0,0,2) 
U(IJ) .0, 0.04000 = C(5) TO C(5,-3,1,0,0,2) 
REM   THERMSIM   END (DO NOT REMOVE THIS LINE) 
END                                                                             
;
_cod_data_source_file            d1sc03108b2.cif
_cod_data_source_block           2_DMF_033GPa
_cod_depositor_comments
;
The following automatic conversions were performed:

data item '_exptl_crystal_density_meas' value 'not measured' was
changed to '?' -- the value is perceived as not measured.

Automatic conversion script
Id: cif_fix_values 7556 2019-12-06 15:28:31Z antanas 
;
_cod_original_cell_volume        1102.63(14)
_cod_original_sg_symbol_H-M      'P 4/m m m '
_cod_database_code               1564775
_platon_squeeze_void_probe_radius 1.20
_oxford_refine_reflns_threshold_expression_ref I>-10.0\s(I)
_iucr_refine_reflections_details
; 
 
# Data was input as F-squared 
# punching LIST  6 as LIST  6 with all keys set 
# NBGNXT=    36 
#LIST   6 
READ NCOEF= 8 TYPE=FIX, F'S = FSQ UNIT=DATA, CHECK=NO L30=NO ARCH=NO 
STORE  NCOEF= 6 
OUTPUT INDICES     /FO/        SIGMA(/FO/) RATIO/JCODE CORRECTIONS SERIAL 
CONT 
INPUT  H           K           L           /FO/        SIGMA(/FO/) JCODE 
CONT   CORRECTIONS SERIAL 
FOR (I4,I4,I4,F10.2,F8.2,F4.0,F7.4,F7.0) 
END 
   0  -3   0    228.07   15.98  0. 1.0000     0. 
   0   3   0    234.19   16.18  0. 1.0000     0. 
   0   3   0    226.90   16.02  0. 1.0000     0. 
   0   3   0    218.88   16.17  0. 1.0000     0. 
   0   4   0    228.16   15.98  0. 1.0000     0. 
   0   4   0    209.37   16.06  0. 1.0000     0. 
   0   4   0    223.64   16.22  0. 1.0000     0. 
   0  -4   0    216.40   15.88  0. 1.0000     0. 
   1   4   0    446.62   31.21  0. 1.0000     0. 
   1  -4   0    470.76   31.48  0. 1.0000     0. 
  -1   4   0    434.87   31.72  0. 1.0000     0. 
  -1   4   0    454.78   31.43  0. 1.0000     0. 
   1   4   0    443.66   31.65  0. 1.0000     0. 
   1  -4   0    454.33   31.76  0. 1.0000     0. 
  -2   4   0    535.90   36.17  0. 1.0000     0. 
   2  -4   0    497.51   36.09  0. 1.0000     0. 
  -3   4   0    517.06   34.95  0. 1.0000     0. 
  -3   4   0    477.40   34.68  0. 1.0000     0. 
  -4   5   0    444.81   31.81  0. 1.0000     0. 
   0   6   0    122.79   12.57  0. 1.0000     0. 
   0  -6   0    133.26   11.85  0. 1.0000     0. 
   0   6   0    122.81   11.65  0. 1.0000     0. 
   0  -6   0    160.39   12.29  0. 1.0000     0. 
  -1   6   0    831.85   55.90  0. 1.0000     0. 
   1   6   0    779.10   56.00  0. 1.0000     0. 
  -2   6   0    620.66   43.48  0. 1.0000     0. 
   2   6   0    624.87   43.55  0. 1.0000     0. 
   2  -6   0    617.38   43.62  0. 1.0000     0. 
  -2   6   0    627.68   44.09  0. 1.0000     0. 
  -3   6   0    633.88   43.98  0. 1.0000     0. 
   3  -6   0    607.63   44.14  0. 1.0000     0. 
  -4   6   0    614.20   43.46  0. 1.0000     0. 
   0   7   0     56.90    8.51  0. 1.0000     0. 
   0  -7   0     72.61   10.71  0. 1.0000     0. 
   0   7   0     71.34   10.79  0. 1.0000     0. 
   0  -7   0     79.06   10.32  0. 1.0000     0. 
   1   7   0    452.77   36.59  0. 1.0000     0. 
  -1   7   0    513.23   36.60  0. 1.0000     0. 
   1  -7   0    514.68   35.88  0. 1.0000     0. 
   1   7   0    509.47   36.21  0. 1.0000     0. 
  -1   7   0    516.23   36.33  0. 1.0000     0. 
   1  -7   0    507.56   36.63  0. 1.0000     0. 
   2   7   0    556.12   40.20  0. 1.0000     0. 
  -2   7   0    545.93   40.04  0. 1.0000     0. 
   2  -7   0    574.30   39.94  0. 1.0000     0. 
  -2   7   0    553.09   40.13  0. 1.0000     0. 
   2  -7   0    584.96   40.63  0. 1.0000     0. 
   3  -7   0    524.05   37.53  0. 1.0000     0. 
   3  -7   0    538.67   38.39  0. 1.0000     0. 
  -3   7   0    507.11   38.29  0. 1.0000     0. 
  -3   7   0    527.15   37.66  0. 1.0000     0. 
  -4   7   0    257.11   21.25  0. 1.0000     0. 
  -4   7   0    273.66   21.86  0. 1.0000     0. 
  -5   7   0    122.26   14.33  0. 1.0000     0. 
   0   8   0    106.28   13.99  0. 1.0000     0. 
   0   8   0    133.02   14.49  0. 1.0000     0. 
   0  -8   0    129.78   13.74  0. 1.0000     0. 
   0  -8   0    124.09   14.44  0. 1.0000     0. 
  -1   8   0    169.47   17.18  0. 1.0000     0. 
   1  -8   0    172.91   17.12  0. 1.0000     0. 
   1   8   0    195.48   17.63  0. 1.0000     0. 
  -1   8   0    156.86   17.70  0. 1.0000     0. 
   1   8   0    165.77   16.56  0. 1.0000     0. 
   1  -8   0    180.27   16.13  0. 1.0000     0. 
   2   8   0    255.18   22.01  0. 1.0000     0. 
   2  -8   0    260.68   21.73  0. 1.0000     0. 
  -2   8   0    260.52   21.71  0. 1.0000     0. 
   2  -8   0    242.34   22.94  0. 1.0000     0. 
  -2   8   0    264.80   23.03  0. 1.0000     0. 
  -3   8   0    335.27   25.01  0. 1.0000     0. 
   3  -8   0    320.99   26.39  0. 1.0000     0. 
  -3   8   0    303.32   27.05  0. 1.0000     0. 
   3  -8   0    323.08   25.26  0. 1.0000     0. 
  -4   8   0    279.60   20.75  0. 1.0000     0. 
  -4   8   0    218.69   22.19  0. 1.0000     0. 
  -5   8   0    123.47   15.88  0. 1.0000     0. 
   0  -9   0     98.95   14.34  0. 1.0000     0. 
   0   9   0    101.83   14.81  0. 1.0000     0. 
   0  -9   0     98.57   13.36  0. 1.0000     0. 
   0   9   0     99.32   15.81  0. 1.0000     0. 
  -1   9   0    131.87   15.69  0. 1.0000     0. 
   1  -9   0    176.17   17.23  0. 1.0000     0. 
  -1   9   0    134.20   17.50  0. 1.0000     0. 
   1   9   0    146.31   16.83  0. 1.0000     0. 
   1  -9   0    144.84   15.79  0. 1.0000     0. 
   1   9   0    161.78   19.16  0. 1.0000     0. 
  -2   9   0    357.79   27.60  0. 1.0000     0. 
  -2   9   0    330.90   26.28  0. 1.0000     0. 
   2  -9   0    318.58   27.09  0. 1.0000     0. 
   2   9   0    325.51   26.67  0. 1.0000     0. 
   2  -9   0    327.21   26.14  0. 1.0000     0. 
  -3   9   0    238.22   21.94  0. 1.0000     0. 
   3  -9   0    224.42   20.56  0. 1.0000     0. 
  -3   9   0    257.15   20.90  0. 1.0000     0. 
   3  -9   0    213.78   22.70  0. 1.0000     0. 
  -4   9   0    118.48   15.31  0. 1.0000     0. 
  -4   9   0    111.77   17.43  0. 1.0000     0. 
   4  -9   0    117.62   14.12  0. 1.0000     0. 
  -5   9   0     93.76   16.49  0. 1.0000     0. 
  -6   9   0     79.68   11.17  0. 1.0000     0. 
   0 -10   0    162.99   17.50  0. 1.0000     0. 
   0  10   0    150.71   18.79  0. 1.0000     0. 
   0 -10   0    145.99   17.19  0. 1.0000     0. 
   0  10   0    148.32   17.80  0. 1.0000     0. 
   1 -10   0     89.22   13.78  0. 1.0000     0. 
   1  10   0     85.87   10.56  0. 1.0000     0. 
  -1  10   0    103.84   13.88  0. 1.0000     0. 
   1 -10   0     91.59   16.55  0. 1.0000     0. 
  -1  10   0     79.27   10.20  0. 1.0000     0. 
  -1 -10   0     69.49   13.45  0. 1.0000     0. 
  -2  10   0    154.01   16.49  0. 1.0000     0. 
   2 -10   0    141.71   17.91  0. 1.0000     0. 
   2 -10   0    122.17   16.00  0. 1.0000     0. 
   2  10   0    155.27   19.00  0. 1.0000     0. 
  -2  10   0    162.23   19.38  0. 1.0000     0. 
   3 -10   0    126.77   18.15  0. 1.0000     0. 
  -3  10   0    145.32   16.45  0. 1.0000     0. 
  -3  10   0    151.33   20.03  0. 1.0000     0. 
   3 -10   0    135.40   16.44  0. 1.0000     0. 
   4 -10   0    143.82   17.68  0. 1.0000     0. 
   4 -10   0    122.83   15.75  0. 1.0000     0. 
  -4  10   0     96.55   13.00  0. 1.0000     0. 
  -4  10   0    120.62   16.90  0. 1.0000     0. 
   5 -10   0    103.99   14.05  0. 1.0000     0. 
  -5  10   0     89.68   11.94  0. 1.0000     0. 
  -5  10   0     93.36   14.49  0. 1.0000     0. 
  -6  10   0     71.02   12.09  0. 1.0000     0. 
   0 -11   0    162.14   18.31  0. 1.0000     0. 
   0  11   0    147.69   21.66  0. 1.0000     0. 
   0 -11   0    183.32   19.38  0. 1.0000     0. 
   0  11   0    146.92   19.19  0. 1.0000     0. 
  -1  11   0    144.58   16.54  0. 1.0000     0. 
   1  11   0    114.77   18.80  0. 1.0000     0. 
   1 -11   0    136.99   17.81  0. 1.0000     0. 
   1  11   0    132.89   17.15  0. 1.0000     0. 
  -1 -11   0    116.16   17.51  0. 1.0000     0. 
   1 -11   0    130.19   19.01  0. 1.0000     0. 
  -2  11   0    141.13   20.41  0. 1.0000     0. 
   2 -11   0    112.29   15.91  0. 1.0000     0. 
   2 -11   0    130.85   18.25  0. 1.0000     0. 
   2  11   0    131.13   17.98  0. 1.0000     0. 
  -2  11   0    142.52   16.38  0. 1.0000     0. 
  -3  11   0    111.33   19.57  0. 1.0000     0. 
   3 -11   0    103.37   18.06  0. 1.0000     0. 
  -3  11   0    106.51   15.15  0. 1.0000     0. 
   3 -11   0     98.53   15.40  0. 1.0000     0. 
  -4  11   0     52.99   11.18  0. 1.0000     0. 
  -4  11   0     33.45    8.39  0. 1.0000     0. 
   4 -11   0     31.82    8.50  0. 1.0000     0. 
   4 -11   0     61.58   11.84  0. 1.0000     0. 
   5 -11   0     46.84    9.86  0. 1.0000     0. 
  -5  11   0     43.10    8.77  0. 1.0000     0. 
   6 -11   0     14.62    8.48  0. 1.0000     0. 
  -6  11   0     13.72   10.17  0. 1.0000     0. 
   0  12   0     60.84   10.71  0. 1.0000     0. 
   0  12   0     89.67   13.98  0. 1.0000     0. 
   0 -12   0     99.08   17.29  0. 1.0000     0. 
   1 -12   0     57.27   10.96  0. 1.0000     0. 
  -1  12   0     64.48   12.35  0. 1.0000     0. 
   1  12   0     82.69   15.93  0. 1.0000     0. 
  -1 -12   0     52.44   11.24  0. 1.0000     0. 
  -1  12   0     40.37    8.60  0. 1.0000     0. 
   1  12   0     43.57   10.97  0. 1.0000     0. 
   1 -12   0     50.39    9.51  0. 1.0000     0. 
   2 -12   0     58.32   11.32  0. 1.0000     0. 
  -2  12   0     59.10   12.02  0. 1.0000     0. 
   2 -12   0     65.93   10.39  0. 1.0000     0. 
   2  12   0     62.93   10.92  0. 1.0000     0. 
  -2 -12   0     56.42   10.27  0. 1.0000     0. 
  -2  12   0     50.99    9.13  0. 1.0000     0. 
  -3  12   0     54.45    9.78  0. 1.0000     0. 
   3 -12   0     48.97    9.65  0. 1.0000     0. 
  -3  12   0     49.00   12.37  0. 1.0000     0. 
   3 -12   0     38.66   10.58  0. 1.0000     0. 
  -4  12   0     40.63    9.93  0. 1.0000     0. 
   4 -12   0     24.59   11.28  0. 1.0000     0. 
  -4  12   0     24.59   12.19  0. 1.0000     0. 
   4 -12   0     25.51    9.63  0. 1.0000     0. 
  -5  12   0     46.28   12.33  0. 1.0000     0. 
   5 -12   0     26.01    9.31  0. 1.0000     0. 
  -5  12   0     26.43    8.66  0. 1.0000     0. 
   0  13   0     30.59    8.70  0. 1.0000     0. 
   0  13   0     79.65   15.66  0. 1.0000     0. 
   0 -13   0     50.74   11.40  0. 1.0000     0. 
  -1  13   0     49.92   12.48  0. 1.0000     0. 
   1  13   0     42.21   11.20  0. 1.0000     0. 
  -1  13   0     16.87    7.95  0. 1.0000     0. 
  -1 -13   0     19.00    9.82  0. 1.0000     0. 
   1 -13   0     27.72   10.13  0. 1.0000     0. 
   1  13   0     55.59   16.88  0. 1.0000     0. 
   1 -13   0     37.07   10.22  0. 1.0000     0. 
   2 -13   0     21.08    9.98  0. 1.0000     0. 
   2 -13   0     21.34    9.63  0. 1.0000     0. 
  -2  13   0     28.80   10.42  0. 1.0000     0. 
   2  13   0     15.44    9.81  0. 1.0000     0. 
  -2  13   0     23.09    8.12  0. 1.0000     0. 
  -2 -13   0      9.40    8.98  0. 1.0000     0. 
   3 -13   0     28.49    9.19  0. 1.0000     0. 
  -3  13   0     19.40    8.38  0. 1.0000     0. 
   3 -13   0     39.52   11.32  0. 1.0000     0. 
  -3  13   0     27.74   12.80  0. 1.0000     0. 
  -1   1   1     44.07    3.61  0. 1.0000     0. 
   1  -1  -1     45.09    3.65  0. 1.0000     0. 
   1  -1  -1     45.67    3.66  0. 1.0000     0. 
  -1   1   1     43.43    3.55  0. 1.0000     0. 
   0   2   1    336.44   24.20  0. 1.0000     0. 
   0   2   1    366.81   24.11  0. 1.0000     0. 
   0  -2  -1    349.59   24.06  0. 1.0000     0. 
  -1   2   1     50.84    4.79  0. 1.0000     0. 
  -1   2   1     46.61    3.96  0. 1.0000     0. 
  -1   2   1     59.23    4.55  0. 1.0000     0. 
  -1   2   1     45.50    4.85  0. 1.0000     0. 
   1  -2   1     47.26    4.60  0. 1.0000     0. 
  -1  -2  -1     61.83    5.59  0. 1.0000     0. 
  -1   2   1     48.68    4.53  0. 1.0000     0. 
   1  -2   1     47.67    4.14  0. 1.0000     0. 
   1  -2  -1     49.00    4.56  0. 1.0000     0. 
   1  -2  -1     47.12    4.23  0. 1.0000     0. 
   1  -2  -1     53.13    5.60  0. 1.0000     0. 
  -1   2  -1     51.17    4.42  0. 1.0000     0. 
  -1   2  -1     50.98    4.67  0. 1.0000     0. 
  -1   2  -1     46.68    4.13  0. 1.0000     0. 
   2  -2  -1    163.45   11.69  0. 1.0000     0. 
   0  -3  -1    143.59   11.29  0. 1.0000     0. 
   0   3   1    158.87   11.44  0. 1.0000     0. 
   0  -3   1    149.20   11.09  0. 1.0000     0. 
   0   3  -1    149.43   11.43  0. 1.0000     0. 
   0   3   1    150.32   10.97  0. 1.0000     0. 
   0   3  -1    164.31   11.58  0. 1.0000     0. 
   0   3  -1    170.90   11.23  0. 1.0000     0. 
   0   3   1    153.91   11.66  0. 1.0000     0. 
   0  -3   1    144.90   10.86  0. 1.0000     0. 
   0   3   1    164.34   11.72  0. 1.0000     0. 
  -3   3   1     36.51    5.03  0. 1.0000     0. 
   0  -4   1     92.25    7.61  0. 1.0000     0. 
   0   4   1    100.79    8.01  0. 1.0000     0. 
   0   4  -1    106.62    8.64  0. 1.0000     0. 
   0  -4  -1    106.64    8.69  0. 1.0000     0. 
   0   4  -1     95.18    8.64  0. 1.0000     0. 
   0   4   1    104.27    8.71  0. 1.0000     0. 
   0   4   1    112.72    7.37  0. 1.0000     0. 
   0   4   1     97.08    8.98  0. 1.0000     0. 
   0   4  -1    105.68    8.92  0. 1.0000     0. 
   0   4  -1    106.93    8.17  0. 1.0000     0. 
   0  -4   1    102.98    8.48  0. 1.0000     0. 
   0   4   1    109.16    9.30  0. 1.0000     0. 
   1   4  -1    197.13   14.29  0. 1.0000     0. 
   1  -4   1    196.04   14.02  0. 1.0000     0. 
   1   4  -1    193.85   14.56  0. 1.0000     0. 
  -1   4   1    188.18   15.01  0. 1.0000     0. 
  -1   4   1    165.10   14.57  0. 1.0000     0. 
   1  -4   1    173.15   13.99  0. 1.0000     0. 
  -1   4   1    179.27   13.24  0. 1.0000     0. 
  -1   4   1    200.63   14.24  0. 1.0000     0. 
   1  -4   1    183.61   13.04  0. 1.0000     0. 
   1   4  -1    178.24   13.68  0. 1.0000     0. 
   1  -4  -1    202.44   12.85  0. 1.0000     0. 
  -1   4  -1    199.97   14.01  0. 1.0000     0. 
   1  -4  -1    193.35   13.38  0. 1.0000     0. 
   1  -4  -1    181.35   14.72  0. 1.0000     0. 
  -1   4  -1    172.74   14.92  0. 1.0000     0. 
   1  -4  -1    184.12   14.45  0. 1.0000     0. 
  -1   4  -1    173.33   14.61  0. 1.0000     0. 
   1   4   1    182.37   14.11  0. 1.0000     0. 
   1   4   1    191.53   14.63  0. 1.0000     0. 
  -2   4   1    241.37   18.50  0. 1.0000     0. 
   2  -4   1    229.82   18.20  0. 1.0000     0. 
  -2   4   1    233.83   19.54  0. 1.0000     0. 
  -2   4   1    247.43   18.36  0. 1.0000     0. 
  -2   4  -1    253.95   18.05  0. 1.0000     0. 
   2  -4  -1    249.76   18.63  0. 1.0000     0. 
  -2   4  -1    250.83   18.41  0. 1.0000     0. 
  -2   4  -1    241.40   18.55  0. 1.0000     0. 
   2  -4  -1    286.20   17.38  0. 1.0000     0. 
  -3   4   1    143.21   12.49  0. 1.0000     0. 
  -3   4   1    146.74   11.95  0. 1.0000     0. 
  -3   4  -1    150.69   12.22  0. 1.0000     0. 
  -3   4  -1    154.04   12.34  0. 1.0000     0. 
   0  -5   1    191.16   13.82  0. 1.0000     0. 
   0  -5   1    226.63   15.17  0. 1.0000     0. 
   0   5  -1    175.13   14.83  0. 1.0000     0. 
   0  -5  -1    176.62   15.19  0. 1.0000     0. 
   0  -5   1    178.26   14.89  0. 1.0000     0. 
   0   5   1    186.86   15.34  0. 1.0000     0. 
   0  -5  -1    234.04   15.52  0. 1.0000     0. 
   0   5  -1    213.04   15.18  0. 1.0000     0. 
   0   5   1    211.28   15.44  0. 1.0000     0. 
   1  -5   1    679.34   48.14  0. 1.0000     0. 
   1   5   1    695.49   48.59  0. 1.0000     0. 
   1  -5  -1    727.65   48.36  0. 1.0000     0. 
   2  -5   1    244.05   18.52  0. 1.0000     0. 
  -2   5   1    250.36   19.08  0. 1.0000     0. 
  -2   5   1    243.01   18.35  0. 1.0000     0. 
  -2   5   1    214.97   17.04  0. 1.0000     0. 
  -2   5  -1    249.06   18.95  0. 1.0000     0. 
  -2   5  -1    251.19   18.15  0. 1.0000     0. 
  -2   5  -1    247.55   19.79  0. 1.0000     0. 
   2  -5  -1    260.21   17.25  0. 1.0000     0. 
   2   5   1    243.64   18.50  0. 1.0000     0. 
   2  -5  -1    241.20   18.73  0. 1.0000     0. 
  -3   5   1    224.91   17.62  0. 1.0000     0. 
  -3   5   1    217.54   17.49  0. 1.0000     0. 
  -3   5  -1    223.54   17.52  0. 1.0000     0. 
  -3   5  -1    231.31   17.03  0. 1.0000     0. 
  -4   5   1     94.22   10.35  0. 1.0000     0. 
  -4   5  -1     77.94    9.55  0. 1.0000     0. 
   0   6   1      1.30    1.41  0. 1.0000     0. 
   0  -6   1      2.75    3.33  0. 1.0000     0. 
   0  -6   1     -0.23    4.10  0. 1.0000     0. 
   0   6   1     -2.70    3.68  0. 1.0000     0. 
   0  -6  -1      2.40    3.98  0. 1.0000     0. 
   0   6  -1      2.61    3.76  0. 1.0000     0. 
   0   6   1      0.28    2.61  0. 1.0000     0. 
   0  -6   1      1.16    1.44  0. 1.0000     0. 
   0  -6  -1      4.21    3.88  0. 1.0000     0. 
   0   6   1     -2.06    3.04  0. 1.0000     0. 
   0   6  -1     -0.35    2.89  0. 1.0000     0. 
  -1   6   1    183.57   15.47  0. 1.0000     0. 
   1  -6   1    183.07   15.82  0. 1.0000     0. 
   1   6  -1    185.47   14.86  0. 1.0000     0. 
   1   6  -1    184.59   15.58  0. 1.0000     0. 
  -1   6   1    163.54   15.86  0. 1.0000     0. 
   1  -6   1    185.99   14.98  0. 1.0000     0. 
  -1   6  -1    194.30   15.58  0. 1.0000     0. 
   1  -6  -1    183.91   15.84  0. 1.0000     0. 
   1   6   1    177.44   14.94  0. 1.0000     0. 
   1   6   1    142.85   15.63  0. 1.0000     0. 
   1  -6  -1    188.77   15.14  0. 1.0000     0. 
  -1   6  -1    179.38   14.91  0. 1.0000     0. 
   2   6  -1    193.13   15.43  0. 1.0000     0. 
   2  -6   1    191.11   15.11  0. 1.0000     0. 
  -2   6   1    204.77   15.49  0. 1.0000     0. 
   2  -6   1    164.30   15.07  0. 1.0000     0. 
  -2   6   1    184.07   17.64  0. 1.0000     0. 
  -2   6   1    164.98   13.05  0. 1.0000     0. 
   2  -6  -1    189.56   12.77  0. 1.0000     0. 
   2   6   1    182.31   15.60  0. 1.0000     0. 
  -2   6  -1    182.91   16.59  0. 1.0000     0. 
   2  -6  -1    187.87   15.95  0. 1.0000     0. 
   2  -6  -1    176.17   16.12  0. 1.0000     0. 
  -2   6  -1    194.65   14.75  0. 1.0000     0. 
  -3   6   1    146.60   13.04  0. 1.0000     0. 
  -3   6   1    131.46   13.70  0. 1.0000     0. 
  -3   6  -1    134.47   12.70  0. 1.0000     0. 
   3  -6  -1    132.12   13.76  0. 1.0000     0. 
  -3   6  -1    124.43   13.51  0. 1.0000     0. 
  -4   6   1     92.26   11.47  0. 1.0000     0. 
  -4   6   1     90.81   10.33  0. 1.0000     0. 
  -4   6  -1     92.64   10.90  0. 1.0000     0. 
   0   7  -1     -0.55    4.14  0. 1.0000     0. 
   0   7   1      2.27    3.46  0. 1.0000     0. 
   0  -7  -1      0.68    5.38  0. 1.0000     0. 
   0   7   1     -3.71    4.98  0. 1.0000     0. 
   0   7  -1      3.67    4.63  0. 1.0000     0. 
   0   7   1      0.69    1.65  0. 1.0000     0. 
   0  -7  -1     -0.36    4.63  0. 1.0000     0. 
   0  -7   1      0.67    4.51  0. 1.0000     0. 
   0   7   1      5.08    2.78  0. 1.0000     0. 
   0  -7   1     -4.05    4.47  0. 1.0000     0. 
  -1   7   1     77.09   11.42  0. 1.0000     0. 
   1   7  -1     77.51   11.23  0. 1.0000     0. 
   1  -7   1     78.92    9.75  0. 1.0000     0. 
  -1   7   1     89.48   12.89  0. 1.0000     0. 
   1   7  -1     81.93   12.40  0. 1.0000     0. 
   1  -7   1     73.58   10.61  0. 1.0000     0. 
  -1   7  -1     79.33   11.54  0. 1.0000     0. 
   1   7   1     80.36   12.37  0. 1.0000     0. 
   1  -7  -1     77.06   11.68  0. 1.0000     0. 
   1  -7  -1     72.35   10.19  0. 1.0000     0. 
   1   7   1     80.60   11.51  0. 1.0000     0. 
  -1   7  -1     80.95   10.36  0. 1.0000     0. 
   2  -7   1     65.65    9.80  0. 1.0000     0. 
   2   7  -1     70.50   10.63  0. 1.0000     0. 
  -2   7   1     73.16   11.12  0. 1.0000     0. 
   2  -7   1     67.30    9.92  0. 1.0000     0. 
  -2   7   1     77.04   10.53  0. 1.0000     0. 
   2  -7  -1     70.09   11.27  0. 1.0000     0. 
  -2   7  -1     57.67    9.94  0. 1.0000     0. 
   2  -7  -1     60.00    9.84  0. 1.0000     0. 
  -2   7  -1     73.47   10.90  0. 1.0000     0. 
   2   7   1     65.38   10.85  0. 1.0000     0. 
  -3   7   1     43.16    6.00  0. 1.0000     0. 
   3  -7   1     60.20    4.85  0. 1.0000     0. 
  -3   7   1     66.52   10.17  0. 1.0000     0. 
   3  -7   1     61.62   10.43  0. 1.0000     0. 
  -3   7   1     58.81    8.08  0. 1.0000     0. 
  -3   7  -1     62.42    9.73  0. 1.0000     0. 
  -3   7  -1     67.11   11.29  0. 1.0000     0. 
   3  -7  -1     68.83   11.79  0. 1.0000     0. 
   3  -7  -1     48.58    7.25  0. 1.0000     0. 
  -4   7   1     13.96    5.44  0. 1.0000     0. 
  -4   7   1     31.35    6.70  0. 1.0000     0. 
  -4   7  -1     28.96    6.03  0. 1.0000     0. 
  -4   7  -1     19.19    5.01  0. 1.0000     0. 
  -5   7   1     -1.99    6.08  0. 1.0000     0. 
  -5   7  -1      2.11    5.03  0. 1.0000     0. 
   0  -8  -1      7.62    6.03  0. 1.0000     0. 
   0  -8  -1     14.64    6.15  0. 1.0000     0. 
   0  -8   1      6.65    5.60  0. 1.0000     0. 
   0   8   1      7.23    5.57  0. 1.0000     0. 
   0   8   1      4.94    5.74  0. 1.0000     0. 
   0  -8   1      9.15    5.34  0. 1.0000     0. 
   0   8  -1     15.67    5.79  0. 1.0000     0. 
   0   8  -1     13.76    5.77  0. 1.0000     0. 
   1   8  -1      2.01    6.45  0. 1.0000     0. 
  -1   8   1      2.54    5.75  0. 1.0000     0. 
  -1   8   1      4.87    5.77  0. 1.0000     0. 
   1   8  -1      7.77    5.28  0. 1.0000     0. 
   1  -8   1     13.82    5.83  0. 1.0000     0. 
   1  -8   1      6.09    6.36  0. 1.0000     0. 
   1   8   1      6.10    5.41  0. 1.0000     0. 
   1  -8  -1      2.81    6.44  0. 1.0000     0. 
  -1   8  -1      1.25    5.45  0. 1.0000     0. 
   1  -8  -1      1.49    6.10  0. 1.0000     0. 
   1   8   1     17.15    6.44  0. 1.0000     0. 
  -1   8  -1     -0.03    5.07  0. 1.0000     0. 
   2  -8   1     39.64    7.51  0. 1.0000     0. 
  -2   8   1     40.97    7.10  0. 1.0000     0. 
   2  -8   1     37.00    7.48  0. 1.0000     0. 
  -2   8   1     43.33    7.63  0. 1.0000     0. 
   2  -8  -1     30.36    8.01  0. 1.0000     0. 
   2  -8  -1     27.81    7.16  0. 1.0000     0. 
  -2   8  -1     34.38    7.37  0. 1.0000     0. 
  -2   8  -1     39.26    6.80  0. 1.0000     0. 
   3  -8   1     54.99    8.05  0. 1.0000     0. 
  -3   8   1     42.66    7.28  0. 1.0000     0. 
   3  -8   1     44.90    8.33  0. 1.0000     0. 
  -3   8   1     54.02    9.30  0. 1.0000     0. 
  -3   8  -1     52.85    8.73  0. 1.0000     0. 
   3  -8  -1     70.96    8.85  0. 1.0000     0. 
   3  -8  -1     55.83    8.86  0. 1.0000     0. 
  -3   8  -1     43.61    7.15  0. 1.0000     0. 
  -5   8   1     -3.58    6.81  0. 1.0000     0. 
  -5   8  -1     -1.25    5.99  0. 1.0000     0. 
   0   9  -1     17.35    6.43  0. 1.0000     0. 
   0   9   1     14.39    7.01  0. 1.0000     0. 
   0   9   1     15.72    7.58  0. 1.0000     0. 
   0  -9  -1     10.70    7.08  0. 1.0000     0. 
   0  -9  -1     11.55    7.58  0. 1.0000     0. 
   0   9  -1     14.06    6.94  0. 1.0000     0. 
   0  -9   1     11.99    6.54  0. 1.0000     0. 
   0  -9   1     17.99    6.63  0. 1.0000     0. 
  -1   9   1      6.82    6.23  0. 1.0000     0. 
   1   9  -1      8.89    5.79  0. 1.0000     0. 
  -1   9   1     11.64    7.06  0. 1.0000     0. 
   1  -9   1     15.22    6.43  0. 1.0000     0. 
   1   9  -1      9.18    7.82  0. 1.0000     0. 
   1  -9   1     16.07    7.26  0. 1.0000     0. 
  -1   9  -1     23.86    6.82  0. 1.0000     0. 
   1   9   1     16.62    3.49  0. 1.0000     0. 
   1   9   1     20.76    6.90  0. 1.0000     0. 
   1  -9  -1     11.31    6.28  0. 1.0000     0. 
  -1   9  -1      9.17    5.66  0. 1.0000     0. 
   1   9   1     10.98    8.03  0. 1.0000     0. 
   1   9   1     13.23    2.55  0. 1.0000     0. 
   1  -9  -1     18.19    7.89  0. 1.0000     0. 
  -1  -9   1     14.52    3.82  0. 1.0000     0. 
  -2   9   1     23.47    6.85  0. 1.0000     0. 
   2  -9   1     36.60    7.85  0. 1.0000     0. 
  -2   9   1     46.18    8.65  0. 1.0000     0. 
   2   9  -1     48.54    7.84  0. 1.0000     0. 
   2  -9   1     35.74    7.59  0. 1.0000     0. 
   2  -9  -1     48.94    8.07  0. 1.0000     0. 
   2  -9  -1     55.13    9.64  0. 1.0000     0. 
  -2   9  -1     32.57    6.80  0. 1.0000     0. 
   2   9   1     42.64    7.73  0. 1.0000     0. 
  -2   9  -1     44.51    7.99  0. 1.0000     0. 
   3  -9   1     17.65    7.26  0. 1.0000     0. 
   3  -9   1     31.64    8.55  0. 1.0000     0. 
  -3   9   1     35.29    7.37  0. 1.0000     0. 
  -3   9   1     22.20    7.70  0. 1.0000     0. 
   3  -9  -1     33.28    8.04  0. 1.0000     0. 
   3  -9  -1     24.61    8.25  0. 1.0000     0. 
  -3   9  -1     27.00    6.79  0. 1.0000     0. 
  -3   9  -1     33.17    7.93  0. 1.0000     0. 
   4  -9   1      5.45    6.17  0. 1.0000     0. 
  -4   9   1      9.78    6.49  0. 1.0000     0. 
  -4   9   1     19.59    7.68  0. 1.0000     0. 
   4  -9  -1     16.79    8.26  0. 1.0000     0. 
  -4   9  -1      7.23    5.53  0. 1.0000     0. 
   4  -9  -1     12.95    6.84  0. 1.0000     0. 
  -4   9  -1     23.67    7.23  0. 1.0000     0. 
  -5   9   1      9.16    7.61  0. 1.0000     0. 
  -5   9   1     14.29    6.12  0. 1.0000     0. 
  -5   9  -1      5.15    7.13  0. 1.0000     0. 
  -6   9   1     11.20    8.14  0. 1.0000     0. 
  -6   9  -1      9.62    7.41  0. 1.0000     0. 
   0 -10   1     18.44    7.14  0. 1.0000     0. 
   0 -10   1      9.26    7.14  0. 1.0000     0. 
   0  10  -1      6.21    6.98  0. 1.0000     0. 
   0  10  -1     12.62    7.20  0. 1.0000     0. 
   0 -10  -1      8.92    7.18  0. 1.0000     0. 
   0  10   1     19.38    7.97  0. 1.0000     0. 
   0  10   1     13.86    8.37  0. 1.0000     0. 
   0 -10  -1     10.53    7.93  0. 1.0000     0. 
  -1  10   1     19.99    7.05  0. 1.0000     0. 
   1  10  -1      3.02    6.72  0. 1.0000     0. 
   1  10  -1      0.08    9.19  0. 1.0000     0. 
  -1  10   1      8.47    7.44  0. 1.0000     0. 
  -1 -10  -1      5.75    6.84  0. 1.0000     0. 
   1 -10   1      7.59    7.75  0. 1.0000     0. 
   1 -10   1     10.03    7.08  0. 1.0000     0. 
   1  10   1      5.60    7.30  0. 1.0000     0. 
  -1 -10   1      5.42    5.81  0. 1.0000     0. 
   1 -10  -1      5.33    7.74  0. 1.0000     0. 
  -1  10  -1      4.39    6.14  0. 1.0000     0. 
  -1  10  -1      3.08    6.13  0. 1.0000     0. 
   1  10   1      4.25    8.92  0. 1.0000     0. 
   1 -10  -1      6.42    6.74  0. 1.0000     0. 
  -2  10   1     37.93    9.60  0. 1.0000     0. 
   2 -10   1     38.97    7.96  0. 1.0000     0. 
   2  10  -1     28.16    8.42  0. 1.0000     0. 
   2 -10   1     27.98    7.97  0. 1.0000     0. 
  -2  10   1     32.41    7.27  0. 1.0000     0. 
   2 -10  -1     21.17    7.46  0. 1.0000     0. 
  -2  10  -1     38.96    8.82  0. 1.0000     0. 
   2  10   1     32.89    8.53  0. 1.0000     0. 
   2 -10  -1     27.03    8.60  0. 1.0000     0. 
  -2  10  -1     26.82    6.70  0. 1.0000     0. 
   3 -10   1     37.87    9.54  0. 1.0000     0. 
   3 -10   1     43.85    8.70  0. 1.0000     0. 
  -3  10   1     18.11    6.85  0. 1.0000     0. 
  -3  10   1     38.90    9.07  0. 1.0000     0. 
   3 -10  -1     32.22    8.98  0. 1.0000     0. 
   3 -10  -1     38.78    9.81  0. 1.0000     0. 
  -3  10  -1     24.35    7.10  0. 1.0000     0. 
  -3  10  -1     28.55    8.88  0. 1.0000     0. 
   4 -10   1     22.86    7.72  0. 1.0000     0. 
  -4  10   1     14.26    7.28  0. 1.0000     0. 
  -4  10   1     33.82    9.66  0. 1.0000     0. 
   4 -10  -1     42.59   10.10  0. 1.0000     0. 
   4 -10  -1     11.60    7.95  0. 1.0000     0. 
  -4  10  -1     26.15    8.49  0. 1.0000     0. 
  -4  10  -1     20.14    6.77  0. 1.0000     0. 
   5 -10   1     21.33    7.51  0. 1.0000     0. 
  -5  10   1     10.21    6.82  0. 1.0000     0. 
  -5  10   1     23.83    8.89  0. 1.0000     0. 
  -5  10  -1     18.22    8.38  0. 1.0000     0. 
   5 -10  -1     23.88    8.01  0. 1.0000     0. 
  -6  10   1     36.39   11.01  0. 1.0000     0. 
  -6  10  -1     28.81    9.19  0. 1.0000     0. 
   0  11   1     53.07   10.71  0. 1.0000     0. 
   0 -11  -1     40.04    9.84  0. 1.0000     0. 
   0  11   1     67.57   11.28  0. 1.0000     0. 
   0  11  -1     58.70    9.03  0. 1.0000     0. 
   0 -11   1     55.47   10.09  0. 1.0000     0. 
   0 -11  -1     46.21    9.44  0. 1.0000     0. 
   0  11  -1     65.41   10.84  0. 1.0000     0. 
   1 -11   1     22.27    8.15  0. 1.0000     0. 
  -1  11   1     24.51    8.93  0. 1.0000     0. 
   1 -11   1     28.86    8.15  0. 1.0000     0. 
   1  11  -1     31.54   11.69  0. 1.0000     0. 
  -1 -11  -1     34.04   10.07  0. 1.0000     0. 
  -1  11   1     23.64    7.80  0. 1.0000     0. 
   1  11  -1     25.20    8.34  0. 1.0000     0. 
  -1  11  -1     25.42    9.30  0. 1.0000     0. 
   1  11   1     27.33    9.37  0. 1.0000     0. 
  -1 -11   1     30.60    8.56  0. 1.0000     0. 
  -1  11  -1     22.45    6.87  0. 1.0000     0. 
   1  11   1     42.95   12.58  0. 1.0000     0. 
   1 -11  -1     35.33    9.53  0. 1.0000     0. 
   1 -11  -1     25.04    9.90  0. 1.0000     0. 
   2 -11   1     25.46    8.16  0. 1.0000     0. 
  -2  11   1     25.34    7.37  0. 1.0000     0. 
   2 -11   1     26.48    8.82  0. 1.0000     0. 
   2  11  -1     37.54    8.81  0. 1.0000     0. 
  -2  11   1     38.04   10.74  0. 1.0000     0. 
  -2  11  -1     36.03    9.47  0. 1.0000     0. 
   2 -11  -1     38.81    8.74  0. 1.0000     0. 
   2 -11  -1     45.85   10.40  0. 1.0000     0. 
   2  11   1     18.38    8.58  0. 1.0000     0. 
  -2  11  -1     28.43    7.22  0. 1.0000     0. 
   3 -11   1     27.85    9.61  0. 1.0000     0. 
   3 -11   1     26.52    8.21  0. 1.0000     0. 
  -3  11   1     33.41   10.61  0. 1.0000     0. 
  -3  11   1     27.14    7.40  0. 1.0000     0. 
   3  11  -1      2.26    8.57  0. 1.0000     0. 
   3 -11  -1     29.75    9.51  0. 1.0000     0. 
  -3  11  -1     38.28   10.03  0. 1.0000     0. 
   3 -11  -1     18.50    8.03  0. 1.0000     0. 
  -3  11  -1     28.45    7.73  0. 1.0000     0. 
  -4  11   1     13.24   10.05  0. 1.0000     0. 
  -4  11   1      3.25    7.29  0. 1.0000     0. 
   4 -11   1      4.45    7.63  0. 1.0000     0. 
   4 -11  -1      8.89    9.93  0. 1.0000     0. 
   4 -11  -1      2.57    7.45  0. 1.0000     0. 
  -4  11  -1     11.62    7.67  0. 1.0000     0. 
  -4  11  -1      6.35    9.39  0. 1.0000     0. 
  -5  11   1     15.57    7.55  0. 1.0000     0. 
  -5  11   1     20.11   10.66  0. 1.0000     0. 
   5 -11  -1     13.38    8.18  0. 1.0000     0. 
  -5  11  -1     12.48    9.47  0. 1.0000     0. 
  -5  11  -1      9.48    6.55  0. 1.0000     0. 
  -6  11   1     25.61   11.93  0. 1.0000     0. 
   6 -11   1      2.64    8.60  0. 1.0000     0. 
  -6  11  -1     12.60   10.36  0. 1.0000     0. 
   6 -11  -1     -4.73    8.14  0. 1.0000     0. 
  -7  11   1    -17.34   18.12  0. 1.0000     0. 
   0  12   1     38.17   10.16  0. 1.0000     0. 
   0 -12  -1     42.83   10.70  0. 1.0000     0. 
   0  12   1     41.43   12.48  0. 1.0000     0. 
   0 -12   1     40.29   10.43  0. 1.0000     0. 
   0  12  -1     40.00   11.59  0. 1.0000     0. 
   1 -12   1     18.41    8.31  0. 1.0000     0. 
   1 -12   1     12.61    8.22  0. 1.0000     0. 
   1  12  -1      8.01    8.80  0. 1.0000     0. 
  -1 -12  -1      7.69    9.46  0. 1.0000     0. 
  -1  12   1     10.36   11.03  0. 1.0000     0. 
  -1  12   1      7.17    7.00  0. 1.0000     0. 
  -1 -12   1     11.08    8.61  0. 1.0000     0. 
  -1  12  -1     13.48    7.37  0. 1.0000     0. 
   1 -12  -1     13.41    9.55  0. 1.0000     0. 
   1  12   1     12.17   10.60  0. 1.0000     0. 
   1  12   1     51.96   15.86  0. 1.0000     0. 
   1 -12  -1     17.76    8.62  0. 1.0000     0. 
   2  12  -1      8.98    7.94  0. 1.0000     0. 
  -2  12   1     13.29    7.25  0. 1.0000     0. 
  -2  12   1     15.89   11.56  0. 1.0000     0. 
   2 -12   1     20.12    8.39  0. 1.0000     0. 
  -2 -12  -1     11.12    8.92  0. 1.0000     0. 
   2 -12   1     20.39    9.02  0. 1.0000     0. 
   2 -12  -1     11.21    8.62  0. 1.0000     0. 
   2 -12  -1     18.71    9.97  0. 1.0000     0. 
  -2 -12   1      9.20    7.82  0. 1.0000     0. 
  -2  12  -1     14.29    6.94  0. 1.0000     0. 
   2  12   1     11.24    9.39  0. 1.0000     0. 
   3  12  -1     -5.20    9.13  0. 1.0000     0. 
   3 -12   1     13.23    8.15  0. 1.0000     0. 
   3 -12   1     18.20   10.18  0. 1.0000     0. 
  -3  12   1     14.24    7.37  0. 1.0000     0. 
   3 -12  -1      9.44    8.10  0. 1.0000     0. 
  -3  12  -1     12.47    7.59  0. 1.0000     0. 
   3  12   1     -8.10   11.20  0. 1.0000     0. 
   3 -12  -1      6.96   10.17  0. 1.0000     0. 
  -4  12   1     13.90   11.84  0. 1.0000     0. 
  -4  12   1     -0.83    7.55  0. 1.0000     0. 
   4 -12   1     -6.01    8.32  0. 1.0000     0. 
   4 -12  -1     10.81    8.58  0. 1.0000     0. 
  -4  12  -1      5.44   10.78  0. 1.0000     0. 
  -4  12  -1      1.23    7.62  0. 1.0000     0. 
   4 -12  -1     22.70   11.57  0. 1.0000     0. 
   5 -12   1     18.19    9.14  0. 1.0000     0. 
  -5  12   1     17.91   12.26  0. 1.0000     0. 
  -5  12   1     10.21    7.89  0. 1.0000     0. 
  -5  12  -1     11.85    8.13  0. 1.0000     0. 
   5 -12  -1     12.88    8.94  0. 1.0000     0. 
  -5  12  -1      8.09   10.92  0. 1.0000     0. 
   0  13  -1     23.56    8.57  0. 1.0000     0. 
   0 -13   1     17.44   10.00  0. 1.0000     0. 
   0  13  -1     22.99   13.49  0. 1.0000     0. 
   1  13  -1     15.50    9.65  0. 1.0000     0. 
   1 -13   1     17.34    9.19  0. 1.0000     0. 
  -1 -13  -1      7.76    9.93  0. 1.0000     0. 
  -1  13   1      9.33    7.85  0. 1.0000     0. 
   1 -13   1     12.89    8.63  0. 1.0000     0. 
  -1  13   1     13.76   12.51  0. 1.0000     0. 
  -1  13  -1     11.49   10.60  0. 1.0000     0. 
   1  13   1      3.64   10.80  0. 1.0000     0. 
   1 -13  -1     11.63    8.72  0. 1.0000     0. 
  -1  13  -1     -0.70    7.02  0. 1.0000     0. 
   1 -13  -1     11.89    9.76  0. 1.0000     0. 
  -1 -13   1     12.04    9.26  0. 1.0000     0. 
   1  13   1     61.79   17.35  0. 1.0000     0. 
  -2  13   1      0.94   10.78  0. 1.0000     0. 
   2 -13   1      0.40    8.85  0. 1.0000     0. 
   2 -13   1      0.08    9.13  0. 1.0000     0. 
   2  13  -1      1.88    9.45  0. 1.0000     0. 
  -2 -13  -1      7.44    9.44  0. 1.0000     0. 
  -2  13   1      1.63    7.80  0. 1.0000     0. 
  -2  13  -1      7.94   10.37  0. 1.0000     0. 
   2 -13  -1     -0.54   10.13  0. 1.0000     0. 
  -2 -13   1     -0.70    8.71  0. 1.0000     0. 
  -2  13  -1      3.18    7.30  0. 1.0000     0. 
   2  13   1      6.36   10.68  0. 1.0000     0. 
   2 -13  -1      6.25    9.78  0. 1.0000     0. 
  -1   0   2     17.94    2.34  0. 1.0000     0. 
   0  -1  -2     22.87    3.36  0. 1.0000     0. 
   0   1  -2     14.67    2.76  0. 1.0000     0. 
   0  -1  -2     13.25    2.74  0. 1.0000     0. 
   1   0  -2     21.23    3.33  0. 1.0000     0. 
   1   0   2     19.79    3.53  0. 1.0000     0. 
  -1   0   2     13.53    2.55  0. 1.0000     0. 
   1   0  -2     15.24    2.86  0. 1.0000     0. 
   0  -1   2     14.76    2.43  0. 1.0000     0. 
   0  -1  -2     23.13    3.77  0. 1.0000     0. 
   0   1  -2     26.11    3.56  0. 1.0000     0. 
   0  -1  -2     17.73    2.21  0. 1.0000     0. 
   0   1   2     19.93    2.27  0. 1.0000     0. 
   0   1   2     18.33    2.38  0. 1.0000     0. 
   0   1   2     16.50    2.32  0. 1.0000     0. 
   1   0   2     18.53    2.25  0. 1.0000     0. 
   0  -1  -2     15.01    2.28  0. 1.0000     0. 
   0   1   2     20.44    2.30  0. 1.0000     0. 
   0   1   2     22.10    2.40  0. 1.0000     0. 
   0   1  -2     20.12    2.27  0. 1.0000     0. 
   0  -1   2     23.60    2.60  0. 1.0000     0. 
  -1   1   2     94.40    7.94  0. 1.0000     0. 
   1   1   2    121.95    7.73  0. 1.0000     0. 
  -1   1  -2    108.87    7.61  0. 1.0000     0. 
   1  -1  -2    108.78    7.79  0. 1.0000     0. 
   1  -1  -2    121.61    8.34  0. 1.0000     0. 
  -1   1   2    106.30    7.84  0. 1.0000     0. 
   1  -1   2    120.05    7.65  0. 1.0000     0. 
  -1  -1   2     95.69    7.93  0. 1.0000     0. 
   1  -1   2    107.08    8.12  0. 1.0000     0. 
   1  -1  -2    100.11    8.04  0. 1.0000     0. 
  -1  -1   2     95.13    7.89  0. 1.0000     0. 
  -1   1   2     92.12    7.63  0. 1.0000     0. 
  -1   1   2     98.17    8.00  0. 1.0000     0. 
  -1   1   2     94.64    8.04  0. 1.0000     0. 
   1  -1  -2    107.41    8.01  0. 1.0000     0. 
   0   2   2      1.46    1.69  0. 1.0000     0. 
   0  -2   2      2.29    2.20  0. 1.0000     0. 
   0   2  -2      0.96    1.09  0. 1.0000     0. 
   0   2  -2      0.49    1.58  0. 1.0000     0. 
   0  -2   2      0.95    0.86  0. 1.0000     0. 
   0  -2   2      2.73    1.89  0. 1.0000     0. 
   0   2  -2      3.63    1.35  0. 1.0000     0. 
   0   2   2     -1.82    1.16  0. 1.0000     0. 
   0   2   2      1.69    1.53  0. 1.0000     0. 
   0   2   2      0.62    1.77  0. 1.0000     0. 
   0   2  -2      0.15    1.19  0. 1.0000     0. 
   0  -2   2      0.69    1.35  0. 1.0000     0. 
   0  -2  -2      0.21    1.29  0. 1.0000     0. 
   0   2  -2     -0.21    1.11  0. 1.0000     0. 
   0  -2  -2     -0.20    1.45  0. 1.0000     0. 
   0  -2   2      0.02    1.97  0. 1.0000     0. 
   0  -2   2     -0.63    0.82  0. 1.0000     0. 
   0   2   2      0.21    1.63  0. 1.0000     0. 
  -1   2   2    322.56   24.43  0. 1.0000     0. 
  -1   2   2    343.21   24.44  0. 1.0000     0. 
   1   2  -2    367.45   24.23  0. 1.0000     0. 
  -1  -2  -2    385.41   24.34  0. 1.0000     0. 
   1  -2  -2    386.60   24.27  0. 1.0000     0. 
  -1  -2   2    306.00   24.45  0. 1.0000     0. 
   1  -2  -2    342.67   24.58  0. 1.0000     0. 
   1  -2  -2    370.18   24.38  0. 1.0000     0. 
  -2   2   2    127.68   10.21  0. 1.0000     0. 
  -2   2   2    125.61    9.94  0. 1.0000     0. 
  -2   2   2    134.16    9.89  0. 1.0000     0. 
   0   3   2    182.16   13.38  0. 1.0000     0. 
   0  -3  -2    179.84   13.26  0. 1.0000     0. 
   0   3   2    192.51   12.68  0. 1.0000     0. 
   0  -3   2    183.24   12.81  0. 1.0000     0. 
   0  -3  -2    170.51   12.56  0. 1.0000     0. 
   0   3  -2    190.17   13.10  0. 1.0000     0. 
   0   3   2    181.22   13.24  0. 1.0000     0. 
   0  -3   2    160.59   13.04  0. 1.0000     0. 
   0   3  -2    155.94   12.89  0. 1.0000     0. 
   0  -3   2    158.09   12.91  0. 1.0000     0. 
   0   3   2    193.12   13.71  0. 1.0000     0. 
   0   3  -2    205.09   12.95  0. 1.0000     0. 
   0   3  -2    165.40   13.01  0. 1.0000     0. 
   0  -3   2    190.76   13.45  0. 1.0000     0. 
   0   3   2    183.08   13.49  0. 1.0000     0. 
   0   3  -2    196.09   12.66  0. 1.0000     0. 
  -1   3   2     35.23    6.48  0. 1.0000     0. 
  -1   3   2     36.85    4.38  0. 1.0000     0. 
   1  -3   2     41.39    3.96  0. 1.0000     0. 
  -1   3   2     41.17    5.59  0. 1.0000     0. 
  -1   3   2     38.34    6.38  0. 1.0000     0. 
  -1   3   2     38.56    5.42  0. 1.0000     0. 
   1  -3   2     42.40    5.46  0. 1.0000     0. 
   1  -3   2     41.23    4.25  0. 1.0000     0. 
   1  -3  -2     46.31    5.68  0. 1.0000     0. 
   1  -3  -2     38.94    5.56  0. 1.0000     0. 
  -1   3  -2     39.42    4.88  0. 1.0000     0. 
  -1   3  -2     39.73    3.62  0. 1.0000     0. 
  -1  -3   2     34.29    4.55  0. 1.0000     0. 
   1  -3  -2     48.96    3.99  0. 1.0000     0. 
  -1   3  -2     45.85    5.81  0. 1.0000     0. 
   1   3   2     43.17    5.71  0. 1.0000     0. 
   1   3   2     37.85    4.35  0. 1.0000     0. 
  -1   3  -2     43.82    5.29  0. 1.0000     0. 
   1  -3  -2     38.34    4.53  0. 1.0000     0. 
   1   3   2     50.48    6.33  0. 1.0000     0. 
  -2   3   2    199.01   14.54  0. 1.0000     0. 
  -2   3   2    162.81   13.76  0. 1.0000     0. 
  -2   3   2    193.97   14.35  0. 1.0000     0. 
  -2   3   2    201.27   14.19  0. 1.0000     0. 
  -2   3  -2    185.59   13.79  0. 1.0000     0. 
   2  -3  -2    199.23   14.60  0. 1.0000     0. 
  -3   3   2    164.74   13.45  0. 1.0000     0. 
   0   4   2    310.81   21.23  0. 1.0000     0. 
   0   4  -2    276.48   20.88  0. 1.0000     0. 
   0   4  -2    330.58   20.34  0. 1.0000     0. 
   0   4   2    300.44   21.43  0. 1.0000     0. 
   0   4   2    343.71   20.44  0. 1.0000     0. 
   0  -4   2    254.58   20.65  0. 1.0000     0. 
   0  -4   2    268.44   20.54  0. 1.0000     0. 
   0   4   2    277.42   21.42  0. 1.0000     0. 
   0  -4   2    256.62   20.59  0. 1.0000     0. 
   0  -4  -2    302.04   21.25  0. 1.0000     0. 
   0   4  -2    307.64   20.98  0. 1.0000     0. 
   0  -4   2    321.14   20.90  0. 1.0000     0. 
   0   4  -2    291.91   21.06  0. 1.0000     0. 
   1   4  -2    471.99   33.66  0. 1.0000     0. 
  -1  -4   2    516.28   33.88  0. 1.0000     0. 
   2  -4   2    156.40   10.28  0. 1.0000     0. 
   2  -4   2    167.76   11.73  0. 1.0000     0. 
  -2   4   2    128.83   11.61  0. 1.0000     0. 
  -2   4   2    156.88   12.44  0. 1.0000     0. 
  -2   4   2    128.81   10.89  0. 1.0000     0. 
  -2   4  -2    148.32   11.99  0. 1.0000     0. 
   2  -4  -2    136.96   11.97  0. 1.0000     0. 
  -2   4  -2    140.07   11.54  0. 1.0000     0. 
  -2   4  -2    115.68   10.95  0. 1.0000     0. 
   0   5   2    158.15   10.69  0. 1.0000     0. 
   0  -5  -2    151.50   12.38  0. 1.0000     0. 
   0   5  -2    166.28   12.18  0. 1.0000     0. 
   0   5   2    143.08   11.88  0. 1.0000     0. 
   0  -5   2    132.31   10.99  0. 1.0000     0. 
   0   5  -2    153.72   12.37  0. 1.0000     0. 
   0  -5   2    150.69   11.83  0. 1.0000     0. 
   0  -5   2    128.13   11.44  0. 1.0000     0. 
   0  -5  -2    134.93   12.44  0. 1.0000     0. 
   0   5  -2    165.13   10.61  0. 1.0000     0. 
   0   5  -2    138.24   12.00  0. 1.0000     0. 
   0   5   2    132.78   12.52  0. 1.0000     0. 
  -2   5   2     30.62    5.20  0. 1.0000     0. 
   2  -5   2     30.22    3.94  0. 1.0000     0. 
  -2   5   2     29.17    4.71  0. 1.0000     0. 
   2  -5   2     35.97    6.47  0. 1.0000     0. 
  -2   5   2     28.78    4.70  0. 1.0000     0. 
   2  -5  -2     40.46    5.56  0. 1.0000     0. 
  -2   5  -2     42.34    6.08  0. 1.0000     0. 
   2  -5  -2     33.95    5.78  0. 1.0000     0. 
  -2   5  -2     37.34    5.20  0. 1.0000     0. 
  -2   5  -2     34.49    4.48  0. 1.0000     0. 
   2   5   2     31.20    4.87  0. 1.0000     0. 
  -3   5   2     56.53    8.66  0. 1.0000     0. 
  -3   5   2     53.32    6.42  0. 1.0000     0. 
  -3   5  -2     60.81    8.10  0. 1.0000     0. 
   3  -5  -2     55.08    9.12  0. 1.0000     0. 
  -4   5   2     55.99    9.51  0. 1.0000     0. 
   0   6  -2    130.06   11.73  0. 1.0000     0. 
   0  -6  -2    122.83   12.31  0. 1.0000     0. 
   0   6  -2    129.10   11.86  0. 1.0000     0. 
   0  -6   2    112.14    9.49  0. 1.0000     0. 
   0   6   2    129.47   10.84  0. 1.0000     0. 
   0   6   2    133.91   12.35  0. 1.0000     0. 
   0   6   2    100.78   11.26  0. 1.0000     0. 
   0   6  -2    130.81    9.14  0. 1.0000     0. 
   0  -6  -2    108.84    9.80  0. 1.0000     0. 
   0   6   2    129.26    9.27  0. 1.0000     0. 
   0  -6   2    121.72   11.30  0. 1.0000     0. 
   0  -6   2    131.87   11.07  0. 1.0000     0. 
   0  -6  -2    132.22   12.12  0. 1.0000     0. 
   1  -6   2     75.52    8.57  0. 1.0000     0. 
  -1   6   2     67.45    8.13  0. 1.0000     0. 
   1   6  -2     82.34   10.66  0. 1.0000     0. 
  -1   6   2     67.94   10.13  0. 1.0000     0. 
   1  -6   2     58.85    6.82  0. 1.0000     0. 
   1   6  -2     61.09    8.75  0. 1.0000     0. 
  -1   6   2     82.48   11.31  0. 1.0000     0. 
   1  -6   2     62.12    8.47  0. 1.0000     0. 
  -1   6  -2     72.79    9.08  0. 1.0000     0. 
   1  -6  -2     67.80    7.43  0. 1.0000     0. 
   1  -6  -2     76.77   10.56  0. 1.0000     0. 
   1   6   2     73.15    9.60  0. 1.0000     0. 
  -1   6  -2     76.39    9.73  0. 1.0000     0. 
   1   6   2     65.27    6.06  0. 1.0000     0. 
   1   6   2     76.63    8.69  0. 1.0000     0. 
   1  -6  -2     63.00    9.35  0. 1.0000     0. 
   1  -6  -2     73.65    5.82  0. 1.0000     0. 
  -1  -6   2     51.23    7.82  0. 1.0000     0. 
   2  -6   2    114.56    9.38  0. 1.0000     0. 
  -2   6  -2    117.33   11.71  0. 1.0000     0. 
   3  -6   2     59.48    6.03  0. 1.0000     0. 
  -3   6   2     41.47    6.73  0. 1.0000     0. 
   3  -6   2     45.23    4.85  0. 1.0000     0. 
  -3   6   2     36.76    5.86  0. 1.0000     0. 
  -3   6   2     34.96    6.33  0. 1.0000     0. 
  -3   6  -2     48.74    7.93  0. 1.0000     0. 
   3  -6  -2     47.40    7.69  0. 1.0000     0. 
  -3   6  -2     45.19    6.38  0. 1.0000     0. 
  -4   6   2     19.28    5.14  0. 1.0000     0. 
  -4   6   2     21.97    5.42  0. 1.0000     0. 
  -4   6  -2     33.94    5.37  0. 1.0000     0. 
  -5   6   2     30.47    6.83  0. 1.0000     0. 
   0   7  -2    130.99   12.43  0. 1.0000     0. 
   0  -7  -2    110.39    9.69  0. 1.0000     0. 
   0   7  -2    122.03   12.86  0. 1.0000     0. 
   0  -7   2    109.77   11.91  0. 1.0000     0. 
   0  -7  -2    130.02   13.76  0. 1.0000     0. 
   0   7   2     87.49   11.09  0. 1.0000     0. 
   0   7   2    122.36    8.86  0. 1.0000     0. 
   0   7   2    113.65   13.36  0. 1.0000     0. 
   0  -7   2    119.80   11.43  0. 1.0000     0. 
   0   7   2    101.05   10.53  0. 1.0000     0. 
   0   7  -2    113.52    8.56  0. 1.0000     0. 
   0  -7  -2    111.18   12.98  0. 1.0000     0. 
  -1   7   2     62.20    8.30  0. 1.0000     0. 
  -1   7   2     62.85    7.91  0. 1.0000     0. 
   1  -7   2     76.09    9.49  0. 1.0000     0. 
   1  -7   2     69.97    9.87  0. 1.0000     0. 
   1   7  -2     77.23   10.49  0. 1.0000     0. 
  -1   7   2     72.06   11.52  0. 1.0000     0. 
   1   7  -2    100.23   12.23  0. 1.0000     0. 
   1  -7  -2     60.88   11.95  0. 1.0000     0. 
  -1  -7   2     56.13    6.95  0. 1.0000     0. 
   1   7   2     77.88   12.27  0. 1.0000     0. 
   1   7   2     63.25    6.20  0. 1.0000     0. 
   1  -7  -2     74.72   10.06  0. 1.0000     0. 
  -1   7  -2     78.14   10.98  0. 1.0000     0. 
  -1   7  -2     67.50   10.01  0. 1.0000     0. 
   1   7   2     80.39   11.39  0. 1.0000     0. 
   1   7   2     68.01    8.10  0. 1.0000     0. 
   2  -7   2     18.21    5.53  0. 1.0000     0. 
  -2   7   2     31.12    6.18  0. 1.0000     0. 
   2  -7   2     15.56    5.10  0. 1.0000     0. 
   2   7  -2     24.07    5.34  0. 1.0000     0. 
  -2   7   2     20.88    5.56  0. 1.0000     0. 
   2  -7  -2     22.25    6.29  0. 1.0000     0. 
   2  -7  -2     23.52    2.99  0. 1.0000     0. 
  -2   7  -2     27.30    5.32  0. 1.0000     0. 
  -2   7  -2     26.97    4.92  0. 1.0000     0. 
  -2   7  -2     17.17    5.56  0. 1.0000     0. 
   2   7   2     32.46    6.13  0. 1.0000     0. 
   2  -7  -2     26.01    6.05  0. 1.0000     0. 
  -3   7   2     19.80    3.61  0. 1.0000     0. 
   3  -7   2     30.07    4.19  0. 1.0000     0. 
  -3   7   2     33.02    6.84  0. 1.0000     0. 
  -3   7   2     32.91    6.07  0. 1.0000     0. 
   3  -7  -2     21.04    6.86  0. 1.0000     0. 
   3  -7  -2     30.22    6.36  0. 1.0000     0. 
  -3   7  -2     27.74    5.31  0. 1.0000     0. 
  -3   7  -2     22.94    6.04  0. 1.0000     0. 
  -4   7   2      5.88    3.73  0. 1.0000     0. 
  -4   7   2      3.19    3.85  0. 1.0000     0. 
  -4   7   2      6.92    6.29  0. 1.0000     0. 
  -4   7   2     10.38    5.46  0. 1.0000     0. 
  -4   7  -2     10.49    5.20  0. 1.0000     0. 
  -5   7   2      9.10    6.06  0. 1.0000     0. 
  -5   7  -2      8.79    5.15  0. 1.0000     0. 
  -2   8   2      2.12    5.91  0. 1.0000     0. 
   2   8  -2     -2.33    4.77  0. 1.0000     0. 
   2  -8   2      6.89    5.08  0. 1.0000     0. 
  -2   8   2     -5.34    5.78  0. 1.0000     0. 
   2  -8   2      6.59    5.79  0. 1.0000     0. 
   2   8   2      2.50    5.14  0. 1.0000     0. 
  -2   8  -2     -0.72    4.51  0. 1.0000     0. 
  -2   8  -2      2.36    5.72  0. 1.0000     0. 
   2  -8  -2      2.75    6.53  0. 1.0000     0. 
   2  -8  -2      0.61    5.88  0. 1.0000     0. 
  -5   8   2     41.70    7.20  0. 1.0000     0. 
  -5   8   2     34.07    8.12  0. 1.0000     0. 
  -5   8  -2     40.53    7.31  0. 1.0000     0. 
  -6   8   2     -1.73    7.19  0. 1.0000     0. 
   0  -9   2     15.19    6.25  0. 1.0000     0. 
   0   9  -2     14.45    6.14  0. 1.0000     0. 
   0  -9   2     25.49    6.88  0. 1.0000     0. 
   0   9  -2     16.59    6.14  0. 1.0000     0. 
   0   9   2     30.06    4.85  0. 1.0000     0. 
   0  -9  -2     23.61    7.74  0. 1.0000     0. 
   0  -9  -2     22.50    4.23  0. 1.0000     0. 
   0  -9  -2     23.20    7.88  0. 1.0000     0. 
   0   9   2     18.75    7.30  0. 1.0000     0. 
   0   9   2      6.87    8.13  0. 1.0000     0. 
  -2   9   2     23.82    7.45  0. 1.0000     0. 
  -2   9   2     16.71    8.08  0. 1.0000     0. 
   2  -9   2     21.01    6.98  0. 1.0000     0. 
   2   9  -2      0.38    6.57  0. 1.0000     0. 
   2  -9   2     32.68    7.66  0. 1.0000     0. 
  -2   9  -2      8.10    7.32  0. 1.0000     0. 
   2  -9  -2     30.61    8.27  0. 1.0000     0. 
   2  -9  -2      9.18    8.42  0. 1.0000     0. 
  -2   9  -2     13.23    6.19  0. 1.0000     0. 
   2   9   2     -2.43    7.26  0. 1.0000     0. 
  -5   9   2     12.78    6.91  0. 1.0000     0. 
  -5   9   2     24.17    8.87  0. 1.0000     0. 
  -5   9  -2      4.26    7.24  0. 1.0000     0. 
  -6   9   2      8.25    8.88  0. 1.0000     0. 
  -6   9  -2      6.23    6.75  0. 1.0000     0. 
   0 -10   2     13.56    7.14  0. 1.0000     0. 
   0  10  -2     16.43    6.53  0. 1.0000     0. 
   0 -10  -2     21.13    8.22  0. 1.0000     0. 
   0 -10  -2     23.56    8.90  0. 1.0000     0. 
   0  10   2     14.73    8.50  0. 1.0000     0. 
   0  10   2     20.37    8.44  0. 1.0000     0. 
   0  10  -2     20.01    7.58  0. 1.0000     0. 
  -1 -10  -2     24.37    8.15  0. 1.0000     0. 
  -1  10   2     18.16    7.67  0. 1.0000     0. 
   1 -10   2     25.27    8.06  0. 1.0000     0. 
   1 -10   2     14.05    6.88  0. 1.0000     0. 
  -1  10   2     20.93    7.07  0. 1.0000     0. 
   1  10  -2     14.71    6.81  0. 1.0000     0. 
   1  10  -2     17.45    9.14  0. 1.0000     0. 
  -1 -10   2     11.56    6.36  0. 1.0000     0. 
  -1  10  -2     20.22    6.36  0. 1.0000     0. 
  -1 -10   2     15.00    3.76  0. 1.0000     0. 
   1 -10  -2     28.93    7.97  0. 1.0000     0. 
   1 -10  -2     16.59    8.65  0. 1.0000     0. 
  -1  10  -2     24.02    6.85  0. 1.0000     0. 
   1  10   2     11.69    7.60  0. 1.0000     0. 
   1  10   2     28.86   10.11  0. 1.0000     0. 
   2 -10   2      5.33    6.76  0. 1.0000     0. 
  -2  10   2      4.55    6.56  0. 1.0000     0. 
   2 -10   2      8.82    6.52  0. 1.0000     0. 
   2  10  -2     11.16    7.39  0. 1.0000     0. 
  -2  10   2      7.86    8.59  0. 1.0000     0. 
   2  10   2     17.43    7.73  0. 1.0000     0. 
   2 -10  -2      9.33    7.56  0. 1.0000     0. 
   2 -10  -2      9.70    8.48  0. 1.0000     0. 
  -2 -10   2      6.06    5.28  0. 1.0000     0. 
  -2  10  -2      6.57    5.94  0. 1.0000     0. 
  -2  10  -2     12.12    7.75  0. 1.0000     0. 
  -3  10   2     -0.64   10.17  0. 1.0000     0. 
  -3  10   2      7.24    6.92  0. 1.0000     0. 
   3 -10   2      1.78    8.22  0. 1.0000     0. 
   3 -10   2      2.95    8.56  0. 1.0000     0. 
  -3  10  -2     -3.38    8.28  0. 1.0000     0. 
   3 -10  -2      7.52    9.35  0. 1.0000     0. 
  -3  10  -2      3.99    7.09  0. 1.0000     0. 
   3 -10  -2     -4.48   10.85  0. 1.0000     0. 
   4 -10   2     12.78    7.46  0. 1.0000     0. 
  -4  10   2     13.25    6.88  0. 1.0000     0. 
  -4  10   2      6.97    9.33  0. 1.0000     0. 
   4 -10  -2     30.61   11.12  0. 1.0000     0. 
  -4  10  -2     17.35    6.48  0. 1.0000     0. 
   4 -10  -2     21.48    7.72  0. 1.0000     0. 
  -4  10  -2     16.27    8.17  0. 1.0000     0. 
  -5  10   2     14.07    7.51  0. 1.0000     0. 
   5 -10   2     10.57    6.95  0. 1.0000     0. 
  -5  10   2      8.93    9.67  0. 1.0000     0. 
  -5  10  -2      6.58    7.69  0. 1.0000     0. 
   5 -10  -2     12.41    7.20  0. 1.0000     0. 
  -6  10   2      2.18    9.49  0. 1.0000     0. 
  -6  10  -2     -3.83    7.78  0. 1.0000     0. 
   0 -11   2      2.88    7.29  0. 1.0000     0. 
   0 -11  -2      0.62    8.17  0. 1.0000     0. 
   0 -11  -2      9.41    8.05  0. 1.0000     0. 
   0  11  -2      4.21    6.46  0. 1.0000     0. 
   0  11   2     15.21   10.05  0. 1.0000     0. 
   0  11   2     -3.27    9.76  0. 1.0000     0. 
   0  11  -2      2.55    8.73  0. 1.0000     0. 
   1 -11   2      8.70    7.52  0. 1.0000     0. 
  -1  11   2      5.08    6.97  0. 1.0000     0. 
  -1 -11  -2     15.58    9.10  0. 1.0000     0. 
   1  11  -2     17.88    7.34  0. 1.0000     0. 
  -1  11   2     16.11    9.23  0. 1.0000     0. 
   1 -11   2     20.10    7.45  0. 1.0000     0. 
   1  11  -2     15.53   10.15  0. 1.0000     0. 
   1  11   2     11.59   12.20  0. 1.0000     0. 
  -1  11  -2      6.59    6.35  0. 1.0000     0. 
   1  11   2     13.77    9.89  0. 1.0000     0. 
  -1 -11   2     14.20    7.88  0. 1.0000     0. 
   1 -11  -2     20.23   10.81  0. 1.0000     0. 
   1 -11  -2      9.59    8.56  0. 1.0000     0. 
  -1  11  -2     12.12    8.50  0. 1.0000     0. 
  -2  11   2     12.09    7.47  0. 1.0000     0. 
   2 -11   2     11.77    7.55  0. 1.0000     0. 
   2 -11   2     11.36    7.39  0. 1.0000     0. 
  -2  11   2     10.36   10.02  0. 1.0000     0. 
   2  11  -2     13.55    7.38  0. 1.0000     0. 
   2 -11  -2      7.51    7.52  0. 1.0000     0. 
   2  11   2     17.10    9.32  0. 1.0000     0. 
  -2  11  -2      8.08    6.48  0. 1.0000     0. 
  -2  11  -2     12.69    8.62  0. 1.0000     0. 
   2 -11  -2     18.46    9.14  0. 1.0000     0. 
   3  11  -2     -7.00    7.35  0. 1.0000     0. 
   3 -11   2     15.17    8.56  0. 1.0000     0. 
   3 -11   2      8.55    7.62  0. 1.0000     0. 
  -3  11   2      8.86    6.49  0. 1.0000     0. 
  -3  11   2      8.45   11.15  0. 1.0000     0. 
   3 -11  -2      3.19    7.45  0. 1.0000     0. 
   3 -11  -2      9.60    9.96  0. 1.0000     0. 
  -3  11  -2      9.35    8.74  0. 1.0000     0. 
  -3  11  -2      1.09    6.78  0. 1.0000     0. 
   4 -11   2      8.40    7.73  0. 1.0000     0. 
  -4  11   2      4.29    6.98  0. 1.0000     0. 
  -4  11   2     13.86   10.57  0. 1.0000     0. 
  -4  11  -2      8.05    6.28  0. 1.0000     0. 
   4 -11  -2     13.20   10.89  0. 1.0000     0. 
  -4  11  -2     19.18    9.30  0. 1.0000     0. 
   4 -11  -2     16.15    8.00  0. 1.0000     0. 
  -5  11   2      3.19    6.96  0. 1.0000     0. 
  -5  11   2     12.81   10.42  0. 1.0000     0. 
   5 -11   2      7.45    7.89  0. 1.0000     0. 
   5 -11  -2     11.06    8.70  0. 1.0000     0. 
  -5  11  -2      6.26    8.69  0. 1.0000     0. 
   6 -11   2      3.44    7.70  0. 1.0000     0. 
  -6  11   2      8.87   11.14  0. 1.0000     0. 
   6 -11  -2      3.29    7.88  0. 1.0000     0. 
  -6  11  -2      8.64    8.93  0. 1.0000     0. 
  -7  11   2    -14.08   11.58  0. 1.0000     0. 
   0  12  -2      9.55   10.88  0. 1.0000     0. 
   0 -12  -2     13.54    9.89  0. 1.0000     0. 
   0  12   2     -9.36    9.41  0. 1.0000     0. 
   0  12  -2      5.82    7.06  0. 1.0000     0. 
   0 -12   2      4.77    8.21  0. 1.0000     0. 
   0  12   2     -2.26   12.37  0. 1.0000     0. 
   1 -12   2     12.65    7.98  0. 1.0000     0. 
   1  12  -2      4.15    8.12  0. 1.0000     0. 
  -1 -12  -2     16.70   11.21  0. 1.0000     0. 
  -1  12   2     11.38    7.53  0. 1.0000     0. 
  -1  12   2     10.31   11.92  0. 1.0000     0. 
   1 -12   2     12.48    8.37  0. 1.0000     0. 
   1 -12  -2     29.04   11.63  0. 1.0000     0. 
   1  12   2      2.02   11.03  0. 1.0000     0. 
  -1  12  -2      5.37    6.75  0. 1.0000     0. 
   1  12   2     22.63   16.30  0. 1.0000     0. 
  -1 -12   2     10.65    8.12  0. 1.0000     0. 
   1 -12  -2     14.96    8.67  0. 1.0000     0. 
  -1  12  -2     16.22    9.07  0. 1.0000     0. 
   2 -12   2      6.58    8.25  0. 1.0000     0. 
   2 -12   2      5.36    7.52  0. 1.0000     0. 
  -2  12   2     10.36    7.80  0. 1.0000     0. 
  -2 -12  -2      6.71    9.82  0. 1.0000     0. 
  -2  12   2     -1.50   11.63  0. 1.0000     0. 
   2  12  -2     14.83    8.24  0. 1.0000     0. 
  -2  12  -2      5.24    6.57  0. 1.0000     0. 
  -2 -12   2      6.86    7.28  0. 1.0000     0. 
   2 -12  -2     -0.38    9.83  0. 1.0000     0. 
   2  12   2      5.40    9.06  0. 1.0000     0. 
  -2  12  -2     11.72    7.97  0. 1.0000     0. 
   2 -12  -2     15.76    9.18  0. 1.0000     0. 
   3 -12   2      6.55    8.81  0. 1.0000     0. 
  -3  12   2      9.35   13.80  0. 1.0000     0. 
   3 -12   2      8.15   10.35  0. 1.0000     0. 
  -3  12   2      5.83    7.78  0. 1.0000     0. 
   3 -12  -2      7.21    8.82  0. 1.0000     0. 
  -3  12  -2     11.19    8.03  0. 1.0000     0. 
   3 -12  -2     15.47   11.95  0. 1.0000     0. 
  -3  12  -2     -3.66   10.47  0. 1.0000     0. 
  -4  12   2     12.46   12.79  0. 1.0000     0. 
  -4  12   2      6.88    7.40  0. 1.0000     0. 
   4 -12   2      2.63    8.28  0. 1.0000     0. 
  -4  12  -2      4.06    9.93  0. 1.0000     0. 
  -4  12  -2      4.25    7.03  0. 1.0000     0. 
   4 -12  -2     21.64   11.92  0. 1.0000     0. 
   4 -12  -2     11.77    8.39  0. 1.0000     0. 
   5 -12   2      3.65    8.22  0. 1.0000     0. 
  -5  12   2      5.94    7.49  0. 1.0000     0. 
  -5  12   2      0.10   12.55  0. 1.0000     0. 
   5 -12  -2     -4.86    8.28  0. 1.0000     0. 
  -5  12  -2     -7.49    9.95  0. 1.0000     0. 
   0 -13   2      0.16    8.78  0. 1.0000     0. 
   0  13  -2     -1.46    7.21  0. 1.0000     0. 
   0  13   2     -0.15    7.41  0. 1.0000     0. 
   0  13  -2      0.77   12.37  0. 1.0000     0. 
   0 -13  -2     -9.34   11.17  0. 1.0000     0. 
   0  13   2      3.35   14.35  0. 1.0000     0. 
  -1  13   2      1.49   13.49  0. 1.0000     0. 
   1  13  -2     -3.27    8.25  0. 1.0000     0. 
  -1  13   2     11.59    7.91  0. 1.0000     0. 
  -1 -13  -2      4.25   10.23  0. 1.0000     0. 
   1 -13   2      3.14    8.16  0. 1.0000     0. 
   1 -13   2     -2.07    8.36  0. 1.0000     0. 
  -1  13  -2      9.53    9.34  0. 1.0000     0. 
   1  13   2      2.28   11.56  0. 1.0000     0. 
   1 -13  -2      4.33   11.34  0. 1.0000     0. 
  -1  13  -2      8.18    7.26  0. 1.0000     0. 
   1  13   2      8.69   19.10  0. 1.0000     0. 
  -1 -13   2     -2.10    8.29  0. 1.0000     0. 
   1 -13  -2     -1.20    8.49  0. 1.0000     0. 
   2  13  -2      7.37    8.43  0. 1.0000     0. 
   2 -13   2     -2.98    8.16  0. 1.0000     0. 
  -2  13   2      0.41    7.21  0. 1.0000     0. 
   2 -13   2     -6.72    8.94  0. 1.0000     0. 
  -2 -13  -2      7.34   11.20  0. 1.0000     0. 
  -2  13   2      0.20   11.05  0. 1.0000     0. 
  -2  13  -2     -1.51   10.41  0. 1.0000     0. 
  -2 -13   2      6.41    9.03  0. 1.0000     0. 
   2  13   2      8.49   11.27  0. 1.0000     0. 
  -2  13  -2     -4.23    6.90  0. 1.0000     0. 
   2 -13  -2      7.79   11.83  0. 1.0000     0. 
   2 -13  -2     -1.21   10.02  0. 1.0000     0. 
   0  -1  -3    859.88   58.33  0. 1.0000     0. 
  -1   1   3    218.30   18.02  0. 1.0000     0. 
   1  -1   3    271.48   17.67  0. 1.0000     0. 
   1  -1   3    260.51   18.23  0. 1.0000     0. 
  -1  -1   3    258.37   18.14  0. 1.0000     0. 
  -1   1   3    234.89   17.68  0. 1.0000     0. 
   1   1   3    263.67   18.23  0. 1.0000     0. 
  -1  -1  -3    264.66   17.71  0. 1.0000     0. 
   1   1  -3    252.04   18.39  0. 1.0000     0. 
  -1   1  -3    255.34   17.59  0. 1.0000     0. 
   1  -1  -3    244.37   18.47  0. 1.0000     0. 
   2   0  -3    784.39   60.29  0. 1.0000     0. 
   0  -2  -3    970.06   60.36  0. 1.0000     0. 
   0  -2  -3   1000.00   60.42  0. 1.0000     0. 
   2   0   3    802.77   60.34  0. 1.0000     0. 
  -2  -1  -3     11.14    1.76  0. 1.0000     0. 
   2   2  -3    632.51   41.71  0. 1.0000     0. 
  -2   2   3    541.67   42.04  0. 1.0000     0. 
   2  -2  -3    654.94   41.69  0. 1.0000     0. 
   0  -3  -3    239.62   16.26  0. 1.0000     0. 
   0   3  -3    246.63   16.43  0. 1.0000     0. 
   0  -3   3    227.14   16.91  0. 1.0000     0. 
   0   3  -3    218.19   16.37  0. 1.0000     0. 
   0   3   3    246.88   16.26  0. 1.0000     0. 
   0   3  -3    223.20   16.98  0. 1.0000     0. 
   0   3  -3    246.86   16.23  0. 1.0000     0. 
   0  -3   3    217.53   16.01  0. 1.0000     0. 
   0   3   3    219.44   16.90  0. 1.0000     0. 
   0  -3  -3    211.72   16.75  0. 1.0000     0. 
   0   3   3    228.51   16.81  0. 1.0000     0. 
   0  -3   3    225.90   16.54  0. 1.0000     0. 
   0   3   3    252.92   16.88  0. 1.0000     0. 
   0   3   3    212.09   16.96  0. 1.0000     0. 
   0  -3  -3    246.35   16.77  0. 1.0000     0. 
   0  -3  -3    204.41   16.77  0. 1.0000     0. 
  -1   3   3    241.52   16.65  0. 1.0000     0. 
  -1   3   3    198.19   16.74  0. 1.0000     0. 
  -1   3   3    207.62   16.79  0. 1.0000     0. 
   1  -3   3    211.50   16.39  0. 1.0000     0. 
   1  -3   3    242.57   15.84  0. 1.0000     0. 
  -1   3   3    212.97   17.37  0. 1.0000     0. 
  -1  -3   3    197.20   16.44  0. 1.0000     0. 
  -1   3  -3    229.04   15.61  0. 1.0000     0. 
  -1   3  -3    233.21   15.67  0. 1.0000     0. 
  -1   3  -3    216.10   15.88  0. 1.0000     0. 
   1  -3  -3    218.33   16.93  0. 1.0000     0. 
   1   3   3    249.73   17.01  0. 1.0000     0. 
   1  -3  -3    236.72   17.08  0. 1.0000     0. 
   1   3   3    187.13   15.80  0. 1.0000     0. 
   1   3   3    234.35   16.58  0. 1.0000     0. 
  -1   3  -3    201.90   16.17  0. 1.0000     0. 
  -1   3  -3    237.83   16.23  0. 1.0000     0. 
   1  -3  -3    218.67   15.72  0. 1.0000     0. 
   1   3   3    214.27   16.39  0. 1.0000     0. 
  -1  -3   3    185.71   16.15  0. 1.0000     0. 
   1  -3  -3    228.38   16.74  0. 1.0000     0. 
   1   3   3    251.05   15.84  0. 1.0000     0. 
  -2   3   3    171.56   14.79  0. 1.0000     0. 
  -2   3   3    160.23   14.08  0. 1.0000     0. 
   2  -3   3    208.87   13.18  0. 1.0000     0. 
  -2   3   3    194.61   13.91  0. 1.0000     0. 
  -2   3   3    158.06   14.03  0. 1.0000     0. 
   2  -3   3    202.25   13.95  0. 1.0000     0. 
  -2   3   3    156.90   13.72  0. 1.0000     0. 
   2  -3  -3    170.72   14.26  0. 1.0000     0. 
  -2   3  -3    180.72   13.07  0. 1.0000     0. 
  -3   3   3    119.30   10.77  0. 1.0000     0. 
  -3   3   3    104.36   10.43  0. 1.0000     0. 
   0  -4  -3    159.71   13.65  0. 1.0000     0. 
   0   4   3    181.37   14.29  0. 1.0000     0. 
   0   4   3    196.85   13.06  0. 1.0000     0. 
   0   4  -3    168.43   13.61  0. 1.0000     0. 
   0  -4  -3    200.16   14.26  0. 1.0000     0. 
   0   4  -3    200.79   12.99  0. 1.0000     0. 
   0   4  -3    212.70   14.18  0. 1.0000     0. 
   0  -4   3    165.61   13.63  0. 1.0000     0. 
   0  -4   3    188.15   13.10  0. 1.0000     0. 
   0  -4   3    149.01   13.26  0. 1.0000     0. 
   0   4  -3    169.42   13.47  0. 1.0000     0. 
   0  -4   3    177.30   13.20  0. 1.0000     0. 
   0  -4  -3    170.09   12.86  0. 1.0000     0. 
   0  -4  -3    159.73   14.05  0. 1.0000     0. 
   0   4   3    172.56   13.87  0. 1.0000     0. 
   0   4   3    191.13   14.37  0. 1.0000     0. 
   1   4  -3    348.47   23.68  0. 1.0000     0. 
   1  -4   3    274.92   22.96  0. 1.0000     0. 
   1  -4   3    363.86   23.22  0. 1.0000     0. 
  -1   4   3    318.18   24.04  0. 1.0000     0. 
  -1   4   3    319.52   23.99  0. 1.0000     0. 
   1  -4   3    303.92   23.64  0. 1.0000     0. 
  -1   4   3    347.85   24.00  0. 1.0000     0. 
   1   4  -3    320.78   23.02  0. 1.0000     0. 
   1  -4  -3    374.87   25.27  0. 1.0000     0. 
   1  -4  -3    343.98   23.72  0. 1.0000     0. 
  -1   4  -3    343.07   23.30  0. 1.0000     0. 
   1   4   3    335.45   23.70  0. 1.0000     0. 
  -1   4  -3    351.35   22.88  0. 1.0000     0. 
   1   4   3    310.23   23.89  0. 1.0000     0. 
   1   4   3    369.44   23.14  0. 1.0000     0. 
  -1   4  -3    351.39   23.88  0. 1.0000     0. 
  -1   4  -3    293.98   23.44  0. 1.0000     0. 
   1   4   3    321.18   24.11  0. 1.0000     0. 
   1  -4  -3    330.77   23.86  0. 1.0000     0. 
   1  -4  -3    333.21   22.98  0. 1.0000     0. 
  -1  -4   3    279.84   23.42  0. 1.0000     0. 
  -2   4   3    194.36   15.64  0. 1.0000     0. 
   2  -4   3    201.45   15.69  0. 1.0000     0. 
  -2   4   3    173.03   15.28  0. 1.0000     0. 
  -2   4   3    207.39   16.14  0. 1.0000     0. 
  -2   4  -3    205.07   15.32  0. 1.0000     0. 
   2  -4  -3    207.94   16.14  0. 1.0000     0. 
   2   4   3    187.18   15.55  0. 1.0000     0. 
  -2   4  -3    221.43   15.82  0. 1.0000     0. 
  -3   4   3    358.15   26.66  0. 1.0000     0. 
   3  -4   3    371.01   25.51  0. 1.0000     0. 
  -3   4   3    386.21   26.39  0. 1.0000     0. 
  -3   4  -3    348.85   25.98  0. 1.0000     0. 
  -4   4   3    154.70   13.57  0. 1.0000     0. 
   0  -5  -3    387.18   30.38  0. 1.0000     0. 
   0   5  -3    472.74   29.91  0. 1.0000     0. 
   0   5   3    417.13   31.17  0. 1.0000     0. 
   0   5   3    434.41   30.59  0. 1.0000     0. 
   0  -5   3    420.98   30.21  0. 1.0000     0. 
   0   5   3    466.09   29.99  0. 1.0000     0. 
   0   5  -3    415.84   30.45  0. 1.0000     0. 
   0   5  -3    475.45   30.85  0. 1.0000     0. 
   0   5  -3    450.81   30.48  0. 1.0000     0. 
   0  -5  -3    413.83   31.06  0. 1.0000     0. 
   0   5   3    396.00   30.88  0. 1.0000     0. 
   0  -5  -3    456.59   31.00  0. 1.0000     0. 
  -1   5   3    443.34   30.54  0. 1.0000     0. 
   1  -5   3    381.83   29.86  0. 1.0000     0. 
  -1   5   3    474.98   31.46  0. 1.0000     0. 
   1  -5   3    427.34   30.20  0. 1.0000     0. 
   1  -5   3    450.33   30.07  0. 1.0000     0. 
  -1   5   3    428.30   30.84  0. 1.0000     0. 
   1  -5  -3    448.19   30.64  0. 1.0000     0. 
   1  -5  -3    403.96   30.16  0. 1.0000     0. 
   1  -5  -3    473.57   31.40  0. 1.0000     0. 
  -1  -5   3    370.89   30.00  0. 1.0000     0. 
   1   5   3    400.89   30.04  0. 1.0000     0. 
   1   5   3    419.15   30.50  0. 1.0000     0. 
  -1   5  -3    393.95   30.00  0. 1.0000     0. 
   1   5   3    460.67   29.64  0. 1.0000     0. 
   1   5   3    405.79   30.72  0. 1.0000     0. 
   1  -5  -3    426.53   29.37  0. 1.0000     0. 
  -1   5  -3    423.27   29.82  0. 1.0000     0. 
  -1   5  -3    464.70   30.59  0. 1.0000     0. 
  -2   5   3    190.80   16.63  0. 1.0000     0. 
   2  -5   3    221.38   14.32  0. 1.0000     0. 
   2  -5   3    185.19   15.45  0. 1.0000     0. 
  -2   5   3    182.69   15.75  0. 1.0000     0. 
  -2   5   3    186.01   15.51  0. 1.0000     0. 
   2  -5  -3    193.63   14.02  0. 1.0000     0. 
   2  -5  -3    212.48   16.40  0. 1.0000     0. 
  -2   5  -3    191.59   15.84  0. 1.0000     0. 
   2  -5  -3    178.98   16.25  0. 1.0000     0. 
   2   5   3    174.05   15.64  0. 1.0000     0. 
  -2   5  -3    200.00   15.90  0. 1.0000     0. 
  -2   5  -3    181.14   14.56  0. 1.0000     0. 
   3  -5   3    329.03   23.31  0. 1.0000     0. 
  -3   5   3    325.37   23.79  0. 1.0000     0. 
   3  -5   3    328.84   22.13  0. 1.0000     0. 
  -3   5   3    293.47   24.03  0. 1.0000     0. 
   3  -5  -3    350.66   24.78  0. 1.0000     0. 
  -3   5  -3    273.71   23.11  0. 1.0000     0. 
  -3   5  -3    294.56   23.14  0. 1.0000     0. 
  -4   5   3    174.61   15.68  0. 1.0000     0. 
   0  -6  -3    197.42   16.75  0. 1.0000     0. 
   0   6  -3    216.86   17.34  0. 1.0000     0. 
   0   6  -3    241.36   17.90  0. 1.0000     0. 
   0   6   3    212.58   17.03  0. 1.0000     0. 
   0  -6  -3    237.19   18.18  0. 1.0000     0. 
   0  -6   3    210.12   17.15  0. 1.0000     0. 
   0   6   3    223.36   16.04  0. 1.0000     0. 
   0   6   3    183.37   18.48  0. 1.0000     0. 
   0   6  -3    246.33   15.91  0. 1.0000     0. 
   0  -6   3    237.78   17.13  0. 1.0000     0. 
   0  -6  -3    227.17   18.86  0. 1.0000     0. 
  -1   6   3    309.43   24.26  0. 1.0000     0. 
   1  -6   3    309.56   22.13  0. 1.0000     0. 
   1   6  -3    317.92   22.62  0. 1.0000     0. 
  -1   6   3    312.17   22.47  0. 1.0000     0. 
  -1   6   3    307.62   23.39  0. 1.0000     0. 
   1  -6   3    271.14   22.23  0. 1.0000     0. 
   1   6   3    333.71   21.58  0. 1.0000     0. 
  -1  -6   3    270.52   22.04  0. 1.0000     0. 
  -1   6  -3    283.29   20.94  0. 1.0000     0. 
  -1   6  -3    272.97   21.90  0. 1.0000     0. 
  -1   6  -3    322.10   22.39  0. 1.0000     0. 
   1   6   3    292.87   22.06  0. 1.0000     0. 
   1  -6  -3    286.05   21.11  0. 1.0000     0. 
   1  -6  -3    296.70   22.80  0. 1.0000     0. 
   1   6   3    319.27   23.35  0. 1.0000     0. 
   1  -6  -3    302.99   22.26  0. 1.0000     0. 
   1  -6  -3    320.88   24.10  0. 1.0000     0. 
  -1   6  -3    333.07   23.12  0. 1.0000     0. 
   1   6   3    294.79   23.62  0. 1.0000     0. 
   2  -6   3    196.76   16.44  0. 1.0000     0. 
  -2   6   3    183.13   19.51  0. 1.0000     0. 
   2  -6   3    205.34   16.68  0. 1.0000     0. 
   2  -6   3    236.82   15.32  0. 1.0000     0. 
   2   6  -3    206.70   16.87  0. 1.0000     0. 
  -2   6   3    225.13   18.10  0. 1.0000     0. 
  -2   6   3    206.81   16.83  0. 1.0000     0. 
   2  -6   3    192.96   16.49  0. 1.0000     0. 
   2  -6  -3    222.22   18.63  0. 1.0000     0. 
   2   6   3    193.86   17.53  0. 1.0000     0. 
  -2   6  -3    233.83   18.76  0. 1.0000     0. 
   2  -6  -3    210.43   18.77  0. 1.0000     0. 
  -2   6  -3    189.57   15.86  0. 1.0000     0. 
   2  -6  -3    217.19   15.23  0. 1.0000     0. 
  -2   6  -3    202.53   16.48  0. 1.0000     0. 
   3  -6   3    381.88   25.27  0. 1.0000     0. 
   3  -6   3    344.61   26.09  0. 1.0000     0. 
  -3   6   3    303.10   27.41  0. 1.0000     0. 
  -3   6   3    358.59   27.18  0. 1.0000     0. 
  -3   6  -3    387.62   26.97  0. 1.0000     0. 
   3  -6  -3    393.54   28.47  0. 1.0000     0. 
  -4   6   3    182.45   16.81  0. 1.0000     0. 
  -4   6   3    176.83   16.75  0. 1.0000     0. 
  -4   6  -3    190.90   15.74  0. 1.0000     0. 
  -5   6   3    116.82   14.56  0. 1.0000     0. 
   0  -7   3    296.00   23.96  0. 1.0000     0. 
   0  -7  -3    328.42   26.12  0. 1.0000     0. 
   0  -7   3    331.47   24.10  0. 1.0000     0. 
   0   7  -3    311.04   24.45  0. 1.0000     0. 
   0   7  -3    308.73   24.15  0. 1.0000     0. 
   0   7   3    272.52   24.22  0. 1.0000     0. 
   0  -7  -3    361.44   25.57  0. 1.0000     0. 
   0   7  -3    344.00   22.66  0. 1.0000     0. 
   0  -7  -3    323.64   23.89  0. 1.0000     0. 
   0   7   3    331.48   25.77  0. 1.0000     0. 
   0   7   3    330.38   23.75  0. 1.0000     0. 
   0   7   3    343.02   22.84  0. 1.0000     0. 
   1   7  -3    298.35   22.06  0. 1.0000     0. 
   1  -7   3    262.47   21.68  0. 1.0000     0. 
  -1   7   3    307.99   24.07  0. 1.0000     0. 
  -1   7   3    263.14   21.27  0. 1.0000     0. 
   1  -7   3    299.15   21.69  0. 1.0000     0. 
  -1   7   3    282.13   23.00  0. 1.0000     0. 
   1  -7  -3    337.58   24.19  0. 1.0000     0. 
   1   7   3    237.02   22.67  0. 1.0000     0. 
  -1  -7   3    261.22   21.20  0. 1.0000     0. 
   1   7   3    271.55   21.29  0. 1.0000     0. 
   1  -7  -3    292.14   21.65  0. 1.0000     0. 
  -1   7  -3    285.43   19.98  0. 1.0000     0. 
   1  -7  -3    303.85   22.64  0. 1.0000     0. 
   1   7   3    272.61   23.40  0. 1.0000     0. 
  -1   7  -3    314.96   21.75  0. 1.0000     0. 
   1   7   3    282.15   20.41  0. 1.0000     0. 
  -1   7  -3    302.68   22.23  0. 1.0000     0. 
  -2   7   3    208.88   18.16  0. 1.0000     0. 
   2   7  -3    174.74   16.77  0. 1.0000     0. 
   2  -7   3    207.67   16.29  0. 1.0000     0. 
   2  -7   3    194.91   16.67  0. 1.0000     0. 
   2  -7   3    210.16   15.59  0. 1.0000     0. 
  -2   7   3    176.93   17.76  0. 1.0000     0. 
  -2   7  -3    222.70   17.61  0. 1.0000     0. 
   2  -7  -3    175.74   18.64  0. 1.0000     0. 
  -2   7  -3    183.45   15.27  0. 1.0000     0. 
   2  -7  -3    194.34   16.98  0. 1.0000     0. 
   2   7   3    186.28   17.54  0. 1.0000     0. 
  -2   7  -3    196.22   16.18  0. 1.0000     0. 
   2  -7  -3    199.01   14.26  0. 1.0000     0. 
   3  -7   3    204.74   16.84  0. 1.0000     0. 
  -3   7   3    166.18   19.89  0. 1.0000     0. 
  -3   7   3    221.32   18.50  0. 1.0000     0. 
   3  -7   3    221.67   15.44  0. 1.0000     0. 
   3  -7   3    199.40   16.50  0. 1.0000     0. 
   3  -7  -3    197.79   18.73  0. 1.0000     0. 
  -3   7  -3    223.35   18.53  0. 1.0000     0. 
   3  -7  -3    168.52   19.88  0. 1.0000     0. 
  -3   7  -3    201.44   16.83  0. 1.0000     0. 
   3  -7  -3    202.06   14.97  0. 1.0000     0. 
   4  -7   3    101.14   10.99  0. 1.0000     0. 
   4  -7   3    114.52    9.35  0. 1.0000     0. 
  -4   7   3    100.29   13.21  0. 1.0000     0. 
  -4   7  -3     96.27   12.56  0. 1.0000     0. 
  -5   7   3     49.18    8.34  0. 1.0000     0. 
  -5   7  -3     39.61    6.53  0. 1.0000     0. 
   1  -8   3     29.25    6.37  0. 1.0000     0. 
   1   8  -3     36.30    6.16  0. 1.0000     0. 
  -1   8   3     43.75    7.67  0. 1.0000     0. 
  -1   8   3     22.06    6.60  0. 1.0000     0. 
  -1   8   3     41.53    5.25  0. 1.0000     0. 
   1  -8   3     30.76    6.29  0. 1.0000     0. 
   1  -8  -3     34.77    7.53  0. 1.0000     0. 
   1   8   3     32.66    5.21  0. 1.0000     0. 
   1  -8  -3     34.42    8.13  0. 1.0000     0. 
  -1  -8   3     24.19    4.52  0. 1.0000     0. 
  -1   8  -3     42.86    6.08  0. 1.0000     0. 
   1   8   3     24.24    4.11  0. 1.0000     0. 
   1   8   3     45.65    8.58  0. 1.0000     0. 
  -1   8  -3     28.61    6.28  0. 1.0000     0. 
   1  -8  -3     37.15    5.26  0. 1.0000     0. 
   2   8  -3     50.04    6.96  0. 1.0000     0. 
   2  -8   3     52.80    9.92  0. 1.0000     0. 
   2  -8   3     58.28    7.73  0. 1.0000     0. 
  -2   8   3     53.92    8.72  0. 1.0000     0. 
   2  -8   3     43.98    7.26  0. 1.0000     0. 
   2  -8  -3     50.00    9.17  0. 1.0000     0. 
   2  -8  -3     42.59    5.47  0. 1.0000     0. 
  -2   8  -3     42.45    7.13  0. 1.0000     0. 
  -2   8  -3     48.83    6.84  0. 1.0000     0. 
   2   8   3     60.29    7.99  0. 1.0000     0. 
   2  -8  -3     47.65    7.71  0. 1.0000     0. 
  -2   8  -3     41.27    7.54  0. 1.0000     0. 
   3  -8   3    124.37   11.58  0. 1.0000     0. 
   3  -8   3    130.41   13.76  0. 1.0000     0. 
  -3   8   3    148.28   15.05  0. 1.0000     0. 
   3  -8  -3    115.88   16.70  0. 1.0000     0. 
  -3   8  -3    124.65   12.64  0. 1.0000     0. 
  -3   8  -3    109.53   11.25  0. 1.0000     0. 
  -3   8  -3    132.95   16.18  0. 1.0000     0. 
   3  -8  -3    125.74   10.12  0. 1.0000     0. 
   3  -8  -3    127.93   16.49  0. 1.0000     0. 
  -4   8   3    118.69   13.10  0. 1.0000     0. 
  -4   8   3     87.37   12.03  0. 1.0000     0. 
   4  -8  -3    131.99   14.85  0. 1.0000     0. 
   4  -8  -3    114.71   14.88  0. 1.0000     0. 
  -4   8  -3    138.57   15.50  0. 1.0000     0. 
  -5   8  -3    123.92   14.76  0. 1.0000     0. 
  -6   8   3    109.17   13.04  0. 1.0000     0. 
   0   9   3     81.16   12.10  0. 1.0000     0. 
   0   9  -3     81.93    7.20  0. 1.0000     0. 
   0   9   3     86.80   11.27  0. 1.0000     0. 
   0  -9   3     74.43   12.18  0. 1.0000     0. 
   0  -9  -3     69.45   11.07  0. 1.0000     0. 
   0   9   3     59.29   10.22  0. 1.0000     0. 
   0  -9  -3     80.26   10.15  0. 1.0000     0. 
   0  -9  -3     81.63   10.45  0. 1.0000     0. 
   0   9  -3     84.91   14.29  0. 1.0000     0. 
   0   9  -3     58.82    8.21  0. 1.0000     0. 
  -1   9   3     65.70    9.20  0. 1.0000     0. 
  -1   9   3     68.49    8.54  0. 1.0000     0. 
   1   9  -3     52.64    8.13  0. 1.0000     0. 
   1  -9   3     57.59   11.40  0. 1.0000     0. 
   1  -9   3     84.47    9.69  0. 1.0000     0. 
  -1   9   3     62.19    9.66  0. 1.0000     0. 
  -1  -9   3     64.58    8.38  0. 1.0000     0. 
   1  -9  -3     53.82   10.30  0. 1.0000     0. 
   1  -9  -3     78.25   10.28  0. 1.0000     0. 
  -1   9  -3     72.52   11.38  0. 1.0000     0. 
  -1   9  -3     51.34    7.85  0. 1.0000     0. 
  -1  -9   3     88.12   10.91  0. 1.0000     0. 
   1   9   3     54.85    7.55  0. 1.0000     0. 
   2  -9   3     73.77   12.10  0. 1.0000     0. 
  -2   9   3     93.99   11.61  0. 1.0000     0. 
   2  -9   3     88.83   12.09  0. 1.0000     0. 
  -2   9   3     91.26   15.09  0. 1.0000     0. 
   2   9  -3     99.90   10.45  0. 1.0000     0. 
   2   9   3     74.30   10.54  0. 1.0000     0. 
   2  -9  -3     63.58    9.48  0. 1.0000     0. 
   2  -9  -3     55.96   10.80  0. 1.0000     0. 
  -2   9  -3     79.92   11.74  0. 1.0000     0. 
  -2   9  -3     90.17   14.25  0. 1.0000     0. 
  -3   9   3     90.17   13.47  0. 1.0000     0. 
  -3   9   3     60.42   10.28  0. 1.0000     0. 
   3  -9   3     77.28    8.83  0. 1.0000     0. 
   3  -9   3     85.48   12.17  0. 1.0000     0. 
   3  -9  -3     93.01   16.82  0. 1.0000     0. 
  -3   9  -3     90.88   14.90  0. 1.0000     0. 
  -3   9  -3     94.79   12.41  0. 1.0000     0. 
   3  -9  -3     97.10   10.95  0. 1.0000     0. 
   3  -9  -3     80.36    7.86  0. 1.0000     0. 
   4  -9   3     70.14    8.71  0. 1.0000     0. 
  -4   9   3     71.13   10.12  0. 1.0000     0. 
   4  -9   3     74.90    9.34  0. 1.0000     0. 
   4  -9   3     66.32    8.49  0. 1.0000     0. 
  -4   9   3     92.80   12.07  0. 1.0000     0. 
   4  -9  -3    102.01   18.77  0. 1.0000     0. 
   4  -9  -3     67.10    7.69  0. 1.0000     0. 
   4  -9  -3     59.65    9.63  0. 1.0000     0. 
  -4   9  -3     90.06   10.44  0. 1.0000     0. 
  -5   9   3     51.11    9.98  0. 1.0000     0. 
  -5   9   3     47.22    8.96  0. 1.0000     0. 
   5  -9   3     46.54    6.12  0. 1.0000     0. 
  -5   9  -3     44.57    8.67  0. 1.0000     0. 
   5  -9  -3     54.21    8.86  0. 1.0000     0. 
  -6   9   3     36.46   10.03  0. 1.0000     0. 
  -6   9  -3     32.16    7.53  0. 1.0000     0. 
   0  10   3     98.46   13.01  0. 1.0000     0. 
   0 -10  -3     69.48    9.68  0. 1.0000     0. 
   0 -10   3     55.78    9.53  0. 1.0000     0. 
   0 -10  -3     90.47   11.31  0. 1.0000     0. 
   0  10  -3     66.16    8.86  0. 1.0000     0. 
   0  10  -3    100.63   17.03  0. 1.0000     0. 
   0  10   3     74.75   11.15  0. 1.0000     0. 
   0 -10  -3     69.86   11.56  0. 1.0000     0. 
   1 -10   3     54.31    8.88  0. 1.0000     0. 
   1  10  -3     62.90    8.82  0. 1.0000     0. 
  -1 -10  -3     52.37   10.81  0. 1.0000     0. 
  -1  10   3     61.19   10.24  0. 1.0000     0. 
  -1 -10  -3     55.03    9.16  0. 1.0000     0. 
  -1  10   3     57.12    9.44  0. 1.0000     0. 
   1 -10  -3     78.59   13.53  0. 1.0000     0. 
   1 -10  -3     47.92    9.40  0. 1.0000     0. 
  -1  10  -3     76.85   12.15  0. 1.0000     0. 
  -1 -10   3     44.80    5.43  0. 1.0000     0. 
   1  10   3     49.27   10.38  0. 1.0000     0. 
  -1 -10   3     48.32    8.94  0. 1.0000     0. 
  -1  10  -3     59.35    9.42  0. 1.0000     0. 
  -2  10   3     69.17   10.51  0. 1.0000     0. 
  -2  10   3    128.57   20.07  0. 1.0000     0. 
   2 -10   3     91.45   10.78  0. 1.0000     0. 
   2 -10   3     69.74   13.66  0. 1.0000     0. 
   2 -10  -3     79.77   10.93  0. 1.0000     0. 
  -2  10  -3     64.93   10.73  0. 1.0000     0. 
   2 -10  -3    102.89   13.81  0. 1.0000     0. 
  -2  10  -3     85.02   13.04  0. 1.0000     0. 
   2  10   3     95.85   12.12  0. 1.0000     0. 
   3 -10   3     64.64   10.13  0. 1.0000     0. 
   3 -10   3     71.20    9.74  0. 1.0000     0. 
  -3  10   3     67.04    9.73  0. 1.0000     0. 
  -3  10   3     65.04   12.18  0. 1.0000     0. 
   3 -10  -3     66.23   11.61  0. 1.0000     0. 
  -3  10  -3     66.60   10.08  0. 1.0000     0. 
  -3  10  -3     81.66   13.14  0. 1.0000     0. 
   3 -10  -3     51.50    9.50  0. 1.0000     0. 
   4 -10   3     70.86    9.72  0. 1.0000     0. 
  -4  10   3     86.85   12.13  0. 1.0000     0. 
  -4  10   3     55.43    9.48  0. 1.0000     0. 
  -4  10  -3     69.26   10.16  0. 1.0000     0. 
  -4  10  -3     49.86    8.15  0. 1.0000     0. 
   4 -10  -3     65.45    7.67  0. 1.0000     0. 
   4 -10  -3     72.58   12.61  0. 1.0000     0. 
   4 -10  -3     48.85    9.44  0. 1.0000     0. 
  -5  10   3     39.25   11.61  0. 1.0000     0. 
   5 -10   3     53.56    8.58  0. 1.0000     0. 
  -5  10   3     53.06    9.67  0. 1.0000     0. 
  -5  10  -3     54.76    9.36  0. 1.0000     0. 
   5 -10  -3     33.71    8.50  0. 1.0000     0. 
  -6  10   3     16.67   10.43  0. 1.0000     0. 
   6 -10  -3     23.92    8.57  0. 1.0000     0. 
  -6  10  -3     22.65    8.36  0. 1.0000     0. 
   0  11   3     73.89   12.02  0. 1.0000     0. 
   0  11  -3     71.89   11.65  0. 1.0000     0. 
   0  11   3     79.07   12.43  0. 1.0000     0. 
   0 -11  -3     61.88   11.75  0. 1.0000     0. 
   0 -11   3     66.22   10.39  0. 1.0000     0. 
   0  11  -3     57.30    8.93  0. 1.0000     0. 
   0 -11  -3     66.08   10.86  0. 1.0000     0. 
  -1  11   3     62.72   10.47  0. 1.0000     0. 
   1 -11   3     67.50    9.68  0. 1.0000     0. 
   1  11  -3     57.77    9.58  0. 1.0000     0. 
  -1 -11  -3     51.85   11.82  0. 1.0000     0. 
   1 -11   3     49.46    9.35  0. 1.0000     0. 
  -1  11   3     47.76   10.82  0. 1.0000     0. 
   1 -11  -3     73.12   11.45  0. 1.0000     0. 
   1  11   3     77.08   12.67  0. 1.0000     0. 
  -1  11  -3     68.20   10.19  0. 1.0000     0. 
  -1  11  -3     67.35    8.85  0. 1.0000     0. 
   1  11   3     89.14   14.38  0. 1.0000     0. 
   1 -11  -3     54.09   12.59  0. 1.0000     0. 
  -1 -11   3     58.33    9.81  0. 1.0000     0. 
   2  11  -3     62.12    9.31  0. 1.0000     0. 
  -2  11   3     79.90   13.23  0. 1.0000     0. 
   2 -11   3     51.22    9.32  0. 1.0000     0. 
   2 -11   3     69.57    9.90  0. 1.0000     0. 
  -2  11   3     62.63   10.32  0. 1.0000     0. 
   2 -11  -3    110.38   20.25  0. 1.0000     0. 
  -2  11  -3     65.31   10.05  0. 1.0000     0. 
  -2  11  -3     77.07   12.44  0. 1.0000     0. 
   2  11   3     52.46   10.88  0. 1.0000     0. 
   2 -11  -3     52.95    9.43  0. 1.0000     0. 
  -3  11   3     54.20   13.21  0. 1.0000     0. 
   3 -11   3     39.15    8.83  0. 1.0000     0. 
   3 -11   3     42.90    9.61  0. 1.0000     0. 
   3  11  -3     36.99    9.90  0. 1.0000     0. 
  -3  11   3     43.43    8.76  0. 1.0000     0. 
   3 -11  -3     28.44    8.53  0. 1.0000     0. 
  -3  11  -3     42.49    8.52  0. 1.0000     0. 
   3 -11  -3     51.93   11.45  0. 1.0000     0. 
  -3  11  -3     47.52   10.22  0. 1.0000     0. 
   4 -11   3     44.79    9.41  0. 1.0000     0. 
  -4  11   3     56.28   12.46  0. 1.0000     0. 
  -4  11   3     43.87    9.67  0. 1.0000     0. 
   4 -11  -3     41.56   12.44  0. 1.0000     0. 
   4 -11  -3     44.94    9.62  0. 1.0000     0. 
  -4  11  -3     67.80   10.94  0. 1.0000     0. 
  -4  11  -3     24.46    7.49  0. 1.0000     0. 
  -5  11   3     30.46   13.17  0. 1.0000     0. 
   5 -11   3     13.29    8.74  0. 1.0000     0. 
  -5  11   3     22.29    9.23  0. 1.0000     0. 
   5 -11  -3      2.91    9.38  0. 1.0000     0. 
  -5  11  -3     15.98    8.89  0. 1.0000     0. 
  -6  11   3     17.05   12.12  0. 1.0000     0. 
   6 -11   3     16.86    7.75  0. 1.0000     0. 
  -6  11  -3     10.75    8.71  0. 1.0000     0. 
   6 -11  -3      7.17    8.13  0. 1.0000     0. 
   0 -12  -3     55.47   13.49  0. 1.0000     0. 
   0  12   3     40.01   11.83  0. 1.0000     0. 
   0 -12   3     33.98    9.58  0. 1.0000     0. 
   0  12   3     38.30   14.95  0. 1.0000     0. 
   0  12  -3     54.98   12.31  0. 1.0000     0. 
   0  12  -3     34.91    8.02  0. 1.0000     0. 
   1  12  -3     35.01    8.30  0. 1.0000     0. 
   1 -12   3     49.26    9.56  0. 1.0000     0. 
  -1 -12  -3     49.98   13.32  0. 1.0000     0. 
   1 -12   3     49.61    9.72  0. 1.0000     0. 
  -1  12   3     60.29   14.08  0. 1.0000     0. 
  -1  12   3     39.06    8.95  0. 1.0000     0. 
  -1 -12   3     30.20    9.02  0. 1.0000     0. 
  -1  12  -3     21.84    7.88  0. 1.0000     0. 
   1 -12  -3     64.71   12.96  0. 1.0000     0. 
   1  12   3     21.69   17.84  0. 1.0000     0. 
  -1  12  -3     46.98    9.77  0. 1.0000     0. 
   1  12   3     31.29   13.65  0. 1.0000     0. 
   1 -12  -3     37.82    9.04  0. 1.0000     0. 
  -2  12   3     50.48   14.90  0. 1.0000     0. 
  -2  12   3     51.77   10.76  0. 1.0000     0. 
   2  12  -3     38.19    9.68  0. 1.0000     0. 
   2 -12   3     65.24   11.39  0. 1.0000     0. 
  -2  12  -3     40.39    8.82  0. 1.0000     0. 
   2 -12  -3     39.75   11.49  0. 1.0000     0. 
  -2  12  -3     56.47   10.75  0. 1.0000     0. 
  -2 -12   3     31.58    8.84  0. 1.0000     0. 
   2  12   3     55.63   13.60  0. 1.0000     0. 
   2 -12  -3     52.75   13.99  0. 1.0000     0. 
  -3  12   3     22.34   13.25  0. 1.0000     0. 
   3 -12   3     24.00    8.68  0. 1.0000     0. 
   3 -12   3     27.00    9.68  0. 1.0000     0. 
  -3  12   3     13.11    7.42  0. 1.0000     0. 
   3  12  -3     13.89    8.12  0. 1.0000     0. 
   3 -12  -3     25.90   12.35  0. 1.0000     0. 
   3 -12  -3     26.22    8.31  0. 1.0000     0. 
  -3  12  -3     28.24   10.02  0. 1.0000     0. 
  -3  12  -3     18.55    7.99  0. 1.0000     0. 
  -4  12   3      9.08   14.02  0. 1.0000     0. 
  -4  12   3     17.16    8.16  0. 1.0000     0. 
   4 -12   3     19.54    8.62  0. 1.0000     0. 
   4 -12  -3     16.47    8.54  0. 1.0000     0. 
  -4  12  -3     20.54    7.40  0. 1.0000     0. 
  -4  12  -3     22.21   10.40  0. 1.0000     0. 
   4 -12  -3     20.92   12.28  0. 1.0000     0. 
  -1   1   4     71.01    6.28  0. 1.0000     0. 
  -1  -1   4     71.61    6.48  0. 1.0000     0. 
  -2   2   4    318.39   26.00  0. 1.0000     0. 
  -2   2   4    349.97   26.47  0. 1.0000     0. 
   2  -2   4    361.24   26.54  0. 1.0000     0. 
   2  -2   4    396.26   26.02  0. 1.0000     0. 
  -2  -2   4    393.35   27.22  0. 1.0000     0. 
   2   2   4    400.06   26.83  0. 1.0000     0. 
   0  -3  -4    100.78    9.34  0. 1.0000     0. 
   0   3  -4    105.83   11.17  0. 1.0000     0. 
   0  -3  -4    106.52    9.05  0. 1.0000     0. 
   0   3  -4    113.41    8.82  0. 1.0000     0. 
   0  -3   4    108.84   10.58  0. 1.0000     0. 
   0   3  -4    112.29    8.37  0. 1.0000     0. 
   0   3   4     86.12    9.70  0. 1.0000     0. 
   0   3   4    100.50   10.30  0. 1.0000     0. 
   0  -3   4     92.24    7.65  0. 1.0000     0. 
   0  -3  -4    100.67   10.24  0. 1.0000     0. 
   0  -3  -4    111.30   10.28  0. 1.0000     0. 
   0   3   4    100.25   10.60  0. 1.0000     0. 
   0   3   4    112.21    8.95  0. 1.0000     0. 
   0  -3   4    117.37    9.01  0. 1.0000     0. 
   1  -3   4     79.86    7.35  0. 1.0000     0. 
   1  -3   4     62.98    8.79  0. 1.0000     0. 
   1   3  -4     62.83    8.52  0. 1.0000     0. 
  -1   3   4     80.10    8.65  0. 1.0000     0. 
  -1   3   4     59.73    8.72  0. 1.0000     0. 
   1  -3   4     78.06    6.07  0. 1.0000     0. 
  -1   3   4     68.16    9.84  0. 1.0000     0. 
   1  -3  -4     77.10    7.99  0. 1.0000     0. 
  -1   3  -4     58.73    8.08  0. 1.0000     0. 
   1   3   4     72.30    6.99  0. 1.0000     0. 
  -1  -3   4     63.13    7.84  0. 1.0000     0. 
   1  -3  -4     72.47    7.10  0. 1.0000     0. 
  -1   3  -4     90.20    7.92  0. 1.0000     0. 
  -1   3  -4     71.74    7.03  0. 1.0000     0. 
   1   3   4     70.65    8.42  0. 1.0000     0. 
   1  -3  -4     63.82    8.82  0. 1.0000     0. 
   1   3   4     78.41    9.63  0. 1.0000     0. 
   1   3   4     66.20    8.63  0. 1.0000     0. 
  -1   3  -4     72.69    6.40  0. 1.0000     0. 
   1  -3  -4     77.48    9.84  0. 1.0000     0. 
   2  -3   4     93.87   10.36  0. 1.0000     0. 
  -2   3   4    108.21   10.07  0. 1.0000     0. 
  -2   3   4    106.19   10.38  0. 1.0000     0. 
  -2   3   4    100.26   11.26  0. 1.0000     0. 
   2  -3   4    101.05    8.75  0. 1.0000     0. 
  -2   3   4    103.82    9.80  0. 1.0000     0. 
  -3   2   4     90.71    9.81  0. 1.0000     0. 
  -3   2   4     94.78    9.34  0. 1.0000     0. 
   2   3   4    105.58   10.55  0. 1.0000     0. 
   2  -3  -4    105.74   10.43  0. 1.0000     0. 
  -2   3  -4     97.80    8.13  0. 1.0000     0. 
   2  -3  -4    106.49   10.41  0. 1.0000     0. 
  -3   3   4    131.61   12.96  0. 1.0000     0. 
   3  -3   4    158.06   12.99  0. 1.0000     0. 
   0  -4  -4    234.96   19.29  0. 1.0000     0. 
   0   4  -4    263.27   18.22  0. 1.0000     0. 
   0  -4  -4    245.50   18.13  0. 1.0000     0. 
   0   4   4    289.46   18.40  0. 1.0000     0. 
   0  -4  -4    247.77   19.08  0. 1.0000     0. 
   0  -4   4    256.24   18.00  0. 1.0000     0. 
   0   4  -4    270.35   19.64  0. 1.0000     0. 
   0  -4   4    231.02   18.58  0. 1.0000     0. 
   0   4   4    247.60   19.19  0. 1.0000     0. 
   0   4   4    219.02   19.64  0. 1.0000     0. 
   0   4  -4    290.01   18.62  0. 1.0000     0. 
   0   4   4    233.14   18.99  0. 1.0000     0. 
   1   4  -4    344.86   25.22  0. 1.0000     0. 
  -1   4   4    405.05   27.07  0. 1.0000     0. 
   1   4  -4    368.08   25.86  0. 1.0000     0. 
  -1   4   4    362.17   26.61  0. 1.0000     0. 
  -1   4   4    400.60   26.97  0. 1.0000     0. 
   1  -4   4    318.39   26.41  0. 1.0000     0. 
   1  -4  -4    350.21   25.50  0. 1.0000     0. 
  -1   4  -4    366.29   25.58  0. 1.0000     0. 
   1   4   4    333.52   26.36  0. 1.0000     0. 
   1  -4  -4    394.47   27.35  0. 1.0000     0. 
   1  -4  -4    423.19   27.90  0. 1.0000     0. 
   1  -4  -4    381.81   26.39  0. 1.0000     0. 
   1   4   4    377.11   25.93  0. 1.0000     0. 
   1   4   4    360.41   26.89  0. 1.0000     0. 
   1   4   4    342.83   26.39  0. 1.0000     0. 
  -1  -4   4    321.33   25.92  0. 1.0000     0. 
  -2   4   4    137.60   12.62  0. 1.0000     0. 
  -2   4   4    136.09   13.57  0. 1.0000     0. 
   2  -4   4    164.86   11.71  0. 1.0000     0. 
  -2   4   4    142.04   12.69  0. 1.0000     0. 
   2  -4   4    159.00   13.13  0. 1.0000     0. 
   2  -4  -4    136.47   13.43  0. 1.0000     0. 
   2   4   4    139.13   12.49  0. 1.0000     0. 
   2  -4  -4    157.21   11.63  0. 1.0000     0. 
  -2   4  -4    149.29   12.98  0. 1.0000     0. 
   2   4   4    142.57   13.10  0. 1.0000     0. 
  -2   4  -4    145.28   11.62  0. 1.0000     0. 
   2  -4  -4    130.07   12.69  0. 1.0000     0. 
  -3   4   4    255.54   20.47  0. 1.0000     0. 
  -3   4   4    259.13   20.10  0. 1.0000     0. 
   3  -4   4    272.62   20.06  0. 1.0000     0. 
  -3   4  -4    256.65   19.15  0. 1.0000     0. 
   0  -5  -4    326.43   23.29  0. 1.0000     0. 
   0   5  -4    268.79   22.40  0. 1.0000     0. 
   0   5  -4    313.32   23.16  0. 1.0000     0. 
   0  -5   4    295.79   22.08  0. 1.0000     0. 
   0   5   4    317.86   21.51  0. 1.0000     0. 
   0   5  -4    274.64   21.73  0. 1.0000     0. 
   0   5  -4    315.79   21.39  0. 1.0000     0. 
   0  -5  -4    315.61   23.40  0. 1.0000     0. 
   0   5   4    316.57   23.34  0. 1.0000     0. 
   0  -5  -4    285.60   22.72  0. 1.0000     0. 
   0  -5   4    286.27   21.58  0. 1.0000     0. 
   0   5   4    279.23   22.31  0. 1.0000     0. 
   0  -5  -4    304.05   21.40  0. 1.0000     0. 
   1  -5   4    354.58   30.31  0. 1.0000     0. 
  -1   5   4    462.59   31.18  0. 1.0000     0. 
   1  -5   4    412.20   29.99  0. 1.0000     0. 
   1   5  -4    441.72   30.27  0. 1.0000     0. 
   1  -5   4    416.18   29.73  0. 1.0000     0. 
  -1   5   4    455.85   31.33  0. 1.0000     0. 
   1   5  -4    408.60   29.91  0. 1.0000     0. 
  -1   5  -4    455.84   29.73  0. 1.0000     0. 
   1  -5  -4    425.08   31.23  0. 1.0000     0. 
  -1   5  -4    427.74   30.00  0. 1.0000     0. 
   1   5   4    427.03   31.07  0. 1.0000     0. 
  -1   5  -4    414.27   30.87  0. 1.0000     0. 
   1  -5  -4    473.79   33.45  0. 1.0000     0. 
   1  -5  -4    419.82   29.68  0. 1.0000     0. 
   1   5   4    401.12   30.54  0. 1.0000     0. 
  -2   5   4    241.91   21.29  0. 1.0000     0. 
   2  -5   4    273.16   18.77  0. 1.0000     0. 
   2  -5   4    277.06   18.77  0. 1.0000     0. 
   2  -5   4    259.64   19.23  0. 1.0000     0. 
  -2   5   4    245.91   19.40  0. 1.0000     0. 
  -2   5   4    235.26   19.80  0. 1.0000     0. 
   2  -5  -4    235.30   18.43  0. 1.0000     0. 
   2   5   4    250.98   19.76  0. 1.0000     0. 
   2  -5  -4    285.67   21.09  0. 1.0000     0. 
   2   5   4    223.22   19.73  0. 1.0000     0. 
  -2   5  -4    235.89   19.40  0. 1.0000     0. 
  -2   5  -4    282.16   20.30  0. 1.0000     0. 
   2  -5  -4    239.49   20.69  0. 1.0000     0. 
  -2   5  -4    271.31   19.78  0. 1.0000     0. 
   3  -5   4    408.48   29.91  0. 1.0000     0. 
   3  -5   4    456.62   29.19  0. 1.0000     0. 
  -3   5   4    387.02   30.54  0. 1.0000     0. 
  -3   5   4    403.35   30.62  0. 1.0000     0. 
  -3   5  -4    413.98   29.73  0. 1.0000     0. 
  -3   5  -4    382.36   29.80  0. 1.0000     0. 
   3  -5  -4    448.53   31.38  0. 1.0000     0. 
   0   6   4    286.05   19.59  0. 1.0000     0. 
   0   6  -4    298.76   19.46  0. 1.0000     0. 
   0  -6  -4    283.12   22.60  0. 1.0000     0. 
   0  -6  -4    243.96   21.47  0. 1.0000     0. 
   0  -6   4    233.43   19.70  0. 1.0000     0. 
   0  -6  -4    296.07   22.18  0. 1.0000     0. 
   0   6  -4    315.83   21.51  0. 1.0000     0. 
   0   6   4    241.53   22.07  0. 1.0000     0. 
   0   6  -4    253.79   19.93  0. 1.0000     0. 
   0   6   4    262.05   20.56  0. 1.0000     0. 
   0  -6   4    241.95   19.92  0. 1.0000     0. 
  -1   6   4    316.14   24.03  0. 1.0000     0. 
   1  -6   4    317.92   23.01  0. 1.0000     0. 
  -1   6   4    323.44   24.79  0. 1.0000     0. 
   1   6  -4    322.12   23.25  0. 1.0000     0. 
   1  -6   4    279.64   22.78  0. 1.0000     0. 
   1  -6   4    313.96   23.09  0. 1.0000     0. 
  -1   6   4    320.01   24.63  0. 1.0000     0. 
   1  -6  -4    320.41   25.76  0. 1.0000     0. 
   1   6   4    289.89   23.31  0. 1.0000     0. 
  -1   6  -4    332.71   22.98  0. 1.0000     0. 
   1  -6  -4    312.36   24.07  0. 1.0000     0. 
   1  -6  -4    324.12   24.01  0. 1.0000     0. 
   1   6   4    316.85   24.62  0. 1.0000     0. 
  -1   6  -4    348.52   23.89  0. 1.0000     0. 
   1  -6  -4    311.87   22.44  0. 1.0000     0. 
  -1   6  -4    302.05   23.65  0. 1.0000     0. 
  -1   6  -4    324.58   22.45  0. 1.0000     0. 
   1   6   4    331.58   25.25  0. 1.0000     0. 
  -2   6   4    230.82   20.13  0. 1.0000     0. 
   2   6  -4    256.89   18.78  0. 1.0000     0. 
  -2   6   4    234.11   19.78  0. 1.0000     0. 
   2  -6   4    268.77   18.69  0. 1.0000     0. 
   2  -6   4    246.48   18.80  0. 1.0000     0. 
  -2   6   4    209.15   18.26  0. 1.0000     0. 
   2  -6   4    261.34   17.73  0. 1.0000     0. 
  -2   6  -4    260.36   20.56  0. 1.0000     0. 
   2  -6  -4    248.57   21.19  0. 1.0000     0. 
  -2   6  -4    230.12   19.50  0. 1.0000     0. 
  -2   6  -4    224.07   18.64  0. 1.0000     0. 
   2   6   4    229.06   18.98  0. 1.0000     0. 
  -2   6  -4    228.92   17.96  0. 1.0000     0. 
   2  -6  -4    242.11   19.39  0. 1.0000     0. 
   2   6   4    218.81   19.77  0. 1.0000     0. 
   2  -6  -4    241.72   17.63  0. 1.0000     0. 
  -3   6   4    362.07   29.51  0. 1.0000     0. 
   3  -6   4    384.71   27.97  0. 1.0000     0. 
  -3   6   4    378.09   29.04  0. 1.0000     0. 
   3  -6   4    365.63   27.09  0. 1.0000     0. 
  -3   6  -4    400.39   28.63  0. 1.0000     0. 
   3  -6  -4    436.90   30.57  0. 1.0000     0. 
   3  -6  -4    372.50   28.82  0. 1.0000     0. 
   4  -6   4    199.44   16.81  0. 1.0000     0. 
  -4   6   4    205.24   19.37  0. 1.0000     0. 
  -4   6   4    209.34   18.74  0. 1.0000     0. 
  -4   6  -4    205.43   17.05  0. 1.0000     0. 
   0   7   4    300.11   22.85  0. 1.0000     0. 
   0  -7  -4    317.15   25.72  0. 1.0000     0. 
   0  -7  -4    289.29   22.90  0. 1.0000     0. 
   0   7  -4    315.34   21.26  0. 1.0000     0. 
   0  -7  -4    292.93   24.16  0. 1.0000     0. 
   0   7   4    299.12   25.65  0. 1.0000     0. 
   0   7   4    238.13   23.59  0. 1.0000     0. 
   0  -7   4    289.68   22.54  0. 1.0000     0. 
   0   7   4    316.74   21.73  0. 1.0000     0. 
  -1   7   4    274.78   23.47  0. 1.0000     0. 
   1   7  -4    276.33   21.40  0. 1.0000     0. 
  -1   7   4    284.09   24.09  0. 1.0000     0. 
   1  -7   4    232.98   21.15  0. 1.0000     0. 
   1  -7   4    302.49   21.38  0. 1.0000     0. 
  -1   7   4    295.05   21.80  0. 1.0000     0. 
   1  -7   4    256.67   20.70  0. 1.0000     0. 
   1   7   4    298.15   23.53  0. 1.0000     0. 
  -1   7  -4    291.79   21.27  0. 1.0000     0. 
   1  -7  -4    277.49   21.95  0. 1.0000     0. 
   1  -7  -4    295.88   22.42  0. 1.0000     0. 
  -1   7  -4    262.49   21.31  0. 1.0000     0. 
  -1   7  -4    278.43   19.95  0. 1.0000     0. 
   1   7   4    289.33   21.40  0. 1.0000     0. 
   1  -7  -4    320.26   24.60  0. 1.0000     0. 
  -1   7  -4    276.71   21.71  0. 1.0000     0. 
   1  -7  -4    264.88   20.02  0. 1.0000     0. 
   2  -7   4    236.76   17.43  0. 1.0000     0. 
  -2   7   4    252.36   19.79  0. 1.0000     0. 
   2  -7   4    185.80   16.29  0. 1.0000     0. 
   2   7  -4    212.98   17.37  0. 1.0000     0. 
  -2   7   4    174.28   16.14  0. 1.0000     0. 
  -2   7   4    207.84   18.94  0. 1.0000     0. 
  -2   7  -4    217.97   16.89  0. 1.0000     0. 
  -2   7  -4    190.41   16.71  0. 1.0000     0. 
   2  -7  -4    199.12   20.42  0. 1.0000     0. 
   2   7   4    191.86   18.02  0. 1.0000     0. 
   2   7   4    185.90   16.72  0. 1.0000     0. 
   2  -7  -4    195.76   15.27  0. 1.0000     0. 
  -2   7  -4    233.77   18.49  0. 1.0000     0. 
   2  -7  -4    214.71   18.16  0. 1.0000     0. 
  -3   7   4    208.32   19.11  0. 1.0000     0. 
  -3   7   4    211.47   20.90  0. 1.0000     0. 
   3  -7   4    219.84   17.07  0. 1.0000     0. 
   3  -7   4    210.01   16.55  0. 1.0000     0. 
   3  -7   4    194.73   16.67  0. 1.0000     0. 
  -3   7  -4    185.46   17.02  0. 1.0000     0. 
   3  -7  -4    234.37   21.24  0. 1.0000     0. 
  -3   7  -4    235.60   19.09  0. 1.0000     0. 
   3  -7  -4    201.88   19.77  0. 1.0000     0. 
   3  -7  -4    212.47   15.85  0. 1.0000     0. 
  -4   7   4     97.31   15.25  0. 1.0000     0. 
   4  -7   4    137.38   12.14  0. 1.0000     0. 
  -4   7   4    120.93   15.87  0. 1.0000     0. 
  -4   7  -4    117.30   13.51  0. 1.0000     0. 
  -5   7  -4     18.86    5.49  0. 1.0000     0. 
  -6   7   4      3.05    1.91  0. 1.0000     0. 
   0   8   4      3.13    6.20  0. 1.0000     0. 
   0   8  -4      7.40    4.85  0. 1.0000     0. 
   0  -8   4      6.26    5.18  0. 1.0000     0. 
   0  -8  -4      2.04    6.63  0. 1.0000     0. 
   0   8   4     -0.12    4.45  0. 1.0000     0. 
   0  -8  -4     -4.41    7.72  0. 1.0000     0. 
   0  -8  -4      3.31    4.34  0. 1.0000     0. 
   0   8  -4      2.87    6.01  0. 1.0000     0. 
   0   8  -4      2.91    3.36  0. 1.0000     0. 
   0  -8   4      1.23    2.23  0. 1.0000     0. 
  -1  -8  -4      8.45    7.22  0. 1.0000     0. 
  -1   8   4     22.04    7.30  0. 1.0000     0. 
   1  -8   4     17.65    6.19  0. 1.0000     0. 
  -1   8   4     12.69    6.29  0. 1.0000     0. 
  -1   8   4     11.31    4.74  0. 1.0000     0. 
   1  -8   4     10.89    5.23  0. 1.0000     0. 
   1  -8   4     11.74    4.18  0. 1.0000     0. 
   1   8  -4      9.14    4.86  0. 1.0000     0. 
  -1   8  -4     11.10    4.90  0. 1.0000     0. 
   1  -8  -4     12.08    4.92  0. 1.0000     0. 
   1   8   4     13.07    6.78  0. 1.0000     0. 
   1  -8  -4     18.42    8.43  0. 1.0000     0. 
  -1   8  -4     16.51    3.51  0. 1.0000     0. 
   1   8   4     15.99    7.73  0. 1.0000     0. 
  -1   8  -4     13.37    5.22  0. 1.0000     0. 
   1  -8  -4     20.43    7.19  0. 1.0000     0. 
   1   8   4     17.65    5.39  0. 1.0000     0. 
  -1  -8   4      5.66    4.42  0. 1.0000     0. 
  -2   8   4     43.27    6.24  0. 1.0000     0. 
   2   8  -4     40.67    6.58  0. 1.0000     0. 
  -2   8   4     45.25    8.58  0. 1.0000     0. 
   2  -8   4     42.93    6.96  0. 1.0000     0. 
   2  -8   4     37.54    5.03  0. 1.0000     0. 
   2  -8   4     45.63    7.06  0. 1.0000     0. 
  -2   8   4     35.66    7.98  0. 1.0000     0. 
   2   8   4     38.91    7.80  0. 1.0000     0. 
  -2   8  -4     38.81    7.14  0. 1.0000     0. 
   2   8   4     52.14    8.59  0. 1.0000     0. 
  -2  -8   4     35.71    5.10  0. 1.0000     0. 
   2  -8  -4     32.11    9.26  0. 1.0000     0. 
   2  -8  -4     42.77    8.51  0. 1.0000     0. 
  -2   8  -4     39.77    6.24  0. 1.0000     0. 
  -2   8  -4     30.64    6.07  0. 1.0000     0. 
   2  -8  -4     38.52    5.00  0. 1.0000     0. 
  -3   8   4     98.89   16.22  0. 1.0000     0. 
   3  -8   4    138.42   13.68  0. 1.0000     0. 
  -3   8   4    117.24   15.64  0. 1.0000     0. 
   3  -8   4    105.36   10.85  0. 1.0000     0. 
  -3   8  -4    141.65   15.67  0. 1.0000     0. 
  -3   8  -4     90.15   11.19  0. 1.0000     0. 
  -3   8  -4    129.08   12.13  0. 1.0000     0. 
   3  -8  -4    129.40   12.90  0. 1.0000     0. 
   3  -8  -4    111.80    9.98  0. 1.0000     0. 
   3  -8  -4    137.98   15.10  0. 1.0000     0. 
   4  -8   4    146.44   14.09  0. 1.0000     0. 
   4  -8   4    153.06   13.31  0. 1.0000     0. 
  -4   8   4    161.42   18.76  0. 1.0000     0. 
  -4   8   4    171.30   18.76  0. 1.0000     0. 
   4  -8  -4    158.38   20.09  0. 1.0000     0. 
   4  -8  -4    148.80   16.71  0. 1.0000     0. 
  -4   8  -4    156.49   16.70  0. 1.0000     0. 
  -5   8   4     81.42    7.75  0. 1.0000     0. 
   5  -8   4     90.71   10.32  0. 1.0000     0. 
  -5   8   4    127.74   17.37  0. 1.0000     0. 
  -6   8   4     98.23   17.70  0. 1.0000     0. 
  -7   8   4      3.01    1.15  0. 1.0000     0. 
   0   9   4     84.63   12.16  0. 1.0000     0. 
   0   9  -4     61.14    7.86  0. 1.0000     0. 
   0   9   4     70.26   10.49  0. 1.0000     0. 
   0   9  -4     54.38    9.48  0. 1.0000     0. 
   0  -9  -4     96.80   14.91  0. 1.0000     0. 
   0  -9   4     66.37   11.75  0. 1.0000     0. 
   0  -9  -4     70.93   11.90  0. 1.0000     0. 
   0   9   4     81.84   11.11  0. 1.0000     0. 
   0  -9  -4     98.44   12.72  0. 1.0000     0. 
   0   9  -4     72.59   11.52  0. 1.0000     0. 
   1  -9   4     55.75   10.75  0. 1.0000     0. 
  -1   9   4     73.71   10.26  0. 1.0000     0. 
  -1   9   4     62.69    9.49  0. 1.0000     0. 
   1   9  -4     46.97    7.57  0. 1.0000     0. 
  -1   9   4     58.19    9.48  0. 1.0000     0. 
  -1  -9  -4     61.66   10.50  0. 1.0000     0. 
   1   9  -4     61.12    7.88  0. 1.0000     0. 
   1  -9   4     59.72    8.18  0. 1.0000     0. 
  -1  -9   4     45.04    7.91  0. 1.0000     0. 
   1  -9  -4     74.00   12.86  0. 1.0000     0. 
  -1   9  -4     71.31   11.25  0. 1.0000     0. 
   1  -9  -4     59.06    9.24  0. 1.0000     0. 
   1   9   4     74.91   10.71  0. 1.0000     0. 
   1   9   4     86.11   12.61  0. 1.0000     0. 
   1  -9  -4     55.60   10.33  0. 1.0000     0. 
   1   9   4     56.96    9.35  0. 1.0000     0. 
  -1   9  -4     45.77    8.19  0. 1.0000     0. 
  -2   9   4     51.91    9.30  0. 1.0000     0. 
   2  -9   4     64.24    7.65  0. 1.0000     0. 
   2  -9   4     82.75   11.45  0. 1.0000     0. 
   2  -9   4     71.66   12.06  0. 1.0000     0. 
   2   9  -4     83.81   13.24  0. 1.0000     0. 
   2  -9  -4     84.77   11.86  0. 1.0000     0. 
  -2   9  -4     69.51    9.08  0. 1.0000     0. 
   2   9   4     66.08    9.69  0. 1.0000     0. 
   2   9   4     85.29   10.77  0. 1.0000     0. 
  -2   9  -4     67.60   10.71  0. 1.0000     0. 
  -2  -9   4     53.08    6.35  0. 1.0000     0. 
   2  -9  -4     57.21    8.95  0. 1.0000     0. 
   2  -9  -4     64.65    7.02  0. 1.0000     0. 
  -3   9   4     70.91   11.19  0. 1.0000     0. 
   3  -9   4     70.23    9.55  0. 1.0000     0. 
  -3   9   4     82.36   10.47  0. 1.0000     0. 
   3  -9   4     85.38   12.81  0. 1.0000     0. 
  -3   9  -4    104.08   14.81  0. 1.0000     0. 
   3  -9  -4     56.24    9.36  0. 1.0000     0. 
   3  -9  -4     71.21    8.03  0. 1.0000     0. 
  -3   9  -4     84.38   11.47  0. 1.0000     0. 
   3  -9  -4     86.83   12.40  0. 1.0000     0. 
  -4   9   4     71.09   10.38  0. 1.0000     0. 
  -4   9   4     63.11   10.74  0. 1.0000     0. 
   4  -9   4     69.04    9.04  0. 1.0000     0. 
   4  -9   4     55.55    8.96  0. 1.0000     0. 
   4  -9  -4     62.88    8.02  0. 1.0000     0. 
  -4   9  -4     72.10    9.85  0. 1.0000     0. 
   4  -9  -4     84.82   11.50  0. 1.0000     0. 
   4  -9  -4     84.21   13.29  0. 1.0000     0. 
  -5   9   4     46.01   10.39  0. 1.0000     0. 
   5  -9   4     44.50    6.32  0. 1.0000     0. 
  -5   9   4     42.65    9.51  0. 1.0000     0. 
   5  -9  -4     35.65    8.23  0. 1.0000     0. 
  -5   9  -4     50.78    8.40  0. 1.0000     0. 
  -6   9   4     18.61    9.78  0. 1.0000     0. 
  -6   9  -4     22.44    7.22  0. 1.0000     0. 
   0  10  -4     80.12   10.72  0. 1.0000     0. 
   0  10  -4     40.87    7.59  0. 1.0000     0. 
   0  10   4     48.33   10.46  0. 1.0000     0. 
   0 -10  -4     62.37   10.52  0. 1.0000     0. 
   0  10   4     64.75   12.42  0. 1.0000     0. 
   0 -10  -4     65.42   11.58  0. 1.0000     0. 
   0 -10   4     49.64    8.70  0. 1.0000     0. 
  -1  10   4     56.94    9.83  0. 1.0000     0. 
  -1  10   4     48.52    8.95  0. 1.0000     0. 
  -1 -10  -4     52.23   10.52  0. 1.0000     0. 
   1  10  -4     42.82    7.82  0. 1.0000     0. 
   1 -10   4     62.12    8.39  0. 1.0000     0. 
   1 -10   4     56.99    8.46  0. 1.0000     0. 
   1  10   4     48.96   12.18  0. 1.0000     0. 
  -1  10  -4     39.76    7.16  0. 1.0000     0. 
   1 -10  -4     71.76   10.91  0. 1.0000     0. 
  -1  10  -4     54.51    8.47  0. 1.0000     0. 
  -1 -10   4     38.30    5.56  0. 1.0000     0. 
   1  10   4     59.83   11.59  0. 1.0000     0. 
  -1 -10   4     56.41    8.79  0. 1.0000     0. 
   2 -10   4     89.23   13.29  0. 1.0000     0. 
  -2  10   4     87.00   12.15  0. 1.0000     0. 
  -2  10   4     80.13   11.13  0. 1.0000     0. 
   2  10  -4     75.05   12.72  0. 1.0000     0. 
   2 -10   4     89.60   13.77  0. 1.0000     0. 
   2  10   4     80.07   12.08  0. 1.0000     0. 
   2  10   4     68.24   10.76  0. 1.0000     0. 
   2 -10  -4    124.08   20.31  0. 1.0000     0. 
   2 -10  -4     81.78   10.76  0. 1.0000     0. 
  -2 -10   4     66.55    7.08  0. 1.0000     0. 
  -2  10  -4     75.87   12.39  0. 1.0000     0. 
  -2  10  -4     85.86   10.50  0. 1.0000     0. 
   3 -10   4     52.81    8.70  0. 1.0000     0. 
  -3  10   4     79.26   12.28  0. 1.0000     0. 
  -3  10   4     48.05    8.58  0. 1.0000     0. 
   3  10  -4     64.17    8.77  0. 1.0000     0. 
  -3  10  -4     70.66   10.94  0. 1.0000     0. 
   3 -10  -4     46.52    6.38  0. 1.0000     0. 
   3 -10  -4     40.00    8.99  0. 1.0000     0. 
  -3  10  -4     68.91    9.56  0. 1.0000     0. 
  -3 -10   4     44.72    5.22  0. 1.0000     0. 
  -4  10   4     81.36   12.45  0. 1.0000     0. 
  -4  10   4     63.33   10.10  0. 1.0000     0. 
   4 -10   4     79.39   10.07  0. 1.0000     0. 
   4 -10  -4     55.84    9.57  0. 1.0000     0. 
   4 -10  -4     62.49   13.08  0. 1.0000     0. 
   4 -10  -4     53.76    7.38  0. 1.0000     0. 
  -4  10  -4     61.82    9.99  0. 1.0000     0. 
   5 -10   4     29.67    8.05  0. 1.0000     0. 
  -5  10   4     40.55   11.21  0. 1.0000     0. 
  -5  10   4     44.83    9.77  0. 1.0000     0. 
  -5  10  -4     41.65    9.08  0. 1.0000     0. 
   5 -10  -4     46.75    9.28  0. 1.0000     0. 
  -6  10   4     13.36   11.35  0. 1.0000     0. 
   6 -10  -4      5.58    8.22  0. 1.0000     0. 
  -6  10  -4     27.32    8.41  0. 1.0000     0. 
  -7  10   4    -17.79   12.72  0. 1.0000     0. 
   0  11  -4     61.36    9.34  0. 1.0000     0. 
   0 -11   4     77.59   14.33  0. 1.0000     0. 
   0 -11  -4     65.41   11.40  0. 1.0000     0. 
   0  11   4     88.70   13.95  0. 1.0000     0. 
   0  11  -4    103.59   13.04  0. 1.0000     0. 
   0 -11  -4     68.54   12.90  0. 1.0000     0. 
   0  11   4     90.19   14.09  0. 1.0000     0. 
  -1 -11  -4     87.60   14.87  0. 1.0000     0. 
   1 -11   4     73.21   10.01  0. 1.0000     0. 
  -1  11   4     50.83   10.21  0. 1.0000     0. 
  -1  11   4     60.41   12.02  0. 1.0000     0. 
   1 -11   4     51.52    9.16  0. 1.0000     0. 
   1  11  -4     61.24    8.66  0. 1.0000     0. 
   1 -11  -4     65.73   11.24  0. 1.0000     0. 
   1  11   4     71.48   12.87  0. 1.0000     0. 
  -1  11  -4     49.53    9.23  0. 1.0000     0. 
  -1 -11   4     61.43    9.49  0. 1.0000     0. 
  -1  11  -4     44.75    8.12  0. 1.0000     0. 
   1 -11  -4     68.54   13.95  0. 1.0000     0. 
   1  11   4    103.37   17.76  0. 1.0000     0. 
  -2  11   4     45.03    9.64  0. 1.0000     0. 
   2  11  -4     57.42    8.87  0. 1.0000     0. 
  -2  11   4     54.74   12.40  0. 1.0000     0. 
   2 -11   4    106.47   14.52  0. 1.0000     0. 
   2 -11   4     52.01    9.97  0. 1.0000     0. 
   2 -11  -4     79.11   13.62  0. 1.0000     0. 
   2  11   4     77.84   12.26  0. 1.0000     0. 
  -2  11  -4     86.58   13.21  0. 1.0000     0. 
  -2  11  -4     65.57    9.22  0. 1.0000     0. 
   2 -11  -4     83.04   12.10  0. 1.0000     0. 
  -2 -11   4     69.80   12.11  0. 1.0000     0. 
   3  11  -4     36.41    9.23  0. 1.0000     0. 
  -3  11   4     46.35   13.08  0. 1.0000     0. 
   3 -11   4     46.75    9.10  0. 1.0000     0. 
  -3  11  -4     42.25   10.18  0. 1.0000     0. 
  -3  11  -4     50.31    8.35  0. 1.0000     0. 
  -3 -11   4     56.73    6.59  0. 1.0000     0. 
   3 -11  -4     69.91   14.03  0. 1.0000     0. 
   3 -11  -4     33.33    9.19  0. 1.0000     0. 
   4 -11   4     43.62    9.53  0. 1.0000     0. 
  -4  11   4     37.48    9.76  0. 1.0000     0. 
  -4  11   4     31.70   12.87  0. 1.0000     0. 
  -4  11  -4     36.66    9.85  0. 1.0000     0. 
   4 -11  -4     33.32   10.77  0. 1.0000     0. 
   4 -11  -4     41.05   14.56  0. 1.0000     0. 
  -5  11   4      8.71   11.84  0. 1.0000     0. 
  -5  11   4      9.02    8.00  0. 1.0000     0. 
   5 -11   4     20.50    8.49  0. 1.0000     0. 
  -5  11  -4     16.94    8.94  0. 1.0000     0. 
   5 -11  -4     15.93    8.78  0. 1.0000     0. 
   6 -11   4      8.90    7.63  0. 1.0000     0. 
  -6  11   4     17.62   11.81  0. 1.0000     0. 
   6 -11  -4      6.50    8.20  0. 1.0000     0. 
  -6  11  -4     16.61    8.73  0. 1.0000     0. 
   0 -12   4     38.70    8.83  0. 1.0000     0. 
   0  12  -4     55.81   12.28  0. 1.0000     0. 
   0  12  -4     37.24    7.69  0. 1.0000     0. 
   0  12   4     51.73   15.69  0. 1.0000     0. 
   0  12   4     15.70   13.90  0. 1.0000     0. 
   1  12  -4     36.05    7.61  0. 1.0000     0. 
  -1  12   4     28.30    9.27  0. 1.0000     0. 
  -1 -12  -4     38.80   13.58  0. 1.0000     0. 
  -1  12   4     62.06   14.23  0. 1.0000     0. 
   1 -12   4     50.84    9.37  0. 1.0000     0. 
   1 -12  -4     36.15    8.80  0. 1.0000     0. 
   1  12   4     56.64   20.16  0. 1.0000     0. 
  -1 -12   4     34.96    8.97  0. 1.0000     0. 
  -1  12  -4     64.77   11.14  0. 1.0000     0. 
  -1  12  -4     33.56    7.63  0. 1.0000     0. 
   1  12   4     28.28   13.61  0. 1.0000     0. 
  -2  12   4     31.48    8.82  0. 1.0000     0. 
  -2 -12  -4     42.16   12.10  0. 1.0000     0. 
  -2  12   4     43.59   12.53  0. 1.0000     0. 
   2 -12   4     39.23    9.39  0. 1.0000     0. 
   2  12  -4     42.08    8.67  0. 1.0000     0. 
   2 -12   4     30.29    9.54  0. 1.0000     0. 
  -2  12  -4     37.79    9.95  0. 1.0000     0. 
  -2  12  -4     43.44    8.14  0. 1.0000     0. 
  -2 -12   4     24.38    8.66  0. 1.0000     0. 
   2 -12  -4     57.10   14.25  0. 1.0000     0. 
   2  12   4     55.20   13.09  0. 1.0000     0. 
   2 -12  -4     49.32   10.68  0. 1.0000     0. 
  -3  12   4     22.10   13.37  0. 1.0000     0. 
  -3  12   4     13.21    7.72  0. 1.0000     0. 
   3 -12   4      8.54    8.31  0. 1.0000     0. 
   3  12  -4     20.21    7.68  0. 1.0000     0. 
  -3  12  -4     29.27   10.05  0. 1.0000     0. 
   3 -12  -4     22.66   12.26  0. 1.0000     0. 
   3 -12  -4     18.01    8.91  0. 1.0000     0. 
  -3  12  -4     26.96    7.71  0. 1.0000     0. 
  -1  -1   5     64.88    6.08  0. 1.0000     0. 
   1   1  -5     54.02    7.00  0. 1.0000     0. 
  -1  -1   5     51.86    7.71  0. 1.0000     0. 
  -1   1  -5     65.09    7.05  0. 1.0000     0. 
  -1   1   5     57.74    8.76  0. 1.0000     0. 
   1   1   5     56.27    5.68  0. 1.0000     0. 
  -1   1  -5     50.15    9.08  0. 1.0000     0. 
   1  -1  -5     57.45    6.77  0. 1.0000     0. 
   1   1   5     54.72    8.28  0. 1.0000     0. 
   1  -1  -5     60.96    6.89  0. 1.0000     0. 
  -1   1   5     47.99    5.87  0. 1.0000     0. 
  -1  -1  -5     59.32    6.74  0. 1.0000     0. 
   1   1   5     64.71    7.99  0. 1.0000     0. 
  -1   1   5     69.83    8.27  0. 1.0000     0. 
  -1   1   5     54.31    7.36  0. 1.0000     0. 
   1  -1  -5     51.06    6.50  0. 1.0000     0. 
   1   1  -5     49.16    9.92  0. 1.0000     0. 
   1  -1  -5     58.69   10.13  0. 1.0000     0. 
  -1  -1   5     50.83    4.75  0. 1.0000     0. 
   1  -1   5     45.38    7.79  0. 1.0000     0. 
   0  -3  -5     95.46   15.26  0. 1.0000     0. 
   0   3   5    124.35   12.57  0. 1.0000     0. 
   0   3  -5    128.47   10.67  0. 1.0000     0. 
   0  -3  -5    124.31   12.35  0. 1.0000     0. 
   0   3   5    102.48   12.78  0. 1.0000     0. 
   0  -3  -5    119.56   11.07  0. 1.0000     0. 
   0  -3   5    112.27   12.12  0. 1.0000     0. 
   0  -3  -5    128.25   10.67  0. 1.0000     0. 
   0   3  -5    120.42   13.62  0. 1.0000     0. 
  -1  -3  -5     70.21    8.40  0. 1.0000     0. 
  -1   3   5     82.37    9.87  0. 1.0000     0. 
   1   3  -5    101.20    7.69  0. 1.0000     0. 
   1   3  -5     74.01   10.69  0. 1.0000     0. 
   1   3  -5     76.12    6.59  0. 1.0000     0. 
   1   3  -5     78.11    8.43  0. 1.0000     0. 
  -1   3   5     93.46   11.23  0. 1.0000     0. 
  -1   3   5     77.07    9.68  0. 1.0000     0. 
   1  -3   5     76.93   11.27  0. 1.0000     0. 
   1  -3  -5     90.84    9.32  0. 1.0000     0. 
  -1   3  -5     66.80   12.44  0. 1.0000     0. 
   1  -3  -5     72.72   10.27  0. 1.0000     0. 
  -1  -3   5     97.40    7.36  0. 1.0000     0. 
   1   3   5     79.35   10.72  0. 1.0000     0. 
   1   3   5     87.44   10.12  0. 1.0000     0. 
  -1  -3   5     73.90    9.90  0. 1.0000     0. 
   1   3   5     96.29   10.37  0. 1.0000     0. 
   3  -1   5     79.54    9.91  0. 1.0000     0. 
  -1   3  -5     85.88    8.90  0. 1.0000     0. 
   1  -3  -5     92.36   13.23  0. 1.0000     0. 
  -3   1   5     69.48    7.98  0. 1.0000     0. 
   1  -3  -5     85.65    9.88  0. 1.0000     0. 
  -2   3   5     71.88    8.95  0. 1.0000     0. 
  -2   3   5     52.20    9.40  0. 1.0000     0. 
   2  -3   5     58.28    9.50  0. 1.0000     0. 
  -2   3   5     41.72    6.27  0. 1.0000     0. 
   2  -3  -5     65.49    7.45  0. 1.0000     0. 
   2  -3  -5     60.27   10.34  0. 1.0000     0. 
   2   3   5     54.82    8.98  0. 1.0000     0. 
  -3   2   5     46.61    6.96  0. 1.0000     0. 
  -2   3  -5     62.35    7.68  0. 1.0000     0. 
  -3   2   5     67.13    8.42  0. 1.0000     0. 
  -3   2   5     54.60    8.71  0. 1.0000     0. 
   2   3   5     52.84    8.13  0. 1.0000     0. 
   2  -3  -5     59.14    8.16  0. 1.0000     0. 
  -2  -3   5     61.90    9.70  0. 1.0000     0. 
   3  -2   5     54.90    8.86  0. 1.0000     0. 
   2  -3  -5     64.90    9.24  0. 1.0000     0. 
  -2   3  -5     61.00    5.81  0. 1.0000     0. 
  -3  -3   5     20.20    3.78  0. 1.0000     0. 
  -3   3   5     20.05    3.97  0. 1.0000     0. 
  -3   3   5     16.05    4.75  0. 1.0000     0. 
   3  -3   5     21.23    5.31  0. 1.0000     0. 
  -3   3   5     28.96    6.34  0. 1.0000     0. 
  -2   4   5     18.11    5.36  0. 1.0000     0. 
   2  -4   5     25.74    5.20  0. 1.0000     0. 
  -2   4   5     10.11    4.60  0. 1.0000     0. 
  -2   4   5     16.47    5.12  0. 1.0000     0. 
  -2   4  -5     20.76    4.37  0. 1.0000     0. 
  -2  -4   5     19.41    4.19  0. 1.0000     0. 
   2   4   5      8.31    4.33  0. 1.0000     0. 
   2   4   5     12.27    5.12  0. 1.0000     0. 
  -2   4  -5     16.33    5.23  0. 1.0000     0. 
  -2   4  -5     25.60    4.56  0. 1.0000     0. 
  -2   4  -5     19.59    3.74  0. 1.0000     0. 
   2  -4  -5     25.45    5.66  0. 1.0000     0. 
   2  -4  -5     15.92    4.08  0. 1.0000     0. 
   2  -4  -5     20.29    5.57  0. 1.0000     0. 
   2  -4  -5     17.85    5.65  0. 1.0000     0. 
  -4   4   5      1.58    4.76  0. 1.0000     0. 
   4  -5   5     -1.11    4.92  0. 1.0000     0. 
  -4   5   5     -0.23    5.48  0. 1.0000     0. 
  -5   4   5     13.23    3.16  0. 1.0000     0. 
   0   6   5     54.76    5.35  0. 1.0000     0. 
   0  -6   5     51.08    5.84  0. 1.0000     0. 
   1  -6   5     63.20    6.04  0. 1.0000     0. 
  -1   6   5     70.51    6.19  0. 1.0000     0. 
  -1  -6   5     55.91    6.24  0. 1.0000     0. 
  -2   6   5     51.46    5.39  0. 1.0000     0. 
   2  -6   5     43.51    5.11  0. 1.0000     0. 
  -2  -6   5     52.30    5.88  0. 1.0000     0. 
  -3   6   5     41.73    5.01  0. 1.0000     0. 
  -3  -6   5     55.69    5.28  0. 1.0000     0. 
  -4   6   5      2.30    6.18  0. 1.0000     0. 
  -4   6   5      2.78    5.66  0. 1.0000     0. 
   4  -6   5      5.33    4.89  0. 1.0000     0. 
  -6   6   5      8.20    2.39  0. 1.0000     0. 
   0  -7   5      1.05    4.40  0. 1.0000     0. 
   0   7   5     -2.85    7.75  0. 1.0000     0. 
   0   7   5      6.89    5.10  0. 1.0000     0. 
   0   7  -5      0.67    3.84  0. 1.0000     0. 
   0   7  -5      2.30    3.81  0. 1.0000     0. 
   0  -7  -5     -2.52    5.97  0. 1.0000     0. 
   0  -7   5     -3.18    4.14  0. 1.0000     0. 
   0   7   5     -2.59    5.32  0. 1.0000     0. 
   0  -7  -5      1.65    4.87  0. 1.0000     0. 
   0  -7  -5     -0.01    7.09  0. 1.0000     0. 
   1   7  -5      1.45    4.21  0. 1.0000     0. 
  -1   7   5      5.26    5.48  0. 1.0000     0. 
   1  -7   5     -5.28    4.20  0. 1.0000     0. 
   1  -7   5      2.78    4.64  0. 1.0000     0. 
   1   7  -5     -2.79    4.14  0. 1.0000     0. 
  -1  -7  -5     -2.02    6.84  0. 1.0000     0. 
   1  -7   5      2.04    4.10  0. 1.0000     0. 
  -1   7   5     -0.57    6.69  0. 1.0000     0. 
  -1   7   5      2.24    5.44  0. 1.0000     0. 
   1  -7  -5     -2.73    9.59  0. 1.0000     0. 
  -1  -7   5      2.54    3.38  0. 1.0000     0. 
   1   7   5     -5.66    5.95  0. 1.0000     0. 
  -1   7  -5      0.66    3.67  0. 1.0000     0. 
   1  -7  -5     -0.27    3.51  0. 1.0000     0. 
   1  -7  -5      0.24    5.50  0. 1.0000     0. 
   1  -7  -5     -0.87    5.55  0. 1.0000     0. 
  -1   7  -5      1.35    3.59  0. 1.0000     0. 
   1   7   5      1.10    4.92  0. 1.0000     0. 
   1   7   5      4.14    6.59  0. 1.0000     0. 
  -1   7  -5     -0.02    4.97  0. 1.0000     0. 
  -1   7  -5      3.78    4.55  0. 1.0000     0. 
  -2   7   5     -0.96    4.67  0. 1.0000     0. 
  -2   7   5     -2.05    6.29  0. 1.0000     0. 
  -2   7   5     -0.73    6.79  0. 1.0000     0. 
   2  -7   5      2.60    4.64  0. 1.0000     0. 
   2   7  -5      3.26    4.18  0. 1.0000     0. 
   2  -7   5      0.31    4.79  0. 1.0000     0. 
   2  -7  -5      3.06    8.53  0. 1.0000     0. 
  -2   7  -5      3.48    5.03  0. 1.0000     0. 
  -2   7  -5      8.02    5.22  0. 1.0000     0. 
  -2   7  -5      2.19    3.55  0. 1.0000     0. 
   2  -7  -5      0.50    3.79  0. 1.0000     0. 
   2   7   5      7.06    5.44  0. 1.0000     0. 
   2  -7  -5      4.21    6.09  0. 1.0000     0. 
   2   7   5      5.38    5.96  0. 1.0000     0. 
   3  -7   5      0.58    4.93  0. 1.0000     0. 
  -3   7   5     -3.83    6.34  0. 1.0000     0. 
  -3   7   5     -5.56    7.05  0. 1.0000     0. 
   3  -7   5     -0.17    4.70  0. 1.0000     0. 
  -3   7  -5      0.60    4.71  0. 1.0000     0. 
   3  -7  -5      2.10    4.24  0. 1.0000     0. 
  -3   7  -5      1.32    5.72  0. 1.0000     0. 
   3  -7  -5     -0.63    6.51  0. 1.0000     0. 
   3  -7  -5     10.60    9.10  0. 1.0000     0. 
  -4   7   5     30.13    7.93  0. 1.0000     0. 
  -4   7   5     18.94    6.75  0. 1.0000     0. 
   4  -7   5     11.09    5.41  0. 1.0000     0. 
   4  -7  -5     21.40    7.16  0. 1.0000     0. 
  -4   7  -5     14.65    5.49  0. 1.0000     0. 
  -5   7   5     30.82    8.13  0. 1.0000     0. 
  -5   7  -5     21.22    5.80  0. 1.0000     0. 
  -6   7   5     31.95    8.39  0. 1.0000     0. 
  -6   7   5     43.95    5.12  0. 1.0000     0. 
  -7   7   5     -0.38    0.82  0. 1.0000     0. 
   0   8   5     93.39   11.70  0. 1.0000     0. 
   0   8   5     76.53   10.49  0. 1.0000     0. 
   0  -8   5     56.15    6.13  0. 1.0000     0. 
   0  -8  -5     82.88   10.03  0. 1.0000     0. 
   0   8   5     92.67   14.88  0. 1.0000     0. 
   0  -8   5     57.78   10.21  0. 1.0000     0. 
   0   8  -5     71.10    7.97  0. 1.0000     0. 
   0  -8  -5     68.87   10.88  0. 1.0000     0. 
   0  -8  -5     71.86   11.69  0. 1.0000     0. 
   1  -8   5     67.51    9.93  0. 1.0000     0. 
  -1  -8  -5     96.20   16.88  0. 1.0000     0. 
  -1  -8  -5     83.11   12.20  0. 1.0000     0. 
   1  -8   5     58.20    9.19  0. 1.0000     0. 
   1  -8   5     63.70    8.61  0. 1.0000     0. 
   1   8  -5     75.18   10.08  0. 1.0000     0. 
  -1   8   5     54.78    7.83  0. 1.0000     0. 
   1   8  -5     69.19    8.67  0. 1.0000     0. 
  -1   8   5     60.89    9.39  0. 1.0000     0. 
  -1   8   5     94.86   11.43  0. 1.0000     0. 
  -1   8  -5     61.18    9.22  0. 1.0000     0. 
   1   8   5     94.82   11.59  0. 1.0000     0. 
  -1  -8   5     65.39    6.32  0. 1.0000     0. 
  -1   8  -5     45.05    7.40  0. 1.0000     0. 
  -1   8  -5     63.98   11.36  0. 1.0000     0. 
   1  -8  -5     65.54   12.41  0. 1.0000     0. 
   1  -8  -5     86.60   13.66  0. 1.0000     0. 
   1  -8  -5     64.87    9.46  0. 1.0000     0. 
  -1   8  -5     61.80   11.31  0. 1.0000     0. 
  -1  -8   5     58.29    9.68  0. 1.0000     0. 
   1   8   5     54.14    7.98  0. 1.0000     0. 
   1   8   5     60.04    9.45  0. 1.0000     0. 
   2   8  -5     31.80    6.16  0. 1.0000     0. 
  -2   8   5     25.88    5.69  0. 1.0000     0. 
   2  -8   5     29.09    5.51  0. 1.0000     0. 
  -2   8   5     31.23    8.66  0. 1.0000     0. 
  -2   8   5     33.17    8.54  0. 1.0000     0. 
   2  -8   5     37.89    6.71  0. 1.0000     0. 
   2   8   5     37.95    8.12  0. 1.0000     0. 
  -2   8  -5     39.41    6.85  0. 1.0000     0. 
   2  -8  -5     49.68   11.80  0. 1.0000     0. 
  -2   8  -5     31.56    6.84  0. 1.0000     0. 
  -2   8  -5     25.35    5.27  0. 1.0000     0. 
   2   8   5     35.97    6.72  0. 1.0000     0. 
   2  -8  -5     36.91    7.99  0. 1.0000     0. 
   2  -8  -5     33.45    4.99  0. 1.0000     0. 
  -3   8   5     -2.52    6.73  0. 1.0000     0. 
   3  -8   5      4.22    5.86  0. 1.0000     0. 
  -3   8   5     -2.45    7.01  0. 1.0000     0. 
   3  -8   5      1.51    4.20  0. 1.0000     0. 
  -3   8  -5      1.03    6.09  0. 1.0000     0. 
   3  -8  -5      8.90    9.41  0. 1.0000     0. 
   3  -8  -5      8.39    3.74  0. 1.0000     0. 
   3  -8  -5      1.17    6.61  0. 1.0000     0. 
  -3   8  -5     -2.00    4.22  0. 1.0000     0. 
  -4   8   5      8.64    7.77  0. 1.0000     0. 
   4  -8   5      0.30    5.22  0. 1.0000     0. 
   4  -8   5      1.03    5.74  0. 1.0000     0. 
  -4   8   5      9.39    8.37  0. 1.0000     0. 
   4  -8  -5     -1.90    6.78  0. 1.0000     0. 
  -4   8  -5      3.12    5.98  0. 1.0000     0. 
   4  -8  -5      2.37    4.20  0. 1.0000     0. 
  -5   8   5      3.59    8.61  0. 1.0000     0. 
  -5   8   5      2.56    7.65  0. 1.0000     0. 
   5  -8   5     -3.59    4.89  0. 1.0000     0. 
   5  -8  -5      8.03    6.81  0. 1.0000     0. 
  -5   8  -5     -0.87    5.72  0. 1.0000     0. 
  -7   8   5      4.75    2.54  0. 1.0000     0. 
  -8   8   5     -0.40    0.78  0. 1.0000     0. 
   0   9  -5      7.49    5.45  0. 1.0000     0. 
   0   9  -5     12.19    4.94  0. 1.0000     0. 
   0  -9  -5      7.41    6.97  0. 1.0000     0. 
   0   9   5     16.84    8.12  0. 1.0000     0. 
   0  -9   5     20.70    6.71  0. 1.0000     0. 
   0   9   5      6.01    5.75  0. 1.0000     0. 
   0  -9  -5     19.71    8.83  0. 1.0000     0. 
   0  -9  -5     16.60    9.50  0. 1.0000     0. 
   0   9   5     23.83   10.47  0. 1.0000     0. 
  -1   9   5     13.88    9.64  0. 1.0000     0. 
  -1   9   5     20.45    8.08  0. 1.0000     0. 
  -1  -9  -5      8.17    9.90  0. 1.0000     0. 
  -1  -9  -5     12.26    6.58  0. 1.0000     0. 
   1   9  -5     14.62    5.34  0. 1.0000     0. 
  -1   9   5     17.29    6.09  0. 1.0000     0. 
   1  -9   5     26.39    8.00  0. 1.0000     0. 
   1  -9   5     11.51    7.17  0. 1.0000     0. 
   1   9  -5      1.67    6.84  0. 1.0000     0. 
  -1   9  -5     20.80    5.68  0. 1.0000     0. 
   1  -9  -5     14.44    6.75  0. 1.0000     0. 
   1   9   5     20.62   11.35  0. 1.0000     0. 
   1   9   5     22.27   10.06  0. 1.0000     0. 
   1   9   5     21.94    6.12  0. 1.0000     0. 
   1  -9  -5     15.35   12.27  0. 1.0000     0. 
   1  -9  -5     19.56    8.84  0. 1.0000     0. 
  -2   9   5     12.76    8.80  0. 1.0000     0. 
  -2   9   5      2.64    7.79  0. 1.0000     0. 
   2  -9   5      2.21    5.20  0. 1.0000     0. 
   2   9  -5      5.54    5.50  0. 1.0000     0. 
  -2   9   5      8.33    5.35  0. 1.0000     0. 
   2  -9   5     -1.59    6.57  0. 1.0000     0. 
  -2   9  -5     -4.85    7.05  0. 1.0000     0. 
   2   9   5     22.08    8.53  0. 1.0000     0. 
   2  -9  -5      9.19   11.20  0. 1.0000     0. 
   2   9   5     10.81    5.43  0. 1.0000     0. 
   2  -9  -5      6.12    7.52  0. 1.0000     0. 
   2  -9  -5      4.11    3.93  0. 1.0000     0. 
   3  -9   5      6.41    5.01  0. 1.0000     0. 
  -3   9   5     -0.96    8.46  0. 1.0000     0. 
   3   9  -5      7.30    5.35  0. 1.0000     0. 
   3  -9   5      6.26    6.60  0. 1.0000     0. 
  -3   9   5      4.34    7.69  0. 1.0000     0. 
   3  -9  -5     10.50    7.72  0. 1.0000     0. 
   3  -9  -5     13.97   10.12  0. 1.0000     0. 
   3  -9  -5      3.65    4.12  0. 1.0000     0. 
  -3   9  -5     -0.66    6.66  0. 1.0000     0. 
   3   9   5    -12.58    6.36  0. 1.0000     0. 
   4  -9   5     -2.69    6.31  0. 1.0000     0. 
   4  -9   5     -1.10    4.59  0. 1.0000     0. 
  -4   9   5      1.90    7.70  0. 1.0000     0. 
  -4   9   5      9.42    8.21  0. 1.0000     0. 
   4  -9  -5      2.38   10.39  0. 1.0000     0. 
   4  -9  -5      4.01    4.25  0. 1.0000     0. 
  -4   9  -5      1.27    6.58  0. 1.0000     0. 
   4  -9  -5      0.04    7.69  0. 1.0000     0. 
  -5   9   5     -0.14    9.08  0. 1.0000     0. 
  -5   9   5      7.16    8.75  0. 1.0000     0. 
   5  -9   5      5.14    5.41  0. 1.0000     0. 
   5  -9  -5      0.67    4.35  0. 1.0000     0. 
  -5   9  -5      5.28    6.68  0. 1.0000     0. 
   5  -9  -5     11.45    7.47  0. 1.0000     0. 
  -6   9   5      2.49    8.95  0. 1.0000     0. 
  -6   9  -5      3.32    6.59  0. 1.0000     0. 
   0  10  -5      2.22    5.31  0. 1.0000     0. 
   0 -10  -5      0.13    6.91  0. 1.0000     0. 
   0  10   5      9.05   11.38  0. 1.0000     0. 
   0  10   5      5.30    9.79  0. 1.0000     0. 
   0 -10   5      0.05    5.81  0. 1.0000     0. 
   0 -10  -5     -1.87   10.25  0. 1.0000     0. 
   0 -10  -5     -6.25    8.50  0. 1.0000     0. 
  -1  10   5      2.55    8.72  0. 1.0000     0. 
  -1 -10  -5      2.72    6.55  0. 1.0000     0. 
  -1  10   5      4.32    8.22  0. 1.0000     0. 
   1  10  -5      0.68    5.24  0. 1.0000     0. 
  -1 -10  -5     10.63   11.21  0. 1.0000     0. 
   1 -10   5      0.89    5.38  0. 1.0000     0. 
  -1  10  -5     -0.55    5.01  0. 1.0000     0. 
   1 -10  -5      5.91    5.93  0. 1.0000     0. 
  -1  10  -5      2.93    6.61  0. 1.0000     0. 
  -1 -10   5      1.34    5.91  0. 1.0000     0. 
   1  10   5      6.83   11.41  0. 1.0000     0. 
   1  10   5      7.37   10.55  0. 1.0000     0. 
   1 -10  -5     -4.83   11.86  0. 1.0000     0. 
   1 -10  -5     11.23    9.08  0. 1.0000     0. 
  -2  10   5      4.49    8.81  0. 1.0000     0. 
   2 -10   5      2.34    6.42  0. 1.0000     0. 
   2  10  -5      2.15    5.35  0. 1.0000     0. 
  -2  10   5      4.09    8.45  0. 1.0000     0. 
   2 -10   5     -1.95    6.59  0. 1.0000     0. 
   2 -10   5      0.82    4.43  0. 1.0000     0. 
   2  10   5     -1.22    9.03  0. 1.0000     0. 
  -2  10  -5      1.72    5.70  0. 1.0000     0. 
   2 -10  -5      1.37   11.69  0. 1.0000     0. 
  -2  10  -5     -0.72    5.96  0. 1.0000     0. 
  -2 -10   5     -3.44    5.13  0. 1.0000     0. 
   2  10   5     -2.26    5.58  0. 1.0000     0. 
   2 -10  -5     -0.77    7.92  0. 1.0000     0. 
  -3  10   5      2.17    7.31  0. 1.0000     0. 
  -3  10   5      4.08    9.95  0. 1.0000     0. 
   3  10  -5     -3.10    6.31  0. 1.0000     0. 
   3 -10   5      0.94    6.78  0. 1.0000     0. 
   3 -10  -5     -5.68   11.57  0. 1.0000     0. 
   3 -10  -5      4.03    8.02  0. 1.0000     0. 
   3  10   5     -9.86    7.44  0. 1.0000     0. 
   3 -10  -5      1.36    3.64  0. 1.0000     0. 
  -3  10  -5      3.08    4.99  0. 1.0000     0. 
  -3  10  -5      2.18    7.51  0. 1.0000     0. 
  -4  10   5     -5.59    7.50  0. 1.0000     0. 
   4 -10   5     -2.71    6.91  0. 1.0000     0. 
  -4  10   5     -0.29    9.91  0. 1.0000     0. 
  -4  10  -5      1.73    7.64  0. 1.0000     0. 
   4 -10  -5      2.21    4.21  0. 1.0000     0. 
   4 -10  -5     -2.21    7.43  0. 1.0000     0. 
   4 -10  -5     11.29   12.56  0. 1.0000     0. 
  -5  10   5      1.58   10.52  0. 1.0000     0. 
   5 -10   5     -2.93    6.89  0. 1.0000     0. 
  -5  10   5     -7.40    8.48  0. 1.0000     0. 
   5 -10  -5    -10.98    8.15  0. 1.0000     0. 
  -5  10  -5     -2.03    7.82  0. 1.0000     0. 
  -6  10   5     -0.08   10.21  0. 1.0000     0. 
   6 -10  -5      4.78    7.91  0. 1.0000     0. 
  -6  10  -5      3.86    7.53  0. 1.0000     0. 
   0 -11  -5      2.45   11.40  0. 1.0000     0. 
   0  11   5     -2.20   12.42  0. 1.0000     0. 
   0  11   5      4.89   11.16  0. 1.0000     0. 
   0 -11   5      2.89    6.43  0. 1.0000     0. 
   0  11  -5     -0.87    5.54  0. 1.0000     0. 
  -1  11   5     -6.62    9.68  0. 1.0000     0. 
  -1 -11  -5     -1.36   12.13  0. 1.0000     0. 
  -1  11   5     10.26   10.98  0. 1.0000     0. 
   1 -11   5      1.46    5.89  0. 1.0000     0. 
   1  11  -5     -0.45    5.17  0. 1.0000     0. 
  -1  11  -5      1.60    8.30  0. 1.0000     0. 
  -1  11  -5      1.87    5.50  0. 1.0000     0. 
   1 -11  -5     -5.23    8.14  0. 1.0000     0. 
   1  11   5      5.48   12.49  0. 1.0000     0. 
  -1 -11   5      1.00    6.57  0. 1.0000     0. 
   1  11   5     -4.48   15.98  0. 1.0000     0. 
   1 -11  -5      3.65   11.84  0. 1.0000     0. 
  -2  11   5     -0.58    8.41  0. 1.0000     0. 
   2 -11   5      3.57    7.33  0. 1.0000     0. 
  -2  11   5     -1.49   11.05  0. 1.0000     0. 
   2  11  -5     -4.74    6.29  0. 1.0000     0. 
  -2 -11  -5    -11.75   10.79  0. 1.0000     0. 
   2 -11   5     -2.55    7.09  0. 1.0000     0. 
   2 -11  -5     -4.24   12.41  0. 1.0000     0. 
  -2 -11   5      0.20    6.48  0. 1.0000     0. 
   2  11   5     -9.51   10.00  0. 1.0000     0. 
  -2  11  -5      2.37    6.20  0. 1.0000     0. 
  -2  11  -5     -1.99    7.62  0. 1.0000     0. 
   2 -11  -5      7.64    9.48  0. 1.0000     0. 
   3  11  -5     -8.40    6.43  0. 1.0000     0. 
  -3  11   5     -1.23    7.99  0. 1.0000     0. 
   3 -11   5      4.49    7.50  0. 1.0000     0. 
  -3  11   5     -9.43   11.22  0. 1.0000     0. 
   3 -11  -5     -0.04    8.09  0. 1.0000     0. 
  -3  11  -5      4.72    6.18  0. 1.0000     0. 
  -3  11  -5      3.55    8.44  0. 1.0000     0. 
   3 -11  -5     11.00   13.06  0. 1.0000     0. 
  -4  11   5     -3.18   11.68  0. 1.0000     0. 
   4 -11   5     -4.40    7.78  0. 1.0000     0. 
  -4  11   5      9.99    7.78  0. 1.0000     0. 
   4 -11  -5     -3.75    8.04  0. 1.0000     0. 
  -4  11  -5     -3.99    8.18  0. 1.0000     0. 
   4 -11  -5      6.95   12.37  0. 1.0000     0. 
  -5  11   5      8.41    8.88  0. 1.0000     0. 
   5 -11   5      3.20    7.71  0. 1.0000     0. 
  -5  11   5      0.26   11.97  0. 1.0000     0. 
   5 -11  -5      3.01    8.76  0. 1.0000     0. 
  -5  11  -5      5.03    8.68  0. 1.0000     0. 
   0  12   5     -0.80    8.96  0. 1.0000     0. 
   0  12   5      7.55   15.05  0. 1.0000     0. 
   0  12  -5     -1.37    5.91  0. 1.0000     0. 
   0 -12  -5      0.93   12.50  0. 1.0000     0. 
   0 -12   5      6.57    6.80  0. 1.0000     0. 
   1 -12   5      6.75    6.76  0. 1.0000     0. 
  -1  12   5     -3.72    8.95  0. 1.0000     0. 
  -1 -12  -5     -1.52   12.60  0. 1.0000     0. 
   1  12  -5     -0.11    6.24  0. 1.0000     0. 
  -1  12   5     -2.20   12.63  0. 1.0000     0. 
  -1 -12   5      4.82    7.59  0. 1.0000     0. 
   1 -12  -5      1.56    9.19  0. 1.0000     0. 
   1 -12  -5      5.01   12.07  0. 1.0000     0. 
   1  12   5    -15.56   12.44  0. 1.0000     0. 
  -1  12  -5      2.81    9.65  0. 1.0000     0. 
  -1  12  -5     -0.73    5.86  0. 1.0000     0. 
   1  12   5     26.29   19.60  0. 1.0000     0. 
   2 -12   5      6.85    7.85  0. 1.0000     0. 
   2 -12  -5      4.32    9.94  0. 1.0000     0. 
   0   0   6    218.82   17.88  0. 1.0000     0. 
   0   0  -6    260.00   18.95  0. 1.0000     0. 
   0   0  -6    251.96   17.57  0. 1.0000     0. 
   0   0   6    236.09   19.96  0. 1.0000     0. 
   0   0  -6    260.15   23.11  0. 1.0000     0. 
   0  -1  -6    418.88   35.10  0. 1.0000     0. 
   0  -1  -6    525.22   35.01  0. 1.0000     0. 
   0   1   6    519.49   35.40  0. 1.0000     0. 
  -1   1   6    263.98   20.69  0. 1.0000     0. 
   0   2   6    176.44   15.92  0. 1.0000     0. 
   2   0   6    195.23   17.05  0. 1.0000     0. 
   0  -2  -6    206.55   19.91  0. 1.0000     0. 
  -2   0   6    178.80   17.26  0. 1.0000     0. 
  -2   0  -6    247.19   16.71  0. 1.0000     0. 
   0   2   6    186.63   16.68  0. 1.0000     0. 
   0  -2  -6    231.09   16.39  0. 1.0000     0. 
   0   2   6    185.63   18.35  0. 1.0000     0. 
   0  -2  -6    206.00   15.84  0. 1.0000     0. 
   0   2  -6    206.02   20.19  0. 1.0000     0. 
   2   0  -6    223.41   18.75  0. 1.0000     0. 
  -2   0   6    201.72   16.27  0. 1.0000     0. 
   0  -2   6    209.66   17.49  0. 1.0000     0. 
   0   2  -6    207.40   16.16  0. 1.0000     0. 
   2   1   6    187.21   14.62  0. 1.0000     0. 
  -1  -2  -6    179.12   17.48  0. 1.0000     0. 
  -2   1  -6    208.28   15.03  0. 1.0000     0. 
  -1   2   6    175.28   17.23  0. 1.0000     0. 
  -2  -1   6    171.99   13.46  0. 1.0000     0. 
  -1  -2  -6    167.93   14.64  0. 1.0000     0. 
   1   2  -6    193.97   14.85  0. 1.0000     0. 
  -1   2   6    199.18   14.99  0. 1.0000     0. 
   2  -1  -6    194.14   14.99  0. 1.0000     0. 
   2  -1  -6    172.39   17.42  0. 1.0000     0. 
   1   2  -6    189.13   17.67  0. 1.0000     0. 
   1  -2   6    177.65   17.06  0. 1.0000     0. 
   2   1   6    187.62   16.42  0. 1.0000     0. 
  -2  -1   6    185.78   16.10  0. 1.0000     0. 
  -1   2   6    167.38   15.38  0. 1.0000     0. 
   1  -2  -6    186.75   15.19  0. 1.0000     0. 
  -2   1   6    168.83   14.39  0. 1.0000     0. 
  -2   1   6    183.12   14.90  0. 1.0000     0. 
   1   2   6    191.56   15.89  0. 1.0000     0. 
  -1   2  -6    196.64   19.04  0. 1.0000     0. 
   1   2   6    176.17   15.06  0. 1.0000     0. 
  -1   2  -6    191.17   15.11  0. 1.0000     0. 
   1  -2  -6    181.02   14.56  0. 1.0000     0. 
  -1  -2   6    179.11   15.70  0. 1.0000     0. 
   2  -1   6    192.33   16.49  0. 1.0000     0. 
   2   1  -6    200.70   17.57  0. 1.0000     0. 
   1  -2  -6    168.89   19.22  0. 1.0000     0. 
   1  -2  -6    178.31   15.09  0. 1.0000     0. 
  -2   1   6    180.31   16.28  0. 1.0000     0. 
   1   2   6    189.06   16.25  0. 1.0000     0. 
   2  -2   6    213.34   17.97  0. 1.0000     0. 
  -2   2   6    192.63   16.74  0. 1.0000     0. 
   2  -2  -6    221.65   19.52  0. 1.0000     0. 
  -2   2  -6    220.13   16.78  0. 1.0000     0. 
   2  -2  -6    230.65   16.96  0. 1.0000     0. 
   2  -2  -6    220.26   16.73  0. 1.0000     0. 
   2   2   6    232.51   18.30  0. 1.0000     0. 
  -2   2   6    213.43   17.28  0. 1.0000     0. 
   2   2   6    217.83   16.92  0. 1.0000     0. 
  -2   2   6    217.34   18.40  0. 1.0000     0. 
  -2  -2   6    195.78   17.67  0. 1.0000     0. 
  -2   2   6    213.22   17.13  0. 1.0000     0. 
  -3   0   6    388.98   27.85  0. 1.0000     0. 
   0  -3  -6    321.88   29.01  0. 1.0000     0. 
   0   3  -6    360.83   26.05  0. 1.0000     0. 
   0  -3  -6    399.12   26.28  0. 1.0000     0. 
   0  -3  -6    406.79   27.60  0. 1.0000     0. 
   0   3   6    350.64   26.54  0. 1.0000     0. 
   0   3  -6    407.09   29.04  0. 1.0000     0. 
   0  -3  -6    347.71   25.93  0. 1.0000     0. 
   3   0   6    309.98   26.81  0. 1.0000     0. 
   0  -3   6    361.92   27.45  0. 1.0000     0. 
   0   3   6    350.55   27.61  0. 1.0000     0. 
   0   3   6    320.90   26.10  0. 1.0000     0. 
  -1   3   6    423.58   30.42  0. 1.0000     0. 
   1   3  -6    385.17   30.29  0. 1.0000     0. 
  -1   3   6    420.12   29.04  0. 1.0000     0. 
  -1  -3  -6    392.08   30.91  0. 1.0000     0. 
  -1   3   6    407.69   29.01  0. 1.0000     0. 
   1  -3   6    369.02   29.74  0. 1.0000     0. 
  -1  -3  -6    392.40   28.48  0. 1.0000     0. 
   3   1   6    388.35   29.61  0. 1.0000     0. 
   1   3  -6    405.99   28.54  0. 1.0000     0. 
  -1   3  -6    427.74   28.70  0. 1.0000     0. 
  -3   1   6    408.58   30.05  0. 1.0000     0. 
   1  -3  -6    420.36   28.60  0. 1.0000     0. 
   1   3   6    417.63   29.34  0. 1.0000     0. 
  -1  -3   6    401.42   29.37  0. 1.0000     0. 
   1  -3  -6    378.63   28.68  0. 1.0000     0. 
  -3   1   6    351.22   28.67  0. 1.0000     0. 
   1  -3  -6    425.57   31.54  0. 1.0000     0. 
  -1   3  -6    331.54   30.39  0. 1.0000     0. 
   1  -3  -6    429.48   29.72  0. 1.0000     0. 
   1   3   6    390.52   29.56  0. 1.0000     0. 
   3  -1   6    398.73   29.67  0. 1.0000     0. 
  -2   3   6    356.99   26.90  0. 1.0000     0. 
   3   2   6    358.05   26.95  0. 1.0000     0. 
   2  -3   6    351.17   26.57  0. 1.0000     0. 
  -2   3   6    328.07   26.15  0. 1.0000     0. 
  -2   3   6    377.34   26.71  0. 1.0000     0. 
   2   3   6    334.09   26.89  0. 1.0000     0. 
  -2   3  -6    340.30   27.68  0. 1.0000     0. 
   2  -3  -6    384.75   28.06  0. 1.0000     0. 
   3  -2   6    340.54   26.55  0. 1.0000     0. 
   2  -3  -6    386.53   26.26  0. 1.0000     0. 
   2   3   6    327.01   25.81  0. 1.0000     0. 
   2  -3  -6    365.58   26.69  0. 1.0000     0. 
  -3   2   6    379.01   27.29  0. 1.0000     0. 
  -3   2   6    322.83   26.11  0. 1.0000     0. 
  -2   3  -6    330.45   25.53  0. 1.0000     0. 
   2  -3  -6    357.97   25.46  0. 1.0000     0. 
  -3   3   6    297.08   20.49  0. 1.0000     0. 
   3   3   6    229.24   20.56  0. 1.0000     0. 
  -3   3   6    226.58   20.29  0. 1.0000     0. 
   0  -4  -6    303.41   21.18  0. 1.0000     0. 
   0  -4  -6    258.11   24.70  0. 1.0000     0. 
   0   4  -6    286.76   21.10  0. 1.0000     0. 
   0  -4  -6    270.09   21.42  0. 1.0000     0. 
   0   4   6    293.39   22.75  0. 1.0000     0. 
   0   4   6    270.62   22.85  0. 1.0000     0. 
   0   4  -6    270.89   23.20  0. 1.0000     0. 
   0  -4   6    293.78   22.25  0. 1.0000     0. 
   0  -4  -6    299.46   23.71  0. 1.0000     0. 
  -1  -4  -6    300.76   25.83  0. 1.0000     0. 
   1   4  -6    297.73   22.98  0. 1.0000     0. 
  -1   4   6    328.94   24.24  0. 1.0000     0. 
  -1   4   6    288.48   23.89  0. 1.0000     0. 
  -1   4   6    336.42   25.32  0. 1.0000     0. 
   1   4  -6    339.14   22.09  0. 1.0000     0. 
   1  -4   6    292.04   23.82  0. 1.0000     0. 
   1   4   6    310.97   24.35  0. 1.0000     0. 
  -1  -4   6    283.29   23.71  0. 1.0000     0. 
   1   4   6    304.49   24.29  0. 1.0000     0. 
   1  -4  -6    282.02   22.73  0. 1.0000     0. 
   1  -4  -6    310.63   23.38  0. 1.0000     0. 
  -1   4  -6    347.98   23.38  0. 1.0000     0. 
  -1   4  -6    279.02   24.85  0. 1.0000     0. 
   1  -4  -6    350.94   25.31  0. 1.0000     0. 
   1  -4  -6    344.76   27.09  0. 1.0000     0. 
   1   4   6    320.93   24.80  0. 1.0000     0. 
  -2   4   6    307.83   23.64  0. 1.0000     0. 
  -2   4   6    258.35   23.37  0. 1.0000     0. 
  -2   4   6    290.74   24.18  0. 1.0000     0. 
   2  -4   6    288.05   23.49  0. 1.0000     0. 
   2  -4  -6    325.81   23.41  0. 1.0000     0. 
   2   4   6    325.77   24.35  0. 1.0000     0. 
   2  -4  -6    365.09   25.08  0. 1.0000     0. 
  -2   4  -6    351.69   22.14  0. 1.0000     0. 
   2  -4  -6    302.53   22.56  0. 1.0000     0. 
  -2   4  -6    284.80   24.17  0. 1.0000     0. 
   2   4   6    286.31   23.35  0. 1.0000     0. 
  -2   4  -6    268.40   22.42  0. 1.0000     0. 
   2  -4  -6    334.21   25.35  0. 1.0000     0. 
  -3   4   6    220.25   19.41  0. 1.0000     0. 
  -3   4   6    222.21   20.32  0. 1.0000     0. 
   3  -4   6    227.90   19.41  0. 1.0000     0. 
  -3   4   6    216.77   19.01  0. 1.0000     0. 
  -3   4  -6    246.57   17.58  0. 1.0000     0. 
   4  -3   6    217.01   19.31  0. 1.0000     0. 
  -3   4  -6    227.11   16.97  0. 1.0000     0. 
  -4   4   6     95.43    8.53  0. 1.0000     0. 
   0  -5   6    190.76   14.78  0. 1.0000     0. 
   0  -5  -6    200.86   20.05  0. 1.0000     0. 
   0  -5   6    200.09   17.24  0. 1.0000     0. 
   0   5  -6    211.92   15.76  0. 1.0000     0. 
   0   5  -6    197.35   19.08  0. 1.0000     0. 
   0   5  -6    208.57   16.23  0. 1.0000     0. 
   0  -5  -6    207.80   16.09  0. 1.0000     0. 
   0   5   6    207.48   17.94  0. 1.0000     0. 
   0   5   6    168.68   17.48  0. 1.0000     0. 
   0  -5  -6    223.47   20.46  0. 1.0000     0. 
   0  -5  -6    204.81   17.41  0. 1.0000     0. 
   0   5   6    214.11   19.40  0. 1.0000     0. 
   1   5  -6    300.18   21.05  0. 1.0000     0. 
  -1   5   6    313.19   23.55  0. 1.0000     0. 
   1  -5   6    249.19   22.31  0. 1.0000     0. 
  -1   5   6    294.86   22.46  0. 1.0000     0. 
  -1   5   6    318.91   24.03  0. 1.0000     0. 
   1   5  -6    313.73   20.64  0. 1.0000     0. 
   1   5  -6    279.89   21.01  0. 1.0000     0. 
  -1   5  -6    319.73   21.63  0. 1.0000     0. 
   1  -5  -6    285.87   25.03  0. 1.0000     0. 
  -1   5  -6    272.99   21.14  0. 1.0000     0. 
   1   5   6    304.29   23.38  0. 1.0000     0. 
   1   5   6    260.07   23.32  0. 1.0000     0. 
  -1  -5   6    244.91   19.83  0. 1.0000     0. 
   1  -5  -6    288.42   24.92  0. 1.0000     0. 
  -1   5  -6    285.57   23.98  0. 1.0000     0. 
  -1  -5   6    241.93   21.56  0. 1.0000     0. 
   1  -5  -6    248.14   21.87  0. 1.0000     0. 
   1  -5  -6    243.59   20.97  0. 1.0000     0. 
   2   5  -6    227.01   18.69  0. 1.0000     0. 
   2   5  -6    229.16   18.37  0. 1.0000     0. 
  -2   5   6    198.28   20.35  0. 1.0000     0. 
  -2   5   6    268.83   20.14  0. 1.0000     0. 
   2  -5   6    247.29   20.43  0. 1.0000     0. 
   2  -5   6    268.30   18.24  0. 1.0000     0. 
  -2   5   6    257.88   20.54  0. 1.0000     0. 
   2  -5  -6    253.43   19.97  0. 1.0000     0. 
   2  -5  -6    259.86   22.10  0. 1.0000     0. 
  -2   5  -6    239.42   18.82  0. 1.0000     0. 
   2  -5  -6    236.19   19.03  0. 1.0000     0. 
   2   5   6    257.73   20.75  0. 1.0000     0. 
   2  -5  -6    257.54   21.77  0. 1.0000     0. 
   2   5   6    226.96   19.90  0. 1.0000     0. 
  -2   5  -6    234.62   21.56  0. 1.0000     0. 
  -3   5   6    142.47   17.22  0. 1.0000     0. 
  -3   5   6    146.27   15.28  0. 1.0000     0. 
  -3   5   6    146.66   15.92  0. 1.0000     0. 
   3  -5   6    135.73   14.38  0. 1.0000     0. 
   3  -5  -6    145.84   12.92  0. 1.0000     0. 
  -3   5  -6    150.55   13.21  0. 1.0000     0. 
   3  -5  -6    137.11   15.13  0. 1.0000     0. 
  -3   5  -6    172.46   13.60  0. 1.0000     0. 
  -5   4   6     83.38    8.05  0. 1.0000     0. 
  -5   4   6    115.27   13.18  0. 1.0000     0. 
  -4   5  -6    107.65    9.84  0. 1.0000     0. 
  -5   5   6     85.57    7.79  0. 1.0000     0. 
  -5   5   6     83.34   13.61  0. 1.0000     0. 
   0   6   6     92.09    7.49  0. 1.0000     0. 
   0  -6  -6     95.77   14.44  0. 1.0000     0. 
   0   6   6     84.15   12.80  0. 1.0000     0. 
   0  -6  -6     94.90   12.81  0. 1.0000     0. 
   0  -6  -6     98.88   16.54  0. 1.0000     0. 
   0  -6   6     80.56    8.36  0. 1.0000     0. 
   0   6   6     93.85   10.93  0. 1.0000     0. 
   0   6  -6     88.54   13.56  0. 1.0000     0. 
   0   6  -6     95.96    9.85  0. 1.0000     0. 
   0  -6  -6     88.77    9.95  0. 1.0000     0. 
   0   6  -6     92.93    9.69  0. 1.0000     0. 
   0   6   6     84.62   12.20  0. 1.0000     0. 
   0  -6   6     88.02   11.39  0. 1.0000     0. 
  -1   6   6    139.41   15.40  0. 1.0000     0. 
   1   6  -6    147.32   13.12  0. 1.0000     0. 
  -1   6   6    148.70   16.17  0. 1.0000     0. 
   1  -6   6    145.99   14.64  0. 1.0000     0. 
  -1  -6  -6    151.72   17.59  0. 1.0000     0. 
  -1   6   6    159.14   17.79  0. 1.0000     0. 
   1   6  -6    131.35   13.13  0. 1.0000     0. 
   1   6  -6    163.65   13.54  0. 1.0000     0. 
  -1  -6  -6    149.39   17.17  0. 1.0000     0. 
  -1   6  -6    171.04   14.09  0. 1.0000     0. 
   1  -6  -6    138.32   12.96  0. 1.0000     0. 
  -1  -6   6    158.51   14.96  0. 1.0000     0. 
   1   6   6    142.39   15.11  0. 1.0000     0. 
   1  -6  -6    160.87   19.03  0. 1.0000     0. 
   1   6   6    140.49   16.62  0. 1.0000     0. 
  -1   6  -6    154.28   13.15  0. 1.0000     0. 
   1  -6  -6    152.17   16.91  0. 1.0000     0. 
   1   6   6    153.88   17.36  0. 1.0000     0. 
  -1   6  -6    155.70   15.96  0. 1.0000     0. 
  -1  -6   6    132.77   12.28  0. 1.0000     0. 
   2   6  -6    309.13   22.06  0. 1.0000     0. 
  -3   6   6     74.17    9.99  0. 1.0000     0. 
   3  -6   6     69.54   11.92  0. 1.0000     0. 
  -3   6   6     84.21    7.56  0. 1.0000     0. 
  -3   6   6    106.33   15.87  0. 1.0000     0. 
   3  -6   6     74.71   10.43  0. 1.0000     0. 
  -3   6   6     88.99   13.71  0. 1.0000     0. 
  -3   6  -6    100.30   12.20  0. 1.0000     0. 
   3  -6  -6     90.03   10.04  0. 1.0000     0. 
  -3   6  -6     94.43   12.84  0. 1.0000     0. 
  -3  -6   6     90.37    7.77  0. 1.0000     0. 
   3  -6  -6    114.08   17.86  0. 1.0000     0. 
  -3   6  -6     81.89   12.81  0. 1.0000     0. 
   3  -6  -6     83.41   10.83  0. 1.0000     0. 
  -4   6   6    103.10   14.36  0. 1.0000     0. 
   4  -6   6     91.31   12.08  0. 1.0000     0. 
  -4   6   6    114.84   16.97  0. 1.0000     0. 
  -4   6   6     83.61    7.79  0. 1.0000     0. 
   4  -6  -6     83.00   12.29  0. 1.0000     0. 
  -4   6  -6    101.02   11.56  0. 1.0000     0. 
   5  -6   6      6.07    5.62  0. 1.0000     0. 
  -6   5   6     19.87    3.62  0. 1.0000     0. 
  -6   6   6     52.26    5.98  0. 1.0000     0. 
   0   7   6     54.41    9.78  0. 1.0000     0. 
   0  -7  -6     35.56    7.68  0. 1.0000     0. 
   0   7  -6     37.40    5.32  0. 1.0000     0. 
   0   7   6     35.34    7.27  0. 1.0000     0. 
   0  -7   6     33.30    6.16  0. 1.0000     0. 
   0   7  -6     43.25    6.06  0. 1.0000     0. 
   0  -7  -6     44.01    8.20  0. 1.0000     0. 
   0  -7   6     35.35    5.43  0. 1.0000     0. 
   0  -7  -6     55.67   10.33  0. 1.0000     0. 
   0   7   6     32.90    7.01  0. 1.0000     0. 
  -1  -7  -6     87.09   17.13  0. 1.0000     0. 
   1   7  -6     91.74   10.02  0. 1.0000     0. 
  -1  -7  -6     94.98   14.93  0. 1.0000     0. 
  -1   7   6     65.41    9.95  0. 1.0000     0. 
   1  -7   6     81.48   11.14  0. 1.0000     0. 
  -1   7   6    102.73    7.73  0. 1.0000     0. 
  -1   7   6     90.27   12.96  0. 1.0000     0. 
   1  -7   6     89.99    7.59  0. 1.0000     0. 
   1   7  -6     92.84   10.06  0. 1.0000     0. 
  -1   7   6     79.64   12.20  0. 1.0000     0. 
   1  -7  -6     85.66   13.10  0. 1.0000     0. 
   1   7   6     99.48   15.42  0. 1.0000     0. 
   1   7   6    112.51   17.48  0. 1.0000     0. 
  -1   7  -6     87.09   13.30  0. 1.0000     0. 
   1  -7  -6    108.28   14.12  0. 1.0000     0. 
  -1   7  -6     70.91   10.06  0. 1.0000     0. 
  -1  -7   6     88.72    7.84  0. 1.0000     0. 
   1   7   6     91.70   12.46  0. 1.0000     0. 
   1  -7  -6     79.65    9.84  0. 1.0000     0. 
  -1   7  -6     85.45    9.99  0. 1.0000     0. 
   1  -7  -6     84.83   15.41  0. 1.0000     0. 
  -1   7  -6     86.16   12.38  0. 1.0000     0. 
   2  -7   6     80.44   10.40  0. 1.0000     0. 
   2   7  -6     84.89   10.44  0. 1.0000     0. 
   2  -7   6     83.89   11.89  0. 1.0000     0. 
  -2   7   6     90.00    7.52  0. 1.0000     0. 
  -2   7   6     67.30   10.08  0. 1.0000     0. 
  -2   7   6     87.72   11.55  0. 1.0000     0. 
  -2   7   6     90.37   12.45  0. 1.0000     0. 
   2  -7  -6     77.18   13.19  0. 1.0000     0. 
   2  -7  -6    103.60   19.07  0. 1.0000     0. 
   2  -7  -6     92.14   14.38  0. 1.0000     0. 
  -2   7  -6    104.51   11.51  0. 1.0000     0. 
   2   7   6     75.31   12.47  0. 1.0000     0. 
   2   7   6     85.99   10.30  0. 1.0000     0. 
   2  -7  -6     82.72    9.77  0. 1.0000     0. 
  -2   7  -6     88.95   13.75  0. 1.0000     0. 
  -2  -7   6     83.35    7.60  0. 1.0000     0. 
  -3   7   6     96.30    7.51  0. 1.0000     0. 
  -3   7   6     65.31   10.35  0. 1.0000     0. 
  -3   7   6     77.08   13.64  0. 1.0000     0. 
   3  -7   6     70.24   11.62  0. 1.0000     0. 
  -3   7   6     77.26   10.60  0. 1.0000     0. 
   3  -7   6     74.41   10.74  0. 1.0000     0. 
   3  -7  -6     69.15    9.83  0. 1.0000     0. 
  -3  -7   6     88.59    7.64  0. 1.0000     0. 
   3  -7  -6     80.17   12.84  0. 1.0000     0. 
  -3   7  -6     91.36   12.88  0. 1.0000     0. 
  -3   7  -6     60.42   13.04  0. 1.0000     0. 
   3  -7  -6     75.03    9.72  0. 1.0000     0. 
   4  -7   6     72.16   11.74  0. 1.0000     0. 
  -4   7   6     72.25   10.38  0. 1.0000     0. 
  -4   7   6     98.77    7.72  0. 1.0000     0. 
  -4   7   6     94.10   11.53  0. 1.0000     0. 
   4  -7  -6     66.21    9.71  0. 1.0000     0. 
   4  -7  -6     60.11    9.70  0. 1.0000     0. 
  -4   7  -6     77.68   12.35  0. 1.0000     0. 
  -5   7   6     53.02    9.03  0. 1.0000     0. 
   5  -7   6     64.46   10.62  0. 1.0000     0. 
  -5   7  -6     62.86   11.21  0. 1.0000     0. 
  -6   7   6     79.08   11.12  0. 1.0000     0. 
  -6   7   6     70.84    7.24  0. 1.0000     0. 
  -7   7   6      7.08    2.86  0. 1.0000     0. 
   0  -8  -6    112.82   15.66  0. 1.0000     0. 
   0   8   6     88.83   13.10  0. 1.0000     0. 
   0  -8   6     89.24   10.71  0. 1.0000     0. 
   0  -8   6     98.39   12.42  0. 1.0000     0. 
   0   8   6     98.43   16.50  0. 1.0000     0. 
   0  -8  -6    115.26   20.63  0. 1.0000     0. 
   0   8   6     89.83   12.89  0. 1.0000     0. 
   0   8  -6    101.70   11.05  0. 1.0000     0. 
   0  -8  -6    118.28   15.55  0. 1.0000     0. 
   0  -8   6     91.58    8.15  0. 1.0000     0. 
   0   8  -6    119.96   10.70  0. 1.0000     0. 
  -1   8   6    108.47   13.80  0. 1.0000     0. 
   1   8  -6    118.51   11.84  0. 1.0000     0. 
  -1  -8  -6    133.12   16.32  0. 1.0000     0. 
  -1  -8  -6    112.19   20.44  0. 1.0000     0. 
   1  -8   6    118.51   11.99  0. 1.0000     0. 
  -1   8   6    120.47   15.88  0. 1.0000     0. 
   1   8  -6    126.73   11.44  0. 1.0000     0. 
   1  -8   6    115.42   11.97  0. 1.0000     0. 
  -1   8   6    133.36   14.80  0. 1.0000     0. 
  -1   8  -6    119.55   15.12  0. 1.0000     0. 
  -1   8  -6    107.97   10.95  0. 1.0000     0. 
   1   8   6    121.42   13.19  0. 1.0000     0. 
   1  -8  -6    124.95   16.18  0. 1.0000     0. 
  -1  -8   6    105.75   11.85  0. 1.0000     0. 
   1  -8  -6    143.23   16.91  0. 1.0000     0. 
   1  -8  -6    108.93   11.13  0. 1.0000     0. 
  -1   8  -6    146.45   14.49  0. 1.0000     0. 
  -1   8  -6    113.55   12.24  0. 1.0000     0. 
   1  -8  -6    152.59   23.15  0. 1.0000     0. 
   1   8   6    119.93   19.77  0. 1.0000     0. 
   1   8   6    132.96   19.82  0. 1.0000     0. 
  -1  -8   6     95.84    9.42  0. 1.0000     0. 
  -2   8   6     87.37   12.89  0. 1.0000     0. 
  -2   8   6    122.71   19.05  0. 1.0000     0. 
   2  -8   6    107.92   13.05  0. 1.0000     0. 
  -2   8   6     99.96    8.21  0. 1.0000     0. 
   2  -8   6    101.98   13.21  0. 1.0000     0. 
  -2   8   6    127.76   14.32  0. 1.0000     0. 
   2   8  -6     86.02   11.85  0. 1.0000     0. 
   2   8   6     91.24   12.09  0. 1.0000     0. 
  -2   8  -6    103.47   14.43  0. 1.0000     0. 
   2   8   6     90.99   13.96  0. 1.0000     0. 
  -2   8  -6    102.06   13.38  0. 1.0000     0. 
   2  -8  -6     87.16   10.62  0. 1.0000     0. 
   2  -8  -6     94.93   15.18  0. 1.0000     0. 
  -2  -8   6     98.23    8.51  0. 1.0000     0. 
   2  -8  -6    130.38   23.07  0. 1.0000     0. 
   3   8  -6     48.02    6.71  0. 1.0000     0. 
   3  -8   6     44.26    6.76  0. 1.0000     0. 
   3  -8   6     76.46   11.42  0. 1.0000     0. 
  -3   8   6     65.82   10.43  0. 1.0000     0. 
  -3   8   6     56.14    9.43  0. 1.0000     0. 
   3  -8  -6     42.47    6.13  0. 1.0000     0. 
   3  -8  -6     66.18    9.62  0. 1.0000     0. 
  -3   8  -6     37.80    7.31  0. 1.0000     0. 
   3  -8  -6     57.93   12.50  0. 1.0000     0. 
  -4   8   6     33.73    8.71  0. 1.0000     0. 
   4  -8   6     35.57    6.65  0. 1.0000     0. 
   4  -8   6     39.06    6.55  0. 1.0000     0. 
  -4   8   6     55.81   11.14  0. 1.0000     0. 
  -4   8  -6     42.27    7.66  0. 1.0000     0. 
   4  -8  -6     31.10    5.52  0. 1.0000     0. 
   4  -8  -6     38.19    8.98  0. 1.0000     0. 
  -4  -8   6     24.13    3.96  0. 1.0000     0. 
  -4   8  -6     28.25    6.93  0. 1.0000     0. 
  -5   8   6     19.90    8.21  0. 1.0000     0. 
  -5   8   6     38.91   10.45  0. 1.0000     0. 
   5  -8   6     35.39    7.01  0. 1.0000     0. 
  -5   8  -6     33.51    7.21  0. 1.0000     0. 
   5  -8  -6     20.74    7.92  0. 1.0000     0. 
   5  -8  -6     14.76    5.62  0. 1.0000     0. 
  -6   8   6     39.11   10.12  0. 1.0000     0. 
  -7   8   6     20.37    4.29  0. 1.0000     0. 
  -8   8   6     -0.42    0.91  0. 1.0000     0. 
   0   9   6     73.76   11.63  0. 1.0000     0. 
   0   9   6     91.70   14.49  0. 1.0000     0. 
   0  -9  -6     86.14   11.99  0. 1.0000     0. 
   0  -9  -6     78.82   14.01  0. 1.0000     0. 
   0  -9   6     89.92    7.07  0. 1.0000     0. 
   0   9   6     68.03    9.76  0. 1.0000     0. 
   0  -9  -6     56.79   10.59  0. 1.0000     0. 
   0   9  -6     69.97   10.76  0. 1.0000     0. 
   0   9  -6     66.41   10.08  0. 1.0000     0. 
  -1  -9  -6     71.04   13.71  0. 1.0000     0. 
   1  -9   6     70.85   10.04  0. 1.0000     0. 
   1   9  -6     61.18    9.70  0. 1.0000     0. 
  -1   9   6     65.94   11.76  0. 1.0000     0. 
  -1  -9  -6     78.02   15.89  0. 1.0000     0. 
   1   9  -6     71.67    9.83  0. 1.0000     0. 
   1  -9   6     75.05   11.06  0. 1.0000     0. 
  -1   9   6     51.73    8.88  0. 1.0000     0. 
  -1   9   6    101.99   13.95  0. 1.0000     0. 
  -1   9  -6     62.22   10.30  0. 1.0000     0. 
   1   9   6    100.96   14.71  0. 1.0000     0. 
   1  -9  -6     73.21   10.88  0. 1.0000     0. 
   1  -9  -6     87.58   14.45  0. 1.0000     0. 
  -1  -9   6     60.46   10.96  0. 1.0000     0. 
   1   9   6     68.55   12.86  0. 1.0000     0. 
   1   9   6     65.18   11.72  0. 1.0000     0. 
  -1   9  -6     59.73    9.37  0. 1.0000     0. 
   1  -9  -6     73.94   13.83  0. 1.0000     0. 
   2  -9   6     82.07    9.48  0. 1.0000     0. 
   2  -9   6     56.83    9.96  0. 1.0000     0. 
  -2   9   6     56.76   10.42  0. 1.0000     0. 
  -2   9   6     72.08   12.04  0. 1.0000     0. 
  -2   9   6     54.58   10.29  0. 1.0000     0. 
   2   9  -6     46.87    6.93  0. 1.0000     0. 
   2   9  -6     34.57    7.01  0. 1.0000     0. 
  -2   9  -6     73.45    9.80  0. 1.0000     0. 
  -2   9  -6     61.11   11.77  0. 1.0000     0. 
   2  -9  -6     59.96    8.38  0. 1.0000     0. 
  -2  -9   6     46.34    9.25  0. 1.0000     0. 
   2   9   6     54.60    8.46  0. 1.0000     0. 
   2  -9  -6     73.64   10.58  0. 1.0000     0. 
   2  -9  -6     63.16   14.64  0. 1.0000     0. 
  -2   9  -6     54.46    7.95  0. 1.0000     0. 
   2   9   6     72.75   11.65  0. 1.0000     0. 
   3   9  -6     43.16    7.18  0. 1.0000     0. 
  -3   9   6     46.18   10.43  0. 1.0000     0. 
  -3   9   6     47.59    9.75  0. 1.0000     0. 
   3  -9   6     41.51    7.94  0. 1.0000     0. 
   3  -9   6     48.46    7.40  0. 1.0000     0. 
   3  -9  -6     73.77   14.34  0. 1.0000     0. 
  -3   9  -6     85.33   13.83  0. 1.0000     0. 
   3  -9  -6     50.75    6.86  0. 1.0000     0. 
   3  -9  -6     41.01    9.15  0. 1.0000     0. 
   4  -9   6     34.17    7.63  0. 1.0000     0. 
   4  -9   6     27.48    5.66  0. 1.0000     0. 
  -4   9   6     45.67   11.33  0. 1.0000     0. 
  -4   9   6     37.40    9.93  0. 1.0000     0. 
  -4  -9   6     27.72    4.42  0. 1.0000     0. 
  -4   9  -6     34.91    7.97  0. 1.0000     0. 
   4  -9  -6     32.87    5.34  0. 1.0000     0. 
   4  -9  -6     42.60   11.92  0. 1.0000     0. 
   4  -9  -6     25.15    8.16  0. 1.0000     0. 
  -5   9   6     31.17    9.72  0. 1.0000     0. 
  -5   9   6     55.54   11.86  0. 1.0000     0. 
   5  -9   6     30.23    7.18  0. 1.0000     0. 
   5  -9   6     32.96    6.84  0. 1.0000     0. 
   5  -9  -6     26.95    8.47  0. 1.0000     0. 
  -5   9  -6     27.59    7.70  0. 1.0000     0. 
   5  -9  -6     28.29    5.91  0. 1.0000     0. 
  -6   9   6     37.30   10.36  0. 1.0000     0. 
   6  -9  -6     40.47    9.93  0. 1.0000     0. 
  -6   9  -6     28.88    8.15  0. 1.0000     0. 
  -9   7   6      4.16    1.16  0. 1.0000     0. 
   0  10   6     48.40   11.71  0. 1.0000     0. 
   0  10   6     59.63   14.13  0. 1.0000     0. 
   0 -10  -6     42.74   13.28  0. 1.0000     0. 
   0  10  -6     39.87    6.64  0. 1.0000     0. 
   0 -10  -6     36.67    9.22  0. 1.0000     0. 
  -1  10   6     36.71    9.77  0. 1.0000     0. 
   1  10  -6     26.78    6.16  0. 1.0000     0. 
  -1  10   6     46.03   12.32  0. 1.0000     0. 
  -1 -10  -6     25.50    7.63  0. 1.0000     0. 
  -1 -10  -6     55.21   13.87  0. 1.0000     0. 
   1 -10  -6     31.32   13.08  0. 1.0000     0. 
  -1  10  -6     36.43    8.98  0. 1.0000     0. 
   1  10   6     49.41   14.28  0. 1.0000     0. 
  -1  10  -6     29.67    6.20  0. 1.0000     0. 
   1 -10  -6     38.73    9.65  0. 1.0000     0. 
   1 -10  -6     32.51    8.07  0. 1.0000     0. 
   1  10   6     63.14   16.20  0. 1.0000     0. 
  -2  10   6     46.41   10.79  0. 1.0000     0. 
  -2  10   6     37.31   11.13  0. 1.0000     0. 
   2 -10   6     23.76    5.75  0. 1.0000     0. 
  -2 -10  -6     39.06   12.18  0. 1.0000     0. 
   2  10  -6     21.65    6.34  0. 1.0000     0. 
   2 -10  -6     49.89   14.84  0. 1.0000     0. 
   2  10   6     44.34   11.09  0. 1.0000     0. 
  -2  10  -6     44.24    8.24  0. 1.0000     0. 
  -2  10  -6     29.71    6.13  0. 1.0000     0. 
   2 -10  -6     51.25   10.20  0. 1.0000     0. 
   2  10   6     29.81    7.38  0. 1.0000     0. 
  -3  10   6     74.55   13.09  0. 1.0000     0. 
   3  10  -6     40.56    7.46  0. 1.0000     0. 
  -3  10   6     32.78    9.15  0. 1.0000     0. 
   3 -10  -6     50.16   13.62  0. 1.0000     0. 
  -3  10  -6     44.17    8.36  0. 1.0000     0. 
   3 -10  -6     47.09    9.54  0. 1.0000     0. 
   3 -10  -6     34.39    5.67  0. 1.0000     0. 
  -4  10   6     11.80   10.43  0. 1.0000     0. 
  -4  10   6     27.06   11.41  0. 1.0000     0. 
   4 -10  -6     29.76    6.15  0. 1.0000     0. 
  -4 -10   6     27.28    4.56  0. 1.0000     0. 
   4 -10  -6     41.10   15.20  0. 1.0000     0. 
  -4  10  -6     27.07    8.69  0. 1.0000     0. 
   4 -10  -6     12.86    9.40  0. 1.0000     0. 
  -5  10   6     41.18   11.58  0. 1.0000     0. 
  -5  10   6     41.05   11.49  0. 1.0000     0. 
  -5  10  -6     27.31    8.61  0. 1.0000     0. 
   5 -10  -6     56.11    9.90  0. 1.0000     0. 
   0  11  -6     37.91    7.03  0. 1.0000     0. 
   0  11   6     49.66   14.08  0. 1.0000     0. 
   0 -11  -6     36.54   13.99  0. 1.0000     0. 
   0  11   6     43.59   11.34  0. 1.0000     0. 
  -1  11   6     37.25   12.39  0. 1.0000     0. 
  -1  11   6     23.84   12.65  0. 1.0000     0. 
  -1 -11  -6     24.92   12.47  0. 1.0000     0. 
   1  11  -6     16.03    6.26  0. 1.0000     0. 
   1 -11  -6     33.95    9.79  0. 1.0000     0. 
  -1  11  -6     33.96   10.07  0. 1.0000     0. 
   1  11   6     38.59   14.21  0. 1.0000     0. 
   1  11   6     59.54   17.47  0. 1.0000     0. 
  -1  11  -6     18.51    6.37  0. 1.0000     0. 
   1 -11  -6     37.37   14.19  0. 1.0000     0. 
  -2  11   6     22.77   10.58  0. 1.0000     0. 
  -2 -11  -6     31.25   13.72  0. 1.0000     0. 
   2  11  -6     21.29    7.15  0. 1.0000     0. 
  -2 -11  -6     27.13   10.58  0. 1.0000     0. 
  -2  11   6     31.53   10.78  0. 1.0000     0. 
  -2  11  -6     27.53    6.56  0. 1.0000     0. 
  -2  11  -6     31.69    7.99  0. 1.0000     0. 
   2 -11  -6     52.34   16.38  0. 1.0000     0. 
   2  11   6     28.79   12.95  0. 1.0000     0. 
   2 -11  -6     36.97    9.84  0. 1.0000     0. 
  -3  11   6     39.66   12.07  0. 1.0000     0. 
   3  11  -6     28.37    6.96  0. 1.0000     0. 
  -3  11   6     14.81    8.79  0. 1.0000     0. 
   3 -11  -6     49.76   14.74  0. 1.0000     0. 
   3 -11  -6     34.56   10.00  0. 1.0000     0. 
  -3  11  -6     34.83    8.39  0. 1.0000     0. 
   0   0   7    866.15   63.01  0. 1.0000     0. 
   0   0  -7    928.27   64.98  0. 1.0000     0. 
   0   0  -7    919.12   62.26  0. 1.0000     0. 
   0  -1  -7    474.98   31.77  0. 1.0000     0. 
   1   0  -7    422.90   30.56  0. 1.0000     0. 
  -1   0  -7    468.22   31.33  0. 1.0000     0. 
   0   1   7    379.42   32.72  0. 1.0000     0. 
  -1   0  -7    458.18   34.69  0. 1.0000     0. 
   0   1   7    445.79   31.06  0. 1.0000     0. 
   0   1   7    444.09   31.70  0. 1.0000     0. 
   1   0   7    444.48   33.28  0. 1.0000     0. 
   1   0  -7    467.40   35.29  0. 1.0000     0. 
   1   0  -7    460.66   32.07  0. 1.0000     0. 
   0   1  -7    438.83   31.75  0. 1.0000     0. 
   0   1  -7    468.12   35.76  0. 1.0000     0. 
   0  -1   7    424.78   33.12  0. 1.0000     0. 
  -1   0  -7    424.71   31.81  0. 1.0000     0. 
   0  -1  -7    401.18   35.41  0. 1.0000     0. 
  -1   0   7    449.40   33.14  0. 1.0000     0. 
  -1   1   7    164.38   14.78  0. 1.0000     0. 
  -1   1   7    158.91   17.06  0. 1.0000     0. 
  -1   1   7    142.84   14.26  0. 1.0000     0. 
  -1  -1   7    183.18   16.44  0. 1.0000     0. 
  -1  -1  -7    168.19   18.19  0. 1.0000     0. 
   1  -1   7    173.91   17.86  0. 1.0000     0. 
   1   1  -7    175.90   19.26  0. 1.0000     0. 
  -1  -1  -7    187.40   14.80  0. 1.0000     0. 
   1   1   7    189.49   14.29  0. 1.0000     0. 
   1   1   7    171.73   16.92  0. 1.0000     0. 
   1  -1  -7    169.92   20.25  0. 1.0000     0. 
   1  -1  -7    165.74   13.44  0. 1.0000     0. 
  -1   1  -7    195.12   20.48  0. 1.0000     0. 
   1  -1  -7    158.36   15.56  0. 1.0000     0. 
   1   1  -7    177.36   14.80  0. 1.0000     0. 
  -1  -1  -7    168.97   15.00  0. 1.0000     0. 
  -1   1  -7    190.24   15.21  0. 1.0000     0. 
   1   1   7    194.41   14.98  0. 1.0000     0. 
   0   2  -7    320.27   27.75  0. 1.0000     0. 
   0   2  -7    274.09   22.61  0. 1.0000     0. 
   0  -2   7    306.30   24.53  0. 1.0000     0. 
   0  -2  -7    319.84   22.94  0. 1.0000     0. 
  -2   0  -7    309.94   22.79  0. 1.0000     0. 
   2   0   7    276.72   21.32  0. 1.0000     0. 
   0   2   7    312.25   23.41  0. 1.0000     0. 
   0  -2  -7    328.89   23.94  0. 1.0000     0. 
  -2   0   7    326.75   24.54  0. 1.0000     0. 
   2   0  -7    274.51   25.50  0. 1.0000     0. 
   2   0   7    320.77   22.09  0. 1.0000     0. 
   0   2   7    287.86   23.96  0. 1.0000     0. 
  -2   0   7    271.41   22.13  0. 1.0000     0. 
   0  -2  -7    298.19   27.34  0. 1.0000     0. 
   2   0  -7    291.06   22.75  0. 1.0000     0. 
   2   0   7    297.21   23.93  0. 1.0000     0. 
  -1   2   7    127.94   12.86  0. 1.0000     0. 
   2   1   7    117.02   11.13  0. 1.0000     0. 
   2  -1  -7    139.97   12.00  0. 1.0000     0. 
  -2  -1   7    144.81   14.64  0. 1.0000     0. 
   2  -1  -7    143.36   16.25  0. 1.0000     0. 
  -2   1  -7    125.12   12.65  0. 1.0000     0. 
  -1  -2  -7    145.42   12.59  0. 1.0000     0. 
   1   2  -7    142.16   16.76  0. 1.0000     0. 
  -2  -1   7    116.89   10.65  0. 1.0000     0. 
   2  -1  -7    138.54   12.69  0. 1.0000     0. 
   1  -2   7    135.56   15.10  0. 1.0000     0. 
   2   1   7    156.56   15.09  0. 1.0000     0. 
   2   1   7    136.28   12.22  0. 1.0000     0. 
  -1   2   7    116.27   12.99  0. 1.0000     0. 
   1   2  -7    114.99   12.56  0. 1.0000     0. 
  -1  -2  -7    137.88   12.80  0. 1.0000     0. 
  -2  -1   7    134.18   11.98  0. 1.0000     0. 
  -1   2   7    136.38   15.14  0. 1.0000     0. 
  -1  -2  -7    135.60   16.51  0. 1.0000     0. 
   1  -2  -7    133.26   11.57  0. 1.0000     0. 
  -2   1   7    128.97   12.64  0. 1.0000     0. 
   1   2   7    126.92   14.45  0. 1.0000     0. 
   2   1  -7    155.58   13.10  0. 1.0000     0. 
  -1   2  -7    134.67   17.59  0. 1.0000     0. 
   1  -2  -7    132.01   13.38  0. 1.0000     0. 
  -1   2  -7    144.92   13.18  0. 1.0000     0. 
   1  -2  -7    153.66   13.56  0. 1.0000     0. 
   1  -2  -7    135.17   18.34  0. 1.0000     0. 
  -1  -2   7    131.97   14.08  0. 1.0000     0. 
  -2   1   7    150.06   14.86  0. 1.0000     0. 
  -2   1   7    120.40   11.63  0. 1.0000     0. 
   2   1  -7    138.04   16.84  0. 1.0000     0. 
   1   2   7    131.99   12.74  0. 1.0000     0. 
   2  -1   7    139.45   14.54  0. 1.0000     0. 
   2  -2  -7     99.92   10.77  0. 1.0000     0. 
   2   2  -7     79.11   11.59  0. 1.0000     0. 
  -2   2   7     75.15    7.47  0. 1.0000     0. 
   2   2  -7     81.15   15.02  0. 1.0000     0. 
   2   2   7    102.27   13.98  0. 1.0000     0. 
  -2  -2   7     90.78    7.32  0. 1.0000     0. 
  -2  -2   7     98.02    7.45  0. 1.0000     0. 
   2   2   7    108.04   11.10  0. 1.0000     0. 
  -2  -2   7     77.76    7.46  0. 1.0000     0. 
   2  -2  -7     95.64   16.08  0. 1.0000     0. 
  -2   2  -7     83.31   11.28  0. 1.0000     0. 
  -2   2   7    102.76   13.13  0. 1.0000     0. 
  -2   2   7     75.36   11.40  0. 1.0000     0. 
   2  -2  -7     75.84   11.28  0. 1.0000     0. 
   2  -2   7    105.91   13.34  0. 1.0000     0. 
  -2  -2   7     83.51   13.36  0. 1.0000     0. 
  -2   2  -7     68.12   10.91  0. 1.0000     0. 
   2  -2   7     93.28    7.50  0. 1.0000     0. 
   0  -3   7     82.16    7.91  0. 1.0000     0. 
   0  -3  -7    126.68   17.68  0. 1.0000     0. 
   0   3  -7    124.21   11.55  0. 1.0000     0. 
   0   3   7     80.73    7.81  0. 1.0000     0. 
   0   3   7    105.32   10.50  0. 1.0000     0. 
   0   3   7    126.04   13.30  0. 1.0000     0. 
  -3   0   7     88.14    8.25  0. 1.0000     0. 
   0   3   7    129.54   13.67  0. 1.0000     0. 
  -3   0   7    108.68    9.31  0. 1.0000     0. 
  -3   0   7    121.40   14.52  0. 1.0000     0. 
  -3  -1   7     88.37   14.79  0. 1.0000     0. 
  -3  -1   7     80.99    7.74  0. 1.0000     0. 
  -1  -3  -7    112.04   10.59  0. 1.0000     0. 
  -1   3   7    108.70   14.45  0. 1.0000     0. 
  -1  -3  -7    102.32   14.93  0. 1.0000     0. 
  -1  -3  -7     96.36   11.51  0. 1.0000     0. 
   3   1   7     92.48   13.42  0. 1.0000     0. 
   1  -3   7     95.35   12.09  0. 1.0000     0. 
   1   3  -7    105.15   10.59  0. 1.0000     0. 
   1   3  -7    115.44   14.41  0. 1.0000     0. 
  -1   3   7     92.92   10.72  0. 1.0000     0. 
  -1   3   7     72.16    7.33  0. 1.0000     0. 
  -1   3   7     85.69   10.45  0. 1.0000     0. 
   1  -3   7     73.80    7.29  0. 1.0000     0. 
  -1  -3   7     93.73   12.22  0. 1.0000     0. 
   1   3   7     74.51    7.21  0. 1.0000     0. 
   1  -3  -7     97.77    9.85  0. 1.0000     0. 
  -3   1   7     89.46   11.24  0. 1.0000     0. 
  -3   1   7     79.59    7.74  0. 1.0000     0. 
   1  -3  -7    105.07   17.22  0. 1.0000     0. 
  -1   3  -7     92.54   10.96  0. 1.0000     0. 
   1  -3  -7     92.46   10.72  0. 1.0000     0. 
  -1  -3   7     95.82    7.81  0. 1.0000     0. 
  -3   1   7     78.36    9.36  0. 1.0000     0. 
   1   3   7     94.83   10.96  0. 1.0000     0. 
  -3   1   7     84.92   12.96  0. 1.0000     0. 
   1   3   7     98.15   12.81  0. 1.0000     0. 
   1  -3  -7    104.31   12.52  0. 1.0000     0. 
  -1   3  -7     92.59   14.75  0. 1.0000     0. 
  -2   3   7     69.72    6.53  0. 1.0000     0. 
   2   3  -7     67.67   10.05  0. 1.0000     0. 
   3   2   7     62.17    9.35  0. 1.0000     0. 
   2  -3   7     70.99    9.15  0. 1.0000     0. 
  -2   3   7     64.30    9.11  0. 1.0000     0. 
  -2   3   7     68.50   10.56  0. 1.0000     0. 
   2  -3   7     72.14    6.16  0. 1.0000     0. 
  -3  -2   7     62.44   10.23  0. 1.0000     0. 
  -2   3   7     84.30   11.13  0. 1.0000     0. 
   3  -2   7     68.08   11.89  0. 1.0000     0. 
   2   3   7     70.35    9.60  0. 1.0000     0. 
  -3   2   7     63.53   10.91  0. 1.0000     0. 
   2  -3  -7     76.67    9.82  0. 1.0000     0. 
  -2   3  -7     47.69    8.94  0. 1.0000     0. 
   2  -3  -7     65.13    9.59  0. 1.0000     0. 
   2   3   7     78.90   10.50  0. 1.0000     0. 
  -2   3  -7     68.37    9.53  0. 1.0000     0. 
   2  -3  -7     62.78   10.17  0. 1.0000     0. 
  -2  -3   7     62.61    6.29  0. 1.0000     0. 
  -2  -3   7     75.87   11.43  0. 1.0000     0. 
  -3   2   7     70.92    6.65  0. 1.0000     0. 
  -3   2   7     67.87   11.86  0. 1.0000     0. 
  -3   3   7     68.73   12.57  0. 1.0000     0. 
   3  -3  -7     70.08   10.17  0. 1.0000     0. 
   3   3   7     71.21   12.83  0. 1.0000     0. 
   3  -3   7     78.83   12.56  0. 1.0000     0. 
  -3  -3   7     75.69    7.40  0. 1.0000     0. 
   3  -3  -7     64.92   10.05  0. 1.0000     0. 
  -3   3   7     88.50    7.33  0. 1.0000     0. 
  -3   3   7     78.61   11.04  0. 1.0000     0. 
   0  -4   7     69.17    6.39  0. 1.0000     0. 
   0  -4  -7     84.55   10.79  0. 1.0000     0. 
   0   4   7     68.33    8.37  0. 1.0000     0. 
  -4   0   7     69.34    6.67  0. 1.0000     0. 
   0   4   7     65.17   11.77  0. 1.0000     0. 
   0  -4   7     55.97    8.67  0. 1.0000     0. 
   0   4  -7     49.06    9.43  0. 1.0000     0. 
   0   4   7     62.16    9.75  0. 1.0000     0. 
   0  -4  -7     88.79   11.68  0. 1.0000     0. 
   0  -4  -7     94.86   16.20  0. 1.0000     0. 
   0  -4  -7     81.77   10.36  0. 1.0000     0. 
   0   4  -7     68.22    9.53  0. 1.0000     0. 
  -1   4   7    127.76   15.21  0. 1.0000     0. 
  -1  -4  -7    114.66   13.44  0. 1.0000     0. 
  -1   4   7    107.08   11.79  0. 1.0000     0. 
  -1  -4  -7    117.59   11.62  0. 1.0000     0. 
  -1   4   7     93.47    8.26  0. 1.0000     0. 
   1  -4   7    107.39   12.51  0. 1.0000     0. 
  -1  -4  -7    115.92   15.96  0. 1.0000     0. 
   1  -4   7     76.70    8.03  0. 1.0000     0. 
   1  -4  -7    120.02   11.52  0. 1.0000     0. 
   1  -4  -7    117.03   11.54  0. 1.0000     0. 
   1   4   7    127.59   13.03  0. 1.0000     0. 
   1   4   7    114.72   13.41  0. 1.0000     0. 
  -1  -4   7     95.36    8.46  0. 1.0000     0. 
   1   4   7    107.69   12.72  0. 1.0000     0. 
   1   4   7     97.42    8.54  0. 1.0000     0. 
  -2   4   7     58.42    8.22  0. 1.0000     0. 
  -2   4   7     71.29    6.75  0. 1.0000     0. 
  -4  -2   7     73.66    7.09  0. 1.0000     0. 
   2  -4   7     75.84   12.64  0. 1.0000     0. 
  -2   4   7     86.65   12.69  0. 1.0000     0. 
  -2   4   7     83.56   13.06  0. 1.0000     0. 
   2  -4  -7     85.67   11.15  0. 1.0000     0. 
   2   4   7     69.90    9.99  0. 1.0000     0. 
  -2   4  -7     74.67   14.69  0. 1.0000     0. 
   2  -4  -7     77.98   15.70  0. 1.0000     0. 
  -4   2   7     78.63   11.50  0. 1.0000     0. 
  -2   4  -7     76.26   10.26  0. 1.0000     0. 
   2  -4  -7     67.48   10.36  0. 1.0000     0. 
   4  -2   7     70.74   12.04  0. 1.0000     0. 
  -4   2   7     84.62    7.49  0. 1.0000     0. 
  -2  -4   7     62.75    9.63  0. 1.0000     0. 
   2   4   7     78.64   11.69  0. 1.0000     0. 
  -4  -3   7     71.43    7.00  0. 1.0000     0. 
  -3   4   7     69.35   11.67  0. 1.0000     0. 
  -3   4   7     87.14   12.48  0. 1.0000     0. 
   3  -4   7     68.79    9.42  0. 1.0000     0. 
  -3   4   7     73.65    8.98  0. 1.0000     0. 
   3  -4  -7     63.46    9.98  0. 1.0000     0. 
   3   4   7     63.22    9.59  0. 1.0000     0. 
   3  -4  -7     69.61    8.66  0. 1.0000     0. 
  -4   3   7     76.31    7.02  0. 1.0000     0. 
  -3  -4   7     82.75    7.20  0. 1.0000     0. 
   4  -3   7     58.36    9.05  0. 1.0000     0. 
  -3   4  -7     74.04    9.02  0. 1.0000     0. 
  -3   4  -7     63.32    8.27  0. 1.0000     0. 
  -4   3   7     68.68   11.99  0. 1.0000     0. 
   4  -4   7     74.90   11.34  0. 1.0000     0. 
  -4  -4   7     60.81    6.27  0. 1.0000     0. 
   0   5   7     74.23    8.61  0. 1.0000     0. 
   0   5   7     45.99    8.27  0. 1.0000     0. 
   0  -5  -7     62.29    9.29  0. 1.0000     0. 
   0  -5  -7     63.43   10.44  0. 1.0000     0. 
   0   5  -7     44.56    6.87  0. 1.0000     0. 
   0   5   7     46.02    6.95  0. 1.0000     0. 
   0  -5   7     53.74    7.85  0. 1.0000     0. 
   0  -5  -7     55.40    7.85  0. 1.0000     0. 
   0   5  -7     76.41   13.65  0. 1.0000     0. 
  -1   5   7    184.77   18.06  0. 1.0000     0. 
  -1   5   7    151.43   15.84  0. 1.0000     0. 
   1   5  -7    136.96   17.58  0. 1.0000     0. 
  -1  -5  -7    171.63   18.42  0. 1.0000     0. 
  -1   5   7    162.34   18.07  0. 1.0000     0. 
  -1  -5  -7    155.99   19.67  0. 1.0000     0. 
   1   5  -7    168.47   12.81  0. 1.0000     0. 
   1  -5   7    176.88   16.95  0. 1.0000     0. 
   1   5  -7    165.86   14.42  0. 1.0000     0. 
   1  -5  -7    155.09   19.44  0. 1.0000     0. 
   1  -5  -7    165.24   15.53  0. 1.0000     0. 
   1  -5  -7    168.29   20.18  0. 1.0000     0. 
   1   5   7    164.93   17.28  0. 1.0000     0. 
   1   5   7    137.58   16.40  0. 1.0000     0. 
  -1   5  -7    164.01   19.40  0. 1.0000     0. 
  -1  -5   7    156.63   16.04  0. 1.0000     0. 
  -1   5  -7    158.99   14.64  0. 1.0000     0. 
   1   5   7    164.09   18.06  0. 1.0000     0. 
   1  -5  -7    179.36   14.52  0. 1.0000     0. 
  -2   5   7     95.80   14.04  0. 1.0000     0. 
   2  -5   7    121.38    9.38  0. 1.0000     0. 
   2   5  -7     87.49   10.65  0. 1.0000     0. 
  -2   5   7    106.89    9.15  0. 1.0000     0. 
  -2   5   7    109.29   14.57  0. 1.0000     0. 
  -2   5   7     94.92   14.72  0. 1.0000     0. 
   2  -5   7    113.39   15.02  0. 1.0000     0. 
   2   5  -7    103.93   10.92  0. 1.0000     0. 
   2  -5   7    106.74   10.06  0. 1.0000     0. 
   2   5  -7    130.84   10.05  0. 1.0000     0. 
  -2   5  -7    115.78   12.01  0. 1.0000     0. 
   2  -5  -7     88.69   11.74  0. 1.0000     0. 
   2   5   7     85.50   15.84  0. 1.0000     0. 
  -2   5  -7     86.85   12.14  0. 1.0000     0. 
   2  -5  -7    115.49   13.39  0. 1.0000     0. 
   2   5   7     93.41   15.22  0. 1.0000     0. 
  -2  -5   7    114.46    9.22  0. 1.0000     0. 
   2  -5  -7    102.35   18.23  0. 1.0000     0. 
   2  -5  -7    131.64   17.84  0. 1.0000     0. 
  -2   5  -7     75.12   15.24  0. 1.0000     0. 
  -3   5   7     84.97   13.55  0. 1.0000     0. 
  -3   5   7     89.92    7.85  0. 1.0000     0. 
  -3   5   7     97.30   15.55  0. 1.0000     0. 
  -3   5   7     82.19   13.26  0. 1.0000     0. 
   3  -5   7     72.80   12.96  0. 1.0000     0. 
   3  -5  -7     89.46   13.44  0. 1.0000     0. 
  -3   5  -7    108.10   11.21  0. 1.0000     0. 
  -3   5  -7     86.12   14.86  0. 1.0000     0. 
   3  -5  -7     88.78   10.50  0. 1.0000     0. 
  -3   5  -7     92.08    9.73  0. 1.0000     0. 
  -5   3   7     81.92    7.88  0. 1.0000     0. 
   3   5   7     76.81   14.12  0. 1.0000     0. 
  -4   5   7     60.58    8.84  0. 1.0000     0. 
   4  -5   7     59.57    9.26  0. 1.0000     0. 
  -4  -5   7     69.97    6.90  0. 1.0000     0. 
  -4   5  -7     52.29    9.20  0. 1.0000     0. 
  -4   5  -7     67.61    9.20  0. 1.0000     0. 
  -5   4   7     81.44    7.26  0. 1.0000     0. 
   4  -5  -7     73.93   10.35  0. 1.0000     0. 
  -5   4   7     60.71    8.95  0. 1.0000     0. 
   4  -5  -7     57.34    8.74  0. 1.0000     0. 
  -5   5   7     32.14    7.85  0. 1.0000     0. 
   0   6   7     25.23    7.10  0. 1.0000     0. 
   0   6  -7     16.87    7.39  0. 1.0000     0. 
   0  -6  -7     27.23    8.75  0. 1.0000     0. 
   0   6   7     18.51    7.82  0. 1.0000     0. 
   0  -6  -7     19.53    6.90  0. 1.0000     0. 
   0  -6  -7     19.73    5.74  0. 1.0000     0. 
   0  -6   7     16.60    6.36  0. 1.0000     0. 
   0   6  -7     23.36    5.51  0. 1.0000     0. 
   0  -6  -7     21.15    9.56  0. 1.0000     0. 
   0   6   7     20.62    6.04  0. 1.0000     0. 
   0   6  -7     19.48    3.40  0. 1.0000     0. 
  -1  -6  -7     87.11   17.43  0. 1.0000     0. 
   1  -6   7     88.18    7.54  0. 1.0000     0. 
  -1  -6  -7     92.61   17.49  0. 1.0000     0. 
  -1   6   7     68.64   10.66  0. 1.0000     0. 
   1  -6   7     80.62   12.74  0. 1.0000     0. 
   1   6  -7     89.58    9.28  0. 1.0000     0. 
  -1   6   7     93.21    7.71  0. 1.0000     0. 
  -1   6   7     72.88   13.03  0. 1.0000     0. 
   1   6  -7     83.92   10.40  0. 1.0000     0. 
  -1   6   7     85.45   11.57  0. 1.0000     0. 
   1   6   7     95.28   13.02  0. 1.0000     0. 
  -1   6  -7     93.78   14.75  0. 1.0000     0. 
  -1  -6   7     94.31    7.95  0. 1.0000     0. 
  -1  -6   7     84.88    8.84  0. 1.0000     0. 
  -1   6  -7     87.39   11.11  0. 1.0000     0. 
   1   6   7     90.31   16.46  0. 1.0000     0. 
   1  -6  -7     74.28   10.52  0. 1.0000     0. 
   1  -6  -7     87.57   17.11  0. 1.0000     0. 
   1  -6  -7     84.29   12.50  0. 1.0000     0. 
   1  -6  -7    104.02   13.35  0. 1.0000     0. 
  -1  -6   7     75.98   12.16  0. 1.0000     0. 
   1   6   7     86.47   11.09  0. 1.0000     0. 
   2   6  -7     71.43   10.94  0. 1.0000     0. 
  -2   6   7     84.56   13.59  0. 1.0000     0. 
  -2   6   7     81.42   10.09  0. 1.0000     0. 
   2  -6   7     62.47   11.65  0. 1.0000     0. 
   2   6  -7     79.14    9.04  0. 1.0000     0. 
  -2   6   7     87.01    7.24  0. 1.0000     0. 
   2  -6   7     73.99    8.87  0. 1.0000     0. 
   2  -6  -7     87.74   12.52  0. 1.0000     0. 
   2  -6  -7     67.90    8.27  0. 1.0000     0. 
   2  -6  -7     82.44   11.55  0. 1.0000     0. 
  -2   6  -7     68.24    9.33  0. 1.0000     0. 
   2  -6  -7     72.34    9.56  0. 1.0000     0. 
  -2   6  -7     91.24   10.68  0. 1.0000     0. 
   2   6   7     64.88   10.56  0. 1.0000     0. 
  -2   6  -7     65.50   13.74  0. 1.0000     0. 
  -2  -6   7     89.19    7.41  0. 1.0000     0. 
  -3   6   7     67.78   10.76  0. 1.0000     0. 
  -3   6   7     95.68    7.84  0. 1.0000     0. 
  -3   6   7     74.36   12.80  0. 1.0000     0. 
   3  -6   7     74.55   12.67  0. 1.0000     0. 
   3  -6   7     82.72   10.12  0. 1.0000     0. 
  -3   6  -7     88.97   12.84  0. 1.0000     0. 
   3  -6  -7     81.25   10.04  0. 1.0000     0. 
  -3   6  -7     75.12   14.92  0. 1.0000     0. 
   3  -6  -7     86.07   12.52  0. 1.0000     0. 
   3  -6  -7     67.66   10.59  0. 1.0000     0. 
  -4   6   7     70.43    9.43  0. 1.0000     0. 
   4  -6   7     81.42   12.76  0. 1.0000     0. 
  -4  -6   7     60.74    6.44  0. 1.0000     0. 
   4  -6  -7     64.29    9.68  0. 1.0000     0. 
   5  -6   7     43.58    7.71  0. 1.0000     0. 
  -5   6   7     36.48    8.49  0. 1.0000     0. 
  -6   5   7     48.87    5.73  0. 1.0000     0. 
  -6   6   7     57.21    9.58  0. 1.0000     0. 
   0  -7  -7     39.09   11.43  0. 1.0000     0. 
   0   7  -7     17.82    4.28  0. 1.0000     0. 
   0  -7  -7     24.44    7.86  0. 1.0000     0. 
   0  -7  -7     26.36    9.02  0. 1.0000     0. 
   0   7   7     23.45    7.42  0. 1.0000     0. 
   0  -7   7     27.39    6.57  0. 1.0000     0. 
   0   7  -7     27.42    5.87  0. 1.0000     0. 
   0   7  -7     31.19    8.19  0. 1.0000     0. 
   0   7   7     29.52    9.63  0. 1.0000     0. 
   0   7   7     23.33    6.91  0. 1.0000     0. 
  -1   7   7     77.12   13.85  0. 1.0000     0. 
  -1  -7  -7    112.38   20.68  0. 1.0000     0. 
   1   7  -7     71.63   10.75  0. 1.0000     0. 
   1  -7   7     95.00    7.55  0. 1.0000     0. 
  -1  -7  -7    106.25   18.90  0. 1.0000     0. 
   1  -7   7     66.79   11.89  0. 1.0000     0. 
  -1   7   7     93.26    7.47  0. 1.0000     0. 
   1   7  -7     74.35    9.89  0. 1.0000     0. 
  -1   7   7     89.64   12.86  0. 1.0000     0. 
   1   7   7     74.80   13.11  0. 1.0000     0. 
   1  -7  -7     88.44   12.84  0. 1.0000     0. 
   1   7   7     77.04   12.21  0. 1.0000     0. 
  -1  -7   7     75.00   13.80  0. 1.0000     0. 
   1  -7  -7     75.29   14.05  0. 1.0000     0. 
   1   7   7     71.12   11.85  0. 1.0000     0. 
   1  -7  -7     71.69    8.74  0. 1.0000     0. 
  -1   7  -7     80.59   14.81  0. 1.0000     0. 
  -1  -7   7     88.02    7.68  0. 1.0000     0. 
   1  -7  -7     74.59   10.66  0. 1.0000     0. 
  -1   7  -7     66.84   10.76  0. 1.0000     0. 
  -2   7   7    119.14   17.10  0. 1.0000     0. 
   2   7  -7     61.55    9.35  0. 1.0000     0. 
   2  -7   7     77.05   13.91  0. 1.0000     0. 
  -2   7   7    100.91   14.81  0. 1.0000     0. 
  -2   7   7    109.79   17.23  0. 1.0000     0. 
   2   7  -7     69.15    8.81  0. 1.0000     0. 
   2  -7  -7     59.37    8.62  0. 1.0000     0. 
   2  -7  -7     70.46   12.09  0. 1.0000     0. 
   2   7   7     46.60   10.63  0. 1.0000     0. 
  -2   7  -7     93.98   16.79  0. 1.0000     0. 
  -2   7  -7     84.19   11.77  0. 1.0000     0. 
   2   7   7     65.03   11.25  0. 1.0000     0. 
   2  -7  -7     74.17   10.63  0. 1.0000     0. 
   2  -7  -7     83.93   14.97  0. 1.0000     0. 
   3  -7   7     56.06    7.86  0. 1.0000     0. 
  -3   7   7     57.96    9.52  0. 1.0000     0. 
  -3   7   7     79.17   13.57  0. 1.0000     0. 
  -3   7   7     74.42   10.60  0. 1.0000     0. 
   3   7  -7     58.12    8.99  0. 1.0000     0. 
   3   7   7     36.96    8.75  0. 1.0000     0. 
  -3   7  -7     73.45   12.09  0. 1.0000     0. 
   3  -7  -7     58.84    9.36  0. 1.0000     0. 
  -3   7  -7     37.67    8.20  0. 1.0000     0. 
   3  -7  -7     61.94    9.16  0. 1.0000     0. 
   3   7   7     40.61    7.71  0. 1.0000     0. 
  -4   7   7     36.05    8.46  0. 1.0000     0. 
   4  -7   7     52.91    8.28  0. 1.0000     0. 
  -4   7   7     80.86   11.60  0. 1.0000     0. 
  -4  -7   7     51.05    5.79  0. 1.0000     0. 
   4  -7  -7     46.31    6.91  0. 1.0000     0. 
  -4   7  -7     52.60    9.14  0. 1.0000     0. 
  -4   7  -7     56.95    7.65  0. 1.0000     0. 
   4  -7  -7     50.18    9.12  0. 1.0000     0. 
   5  -7   7     22.22    7.40  0. 1.0000     0. 
  -5   7   7     22.40    7.62  0. 1.0000     0. 
   5  -7  -7     21.59    7.65  0. 1.0000     0. 
   5  -7  -7     25.86    6.14  0. 1.0000     0. 
  -5   7  -7     21.84    5.78  0. 1.0000     0. 
  -6   7   7     39.72    9.27  0. 1.0000     0. 
  -7   7   7     21.95    4.61  0. 1.0000     0. 
   0   8  -7     31.18    6.48  0. 1.0000     0. 
   0  -8  -7     27.67   12.52  0. 1.0000     0. 
   0   8  -7     22.94    4.75  0. 1.0000     0. 
   0   8   7     27.85    7.76  0. 1.0000     0. 
   0   8   7     31.43   11.84  0. 1.0000     0. 
   0  -8  -7     30.48   10.23  0. 1.0000     0. 
   0  -8   7     27.86    6.85  0. 1.0000     0. 
   0   8   7     25.71    8.22  0. 1.0000     0. 
   1   8  -7     57.73    9.37  0. 1.0000     0. 
   1  -8   7     62.86   11.14  0. 1.0000     0. 
  -1   8   7     55.78    9.09  0. 1.0000     0. 
  -1   8   7     77.90   13.38  0. 1.0000     0. 
  -1  -8  -7     40.08   11.33  0. 1.0000     0. 
  -1  -8  -7     52.78   13.39  0. 1.0000     0. 
  -1   8   7     46.89    8.53  0. 1.0000     0. 
   1   8  -7     46.31    7.53  0. 1.0000     0. 
  -1   8  -7     44.95    9.41  0. 1.0000     0. 
   1  -8  -7     54.04    7.38  0. 1.0000     0. 
   1  -8  -7     74.01   11.68  0. 1.0000     0. 
   1  -8  -7     77.43   14.33  0. 1.0000     0. 
  -1   8  -7     56.90    8.32  0. 1.0000     0. 
   1   8   7     67.48   12.58  0. 1.0000     0. 
   1   8   7     60.43    9.00  0. 1.0000     0. 
   1  -8  -7     70.28   10.08  0. 1.0000     0. 
  -1   8  -7     56.31    7.28  0. 1.0000     0. 
   1   8   7     42.84   12.40  0. 1.0000     0. 
  -2  -8  -7     86.62   14.40  0. 1.0000     0. 
   2   8  -7     62.13    8.15  0. 1.0000     0. 
   2   8  -7     54.41    9.53  0. 1.0000     0. 
  -2   8   7     62.47   10.41  0. 1.0000     0. 
  -2   8   7    118.04   17.91  0. 1.0000     0. 
  -2   8   7     72.86    9.63  0. 1.0000     0. 
   2  -8   7     67.58    9.03  0. 1.0000     0. 
   2  -8  -7     61.90   10.04  0. 1.0000     0. 
   2   8   7     62.15    9.58  0. 1.0000     0. 
   2   8   7     63.82   10.95  0. 1.0000     0. 
  -2   8  -7     53.27    9.66  0. 1.0000     0. 
   2  -8  -7     64.53   10.93  0. 1.0000     0. 
   2  -8  -7     65.11    7.90  0. 1.0000     0. 
  -2   8  -7     69.68   11.59  0. 1.0000     0. 
   3  -8   7     46.34    7.87  0. 1.0000     0. 
   3   8  -7     61.40    9.87  0. 1.0000     0. 
  -3   8   7     59.26   10.83  0. 1.0000     0. 
  -3   8   7     74.69   11.03  0. 1.0000     0. 
  -3   8   7     62.74   10.02  0. 1.0000     0. 
   3  -8  -7     84.17   15.29  0. 1.0000     0. 
   3  -8  -7     57.49   10.10  0. 1.0000     0. 
  -3   8  -7     63.33    8.50  0. 1.0000     0. 
   3   8   7     39.08    8.85  0. 1.0000     0. 
  -3   8  -7     48.04    9.23  0. 1.0000     0. 
   3  -8  -7     50.35    7.05  0. 1.0000     0. 
   4  -8   7     39.24    8.14  0. 1.0000     0. 
  -4   8   7     52.10   11.04  0. 1.0000     0. 
  -4   8   7     45.09   10.02  0. 1.0000     0. 
  -4   8  -7     43.43    8.28  0. 1.0000     0. 
   4  -8  -7     34.89    8.86  0. 1.0000     0. 
  -4  -8   7     61.68    6.47  0. 1.0000     0. 
  -4   8  -7     43.21    9.34  0. 1.0000     0. 
   4  -8  -7     44.07    7.08  0. 1.0000     0. 
   5  -8   7     32.83    7.80  0. 1.0000     0. 
  -5   8   7     22.57    8.92  0. 1.0000     0. 
   5  -8  -7     20.61    5.98  0. 1.0000     0. 
  -5   8  -7     30.35    6.86  0. 1.0000     0. 
   5  -8  -7     24.78    8.64  0. 1.0000     0. 
   0   9   7     58.67   11.10  0. 1.0000     0. 
   0   9   7     73.74   15.76  0. 1.0000     0. 
   0   9   7     36.22    9.08  0. 1.0000     0. 
   0  -9  -7     56.95   11.53  0. 1.0000     0. 
   0  -9  -7     76.51   15.34  0. 1.0000     0. 
   0   9  -7     40.27    6.05  0. 1.0000     0. 
   0   9  -7     60.83    8.17  0. 1.0000     0. 
   1   9  -7     38.01    6.79  0. 1.0000     0. 
  -1   9   7     34.56    9.13  0. 1.0000     0. 
  -1   9   7     58.90   14.05  0. 1.0000     0. 
  -1   9   7     39.22    8.19  0. 1.0000     0. 
  -1  -9  -7     49.26    9.83  0. 1.0000     0. 
   1   9  -7     38.16    6.19  0. 1.0000     0. 
   1  -9  -7     49.54    9.21  0. 1.0000     0. 
   1  -9  -7     46.48    9.87  0. 1.0000     0. 
   1  -9  -7     55.08   14.29  0. 1.0000     0. 
   1   9   7     43.89   13.52  0. 1.0000     0. 
   1   9   7     64.73   14.99  0. 1.0000     0. 
   1   9   7     46.07    8.47  0. 1.0000     0. 
  -2  -9  -7     64.93   14.00  0. 1.0000     0. 
  -2  -9  -7     46.20   11.04  0. 1.0000     0. 
   2   9  -7     49.10    7.40  0. 1.0000     0. 
   2   9  -7     43.07    6.66  0. 1.0000     0. 
   2  -9   7     41.89    7.43  0. 1.0000     0. 
   2   9   7     60.57   11.32  0. 1.0000     0. 
  -2   9  -7     50.30   10.14  0. 1.0000     0. 
   2   9   7     47.05    9.09  0. 1.0000     0. 
  -2   9  -7     51.31    7.68  0. 1.0000     0. 
   3   9  -7     34.70    6.27  0. 1.0000     0. 
   3  -9   7     31.25    7.33  0. 1.0000     0. 
  -3   9   7     54.37   10.09  0. 1.0000     0. 
  -3   9   7     52.39   11.03  0. 1.0000     0. 
  -3   9   7     38.66   10.00  0. 1.0000     0. 
   3  -9  -7     47.08    9.95  0. 1.0000     0. 
   3  -9  -7     62.41   15.60  0. 1.0000     0. 
  -3   9  -7     42.73    7.88  0. 1.0000     0. 
   3   9   7     11.32    8.47  0. 1.0000     0. 
   3  -9  -7     34.14    6.75  0. 1.0000     0. 
   4  -9   7     23.33    7.25  0. 1.0000     0. 
  -4   9   7     15.38   10.64  0. 1.0000     0. 
  -4   9   7     19.47   11.78  0. 1.0000     0. 
  -4   9  -7     25.57    8.18  0. 1.0000     0. 
   4  -9  -7     20.44    9.76  0. 1.0000     0. 
   4  -9  -7     28.18    6.23  0. 1.0000     0. 
  -5   9   7     10.26    9.25  0. 1.0000     0. 
  -5   9   7      6.82   11.58  0. 1.0000     0. 
   5  -9   7     10.77    6.27  0. 1.0000     0. 
   5  -9  -7      9.10    8.20  0. 1.0000     0. 
  -9   5   7      4.66    1.33  0. 1.0000     0. 
   5  -9  -7     13.57    5.61  0. 1.0000     0. 
  -5   9  -7      9.58    7.58  0. 1.0000     0. 
  -6   9   7      9.58    9.01  0. 1.0000     0. 
   6  -9   7      4.44    6.63  0. 1.0000     0. 
  -6   9  -7      7.72   12.63  0. 1.0000     0. 
   6  -9  -7      8.78    5.69  0. 1.0000     0. 
   6  -9  -7     13.53    8.57  0. 1.0000     0. 
   0  10   7     23.56   12.30  0. 1.0000     0. 
   0  10   7     16.33   12.03  0. 1.0000     0. 
   0 -10  -7     -7.80   14.89  0. 1.0000     0. 
   0 -10  -7      4.83   10.09  0. 1.0000     0. 
  -1  10   7     12.01   10.23  0. 1.0000     0. 
  -1  10   7     15.74   13.92  0. 1.0000     0. 
  -1 -10  -7     27.85    8.82  0. 1.0000     0. 
   1 -10   7     14.51    6.77  0. 1.0000     0. 
  -1 -10  -7     12.91   14.31  0. 1.0000     0. 
   1 -10  -7     12.33    9.05  0. 1.0000     0. 
   1 -10  -7     11.67    8.92  0. 1.0000     0. 
   1  10   7     56.14   17.56  0. 1.0000     0. 
   1 -10  -7      8.68   14.16  0. 1.0000     0. 
  -2 -10  -7     17.45    9.66  0. 1.0000     0. 
  -2  10   7     37.16    9.99  0. 1.0000     0. 
  -2  10   7     33.46   10.21  0. 1.0000     0. 
  -2 -10  -7     10.60   13.71  0. 1.0000     0. 
   2  10   7     49.30   13.26  0. 1.0000     0. 
   2  10   7     20.77    7.79  0. 1.0000     0. 
   2 -10  -7     32.37    6.34  0. 1.0000     0. 
   2 -10  -7     26.84    9.28  0. 1.0000     0. 
   2 -10  -7     51.48   15.81  0. 1.0000     0. 
  -3  10   7     11.89    9.06  0. 1.0000     0. 
  -3  10   7     26.97   10.39  0. 1.0000     0. 
   3 -10  -7     27.58    9.31  0. 1.0000     0. 
   3 -10  -7     44.23   14.78  0. 1.0000     0. 
   3 -10  -7     14.18    5.49  0. 1.0000     0. 
  -4  10   7     23.11   11.76  0. 1.0000     0. 
  -4  10   7     40.05   12.33  0. 1.0000     0. 
   4 -10  -7     19.45    9.27  0. 1.0000     0. 
   4 -10  -7     22.25    5.90  0. 1.0000     0. 
   4 -10  -7     26.20   13.24  0. 1.0000     0. 
   0   0   8    398.64   31.22  0. 1.0000     0. 
   0   0  -8    396.19   34.71  0. 1.0000     0. 
   0   0  -8    388.88   29.52  0. 1.0000     0. 
  -1   1   8     76.64    7.14  0. 1.0000     0. 
   1   1   8     80.19    6.98  0. 1.0000     0. 
   1  -1   8     71.70    6.73  0. 1.0000     0. 
   0   2   8     75.24    6.82  0. 1.0000     0. 
   0  -2   8     74.56    6.80  0. 1.0000     0. 
  -1   2   8     77.21    7.17  0. 1.0000     0. 
   1  -2   8     78.71    7.01  0. 1.0000     0. 
  -2  -1   8     74.91    7.16  0. 1.0000     0. 
  -2   1   8     79.63    7.34  0. 1.0000     0. 
   1   2   8     82.17    7.09  0. 1.0000     0. 
  -1  -2   8     77.18    7.20  0. 1.0000     0. 
   2   2  -8     -0.48    8.06  0. 1.0000     0. 
   2  -2  -8      6.15    4.99  0. 1.0000     0. 
   2   2  -8      2.68    5.25  0. 1.0000     0. 
   2  -2  -8     -1.20    8.03  0. 1.0000     0. 
  -2   2   8      4.09    6.84  0. 1.0000     0. 
  -2  -2   8      1.02    6.64  0. 1.0000     0. 
  -2  -2  -8      5.32    8.39  0. 1.0000     0. 
  -2   2  -8      1.17    5.44  0. 1.0000     0. 
   2  -2  -8      2.20    5.62  0. 1.0000     0. 
  -2   2  -8      6.48    7.94  0. 1.0000     0. 
   2   2   8      4.57    7.65  0. 1.0000     0. 
   0  -3   8     97.77    8.24  0. 1.0000     0. 
   0   3   8    105.04    8.39  0. 1.0000     0. 
  -3   0   8     80.95    8.30  0. 1.0000     0. 
  -3  -1   8     85.90    7.83  0. 1.0000     0. 
  -1   3   8     81.36    7.40  0. 1.0000     0. 
   1   3   8     87.52    7.39  0. 1.0000     0. 
  -1  -3   8     85.62    7.58  0. 1.0000     0. 
  -3   1   8     72.29    7.40  0. 1.0000     0. 
  -3   3  -8      8.49    8.17  0. 1.0000     0. 
  -3   3   8      1.32    6.53  0. 1.0000     0. 
   3   3   8     -6.23    4.62  0. 1.0000     0. 
   3  -3  -8      6.88    5.26  0. 1.0000     0. 
  -3   3   8     -2.14    4.79  0. 1.0000     0. 
  -3  -3   8      0.63    8.20  0. 1.0000     0. 
   3  -3  -8      2.14    5.42  0. 1.0000     0. 
   3   3   8      3.06    7.06  0. 1.0000     0. 
   0  -4  -8     -1.05    5.95  0. 1.0000     0. 
   0   4   8      7.07    6.42  0. 1.0000     0. 
   4   0   8      3.32    6.64  0. 1.0000     0. 
   0   4   8      1.98    6.96  0. 1.0000     0. 
   0  -4  -8     -6.20    9.81  0. 1.0000     0. 
  -1   4   8     97.12    8.30  0. 1.0000     0. 
  -4  -1   8     89.28    8.67  0. 1.0000     0. 
   1  -4   8    101.62    8.31  0. 1.0000     0. 
  -1  -4   8     79.73    8.12  0. 1.0000     0. 
  -4   1   8    107.20    8.93  0. 1.0000     0. 
   2  -4   8     11.84    7.20  0. 1.0000     0. 
  -2   4   8      3.71    5.45  0. 1.0000     0. 
  -2   4   8      8.75    6.48  0. 1.0000     0. 
  -2   4   8      5.89    7.07  0. 1.0000     0. 
   2   4  -8     -0.60    5.88  0. 1.0000     0. 
  -2   4  -8      4.49    7.32  0. 1.0000     0. 
   2   4   8     10.31    7.62  0. 1.0000     0. 
   2  -4  -8      5.23    5.33  0. 1.0000     0. 
   2   4   8      9.63    6.18  0. 1.0000     0. 
  -4   2   8      9.96    5.59  0. 1.0000     0. 
   2  -4  -8     12.96    5.62  0. 1.0000     0. 
   2  -4  -8      7.62    8.97  0. 1.0000     0. 
   2  -4  -8      7.70    7.38  0. 1.0000     0. 
   4  -2   8      8.80    7.08  0. 1.0000     0. 
  -2   4  -8     14.74    5.83  0. 1.0000     0. 
  -2  -4   8      8.76    6.81  0. 1.0000     0. 
  -4   2   8      2.96    9.37  0. 1.0000     0. 
  -3   4   8     13.40    5.88  0. 1.0000     0. 
  -3   4   8     20.73    7.26  0. 1.0000     0. 
   3  -4  -8     19.86    6.28  0. 1.0000     0. 
   3  -4  -8      6.10    5.54  0. 1.0000     0. 
   3   4   8     10.54    7.68  0. 1.0000     0. 
   4  -3   8     15.14    7.50  0. 1.0000     0. 
  -4   3   8     14.46    5.46  0. 1.0000     0. 
  -4   3   8      9.05    9.60  0. 1.0000     0. 
   3   4   8      9.65    5.55  0. 1.0000     0. 
   4  -4   8     15.89    7.89  0. 1.0000     0. 
  -4   4   8     35.38   10.22  0. 1.0000     0. 
  -4   4   8     17.29    6.09  0. 1.0000     0. 
   4  -4  -8     26.58    6.44  0. 1.0000     0. 
   4  -4  -8     16.06    5.99  0. 1.0000     0. 
   0   5  -8     12.01    5.89  0. 1.0000     0. 
   0   5   8     18.88    7.68  0. 1.0000     0. 
   0   5  -8     20.30    8.15  0. 1.0000     0. 
   0  -5  -8     22.95   10.67  0. 1.0000     0. 
   0   5   8     10.22    5.66  0. 1.0000     0. 
   0  -5   8     15.45    7.09  0. 1.0000     0. 
   0  -5  -8      2.49   11.08  0. 1.0000     0. 
   0  -5  -8     19.76    6.15  0. 1.0000     0. 
   0   5   8     13.42    7.62  0. 1.0000     0. 
  -1   5   8     91.98   12.28  0. 1.0000     0. 
   1   5  -8     82.49   16.49  0. 1.0000     0. 
  -1  -5  -8     89.22   16.38  0. 1.0000     0. 
   1  -5   8    104.20    8.35  0. 1.0000     0. 
   1  -5   8     82.63   14.58  0. 1.0000     0. 
  -1  -5  -8     95.96   18.18  0. 1.0000     0. 
   1   5  -8     86.43   12.11  0. 1.0000     0. 
  -1   5   8    103.94   16.22  0. 1.0000     0. 
  -1   5   8     81.05    8.06  0. 1.0000     0. 
  -1   5  -8     82.55   17.19  0. 1.0000     0. 
   1  -5  -8    128.22   14.45  0. 1.0000     0. 
   1  -5  -8     98.25   13.90  0. 1.0000     0. 
  -1   5  -8     89.25   12.53  0. 1.0000     0. 
   1  -5  -8     98.52   12.70  0. 1.0000     0. 
  -5   1   8    103.04    9.14  0. 1.0000     0. 
  -1  -5   8     84.72   13.92  0. 1.0000     0. 
   1  -5  -8     82.01   12.56  0. 1.0000     0. 
   1   5   8     93.94   11.44  0. 1.0000     0. 
  -1  -5   8    104.04    8.58  0. 1.0000     0. 
  -5  -2   8     40.83    4.99  0. 1.0000     0. 
  -2   5   8     34.74    8.54  0. 1.0000     0. 
   2  -5   8     19.78    7.49  0. 1.0000     0. 
  -2   5   8     23.95    7.32  0. 1.0000     0. 
   2   5  -8     25.88    6.97  0. 1.0000     0. 
  -2   5   8     22.32    6.86  0. 1.0000     0. 
   2   5   8     25.68    7.74  0. 1.0000     0. 
  -2  -5   8     30.42    8.94  0. 1.0000     0. 
   2  -5  -8     31.46   10.53  0. 1.0000     0. 
   2  -5  -8     26.14    7.08  0. 1.0000     0. 
   2  -5  -8     18.22    6.18  0. 1.0000     0. 
  -2   5  -8     34.15    6.85  0. 1.0000     0. 
   2   5   8     31.62    9.05  0. 1.0000     0. 
  -2   5  -8     18.28    7.92  0. 1.0000     0. 
   2  -5  -8     37.17   10.22  0. 1.0000     0. 
   3  -5   8     14.82    8.15  0. 1.0000     0. 
  -3   5   8     16.38    8.58  0. 1.0000     0. 
  -5  -3   8     29.18    4.39  0. 1.0000     0. 
  -3   5   8     27.72    8.49  0. 1.0000     0. 
  -3   5  -8     15.17    8.77  0. 1.0000     0. 
   3  -5  -8     29.20    7.58  0. 1.0000     0. 
   3  -5  -8     12.79    8.67  0. 1.0000     0. 
  -3   5  -8     29.43    5.77  0. 1.0000     0. 
   4  -5   8      8.30    7.35  0. 1.0000     0. 
  -4   5   8      7.76    6.25  0. 1.0000     0. 
  -4   5   8     14.62   10.04  0. 1.0000     0. 
  -5  -4   8     20.54    3.89  0. 1.0000     0. 
   4  -5  -8      8.72    6.52  0. 1.0000     0. 
   4  -5  -8     12.28    5.76  0. 1.0000     0. 
  -5  -5   8     17.97    3.75  0. 1.0000     0. 
  -5   5   8      0.49    6.35  0. 1.0000     0. 
  -6   0   8      4.76    2.53  0. 1.0000     0. 
   0  -6   8      6.07    7.09  0. 1.0000     0. 
   0   6  -8     -3.76    6.00  0. 1.0000     0. 
   0   6  -8     -2.51    8.08  0. 1.0000     0. 
   0  -6  -8     -0.23    6.86  0. 1.0000     0. 
   0   6   8      3.01    8.21  0. 1.0000     0. 
   0   6   8    -10.43    6.71  0. 1.0000     0. 
   1   6  -8     26.38    6.56  0. 1.0000     0. 
   1  -6   8     22.30    7.52  0. 1.0000     0. 
  -1  -6  -8     13.07   12.46  0. 1.0000     0. 
  -1  -6  -8    -13.55   12.04  0. 1.0000     0. 
  -1   6  -8     16.83    6.67  0. 1.0000     0. 
  -1   6  -8     18.17    8.71  0. 1.0000     0. 
   1   6   8     13.35    7.78  0. 1.0000     0. 
   1   6   8      0.63    8.07  0. 1.0000     0. 
  -6   1   8     13.21    3.58  0. 1.0000     0. 
  -1  -6   8     11.07    6.96  0. 1.0000     0. 
   1   6   8      2.80    9.25  0. 1.0000     0. 
  -2   6   8      5.25    7.81  0. 1.0000     0. 
  -2  -6  -8     16.46   10.94  0. 1.0000     0. 
   2  -6   8      4.49    7.26  0. 1.0000     0. 
  -2   6   8     10.15    6.66  0. 1.0000     0. 
   2   6  -8     11.89    6.14  0. 1.0000     0. 
   2   6  -8     13.66    3.78  0. 1.0000     0. 
  -2   6   8      9.02    7.41  0. 1.0000     0. 
   2  -6  -8      9.00   10.65  0. 1.0000     0. 
  -2   6  -8     15.31    8.51  0. 1.0000     0. 
  -6   2   8     21.77    3.90  0. 1.0000     0. 
   2  -6  -8     10.43    6.94  0. 1.0000     0. 
   2   6   8     16.36    8.46  0. 1.0000     0. 
   2   6   8     12.33    7.67  0. 1.0000     0. 
  -2   6  -8      5.60    6.16  0. 1.0000     0. 
   2  -6  -8      7.56    5.85  0. 1.0000     0. 
   2  -6  -8     11.17    9.94  0. 1.0000     0. 
  -3   6   8     12.17    9.19  0. 1.0000     0. 
   3  -6   8     17.23    7.53  0. 1.0000     0. 
  -3   6   8     23.43    8.15  0. 1.0000     0. 
   3  -6  -8     15.97    7.69  0. 1.0000     0. 
   3   6   8     17.67    6.89  0. 1.0000     0. 
   3  -6  -8     13.16    6.04  0. 1.0000     0. 
   3   6   8     15.93    8.63  0. 1.0000     0. 
  -6   3   8     34.58    4.80  0. 1.0000     0. 
  -6   4   8     45.74    5.76  0. 1.0000     0. 
  -5   6   8      0.01    6.73  0. 1.0000     0. 
   5  -6   8     -2.76    7.36  0. 1.0000     0. 
   5  -6  -8     -2.09    5.77  0. 1.0000     0. 
   5  -6  -8     -0.64    6.75  0. 1.0000     0. 
  -5  -6   8     16.50    3.84  0. 1.0000     0. 
   0   7   8     -2.65    6.97  0. 1.0000     0. 
   0   7   8     -6.16    7.67  0. 1.0000     0. 
   0  -7  -8      0.09   11.73  0. 1.0000     0. 
   0  -7  -8      7.60   11.68  0. 1.0000     0. 
   0   7  -8     -1.31    5.90  0. 1.0000     0. 
   0  -7   8     -4.65    6.54  0. 1.0000     0. 
   0   7  -8      3.38    7.88  0. 1.0000     0. 
   0   7   8      8.47    9.62  0. 1.0000     0. 
  -1   7   8      5.89    7.85  0. 1.0000     0. 
   1   7  -8     11.82    5.89  0. 1.0000     0. 
   1  -7   8     14.71    7.32  0. 1.0000     0. 
  -1   7   8     10.09   10.97  0. 1.0000     0. 
  -1  -7  -8     12.47   12.48  0. 1.0000     0. 
  -1   7   8      6.42    6.40  0. 1.0000     0. 
  -1  -7  -8      8.58   10.83  0. 1.0000     0. 
   1  -7  -8     12.32   10.88  0. 1.0000     0. 
  -1   7  -8     12.77    6.15  0. 1.0000     0. 
   1   7   8      0.65    7.39  0. 1.0000     0. 
   1  -7  -8      7.59    6.78  0. 1.0000     0. 
   1  -7  -8     17.50   10.88  0. 1.0000     0. 
   1  -7  -8     11.51    6.28  0. 1.0000     0. 
   1   7   8      6.73    8.63  0. 1.0000     0. 
  -1  -7   8      7.07    7.39  0. 1.0000     0. 
   1   7   8      9.88    9.93  0. 1.0000     0. 
  -1   7  -8      8.90    8.38  0. 1.0000     0. 
  -2   7   8     -1.28    7.85  0. 1.0000     0. 
  -2  -7  -8      7.60   11.25  0. 1.0000     0. 
  -2   7   8      3.87    7.43  0. 1.0000     0. 
  -2   7   8     13.26    7.11  0. 1.0000     0. 
   2  -7   8      3.44    7.46  0. 1.0000     0. 
   2   7  -8     11.51    5.99  0. 1.0000     0. 
  -2  -7  -8     -5.00   10.80  0. 1.0000     0. 
   2   7   8     11.05    8.46  0. 1.0000     0. 
   2  -7  -8     -1.27    7.04  0. 1.0000     0. 
  -2   7  -8      7.80    9.10  0. 1.0000     0. 
  -2   7  -8     11.64    6.58  0. 1.0000     0. 
   2  -7  -8     14.26   11.78  0. 1.0000     0. 
   2   7   8     -2.35    8.08  0. 1.0000     0. 
   2  -7  -8     -0.06    6.03  0. 1.0000     0. 
   2  -7  -8      5.00   10.08  0. 1.0000     0. 
  -3   7   8     18.48    9.13  0. 1.0000     0. 
  -3   7   8      4.29    7.29  0. 1.0000     0. 
   3  -7   8      2.09    6.63  0. 1.0000     0. 
   3  -7  -8      1.74    7.36  0. 1.0000     0. 
   3  -7  -8      3.01    5.60  0. 1.0000     0. 
  -3   7  -8      7.75    7.12  0. 1.0000     0. 
   3  -7  -8     -1.28   11.61  0. 1.0000     0. 
   3   7   8      3.06    7.68  0. 1.0000     0. 
   3   7   8      2.76    8.25  0. 1.0000     0. 
   4  -7   8      4.94    7.15  0. 1.0000     0. 
  -4   7   8     -0.67    7.84  0. 1.0000     0. 
  -4   7   8      2.03   10.30  0. 1.0000     0. 
   4  -7  -8      0.53    5.68  0. 1.0000     0. 
  -4   7  -8      0.90    8.37  0. 1.0000     0. 
  -5   7   8      5.73    7.99  0. 1.0000     0. 
   5  -7   8     -1.95    7.29  0. 1.0000     0. 
  -7   5   8     11.30    3.82  0. 1.0000     0. 
  -5  -7   8     14.90    3.83  0. 1.0000     0. 
   5  -7  -8     -5.28    7.30  0. 1.0000     0. 
   5  -7  -8     -0.20    5.52  0. 1.0000     0. 
  -7   6   8     25.93    5.31  0. 1.0000     0. 
  -7   7   8     40.91    6.03  0. 1.0000     0. 
   0   8  -8      7.33    6.30  0. 1.0000     0. 
   0   8   8     -7.24   10.63  0. 1.0000     0. 
   0  -8  -8      1.37   11.63  0. 1.0000     0. 
   0   8   8      0.81    8.31  0. 1.0000     0. 
   0   8   8     -2.67    8.44  0. 1.0000     0. 
   0  -8   8     -0.71    6.19  0. 1.0000     0. 
   0  -8  -8      9.56   14.90  0. 1.0000     0. 
  -8  -1   8      4.88    1.18  0. 1.0000     0. 
  -1   8   8      8.24   12.22  0. 1.0000     0. 
   1   8  -8      1.24    5.58  0. 1.0000     0. 
  -1  -8  -8     -1.55    9.22  0. 1.0000     0. 
  -1   8   8     -4.42    6.89  0. 1.0000     0. 
  -1   8   8      1.51    7.33  0. 1.0000     0. 
   1  -8   8     17.22    7.18  0. 1.0000     0. 
  -1  -8  -8     -9.94   12.11  0. 1.0000     0. 
   1   8   8     -5.12   11.09  0. 1.0000     0. 
   1  -8  -8      2.21    7.21  0. 1.0000     0. 
  -1   8  -8      3.63    8.50  0. 1.0000     0. 
   1  -8  -8      6.42   10.93  0. 1.0000     0. 
   1  -8  -8     -5.03    5.79  0. 1.0000     0. 
   1  -8  -8     -3.43   11.56  0. 1.0000     0. 
   1   8   8    -14.96    9.78  0. 1.0000     0. 
  -1   8  -8     15.22    6.10  0. 1.0000     0. 
   1   8   8      2.71    7.39  0. 1.0000     0. 
  -2   8   8     -6.04    7.64  0. 1.0000     0. 
   2  -8   8      4.35    6.96  0. 1.0000     0. 
  -2  -8  -8     -5.48   10.54  0. 1.0000     0. 
  -2  -8  -8     10.04   11.91  0. 1.0000     0. 
  -8  -2   8      8.95    1.31  0. 1.0000     0. 
  -2   8   8      0.50    8.28  0. 1.0000     0. 
  -2   8   8      7.78    7.86  0. 1.0000     0. 
   2   8  -8      5.78    5.88  0. 1.0000     0. 
   2  -8  -8      0.55    8.15  0. 1.0000     0. 
   2   8   8      4.94    7.44  0. 1.0000     0. 
   2  -8  -8     -1.28    5.73  0. 1.0000     0. 
   2   8   8     -4.92    9.40  0. 1.0000     0. 
   2  -8  -8     11.08   10.10  0. 1.0000     0. 
   2  -8  -8     -1.35   13.41  0. 1.0000     0. 
  -2   8  -8      4.81    8.26  0. 1.0000     0. 
  -3   8   8      4.29    9.59  0. 1.0000     0. 
  -3   8   8      1.06    9.16  0. 1.0000     0. 
   3  -8   8      2.79    7.09  0. 1.0000     0. 
   3   8  -8      1.41    6.12  0. 1.0000     0. 
  -3   8   8      4.00    8.36  0. 1.0000     0. 
  -3   8  -8      7.17    8.62  0. 1.0000     0. 
   3  -8  -8      6.32    8.12  0. 1.0000     0. 
   3   8   8     -6.03    7.85  0. 1.0000     0. 
   3   8   8     -0.59    8.24  0. 1.0000     0. 
   3  -8  -8      9.87   13.16  0. 1.0000     0. 
   3  -8  -8      8.36    5.78  0. 1.0000     0. 
   5  -8   8     -1.88    6.61  0. 1.0000     0. 
  -8  -5   8      7.18    1.36  0. 1.0000     0. 
  -5   8   8     -7.10    8.01  0. 1.0000     0. 
   5  -8  -8      3.44    5.85  0. 1.0000     0. 
   5  -8  -8      1.00    8.01  0. 1.0000     0. 
  -5  -8   8      9.43    3.77  0. 1.0000     0. 
  -5   8  -8      1.37    7.68  0. 1.0000     0. 
   6  -8   8     -4.22    6.76  0. 1.0000     0. 
   6  -8  -8     -1.77    5.85  0. 1.0000     0. 
   6  -8  -8     -0.50    8.25  0. 1.0000     0. 
   0   9   8     18.04   14.03  0. 1.0000     0. 
   0   9   8     13.04   10.99  0. 1.0000     0. 
   0  -9  -8     -6.33   12.32  0. 1.0000     0. 
   0  -9   8      6.25    8.09  0. 1.0000     0. 
   0   9  -8     -3.10    7.65  0. 1.0000     0. 
  -1  -9  -8     -7.94    9.85  0. 1.0000     0. 
  -1   9   8     -5.26   14.35  0. 1.0000     0. 
  -1   9   8      9.35    7.65  0. 1.0000     0. 
   1   9  -8     -7.47    6.02  0. 1.0000     0. 
   1  -9   8     -3.42    6.41  0. 1.0000     0. 
  -1   9   8     -2.08    8.59  0. 1.0000     0. 
  -1  -9  -8     -8.45   14.99  0. 1.0000     0. 
   1  -9  -8     -2.52   10.52  0. 1.0000     0. 
   1  -9  -8     -6.22   13.94  0. 1.0000     0. 
   1   9   8     21.13    8.43  0. 1.0000     0. 
   2  -9   8      0.67    6.59  0. 1.0000     0. 
  -2  -9  -8    -10.48   14.52  0. 1.0000     0. 
  -2   9   8      2.88    7.32  0. 1.0000     0. 
  -2   9   8      4.43    8.77  0. 1.0000     0. 
  -2  -9  -8      8.55   11.60  0. 1.0000     0. 
   2   9  -8      3.08    5.97  0. 1.0000     0. 
  -2   9   8      7.53    8.28  0. 1.0000     0. 
   2  -9  -8     16.17    8.54  0. 1.0000     0. 
   2  -9  -8      6.51    5.97  0. 1.0000     0. 
   2   9   8     -2.68    7.32  0. 1.0000     0. 
   2  -9  -8     20.64   14.43  0. 1.0000     0. 
   2   9   8    -16.86   11.67  0. 1.0000     0. 
  -9   2   8      5.20    1.27  0. 1.0000     0. 
   3  -9   8      4.01    7.07  0. 1.0000     0. 
   3   9  -8     -1.43    6.32  0. 1.0000     0. 
  -3   9   8      2.33    9.82  0. 1.0000     0. 
  -3   9   8      4.83    8.92  0. 1.0000     0. 
  -3   9   8      7.93    8.89  0. 1.0000     0. 
   3   9   8     -3.89    7.85  0. 1.0000     0. 
   3   9   8      4.75    9.58  0. 1.0000     0. 
   3  -9  -8     -3.42   13.98  0. 1.0000     0. 
   3  -9  -8      9.74    5.97  0. 1.0000     0. 
   3  -9  -8     -2.02    7.97  0. 1.0000     0. 
   4  -9   8     -2.72    6.40  0. 1.0000     0. 
  -4   9   8     -5.67    9.79  0. 1.0000     0. 
  -4   9   8     13.99   11.25  0. 1.0000     0. 
   4  -9  -8      5.15    5.58  0. 1.0000     0. 
   4  -9  -8     -6.96    8.23  0. 1.0000     0. 
   0 -10  -8      3.13    9.82  0. 1.0000     0. 
   0  10   8     -0.94   13.03  0. 1.0000     0. 
   0 -10  -8      1.47   16.70  0. 1.0000     0. 
   0   0  -9     15.84    7.07  0. 1.0000     0. 
   0   0   9      7.19    8.45  0. 1.0000     0. 
   0   0  -9     10.99   11.45  0. 1.0000     0. 
   0   1   9     86.11    7.83  0. 1.0000     0. 
  -1   0   9     93.32    8.19  0. 1.0000     0. 
   1   0   9     85.92    7.90  0. 1.0000     0. 
   0  -1   9     87.55    7.93  0. 1.0000     0. 
   1   1  -9    109.74   18.84  0. 1.0000     0. 
  -1   1  -9    111.68   13.41  0. 1.0000     0. 
   1  -1   9     98.86   15.52  0. 1.0000     0. 
  -1  -1   9    111.81   14.36  0. 1.0000     0. 
  -1   1   9     77.56    9.59  0. 1.0000     0. 
   1   1  -9    107.68   12.82  0. 1.0000     0. 
  -1   1   9     93.61    8.73  0. 1.0000     0. 
  -1  -1  -9    120.36   12.61  0. 1.0000     0. 
   1   1   9    112.15   10.92  0. 1.0000     0. 
  -1  -1  -9    113.52   15.02  0. 1.0000     0. 
   1  -1  -9    146.59   21.35  0. 1.0000     0. 
   1  -1   9     98.93    8.71  0. 1.0000     0. 
  -1   1   9    109.78   16.04  0. 1.0000     0. 
   1   1   9    102.06   16.43  0. 1.0000     0. 
   1  -1  -9    107.80   12.95  0. 1.0000     0. 
   1   1   9     99.20    8.73  0. 1.0000     0. 
  -1  -1   9     95.63    8.82  0. 1.0000     0. 
  -1   1  -9    117.09   19.83  0. 1.0000     0. 
  -1  -1  -9    115.95   14.57  0. 1.0000     0. 
  -2   0  -9     62.91    9.95  0. 1.0000     0. 
   0   2  -9     63.94   13.16  0. 1.0000     0. 
   0  -2   9     92.89    8.05  0. 1.0000     0. 
  -2   0   9     91.92    8.15  0. 1.0000     0. 
  -1  -2  -9    137.67   16.72  0. 1.0000     0. 
  -1  -2  -9     97.24   13.06  0. 1.0000     0. 
  -1   2   9     99.19   11.59  0. 1.0000     0. 
   1   2  -9    114.64   18.71  0. 1.0000     0. 
  -2   1  -9    106.78   19.29  0. 1.0000     0. 
  -1   2   9    112.46   16.44  0. 1.0000     0. 
   1  -2   9     91.46    8.64  0. 1.0000     0. 
   2   1   9    104.77   11.05  0. 1.0000     0. 
   2  -1  -9     99.02   10.12  0. 1.0000     0. 
   1   2  -9    108.10   13.14  0. 1.0000     0. 
  -1  -2  -9    147.48   17.83  0. 1.0000     0. 
   2  -1  -9     93.02   13.17  0. 1.0000     0. 
  -1   2   9     86.73   10.61  0. 1.0000     0. 
  -2   1  -9    112.01   13.30  0. 1.0000     0. 
  -1   2   9    113.32    9.07  0. 1.0000     0. 
   1  -2   9    108.56   15.75  0. 1.0000     0. 
   2  -1  -9    119.82   19.19  0. 1.0000     0. 
   2   1   9    114.40   13.34  0. 1.0000     0. 
  -2  -1   9     95.41   15.27  0. 1.0000     0. 
   1   2   9     99.48   13.08  0. 1.0000     0. 
   1  -2  -9     89.57   10.64  0. 1.0000     0. 
  -1  -2   9     99.63   15.36  0. 1.0000     0. 
   2  -1   9    114.49   17.12  0. 1.0000     0. 
   1   2   9    100.94   16.87  0. 1.0000     0. 
  -1   2  -9    111.70   20.50  0. 1.0000     0. 
  -2   1   9     97.58   11.15  0. 1.0000     0. 
   1  -2  -9     94.21   12.86  0. 1.0000     0. 
  -2   1   9    113.96   16.37  0. 1.0000     0. 
  -2  -1  -9    116.03   13.91  0. 1.0000     0. 
   2   1  -9    114.46   18.87  0. 1.0000     0. 
  -2  -1  -9    108.65   12.19  0. 1.0000     0. 
  -1   2  -9    122.89   13.97  0. 1.0000     0. 
  -2  -1  -9     90.24   13.49  0. 1.0000     0. 
  -1  -2   9     93.17    8.86  0. 1.0000     0. 
   2   1  -9    103.21   12.55  0. 1.0000     0. 
   1  -2  -9    129.87   22.08  0. 1.0000     0. 
  -2   1   9     94.53    8.98  0. 1.0000     0. 
  -2   2   9    134.52   16.61  0. 1.0000     0. 
  -2   2  -9    152.14   22.66  0. 1.0000     0. 
   2   2  -9    118.03   12.99  0. 1.0000     0. 
   2   2  -9    124.45   18.83  0. 1.0000     0. 
   2  -2   9    123.99   17.39  0. 1.0000     0. 
  -2  -2  -9    127.07   20.42  0. 1.0000     0. 
   2  -2  -9    138.43   21.00  0. 1.0000     0. 
   2   2   9    115.58   16.33  0. 1.0000     0. 
  -2   2   9     93.08    9.39  0. 1.0000     0. 
   2  -2  -9    114.38   11.36  0. 1.0000     0. 
  -2   2  -9    122.01   13.49  0. 1.0000     0. 
  -2  -2   9     96.69    9.49  0. 1.0000     0. 
  -2  -2  -9    120.36   13.74  0. 1.0000     0. 
  -2   2   9    109.19   12.32  0. 1.0000     0. 
   2   2   9    122.50   12.41  0. 1.0000     0. 
   2  -2  -9    118.51   14.12  0. 1.0000     0. 
  -2  -2   9    149.53   16.09  0. 1.0000     0. 
   0   3   9    115.75   17.21  0. 1.0000     0. 
   0  -3  -9    130.81   17.20  0. 1.0000     0. 
   3   0  -9    105.90   10.84  0. 1.0000     0. 
   0  -3   9    110.13   15.93  0. 1.0000     0. 
  -3   0   9     93.62    9.01  0. 1.0000     0. 
   0   3  -9    117.88   13.53  0. 1.0000     0. 
   0   3   9     96.03   12.91  0. 1.0000     0. 
   3   0  -9    110.43   13.15  0. 1.0000     0. 
   0   3  -9    106.83   18.29  0. 1.0000     0. 
   3   0   9    122.58   16.36  0. 1.0000     0. 
   0  -3   9     95.80    8.98  0. 1.0000     0. 
   0   3   9    114.63    9.09  0. 1.0000     0. 
   0  -3  -9    113.43   13.17  0. 1.0000     0. 
  -3   0   9    105.21   16.04  0. 1.0000     0. 
  -3   0   9     95.50   11.07  0. 1.0000     0. 
   0   3   9    106.50   12.85  0. 1.0000     0. 
   3  -1  -9     94.60   11.67  0. 1.0000     0. 
   1  -3   9    117.33    9.38  0. 1.0000     0. 
  -1   3   9    101.18   16.78  0. 1.0000     0. 
  -1   3   9    100.72   14.16  0. 1.0000     0. 
  -3   1  -9    119.50   19.86  0. 1.0000     0. 
   1  -3   9    110.87   16.27  0. 1.0000     0. 
  -1  -3  -9     94.16   13.53  0. 1.0000     0. 
  -1   3   9    121.45    9.63  0. 1.0000     0. 
   3  -1  -9    110.21   12.88  0. 1.0000     0. 
  -3  -1   9    112.08    9.62  0. 1.0000     0. 
  -3  -1   9    126.08   16.72  0. 1.0000     0. 
   3   1   9     97.76   12.16  0. 1.0000     0. 
   1   3  -9    109.63   13.74  0. 1.0000     0. 
   3   1   9    116.48   17.13  0. 1.0000     0. 
  -1  -3  -9    112.68   21.61  0. 1.0000     0. 
  -3   1   9    117.10   16.40  0. 1.0000     0. 
  -3   1   9     96.14   11.77  0. 1.0000     0. 
  -1   3  -9    104.62   14.56  0. 1.0000     0. 
   1  -3  -9    105.33   15.49  0. 1.0000     0. 
   3   1  -9    126.45   13.34  0. 1.0000     0. 
   3  -1   9    121.58   16.51  0. 1.0000     0. 
   1   3   9    104.26   13.15  0. 1.0000     0. 
   1   3   9    101.80   13.30  0. 1.0000     0. 
  -1  -3   9     93.24   15.23  0. 1.0000     0. 
   1  -3  -9    105.86   13.59  0. 1.0000     0. 
   1  -3  -9    109.06   21.52  0. 1.0000     0. 
  -1   3  -9    100.64   19.52  0. 1.0000     0. 
  -1  -3   9    121.42    9.76  0. 1.0000     0. 
   1  -3  -9     97.12   11.35  0. 1.0000     0. 
  -3   1   9     92.66    9.33  0. 1.0000     0. 
   3  -2  -9    133.42   13.50  0. 1.0000     0. 
   2   3  -9    123.76   13.75  0. 1.0000     0. 
  -2   3   9    107.62   13.40  0. 1.0000     0. 
   3  -2  -9    107.88   14.47  0. 1.0000     0. 
  -3   2  -9    134.39   16.58  0. 1.0000     0. 
  -3  -2   9     95.54   14.66  0. 1.0000     0. 
  -3  -2   9    109.99    9.84  0. 1.0000     0. 
  -2   3   9    113.35    9.75  0. 1.0000     0. 
   3   2   9     97.90   14.81  0. 1.0000     0. 
   2  -3   9    115.16   17.14  0. 1.0000     0. 
  -2   3   9    134.45   18.25  0. 1.0000     0. 
  -2  -3  -9    114.94   23.70  0. 1.0000     0. 
   2  -3  -9    118.73   14.09  0. 1.0000     0. 
  -2   3  -9    111.79   14.69  0. 1.0000     0. 
  -2  -3   9    140.69   17.57  0. 1.0000     0. 
   2  -3  -9    114.03   16.66  0. 1.0000     0. 
  -2   3  -9    121.57   20.86  0. 1.0000     0. 
   2  -3  -9    107.43   12.71  0. 1.0000     0. 
  -3   2   9     92.26   17.31  0. 1.0000     0. 
  -2  -3   9    113.23    9.81  0. 1.0000     0. 
   3   2  -9    107.76   12.21  0. 1.0000     0. 
  -3   2   9    100.36   13.27  0. 1.0000     0. 
  -3   2   9    110.21    9.77  0. 1.0000     0. 
  -3  -3   9    105.89   18.88  0. 1.0000     0. 
   3   3  -9    121.53   13.07  0. 1.0000     0. 
   3   3   9     94.88   13.12  0. 1.0000     0. 
  -3   3   9     83.98   12.38  0. 1.0000     0. 
  -3   3   9     88.80   15.96  0. 1.0000     0. 
   3  -3  -9     82.19   12.00  0. 1.0000     0. 
  -3  -3   9     92.14    8.42  0. 1.0000     0. 
   3   3   9     66.31   12.41  0. 1.0000     0. 
   3  -3  -9     85.69   12.05  0. 1.0000     0. 
   3  -3   9     88.96   15.10  0. 1.0000     0. 
  -3   3   9     90.80    8.35  0. 1.0000     0. 
  -3   3  -9    108.91   18.62  0. 1.0000     0. 
  -4   0   9    114.77    9.98  0. 1.0000     0. 
   0  -4   9    103.93    9.51  0. 1.0000     0. 
   0  -4  -9    118.42   20.89  0. 1.0000     0. 
   0  -4   9    114.02   15.42  0. 1.0000     0. 
   0  -4  -9    102.49   15.98  0. 1.0000     0. 
   0   4   9    107.76    9.49  0. 1.0000     0. 
  -4   0   9    115.12   14.16  0. 1.0000     0. 
   0  -4  -9    138.47   19.27  0. 1.0000     0. 
   0   4   9    105.94   14.34  0. 1.0000     0. 
  -4   0   9    143.28   22.05  0. 1.0000     0. 
   0   4   9    115.44   18.16  0. 1.0000     0. 
   0   4  -9    133.43   20.02  0. 1.0000     0. 
   0   4   9     99.42   16.18  0. 1.0000     0. 
   4   0   9    108.48   17.02  0. 1.0000     0. 
   0   4  -9    124.56   14.11  0. 1.0000     0. 
  -1  -4  -9     68.75    8.52  0. 1.0000     0. 
  -1   4   9     55.28    8.17  0. 1.0000     0. 
  -1  -4  -9     78.19   12.78  0. 1.0000     0. 
   1  -4   9     69.60   10.85  0. 1.0000     0. 
   1   4  -9     78.04   12.12  0. 1.0000     0. 
  -1   4   9     51.15   10.18  0. 1.0000     0. 
   4   1   9     42.76   10.17  0. 1.0000     0. 
  -1  -4  -9     66.10   13.64  0. 1.0000     0. 
  -1   4   9     43.90    7.11  0. 1.0000     0. 
   1   4  -9     60.80    8.33  0. 1.0000     0. 
  -1  -4   9     70.05   10.35  0. 1.0000     0. 
   4  -1   9     38.14    9.61  0. 1.0000     0. 
   1  -4  -9     66.14   10.50  0. 1.0000     0. 
  -4   1   9     58.97    7.74  0. 1.0000     0. 
  -1   4  -9     69.50    9.18  0. 1.0000     0. 
  -1   4  -9     74.23   13.03  0. 1.0000     0. 
   1  -4  -9     45.95    7.19  0. 1.0000     0. 
   1   4   9     49.38   10.18  0. 1.0000     0. 
   1  -4  -9     53.23   12.36  0. 1.0000     0. 
   1   4   9     66.10    8.63  0. 1.0000     0. 
  -4   1   9     70.83   12.92  0. 1.0000     0. 
   1  -4  -9     86.02   12.50  0. 1.0000     0. 
  -2  -4  -9     81.20   16.01  0. 1.0000     0. 
  -2   4   9     87.17   12.27  0. 1.0000     0. 
   4  -2  -9     66.21    9.49  0. 1.0000     0. 
  -2   4   9     82.16   10.14  0. 1.0000     0. 
  -4  -2   9     98.24    8.67  0. 1.0000     0. 
  -2   4   9     64.23   12.25  0. 1.0000     0. 
  -2  -4  -9    136.98   21.30  0. 1.0000     0. 
   2  -4   9     99.24   14.79  0. 1.0000     0. 
  -2  -4   9     94.06    8.22  0. 1.0000     0. 
   4  -2   9     94.44   12.81  0. 1.0000     0. 
  -4   2   9     64.21   11.22  0. 1.0000     0. 
   2  -4  -9     81.79   11.31  0. 1.0000     0. 
   2   4   9     94.37   16.02  0. 1.0000     0. 
  -2   4  -9     68.10   11.92  0. 1.0000     0. 
   2  -4  -9     99.60   14.82  0. 1.0000     0. 
   2  -4  -9     69.79    9.50  0. 1.0000     0. 
  -2   4  -9     86.54   13.02  0. 1.0000     0. 
  -4   2   9     88.70   13.95  0. 1.0000     0. 
  -2  -4   9     87.92   14.96  0. 1.0000     0. 
  -3   4   9     52.38    8.21  0. 1.0000     0. 
   3   4  -9     57.62    8.62  0. 1.0000     0. 
   4  -3  -9     51.32    8.10  0. 1.0000     0. 
   4  -3  -9     51.49    7.94  0. 1.0000     0. 
   3  -4   9     55.00   10.40  0. 1.0000     0. 
  -3   4  -9     66.23   12.40  0. 1.0000     0. 
   3  -4  -9     57.65    8.49  0. 1.0000     0. 
   4  -3   9     58.62   10.45  0. 1.0000     0. 
  -4   3   9     80.48   13.82  0. 1.0000     0. 
   3   4   9     64.12   11.60  0. 1.0000     0. 
   3  -4  -9     76.83   11.95  0. 1.0000     0. 
  -3  -4   9     92.41   12.97  0. 1.0000     0. 
  -4   4  -9     41.95   10.95  0. 1.0000     0. 
   4  -4  -9     27.96    6.79  0. 1.0000     0. 
  -4   4   9     66.34   13.29  0. 1.0000     0. 
  -4   4   9     31.51    7.05  0. 1.0000     0. 
   0  -5  -9     86.08   13.89  0. 1.0000     0. 
   0   5   9     63.99   10.93  0. 1.0000     0. 
   0   5   9     55.15    8.42  0. 1.0000     0. 
   0   5   9     74.49   10.37  0. 1.0000     0. 
   0   5  -9     58.30    8.74  0. 1.0000     0. 
   0  -5  -9     46.88    8.49  0. 1.0000     0. 
   0   5  -9     57.73   11.07  0. 1.0000     0. 
   0  -5   9     46.89    9.42  0. 1.0000     0. 
   0  -5  -9     72.90   16.49  0. 1.0000     0. 
   1   5  -9     12.36    6.28  0. 1.0000     0. 
   1  -5   9     16.18    8.34  0. 1.0000     0. 
  -1   5   9     19.27    8.65  0. 1.0000     0. 
  -1  -5  -9      9.56   11.06  0. 1.0000     0. 
  -1   5   9     15.65    6.60  0. 1.0000     0. 
  -1   5   9     12.51    5.62  0. 1.0000     0. 
  -1  -5  -9     27.25   11.88  0. 1.0000     0. 
   1   5  -9     11.93    9.21  0. 1.0000     0. 
  -1   5  -9     17.78    7.15  0. 1.0000     0. 
  -1   5  -9     15.64    9.31  0. 1.0000     0. 
   1   5   9     19.75    7.71  0. 1.0000     0. 
   1  -5  -9     28.11   10.14  0. 1.0000     0. 
   1  -5  -9     17.14    6.78  0. 1.0000     0. 
   1   5   9     12.66    8.66  0. 1.0000     0. 
   1  -5  -9      6.78    5.70  0. 1.0000     0. 
  -1  -5   9     12.77    8.29  0. 1.0000     0. 
   1  -5  -9     22.91   13.26  0. 1.0000     0. 
  -2  -5  -9     33.55    9.50  0. 1.0000     0. 
  -2  -5  -9     28.63   12.17  0. 1.0000     0. 
  -2   5   9     19.96    6.39  0. 1.0000     0. 
   2   5  -9     28.24    7.03  0. 1.0000     0. 
   2  -5   9     21.06    8.20  0. 1.0000     0. 
  -2   5   9     19.40    8.66  0. 1.0000     0. 
  -2   5   9     23.81    8.04  0. 1.0000     0. 
   2   5   9     25.74    7.50  0. 1.0000     0. 
  -2   5  -9     30.25    9.93  0. 1.0000     0. 
   2  -5  -9     25.21    6.54  0. 1.0000     0. 
   2  -5  -9     40.03   12.18  0. 1.0000     0. 
  -2   5  -9     25.98    7.21  0. 1.0000     0. 
  -2  -5   9     38.41    9.61  0. 1.0000     0. 
   2  -5  -9     22.10    6.69  0. 1.0000     0. 
  -5   2   9     18.66    6.51  0. 1.0000     0. 
   2  -5  -9     38.67    9.99  0. 1.0000     0. 
   2   5   9     37.83    9.27  0. 1.0000     0. 
   3   5  -9     36.48    7.90  0. 1.0000     0. 
  -3   5   9     31.18    9.10  0. 1.0000     0. 
  -3   5   9     30.94    7.43  0. 1.0000     0. 
  -3   5   9     42.57    9.11  0. 1.0000     0. 
   3  -5   9     30.68    9.49  0. 1.0000     0. 
  -3   5  -9     35.59   10.21  0. 1.0000     0. 
   3   5   9     30.57   10.39  0. 1.0000     0. 
   3  -5  -9     38.29    7.50  0. 1.0000     0. 
  -5   3   9     25.27    7.27  0. 1.0000     0. 
   3   5   9     22.18    7.81  0. 1.0000     0. 
   3  -5  -9     22.71    7.43  0. 1.0000     0. 
  -4   5   9     39.05   12.81  0. 1.0000     0. 
  -5  -4   9     62.38    7.68  0. 1.0000     0. 
  -4  -5   9     82.91    7.76  0. 1.0000     0. 
   5  -5   9     61.33    9.87  0. 1.0000     0. 
  -5   5   9     57.64    8.43  0. 1.0000     0. 
   5  -5  -9     64.13    8.03  0. 1.0000     0. 
  -5  -5   9     37.47    5.63  0. 1.0000     0. 
   0  -6  -9     81.47   17.25  0. 1.0000     0. 
   0   6  -9    100.81   13.87  0. 1.0000     0. 
   0   6   9     89.66   11.79  0. 1.0000     0. 
   0  -6   9    120.96    9.29  0. 1.0000     0. 
   0   6   9    104.74   18.35  0. 1.0000     0. 
   0  -6   9     81.41   15.53  0. 1.0000     0. 
   0   6  -9     80.20   13.30  0. 1.0000     0. 
   0  -6  -9     91.56   14.02  0. 1.0000     0. 
   0  -6  -9    125.04   17.01  0. 1.0000     0. 
   0   6   9    100.04   13.47  0. 1.0000     0. 
   1  -6   9     30.42    8.36  0. 1.0000     0. 
  -1   6   9     39.20    9.47  0. 1.0000     0. 
  -1   6   9     27.71    6.87  0. 1.0000     0. 
  -1  -6  -9     35.05   12.37  0. 1.0000     0. 
  -1  -6  -9     49.99   13.73  0. 1.0000     0. 
  -1   6   9     25.51    9.72  0. 1.0000     0. 
   1   6  -9     40.18    7.25  0. 1.0000     0. 
   1   6   9     32.79    9.69  0. 1.0000     0. 
   1   6   9     32.15    9.46  0. 1.0000     0. 
  -1   6  -9     32.79   10.15  0. 1.0000     0. 
  -6   1   9     31.26    5.06  0. 1.0000     0. 
   1  -6  -9     28.98    8.51  0. 1.0000     0. 
  -1   6  -9     28.34    7.55  0. 1.0000     0. 
   1  -6  -9     39.09   13.11  0. 1.0000     0. 
  -1  -6   9     24.51    8.38  0. 1.0000     0. 
   1  -6  -9     28.32    7.16  0. 1.0000     0. 
   1  -6  -9     58.10   14.45  0. 1.0000     0. 
  -2   6   9     34.50    8.89  0. 1.0000     0. 
  -2   6   9     23.73    7.38  0. 1.0000     0. 
   2   6  -9     34.03    7.35  0. 1.0000     0. 
  -2  -6  -9     33.59   12.03  0. 1.0000     0. 
  -2   6   9     31.38    9.25  0. 1.0000     0. 
   2  -6   9     32.21    9.37  0. 1.0000     0. 
  -2  -6  -9     24.85   13.05  0. 1.0000     0. 
   2  -6  -9     27.98    7.76  0. 1.0000     0. 
  -2   6  -9     31.36    7.61  0. 1.0000     0. 
   2   6   9     23.44    8.88  0. 1.0000     0. 
   2  -6  -9     41.69    7.52  0. 1.0000     0. 
   2  -6  -9     40.06   12.67  0. 1.0000     0. 
  -2  -6   9     32.69    9.91  0. 1.0000     0. 
  -2   6  -9     24.26   10.43  0. 1.0000     0. 
   2   6   9     35.83    9.03  0. 1.0000     0. 
   2  -6  -9     43.88   12.75  0. 1.0000     0. 
   3  -6   9     29.34    8.23  0. 1.0000     0. 
   3   6  -9     30.14    7.28  0. 1.0000     0. 
  -3   6   9     26.01    8.77  0. 1.0000     0. 
  -3   6   9     28.90    9.27  0. 1.0000     0. 
  -3   6   9     15.00    7.81  0. 1.0000     0. 
   3  -6  -9     27.10    7.85  0. 1.0000     0. 
   3  -6  -9     23.55    6.35  0. 1.0000     0. 
   3   6   9     38.56   10.60  0. 1.0000     0. 
   3   6   9     27.80    8.22  0. 1.0000     0. 
  -3   6  -9     17.15    9.38  0. 1.0000     0. 
  -4   6   9     34.30   12.04  0. 1.0000     0. 
   4  -6   9     25.86    8.66  0. 1.0000     0. 
  -4   6   9     24.97    8.01  0. 1.0000     0. 
  -4   6  -9     20.34   10.08  0. 1.0000     0. 
   4  -6  -9     22.46    6.85  0. 1.0000     0. 
   4  -6  -9     23.14    7.91  0. 1.0000     0. 
   5  -6   9     51.11   10.65  0. 1.0000     0. 
  -5   6   9     28.77    8.43  0. 1.0000     0. 
  -5  -6   9     29.33    5.10  0. 1.0000     0. 
   5  -6  -9     26.79    7.25  0. 1.0000     0. 
  -6   5   9     40.07    8.62  0. 1.0000     0. 
   5  -6  -9     43.21    8.79  0. 1.0000     0. 
   6  -6  -9     12.89    6.79  0. 1.0000     0. 
  -6   6   9     20.61    8.03  0. 1.0000     0. 
   6  -6  -9     17.35    8.03  0. 1.0000     0. 
   0  -7  -9    123.06   19.58  0. 1.0000     0. 
   0   7   9    142.03   17.43  0. 1.0000     0. 
   0   7   9     75.87   13.48  0. 1.0000     0. 
   0   7  -9     91.44   14.20  0. 1.0000     0. 
   0   7   9     87.10   12.78  0. 1.0000     0. 
   0  -7  -9    118.71   18.83  0. 1.0000     0. 
   0  -7   9    111.42    9.25  0. 1.0000     0. 
  -1   7   9     27.03   11.68  0. 1.0000     0. 
  -1  -7  -9     46.12   14.64  0. 1.0000     0. 
   1   7  -9     29.02    6.92  0. 1.0000     0. 
  -1   7   9     19.68    8.70  0. 1.0000     0. 
  -1   7   9     13.80    7.29  0. 1.0000     0. 
   1  -7   9     29.19    8.56  0. 1.0000     0. 
  -1  -7  -9     48.39   12.32  0. 1.0000     0. 
   1  -7  -9     25.37    7.49  0. 1.0000     0. 
  -1   7  -9     32.18    7.28  0. 1.0000     0. 
  -1  -7   9     37.98    9.54  0. 1.0000     0. 
   1   7   9     38.71   11.18  0. 1.0000     0. 
  -1   7  -9     33.10   10.07  0. 1.0000     0. 
   1  -7  -9     46.58   14.26  0. 1.0000     0. 
   1   7   9     30.19    8.81  0. 1.0000     0. 
   1  -7  -9     54.47   16.09  0. 1.0000     0. 
   1  -7  -9     36.37    8.21  0. 1.0000     0. 
   2  -7   9     19.16    8.78  0. 1.0000     0. 
  -2  -7  -9     40.55   14.15  0. 1.0000     0. 
   2   7  -9     26.42    6.89  0. 1.0000     0. 
  -2  -7  -9     28.55   13.85  0. 1.0000     0. 
  -2   7   9     40.57    9.65  0. 1.0000     0. 
  -2   7   9     19.80    9.16  0. 1.0000     0. 
  -2   7   9     21.28    7.59  0. 1.0000     0. 
   2  -7  -9     29.12    7.32  0. 1.0000     0. 
  -2   7  -9     27.98   10.27  0. 1.0000     0. 
   2  -7  -9     39.49   14.05  0. 1.0000     0. 
   2   7   9     28.02    8.82  0. 1.0000     0. 
   2  -7  -9     28.10   12.69  0. 1.0000     0. 
   2   7   9     28.36   10.80  0. 1.0000     0. 
  -2   7  -9     26.09    8.06  0. 1.0000     0. 
   2  -7  -9     25.80    7.90  0. 1.0000     0. 
   3  -7   9     23.39    8.94  0. 1.0000     0. 
   3   7  -9     10.37    7.62  0. 1.0000     0. 
  -3   7   9     27.81    9.55  0. 1.0000     0. 
  -3   7   9     30.16   12.47  0. 1.0000     0. 
  -3   7   9     16.13    9.00  0. 1.0000     0. 
   3   7   9     10.99   10.63  0. 1.0000     0. 
   3  -7  -9     27.92    7.13  0. 1.0000     0. 
   3   7   9     13.40    9.56  0. 1.0000     0. 
  -3   7  -9     20.58   10.43  0. 1.0000     0. 
   3  -7  -9     24.70    8.88  0. 1.0000     0. 
  -4   7   9     38.21    9.29  0. 1.0000     0. 
  -4   7   9     43.95   13.02  0. 1.0000     0. 
   4  -7   9     21.64    8.45  0. 1.0000     0. 
   4  -7  -9     29.05    8.60  0. 1.0000     0. 
  -7   4   9     15.89    4.90  0. 1.0000     0. 
   4  -7  -9     17.36    6.57  0. 1.0000     0. 
  -4   7  -9     20.31    9.50  0. 1.0000     0. 
   5  -7   9     22.74    8.38  0. 1.0000     0. 
  -5   7   9     35.85    8.96  0. 1.0000     0. 
  -7   5   9     27.82    5.53  0. 1.0000     0. 
   5  -7  -9     25.96    7.02  0. 1.0000     0. 
   5  -7  -9     32.94    8.92  0. 1.0000     0. 
  -5   7  -9     28.09   10.09  0. 1.0000     0. 
  -5  -7   9     29.04    5.30  0. 1.0000     0. 
   0  -8  -9     91.17   17.62  0. 1.0000     0. 
   0  -8   9    111.57    9.93  0. 1.0000     0. 
   0   8   9     86.02   14.15  0. 1.0000     0. 
   0   8   9    102.42   17.82  0. 1.0000     0. 
   0  -8  -9    127.37   20.90  0. 1.0000     0. 
  -1   8   9     33.80    9.01  0. 1.0000     0. 
  -1   8   9     36.10    8.92  0. 1.0000     0. 
  -1   8   9     26.22   13.32  0. 1.0000     0. 
  -1  -8  -9     48.07   12.56  0. 1.0000     0. 
   1  -8   9     27.92    8.50  0. 1.0000     0. 
   1   8  -9     42.83    7.44  0. 1.0000     0. 
  -1  -8  -9     51.65   15.75  0. 1.0000     0. 
   1  -8  -9     67.82   15.42  0. 1.0000     0. 
  -1  -8   9     51.03   10.32  0. 1.0000     0. 
   1  -8  -9     48.47    9.48  0. 1.0000     0. 
  -1   8  -9     40.58   10.79  0. 1.0000     0. 
  -1   8  -9     42.73    7.68  0. 1.0000     0. 
   1   8   9     28.55    9.18  0. 1.0000     0. 
   1   8   9     49.69   12.81  0. 1.0000     0. 
   1  -8  -9     50.97    8.32  0. 1.0000     0. 
   1  -8  -9     55.21   18.90  0. 1.0000     0. 
  -2   8   9     17.03    7.30  0. 1.0000     0. 
   2   8  -9     20.85    6.96  0. 1.0000     0. 
   2  -8   9     25.82    7.77  0. 1.0000     0. 
  -2  -8  -9     28.04   14.98  0. 1.0000     0. 
  -2   8   9     20.61   10.10  0. 1.0000     0. 
  -2  -8  -9     33.75   15.09  0. 1.0000     0. 
  -2   8   9     24.98    9.16  0. 1.0000     0. 
   2  -8  -9     32.40   13.04  0. 1.0000     0. 
  -2   8  -9     17.39    9.89  0. 1.0000     0. 
   2  -8  -9     23.66   14.51  0. 1.0000     0. 
   2   8   9     37.03   12.22  0. 1.0000     0. 
   2  -8  -9     19.89    9.27  0. 1.0000     0. 
   2  -8  -9     29.43    8.34  0. 1.0000     0. 
   2   8   9     33.26    9.07  0. 1.0000     0. 
  -3   8   9     16.10    9.00  0. 1.0000     0. 
  -3  -8  -9      8.50   15.00  0. 1.0000     0. 
  -3   8   9     26.09    8.75  0. 1.0000     0. 
   3  -8   9     26.42    8.92  0. 1.0000     0. 
  -3   8   9     20.75   11.08  0. 1.0000     0. 
   3   8  -9     17.44    7.08  0. 1.0000     0. 
   3  -8  -9     14.31    6.61  0. 1.0000     0. 
   3   8   9      4.99    9.72  0. 1.0000     0. 
   3  -8  -9     15.07    8.28  0. 1.0000     0. 
   3   8   9     15.58   10.02  0. 1.0000     0. 
  -3   8  -9     21.74   10.80  0. 1.0000     0. 
   3  -8  -9     36.49   13.82  0. 1.0000     0. 
   0   0  10     12.71    9.68  0. 1.0000     0. 
   0   0 -10      8.17    8.06  0. 1.0000     0. 
   0   0 -10     11.57   12.46  0. 1.0000     0. 
   0   1  10     64.58   12.42  0. 1.0000     0. 
   0  -1 -10     39.77   13.25  0. 1.0000     0. 
   1   0 -10     40.78   11.75  0. 1.0000     0. 
  -1   0 -10     55.72   13.60  0. 1.0000     0. 
   1   0 -10     43.82    8.15  0. 1.0000     0. 
   0  -1 -10     46.62    8.52  0. 1.0000     0. 
   0   1 -10     41.66    8.85  0. 1.0000     0. 
  -1   0 -10     46.61    8.22  0. 1.0000     0. 
   1   0  10     30.48    9.65  0. 1.0000     0. 
   0  -1  10     52.28   10.39  0. 1.0000     0. 
   0   1 -10     61.51   13.88  0. 1.0000     0. 
  -1   0  10     40.19    9.77  0. 1.0000     0. 
  -1  -1 -10     99.07   12.80  0. 1.0000     0. 
   1   1 -10     98.65   20.42  0. 1.0000     0. 
  -1   1  10    100.50    8.80  0. 1.0000     0. 
  -1  -1  10    101.21   16.42  0. 1.0000     0. 
  -1  -1  10     96.25    8.72  0. 1.0000     0. 
   1  -1 -10     82.70   10.83  0. 1.0000     0. 
  -1   1  10     91.28   16.07  0. 1.0000     0. 
  -1  -1 -10     81.54   14.60  0. 1.0000     0. 
   1  -1 -10     99.98   15.76  0. 1.0000     0. 
   1   1  10    111.55   17.53  0. 1.0000     0. 
  -1  -1 -10    118.58   14.04  0. 1.0000     0. 
  -1   1 -10    115.82   16.75  0. 1.0000     0. 
   1  -1  10     97.28   17.12  0. 1.0000     0. 
  -1   1 -10     97.47   13.73  0. 1.0000     0. 
   1   1 -10     85.99   13.35  0. 1.0000     0. 
   2   0 -10     94.25   14.55  0. 1.0000     0. 
   0  -2 -10     85.01   14.52  0. 1.0000     0. 
   0  -2 -10     88.86   15.96  0. 1.0000     0. 
  -2   0  10     93.54   13.14  0. 1.0000     0. 
  -2   0 -10     95.04   16.12  0. 1.0000     0. 
   0   2  10     93.30    8.55  0. 1.0000     0. 
   2   0 -10     99.19   14.84  0. 1.0000     0. 
  -2   0  10    101.85    8.91  0. 1.0000     0. 
   2   0  10     93.76   13.61  0. 1.0000     0. 
   0  -2 -10    100.78   13.90  0. 1.0000     0. 
   0   2  10    104.10   14.45  0. 1.0000     0. 
   0  -2  10    104.13   17.72  0. 1.0000     0. 
   0   2 -10    109.23   15.01  0. 1.0000     0. 
  -2   0 -10    113.43   14.47  0. 1.0000     0. 
   1   2 -10    105.58   14.11  0. 1.0000     0. 
  -2  -1  10    130.04   18.25  0. 1.0000     0. 
  -1   2  10    101.43    9.58  0. 1.0000     0. 
  -1  -2 -10    109.91   17.30  0. 1.0000     0. 
  -1  -2 -10     93.10   14.96  0. 1.0000     0. 
  -2   1 -10    122.21   14.46  0. 1.0000     0. 
  -1  -2 -10    117.28   14.32  0. 1.0000     0. 
   2  -1 -10     90.73   10.85  0. 1.0000     0. 
  -1   2  10    106.16   17.40  0. 1.0000     0. 
   2   1  10    116.08   18.64  0. 1.0000     0. 
   2  -1 -10    114.67   14.20  0. 1.0000     0. 
   1  -2  10    140.26   18.49  0. 1.0000     0. 
   1   2 -10    137.11   20.44  0. 1.0000     0. 
  -2  -1  10     97.83    9.61  0. 1.0000     0. 
   2  -1 -10    116.17   21.75  0. 1.0000     0. 
  -2   1 -10    128.30   23.06  0. 1.0000     0. 
   2   1 -10    125.81   14.45  0. 1.0000     0. 
   1  -2 -10    135.60   24.67  0. 1.0000     0. 
   2  -1  10    130.44   18.31  0. 1.0000     0. 
  -1  -2  10    126.92   10.00  0. 1.0000     0. 
  -2   1  10    105.39    9.78  0. 1.0000     0. 
  -1   2 -10    134.84   24.01  0. 1.0000     0. 
   1  -2 -10    113.57   14.65  0. 1.0000     0. 
  -2  -1 -10    152.94   27.40  0. 1.0000     0. 
   1   2  10    124.94   17.50  0. 1.0000     0. 
  -1   2 -10    114.88   14.51  0. 1.0000     0. 
  -2  -1 -10    123.11   15.28  0. 1.0000     0. 
  -2  -1 -10    147.87   18.14  0. 1.0000     0. 
   2   1 -10    125.41   21.23  0. 1.0000     0. 
  -2   1  10    132.46   17.92  0. 1.0000     0. 
  -1  -2  10     99.61   16.99  0. 1.0000     0. 
   2  -2 -10    163.15   23.67  0. 1.0000     0. 
  -2   2 -10    130.79   21.42  0. 1.0000     0. 
   2   2 -10    159.22   22.04  0. 1.0000     0. 
  -2  -2  10    137.60   19.33  0. 1.0000     0. 
   2  -2  10    143.82   18.58  0. 1.0000     0. 
   2   2  10    156.40   19.61  0. 1.0000     0. 
   2  -2 -10    119.15   13.01  0. 1.0000     0. 
  -2  -2 -10    164.42   21.10  0. 1.0000     0. 
  -2   2 -10    140.80   15.45  0. 1.0000     0. 
   2  -2 -10    115.49   14.85  0. 1.0000     0. 
   2   2 -10    140.17   15.43  0. 1.0000     0. 
  -2   2  10    119.96   18.71  0. 1.0000     0. 
  -2  -2 -10    133.58   25.66  0. 1.0000     0. 
  -2   2  10    134.55   11.50  0. 1.0000     0. 
   0   3 -10    116.53   21.08  0. 1.0000     0. 
   3   0 -10    104.11   11.57  0. 1.0000     0. 
   0   3  10    127.49   19.57  0. 1.0000     0. 
   0   3 -10    104.35   11.69  0. 1.0000     0. 
  -3   0  10    103.57    9.13  0. 1.0000     0. 
   0  -3  10     93.49    8.76  0. 1.0000     0. 
   0  -3 -10    125.63   15.87  0. 1.0000     0. 
   0  -3 -10    112.70   15.48  0. 1.0000     0. 
  -3   0  10     67.52   12.41  0. 1.0000     0. 
  -3   0 -10    110.13   21.24  0. 1.0000     0. 
   3   0  10    108.63   17.85  0. 1.0000     0. 
   0  -3  10    104.31   16.88  0. 1.0000     0. 
  -1  -3 -10    107.76   14.26  0. 1.0000     0. 
   1   3 -10     94.13   10.75  0. 1.0000     0. 
   3  -1 -10     92.95   13.43  0. 1.0000     0. 
  -3   1 -10     84.08   14.36  0. 1.0000     0. 
  -1   3  10     94.96   17.19  0. 1.0000     0. 
   3   1  10    130.82   18.71  0. 1.0000     0. 
   1   3 -10     70.54   13.21  0. 1.0000     0. 
  -3  -1  10     75.06   11.89  0. 1.0000     0. 
   1  -3  10    127.41   18.30  0. 1.0000     0. 
  -1   3  10     93.69    8.48  0. 1.0000     0. 
  -1  -3 -10    115.26   16.41  0. 1.0000     0. 
   3  -1 -10     96.25   11.07  0. 1.0000     0. 
  -3  -1  10     98.43    8.83  0. 1.0000     0. 
   3   1 -10    100.46   14.34  0. 1.0000     0. 
  -3   1  10     97.37    8.82  0. 1.0000     0. 
   1  -3 -10    102.49   16.56  0. 1.0000     0. 
  -1   3 -10     86.59   14.85  0. 1.0000     0. 
  -1   3 -10    109.40   14.15  0. 1.0000     0. 
  -3  -1 -10    110.23   15.61  0. 1.0000     0. 
  -1  -3  10     97.20    8.65  0. 1.0000     0. 
   3  -1  10     77.33   12.16  0. 1.0000     0. 
  -3   1  10    107.20   13.69  0. 1.0000     0. 
   1   3  10    108.60   16.43  0. 1.0000     0. 
  -1  -3  10     80.23   11.98  0. 1.0000     0. 
   1  -3 -10     98.46   13.84  0. 1.0000     0. 
  -2  -3 -10    126.70   23.72  0. 1.0000     0. 
  -3  -2  10     99.87    9.38  0. 1.0000     0. 
  -3   2 -10     78.64   14.41  0. 1.0000     0. 
  -2   3  10    124.79   18.22  0. 1.0000     0. 
   3  -2 -10    106.80   13.90  0. 1.0000     0. 
   3  -2 -10     95.13   11.98  0. 1.0000     0. 
   2  -3  10    118.35   17.37  0. 1.0000     0. 
  -3  -2  10    162.31   20.37  0. 1.0000     0. 
   3   2  10    142.68   20.28  0. 1.0000     0. 
  -2  -3 -10    145.32   27.34  0. 1.0000     0. 
   2   3 -10    110.19   13.92  0. 1.0000     0. 
  -2   3  10    109.11    9.54  0. 1.0000     0. 
   2   3  10    105.57   18.25  0. 1.0000     0. 
   2  -3 -10    101.45   13.91  0. 1.0000     0. 
   2  -3 -10    140.47   23.87  0. 1.0000     0. 
  -2   3 -10    106.31   14.77  0. 1.0000     0. 
  -3   2  10    108.07   17.82  0. 1.0000     0. 
  -2  -3  10    106.58    9.53  0. 1.0000     0. 
   3  -2  10    143.39   18.06  0. 1.0000     0. 
   2  -3 -10     96.39   11.96  0. 1.0000     0. 
  -2   3 -10    111.14   20.67  0. 1.0000     0. 
   3   2 -10    110.27   14.57  0. 1.0000     0. 
  -2  -3  10     81.47   12.72  0. 1.0000     0. 
  -3  -2 -10    139.91   24.75  0. 1.0000     0. 
  -3   2  10    103.65    9.60  0. 1.0000     0. 
  -3  -3  10     93.71   14.21  0. 1.0000     0. 
   3  -3  10    112.25   18.37  0. 1.0000     0. 
   3  -3 -10     97.17   12.05  0. 1.0000     0. 
   3   3 -10     89.73   13.94  0. 1.0000     0. 
  -3   3  10     98.03    8.85  0. 1.0000     0. 
  -3  -3 -10     83.76   15.48  0. 1.0000     0. 
  -3   3  10    107.01   17.87  0. 1.0000     0. 
   3  -3 -10     96.07   13.28  0. 1.0000     0. 
  -3  -3  10     96.42    8.70  0. 1.0000     0. 
   3   3  10    115.73   19.73  0. 1.0000     0. 
  -3   3 -10     80.78   14.85  0. 1.0000     0. 
   4   0 -10    110.20   13.92  0. 1.0000     0. 
   0   4  10    107.93   15.43  0. 1.0000     0. 
  -4   0  10    104.01    9.70  0. 1.0000     0. 
   0  -4 -10    135.50   20.98  0. 1.0000     0. 
   0  -4  10     95.54    9.21  0. 1.0000     0. 
   0   4 -10    126.84   20.83  0. 1.0000     0. 
   0   4  10    129.74   20.02  0. 1.0000     0. 
  -4   0  10    165.24   23.29  0. 1.0000     0. 
   0   4  10    107.26   13.67  0. 1.0000     0. 
   0  -4  10    129.38   16.57  0. 1.0000     0. 
   0   4 -10    128.22   14.66  0. 1.0000     0. 
   4   0  10    113.54   18.35  0. 1.0000     0. 
   0  -4 -10    136.18   15.39  0. 1.0000     0. 
  -4  -1  10    101.21    9.05  0. 1.0000     0. 
  -1   4  10    106.44    8.90  0. 1.0000     0. 
   1   4 -10     89.56   13.17  0. 1.0000     0. 
  -4  -1  10     91.02   14.48  0. 1.0000     0. 
   1   4 -10     96.03   14.78  0. 1.0000     0. 
  -1   4  10     77.48   12.51  0. 1.0000     0. 
   1  -4  10     85.33   12.93  0. 1.0000     0. 
  -1  -4 -10    107.78   16.54  0. 1.0000     0. 
   4  -1 -10     82.66   11.42  0. 1.0000     0. 
  -1  -4 -10    129.79   24.64  0. 1.0000     0. 
   4   1  10     95.62   13.70  0. 1.0000     0. 
  -1  -4 -10     97.33   14.03  0. 1.0000     0. 
  -1   4  10     94.01   15.47  0. 1.0000     0. 
   4  -1  10    109.95   14.05  0. 1.0000     0. 
   1   4  10    102.80   11.80  0. 1.0000     0. 
  -1   4 -10     93.55   13.81  0. 1.0000     0. 
  -1  -4  10     94.07    8.66  0. 1.0000     0. 
   1  -4 -10    107.88   18.66  0. 1.0000     0. 
   1   4  10     95.11   16.72  0. 1.0000     0. 
   4   1 -10     99.01   11.56  0. 1.0000     0. 
  -1   4 -10     91.52   14.88  0. 1.0000     0. 
  -4   1  10    112.01   15.70  0. 1.0000     0. 
   1  -4 -10     74.01   10.83  0. 1.0000     0. 
   1  -4 -10     91.73   17.11  0. 1.0000     0. 
  -1  -4  10     90.68   12.92  0. 1.0000     0. 
   4  -2 -10     86.05   13.10  0. 1.0000     0. 
   4  -2 -10     83.33   11.91  0. 1.0000     0. 
  -2   4  10    112.02   16.44  0. 1.0000     0. 
   2  -4  10     81.46   12.68  0. 1.0000     0. 
   4   2  10     75.56   13.51  0. 1.0000     0. 
  -4   2 -10    113.10   22.12  0. 1.0000     0. 
  -2  -4 -10    113.12   19.15  0. 1.0000     0. 
   2   4 -10    127.00   13.18  0. 1.0000     0. 
  -4  -2  10    103.67    8.85  0. 1.0000     0. 
  -2   4  10     99.75   13.52  0. 1.0000     0. 
  -2  -4 -10     79.80   16.44  0. 1.0000     0. 
  -2   4 -10     65.60   10.36  0. 1.0000     0. 
   4  -2  10     67.50   12.27  0. 1.0000     0. 
   2   4  10     69.08   12.33  0. 1.0000     0. 
   2  -4 -10     79.45   10.27  0. 1.0000     0. 
  -2   4 -10     98.28   14.76  0. 1.0000     0. 
  -4   2  10     95.02    8.82  0. 1.0000     0. 
   4   2 -10    102.84   14.24  0. 1.0000     0. 
  -2  -4  10    109.97   16.99  0. 1.0000     0. 
   2  -4 -10     96.65   16.00  0. 1.0000     0. 
   2   4  10     77.93   10.90  0. 1.0000     0. 
  -4   2  10    101.51   14.84  0. 1.0000     0. 
  -2  -4  10     99.36    8.71  0. 1.0000     0. 
   2  -4 -10     82.91   12.12  0. 1.0000     0. 
   3   4 -10     74.71   10.49  0. 1.0000     0. 
  -3   4  10     58.28   11.62  0. 1.0000     0. 
  -4   3 -10     68.63   13.92  0. 1.0000     0. 
  -3  -4 -10     72.76   16.01  0. 1.0000     0. 
   4  -3 -10     75.23   10.26  0. 1.0000     0. 
   3  -4  10     66.16   11.82  0. 1.0000     0. 
  -4  -3  10    100.07    8.45  0. 1.0000     0. 
   4  -3 -10     79.58   10.12  0. 1.0000     0. 
   3  -4 -10     81.83   12.60  0. 1.0000     0. 
  -3  -4  10    120.58   19.77  0. 1.0000     0. 
  -3   4 -10     76.25   13.78  0. 1.0000     0. 
  -3  -4  10     97.50    8.25  0. 1.0000     0. 
  -4   3  10     99.32   15.57  0. 1.0000     0. 
   3   4  10     81.88   11.06  0. 1.0000     0. 
   3  -4 -10     70.04    9.75  0. 1.0000     0. 
   4  -3  10     97.74   17.67  0. 1.0000     0. 
   3   4  10     66.43   13.21  0. 1.0000     0. 
   4  -4  10     46.17   10.21  0. 1.0000     0. 
   4   4 -10     31.57    8.57  0. 1.0000     0. 
  -4   4  10     39.70    7.78  0. 1.0000     0. 
  -4   4  10     74.89   14.19  0. 1.0000     0. 
   4  -4 -10     44.08    8.13  0. 1.0000     0. 
   4  -4 -10     49.53    8.39  0. 1.0000     0. 
  -4   4 -10     52.90   12.95  0. 1.0000     0. 
   0   5 -10     77.49   11.49  0. 1.0000     0. 
   0  -5  10    116.33    9.24  0. 1.0000     0. 
  -5   0  10    107.69    9.65  0. 1.0000     0. 
   0   5  10     83.14   14.16  0. 1.0000     0. 
   0   5  10     79.48   12.00  0. 1.0000     0. 
   0  -5  10     87.21   16.31  0. 1.0000     0. 
   0  -5 -10     98.61   14.41  0. 1.0000     0. 
   0  -5 -10    101.09   15.12  0. 1.0000     0. 
   0  -5 -10     94.18   18.25  0. 1.0000     0. 
   1   5 -10     31.62    7.90  0. 1.0000     0. 
   1  -5  10     59.58   10.90  0. 1.0000     0. 
  -1   5  10     56.07   11.20  0. 1.0000     0. 
  -1  -5 -10     40.36   12.92  0. 1.0000     0. 
  -1  -5 -10     73.08   15.77  0. 1.0000     0. 
  -1   5  10     50.48    8.88  0. 1.0000     0. 
   1  -5 -10     62.56   12.35  0. 1.0000     0. 
   1  -5 -10     57.41    8.75  0. 1.0000     0. 
  -1   5 -10     56.41   12.14  0. 1.0000     0. 
  -1  -5  10     53.91   10.83  0. 1.0000     0. 
   1  -5 -10     72.08   16.89  0. 1.0000     0. 
   1   5  10     37.41    9.94  0. 1.0000     0. 
   1   5  10     45.55   10.07  0. 1.0000     0. 
  -1   5 -10     53.95    8.55  0. 1.0000     0. 
   2   5 -10     39.00    8.46  0. 1.0000     0. 
  -2   5  10     58.28   10.75  0. 1.0000     0. 
   2  -5  10     65.17   11.56  0. 1.0000     0. 
   5  -2 -10     62.28    9.29  0. 1.0000     0. 
  -2  -5 -10     73.19   17.35  0. 1.0000     0. 
  -2   5  10     37.50   10.59  0. 1.0000     0. 
  -2  -5 -10     45.24   12.24  0. 1.0000     0. 
   2  -5 -10     37.16    8.39  0. 1.0000     0. 
   2  -5 -10     53.69    8.84  0. 1.0000     0. 
  -2   5 -10     60.91   12.99  0. 1.0000     0. 
  -2   5 -10     60.02    9.05  0. 1.0000     0. 
   2   5  10     63.21   10.56  0. 1.0000     0. 
   2  -5 -10     66.80   14.59  0. 1.0000     0. 
   2   5  10     59.42   11.71  0. 1.0000     0. 
  -2  -5  10     55.32   11.60  0. 1.0000     0. 
   3   5 -10     45.25    9.28  0. 1.0000     0. 
   5  -3 -10     65.78    9.42  0. 1.0000     0. 
   3  -5  10     38.67   10.23  0. 1.0000     0. 
  -3   5  10     59.84   11.67  0. 1.0000     0. 
  -3   5  10     48.39    8.88  0. 1.0000     0. 
  -3  -5 -10     88.52   17.97  0. 1.0000     0. 
   5  -3 -10     48.90    8.09  0. 1.0000     0. 
   3  -5 -10     56.00    8.38  0. 1.0000     0. 
  -3   5 -10     50.06   11.54  0. 1.0000     0. 
   3   5  10     62.91   10.33  0. 1.0000     0. 
   3   5  10     77.27   14.28  0. 1.0000     0. 
   3  -5 -10     54.34    8.83  0. 1.0000     0. 
   5  -4 -10     49.25    9.02  0. 1.0000     0. 
   4  -5  10     47.62   11.29  0. 1.0000     0. 
  -4   5  10     45.51   13.68  0. 1.0000     0. 
   5  -4 -10     54.69    9.37  0. 1.0000     0. 
  -5  -4  10     70.21    7.39  0. 1.0000     0. 
  -5   4  10     88.27    7.55  0. 1.0000     0. 
  -4   5 -10     68.70   14.56  0. 1.0000     0. 
   4  -5 -10     66.81    9.75  0. 1.0000     0. 
   4  -5 -10     54.97    9.88  0. 1.0000     0. 
   5  -5 -10     73.92    9.99  0. 1.0000     0. 
  -5   5 -10     80.47   14.39  0. 1.0000     0. 
  -5   5  10     55.76    9.82  0. 1.0000     0. 
  -5  -5  10     82.65    8.11  0. 1.0000     0. 
   0  -6 -10     85.63   11.94  0. 1.0000     0. 
   0   6 -10    105.22   12.93  0. 1.0000     0. 
   0   6  10    117.23   20.20  0. 1.0000     0. 
   0   6  10     69.52   14.54  0. 1.0000     0. 
   0  -6 -10    106.18   19.79  0. 1.0000     0. 
   0   6  10    105.97   14.46  0. 1.0000     0. 
   0  -6 -10    124.04   17.45  0. 1.0000     0. 
   0  -6  10     68.54   12.47  0. 1.0000     0. 
   0   6 -10     97.71   15.62  0. 1.0000     0. 
  -1  -6 -10     35.95   14.86  0. 1.0000     0. 
  -1  -6 -10     77.13   17.76  0. 1.0000     0. 
  -1   6  10     43.18    9.46  0. 1.0000     0. 
  -1   6  10     75.70   11.38  0. 1.0000     0. 
  -6  -1  10     43.48    6.66  0. 1.0000     0. 
   1   6 -10     36.12    8.44  0. 1.0000     0. 
   1  -6  10     39.76   10.00  0. 1.0000     0. 
  -1   6  10     30.77    7.60  0. 1.0000     0. 
   1  -6 -10     83.17   18.31  0. 1.0000     0. 
  -1   6 -10     41.57    9.11  0. 1.0000     0. 
   1  -6 -10     67.59   10.78  0. 1.0000     0. 
   1   6  10     44.69   10.86  0. 1.0000     0. 
   1  -6 -10     64.54   14.60  0. 1.0000     0. 
  -1   6 -10     65.14   13.67  0. 1.0000     0. 
   1   6  10     47.36   12.09  0. 1.0000     0. 
  -1  -6  10     44.30   10.66  0. 1.0000     0. 
  -2   6  10     42.18   10.65  0. 1.0000     0. 
   2  -6  10     41.39   10.81  0. 1.0000     0. 
  -2  -6 -10     78.21   18.58  0. 1.0000     0. 
  -2  -6 -10     51.29   17.23  0. 1.0000     0. 
  -2   6  10     35.62   10.15  0. 1.0000     0. 
   2   6 -10     36.93    8.43  0. 1.0000     0. 
   2   6  10     44.89   11.45  0. 1.0000     0. 
   2  -6 -10     56.67   15.24  0. 1.0000     0. 
   2   6  10     50.41   10.90  0. 1.0000     0. 
  -2   6 -10     47.36    9.55  0. 1.0000     0. 
   2  -6 -10     53.37   12.92  0. 1.0000     0. 
  -2   6 -10     28.74   12.29  0. 1.0000     0. 
  -2  -6  10     47.78   11.57  0. 1.0000     0. 
   2  -6 -10     39.93    8.65  0. 1.0000     0. 
   2  -6 -10     56.25    9.43  0. 1.0000     0. 
  -3   6  10     37.06    8.68  0. 1.0000     0. 
  -3  -6 -10     68.99   17.56  0. 1.0000     0. 
  -3   6  10     41.24   10.92  0. 1.0000     0. 
   3  -6  10     41.26    9.59  0. 1.0000     0. 
  -3   6  10     47.53   11.55  0. 1.0000     0. 
   3   6 -10     54.27    8.69  0. 1.0000     0. 
  -3  -6 -10     60.35   13.90  0. 1.0000     0. 
   3  -6 -10     49.72    8.86  0. 1.0000     0. 
   3  -6 -10     42.58    8.33  0. 1.0000     0. 
  -3   6 -10     53.65   11.98  0. 1.0000     0. 
   3   6  10     49.63   10.17  0. 1.0000     0. 
   3   6  10     51.42   12.54  0. 1.0000     0. 
  -4   6  10     24.85    8.38  0. 1.0000     0. 
  -4   6  10     33.06   13.33  0. 1.0000     0. 
   4   6 -10     29.54    8.07  0. 1.0000     0. 
   4  -6  10     39.89   10.01  0. 1.0000     0. 
   4  -6 -10     37.95    8.71  0. 1.0000     0. 
  -4   6 -10     33.51   11.30  0. 1.0000     0. 
  -6   4  10     20.78    7.43  0. 1.0000     0. 
   4  -6 -10     35.79    7.40  0. 1.0000     0. 
   0  -7  10     77.10   12.42  0. 1.0000     0. 
   0   7  10     81.40   13.40  0. 1.0000     0. 
   0   7 -10    101.56   20.92  0. 1.0000     0. 
   0  -7 -10    113.98   18.16  0. 1.0000     0. 
   0  -7 -10    111.70   19.19  0. 1.0000     0. 
   0   7  10    119.22   16.94  0. 1.0000     0. 
   0   7  10     93.21   14.55  0. 1.0000     0. 
  -1   7  10     53.62   10.55  0. 1.0000     0. 
   1  -7  10     55.31   10.23  0. 1.0000     0. 
  -1  -7 -10     75.22   16.97  0. 1.0000     0. 
  -1   7  10     34.18    8.70  0. 1.0000     0. 
   1   7 -10     59.75    8.62  0. 1.0000     0. 
  -1   7  10     45.49   10.10  0. 1.0000     0. 
   1   7  10     61.92   11.23  0. 1.0000     0. 
  -1   7 -10     45.63   11.57  0. 1.0000     0. 
   1  -7 -10     84.18   16.61  0. 1.0000     0. 
  -1  -7  10     58.36   10.98  0. 1.0000     0. 
  -1   7 -10     48.86    8.76  0. 1.0000     0. 
   1   7  10     59.08   13.51  0. 1.0000     0. 
   1  -7 -10     71.27    9.90  0. 1.0000     0. 
   1  -7 -10     75.09   17.82  0. 1.0000     0. 
   2  -7  10     39.94   10.15  0. 1.0000     0. 
  -2   7  10     42.58   11.03  0. 1.0000     0. 
   2   7 -10     37.29    8.32  0. 1.0000     0. 
  -2   7  10     35.47   10.51  0. 1.0000     0. 
  -2  -7 -10     67.76   17.38  0. 1.0000     0. 
  -2   7  10     26.29    7.65  0. 1.0000     0. 
  -2  -7 -10     42.47   16.71  0. 1.0000     0. 
   2  -7 -10     38.29    7.89  0. 1.0000     0. 
   2   7  10     41.48   10.65  0. 1.0000     0. 
   2   7  10     59.91   12.91  0. 1.0000     0. 
   2  -7 -10     64.10   15.80  0. 1.0000     0. 
   2  -7 -10     78.39   16.18  0. 1.0000     0. 
  -2   7 -10     32.54   11.50  0. 1.0000     0. 
   2  -7 -10     39.85    8.72  0. 1.0000     0. 
   0   0 -11     14.10    8.38  0. 1.0000     0. 
   0   0  11      5.15   10.11  0. 1.0000     0. 
   0   0 -11     19.74   12.54  0. 1.0000     0. 
   0   1  11     10.68   11.23  0. 1.0000     0. 
  -1   0 -11     20.09   13.91  0. 1.0000     0. 
  -1   0  11     14.46    9.70  0. 1.0000     0. 
   0  -1  11      7.47    9.89  0. 1.0000     0. 
   1   0 -11      1.57   10.64  0. 1.0000     0. 
   0   1 -11      8.59    8.28  0. 1.0000     0. 
   0  -1 -11     11.37   12.15  0. 1.0000     0. 
   1   0 -11      9.80    7.57  0. 1.0000     0. 
  -1   0 -11      9.73    7.34  0. 1.0000     0. 
   1   0  11      9.42    9.89  0. 1.0000     0. 
   0   1 -11     13.53   11.65  0. 1.0000     0. 
   0  -1 -11      5.91    7.56  0. 1.0000     0. 
  -1   1 -11      8.76    7.77  0. 1.0000     0. 
   1  -1  11      0.56   10.08  0. 1.0000     0. 
   1  -1 -11     16.25   12.08  0. 1.0000     0. 
  -1   1 -11      4.62   12.59  0. 1.0000     0. 
  -1  -1 -11     12.71   13.08  0. 1.0000     0. 
  -1   1  11      4.63    8.67  0. 1.0000     0. 
  -1  -1 -11     -1.50    7.14  0. 1.0000     0. 
   1   1 -11      5.71   10.97  0. 1.0000     0. 
   1   1  11      5.26    9.85  0. 1.0000     0. 
  -1  -1  11     30.33    9.52  0. 1.0000     0. 
   1  -1 -11      2.24    7.22  0. 1.0000     0. 
  -2   0  11     14.68    9.62  0. 1.0000     0. 
   2   0 -11     13.12   12.37  0. 1.0000     0. 
   0   2 -11     12.35   12.13  0. 1.0000     0. 
   2   0 -11     15.00    7.40  0. 1.0000     0. 
   2   0  11      6.20    9.15  0. 1.0000     0. 
  -2   0 -11     21.73   11.83  0. 1.0000     0. 
   0  -2 -11     22.39   13.44  0. 1.0000     0. 
  -2   0 -11     19.41    8.51  0. 1.0000     0. 
   0  -2  11      3.36    9.23  0. 1.0000     0. 
   0   2  11     15.76   11.73  0. 1.0000     0. 
   0  -2 -11     15.82    8.22  0. 1.0000     0. 
   0   2 -11     13.68    8.50  0. 1.0000     0. 
  -2   1 -11     18.79   11.44  0. 1.0000     0. 
   2   1  11     27.38   10.96  0. 1.0000     0. 
  -1  -2 -11     17.07   13.49  0. 1.0000     0. 
   1   2 -11     16.06   10.69  0. 1.0000     0. 
  -1  -2 -11     24.27    8.17  0. 1.0000     0. 
  -2  -1  11     18.50    9.77  0. 1.0000     0. 
   1   2 -11     -1.35    7.19  0. 1.0000     0. 
  -2   1 -11     10.57    8.07  0. 1.0000     0. 
   1  -2  11     11.01   10.63  0. 1.0000     0. 
   2  -1 -11     19.64   11.91  0. 1.0000     0. 
  -1   2  11      6.18    8.70  0. 1.0000     0. 
   2  -1 -11     14.73    6.98  0. 1.0000     0. 
   1  -2 -11      4.13   11.98  0. 1.0000     0. 
  -1   2 -11     13.78    7.09  0. 1.0000     0. 
  -1  -2  11     16.95   10.33  0. 1.0000     0. 
   1  -2 -11     15.93    7.62  0. 1.0000     0. 
  -2   1  11      6.55   10.52  0. 1.0000     0. 
   2   1 -11      3.86   10.86  0. 1.0000     0. 
   2   1 -11      7.54    6.80  0. 1.0000     0. 
   2  -1  11      4.40    9.12  0. 1.0000     0. 
   1   2  11      7.33   10.19  0. 1.0000     0. 
  -2  -1 -11      8.92   11.23  0. 1.0000     0. 
  -1   2 -11     18.07   13.52  0. 1.0000     0. 
   2   2 -11      6.27    6.78  0. 1.0000     0. 
  -2  -2  11      3.04    9.74  0. 1.0000     0. 
   2  -2  11     12.97    9.97  0. 1.0000     0. 
  -2   2 -11      9.61    9.15  0. 1.0000     0. 
   2   2  11     -0.82   11.24  0. 1.0000     0. 
  -2  -2 -11      2.19   13.62  0. 1.0000     0. 
   2  -2 -11      5.59    7.75  0. 1.0000     0. 
   2  -2 -11     22.38   13.18  0. 1.0000     0. 
  -2   2  11     14.79   10.74  0. 1.0000     0. 
   2   2 -11     12.02   11.54  0. 1.0000     0. 
  -2   2 -11     13.44   10.98  0. 1.0000     0. 
   3   0 -11      9.82    7.85  0. 1.0000     0. 
   0   3 -11      9.02   12.10  0. 1.0000     0. 
  -3   0  11    -15.72   10.32  0. 1.0000     0. 
   0  -3  11     12.22   10.04  0. 1.0000     0. 
   3   0  11      0.35   10.98  0. 1.0000     0. 
   0  -3 -11      0.10    8.04  0. 1.0000     0. 
   0   3 -11      7.88    9.31  0. 1.0000     0. 
   0  -3 -11     12.46   14.39  0. 1.0000     0. 
  -3   0 -11     -3.16   12.68  0. 1.0000     0. 
   0   3  11      6.51   12.09  0. 1.0000     0. 
  -1  -3 -11     -7.55   13.90  0. 1.0000     0. 
  -3   1 -11    -10.58   14.23  0. 1.0000     0. 
  -1  -3 -11    -16.25    7.43  0. 1.0000     0. 
   1   3 -11     -3.32    8.38  0. 1.0000     0. 
   3   1  11     -0.48   11.03  0. 1.0000     0. 
   1  -3  11     -3.34   11.78  0. 1.0000     0. 
  -1   3  11      4.45   10.30  0. 1.0000     0. 
   3  -1 -11     -1.81    7.59  0. 1.0000     0. 
   1   3 -11    -15.13   12.94  0. 1.0000     0. 
   3   1 -11     -4.15    7.58  0. 1.0000     0. 
  -3  -1 -11     -2.47   12.60  0. 1.0000     0. 
  -3   1  11     -9.12   10.05  0. 1.0000     0. 
  -1  -3  11      9.75   10.15  0. 1.0000     0. 
   1   3  11     -4.65   10.03  0. 1.0000     0. 
  -1   3 -11     -7.97    8.76  0. 1.0000     0. 
  -1   3 -11      9.63   14.01  0. 1.0000     0. 
   3  -1  11    -10.97   11.92  0. 1.0000     0. 
   1  -3 -11     28.12   15.42  0. 1.0000     0. 
   1  -3 -11     19.18    8.76  0. 1.0000     0. 
  -2  -3 -11      1.49   12.71  0. 1.0000     0. 
   3  -2 -11     -0.29    7.07  0. 1.0000     0. 
  -3   2 -11     11.24   12.25  0. 1.0000     0. 
   3   2  11     -2.28   10.10  0. 1.0000     0. 
  -2   3  11      6.72    9.62  0. 1.0000     0. 
  -3  -2  11     15.71   11.18  0. 1.0000     0. 
   2  -3  11     -6.99    9.01  0. 1.0000     0. 
   2   3 -11     -2.79    6.97  0. 1.0000     0. 
  -2   3 -11      8.55   12.54  0. 1.0000     0. 
  -2  -3  11      2.02    9.83  0. 1.0000     0. 
   3   2 -11     -5.68    6.77  0. 1.0000     0. 
   2   3  11      2.66   10.12  0. 1.0000     0. 
   3  -2  11     12.95   10.44  0. 1.0000     0. 
  -3  -2 -11     -2.60   11.75  0. 1.0000     0. 
  -2   3 -11      5.66    7.79  0. 1.0000     0. 
   2  -3 -11     -5.48   11.78  0. 1.0000     0. 
  -3   2  11      2.96    9.75  0. 1.0000     0. 
   2  -3 -11     -1.62    7.21  0. 1.0000     0. 
  -3   3 -11      7.70   10.95  0. 1.0000     0. 
   3  -3 -11      0.80    6.33  0. 1.0000     0. 
   3   3  11     -4.70    9.27  0. 1.0000     0. 
  -3  -3  11     11.11   11.14  0. 1.0000     0. 
  -3  -3 -11      1.53   12.52  0. 1.0000     0. 
  -3   3  11     -0.68    9.49  0. 1.0000     0. 
   3  -3  11     -9.34    9.57  0. 1.0000     0. 
   3   3 -11      7.26    7.00  0. 1.0000     0. 
   0   4 -11      0.22    8.36  0. 1.0000     0. 
  -4   0 -11      6.77   12.94  0. 1.0000     0. 
   0  -4  11      0.17    8.90  0. 1.0000     0. 
   4   0  11      1.59   10.04  0. 1.0000     0. 
   0  -4 -11      6.65   14.35  0. 1.0000     0. 
   0   4  11     -2.04   11.07  0. 1.0000     0. 
   4   0 -11      6.93    7.58  0. 1.0000     0. 
   0  -4 -11      9.90    7.83  0. 1.0000     0. 
  -4   0  11     21.62   13.81  0. 1.0000     0. 
   0  -4 -11      3.61    9.07  0. 1.0000     0. 
   0   4 -11      1.26   10.53  0. 1.0000     0. 
  -4  -1  11      1.37   12.02  0. 1.0000     0. 
  -1  -4 -11      6.79   11.32  0. 1.0000     0. 
   1   4 -11     -2.07   11.36  0. 1.0000     0. 
   1   4 -11      2.65    7.03  0. 1.0000     0. 
   1  -4  11      7.52    9.99  0. 1.0000     0. 
   4  -1 -11     -1.79    7.30  0. 1.0000     0. 
  -1   4  11      9.34    9.08  0. 1.0000     0. 
  -1  -4 -11      4.76   13.18  0. 1.0000     0. 
   4   1  11      1.90   11.48  0. 1.0000     0. 
  -4   1 -11     -0.18   11.23  0. 1.0000     0. 
  -1  -4 -11      7.62    7.89  0. 1.0000     0. 
  -1   4 -11     -0.39    7.25  0. 1.0000     0. 
   1  -4 -11      3.32   14.84  0. 1.0000     0. 
  -1  -4  11      0.58    9.88  0. 1.0000     0. 
  -4  -1 -11      3.05   11.64  0. 1.0000     0. 
  -1   4 -11      4.62   10.70  0. 1.0000     0. 
   1   4  11      1.72    9.38  0. 1.0000     0. 
   1  -4 -11      2.11    7.32  0. 1.0000     0. 
   4  -1  11      3.02   10.29  0. 1.0000     0. 
  -4   1  11     -9.41   12.69  0. 1.0000     0. 
   4   1 -11      8.65    7.54  0. 1.0000     0. 
  -2  -4 -11      7.08   13.60  0. 1.0000     0. 
  -2  -4 -11     -7.50   12.67  0. 1.0000     0. 
  -2   4  11      1.13    9.54  0. 1.0000     0. 
   4  -2 -11      4.15    6.85  0. 1.0000     0. 
  -2  -4  11      5.00    9.39  0. 1.0000     0. 
   2  -4 -11     -0.32    7.43  0. 1.0000     0. 
   2   4  11      1.53   10.03  0. 1.0000     0. 
  -2   4 -11      1.45   12.10  0. 1.0000     0. 
   2  -4 -11      2.82   13.21  0. 1.0000     0. 
  -4   2  11     -4.05   12.69  0. 1.0000     0. 
   3  -4  11      2.75    8.61  0. 1.0000     0. 
   4  -3 -11      7.82    7.00  0. 1.0000     0. 
  -3  -4 -11     -1.15    9.54  0. 1.0000     0. 
   3   4 -11      3.90    6.76  0. 1.0000     0. 
   4   3  11     -1.00   10.24  0. 1.0000     0. 
  -4   3 -11      7.12   11.47  0. 1.0000     0. 
  -3   4  11     -2.53    9.57  0. 1.0000     0. 
   3   4  11      4.23    9.52  0. 1.0000     0. 
   4   3 -11     -1.17    7.51  0. 1.0000     0. 
  -3   4 -11      2.33   10.24  0. 1.0000     0. 
  -4   3  11     -3.06   12.03  0. 1.0000     0. 
   4  -3  11     -7.50   10.11  0. 1.0000     0. 
   3  -4 -11      6.19    5.93  0. 1.0000     0. 
  -3  -4  11      1.28   11.05  0. 1.0000     0. 
   5   0 -11     -2.11    7.29  0. 1.0000     0. 
   0   5  11      2.92   11.27  0. 1.0000     0. 
   0  -5 -11     -7.87   14.46  0. 1.0000     0. 
   0   5 -11      2.24   10.54  0. 1.0000     0. 
   0  -5 -11      1.68   10.81  0. 1.0000     0. 
   0  -5  11     -0.12    9.36  0. 1.0000     0. 
   0  -5 -11      7.56    7.71  0. 1.0000     0. 
   0   5 -11      5.96    8.86  0. 1.0000     0. 
  -1  -5 -11     10.76   13.41  0. 1.0000     0. 
  -1   5  11      5.66    8.57  0. 1.0000     0. 
  -1  -5 -11      0.08   14.28  0. 1.0000     0. 
   1   5 -11      2.02    7.00  0. 1.0000     0. 
   1  -5  11     -1.20    9.02  0. 1.0000     0. 
   1   5 -11      0.29   11.02  0. 1.0000     0. 
   5  -1 -11      4.39    7.03  0. 1.0000     0. 
  -1   5 -11     10.81    7.29  0. 1.0000     0. 
   1  -5 -11     -1.82    8.48  0. 1.0000     0. 
   1  -5 -11      0.33   10.40  0. 1.0000     0. 
  -1  -5  11      7.02    9.92  0. 1.0000     0. 
   1  -5 -11      4.56   15.43  0. 1.0000     0. 
   1   5  11     -1.77    9.56  0. 1.0000     0. 
   5   1 -11     -9.00    7.50  0. 1.0000     0. 
  -1   5 -11     -1.31   10.84  0. 1.0000     0. 
   5  -2 -11     10.13    7.05  0. 1.0000     0. 
  -2   5  11      0.81    9.87  0. 1.0000     0. 
  -2  -5 -11      1.04   14.22  0. 1.0000     0. 
  -2  -5 -11     22.22   14.61  0. 1.0000     0. 
   2  -5  11     -3.91   10.27  0. 1.0000     0. 
   2   5 -11      4.66    6.98  0. 1.0000     0. 
   5  -2  11     -8.34   10.96  0. 1.0000     0. 
  -2   5 -11      4.32   12.48  0. 1.0000     0. 
   2  -5 -11      3.83    6.08  0. 1.0000     0. 
   5   2 -11      0.27    7.34  0. 1.0000     0. 
  -2  -5  11      4.08   10.54  0. 1.0000     0. 
   2   5  11      0.58    9.79  0. 1.0000     0. 
   2  -5 -11     -3.65    7.73  0. 1.0000     0. 
  -2   5 -11     -7.29    8.28  0. 1.0000     0. 
   2  -5 -11      0.26   14.56  0. 1.0000     0. 
   0   0 -12     -2.52    8.56  0. 1.0000     0. 
   0   0  12     14.49   10.80  0. 1.0000     0. 
   0   0 -12      9.93   13.43  0. 1.0000     0. 
   0  -1 -12     14.25   13.82  0. 1.0000     0. 
   0   1 -12     11.87   12.83  0. 1.0000     0. 
   1   0 -12      7.19   11.94  0. 1.0000     0. 
   1   0  12     17.17   12.38  0. 1.0000     0. 
  -1   0  12     12.19   11.05  0. 1.0000     0. 
  -1   0 -12     17.45   14.37  0. 1.0000     0. 
   0   1 -12     19.49    8.74  0. 1.0000     0. 
   1   0 -12     18.45    8.45  0. 1.0000     0. 
  -1   0 -12      4.30    7.53  0. 1.0000     0. 
   0  -1 -12      7.12    8.19  0. 1.0000     0. 
   0  -1  12     25.54   10.38  0. 1.0000     0. 
   0   1  12     21.47   11.45  0. 1.0000     0. 
   1  -1  12     34.83   13.31  0. 1.0000     0. 
   1   1  12     36.07   13.32  0. 1.0000     0. 
  -1  -1  12     33.63   11.69  0. 1.0000     0. 
  -1   1  12     23.05   11.30  0. 1.0000     0. 
-512 
#   5314 reflections output 
;
loop_
_symmetry_equiv_pos_as_xyz
x,y,z
-x,-y,-z
-y,x,z
y,-x,-z
-x,-y,z
x,y,-z
y,-x,z
-y,x,-z
-x,y,z
x,-y,-z
y,x,z
-y,-x,-z
x,-y,z
-x,y,-z
-y,-x,z
y,x,-z
loop_
_atom_site_label
_atom_site_type_symbol
_atom_site_fract_x
_atom_site_fract_y
_atom_site_fract_z
_atom_site_U_iso_or_equiv
_atom_site_occupancy
_atom_site_adp_type
_atom_site_refinement_flags_posn
_atom_site_refinement_flags_adp
_atom_site_refinement_flags_occupancy
_atom_site_disorder_assembly
_atom_site_disorder_group
_atom_site_attached_hydrogens
Zn1 Zn 0.0000 0.0000 0.65366(12) 0.0271 1.0000 Uani S T . . . .
N1 N 0.0000 0.0000 0.8674(9) 0.0286 1.0000 Uani DS TU . . . .
O1 O 0.1779(6) 0.0608(6) 0.6167(6) 0.0461 0.5000 Uani D U . . . .
C1 C 0.2304(8) 0.0702(7) 0.5000 0.0447 0.5000 Uani DS TU . . . .
C2 C 0.3695(6) 0.0853(7) 0.5000 0.0406 0.5000 Uani DS TU . . . .
C3 C 0.4345(4) 0.0876(7) 0.6235(6) 0.0424 0.5000 Uani D U . . . .
C4 C -0.0913(4) -0.0913(4) 0.9202(5) 0.0564 0.3750 Uani DS TU . . . .
C5 C 0.0000 -0.1291(8) 0.9200(4) 0.0550 0.3750 Uani DS TU . . . .
H32 H 0.3909 0.0804 0.7089 0.0498 0.5000 Uiso R . . . . .
H41 H -0.1740 -0.0693 0.8869 0.0680 0.3750 Uiso R . . . . .
H51 H 0.0741 -0.1722 0.8869 0.0651 0.3750 Uiso R . . . . .
loop_
_atom_site_aniso_label
_atom_site_aniso_U_11
_atom_site_aniso_U_22
_atom_site_aniso_U_33
_atom_site_aniso_U_23
_atom_site_aniso_U_13
_atom_site_aniso_U_12
Zn1 0.0305(7) 0.0305(7) 0.0203(7) 0.0000 0.0000 0.0000
N1 0.034(3) 0.034(3) 0.017(4) 0.0000 0.0000 0.0000
O1 0.035(3) 0.059(3) 0.044(3) -0.003(3) 0.002(2) -0.007(2)
C1 0.038(3) 0.055(5) 0.042(3) 0.0000 0.0000 -0.003(4)
C2 0.036(3) 0.053(5) 0.033(4) 0.0000 0.0000 0.002(4)
C3 0.036(3) 0.063(5) 0.028(3) -0.009(4) 0.004(2) -0.001(4)
C4 0.070(5) 0.070(5) 0.029(5) -0.002(2) -0.002(2) -0.039(5)
C5 0.110(9) 0.030(3) 0.025(5) -0.005(3) 0.0000 0.0000
loop_
_atom_type_symbol
_atom_type_scat_dispersion_real
_atom_type_scat_dispersion_imag
_atom_type_scat_Cromer_Mann_a1
_atom_type_scat_Cromer_Mann_b1
_atom_type_scat_Cromer_Mann_a2
_atom_type_scat_Cromer_Mann_b2
_atom_type_scat_Cromer_Mann_a3
_atom_type_scat_Cromer_Mann_b3
_atom_type_scat_Cromer_Mann_a4
_atom_type_scat_Cromer_Mann_b4
_atom_type_scat_Cromer_Mann_c
_atom_type_scat_source
C 0.0006 0.0007 2.3100 20.8439 1.0200 10.2075 1.5886 0.5687 0.8650 51.6512
0.2156 'International Tables Vol C 4.2.6.8 and 6.1.1.4'
H 0.0000 0.0000 0.4930 10.5109 0.3229 26.1257 0.1402 3.1424 0.0408 57.7998
0.0030 'International Tables Vol C 4.2.6.8 and 6.1.1.4'
N 0.0016 0.0014 12.2126 0.0057 3.1322 9.8933 2.0125 28.9975 1.1663 0.5826
-11.5290 'International Tables Vol C 4.2.6.8 and 6.1.1.4'
O 0.0036 0.0026 3.0485 13.2771 2.2868 5.7011 1.5463 0.3239 0.8670 32.9089
0.2508 'International Tables Vol C 4.2.6.8 and 6.1.1.4'
Zn 0.3043 0.7253 14.0743 3.2655 7.0318 0.2333 5.1652 10.3163 2.4100 58.7097
1.3041 'International Tables Vol C 4.2.6.8 and 6.1.1.4'
loop_
_geom_angle_atom_site_label_1
_geom_angle_site_symmetry_1
_geom_angle_atom_site_label_2
_geom_angle_site_symmetry_2
_geom_angle_atom_site_label_3
_geom_angle_site_symmetry_3
_geom_angle
_geom_angle_publ_flag
Zn1 2_556 Zn1 . O1 3_555 79.93(16) yes
Zn1 2_556 Zn1 . O1 11_555 79.93(16) yes
O1 3_555 Zn1 . O1 11_555 37.1(3) yes
Zn1 2_556 Zn1 . O1 13_555 79.93(16) yes
O1 3_555 Zn1 . O1 13_555 124.2(3) yes
O1 11_555 Zn1 . O1 13_555 88.25(6) yes
Zn1 2_556 Zn1 . O1 9_555 79.93(16) yes
O1 3_555 Zn1 . O1 9_555 51.4(3) yes
O1 11_555 Zn1 . O1 9_555 88.25(5) yes
O1 13_555 Zn1 . O1 9_555 159.9(3) yes
Zn1 2_556 Zn1 . O1 . 79.93(16) yes
O1 3_555 Zn1 . O1 . 88.25(5) yes
O1 11_555 Zn1 . O1 . 51.4(3) yes
O1 13_555 Zn1 . O1 . 37.1(3) yes
O1 9_555 Zn1 . O1 . 137.4(3) yes
Zn1 2_556 Zn1 . N1 . 179.99 yes
O1 3_555 Zn1 . N1 . 100.07(16) yes
O1 11_555 Zn1 . N1 . 100.07(16) yes
O1 13_555 Zn1 . N1 . 100.07(16) yes
O1 9_555 Zn1 . N1 . 100.07(16) yes
O1 . Zn1 . N1 . 100.07(16) yes
C5 15_555 N1 . C5 5_555 83.2(3) yes
C5 15_555 N1 . C5 7_555 139.6(8) yes
C5 5_555 N1 . C5 7_555 83.2(3) yes
C5 15_555 N1 . C4 7_555 120.2(5) yes
C5 5_555 N1 . C4 7_555 42.09(11) yes
C5 7_555 N1 . C4 7_555 42.09(11) yes
C5 15_555 N1 . C4 3_555 42.09(11) yes
C5 5_555 N1 . C4 3_555 120.2(5) yes
C5 7_555 N1 . C4 3_555 120.2(5) yes
C4 7_555 N1 . C4 3_555 139.5(8) yes
C5 15_555 N1 . C4 5_555 42.09(11) yes
C5 5_555 N1 . C4 5_555 42.09(11) yes
C5 7_555 N1 . C4 5_555 120.2(5) yes
C4 7_555 N1 . C4 5_555 83.1(3) yes
C4 3_555 N1 . C4 5_555 83.1(3) yes
C5 15_555 N1 . C4 . 120.2(5) yes
C5 5_555 N1 . C4 . 120.2(5) yes
C5 7_555 N1 . C4 . 42.09(11) yes
C4 7_555 N1 . C4 . 83.1(3) yes
C4 3_555 N1 . C4 . 83.1(3) yes
C5 15_555 N1 . C5 . 83.2(3) yes
C5 5_555 N1 . C5 . 139.6(8) yes
C5 7_555 N1 . C5 . 83.2(3) yes
C4 7_555 N1 . C5 . 120.2(5) yes
C4 3_555 N1 . C5 . 42.09(11) yes
C5 15_555 N1 . Zn1 . 110.2(4) yes
C5 5_555 N1 . Zn1 . 110.2(4) yes
C5 7_555 N1 . Zn1 . 110.2(4) yes
C4 7_555 N1 . Zn1 . 110.3(4) yes
C4 3_555 N1 . Zn1 . 110.3(4) yes
C4 5_555 N1 . C4 . 139.5(8) yes
C4 5_555 N1 . C5 . 120.2(5) yes
C4 . N1 . C5 . 42.09(11) yes
C4 5_555 N1 . Zn1 . 110.3(4) yes
C4 . N1 . Zn1 . 110.3(4) yes
C5 . N1 . Zn1 . 110.2(4) yes
O1 11_555 O1 . O1 13_555 135.000(3) yes
O1 11_555 O1 . Zn1 . 64.30(17) yes
O1 13_555 O1 . Zn1 . 71.44(17) yes
O1 11_555 O1 . C1 . 104.9(4) yes
O1 13_555 O1 . C1 . 94.6(4) yes
Zn1 . O1 . C1 . 126.5(5) yes
C1 13_555 C1 . O1 6_556 85.4(4) yes
C1 13_555 C1 . O1 . 85.4(4) yes
O1 6_556 C1 . O1 . 126.4(8) yes
C1 13_555 C1 . C2 . 96.2(4) yes
O1 6_556 C1 . C2 . 116.8(4) yes
O1 . C1 . C2 . 116.8(4) yes
C1 . C2 . C3 6_556 120.2(3) yes
C1 . C2 . C2 10_556 83.8(4) yes
C3 6_556 C2 . C2 10_556 91.0(4) yes
C1 . C2 . C3 . 120.2(3) yes
C3 6_556 C2 . C3 . 119.5(6) yes
C2 10_556 C2 . C3 . 91.0(4) yes
C3 9_655 C3 . C2 . 120.2(3) yes
C3 9_655 C3 . H32 . 119.4 no
C2 . C3 . H32 . 120.1 no
C4 6_557 C4 . N1 . 110.3(4) yes
C4 6_557 C4 . H41 11_555 109.3 no
N1 . C4 . H41 11_555 109.2 no
C4 6_557 C4 . H41 . 109.3 no
N1 . C4 . H41 . 109.2 no
H41 11_555 C4 . H41 . 109.5 no
C5 6_557 C5 . N1 . 110.2(4) yes
C5 6_557 C5 . H51 9_555 109.2 no
N1 . C5 . H51 9_555 109.3 no
C5 6_557 C5 . H51 . 109.2 no
N1 . C5 . H51 . 109.3 no
H51 9_555 C5 . H51 . 109.5 no
loop_
_geom_bond_atom_site_label_1
_geom_bond_site_symmetry_1
_geom_bond_atom_site_label_2
_geom_bond_site_symmetry_2
_geom_bond_distance
_geom_bond_publ_flag
Zn1 . Zn1 2_556 2.966(2) yes
Zn1 . O1 3_555 2.041(6) yes
Zn1 . O1 11_555 2.041(6) yes
Zn1 . O1 13_555 2.041(6) yes
Zn1 . O1 9_555 2.041(6) yes
Zn1 . O1 . 2.041(6) yes
Zn1 . N1 . 2.063(9) yes
N1 . C5 15_555 1.471(8) yes
N1 . C5 5_555 1.471(8) yes
N1 . C5 7_555 1.471(8) yes
N1 . C4 7_555 1.471(4) yes
N1 . C4 3_555 1.471(4) yes
N1 . C4 5_555 1.471(4) yes
N1 . C4 . 1.471(4) yes
N1 . C5 . 1.471(8) yes
O1 . O1 11_555 1.771(13) yes
O1 . O1 13_555 1.300(12) yes
O1 . C1 . 1.262(6) yes
C1 . C1 13_555 1.501(16) yes
C1 . C2 . 1.496(8) yes
C2 . C3 6_556 1.380(5) yes
C2 . C2 10_556 1.823(15) yes
C2 . C3 . 1.380(5) yes
C3 . C3 9_655 1.400(8) yes
C3 . H32 . 0.950 no
C4 . C4 6_557 1.541(9) yes
C4 . H41 11_555 0.970 no
C4 . H41 . 0.970 no
C5 . C5 6_557 1.544(9) yes
C5 . H51 9_555 0.970 no
C5 . H51 . 0.970 no
loop_
_platon_squeeze_void_nr
_platon_squeeze_void_average_x
_platon_squeeze_void_average_y
_platon_squeeze_void_average_z
_platon_squeeze_void_volume
_platon_squeeze_void_count_electrons
_platon_squeeze_void_content
1 -0.024 0.478 -0.013 502 158 '4(C3H7NO) '
loop_
_oxford_refln_omitted_index_h
_oxford_refln_omitted_index_k
_oxford_refln_omitted_index_l
_oxford_refln_omitted_flag
_oxford_refln_omitted_details
1 2 1 x .
1 2 8 x .
1 2 3 x .
0 2 2 x .
1 1 4 x .
7 8 4 x .
7 7 5 x .
7 7 6 x .
1 1 8 x .
1 6 5 x .
1 3 8 x .
0 3 8 x .
2 6 5 x .
1 4 2 x .
2 2 1 x .
0 6 5 x .
3 6 5 x .
2 4 1 x .
0 3 1 x .
0 3 2 x .
0 1 6 x .
2 6 2 x .
0 8 0 x .
8 8 6 x .
5 6 6 x .
7 9 6 x .
2 4 2 x .
1 4 8 x .
0 1 9 x .
7 10 4 x .
6 8 2 x .
5 8 1 x .
7 7 8 x .
1 1 6 x .
4 6 8 x .
6 7 8 x .
0 4 1 x .
2 6 6 x .
1 1 2 x .
0 3 0 x .
6 7 4 x .
1 3 2 x .
4 4 6 x .
