#------------------------------------------------------------------------------
#$Date: 2021-09-07 09:59:28 +0300 (Tue, 07 Sep 2021) $
#$Revision: 268999 $
#$URL: file:///home/coder/svn-repositories/cod/cif/1/56/45/1564556.cif $
#------------------------------------------------------------------------------
#
# This file is available in the Crystallography Open Database (COD),
# http://www.crystallography.net/
#
# All data on this site have been placed in the public domain by the
# contributors.
#
data_1564556
loop_
_publ_author_name
'Yakushev, Ilya A.'
'Stolarov, Igor P.'
'Cherkashina, Natalia V.'
'Churakov, Andrei V.'
'Zubavichus, Yan V.'
'Markov, Alexander A.'
'Gekhman, Alexander E.'
'Vargaftik, Michael N.'
_publ_section_title
;
 Two routes to platinum-based carboxylate-bridged heterometallics
;
_journal_name_full               'Inorganica Chimica Acta'
_journal_page_first              119631
_journal_paper_doi               10.1016/j.ica.2020.119631
_journal_volume                  508
_journal_year                    2020
_chemical_formula_moiety         'C10 H15 In O10 Pt'
_chemical_formula_sum            'C10 H15 In O10 Pt'
_chemical_formula_weight         605.13
_space_group_crystal_system      triclinic
_space_group_IT_number           2
_space_group_name_Hall           '-P 1'
_space_group_name_H-M_alt        'P -1'
_atom_sites_solution_hydrogens   geom
_atom_sites_solution_primary     difmap
_cell_angle_alpha                84.503(6)
_cell_angle_beta                 84.73(2)
_cell_angle_gamma                73.600(10)
_cell_formula_units_Z            2
_cell_length_a                   7.2270(11)
_cell_length_b                   8.6700(5)
_cell_length_c                   12.8960(11)
_cell_measurement_reflns_used    9808
_cell_measurement_temperature    100(2)
_cell_measurement_theta_max      31.072
_cell_measurement_theta_min      1.795
_cell_volume                     769.82(15)
_computing_cell_refinement       'XDS (Kabsch, 2010)'
_computing_data_collection       'MarCCD (Doyle, 2011)'
_computing_data_reduction        'XDS (Kabsch, 2010)'
_computing_molecular_graphics    'Bruker SHELXTL'
_computing_publication_material  'Bruker SHELXTL'
_computing_structure_refinement  'SHELXL-2017/1 (Sheldrick, 2017)'
_computing_structure_solution    'SHELXT 2014/5 (Sheldrick, 2014)'
_diffrn_ambient_temperature      100(2)
_diffrn_measured_fraction_theta_full 0.994
_diffrn_measured_fraction_theta_max 0.988
_diffrn_measurement_device_type  'Rayonis SX165 CCD'
_diffrn_measurement_method       \f
_diffrn_radiation_type           synchrotron
_diffrn_radiation_wavelength     0.80241
_diffrn_reflns_av_R_equivalents  0.0402
_diffrn_reflns_av_unetI/netI     0.0280
_diffrn_reflns_Laue_measured_fraction_full 0.994
_diffrn_reflns_Laue_measured_fraction_max 0.988
_diffrn_reflns_limit_h_max       9
_diffrn_reflns_limit_h_min       -9
_diffrn_reflns_limit_k_max       11
_diffrn_reflns_limit_k_min       -11
_diffrn_reflns_limit_l_max       16
_diffrn_reflns_limit_l_min       -16
_diffrn_reflns_number            17460
_diffrn_reflns_point_group_measured_fraction_full 0.994
_diffrn_reflns_point_group_measured_fraction_max 0.988
_diffrn_reflns_theta_full        28.780
_diffrn_reflns_theta_max         31.072
_diffrn_reflns_theta_min         1.795
_exptl_absorpt_coefficient_mu    14.488
_exptl_absorpt_correction_T_max  1.000
_exptl_absorpt_correction_T_min  0.001
_exptl_absorpt_correction_type   empirical
_exptl_absorpt_process_details   'XDS (Kabsch, 2010)'
_exptl_crystal_colour            colourless
_exptl_crystal_density_diffrn    2.611
_exptl_crystal_description       prism
_exptl_crystal_F_000             564
_exptl_crystal_recrystallization_method
'Re-crystallisation from solvent: benzene'
_exptl_crystal_size_max          0.120
_exptl_crystal_size_mid          0.100
_exptl_crystal_size_min          0.080
_refine_diff_density_max         1.369
_refine_diff_density_min         -1.840
_refine_diff_density_rms         0.198
_refine_ls_extinction_coef       0.0107(7)
_refine_ls_extinction_expression Fc^*^=kFc[1+0.001xFc^2^\l^3^/sin(2\q)]^-1/4^
_refine_ls_extinction_method     'SHELXL-2017/1 (Sheldrick 2017)'
_refine_ls_goodness_of_fit_ref   1.099
_refine_ls_hydrogen_treatment    constr
_refine_ls_matrix_type           full
_refine_ls_number_parameters     205
_refine_ls_number_reflns         3399
_refine_ls_number_restraints     0
_refine_ls_restrained_S_all      1.099
_refine_ls_R_factor_all          0.0315
_refine_ls_R_factor_gt           0.0311
_refine_ls_shift/su_max          0.001
_refine_ls_shift/su_mean         0.000
_refine_ls_structure_factor_coef Fsqd
_refine_ls_weighting_details
'w=1/[\s^2^(Fo^2^)+(0.0609P)^2^+1.1339P] where P=(Fo^2^+2Fc^2^)/3'
_refine_ls_weighting_scheme      calc
_refine_ls_wR_factor_gt          0.0853
_refine_ls_wR_factor_ref         0.0856
_reflns_Friedel_coverage         0.000
_reflns_Friedel_fraction_full    .
_reflns_Friedel_fraction_max     .
_reflns_number_gt                3325
_reflns_number_total             3399
_reflns_threshold_expression     'I > 2\s(I)'
_cod_data_source_file            ICA-2020-508-1196313.cif
_cod_data_source_block           3
_cod_depositor_comments
;
The following automatic conversions were performed:

data item '_exptl_crystal_density_meas' value 'not measured' was
changed to '?' -- the value is perceived as not measured.

Automatic conversion script
Id: cif_fix_values 8369 2020-08-20 11:38:08Z andrius 
;
_cod_database_code               1564556
_shelx_space_group_comment
;
The symmetry employed for this shelxl refinement is uniquely defined
by the following loop, which should always be used as a source of
symmetry information in preference to the above space-group names.
They are only intended as comments.
;
_shelx_estimated_absorpt_t_min   0.275
_shelx_estimated_absorpt_t_max   0.390
_shelx_res_file
;
TITL 1_a.res in P-1
    ptinch.res
    created by SHELXL-2017/1 at 01:22:23 on 14-Sep-2019
REM Old TITL 1 in P-1
REM SHELXT solution in P-1
REM R1 0.079, Rweak 0.011, Alpha 0.133, Orientation as input
REM Formula found by SHELXT: C14 O9 In Pt
CELL 0.80241 7.227 8.67 12.896 84.503 84.73 73.6
ZERR 2 0.0011 0.0005 0.0011 0.006 0.02 0.01
LATT 1
SFAC C H In O Pt
DISP C 0.005 0.002 15.071
DISP H -0 0 0.629
DISP In -0.4874 1.6336 7840.192
DISP O 0.015 0.008 45.138
DISP Pt -3.1221 10.1986 47314.572
UNIT 20 30 2 20 2

L.S. 12
PLAN  20
SIZE 0.12 0.1 0.08
TEMP -173
BOND $H
CONF
fmap 2
acta
OMIT 8 -1 7
OMIT 1 -4 2
OMIT 7 0 11
OMIT 6 -6 2
OMIT -5 0 13

WGHT    0.060900    1.133900
EXTI    0.010735
FVAR       5.15767
PT1   5    0.023535    0.434752    0.344539    11.00000    0.02382    0.02278 =
         0.02356   -0.00294   -0.00037   -0.00590
IN1   3    0.308101    0.228137    0.239028    11.00000    0.02463    0.02219 =
         0.02381   -0.00222   -0.00025   -0.00688
O11   4    0.140705    0.069984    0.313786    11.00000    0.03181    0.02176 =
         0.03534   -0.00184    0.00628   -0.00917
C11   1   -0.018158    0.113586    0.367473    11.00000    0.02382    0.02921 =
         0.02713    0.00105   -0.00215   -0.00842
O12   4   -0.096608    0.254860    0.395659    11.00000    0.02562    0.02350 =
         0.03235   -0.00109    0.00308   -0.00812
C12   1   -0.124925   -0.010531    0.400627    11.00000    0.02158    0.02790 =
         0.03626    0.00258   -0.00306   -0.00836
AFIX 137
H12A  2   -0.207227    0.020183    0.464238    11.00000   -1.50000
H12B  2   -0.031831   -0.115735    0.414364    11.00000   -1.50000
H12C  2   -0.205374   -0.017018    0.344911    11.00000   -1.50000
AFIX   0
O21   4    0.076959    0.292717    0.129368    11.00000    0.02656    0.03238 =
         0.02864   -0.00687   -0.00331   -0.00629
C21   1   -0.078760    0.399300    0.139692    11.00000    0.02472    0.02889 =
         0.02553   -0.00103   -0.00129   -0.00714
O22   4   -0.138910    0.481906    0.220555    11.00000    0.02517    0.03118 =
         0.02468   -0.00343   -0.00418   -0.00434
C22   1   -0.214827    0.439718    0.052950    11.00000    0.03125    0.03747 =
         0.02602    0.00105   -0.00424   -0.01419
AFIX 137
H22A  2   -0.328179    0.400628    0.074575    11.00000   -1.50000
H22B  2   -0.148591    0.387968   -0.009703    11.00000   -1.50000
H22C  2   -0.256150    0.556826    0.037601    11.00000   -1.50000
AFIX   0
O31   4    0.372418    0.457057    0.195291    11.00000    0.03077    0.02455 =
         0.03709   -0.00497    0.00788   -0.01260
C31   1    0.282468    0.591891    0.226639    11.00000    0.03091    0.02717 =
         0.02566   -0.00244   -0.00260   -0.01083
O32   4    0.134427    0.618315    0.292045    11.00000    0.03230    0.02309 =
         0.03406   -0.00101    0.00280   -0.01286
C32   1    0.353261    0.735190    0.187466    11.00000    0.04459    0.02763 =
         0.03583   -0.00480    0.00240   -0.01580
AFIX 137
H32A  2    0.265724    0.832557    0.215697    11.00000   -1.50000
H32B  2    0.356833    0.746803    0.111023    11.00000   -1.50000
H32C  2    0.483458    0.719796    0.210095    11.00000   -1.50000
AFIX   0
O41   4    0.435524    0.231884    0.387653    11.00000    0.02629    0.03795 =
         0.02936   -0.00738   -0.00707    0.00023
C41   1    0.355591    0.308048    0.465109    11.00000    0.02839    0.03014 =
         0.03017   -0.00141   -0.00431   -0.00984
O42   4    0.181974    0.396965    0.471307    11.00000    0.02260    0.02980 =
         0.02898   -0.00710   -0.00227   -0.00335
C42   1    0.464683    0.295203    0.559493    11.00000    0.03677    0.04035 =
         0.02838   -0.00669   -0.00209   -0.00888
AFIX 137
H42A  2    0.396165    0.380850    0.604805    11.00000   -1.50000
H42B  2    0.594288    0.306358    0.538305    11.00000   -1.50000
H42C  2    0.475412    0.189945    0.597501    11.00000   -1.50000
AFIX   0
O51   4    0.549478    0.008814    0.232956    11.00000    0.02812    0.02798 =
         0.03155   -0.00388   -0.00030   -0.00406
C51   1    0.600654    0.040101    0.138050    11.00000    0.02520    0.02743 =
         0.03520   -0.00759   -0.00073   -0.01029
O52   4    0.497652    0.163485    0.089076    11.00000    0.03676    0.03260 =
         0.03176   -0.00516    0.00490   -0.00588
C52   1    0.777919   -0.068181    0.088242    11.00000    0.04247    0.03841 =
         0.04316   -0.00957    0.00611   -0.00379
AFIX 137
H52A  2    0.877662   -0.010916    0.073863    11.00000   -1.50000
H52B  2    0.747083   -0.100750    0.022668    11.00000   -1.50000
H52C  2    0.825597   -0.164093    0.135437    11.00000   -1.50000

AFIX   0
HKLF 4




REM  1_a.res in P-1
REM R1 =  0.0311 for    3325 Fo > 4sig(Fo)  and  0.0315 for all    3399 data
REM    205 parameters refined using      0 restraints

END

WGHT      0.0609      1.1339

REM Highest difference peak  1.369,  deepest hole -1.840,  1-sigma level  0.198
Q1    1  -0.0816  0.4426  0.2619  11.00000  0.05    1.25
Q2    1  -0.0046  0.3361  0.4204  11.00000  0.05    1.23
Q3    1  -0.0877  0.3929  0.4213  11.00000  0.05    1.17
Q4    1   0.0769  0.5133  0.2675  11.00000  0.05    1.13
Q5    1   0.3334  0.1375  0.1626  11.00000  0.05    1.12
Q6    1  -0.1142  0.3772  0.3384  11.00000  0.05    1.11
Q7    1   0.2662  0.3665  0.5478  11.00000  0.05    1.08
Q8    1   0.6386 -0.1021  0.0672  11.00000  0.05    1.07
Q9    1   0.1247  0.4213  0.4372  11.00000  0.05    0.99
Q10   1   0.0167  0.3401  0.2740  11.00000  0.05    0.95
Q11   1   0.0260  0.5120  0.4222  11.00000  0.05    0.91
Q12   1   0.0238  0.3934  0.3986  11.00000  0.05    0.88
Q13   1   0.1530  0.5213  0.3452  11.00000  0.05    0.86
Q14   1   0.3353  0.3270  0.1645  11.00000  0.05    0.73
Q15   1   0.2630  0.1206  0.3166  11.00000  0.05    0.70
Q16   1   0.0794  0.3064  0.0420  11.00000  0.05    0.67
Q17   1   0.3199  0.2855  0.3219  11.00000  0.05    0.67
Q18   1   0.1215  0.6188  0.2434  11.00000  0.05    0.67
Q19   1   0.1893  0.2628  0.1571  11.00000  0.05    0.66
Q20   1   0.2102  0.1800  0.3209  11.00000  0.05    0.65
;
_shelx_res_checksum              33691
_shelx_hkl_file
;
   0   0  -1 130782. 5536.31   1
   0   0  -1 106341. 7254.18   1
   0   0   1 131899. 5583.79   1
   0   0   1 100614. 6865.91   1
   0   0  -2 382960.  26047.   1
   0   0   2 447486.  18869.   1
   0   0   2 378771.  25757.   1
   0   0  -3 111816. 4798.88   1
   0   0  -3 111816. 7684.35   1
   0   0   3 123184. 5279.32   1
   0   0   3 109497. 7533.51   1
   0   0  -4  33184. 1525.98   1
   0   0  -4  32709. 2351.67   1
   0   0   4  34776. 1606.98   1
   0   0   4  31201. 2254.75   1
   0   0   5 8977.64 591.340   1
   0   0   5 8611.72 775.418   1
   0   0  -6 9583.79 594.413   1
   0   0  -6  11676. 992.178   1
   0   0   6 9600.55 622.346   1
   0   0   6 9837.98 858.100   1
   0   0  -7 373463.  15860.   1
   0   0  -7 403631.  27533.   1
   0   0   7 370391.  15740.   1
   0   0   7 313966.  21427.   1
   0   0   7 387709.  26464.   1
   0   0  -8  71452. 3192.73   1
   0   0  -8  78994. 5519.55   1
   0   0   8  69776. 3136.87   1
   0   0   8  78855. 5505.58   1
   0   0   8  70754. 4941.34   1
   0   0  -9 264301.  11279.   1
   0   0  -9 274860.  18802.   1
   0   0   9 258603.  11078.   1
   0   0   9 273938.  18723.   1
   0   0   9 250167.  17115.   1
   0   0 -10 233910.  10006.   1
   0   0 -10 256787.  17573.   1
   0   0  10 233128. 9994.40   1
   0   0  10 231592.  15849.   1
   0   0  10 250949.  17168.   1
   0   0 -11  11433. 731.563   1
   0   0 -11  10955. 948.882   1
   0   0  11 9905.02 722.904   1
   0   0  11  10972. 953.630   1
   0   0  11  10902. 922.345   1
   0   0 -12  69916. 3131.28   1
   0   0 -12  74022. 5173.18   1
   0   0  12  65950. 2994.41   1
   0   0  12  69078. 4837.98   1
   0   0  12  79721. 5555.86   1
   0   0 -13 9960.88 718.994   1
   0   0 -13 9835.18 859.496   1
   0   0  13  10215. 735.753   1
   0   0  13  10338. 911.172   1
   0   0  13  11346. 968.155   1
   0   0 -14  605.03 413.128   1
   0   0 -14 1698.32 392.458   1
   0   0  14 1095.53 482.681   1
   0   0  14 1124.86 399.720   1
   0   0  14 1252.51 393.575   1
   0   0 -15  429.05 468.715   1
   0   0 -15 1251.12 407.262   1
   0   0  15 1111.17 533.519   1
   0   0  15 1218.43 412.569   1
   0   0  15 1081.56 466.759   1
   0   0 -16  21075. 1199.16   1
   0   0 -16  25480. 1882.12   1
   0   0  16  25221. 1378.21   1
   0   0  16  26587. 1947.76   1
   0   0  16  27344. 2000.84   1
   0  -1  16  13472. 941.060   1
   0  -1  16  14000. 1180.45   1
   0  -1  16  16092. 1307.26   1
   0   1 -16  13221. 859.776   1
   0   1 -16  14134. 1132.12   1
   0  -1  15  16802. 1034.36   1
   0  -1  15  18969. 1461.45   1
   0  -1  15  21221. 1628.77   1
   0   1 -15  20148. 1139.66   1
   0   1 -15  20550. 1569.83   1
   0  -1  14  15707. 948.882   1
   0  -1  14  18916. 1450.00   1
   0  -1  14  19201. 1497.76   1
   0   1 -14  17645. 1031.00   1
   0   1 -14  19908. 1516.48   1
   0  -1  13 182598. 7865.91   1
   0  -1  13 180112.  12352.   1
   0  -1  13 184860.  12693.   1
   0   1 -13 175307. 7533.51   1
   0   1 -13 181145.  12430.   1
   0  -1  12  46480. 2179.89   1
   0  -1  12  48240. 3421.78   1
   0  -1  12  46788. 3337.99   1
   0   1 -12  46732. 2196.65   1
   0   1 -12  48631. 3466.48   1
   0  -1  11 102318. 4508.38   1
   0  -1  11 123017. 8488.82   1
   0  -1  11 115810. 8016.75   1
   0   1 -11 107793. 4723.46   1
   0   1 -11 123938. 8578.20   1
   0  -1  10 226620. 9701.11   1
   0  -1  10 257290.  17606.   1
   0  -1  10 221983.  15209.   1
   0   1 -10 222849. 9527.92   1
   0   1 -10 269581.  18447.   1
   0  -1   9 7019.55 558.659   1
   0  -1   9 8449.71 776.256   1
   0  -1   9 7963.68 757.541   1
   0   1  -9 8103.34 582.681   1
   0   1  -9 8659.21 817.318   1
   0  -1   8  59888. 2710.61   1
   0  -1   8  62318. 4374.30   1
   0   1  -8  65223. 2916.20   1
   0   1  -8  72681. 5106.14   1
   0  -1   7  22419. 1135.47   1
   0  -1   7  21746. 1629.05   1
   0   1  -7  21849. 1107.82   1
   0   1  -7  26385. 1966.20   1
   0  -1   6  96508. 4223.46   1
   0  -1   6  96899. 6720.66   1
   0   1  -6 103436. 4513.96   1
   0   1  -6 110614. 7664.80   1
   0  -1   5 4673.18 401.955   1
   0  -1   5 4301.67 488.826   1
   0   1  -5 5581.00 431.843   1
   0   1  -5 4307.26 517.877   1
   0  -1   4 101508. 4393.85   1
   0  -1   4  92235. 6379.88   1
   0   1  -4  97374. 4220.67   1
   0   1  -4  86816. 6013.96   1
   0  -1   3 227570. 9659.21   1
   0  -1   3 212598.  14517.   1
   0   1  -3 223659. 9499.99   1
   0   1  -3 203352.  13897.   1
   0  -1   2 1188.83 192.206   1
   0  -1   2  990.22 224.720   1
   0   1  -2 1188.55 195.754   1
   0   1  -2 1165.36 240.838   1
   0  -1  -1 215391. 9100.55   1
   0  -1  -1 241508.  16411.   1
   0  -1  -1 222737.  15137.   1
   0   1   1 233380. 9854.74   1
   0   1   1 228240.  15508.   1
   0  -1  -2 181424. 7689.94   1
   0  -1  -2 160922.  10966.   1
   0  -1  -2 192262.  13098.   1
   0   1   2 183156. 7768.15   1
   0   1   2 182430.  12433.   1
   0   1   2 183882.  12522.   1
   0  -1  -3 112262. 4821.22   1
   0  -1  -3 105140. 7220.66   1
   0   1   3 109944. 4726.25   1
   0   1   3 110642. 7594.96   1
   0   1   3  97262. 6675.97   1
   0  -1  -4  31397. 1450.28   1
   0  -1  -4  30000. 2148.88   1
   0   1   4  31816. 1485.19   1
   0   1   4  27802. 1989.94   1
   0   1   4  27324. 1981.84   1
   0  -1  -5 2877.09 330.447   1
   0  -1  -5 1556.98 323.184   1
   0   1   5 2558.38 337.988   1
   0   1   5 1624.86 304.469   1
   0   1   5 1650.28 344.692   1
   0  -1  -6 514804.  21777.   1
   0  -1  -6 550279.  37458.   1
   0   1   6 555027.  23497.   1
   0   1   6 512290.  34860.   1
   0   1   6 446927.  30419.   1
   0  -1  -7 343296.  14589.   1
   0  -1  -7 360893.  24612.   1
   0   1   7 370391.  15754.   1
   0   1   7 317597.  21654.   1
   0   1   7 387430.  26436.   1
   0  -1  -8 151396. 6536.31   1
   0  -1  -8 148575.  10223.   1
   0   1   8 154385. 6689.94   1
   0   1   8 157179.  10824.   1
   0   1   8 145670.  10025.   1
   0  -1  -9 415363.  17634.   1
   0  -1  -9 448324.  30559.   1
   0   1   9 432681.  18391.   1
   0   1   9 439944.  29972.   1
   0   1   9 484078.  33017.   1
   0  -1 -10  29693. 1475.98   1
   0  -1 -10  30419. 2238.82   1
   0   1  10  30028. 1530.45   1
   0   1  10  30475. 2234.63   1
   0   1  10  33101. 2436.31   1
   0  -1 -11  17947. 1013.13   1
   0  -1 -11  19911. 1529.05   1
   0   1  11  16874. 986.591   1
   0   1  11  17274. 1360.61   1
   0   1  11  20352. 1562.57   1
   0  -1 -12 3192.73 478.212   1
   0  -1 -12 3279.33 480.726   1
   0   1  12 3393.85 509.217   1
   0   1  12 3581.00 502.793   1
   0   1  12 4424.58 563.966   1
   0  -1 -13  31536. 1530.45   1
   0  -1 -13  33464. 2430.17   1
   0   1  13  30754. 1534.36   1
   0   1  13  34749. 2524.02   1
   0   1  13  30978. 2253.07   1
   0  -1 -14  21690. 1170.95   1
   0  -1 -14  23684. 1768.99   1
   0   1  14  21536. 1203.07   1
   0   1  14  25098. 1848.88   1
   0   1  14  25430. 1879.89   1
   0  -1 -15  24344. 1292.46   1
   0  -1 -15  23288. 1740.78   1
   0   1  15  23101. 1258.10   1
   0   1  15  23193. 1755.31   1
   0   1  15  23025. 1731.84   1
   0  -1 -16  72151. 3215.08   1
   0  -1 -16  77458. 5385.47   1
   0   1  16  73855. 3340.78   1
   0   1  16  82486. 5734.63   1
   0   1  16  74330. 5167.59   1
   0  -2  15 -102.93 538.268   1
   0  -2  15  -44.30 446.368   1
   0  -2  15  430.45 446.927   1
   0   2 -15  456.42 503.351   1
   0   2 -15  301.12 405.028   1
   0  -2  14 182207. 7854.74   1
   0  -2  14 180056.  12341.   1
   0  -2  14 185698.  12732.   1
   0   2 -14 168268. 7240.22   1
   0   2 -14 169553.  11634.   1
   0  -2  13  90251. 3986.03   1
   0  -2  13  94246. 6544.69   1
   0  -2  13  96564. 6701.11   1
   0   2 -13  88743. 3907.82   1
   0   2 -13  95084. 6592.17   1
   0  -2  12  26332. 1349.44   1
   0  -2  12  26128. 1949.72   1
   0  -2  12  23701. 1770.11   1
   0   2 -12  24282. 1243.57   1
   0   2 -12  25419. 1910.05   1
   0  -2  11 100307. 4418.99   1
   0  -2  11 111760. 7740.21   1
   0  -2  11  94274. 6539.10   1
   0   2 -11 100782. 4455.30   1
   0   2 -11 119748. 8284.91   1
   0  -2  10  19374. 1058.94   1
   0  -2  10  19802. 1516.48   1
   0  -2  10  20645. 1583.24   1
   0   2 -10  19763. 1070.95   1
   0   2 -10  23466. 1785.19   1
   0  -2   9 2599.44 406.145   1
   0  -2   9 2063.41 425.977   1
   0   2  -9 2198.04 428.491   1
   0   2  -9 2796.09 486.312   1
   0  -2   8 5885.47 495.530   1
   0  -2   8 5449.71 574.580   1
   0   2  -8 6226.25 522.066   1
   0   2  -8 7572.62 765.083   1
   0  -2   7 254301.  10858.   1
   0  -2   7 219050.  14992.   1
   0   2  -7 271760.  11587.   1
   0   2  -7 284637.  19480.   1
   0  -2   6 225223. 9617.31   1
   0  -2   6 198072.  13570.   1
   0   2  -6 243491.  10405.   1
   0   2  -6 223603.  15318.   1
   0  -2   5  75642. 3324.02   1
   0  -2   5  65782. 4583.79   1
   0   2  -5  79330. 3480.44   1
   0   2  -5  71201. 4988.82   1
   0  -2   4 397206.  16827.   1
   0  -2   4 361173.  24609.   1
   0   2  -4 376257.  15947.   1
   0   2  -4 326536.  22277.   1
   0  -2   3  33268. 1512.57   1
   0  -2   3  35754. 2517.59   1
   0   2  -3  36033. 1644.13   1
   0   2  -3  34330. 2433.24   1
   0  -2   2 100391. 4318.43   1
   0  -2   2 105810. 7234.63   1
   0   2  -2 104162. 4477.65   1
   0   2  -2 104665. 4502.79   1
   0   2  -2  91508. 6284.91   1
   0  -2   1 113045. 4837.98   1
   0  -2   1 115112. 4927.37   1
   0  -2   1 111341. 7592.17   1
   0   2  -1 109581. 4692.73   1
   0   2  -1 108994. 4670.39   1
   0   2  -1 119050. 8122.90   1
   0   2  -1 103603. 7064.24   1
   0  -2   0  27282. 1240.50   1
   0  -2   0  27561. 1248.88   1
   0  -2   0  24740. 1710.33   1
   0  -2   0  26279. 1815.64   1
   0   2   0  26570. 1211.73   1
   0   2   0  26235. 1196.09   1
   0   2   0  25145. 1734.64   1
   0   2   0  26883. 1856.70   1
   0  -2  -1 4413.40 314.804   1
   0  -2  -1 3625.69 303.910   1
   0  -2  -1 3949.72 319.832   1
   0   2   1 3600.55 283.240   1
   0   2   1 3745.81 306.145   1
   0   2   1 4103.35 332.402   1
   0   2   1 4159.21 327.933   1
   0  -2  -2  77849. 3374.30   1
   0  -2  -2  80084. 5491.61   1
   0  -2  -2  74916. 5134.07   1
   0   2   2  78631. 3407.82   1
   0   2   2  76033. 5206.70   1
   0   2   2  84525. 5790.50   1
   0  -2  -3 651117.  27472.   1
   0  -2  -3 651117.  44218.   1
   0  -2  -3 552234.  37542.   1
   0   2   3 627653.  26486.   1
   0   2   3 648603.  44078.   1
   0  -2  -4  67430. 2966.48   1
   0  -2  -4  67709. 4687.15   1
   0   2   4  67123. 2963.68   1
   0   2   4  69078. 4773.74   1
   0   2   4  61899. 4296.08   1
   0  -2  -5 399441.  16897.   1
   0  -2  -5 403631.  27480.   1
   0   2   5 398882.  16911.   1
   0   2   5 377095.  25682.   1
   0   2   5 360893.  24598.   1
   0  -2  -6 494413.  20919.   1
   0  -2  -6 472905.  32207.   1
   0   2   6 528770.  22391.   1
   0   2   6 439944.  29972.   1
   0   2   6 449441.  30614.   1
   0  -2  -7 3494.41 357.821   1
   0  -2  -7 3296.09 433.798   1
   0   2   7 4656.42 468.994   1
   0   2   7 3385.47 440.502   1
   0   2   7 3494.41 496.648   1
   0  -2  -8 285754.  12151.   1
   0  -2  -8 269609.  18419.   1
   0   2   8 300558.  12827.   1
   0   2   8 298603.  20425.   1
   0   2   8 267653.  18285.   1
   0  -2  -9 111005. 4835.19   1
   0  -2  -9 109302. 7561.44   1
   0   2   9 114329. 5022.34   1
   0   2   9 112765. 7790.49   1
   0   2   9 129106. 8930.16   1
   0  -2 -10 3298.88 435.474   1
   0  -2 -10 2851.95 429.329   1
   0   2  10 4103.35 510.893   1
   0   2  10 3600.55 468.994   1
   0   2  10 4614.52 574.022   1
   0  -2 -11 6315.64 553.351   1
   0  -2 -11 5974.85 615.083   1
   0   2  11 6622.90 621.508   1
   0   2  11 7159.21 701.675   1
   0   2  11 7385.47 726.815   1
   0  -2 -12  51061. 2358.94   1
   0  -2 -12  51760. 3659.21   1
   0   2  12  53436. 2482.96   1
   0   2  12  53128. 3751.39   1
   0   2  12  51983. 3684.35   1
   0  -2 -13  83519. 3681.56   1
   0  -2 -13  85419. 5938.54   1
   0   2  13  74525. 3346.36   1
   0   2  13  88687. 6162.00   1
   0   2  13  86452. 5999.99   1
   0  -2 -14 5720.66 601.396   1
   0  -2 -14 4561.45 549.720   1
   0   2  14 4681.56 576.536   1
   0   2  14 5111.73 546.368   1
   0   2  14 5117.31 593.016   1
   0  -2 -15 107402. 4731.84   1
   0  -2 -15 111704. 7712.28   1
   0   2  15 103017. 4541.89   1
   0   2  15 104748. 7231.84   1
   0   2  15 110642. 7636.86   1
   0  -2 -16  27492. 1409.50   1
   0  -2 -16  27989. 2055.58   1
   0   2  16  24469. 1341.06   1
   0   2  16  27087. 1996.93   1
   0   2  16  29581. 2170.11   1
   0  -3  15  48966. 2324.86   1
   0  -3  15  46173. 3287.71   1
   0  -3  15  48352. 3438.54   1
   0   3 -15  45754. 2153.35   1
   0   3 -15  49860. 3525.14   1
   0  -3  14 101788. 4488.82   1
   0  -3  14 114329. 7891.05   1
   0  -3  14  98436. 6835.19   1
   0   3 -14  98659. 4326.81   1
   0   3 -14 100838. 6988.82   1
   0  -3  13  414.80 459.497   1
   0  -3  13  897.76 410.335   1
   0  -3  13 1301.40 411.452   1
   0   3 -13  960.33 455.865   1
   0   3 -13  979.89 351.955   1
   0  -3  12  42067. 1996.93   1
   0  -3  12  40223. 2902.23   1
   0  -3  12  38855. 2796.09   1
   0   3 -12  38939. 1845.53   1
   0   3 -12  43911. 3131.28   1
   0  -3  11  41229. 1962.57   1
   0  -3  11  44525. 3195.53   1
   0  -3  11  40279. 2893.85   1
   0   3 -11  39441. 1847.76   1
   0   3 -11  44804. 3206.70   1
   0  -3  10  20279. 1103.07   1
   0  -3  10  19788. 1510.33   1
   0   3 -10  20634. 1116.20   1
   0   3 -10  21346. 1659.22   1
   0  -3   9 6902.23 584.916   1
   0  -3   9 5402.23 599.441   1
   0   3  -9 6371.50 547.765   1
   0   3  -9 7321.22 734.077   1
   0  -3   8 140447. 6067.03   1
   0  -3   8 128687. 8871.50   1
   0   3  -8 152430. 6600.55   1
   0   3  -8 139916. 9667.59   1
   0  -3   7 688826.  29106.   1
   0  -3   7 626536.  42626.   1
   0   3  -7 730726.  30866.   1
   0   3  -7 695809.  47346.   1
   0  -3   6 1005.86 276.536   1
   0  -3   6 1669.83 322.625   1
   0   3  -6 2421.23 348.603   1
   0   3  -6 2023.46 414.525   1
   0  -3   5 605307.  25573.   1
   0  -3   5 597206.  40614.   1
   0   3  -5 646089.  27285.   1
   0   3  -5 556983.  37905.   1
   0  -3   4 146592. 6290.50   1
   0  -3   4 172905.  11818.   1
   0   3  -4 149665. 6416.19   1
   0   3  -4 167765. 7187.14   1
   0   3  -4 163408.  11207.   1
   0  -3   3  27905. 1310.89   1
   0  -3   3  28017. 1977.09   1
   0   3  -3  26466. 1249.16   1
   0   3  -3  27360. 1295.81   1
   0   3  -3  28603. 2047.48   1
   0  -3   2  48436. 2151.67   1
   0  -3   2  44357. 3069.83   1
   0   3  -2  48743. 2184.63   1
   0   3  -2  45782. 2048.88   1
   0   3  -2  50782. 3508.38   1
   0   3  -2  57374. 3966.48   1
   0  -3   1  30223. 1378.77   1
   0  -3   1  29553. 1353.07   1
   0  -3   1  29525. 2053.07   1
   0   3  -1  29721. 1378.49   1
   0   3  -1  29581. 1365.36   1
   0   3  -1  31816. 2213.13   1
   0   3  -1  31089. 2155.30   1
   0  -3   0  45503. 2013.69   1
   0  -3   0  46899. 2071.79   1
   0  -3   0  44972. 3092.18   1
   0  -3   0  46089. 3167.59   1
   0   3   0  45782. 2039.66   1
   0   3   0  45475. 2031.56   1
   0   3   0  45838. 3150.83   1
   0   3   0  44553. 3058.66   1
   0  -3  -1  37346. 1676.81   1
   0  -3  -1  38520. 1720.67   1
   0  -3  -1  35642. 2460.61   1
   0  -3  -1  35168. 2427.93   1
   0   3   1  35587. 1613.96   1
   0   3   1  35642. 1620.39   1
   0   3   1  35140. 2420.39   1
   0   3   1  35223. 2429.05   1
   0  -3  -2 475977.  20109.   1
   0  -3  -2 524860.  35670.   1
   0  -3  -2 486871.  33073.   1
   0   3   2 480726.  20313.   1
   0   3   2 452793.  19154.   1
   0  -3  -3 333799.  14134.   1
   0  -3  -3 351676.  23922.   1
   0  -3  -3 331564.  22559.   1
   0   3   3 320391.  13584.   1
   0   3   3 378212.  25732.   1
   0   3   3 336033.  22852.   1
   0  -3  -4 131648. 5634.07   1
   0   3   4 136396. 5874.30   1
   0   3   4 145531. 9974.85   1
   0   3   4 136257. 9321.22   1
   0  -3  -5 463966.  19628.   1
   0  -3  -5 448324.  30503.   1
   0   3   5 490502.  20754.   1
   0   3   5 455586.  31033.   1
   0   3   5 482681.  32849.   1
   0  -3  -6 8706.69 543.016   1
   0  -3  -6 8913.40 740.502   1
   0   3   6 8902.23 598.882   1
   0   3   6  10553. 849.999   1
   0   3   6 8430.16 738.267   1
   0  -3  -7  97179. 4231.84   1
   0  -3  -7  93911. 6494.41   1
   0   3   7 100698. 4413.40   1
   0   3   7 101424. 6999.99   1
   0   3   7  85251. 5921.78   1
   0  -3  -8  77290. 3393.85   1
   0  -3  -8  73436. 5106.14   1
   0   3   8  87486. 3879.88   1
   0   3   8  81648. 5670.38   1
   0   3   8  78519. 5466.47   1
   0  -3  -9  43464. 1987.71   1
   0  -3  -9  40447. 2879.89   1
   0   3   9  47542. 2199.44   1
   0   3   9  45447. 3231.84   1
   0   3   9  42765. 3047.48   1
   0  -3 -10  19036. 992.178   1
   0  -3 -10  17690. 1370.39   1
   0   3  10  21232. 1165.08   1
   0   3  10  18310. 1413.41   1
   0   3  10  22366. 1679.89   1
   0  -3 -11  38659. 1812.29   1
   0  -3 -11  39162. 2818.43   1
   0   3  11  40000. 1950.56   1
   0   3  11  43436. 3081.00   1
   0   3  11  40112. 2871.51   1
   0  -3 -12 211843. 9078.20   1
   0  -3 -12 227123.  15545.   1
   0   3  12 213882. 9181.55   1
   0   3  12 219888.  15050.   1
   0   3  12 255614.  17458.   1
   0  -3 -13  20352. 1093.85   1
   0  -3 -13  20838. 1586.87   1
   0   3  13  18802. 1077.65   1
   0   3  13  21492. 1609.50   1
   0   3  13  23883. 1790.78   1
   0  -3 -14 101145. 4446.92   1
   0  -3 -14 104357. 7215.08   1
   0   3  14  97765. 4315.64   1
   0   3  14  97933. 6768.15   1
   0   3  14 103966. 7178.76   1
   0  -3 -15  38324. 1880.72   1
   0  -3 -15  41983. 3002.79   1
   0   3  15  39441. 1900.28   1
   0   3  15  40112. 2860.33   1
   0   3  15  42598. 3036.31   1
   0  -3 -16  730.45 523.463   1
   0  -3 -16  541.06 448.044   1
   0   3  16  879.05 597.765   1
   0   3  16  774.58 428.770   1
   0   3  16 1084.64 485.195   1
   0  -4  14 2972.06 554.748   1
   0  -4  14 3505.58 581.284   1
   0  -4  14 3318.43 574.022   1
   0   4 -14 3089.38 547.206   1
   0   4 -14 3991.62 543.575   1
   0  -4  13  599.44 441.061   1
   0  -4  13  295.81 449.720   1
   0  -4  13  843.30 459.497   1
   0   4 -13   47.74 454.469   1
   0   4 -13  534.36 418.435   1
   0  -4  12 7891.05 627.374   1
   0  -4  12 9268.15 864.245   1
   0  -4  12 9243.01 886.591   1
   0   4 -12 9075.41 663.128   1
   0   4 -12  11014. 968.993   1
   0  -4  11  41592. 1936.31   1
   0  -4  11  41564. 2988.82   1
   0  -4  11  44916. 3229.05   1
   0   4 -11  41704. 1967.88   1
   0   4 -11  49022. 3505.58   1
   0  -4  10  34972. 1673.18   1
   0  -4  10  38352. 2773.46   1
   0   4 -10  35866. 1709.77   1
   0   4 -10  46117. 3312.85   1
   0  -4   9  24567. 1232.12   1
   0  -4   9  27989. 2065.92   1
   0   4  -9  26788. 1331.84   1
   0   4  -9  30559. 2270.11   1
   0  -4   8 376815.  15997.   1
   0  -4   8 395810.  26994.   1
   0   4  -8 408379.  27883.   1
   0  -4   7  37402. 1745.81   1
   0  -4   7  39358. 2821.23   1
   0   4  -7  41397. 1928.49   1
   0   4  -7  38380. 1786.87   1
   0   4  -7  41341. 2974.86   1
   0  -4   6 318435.  13528.   1
   0  -4   6 329888.  22494.   1
   0   4  -6 332402.  14126.   1
   0   4  -6 320949.  13626.   1
   0   4  -6 298044.  20344.   1
   0  -4   5 240195.  10235.   1
   0  -4   5 252961.  17263.   1
   0   4  -5 258882.  11028.   1
   0   4  -5 244413.  10416.   1
   0   4  -5 237011.  16221.   1
   0  -4   4 2776.81 312.849   1
   0  -4   4 2807.26 347.486   1
   0   4  -4 3019.55 328.491   1
   0   4  -4 3583.80 363.687   1
   0   4  -4 3061.45 368.715   1
   0   4  -4 2715.64 315.083   1
   0  -4   3  30335. 1427.09   1
   0  -4   3  25285. 1799.44   1
   0   4  -3  28855. 1372.07   1
   0   4  -3  27508. 1307.54   1
   0   4  -3  33603. 2381.00   1
   0   4  -3  32290. 2262.29   1
   0  -4   2  11061. 613.128   1
   0  -4   2  10844. 611.173   1
   0  -4   2  10221. 773.463   1
   0   4  -2 9960.88 579.050   1
   0   4  -2  10271. 601.396   1
   0   4  -2  11547. 876.535   1
   0   4  -2  11126. 818.435   1
   0  -4   1 346089.  14662.   1
   0  -4   1 345530.  14637.   1
   0  -4   1 361452.  24573.   1
   0   4  -1 340782.  14436.   1
   0   4  -1 330447.  14014.   1
   0   4  -1 372905.  25360.   1
   0  -4   0 122235. 5254.18   1
   0  -4   0 120307. 5164.80   1
   0  -4   0 123491. 8424.57   1
   0  -4   0 119665. 8167.59   1
   0   4   0 118883. 5122.90   1
   0   4   0 118156. 5086.59   1
   0   4   0 122821. 8374.29   1
   0   4   0 117681. 8025.13   1
   0  -4  -1 412569.  17464.   1
   0  -4  -1 418156.  17684.   1
   0  -4  -1 463966.  31536.   1
   0  -4  -1 404190.  27486.   1
   0   4   1 384357.  16277.   1
   0   4   1 404748.  17140.   1
   0   4   1 391620.  26623.   1
   0  -4  -2 503351.  21271.   1
   0  -4  -2 573184.  38966.   1
   0  -4  -2 524022.  35614.   1
   0   4   2 484078.  20461.   1
   0   4   2 481005.  20341.   1
   0   4   2 549441.  37346.   1
   0  -4  -3  16634. 848.044   1
   0  -4  -3  15240. 1117.04   1
   0  -4  -3  14925. 1080.73   1
   0   4   3  13933. 756.703   1
   0   4   3  14777. 791.061   1
   0   4   3  17888. 1277.93   1
   0   4   3  16168. 1163.41   1
   0  -4  -4 228240. 9726.25   1
   0  -4  -4 228659.  15578.   1
   0  -4  -4 211899.  14452.   1
   0   4   4 241117.  10277.   1
   0   4   4 223268. 9513.96   1
   0   4   4 231564.  15779.   1
   0   4   4 245949.  16774.   1
   0  -4  -5 7469.27 491.899   1
   0  -4  -5 7466.47 636.871   1
   0   4   5 7351.95 520.670   1
   0   4   5 8097.76 649.720   1
   0   4   5 8234.63 708.379   1
   0  -4  -6 1112.57 286.592   1
   0  -4  -6 1187.71 265.028   1
   0   4   6 1063.97 327.653   1
   0   4   6 1461.73 282.402   1
   0   4   6 1473.46 367.597   1
   0  -4  -7 1840.50 312.011   1
   0  -4  -7 1636.87 334.637   1
   0   4   7 1502.51 402.793   1
   0   4   7 1352.79 356.145   1
   0   4   7 2187.15 339.106   1
   0  -4  -8  95726. 4187.15   1
   0  -4  -8  97598. 6751.39   1
   0   4   8  95168. 4181.56   1
   0   4   8  81033. 5678.77   1
   0   4   8  91173. 6293.29   1
   0  -4  -9 107737. 4692.73   1
   0  -4  -9 112765. 7776.53   1
   0   4   9 117067. 5122.90   1
   0   4   9 111955. 7720.66   1
   0   4   9 109860. 7628.48   1
   0  -4 -10 2458.94 390.502   1
   0  -4 -10 1647.20 372.625   1
   0   4  10 3379.88 470.949   1
   0   4  10 2810.05 529.888   1
   0   4  10 2175.42 421.787   1
   0  -4 -11 293854.  12494.   1
   0  -4 -11 272625.  18615.   1
   0   4  11 275447.  11782.   1
   0   4  11 323463.  22075.   1
   0   4  11 269609.  18411.   1
   0  -4 -12  68994. 3086.59   1
   0  -4 -12  72123. 5039.10   1
   0   4  12  75922. 3413.40   1
   0   4  12  72681. 5067.03   1
   0   4  12  87067. 6044.69   1
   0  -4 -13  39385. 1862.01   1
   0  -4 -13  37849. 2712.29   1
   0   4  13  39358. 1899.44   1
   0   4  13  42179. 3008.38   1
   0   4  13  40614. 2907.82   1
   0  -4 -14  59357. 2714.24   1
   0  -4 -14  65670. 4606.14   1
   0   4  14  59413. 2734.63   1
   0   4  14  64553. 4519.55   1
   0   4  14  65363. 4572.62   1
   0  -4 -15 7930.16 712.848   1
   0  -4 -15 8801.67 861.172   1
   0   4  15 7567.03 722.066   1
   0   4  15 8754.18 830.725   1
   0   4  15 8980.44 837.709   1
   0  -5  13 1190.78 529.050   1
   0  -5  13 2706.42 563.407   1
   0  -5  13 2381.00 537.150   1
   0   5 -13 1869.83 514.245   1
   0   5 -13 1277.65 517.039   1
   0   5 -13 2452.23 476.815   1
   0   5 -13 2323.74 510.055   1
   0  -5  12  29665. 1490.22   1
   0  -5  12  33966. 2495.25   1
   0  -5  12  32235. 2386.03   1
   0   5 -12  30950. 1529.05   1
   0   5 -12  29274. 1457.82   1
   0   5 -12  34441. 2505.03   1
   0  -5  11 110810. 4832.40   1
   0  -5  11 111341. 7706.70   1
   0  -5  11 105028. 7273.74   1
   0   5 -11 102290. 4480.44   1
   0   5 -11 108966. 4759.77   1
   0   5 -11 122011. 8432.95   1
   0  -5  10  101.56 336.871   1
   0  -5  10  366.48 394.413   1
   0   5 -10  513.41 396.927   1
   0   5 -10   49.78 360.056   1
   0   5 -10   18.24 423.743   1
   0  -5   9 165922. 7128.48   1
   0  -5   9 171341.  11763.   1
   0   5  -9 162989. 7016.75   1
   0   5  -9 171760. 7399.43   1
   0   5  -9 152905.  10508.   1
   0   5  -9 185056.  12718.   1
   0  -5   8  35140. 1662.29   1
   0  -5   8  35195. 2539.66   1
   0   5  -8  36704. 1730.45   1
   0   5  -8  36285. 1724.30   1
   0   5  -8  31313. 2248.88   1
   0   5  -8  36788. 2684.63   1
   0  -5   7  27751. 1354.19   1
   0  -5   7  30307. 2205.30   1
   0   5  -7  29358. 1422.07   1
   0   5  -7  26746. 1312.85   1
   0   5  -7  25827. 1958.10   1
   0   5  -7  27701. 1989.94   1
   0  -5   6  53268. 2408.10   1
   0  -5   6  55838. 3918.99   1
   0   5  -6  54497. 2453.07   1
   0   5  -6  52570. 2380.72   1
   0   5  -6  49749. 3539.10   1
   0   5  -6  51564. 3594.97   1
   0  -5   5  36676. 1710.89   1
   0  -5   5  39413. 2796.09   1
   0   5  -5  36033. 1687.15   1
   0   5  -5  35307. 1661.73   1
   0   5  -5  36480. 2559.22   1
   0   5  -5  32235. 2327.37   1
   0  -5   4  52933. 2379.89   1
   0  -5   4  51844. 3620.11   1
   0   5  -4  53687. 2415.92   1
   0   5  -4  51592. 2324.30   1
   0   5  -4  51006. 3594.97   1
   0   5  -4  57067. 3952.51   1
   0  -5   3 3002.79 341.899   1
   0  -5   3 2282.40 315.363   1
   0   5  -3 2498.32 314.525   1
   0   5  -3 2222.06 314.804   1
   0   5  -3 2768.71 359.776   1
   0   5  -3 2746.65 310.056   1
   0  -5   2 433519.  18349.   1
   0  -5   2 424301.  17944.   1
   0  -5   2 433519.  29469.   1
   0   5  -2 424581.  17975.   1
   0   5  -2 469273.  19858.   1
   0   5  -2 439944.  29916.   1
   0   5  -2 426536.  29022.   1
   0  -5   1 311732.  13226.   1
   0  -5   1 317039.  13430.   1
   0  -5   1 326257.  22190.   1
   0   5  -1 319273.  13556.   1
   0   5  -1 308938.  13117.   1
   0   5  -1 328212.  22335.   1
   0   5  -1 349441.  23774.   1
   0  -5   0 180028. 7667.59   1
   0  -5   0 189078. 8075.41   1
   0  -5   0 187430.  12774.   1
   0   5   0 175503. 7513.96   1
   0   5   0 174469. 7469.27   1
   0   5   0 187570.  12782.   1
   0   5   0 194441.  13251.   1
   0  -5  -1 595809.  25184.   1
   0  -5  -1 643295.  27142.   1
   0  -5  -1 669552.  45503.   1
   0  -5  -1 678491.  46117.   1
   0   5   1 631284.  26662.   1
   0   5   1 633240.  26749.   1
   0   5   1 617876.  42011.   1
   0  -5  -2  24955. 1173.18   1
   0  -5  -2  25114. 1771.79   1
   0  -5  -2  23098. 1632.12   1
   0   5   2  24584. 1196.09   1
   0   5   2  24430. 1198.04   1
   0  -5  -3 118045. 5089.38   1
   0  -5  -3 125586. 8583.79   1
   0  -5  -3 122961. 8413.40   1
   0   5   3 111871. 4854.74   1
   0   5   3 109246. 4745.81   1
   0   5   3 121760. 8332.39   1
   0   5   3 116871. 7986.03   1
   0  -5  -4  23313. 1134.64   1
   0  -5  -4  21682. 1557.54   1
   0  -5  -4  22858. 1633.24   1
   0   5   4  20475. 1043.85   1
   0   5   4  20411. 1038.55   1
   0   5   4  23028. 1624.86   1
   0   5   4  22916. 1642.74   1
   0  -5  -5  54553. 2431.84   1
   0  -5  -5  56508. 3921.78   1
   0   5   5  50726. 2305.03   1
   0   5   5  50894. 2307.26   1
   0   5   5  54134. 3754.19   1
   0   5   5  56955. 3946.92   1
   0  -5  -6  71033. 3139.66   1
   0  -5  -6  75195. 5195.53   1
   0   5   6  75726. 3365.92   1
   0   5   6  67067. 4656.42   1
   0   5   6  79190. 5460.89   1
   0  -5  -7  62821. 2801.67   1
   0  -5  -7  60056. 4181.56   1
   0   5   7  65810. 2958.10   1
   0   5   7  52458. 3687.15   1
   0   5   7  59665. 4139.66   1
   0  -5  -8 267262.  11388.   1
   0  -5  -8 259246.  17696.   1
   0   5   8 263324.  11240.   1
   0   5   8 259720.  17718.   1
   0   5   8 222151.  15209.   1
   0  -5  -9  22377. 1162.57   1
   0  -5  -9  23011. 1713.13   1
   0   5   9  23022. 1202.23   1
   0   5   9  21902. 1615.08   1
   0   5   9  21989. 1706.42   1
   0  -5 -10 189190. 8117.31   1
   0  -5 -10 183938.  12595.   1
   0   5  10 193100. 8321.22   1
   0   5  10 175139.  12000.   1
   0   5  10 198240.  13615.   1
   0  -5 -11  58883. 2629.33   1
   0  -5 -11  57989. 4072.62   1
   0   5  11  58799. 2681.00   1
   0   5  11  53380. 3737.43   1
   0   5  11  65978. 4614.52   1
   0  -5 -12  13869. 848.323   1
   0  -5 -12  13215. 1096.93   1
   0   5  12  15204. 915.921   1
   0   5  12  14344. 1151.95   1
   0   5  12  17128. 1386.31   1
   0  -5 -13 6268.15 573.463   1
   0  -5 -13 7195.52 748.044   1
   0   5  13 6731.84 699.161   1
   0   5  13 8743.01 853.630   1
   0   5  13 6550.27 660.055   1
   0  -5 -14  13506. 870.949   1
   0  -5 -14  12441. 1084.08   1
   0   5  14  11866. 863.407   1
   0   5  14  15184. 1219.83   1
   0   5  14  12201. 1037.71   1
   0  -5 -15 7871.50 664.245   1
   0  -5 -15  10327. 1006.14   1
   0   5  15 7656.42 807.262   1
   0   5  15 9061.44 879.608   1
   0   5  15  10075. 983.798   1
   0  -6  12  84385. 3759.77   1
   0  -6  12  85503. 5958.09   1
   0  -6  12  87905. 6134.07   1
   0   6 -12  76732. 3418.99   1
   0   6 -12  84134. 3745.81   1
   0  -6  11 4519.55 524.860   1
   0  -6  11 3849.16 583.240   1
   0  -6  11 5382.68 717.318   1
   0   6 -11 4768.15 544.692   1
   0   6 -11 5159.21 574.580   1
   0   6 -11 6745.80 777.094   1
   0   6 -11 5145.25 593.016   1
   0  -6  10  73631. 3287.71   1
   0   6 -10  72793. 3256.98   1
   0   6 -10  70279. 3134.07   1
   0   6 -10  66899. 4670.39   1
   0   6 -10  80503. 5634.07   1
   0  -6   9  37626. 1779.33   1
   0  -6   9  39665. 2857.54   1
   0   6  -9  38017. 1782.12   1
   0   6  -9  36927. 1741.62   1
   0   6  -9  33603. 2418.99   1
   0   6  -9  41117. 2974.86   1
   0  -6   8 2539.10 382.681   1
   0  -6   8 1689.94 426.815   1
   0   6  -8 2370.95 430.167   1
   0   6  -8 1558.94 375.698   1
   0   6  -8 1546.93 348.324   1
   0   6  -8 2072.06 471.787   1
   0  -6   7 1953.63 379.329   1
   0  -6   7 2170.39 417.877   1
   0   6  -7 1672.90 375.419   1
   0   6  -7 1862.85 372.067   1
   0   6  -7 2245.25 339.106   1
   0   6  -7 3148.04 532.122   1
   0  -6   6  46648. 2130.17   1
   0  -6   6  50754. 3569.83   1
   0   6  -6  46452. 2132.40   1
   0   6  -6  46816. 2149.72   1
   0  -6   5 126871. 5483.23   1
   0  -6   5 130559. 8966.47   1
   0   6  -5 128240. 5558.65   1
   0   6  -5 127961. 5539.10   1
   0  -6   4  17170. 902.234   1
   0  -6   4  17693. 1320.95   1
   0   6  -4  16425. 896.088   1
   0   6  -4  15573. 864.524   1
   0   6  -4  16148. 1274.58   1
   0   6  -4  16841. 1244.97   1
   0  -6   3 237598.  10128.   1
   0  -6   3 246173.  16788.   1
   0   6  -3 241061.  10282.   1
   0   6  -3 242681.  10349.   1
   0   6  -3 254218.  17338.   1
   0   6  -3 237374.  16207.   1
   0  -6   2 252709.  10768.   1
   0  -6   2 257598.  10975.   1
   0  -6   2 268128.  18263.   1
   0   6  -2 250056.  10665.   1
   0   6  -2 255670.  10885.   1
   0   6  -2 252039.  17196.   1
   0   6  -2 263603.  17947.   1
   0  -6   1  12592. 717.876   1
   0  -6   1  11972. 681.284   1
   0  -6   1  12098. 898.323   1
   0   6  -1  11137. 675.698   1
   0   6  -1  11299. 658.938   1
   0   6  -1  11715. 865.642   1
   0   6  -1  11983. 895.809   1
   0  -6   0 303910.  12897.   1
   0  -6   0 319832.  13589.   1
   0  -6   0 319553.  21746.   1
   0   6   0 307542.  13075.   1
   0   6   0 294134.  12500.   1
   0   6   0 300279.  20441.   1
   0   6   0 325139.  22120.   1
   0  -6  -1  85251. 3715.08   1
   0  -6  -1  87151. 5974.85   1
   0  -6  -1  81285. 5578.21   1
   0   6   1  88184. 3863.12   1
   0   6   1  86061. 3773.74   1
   0   6   1  86788. 5944.13   1
   0   6   1  87765. 6002.79   1
   0  -6  -2 1758.94 274.050   1
   0  -6  -2 2041.62 276.732   1
   0  -6  -2 1556.42 240.195   1
   0   6   2 1833.80 317.877   1
   0   6   2 1714.52 322.905   1
   0   6   2 2860.33 300.000   1
   0   6   2 2349.16 248.827   1
   0  -6  -3  12670. 695.809   1
   0  -6  -3  11075. 838.826   1
   0  -6  -3  11500. 870.949   1
   0   6   3  10827. 667.038   1
   0   6   3  11651. 705.865   1
   0   6   3  12212. 915.362   1
   0   6   3  11771. 869.831   1
   0  -6  -4 132821. 5706.70   1
   0  -6  -4 115251. 7893.85   1
   0  -6  -4 129162. 8832.39   1
   0   6   4 128855. 5581.00   1
   0   6   4 131704. 5701.11   1
   0   6   4 120810. 8282.11   1
   0   6   4 132793. 9078.20   1
   0  -6  -5 150251. 6441.33   1
   0  -6  -5 155447.  10626.   1
   0   6   5 140810. 6086.59   1
   0   6   5 136648. 5907.81   1
   0   6   5 148100.  10117.   1
   0   6   5 134525. 9240.21   1
   0  -6  -6  11369. 663.966   1
   0  -6  -6  11656. 924.859   1
   0   6   6  10972. 687.150   1
   0   6   6  11640. 729.887   1
   0   6   6 9687.14 815.362   1
   0   6   6  10944. 862.290   1
   0  -6  -7 262430.  11168.   1
   0  -6  -7 278380.  18992.   1
   0   6   7 275419.  11754.   1
   0   6   7 255698.  10944.   1
   0  -6  -8  72290. 3195.53   1
   0  -6  -8  70950. 4944.13   1
   0   6   8  74944. 3351.95   1
   0   6   8  70335. 3164.80   1
   0   6   8  76397. 5284.91   1
   0   6   8  67039. 4703.91   1
   0  -6  -9  52933. 2404.47   1
   0  -6  -9  55056. 3871.50   1
   0   6   9  53045. 2444.41   1
   0   6   9  54246. 3790.50   1
   0   6   9  52151. 3712.29   1
   0  -6 -10  64413. 2877.09   1
   0  -6 -10  67207. 4701.11   1
   0   6  10  69888. 3150.83   1
   0   6  10  63855. 4449.72   1
   0   6  10  67011. 4701.11   1
   0  -6 -11 3184.35 436.871   1
   0  -6 -11 2677.37 486.033   1
   0   6  11 2682.40 474.022   1
   0   6  11 4337.98 613.687   1
   0   6  11 2935.75 443.854   1
   0  -6 -12  598.88 468.435   1
   0  -6 -12 1207.26 467.597   1
   0   6  12  565.08 439.106   1
   0   6  12  625.98 499.999   1
   0   6  12  841.34 399.441   1
   0  -6 -13 2963.68 529.608   1
   0  -6 -13 3145.25 568.994   1
   0   6  13 3139.66 574.860   1
   0   6  13 3460.89 630.446   1
   0   6  13 3405.02 526.256   1
   0  -6 -14  32654. 1648.32   1
   0  -6 -14  34469. 2519.83   1
   0   6  14  35670. 1763.69   1
   0   6  14  32095. 2343.01   1
   0   6  14  35978. 2633.24   1
   0  -7  11 8935.75 700.558   1
   0  -7  11 8885.47 942.178   1
   0  -7  11  10969. 1093.29   1
   0   7 -11 9455.30 731.005   1
   0   7 -11 9726.25 780.167   1
   0   7 -11 9335.19 983.239   1
   0   7 -11  10391. 952.513   1
   0  -7  10  22871. 1208.66   1
   0  -7  10  20765. 1681.56   1
   0  -7  10  18816. 1503.91   1
   0   7 -10  21338. 1162.57   1
   0   7 -10  22360. 1196.65   1
   0   7 -10  25193. 1964.24   1
   0   7 -10  20522. 1597.76   1
   0  -7   9 6969.27 608.100   1
   0  -7   9 7508.37 800.279   1
   0   7  -9 6181.56 568.156   1
   0   7  -9 5513.96 594.692   1
   0   7  -9 7427.37 728.770   1
   0   7  -9 7600.55 828.491   1
   0  -7   8  17595. 952.234   1
   0  -7   8  17327. 1358.94   1
   0   7  -8  16670. 941.898   1
   0   7  -8  17430. 974.021   1
   0   7  -8  19279. 1459.22   1
   0   7  -8  18972. 1505.58   1
   0  -7   7 1868.71 372.346   1
   0  -7   7 2033.24 454.469   1
   0   7  -7 1228.21 376.257   1
   0   7  -7 1679.61 431.843   1
   0   7  -7 1902.51 371.229   1
   0   7  -7 1059.50 501.396   1
   0  -7   6 117849. 5097.76   1
   0  -7   6 127318. 8740.21   1
   0   7  -6 117542. 5089.38   1
   0   7  -6 116899. 5083.79   1
   0  -7   5  47765. 2174.86   1
   0  -7   5  51006. 3581.00   1
   0   7  -5  49078. 2244.13   1
   0   7  -5  49218. 2250.84   1
   0  -7   4  78184. 3441.34   1
   0  -7   4  79944. 5522.34   1
   0   7  -4  79413. 3505.58   1
   0   7  -4  80587. 3564.24   1
   0   7  -4  67235. 4709.49   1
   0   7  -4  67709. 4678.77   1
   0  -7   3 123547. 5337.98   1
   0  -7   3 123240. 8449.71   1
   0   7  -3 124525. 5396.64   1
   0   7  -3 121341. 5268.15   1
   0   7  -3 117821. 8072.62   1
   0   7  -3 108883. 7513.96   1
   0  -7   2 4505.58 428.491   1
   0  -7   2 4516.75 464.804   1
   0   7  -2 4502.79 443.296   1
   0   7  -2 3874.30 419.273   1
   0   7  -2 4511.17 428.491   1
   0   7  -2 4089.38 481.843   1
   0  -7   1  32989. 1553.07   1
   0  -7   1  31006. 1489.94   1
   0  -7   1  28547. 2018.71   1
   0   7  -1  30419. 1462.57   1
   0   7  -1  30028. 1446.37   1
   0   7  -1  30223. 2116.20   1
   0   7  -1  29637. 2087.43   1
   0  -7   0  57011. 2558.94   1
   0  -7   0  53240. 2410.05   1
   0  -7   0  56425. 3891.06   1
   0   7   0  55251. 2501.95   1
   0   7   0  55251. 2489.66   1
   0   7   0  54860. 3770.95   1
   0   7   0  57933. 3994.41   1
   0  -7  -1  42626. 1962.01   1
   0  -7  -1  45419. 3148.04   1
   0   7   1  46257. 2121.79   1
   0   7   1  42709. 1968.99   1
   0   7   1  44330. 3058.66   1
   0   7   1  51341. 3544.69   1
   0  -7  -2 6684.35 496.927   1
   0  -7  -2 6779.32 569.832   1
   0  -7  -2 5960.89 518.994   1
   0   7   2 6315.64 489.944   1
   0   7   2 7069.82 529.608   1
   0   7   2 7472.06 590.223   1
   0   7   2 6701.11 542.178   1
   0  -7  -3  60531. 2688.82   1
   0  -7  -3  57207. 3955.30   1
   0  -7  -3  58911. 4081.00   1
   0   7   3  62570. 2801.67   1
   0   7   3  62402. 2796.09   1
   0   7   3  59246. 4072.62   1
   0   7   3  57039. 3946.92   1
   0  -7  -4 259916.  11053.   1
   0  -7  -4 268324.  18277.   1
   0   7   4 248324.  10589.   1
   0   7   4 254022.  10832.   1
   0   7   4 247514.  16858.   1
   0   7   4 237821.  16235.   1
   0  -7  -5 8988.82 577.094   1
   0  -7  -5 8374.29 716.759   1
   0   7   5 8614.52 601.955   1
   0   7   5 8268.15 605.307   1
   0  -7  -6 174916. 7474.85   1
   0  -7  -6 180950.  12369.   1
   0   7   6 173017. 7424.57   1
   0   7   6 186760. 8030.72   1
   0  -7  -7 133240. 5729.04   1
   0  -7  -7 130698. 8966.47   1
   0   7   7 123659. 5351.95   1
   0   7   7 126508. 5508.37   1
   0  -7  -8 1099.16 363.128   1
   0  -7  -8  978.21 391.340   1
   0   7   8  995.81 381.564   1
   0   7   8  951.40 421.229   1
   0   7   8 1223.74 455.307   1
   0   7   8 1205.59 315.642   1
   0  -7  -9  43520. 2017.04   1
   0  -7  -9  46648. 3301.67   1
   0   7   9  45670. 2119.27   1
   0   7   9  45559. 2129.89   1
   0   7   9  49860. 3511.17   1
   0   7   9  47682. 3410.61   1
   0  -7 -10  28212. 1372.34   1
   0  -7 -10  32207. 2350.28   1
   0   7  10  30307. 1504.75   1
   0   7  10  30223. 1518.71   1
   0   7  10  32570. 2432.96   1
   0   7  10  29832. 2151.67   1
   0  -7 -11  18475. 1032.68   1
   0  -7 -11  20849. 1614.52   1
   0   7  11  17268. 975.697   1
   0   7  11  19693. 1118.99   1
   0   7  11  20838. 1647.76   1
   0   7  11  19522. 1499.16   1
   0  -7 -12 1389.66 452.234   1
   0  -7 -12 2120.11 577.094   1
   0   7  12 1467.32 531.843   1
   0   7  12 1793.01 486.592   1
   0   7  12 1813.13 489.106   1
   0   7  12 1828.49 636.591   1
   0  -7 -13  43994. 2043.57   1
   0  -7 -13  42905. 3117.32   1
   0   7  13  41899. 2028.21   1
   0   7  13  41257. 1945.25   1
   0   7  13  42458. 3055.86   1
   0   7  13  47905. 3460.89   1
   0   8 -10 7980.44 912.848   1
   0  -8   9  30950. 1518.99   1
   0  -8   9  32654. 2456.14   1
   0  -8   9  33687. 2573.74   1
   0   8  -9  31173. 1552.79   1
   0   8  -9  31508. 1563.13   1
   0   8  -9  32989. 2423.46   1
   0   8  -9  35307. 2674.86   1
   0  -8   8  10335. 681.284   1
   0  -8   8  10045. 1050.28   1
   0  -8   8 9687.14 961.451   1
   0   8  -8  10539. 757.541   1
   0   8  -8 9991.61 713.966   1
   0   8  -8  12131. 1045.53   1
   0   8  -8  10581. 1116.48   1
   0  -8   7  69190. 3072.62   1
   0  -8   7  72765. 5083.79   1
   0   8  -7  70894. 3167.59   1
   0   8  -7  76229. 3396.64   1
   0   8  -7  78436. 5533.51   1
   0   8  -7  75894. 5273.74   1
   0  -8   6 148128. 6365.92   1
   0  -8   6 149162.  10237.   1
   0   8  -6 156061. 6723.46   1
   0   8  -6 154721. 6656.42   1
   0   8  -6 160279.  11045.   1
   0   8  -6 154329.  10573.   1
   0  -8   5 2639.94 367.877   1
   0  -8   5 2810.05 481.843   1
   0   8  -5 3145.25 450.558   1
   0   8  -5 2677.65 418.435   1
   0  -8   4 114776. 4969.27   1
   0  -8   4 116145. 7986.03   1
   0   8  -4 114944. 4997.20   1
   0   8  -4 112123. 4874.30   1
   0  -8   3 9122.90 598.603   1
   0  -8   3 8888.26 771.228   1
   0   8  -3 8279.32 586.592   1
   0   8  -3 9304.46 638.547   1
   0  -8   2  463.69 301.676   1
   0  -8   2  186.17 327.933   1
   0   8  -2  411.17 347.206   1
   0   8  -2  178.41 312.849   1
   0   8  -2  618.16 253.072   1
   0   8  -2  664.80 410.055   1
   0  -8   1 1792.46 341.061   1
   0  -8   1 1550.56 337.709   1
   0  -8   1 1107.26 296.648   1
   0   8  -1 2298.60 393.296   1
   0   8  -1 1608.66 358.938   1
   0  -8   0  43883. 2017.04   1
   0  -8   0  43631. 3036.31   1
   0   8   0  42458. 1970.67   1
   0   8   0  40978. 1903.07   1
   0  -8  -1  83017. 3653.63   1
   0  -8  -1  82626. 5684.35   1
   0   8   1  76788. 3399.44   1
   0   8   1  74274. 3296.09   1
   0   8   1  84246. 5796.08   1
   0   8   1  80782. 5561.45   1
   0  -8  -2  753.35 336.033   1
   0  -8  -2  982.96 282.961   1
   0   8   2 1307.54 357.262   1
   0   8   2 1806.98 370.391   1
   0   8   2 1395.25 302.514   1
   0   8   2  802.79 274.581   1
   0  -8  -3 245139.  10455.   1
   0  -8  -3 224301.  15321.   1
   0   8   3 251452.  10726.   1
   0   8   3 257095.  10969.   1
   0   8   3 265894.  18128.   1
   0   8   3 236843.  16173.   1
   0  -8  -4  41871. 1931.56   1
   0  -8  -4  39441. 2770.11   1
   0   8   4  42933. 1999.72   1
   0   8   4  38520. 1822.34   1
   0  -8  -5 102961. 4469.27   1
   0  -8  -5 107793. 7410.61   1
   0   8   5 102709. 4500.00   1
   0   8   5 109106. 4762.56   1
   0  -8  -6  53128. 2381.56   1
   0  -8  -6  54916. 3835.19   1
   0   8   6  55391. 2531.00   1
   0   8   6  56955. 2591.34   1
   0   8   6  51955. 3709.49   1
   0   8   6  52207. 3622.90   1
   0  -8  -7 5195.53 464.525   1
   0  -8  -7 4483.24 574.301   1
   0   8   7 4988.82 521.787   1
   0   8   7 5659.21 554.748   1
   0   8   7 5561.45 562.569   1
   0   8   7 4477.65 621.228   1
   0  -8  -8 2988.82 471.229   1
   0  -8  -8 3229.05 549.161   1
   0   8   8 2801.67 437.430   1
   0   8   8 3463.68 520.949   1
   0   8   8 2966.48 469.273   1
   0   8   8 1566.76 552.793   1
   0  -8  -9  24131. 1201.67   1
   0  -8  -9  23561. 1801.12   1
   0   8   9  23765. 1251.67   1
   0   8   9  24458. 1282.40   1
   0   8   9  25735. 2017.88   1
   0   8   9  23137. 1712.85   1
   0  -8 -10  62905. 2826.81   1
   0  -8 -10  58352. 4128.49   1
   0   8  10  58296. 2637.71   1
   0   8  10  58156. 2665.64   1
   0   8  10  59972. 4206.70   1
   0   8  10  64637. 4597.76   1
   0  -8 -11  14522. 847.206   1
   0  -8 -11  15469. 1351.40   1
   0   8  11  14799. 951.396   1
   0   8  11  15246. 919.273   1
   0   8  11  16539. 1360.33   1
   0   8  11  18804. 1617.04   1
   0  -9   7  92067. 4030.72   1
   0  -9   7  97514. 6787.70   1
   0  -9   7  96369. 6787.70   1
   0   9  -7  96704. 4248.60   1
   0   9  -7  95726. 4203.91   1
   0   9  -7 104804. 7382.67   1
   0   9  -7  93017. 6452.51   1
   0  -9   6 3594.97 476.536   1
   0  -9   6 2589.94 826.256   1
   0  -9   6 3256.98 698.603   1
   0   9  -6 4047.48 537.430   1
   0   9  -6 3092.18 511.731   1
   0   9  -6 3743.01 890.223   1
   0   9  -6 3293.29 548.882   1
   0  -9   5  44106. 2046.65   1
   0  -9   5  43352. 3114.52   1
   0   9  -5  44022. 2051.95   1
   0   9  -5  44832. 2093.85   1
   0   9  -5  43966. 3268.15   1
   0   9  -5  43017. 3039.10   1
   0  -9   4  19696. 1017.60   1
   0  -9   4  20715. 1615.92   1
   0   9  -4  19601. 1055.86   1
   0   9  -4  19120. 1032.12   1
   0  -9   3  15673. 853.351   1
   0  -9   3  11168. 970.669   1
   0   9  -3  14531. 865.921   1
   0   9  -3  14039. 840.223   1
   0  -9   2 5944.13 513.687   1
   0  -9   2 4480.44 558.379   1
   0   9  -2 5293.29 520.111   1
   0   9  -2 6103.35 536.312   1
   0  -9   1  30587. 1462.57   1
   0  -9   1  29665. 2110.05   1
   0   9  -1  30754. 1496.09   1
   0   9  -1  30251. 1480.17   1
   0  -9   0 101871. 4441.34   1
   0  -9   0  92877. 6435.75   1
   0   9   0 106955. 4670.39   1
   0   9   0  99776. 4363.12   1
   0  -9  -1 8413.40 608.938   1
   0   9   1 7310.05 579.608   1
   0   9   1 8427.37 618.435   1
   0  -9  -2 123827. 5363.12   1
   0   9   2 118045. 5131.28   1
   0   9   2 121843. 5296.08   1
   0  -9  -3  88799. 3882.68   1
   0   9   3  85642. 3782.12   1
   0   9   3  88687. 3907.82   1
   0  -9  -4  10913. 674.301   1
   0   9   4  12120. 772.346   1
   0   9   4  12218. 798.602   1
   0   9   4 9681.55 791.899   1
   0  -9  -5  15092. 833.519   1
   0  -9  -5  11528. 979.329   1
   0   9   5  15503. 911.172   1
   0   9   5  14075. 853.351   1
   0   9   5  11310. 1010.61   1
   0   9   5  14053. 1089.10   1
   0  -9  -6 4863.12 496.648   1
   0  -9  -6 2582.68 620.670   1
   0   9   6 4826.81 577.653   1
   0   9   6 4103.35 480.446   1
   0   9   6 3678.77 565.083   1
   0   9   6 2738.27 626.256   1
   0  -9  -7  12958. 790.502   1
   0  -9  -7  10818. 1079.61   1
   0   9   7  11816. 780.446   1
   0   9   7  13919. 877.373   1
   0   9   7  10402. 1094.41   1
   0   9   7  11458. 992.736   1
   0  -9  -8 1993.57 436.033   1
   0  -9  -8 1185.75 627.094   1
   0   9   8 1544.69 461.731   1
   0   9   8 1668.43 498.603   1
   0   9   8 1597.48 767.038   1
   0   9   8 1025.42 567.039   1
   0  -9  -9  48715. 2240.22   1
   0  -9  -9  48073. 3483.24   1
   0   9   9  51397. 2400.28   1
   0   9   9  49050. 2291.62   1
   0   9   9  51480. 3773.74   1
   0   9   9  47905. 3430.16   1
   0 -10   4  12595. 1265.36   1
   0 -10   4  13760. 1171.79   1
   0  10  -4  22204. 1202.51   1
   0  10  -4  22394. 1224.02   1
   0 -10   3  33073. 1592.18   1
   0  10  -3  32765. 1607.26   1
   0  10  -3  29721. 1491.62   1
   0  10  -2 5617.31 620.949   1
   0  10  -2 5782.12 601.396   1
   0  10  -1  82793. 3673.18   1
   0  10  -1  85503. 3779.33   1
   0 -10   0  13743. 811.172   1
   0  10   0  14687. 885.474   1
   0  10   0  16520. 957.541   1
   0 -10  -1  46089. 2106.70   1
   0  10   1  47514. 2205.03   1
   0  10   1  45419. 2114.52   1
   0 -10  -2  45168. 2076.81   1
   0  10   2  45670. 2125.98   1
   0  10   2  44888. 2111.45   1
   0 -10  -3 3756.98 487.709   1
   0  10   3 3329.61 516.201   1
   0  10   3 3910.61 564.525   1
   0 -10  -4  -69.22 398.044   1
   0  10   4  -69.27 426.815   1
   0  10   4 -272.68 503.910   1
   0 -10  -5 3692.73 488.268   1
   0  10   5 4005.58 616.759   1
   0  10   5 5198.32 589.664   1
   0 -10  -6  35363. 1690.22   1
   0  10   6  36089. 1770.39   1
   0  10   6  33184. 1645.81   1
  -1  10   4  235.84 513.687   1
  -1  10   4  -95.50 530.726   1
   1 -10  -4  353.35 483.798   1
  -1  10   3  24975. 1332.96   1
  -1  10   3  25128. 1321.51   1
   1 -10  -3  22796. 1235.19   1
  -1  10   2 6100.55 677.094   1
  -1  10   2 6790.50 670.111   1
   1 -10  -2 6709.49 637.150   1
  -1  10   1 2821.23 585.474   1
  -1  10   1 2846.37 589.943   1
   1 -10  -1 2755.30 520.111   1
  -1  10   0 1528.21 563.687   1
  -1  10   0 1386.31 540.223   1
   1 -10   0 1888.27 465.642   1
  -1  10  -1  26095. 1377.65   1
  -1  10  -1  24006. 1286.03   1
  -1  10  -2  46369. 2198.88   1
  -1  10  -2  46704. 2201.67   1
  -1   9   8  31425. 1586.03   1
  -1   9   8  31480. 1569.83   1
   1  -9  -8  29441. 1460.05   1
  -1   9   7  37263. 1800.84   1
  -1   9   7  37263. 1794.97   1
   1  -9  -7  36927. 1743.01   1
  -1   9   6  61285. 2784.63   1
  -1   9   6  63380. 2865.92   1
   1  -9  -6  58128. 2624.02   1
  -1   9   5 4829.60 580.726   1
  -1   9   5 5441.33 575.139   1
   1  -9  -5 5189.94 519.832   1
  -1   9   4 9594.96 711.452   1
  -1   9   4 8089.38 663.407   1
   1  -9  -4 8256.97 589.943   1
  -1   9   3  13304. 845.530   1
  -1   9   3  12324. 791.061   1
   1  -9  -3  12869. 748.044   1
  -1   9   2  21330. 1143.85   1
  -1   9   2  19584. 1079.05   1
   1  -9  -2  20682. 1057.54   1
  -1   9   1  34022. 1657.54   1
  -1   9   1  34832. 1685.19   1
   1  -9  -1  35614. 1668.15   1
  -1   9   0  18263. 1023.74   1
  -1   9   0  16101. 933.519   1
   1  -9   0  17251. 943.016   1
  -1   9  -1 125363. 5449.71   1
  -1   9  -1 122123. 5310.05   1
  -1   9  -2 2888.27 483.798   1
  -1   9  -2 3067.04 493.296   1
  -1   9  -3  67961. 3061.45   1
  -1   9  -3  66592. 2991.62   1
   1  -9   3  69469. 3094.97   1
  -1   9  -4  36229. 1740.50   1
  -1   9  -4  34441. 1682.12   1
   1  -9   4  37235. 1752.51   1
  -1   9  -5  533.24 465.642   1
  -1   9  -5 1200.84 488.268   1
   1  -9   5  409.50 416.759   1
  -1   9  -6 1991.62 543.854   1
  -1   9  -6  787.15 543.016   1
  -1   9  -6  311.73 665.083   1
  -1   9  -6  747.49 467.039   1
   1  -9   6 1756.70 495.810   1
   1  -9   6 1157.54 807.820   1
   1  -9   6 1482.96 572.066   1
  -1   8  10  53659. 2485.75   1
  -1   8  10  52346. 2422.90   1
  -1   8  10  48296. 3536.31   1
  -1   8  10  52263. 3709.49   1
   1  -8 -10  52989. 2419.55   1
   1  -8 -10  59357. 4220.67   1
  -1   8   9  89972. 3991.62   1
  -1   8   9  81816. 3631.28   1
   1  -8  -9  81089. 3572.62   1
   1  -8  -9  80056. 5572.62   1
  -1   8   8 3899.44 540.502   1
  -1   8   8 4209.49 547.765   1
  -1   8   8 4016.76 733.239   1
  -1   8   8 5217.87 629.050   1
   1  -8  -8 4324.02 513.407   1
   1  -8  -8 3463.68 625.698   1
  -1   8   7  46508. 2178.77   1
  -1   8   7  48324. 2236.03   1
  -1   8   7  44972. 3139.66   1
  -1   8   7  52374. 3701.11   1
   1  -8  -7  48212. 2198.60   1
   1  -8  -7  45754. 3220.67   1
  -1   8   6  19126. 1038.83   1
  -1   8   6  19589. 1063.69   1
   1  -8  -6  20240. 1046.09   1
   1  -8  -6  15715. 1181.56   1
  -1   8   5  10670. 715.362   1
  -1   8   5 9659.21 661.731   1
   1  -8  -5  10648. 683.798   1
  -1   8   4 2015.92 424.022   1
  -1   8   4 1699.72 422.625   1
   1  -8  -4 2341.06 393.575   1
  -1   8   3  78966. 3494.41   1
  -1   8   3  75335. 3340.78   1
   1  -8  -3  75838. 3343.57   1
  -1   8   2 164637. 7089.38   1
  -1   8   2 167123. 7189.94   1
   1  -8  -2 167402. 7187.14   1
  -1   8   1 1594.97 388.268   1
  -1   8   1 1819.55 397.765   1
   1  -8  -1 1622.34 361.173   1
  -1   8   0 180167. 7729.04   1
  -1   8   0 179190. 7695.52   1
   1  -8   0 192989. 8259.77   1
  -1   8  -1  28575. 1408.94   1
  -1   8  -1  27497. 1363.69   1
   1  -8   1  26749. 1297.48   1
  -1   8  -2  42849. 1992.18   1
  -1   8  -2  41425. 1933.80   1
   1  -8   2  44469. 2022.06   1
  -1   8  -3  35810. 1703.63   1
  -1   8  -3  35754. 1697.76   1
   1  -8   3  35531. 1672.34   1
  -1   8  -4 2508.94 440.223   1
  -1   8  -4 3441.34 456.983   1
  -1   8  -4 2910.61 358.659   1
  -1   8  -4 1882.12 425.139   1
   1  -8   4 3298.88 391.061   1
   1  -8   4 2798.88 434.357   1
   1  -8   4 2241.62 492.178   1
  -1   8  -5  12327. 777.932   1
  -1   8  -5  11316. 751.117   1
   1  -8   5  11726. 683.798   1
   1  -8   5  11531. 1103.35   1
   1  -8   5  11179. 949.440   1
  -1   8  -6 6002.79 573.463   1
  -1   8  -6 6430.16 582.122   1
  -1   8  -6 3840.78 768.714   1
  -1   8  -6 5488.82 596.089   1
   1  -8   6 5949.71 508.379   1
   1  -8   6 4960.89 682.122   1
   1  -8   6 4553.07 848.044   1
  -1   8  -7  75726. 3371.50   1
  -1   8  -7  78408. 3486.03   1
  -1   8  -7  79609. 5513.96   1
  -1   8  -7  68017. 4815.64   1
   1  -8   7  76229. 3374.30   1
   1  -8   7  72989. 5170.39   1
   1  -8   7  70810. 4941.34   1
  -1   8  -8  18335. 1046.09   1
  -1   8  -8  17891. 1026.81   1
  -1   8  -8  20036. 1564.52   1
  -1   8  -8  15997. 1462.29   1
   1  -8   8  17799. 1000.28   1
   1  -8   8  17701. 1494.13   1
   1  -8   8  15947. 1454.75   1
  -1   8  -9  28408. 1463.41   1
  -1   8  -9  29749. 1530.72   1
  -1   8  -9  32765. 2604.75   1
  -1   8  -9  27436. 2079.61   1
   1  -8   9  25662. 1317.88   1
   1  -8   9  29106. 2207.26   1
   1  -8   9  27961. 2305.03   1
  -1   7  12  25631. 1344.41   1
  -1   7  12  26553. 1394.69   1
   1  -7 -12  27564. 1381.84   1
   1  -7 -12  27654. 2107.26   1
  -1   7  11  33827. 1664.80   1
  -1   7  11  31285. 1578.21   1
  -1   7  11  35614. 2648.88   1
  -1   7  11  36899. 2668.43   1
   1  -7 -11  33492. 1633.80   1
   1  -7 -11  33128. 2453.63   1
  -1   7  10  80168. 3564.24   1
  -1   7  10  82067. 3656.42   1
  -1   7  10  85698. 5941.33   1
  -1   7  10  82458. 5768.15   1
   1  -7 -10  81006. 3564.24   1
   1  -7 -10  88827. 6173.18   1
  -1   7   9 2180.72 467.877   1
  -1   7   9 2691.62 465.083   1
  -1   7   9 2155.86 403.631   1
  -1   7   9 2024.86 540.223   1
   1  -7  -9 2932.96 446.648   1
   1  -7  -9 2608.94 491.061   1
  -1   7   8 4460.89 518.156   1
  -1   7   8 5237.42 537.709   1
   1  -7  -8 5212.29 479.888   1
   1  -7  -8 3916.20 535.474   1
  -1   7   7 8930.16 644.692   1
  -1   7   7 8575.41 622.066   1
   1  -7  -7 8938.54 570.111   1
   1  -7  -7 9673.17 834.077   1
  -1   7   6  63938. 2877.09   1
  -1   7   6  63352. 2854.75   1
   1  -7  -6  62961. 2787.43   1
   1  -7  -6  67765. 4681.56   1
  -1   7   5  33296. 1601.95   1
  -1   7   5  32961. 1591.34   1
  -1   7   5  30922. 2156.42   1
  -1   7   5  31089. 2208.66   1
   1  -7  -5  33073. 1535.19   1
   1  -7  -5  30559. 2146.09   1
  -1   7   4 147681. 6371.50   1
  -1   7   4 143436. 6195.52   1
   1  -7  -4 152095. 6522.34   1
   1  -7  -4 131732. 9148.04   1
  -1   7   3 302793.  12894.   1
  -1   7   3 299162.  12740.   1
   1  -7  -3 294413.  12486.   1
  -1   7   2  768.71 344.972   1
  -1   7   2  486.87 339.106   1
   1  -7  -2  567.04 288.827   1
  -1   7   1 140335. 6061.45   1
  -1   7   1 142961. 6173.18   1
   1  -7  -1 144302. 6201.11   1
  -1   7   0  87737. 3854.74   1
  -1   7   0  89162. 3918.99   1
   1  -7   0  89134. 3896.64   1
  -1   7  -1  655.87 359.497   1
  -1   7  -1  770.11 354.469   1
   1  -7   1  735.19 286.313   1
   1  -7   1  990.22 322.905   1
  -1   7  -2  22290. 1144.41   1
  -1   7  -2  21332. 1107.82   1
   1  -7   2  22533. 1115.92   1
  -1   7  -3  20475. 1071.51   1
  -1   7  -3  23335. 1189.94   1
   1  -7   3  21391. 1066.76   1
  -1   7  -4  83575. 3684.35   1
  -1   7  -4  77570. 3430.16   1
   1  -7   4  80307. 3522.34   1
  -1   7  -5 8692.73 614.525   1
  -1   7  -5 8114.52 585.754   1
   1  -7   5 8715.08 563.128   1
  -1   7  -6 129385. 5600.55   1
  -1   7  -6 125922. 5460.89   1
   1  -7   6 118212. 5103.35   1
  -1   7  -7  73212. 3262.57   1
  -1   7  -7  72067. 3203.91   1
  -1   7  -7  73352. 5086.59   1
  -1   7  -7  67458. 4745.81   1
   1  -7   7  72989. 3223.46   1
   1  -7   7  72905. 5069.83   1
   1  -7   7  78128. 5477.65   1
  -1   7  -8 3631.28 488.547   1
  -1   7  -8 3240.22 494.692   1
  -1   7  -8 2882.68 475.977   1
  -1   7  -8 3136.87 612.849   1
   1  -7   8 3756.98 455.027   1
   1  -7   8 2627.65 598.603   1
   1  -7   8 2786.59 558.659   1
  -1   7  -9  46927. 2190.22   1
  -1   7  -9  47514. 2203.91   1
  -1   7  -9  46397. 3296.09   1
  -1   7  -9  50559. 3664.80   1
   1  -7   9  46816. 2170.67   1
   1  -7   9  43883. 3156.42   1
   1  -7   9  50391. 3648.04   1
  -1   7 -10 4036.31 558.938   1
  -1   7 -10 4181.56 589.385   1
  -1   7 -10 4385.47 640.502   1
  -1   7 -10 4550.27 821.228   1
   1  -7  10 3871.50 529.608   1
   1  -7  10 4837.98 758.938   1
   1  -7  10 3737.43 736.312   1
  -1   7 -11 1099.72 566.759   1
  -1   7 -11 1787.15 560.614   1
  -1   7 -11 2111.17 679.888   1
  -1   7 -11 1882.12 564.804   1
   1  -7  11 1625.98 548.044   1
   1  -7  11 2367.60 706.703   1
   1  -7  11 2271.51 731.284   1
  -1   6  13  38184. 1859.77   1
  -1   6  13  45112. 3270.95   1
  -1   6  13  37570. 2725.42   1
   1  -6 -13  35866. 1748.88   1
   1  -6 -13  33659. 2470.67   1
  -1   6  12 6762.56 683.798   1
  -1   6  12 8583.79 929.608   1
  -1   6  12 8460.88 791.340   1
   1  -6 -12 8432.95 673.463   1
   1  -6 -12 8016.75 833.239   1
  -1   6  11  59776. 2738.27   1
  -1   6  11  63799. 4500.00   1
  -1   6  11  56927. 3972.06   1
   1  -6 -11  60307. 2698.88   1
   1  -6 -11  56117. 3966.48   1
  -1   6  10  19832. 1100.28   1
  -1   6  10  22243. 1724.86   1
  -1   6  10  20790. 1552.51   1
   1  -6 -10  19265. 1043.57   1
   1  -6 -10  19226. 1486.03   1
  -1   6   9 5620.11 579.608   1
   1  -6  -9 6298.88 531.843   1
   1  -6  -9 5617.31 603.351   1
  -1   6   8 2762.01 453.910   1
  -1   6   8 3094.97 428.212   1
   1  -6  -8 2617.04 404.748   1
   1  -6  -8 2930.16 438.826   1
  -1   6   7  53911. 2470.11   1
  -1   6   7  49413. 2248.32   1
   1  -6  -7  50838. 2303.35   1
   1  -6  -7  54218. 3773.74   1
  -1   6   6 172374. 7418.99   1
  -1   6   6 175056. 7513.96   1
   1  -6  -6 169274. 7237.42   1
   1  -6  -6 181089.  12369.   1
  -1   6   5  12103. 754.748   1
  -1   6   5  11897. 734.915   1
   1  -6  -5  12098. 694.692   1
   1  -6  -5  11425. 865.921   1
  -1   6   4 377653.  16028.   1
  -1   6   4 384078.  16302.   1
   1  -6  -4 363687.  15399.   1
   1  -6  -4 447765.  30503.   1
  -1   6   3  20718. 1069.55   1
  -1   6   3  21799. 1114.80   1
  -1   6   3  19042. 1332.40   1
  -1   6   3  19383. 1359.50   1
   1  -6  -3  23039. 1124.02   1
   1  -6  -3  19645. 1373.46   1
  -1   6   2  60195. 2701.67   1
  -1   6   2  62793. 2801.67   1
   1  -6  -2  59302. 2620.11   1
  -1   6   1  71564. 3175.97   1
  -1   6   1  75112. 3312.85   1
   1  -6  -1  75559. 3298.88   1
  -1   6   0  43827. 2019.83   1
  -1   6   0  40922. 1883.24   1
   1  -6   0  41006. 1857.82   1
  -1   6  -1  11014. 658.659   1
  -1   6  -1 9720.66 624.301   1
   1  -6   1  10964. 633.519   1
   1  -6   1  11615. 651.117   1
  -1   6  -2  16855. 903.910   1
  -1   6  -2  17271. 929.049   1
   1  -6   2  17723. 906.703   1
   1  -6   2  17388. 887.150   1
  -1   6  -3 278128.  11844.   1
  -1   6  -3 279190.  11883.   1
   1  -6   3 262290.  11156.   1
  -1   6  -4  54441. 2456.70   1
  -1   6  -4  54218. 2460.05   1
   1  -6   4  54190. 2437.99   1
  -1   6  -5 182458. 7824.01   1
  -1   6  -5 180056. 7731.84   1
   1  -6   5 184078. 7879.88   1
   1  -6   5 173910.  11897.   1
   1  -6   5 158687.  10894.   1
  -1   6  -6 194078. 8312.84   1
  -1   6  -6 196871. 8438.54   1
   1  -6   6 194944. 8335.19   1
   1  -6   6 188352.  12911.   1
   1  -6   6 209413.  14307.   1
  -1   6  -7  896.09 361.173   1
  -1   6  -7  913.41 365.083   1
  -1   6  -7  891.06 381.285   1
  -1   6  -7  960.33 270.028   1
   1  -6   7 1039.94 355.586   1
   1  -6   7  226.51 379.609   1
   1  -6   7  489.94 434.078   1
  -1   6  -8  32598. 1569.83   1
  -1   6  -8  32207. 1555.31   1
  -1   6  -8  29413. 2128.49   1
  -1   6  -8  35140. 2573.74   1
   1  -6   8  34497. 1634.64   1
   1  -6   8  34944. 2552.79   1
   1  -6   8  28408. 2090.22   1
  -1   6  -9  29385. 1456.70   1
  -1   6  -9  29162. 1430.17   1
  -1   6  -9  29134. 2108.94   1
  -1   6  -9  31648. 2326.53   1
   1  -6   9  28911. 1430.72   1
   1  -6   9  29777. 2190.22   1
   1  -6   9  30028. 2243.85   1
  -1   6 -10  13363. 1167.32   1
  -1   6 -10  11341. 975.418   1
   1  -6  10  12601. 803.910   1
   1  -6  10  11958. 1052.79   1
   1  -6  10  13464. 1184.64   1
  -1   6 -11 2360.89 511.731   1
  -1   6 -11 2207.54 531.564   1
  -1   6 -11 2578.49 503.072   1
  -1   6 -11 2716.48 676.815   1
   1  -6  11 2753.63 513.128   1
   1  -6  11 2133.80 592.737   1
   1  -6  11 2249.72 587.150   1
  -1   6 -12  20313. 1147.48   1
  -1   6 -12  19025. 1101.40   1
  -1   6 -12  19316. 1509.50   1
  -1   6 -12  22799. 1794.97   1
   1  -6  12  20070. 1134.08   1
   1  -6  12  19897. 1617.04   1
   1  -6  12  18969. 1556.14   1
  -1   5  14  59916. 2762.57   1
   1  -5 -14  57458. 2600.56   1
   1  -5 -14  55559. 3927.37   1
  -1   5  13 5499.99 631.284   1
  -1   5  13 7103.34 769.273   1
  -1   5  13 6175.97 679.608   1
   1  -5 -13 4421.78 531.843   1
   1  -5 -13 5259.77 685.753   1
  -1   5  12 9203.90 736.591   1
  -1   5  12 9927.36 921.787   1
  -1   5  12 8391.05 798.044   1
   1  -5 -12 7550.27 647.485   1
   1  -5 -12 8005.58 791.340   1
  -1   5  11  29330. 1479.33   1
   1  -5 -11  31816. 1518.43   1
   1  -5 -11  28296. 2091.34   1
  -1   5  10  45447. 2134.08   1
  -1   5  10  45475. 3259.77   1
  -1   5  10  46257. 3268.15   1
   1  -5 -10  46201. 2134.08   1
   1  -5 -10  46033. 3270.95   1
  -1   5   9  42095. 1996.37   1
  -1   5   9  39218. 2812.85   1
  -1   5   9  38966. 2770.67   1
   1  -5  -9  39022. 1839.10   1
   1  -5  -9  38911. 2781.84   1
  -1   5   8  37598. 1790.78   1
  -1   5   8  41257. 2905.02   1
  -1   5   8  40251. 2857.54   1
   1  -5  -8  38017. 1785.75   1
   1  -5  -8  40475. 2874.30   1
  -1   5   7 265223.  11321.   1
   1  -5  -7 271648.  11581.   1
   1  -5  -7 264972.  18078.   1
  -1   5   6  18980. 988.546   1
  -1   5   6  20564. 1085.19   1
   1  -5  -6  19154. 992.457   1
   1  -5  -6  19866. 1450.00   1
  -1   5   5 249497.  10654.   1
  -1   5   5 229804. 9810.04   1
   1  -5  -5 227458. 9703.90   1
   1  -5  -5 254469.  17335.   1
  -1   5   4 135838. 5874.30   1
  -1   5   4 134637. 5810.05   1
   1  -5  -4 140670. 6053.07   1
   1  -5  -4 149469.  10201.   1
  -1   5   3  13304. 747.485   1
  -1   5   3  13922. 776.815   1
   1  -5  -3  13075. 722.904   1
   1  -5  -3  12908. 922.904   1
  -1   5   2  22341. 1108.38   1
  -1   5   2  21804. 1091.06   1
   1  -5  -2  22254. 1077.93   1
   1  -5  -2  18182. 1271.23   1
  -1   5   1  77011. 3385.47   1
  -1   5   1  76983. 3382.68   1
   1  -5  -1  78100. 3396.64   1
  -1   5   0 124302. 5363.12   1
  -1   5   0 130586. 5631.28   1
   1  -5   0 129469. 5578.21   1
   1  -5   0 128045. 5488.82   1
  -1   5  -1  10877. 641.340   1
  -1   5  -1  10718. 629.329   1
   1  -5   1  11492. 620.670   1
   1  -5   1  11642. 665.642   1
   1  -5   1 8846.36 633.240   1
  -1   5  -2 272178.  11573.   1
  -1   5  -2 280726.  11941.   1
   1  -5   2 266732.  11341.   1
   1  -5   2 265475.  11268.   1
   1  -5   2 265838.  18101.   1
  -1   5  -3 311732.  13249.   1
  -1   5  -3 301676.  12821.   1
   1  -5   3 290223.  12321.   1
   1  -5   3 329050.  22385.   1
  -1   5  -4  87681. 3840.78   1
  -1   5  -4  89581. 3921.78   1
   1  -5   4  87235. 3796.09   1
   1  -5   4  74385. 5128.49   1
  -1   5  -5 318994.  13550.   1
  -1   5  -5 316480.  13447.   1
   1  -5   5 309497.  13140.   1
  -1   5  -6  23897. 1194.41   1
  -1   5  -6  24480. 1209.22   1
  -1   5  -6  23190. 1726.26   1
  -1   5  -6  21838. 1603.63   1
   1  -5   6  24606. 1222.07   1
   1  -5   6  25866. 1894.97   1
   1  -5   6  23461. 1748.60   1
  -1   5  -7  24715. 1237.71   1
  -1   5  -7  25112. 1242.46   1
  -1   5  -7  23930. 1801.39   1
   1  -5   7  24665. 1217.88   1
   1  -5   7  23017. 1741.34   1
   1  -5   7  22006. 1650.84   1
  -1   5  -8  19489. 1530.17   1
   1  -5   8  19014. 996.368   1
   1  -5   8  16561. 1306.98   1
   1  -5   8  19522. 1537.15   1
  -1   5  -9  30223. 1480.45   1
  -1   5  -9  30335. 1484.36   1
  -1   5  -9  35335. 2584.91   1
   1  -5   9  30978. 1510.05   1
   1  -5   9  35195. 2552.51   1
   1  -5   9  34134. 2498.88   1
  -1   5 -10  34972. 1690.50   1
  -1   5 -10  33631. 1613.69   1
  -1   5 -10  44246. 3170.39   1
   1  -5  10  36480. 1730.45   1
   1  -5  10  37877. 2732.96   1
   1  -5  10  41117. 2974.86   1
  -1   5 -11 7960.89 630.167   1
  -1   5 -11 8634.07 683.798   1
  -1   5 -11 9748.59 887.150   1
   1  -5  11 9139.66 698.044   1
   1  -5  11  10690. 987.988   1
   1  -5  11 8564.24 833.798   1
  -1   5 -12 108519. 4751.39   1
  -1   5 -12 105335. 4614.52   1
  -1   5 -12 130894. 9047.48   1
   1  -5  12 106704. 4695.53   1
   1  -5  12 112486. 7782.11   1
   1  -5  12 130335. 9002.78   1
  -1   5 -13 8991.61 727.932   1
  -1   5 -13 9935.74 777.932   1
  -1   5 -13  13894. 1201.12   1
   1  -5  13 9128.48 754.189   1
   1  -5  13  11953. 1059.22   1
   1  -5  13  12684. 1128.49   1
  -1   4  15  31369. 1631.00   1
  -1   4  15  39832. 2885.47   1
  -1   4  15  36508. 2660.05   1
   1  -4 -15  32011. 1622.07   1
   1  -4 -15  33687. 2459.22   1
  -1   4  14  14994. 994.971   1
  -1   4  14  16986. 1383.80   1
  -1   4  14  15966. 1299.16   1
   1  -4 -14  16003. 955.027   1
   1  -4 -14  15860. 1282.68   1
  -1   4  13 4223.46 582.122   1
  -1   4  13 4173.18 580.726   1
  -1   4  13 5826.81 698.044   1
   1  -4 -13 4486.03 537.988   1
   1  -4 -13 4824.02 593.016   1
  -1   4  12 3997.20 568.994   1
  -1   4  12 3952.51 560.614   1
  -1   4  12 2707.54 476.815   1
   1  -4 -12 2946.92 470.670   1
   1  -4 -12 2722.34 454.189   1
  -1   4  11 121732. 5321.22   1
   1  -4 -11 119274. 5148.04   1
   1  -4 -11 123212. 8486.02   1
  -1   4  10 128296. 5600.55   1
  -1   4  10 124357. 8572.62   1
  -1   4  10 135866. 9391.05   1
   1  -4 -10 130950. 5648.04   1
   1  -4 -10 122067. 8416.19   1
  -1   4   9  49665. 2291.34   1
  -1   4   9  56173. 4005.58   1
  -1   4   9  49385. 3494.41   1
   1  -4  -9  51648. 2333.52   1
   1  -4  -9  49860. 3522.34   1
  -1   4   8 356145.  15145.   1
  -1   4   8 343016.  23411.   1
  -1   4   8 344692.  23489.   1
   1  -4  -8 349720.  14855.   1
   1  -4  -8 336871.  22964.   1
  -1   4   7  57821. 2629.33   1
   1  -4  -7  58855. 2648.60   1
   1  -4  -7  60782. 4240.22   1
  -1   4   6  81117. 3586.59   1
   1  -4  -6  73659. 3254.19   1
   1  -4  -6  75922. 5251.39   1
  -1   4   5 209497. 8960.88   1
   1  -4  -5 191089. 8175.97   1
   1  -4  -5 200363.  13673.   1
  -1   4   4  10542. 627.094   1
  -1   4   4  12081. 707.820   1
   1  -4  -4  10642. 612.010   1
   1  -4  -4  11103. 838.267   1
  -1   4   3 8474.85 541.899   1
  -1   4   3 8184.35 523.184   1
   1  -4  -3 9620.10 576.536   1
   1  -4  -3 8717.87 649.999   1
  -1   4   2 4407.82 376.815   1
  -1   4   2 3997.20 338.547   1
   1  -4  -2 4567.03 365.083   1
   1  -4  -2 3502.79 277.905   1
  -1   4   1 327374.  13871.   1
  -1   4   1 315363.  13374.   1
   1  -4  -1 331843.  14059.   1
  -1   4   0 118687. 5108.93   1
  -1   4   0 116648. 5025.13   1
   1  -4   0 125056. 5368.71   1
   1  -4   0 125810. 5402.23   1
  -1   4  -1 124609. 5360.33   1
  -1   4  -1 123994. 5335.19   1
   1  -4   1 128128. 5494.41   1
   1  -4   1 121983. 5243.01   1
   1  -4   1 135531. 9254.18   1
  -1   4  -2 434357.  18383.   1
  -1   4  -2 459776.  19439.   1
   1  -4   2 418715.  17721.   1
   1  -4   2 431843.  18257.   1
   1  -4   2 453351.  30838.   1
  -1   4  -3 7796.08 499.161   1
  -1   4  -3 7849.15 501.396   1
   1  -4   3 7888.26 490.223   1
   1  -4   3 8217.87 644.413   1
  -1   4  -4 159776. 6851.95   1
  -1   4  -4 164860. 7061.45   1
   1  -4   4 165614. 7100.55   1
   1  -4   4 162458.  11109.   1
  -1   4  -5  42542. 1950.56   1
  -1   4  -5  43184. 1964.52   1
  -1   4  -5  36033. 2599.72   1
   1  -4   5  44190. 2000.28   1
   1  -4   5  48324. 3393.85   1
  -1   4  -6  45950. 2101.11   1
  -1   4  -6  42486. 1952.51   1
  -1   4  -6  40419. 2888.27   1
   1  -4   6  42598. 1937.43   1
   1  -4   6  42318. 3016.76   1
   1  -4   6  45587. 3231.84   1
  -1   4  -7 2388.82 363.128   1
  -1   4  -7 2434.63 372.067   1
  -1   4  -7 2647.48 446.648   1
   1  -4   7 3078.21 399.441   1
   1  -4   7 3019.55 451.676   1
   1  -4   7 2832.40 456.983   1
  -1   4  -8  60922. 2753.35   1
  -1   4  -8  55670. 2508.38   1
  -1   4  -8  66983. 4717.87   1
   1  -4   8  53352. 2414.80   1
   1  -4   8  57095. 4016.76   1
   1  -4   8  54916. 3879.88   1
  -1   4  -9 196592. 8446.92   1
  -1   4  -9 183827. 7888.26   1
  -1   4  -9 218436.  14978.   1
   1  -4   9 183659. 7877.09   1
   1  -4   9 188296.  12905.   1
   1  -4   9 203268.  13950.   1
  -1   4 -10  385.75 377.653   1
  -1   4 -10  402.23 289.385   1
  -1   4 -10 1094.69 436.871   1
   1  -4  10 1166.76 375.977   1
   1  -4  10 1394.13 411.452   1
   1  -4  10  645.81 417.318   1
  -1   4 -11 143491. 6201.11   1
  -1   4 -11 169050.  11617.   1
   1  -4  11 133156. 5765.36   1
   1  -4  11 143100. 9843.57   1
   1  -4  11 174860.  12008.   1
  -1   4 -12  44860. 2100.28   1
  -1   4 -12  58436. 4117.31   1
   1  -4  12  48994. 2269.83   1
   1  -4  12  49302. 3511.17   1
   1  -4  12  55112. 3907.82   1
  -1   4 -13 9005.58 725.698   1
  -1   4 -13  10388. 939.384   1
   1  -4  13 8508.37 718.156   1
   1  -4  13 9589.38 930.725   1
   1  -4  13 9424.57 892.737   1
  -1   4 -14  23117. 1270.39   1
  -1   4 -14  26156. 1956.14   1
   1  -4  14  23223. 1284.64   1
   1  -4  14  24447. 1840.78   1
   1  -4  14  26726. 2016.76   1
  -1   3  15 3759.77 626.815   1
  -1   3  15 4678.77 640.223   1
  -1   3  15 4631.28 600.837   1
   1  -3 -15 3150.83 618.156   1
   1  -3 -15 4472.06 609.497   1
  -1   3  14  12589. 903.910   1
  -1   3  14  12366. 1039.66   1
  -1   3  14  13000. 1112.29   1
   1  -3 -14  10874. 787.429   1
   1  -3 -14  12796. 1073.18   1
  -1   3  13  26246. 1375.42   1
  -1   3  13  30922. 2248.32   1
  -1   3  13  27411. 2019.55   1
   1  -3 -13  27310. 1370.39   1
   1  -3 -13  25531. 1889.66   1
  -1   3  12  35391. 1754.75   1
  -1   3  12  41508. 2969.27   1
  -1   3  12  46089. 3270.95   1
   1  -3 -12  38268. 1827.37   1
   1  -3 -12  42039. 3011.17   1
  -1   3  11 293016.  12525.   1
  -1   3  11 300838.  20542.   1
  -1   3  11 349441.  23838.   1
   1  -3 -11 274860.  11701.   1
   1  -3 -11 290782.  19852.   1
  -1   3  10 9762.56 721.787   1
  -1   3  10  10293. 887.709   1
  -1   3  10  10916. 982.680   1
   1  -3 -10 9259.77 612.569   1
   1  -3 -10  11640. 990.781   1
  -1   3   9 306983.  13103.   1
  -1   3   9 299720.  20455.   1
  -1   3   9 338826.  23148.   1
   1  -3  -9 302234.  12838.   1
   1  -3  -9 316480.  21598.   1
  -1   3   8  80922. 3606.14   1
  -1   3   8  74162. 5156.42   1
  -1   3   8  79749. 5586.59   1
   1  -3  -8  79357. 3480.44   1
   1  -3  -8  73743. 5136.87   1
  -1   3   7  16034. 907.820   1
  -1   3   7  15983. 1242.46   1
  -1   3   7  15126. 1232.12   1
   1  -3  -7  18249. 934.357   1
   1  -3  -7  15316. 1178.21   1
  -1   3   6  39637. 1853.63   1
   1  -3  -6  39078. 1780.45   1
   1  -3  -6  35950. 2554.47   1
  -1   3   5  48408. 2212.57   1
   1  -3  -5  49190. 2204.19   1
   1  -3  -5  43771. 3069.83   1
  -1   3   4 340782.  14452.   1
   1  -3  -4 341061.  14436.   1
   1  -3  -4 351676.  23936.   1
  -1   3   3 2944.13 304.469   1
   1  -3  -3 2702.23 260.111   1
   1  -3  -3 3245.81 306.983   1
   1  -3  -2 832681.  35084.   1
  -1   3   1 346927.  14684.   1
  -1   3   1 355586.  15053.   1
   1  -3  -1 346648.  14656.   1
  -1   3   0  93380. 4033.52   1
  -1   3   0  95978. 4136.87   1
   1  -3   0  96843. 4162.01   1
   1  -3   0  97654. 4189.94   1
  -1   3  -1 437709.  18503.   1
  -1   3  -1 474860.  20059.   1
  -1   3  -1 409497.  27897.   1
   1  -3   1 456703.  19282.   1
   1  -3   1 450558.  19034.   1
   1  -3   1 341899.  23290.   1
  -1   3  -2  36397. 1643.85   1
  -1   3  -2  38240. 1725.14   1
   1  -3   2  37821. 1690.22   1
   1  -3   2  34497. 2387.99   1
  -1   3  -3  11478. 622.904   1
  -1   3  -3  12067. 640.781   1
   1  -3   3  12679. 658.100   1
   1  -3   3  10665. 810.614   1
  -1   3  -4 6430.16 427.095   1
  -1   3  -4 6131.28 427.374   1
   1  -3   4 5589.38 387.709   1
   1  -3   4 5413.40 494.972   1
  -1   3  -5 194860. 8324.01   1
  -1   3  -5 178491. 7631.28   1
  -1   3  -5 145195. 9960.88   1
   1  -3   5 190670. 8134.07   1
  -1   3  -6 192542. 8243.01   1
  -1   3  -6 171508.  11785.   1
   1  -3   6 185000. 7913.40   1
   1  -3   6 164693.  11293.   1
   1  -3   6 150950.  10360.   1
  -1   3  -7  43520. 2019.83   1
  -1   3  -7  39302. 2815.64   1
   1  -3   7  39134. 1800.84   1
   1  -3   7  37989. 2721.51   1
   1  -3   7  36089. 2600.00   1
  -1   3  -8 437430.  18539.   1
  -1   3  -8 459497.  31341.   1
   1  -3   8 415083.  17598.   1
   1  -3   8 450279.  30670.   1
   1  -3   8 413966.  28212.   1
  -1   3  -9  27475. 1367.88   1
  -1   3  -9  32570. 2384.63   1
   1  -3   9  26908. 1338.55   1
   1  -3   9  27751. 2058.94   1
   1  -3   9  27723. 2059.50   1
  -1   3 -10 191843. 8245.80   1
  -1   3 -10 228128.  15640.   1
   1  -3  10 192151. 8256.97   1
   1  -3  10 190419.  13064.   1
   1  -3  10 220530.  15117.   1
  -1   3 -11  73492. 3282.12   1
  -1   3 -11  89916. 6265.36   1
   1  -3  11  73184. 3268.15   1
   1  -3  11  78464. 5472.06   1
   1  -3  11  78324. 5480.44   1
  -1   3 -12 1508.94 432.681   1
  -1   3 -12 2552.79 484.636   1
   1  -3  12 1827.37 493.016   1
   1  -3  12 1981.00 453.072   1
   1  -3  12 2059.50 465.363   1
  -1   3 -13 4840.78 572.066   1
  -1   3 -13 4698.32 570.670   1
   1  -3  13 3553.07 559.497   1
   1  -3  13 4346.36 569.832   1
   1  -3  13 4248.60 570.670   1
  -1   3 -14  15050. 922.066   1
  -1   3 -14  17120. 1356.42   1
   1  -3  14  16338. 1039.38   1
   1  -3  14  14891. 1213.13   1
   1  -3  14  16455. 1318.71   1
  -1   3 -15  35614. 1754.47   1
  -1   3 -15  43771. 3134.07   1
   1  -3  15  38128. 1894.69   1
   1  -3  15  39581. 2857.54   1
   1  -3  15  36397. 2636.31   1
  -1   2  16  261.03 606.424   1
  -1   2  16 -108.46 524.580   1
  -1   2  16   17.48 430.726   1
   1  -2 -16  139.22 525.418   1
   1  -2 -16  376.82 408.379   1
  -1   2  15  30894. 1572.62   1
  -1   2  15  34804. 2510.89   1
  -1   2  15  32542. 2372.62   1
   1  -2 -15  30503. 1555.31   1
   1  -2 -15  34525. 2499.16   1
  -1   2  14  58715. 2691.06   1
  -1   2  14  60866. 4276.53   1
  -1   2  14  61369. 4293.29   1
   1  -2 -14  59357. 2727.09   1
   1  -2 -14  59776. 4198.32   1
  -1   2  13 6374.29 641.619   1
  -1   2  13 8385.47 768.714   1
  -1   2  13 8321.22 785.753   1
   1  -2 -13 7625.69 588.547   1
   1  -2 -13 8368.71 778.770   1
  -1   2  12 235866.  10128.   1
  -1   2  12 262989.  17961.   1
  -1   2  12 247179.  16905.   1
   1  -2 -12 212067. 9081.00   1
   1  -2 -12 244497.  16726.   1
  -1   2  11  39804. 1917.32   1
  -1   2  11  44022. 3108.94   1
  -1   2  11  46341. 3301.67   1
   1  -2 -11  40419. 1915.64   1
   1  -2 -11  45782. 3268.15   1
  -1   2  10  51229. 2382.96   1
  -1   2  10  57263. 4030.72   1
  -1   2  10  62290. 4365.92   1
   1  -2 -10  51704. 2360.89   1
   1  -2 -10  54944. 3874.30   1
  -1   2   9  84246. 3762.57   1
  -1   2   9  67179. 4701.11   1
  -1   2   9  75866. 5287.70   1
   1  -2  -9  73240. 3243.01   1
   1  -2  -9  74022. 5162.01   1
  -1   2   8  40112. 1908.66   1
  -1   2   8  36983. 2642.73   1
  -1   2   8  37570. 2696.92   1
   1  -2  -8  39972. 1841.34   1
   1  -2  -8  39358. 2812.85   1
  -1   2   7 3282.12 414.525   1
  -1   2   7 3346.36 443.854   1
  -1   2   7 3304.47 406.983   1
   1  -2  -7 3569.83 362.290   1
   1  -2  -7 3301.67 449.441   1
  -1   2   6 5910.61 490.223   1
  -1   2   6 4966.48 508.379   1
  -1   2   6 5815.64 543.016   1
   1  -2  -6 6039.10 446.089   1
   1  -2  -6 6215.08 599.999   1
  -1   2   5 493016.  20858.   1
   1  -2  -5 458100.  19360.   1
   1  -2  -5 452793.  30838.   1
  -1   2   4  92262. 4019.55   1
   1  -2  -4  89665. 3888.26   1
   1  -2  -4  76927. 5315.64   1
  -1   2   3 632960.  43017.   1
  -1   2   3 596089.  40531.   1
   1  -2  -3 758100.  51508.   1
  -1   2   2 692737.  29218.   1
  -1   2   2 653351.  44385.   1
   1  -2  -2 685754.  28911.   1
   1  -2  -2 644413.  43799.   1
  -1   2   1  20732. 971.228   1
  -1   2   1  21151. 980.446   1
  -1   2   1  21070. 1452.51   1
  -1   2   1  22656. 1563.96   1
   1  -2  -1  22207. 1032.96   1
   1  -2  -1  22709. 1565.64   1
  -1   2   0 586312.  24726.   1
  -1   2   0 590782.  24911.   1
  -1   2  -1  58938. 2556.98   1
  -1   2  -1  57263. 2490.50   1
  -1   2  -1  61145. 4184.35   1
   1  -2   1  58017. 2520.39   1
   1  -2   1  60140. 2619.27   1
   1  -2   1  59078. 4041.90   1
   1  -2   1  59665. 4086.59   1
  -1   2  -2 9762.56 520.670   1
  -1   2  -2 9675.97 520.111   1
  -1   2  -2 8606.14 656.424   1
   1  -2   2 9296.08 498.603   1
   1  -2   2 8053.06 617.318   1
   1  -2   2 9877.08 749.999   1
  -1   2  -3 1156.98 206.620   1
  -1   2  -3  707.26 202.989   1
  -1   2  -3 1322.35 235.642   1
   1  -2   3  758.38 190.642   1
   1  -2   4 151843. 6488.82   1
   1  -2   5 436312.  18472.   1
  -1   2  -6 1122.35 291.340   1
  -1   2  -6  568.71 276.424   1
   1  -2   6  529.61 247.262   1
   1  -2   6  666.20 280.167   1
   1  -2   6  732.68 270.782   1
  -1   2  -7 439664.  18648.   1
  -1   2  -7 387709.  26466.   1
   1  -2   7 432122.  18302.   1
   1  -2   7 413128.  28184.   1
   1  -2   7 413407.  28156.   1
  -1   2  -8  92011. 4058.65   1
  -1   2  -8  86508. 6016.75   1
   1  -2   8  89916. 3960.89   1
   1  -2   8 106955. 7421.78   1
   1  -2   8  92933. 6452.51   1
  -1   2  -9  44302. 2067.32   1
  -1   2  -9  46117. 3310.05   1
   1  -2   9  39553. 1848.32   1
   1  -2   9  41173. 2955.30   1
   1  -2   9  42933. 3072.62   1
  -1   2 -10  62849. 2837.99   1
  -1   2 -10  69693. 4899.44   1
   1  -2  10  65251. 2944.13   1
   1  -2  10  70307. 4938.54   1
   1  -2  10  78184. 5455.30   1
  -1   2 -11  19151. 1024.02   1
  -1   2 -11  21813. 1665.08   1
   1  -2  11  19961. 1086.87   1
   1  -2  11  21841. 1671.79   1
   1  -2  11  21154. 1611.73   1
  -1   2 -12 9058.65 661.452   1
  -1   2 -12  11939. 1019.55   1
   1  -2  12 8681.55 680.446   1
   1  -2  12  10500. 926.535   1
   1  -2  12 8684.35 808.100   1
  -1   2 -13 1189.10 417.318   1
  -1   2 -13 1517.32 381.285   1
   1  -2  13 2052.51 497.486   1
   1  -2  13 1825.42 455.307   1
   1  -2  13 1974.30 432.122   1
  -1   2 -14  83184. 3689.94   1
  -1   2 -14  90000. 6234.63   1
   1  -2  14  87458. 3885.47   1
   1  -2  14  84749. 5899.44   1
   1  -2  14  89218. 6203.90   1
  -1   2 -15  55084. 2523.18   1
  -1   2 -15  54609. 3857.54   1
   1  -2  15  53631. 2507.82   1
   1  -2  15  56927. 4025.14   1
   1  -2  15  57179. 4033.52   1
  -1   1  16  32849. 1676.53   1
  -1   1  16  32989. 2383.52   1
  -1   1  16  33268. 2405.86   1
   1  -1 -16  31173. 1544.69   1
   1  -1 -16  32151. 2334.36   1
  -1   1  15  92654. 4111.73   1
  -1   1  15 103911. 7170.38   1
  -1   1  15  94302. 6513.96   1
   1  -1 -15  94721. 4175.97   1
   1  -1 -15  99246. 6863.12   1
  -1   1  14  214.44 474.022   1
  -1   1  14  273.10 323.743   1
  -1   1  14  170.22 377.374   1
   1  -1 -14  -66.90 454.189   1
   1  -1 -14  301.68 319.832   1
  -1   1  13 138212. 6022.34   1
  -1   1  13 141788. 9743.01   1
  -1   1  13 154329.  10615.   1
   1  -1 -13 138547. 5972.06   1
   1  -1 -13 146257.  10056.   1
  -1   1  12  66257. 3005.58   1
  -1   1  12  69134. 4849.16   1
  -1   1  12  74776. 5212.29   1
   1  -1 -12  73017. 3265.36   1
   1  -1 -12  71592. 5002.79   1
  -1   1  11 2697.20 476.815   1
  -1   1  11 3550.28 488.547   1
  -1   1  11 3139.66 483.798   1
   1  -1 -11 3608.93 482.960   1
   1  -1 -11 3198.32 462.011   1
  -1   1  10  28603. 1447.21   1
  -1   1  10  28687. 2139.10   1
  -1   1  10  26444. 1951.39   1
   1  -1 -10  26536. 1346.93   1
   1  -1 -10  26223. 1946.37   1
  -1   1   9  59972. 2744.69   1
  -1   1   9  62570. 4391.06   1
  -1   1   9  58715. 4156.42   1
   1  -1  -9  62654. 2832.40   1
   1  -1  -9  61369. 4329.60   1
  -1   1   8  93743. 4150.83   1
  -1   1   8  90028. 6268.15   1
   1  -1  -8  89525. 3946.92   1
   1  -1  -8  91676. 6374.29   1
  -1   1   7 3215.08 411.452   1
  -1   1   7 1786.59 370.949   1
   1  -1  -7 3128.49 367.597   1
   1  -1  -7 2346.65 400.000   1
   1  -1  -6 296368.  12606.   1
   1  -1  -6 313128.  21391.   1
   1  -1  -5 368435.  15623.   1
   1  -1  -5 352234.  24033.   1
  -1   1   4 263044.  11187.   1
  -1   1   4 211676.  14452.   1
   1  -1  -4 275447.  11698.   1
   1  -1  -4 234637.  16025.   1
  -1   1   3 731843.  30866.   1
   1  -1  -3 698603.  29469.   1
   1  -1  -3 579329.  39385.   1
  -1   1   2 138715. 5916.19   1
  -1   1   2 136648. 9321.22   1
   1  -1  -2 139469. 5938.54   1
   1  -1  -2 129972. 8885.47   1
  -1   1   1  18095. 826.815   1
  -1   1   1  17994. 1250.84   1
   1  -1  -1  19441. 881.843   1
   1  -1  -1  21561. 1501.67   1
   1  -1  -1  19218. 1332.96   1
  -1   1   0  81061. 3452.51   1
  -1   1   0  83827. 3569.83   1
  -1   1   0  91732. 6251.39   1
  -1   1   0  83799. 5712.28   1
   1  -1   0  80754. 3438.54   1
   1  -1   0  79218. 3379.88   1
   1  -1   0  82318. 5611.73   1
   1  -1   0  83938. 5720.66   1
  -1   1  -1 154525. 6544.69   1
  -1   1  -1 155363. 6581.00   1
  -1   1  -1 153212.  10430.   1
  -1   1  -1 163156.  11103.   1
   1  -1   1 156955. 6648.04   1
   1  -1   1 165028.  11229.   1
   1  -1   1 169944.  11573.   1
  -1   1  -2  97374. 4162.01   1
  -1   1  -2 105084. 7189.94   1
   1  -1   2  97514. 4170.39   1
   1  -1   2 107151. 7326.81   1
   1  -1   2  96760. 6636.86   1
  -1   1  -3  42151. 1874.02   1
  -1   1  -3  40447. 2826.81   1
   1  -1   3  44637. 1975.42   1
   1  -1   3  34358. 2433.52   1
   1  -1   3  36061. 2535.19   1
  -1   1  -4 407821.  17254.   1
  -1   1  -4 339664.  23137.   1
   1  -1   4 408379.  17268.   1
   1  -1   4 336871.  22944.   1
   1  -1   4 333519.  22729.   1
   1  -1   5  75028. 3284.91   1
  -1   1  -6 345530.  14682.   1
  -1   1  -6 272877.  18640.   1
   1  -1   6 320111.  13589.   1
  -1   1  -7 225530. 9642.45   1
  -1   1  -7 199972.  13723.   1
   1  -1   7 200810. 8592.17   1
  -1   1  -8 2732.12 389.944   1
  -1   1  -8 2829.61 445.810   1
   1  -1   8 2532.96 359.776   1
   1  -1   8 3650.83 480.167   1
   1  -1   8 3712.29 491.340   1
  -1   1  -9 6578.21 534.078   1
  -1   1  -9 6399.43 675.977   1
   1  -1   9 6525.13 520.111   1
   1  -1   9 6455.30 675.418   1
   1  -1   9 6678.76 677.653   1
  -1   1 -10  31229. 1516.20   1
  -1   1 -10  32318. 2375.70   1
   1  -1  10  31313. 1541.90   1
   1  -1  10  31313. 2294.13   1
   1  -1  10  33687. 2465.36   1
  -1   1 -11  50978. 2340.50   1
  -1   1 -11  61592. 4343.57   1
   1  -1  11  48631. 2255.86   1
   1  -1  11  50894. 3625.69   1
   1  -1  11  53799. 3815.64   1
  -1   1 -12  17978. 1015.64   1
  -1   1 -12  18416. 1444.13   1
   1  -1  12  16955. 980.725   1
  -1   1 -13  91313. 4013.96   1
  -1   1 -13  90475. 6273.74   1
   1  -1  13  89385. 3963.68   1
   1  -1  13  86452. 6005.58   1
   1  -1  13  95726. 6639.66   1
  -1   1 -14 155335. 6712.28   1
  -1   1 -14 161955.  11123.   1
   1  -1  14 164553. 7108.93   1
   1  -1  14 159944.  10994.   1
   1  -1  14 152458.  10486.   1
  -1   1 -15 1389.10 497.486   1
  -1   1 -15 1901.67 474.860   1
   1  -1  15  939.66 575.977   1
   1  -1  15  847.21 452.234   1
   1  -1  15 1564.24 427.932   1
  -1   1 -16  59749. 2748.60   1
  -1   1 -16  58771. 4145.25   1
   1  -1  16  61927. 2860.33   1
   1  -1  16  66369. 4639.66   1
   1  -1  16  64274. 4519.55   1
  -1   0  16  89553. 4002.79   1
  -1   0  16  95894. 6636.86   1
  -1   0  16  94581. 6550.27   1
   1   0 -16  87737. 3888.26   1
   1   0 -16  92765. 6418.99   1
  -1   0  15  13581. 903.910   1
  -1   0  15  14841. 1176.26   1
  -1   0  15  14609. 1186.31   1
   1   0 -15  13581. 841.340   1
   1   0 -15  14994. 1206.42   1
  -1   0  14  50000. 2329.33   1
  -1   0  14  56229. 3966.48   1
  -1   0  14  56844. 3991.62   1
   1   0 -14  53492. 2425.42   1
   1   0 -14  54860. 3871.50   1
  -1   0  13  47682. 2249.44   1
  -1   0  13  46508. 3304.47   1
  -1   0  13  49749. 3525.14   1
   1   0 -13  49385. 2284.63   1
   1   0 -13  46788. 3321.23   1
  -1   0  12 4466.48 551.955   1
  -1   0  12 4963.68 603.631   1
  -1   0  12 4508.38 547.485   1
   1   0 -12 5055.86 497.206   1
   1   0 -12 4999.99 550.279   1
  -1   0  11 2888.27 458.379   1
  -1   0  11 3075.42 528.770   1
  -1   0  11 3304.47 493.575   1
   1   0 -11 3092.18 437.430   1
   1   0 -11 2430.72 422.905   1
  -1   0  10  33073. 1623.46   1
  -1   0  10  33156. 2444.69   1
   1   0 -10  31871. 1548.60   1
   1   0 -10  33631. 2460.61   1
  -1   0   9 199553. 8583.79   1
  -1   0   9 195195.  13399.   1
   1   0  -9 198659. 8527.92   1
   1   0  -9 219637.  15067.   1
  -1   0   8  64106. 2902.23   1
  -1   0   8  55419. 3924.58   1
   1   0  -8  66480. 3008.38   1
   1   0  -8  62821. 4438.54   1
  -1   0   7 126536. 5502.79   1
  -1   0   7  98575. 6829.60   1
   1   0  -7 123966. 5377.09   1
   1   0  -7 124776. 8628.48   1
  -1   0   6 437709.  18550.   1
  -1   0   6 331564.  22620.   1
   1   0  -6 414525.  17559.   1
   1   0  -6 411731.  28073.   1
  -1   0   5  589.38 293.575   1
  -1   0   5  415.08 252.486   1
   1   0  -5  430.73 247.625   1
   1   0  -5  673.46 291.620   1
  -1   0   4 464804.  19668.   1
  -1   0   4 476536.  32430.   1
   1   0  -4 444134.  18774.   1
   1   0  -4 520111.  35391.   1
  -1   0   3  64553. 2835.19   1
  -1   0   3  74693. 5150.83   1
   1   0  -3  63492. 2777.93   1
   1   0  -3  86061. 5938.54   1
  -1   0   2  43073. 1897.48   1
  -1   0   2  52933. 3648.04   1
   1   0  -2  45223. 1972.90   1
   1   0  -2  62514. 4310.05   1
  -1   0   1  11260. 534.078   1
  -1   0   1  11866. 852.513   1
  -1   0   1  12587. 898.044   1
   1   0  -1  12684. 588.826   1
   1   0  -1  14966. 1060.89   1
   1   0  -1  15380. 1087.71   1
  -1   0  -2  530.17 147.681   1
  -1   0  -2  599.16 170.419   1
  -1   0  -2  773.46 202.151   1
   1   0   2 1020.67 165.670   1
   1   0   2  815.08 188.827   1
   1   0   2  540.50 193.799   1
  -1   0  -4 239469.  10173.   1
  -1   0  -4 261927.  17860.   1
   1   0   4 258715.  10997.   1
   1   0   4 268854.  18332.   1
   1   0   4 282402.  19260.   1
  -1   0  -5 159888. 6854.74   1
  -1   0  -5 162179.  11123.   1
   1   0   5 170251. 7290.50   1
   1   0   5 182458.  12517.   1
   1   0   5 180307.  12341.   1
  -1   0  -6 350558.  14869.   1
  -1   0  -6 325698.  22235.   1
   1   0   6 349720.  14860.   1
   1   0   6 300838.  20533.   1
   1   0   6 362569.  24743.   1
  -1   0  -7  39721. 1841.06   1
  -1   0  -7  33631. 2431.56   1
   1   0   7  40559. 1896.65   1
   1   0   7  32877. 2378.49   1
   1   0   7  39274. 2829.61   1
  -1   0  -8  51927. 2381.84   1
  -1   0  -8  47123. 3360.33   1
   1   0   8  53352. 2426.81   1
   1   0   8  49888. 3555.86   1
   1   0   8  42793. 3058.66   1
  -1   0  -9 2843.57 383.798   1
  -1   0  -9 2102.51 455.307   1
   1   0   9 3089.38 433.519   1
   1   0   9 2652.51 495.810   1
   1   0   9 2531.00 435.195   1
  -1   0 -10 160028. 6891.05   1
  -1   0 -10 167849.  11539.   1
   1   0  10 155754. 6743.01   1
   1   0  10 157346.  10821.   1
   1   0  10 177234.  12187.   1
  -1   0 -11  47737. 2207.82   1
  -1   0 -11  48128. 3441.34   1
   1   0  11  45279. 2125.42   1
   1   0  11  47039. 3360.33   1
   1   0  11  47598. 3399.44   1
  -1   0 -12  44776. 2097.20   1
  -1   0 -12  46788. 3343.57   1
   1   0  12  45279. 2132.12   1
   1   0  12  47877. 3413.40   1
   1   0  12  45978. 3276.53   1
  -1   0 -13 201871. 8659.21   1
  -1   0 -13 207151.  14193.   1
   1   0  13 199246. 8555.86   1
   1   0  13 203072.  13916.   1
   1   0  13 221089.  15137.   1
  -1   0 -14 8695.52 677.932   1
  -1   0 -14 9259.77 832.681   1
   1   0  14 8270.94 706.982   1
   1   0  14 6924.57 701.396   1
   1   0  14 9480.44 866.759   1
  -1   0 -15  42486. 2006.42   1
  -1   0 -15  47570. 3371.50   1
   1   0  15  44832. 2150.84   1
   1   0  15  43520. 3122.90   1
   1   0  15  44357. 3170.39   1
  -1   0 -16  13478. 910.334   1
  -1   0 -16  18986. 1463.13   1
   1   0  16  15249. 1054.75   1
   1   0  16  16955. 1315.36   1
   1   0  16  14606. 1181.00   1
  -1  -1  16  26293. 1436.03   1
  -1  -1  16  29777. 2191.34   1
  -1  -1  16  26290. 1949.44   1
   1   1 -16  27274. 1374.30   1
   1   1 -16  25807. 1901.95   1
  -1  -1  15  286.03 526.256   1
  -1  -1  15  807.54 484.916   1
  -1  -1  15  766.48 401.117   1
   1   1 -15  677.65 510.614   1
   1   1 -15 1368.15 398.882   1
  -1  -1  14  17835. 1035.47   1
  -1  -1  14  23452. 1763.96   1
  -1  -1  14  20047. 1532.12   1
   1   1 -14  19799. 1085.47   1
   1   1 -14  20145. 1540.78   1
  -1  -1  13 6016.75 616.480   1
  -1  -1  13 7650.83 776.815   1
  -1  -1  13 6796.08 703.072   1
   1   1 -13 6466.47 582.681   1
   1   1 -13 7435.75 714.245   1
  -1  -1  12  49888. 2323.18   1
  -1  -1  12  49637. 3527.93   1
  -1  -1  12  50922. 3620.11   1
   1   1 -12  52263. 2393.85   1
   1   1 -12  52318. 3698.32   1
  -1  -1  11 1339.66 428.491   1
  -1  -1  11 2038.55 395.251   1
   1   1 -11 1284.36 362.011   1
   1   1 -11 1979.33 400.000   1
  -1  -1  10 398603.  16944.   1
  -1  -1  10 375977.  25628.   1
   1   1 -10 388268.  16469.   1
   1   1 -10 448044.  30559.   1
  -1  -1   9 197011. 8458.09   1
  -1  -1   9 189357.  12980.   1
   1   1  -9 206061. 8821.22   1
   1   1  -9 214804.  14743.   1
  -1  -1   8 107402. 4709.49   1
  -1  -1   8  91816. 6371.50   1
   1   1  -8 113380. 4938.54   1
   1   1  -8 103883. 7220.66   1
  -1  -1   7 406703.  17268.   1
  -1  -1   7 336592.  22958.   1
   1   1  -7 419832.  17799.   1
   1   1  -7 429050.  29274.   1
  -1  -1   6 9508.37 611.731   1
  -1  -1   6 9184.35 808.658   1
   1   1  -6  10760. 659.497   1
   1   1  -6  11237. 951.954   1
  -1  -1   5  28520. 1369.55   1
  -1  -1   5  31564. 2269.55   1
   1   1  -5  29693. 1399.72   1
   1   1  -5  41871. 2983.24   1
  -1  -1   4  23860. 1156.70   1
  -1  -1   4  25665. 1864.80   1
   1   1  -4  25391. 1230.72   1
   1   1  -4  28268. 2050.56   1
  -1  -1   3  66313. 2905.02   1
  -1  -1   3  74609. 5148.04   1
   1   1  -3  67989. 2972.06   1
   1   1  -3  75028. 5189.94   1
  -1  -1   2 142514. 6078.21   1
  -1  -1   2 127821. 8734.63   1
   1   1  -2 136089. 5807.26   1
   1   1  -2 142262. 9715.07   1
   1   1  -2 132123. 9025.13   1
  -1  -1   1  85586. 3659.21   1
  -1  -1   1  82849. 5667.59   1
  -1  -1   1  83492. 5712.28   1
   1   1  -1  84916. 3628.49   1
   1   1  -1  72681. 4977.65   1
   1   1  -1  78966. 5405.02   1
  -1  -1  -1  67570. 2888.27   1
  -1  -1  -1  66061. 4527.93   1
  -1  -1  -1  66425. 4550.27   1
   1   1   1  68240. 2916.20   1
   1   1   1  63687. 2724.86   1
   1   1   1  68408. 4687.15   1
   1   1   1  67179. 4600.55   1
  -1  -1  -3 257765.  10916.   1
  -1  -1  -3 259860.  17701.   1
  -1  -1  -3 287430.  19578.   1
   1   1   3 241145.  10226.   1
   1   1   3 278352.  18952.   1
   1   1   3 288826.  19676.   1
  -1  -1  -4  12472. 661.173   1
  -1  -1  -4  12159. 936.312   1
  -1  -1  -4  13327. 1022.35   1
   1   1   4  12830. 697.765   1
   1   1   4  14601. 1115.92   1
   1   1   4  13966. 1068.99   1
  -1  -1  -5 166452. 7131.28   1
  -1  -1  -5 156620.  10729.   1
  -1  -1  -5 164162.  11243.   1
   1   1   5 157514. 6759.77   1
   1   1   5 188575.  12916.   1
   1   1   5 162011.  11095.   1
  -1  -1  -6  42067. 1918.43   1
  -1  -1  -6  40950. 2921.78   1
   1   1   6  42961. 1981.56   1
   1   1   6  43687. 3103.35   1
   1   1   6  46369. 3298.88   1
  -1  -1  -7 117346. 5094.97   1
  -1  -1  -7 111816. 7723.46   1
   1   1   7 126480. 5511.17   1
   1   1   7 127486. 8796.08   1
   1   1   7 113436. 7824.01   1
  -1  -1  -8  75447. 3349.16   1
  -1  -1  -8  66425. 4650.83   1
   1   1   8  81927. 3645.25   1
  -1  -1  -9 317597.  13528.   1
  -1  -1  -9 262514.  17955.   1
   1   1   9 330167.  14078.   1
   1   1   9 327933.  22394.   1
   1   1   9 284916.  19483.   1
  -1  -1 -10 221620. 9488.82   1
  -1  -1 -10 215530.  14760.   1
   1   1  10 240447.  10302.   1
   1   1  10 232067.  15885.   1
   1   1  10 223017.  15277.   1
  -1  -1 -11  29106. 1441.90   1
  -1  -1 -11  30447. 2237.43   1
   1   1  11  31313. 1565.08   1
   1   1  11  28324. 2077.93   1
   1   1  11  31536. 2310.61   1
  -1  -1 -12 168380. 7248.60   1
  -1  -1 -12 167039.  11472.   1
   1   1  12 158268. 6860.33   1
   1   1  12 159413.  10955.   1
   1   1  12 171732.  11788.   1
  -1  -1 -13  34721. 1686.03   1
  -1  -1 -13  33939. 2462.29   1
   1   1  13  33827. 1657.82   1
   1   1  13  32765. 2361.73   1
   1   1  13  35084. 2537.71   1
  -1  -1 -14 5944.13 567.597   1
  -1  -1 -14 5829.60 617.039   1
   1   1  14 4438.54 578.491   1
   1   1  14 5759.77 618.994   1
   1   1  14 4614.52 559.217   1
  -1  -1 -15 3949.72 539.944   1
  -1  -1 -15 3790.50 527.932   1
   1   1  15 2930.16 543.854   1
   1   1  15 3946.92 551.396   1
   1   1  15 4399.44 540.223   1
  -1  -1 -16  22796. 1260.05   1
  -1  -1 -16  25223. 1868.15   1
   1   1  16  22056. 1232.68   1
   1   1  16  23430. 1759.77   1
   1   1  16  23223. 1731.28   1
  -1  -2  15  715.64 546.647   1
  -1  -2  15  628.49 464.804   1
  -1  -2  15  918.43 468.435   1
   1   2 -15  247.49 448.882   1
   1   2 -15  998.88 416.759   1
  -1  -2  14 7343.57 680.167   1
  -1  -2  14  11137. 1007.54   1
  -1  -2  14  10218. 930.167   1
   1   2 -14 9421.78 686.033   1
   1   2 -14 9432.95 860.334   1
  -1  -2  13  93883. 4162.01   1
  -1  -2  13  98575. 6840.77   1
  -1  -2  13  94693. 6572.62   1
   1   2 -13  90028. 3946.92   1
   1   2 -13  91061. 6312.84   1
  -1  -2  12  33324. 1644.13   1
  -1  -2  12  31955. 2339.66   1
   1   2 -12  28994. 1446.37   1
   1   2 -12  28966. 2132.12   1
  -1  -2  11 225251. 9667.59   1
  -1  -2  11 239692.  16402.   1
   1   2 -11 226229. 9695.52   1
   1   2 -11 224832.  15411.   1
  -1  -2  10 244441.  10466.   1
  -1  -2  10 244609.  16729.   1
   1   2 -10 264832.  11318.   1
   1   2 -10 261508.  17897.   1
  -1  -2   9  15760. 905.586   1
  -1  -2   9  15508. 1222.62   1
   1   2  -9  16846. 932.960   1
   1   2  -9  15994. 1290.78   1
  -1  -2   8 168128. 7248.60   1
  -1  -2   8 159413.  10944.   1
   1   2  -8 186173. 7988.82   1
   1   2  -8 169525.  11670.   1
  -1  -2   7  27874. 1361.45   1
  -1  -2   7  25061. 1846.65   1
   1   2  -7  30587. 1480.45   1
   1   2  -7  28994. 2157.26   1
  -1  -2   6  15508. 846.089   1
  -1  -2   6  14888. 1166.48   1
   1   2  -6  16025. 865.362   1
   1   2  -6  15885. 1244.69   1
  -1  -2   5 6578.21 473.743   1
  -1  -2   5 6268.15 587.709   1
   1   2  -5 6837.98 483.240   1
   1   2  -5 6991.61 653.910   1
  -1  -2   4 127290. 5480.44   1
  -1  -2   4 118017. 8111.72   1
   1   2  -4 121564. 5240.22   1
   1   2  -4 148408.  10184.   1
  -1  -2   3 189720. 8092.17   1
  -1  -2   3 190028.  12978.   1
   1   2  -3 200056. 8527.92   1
   1   2  -3 166564.  11374.   1
   1   2  -3 221145.  15098.   1
  -1  -2   2 1024.86 207.318   1
  -1  -2   2  475.98 200.279   1
   1   2  -2 1308.10 216.229   1
   1   2  -2 1257.54 228.212   1
   1   2  -2 1606.98 246.760   1
   1   2  -2 1361.17 225.530   1
  -1  -2   0 297206.  12573.   1
  -1  -2   0 297486.  12575.   1
  -1  -2   0 293854.  19986.   1
  -1  -2   0 292178.  19874.   1
   1   2   0 299441.  12659.   1
   1   2   0 304748.  12891.   1
   1   2   0 303631.  20651.   1
   1   2   0 275363.  18726.   1
  -1  -2  -1 144274. 6148.04   1
  -1  -2  -1 142961. 6092.17   1
  -1  -2  -1 138100. 9421.78   1
  -1  -2  -1 141564. 9656.41   1
   1   2   1 135112. 5762.56   1
   1   2   1 136704. 5832.40   1
   1   2   1 140307. 9569.82   1
   1   2   1 142374. 9715.07   1
  -1  -2  -2 8441.33 473.463   1
  -1  -2  -2 8284.91 647.206   1
  -1  -2  -2 7550.27 603.910   1
   1   2   2 8684.35 501.396   1
   1   2   2 8399.43 659.217   1
   1   2   2 8025.13 628.491   1
  -1  -2  -3 117598. 5044.69   1
  -1  -2  -3 108603. 7441.33   1
  -1  -2  -3 122514. 8396.64   1
   1   2   3 107095. 4606.14   1
   1   2   3 114385. 7835.19   1
   1   2   3 113492. 7773.73   1
  -1  -2  -4  50782. 2264.80   1
  -1  -2  -4  52290. 3634.07   1
  -1  -2  -4  57151. 3980.44   1
   1   2   4  54749. 2424.86   1
   1   2   4  57514. 4002.79   1
   1   2   4  57709. 4005.58   1
  -1  -2  -5 3555.86 335.754   1
  -1  -2  -5 2983.24 364.245   1
  -1  -2  -5 3807.26 423.184   1
   1   2   5 3167.59 350.279   1
   1   2   5 4134.07 444.692   1
   1   2   5 3226.25 411.452   1
  -1  -2  -6 380447.  16140.   1
  -1  -2  -6 339944.  23176.   1
  -1  -2  -6 368156.  25073.   1
   1   2   6 423463.  17950.   1
   1   2   6 431005.  29358.   1
   1   2   6 420111.  28603.   1
  -1  -2  -7 289944.  12332.   1
  -1  -2  -7 313128.  21369.   1
   1   2   7 319273.  13598.   1
   1   2   7 338547.  23123.   1
   1   2   7 331843.  22631.   1
  -1  -2  -8 193771. 8304.46   1
  -1  -2  -8 180670.  12388.   1
   1   2   8 200726. 8636.86   1
   1   2   8 202821.  13908.   1
   1   2   8 186145.  12771.   1
  -1  -2  -9 436033.  18494.   1
  -1  -2  -9 410893.  28017.   1
   1   2   9 460335.  19542.   1
   1   2   9 426815.  29106.   1
   1   2   9 417877.  28492.   1
  -1  -2 -10 4293.29 459.776   1
  -1  -2 -10 2687.99 420.949   1
   1   2  10 3709.49 475.139   1
   1   2  10 4251.39 520.949   1
   1   2  10 2905.02 485.474   1
  -1  -2 -11  57207. 2621.78   1
  -1  -2 -11  54804. 3877.09   1
   1   2  11  61229. 2796.09   1
   1   2  11  52095. 3689.94   1
   1   2  11  55391. 3905.02   1
  -1  -2 -12  23475. 1220.95   1
  -1  -2 -12  22209. 1674.86   1
   1   2  12  23623. 1265.08   1
   1   2  12  21480. 1626.26   1
   1   2  12  23447. 1766.48   1
  -1  -2 -13  10436. 691.619   1
  -1  -2 -13 9941.33 884.915   1
   1   2  13 7941.33 666.759   1
   1   2  13 9030.72 806.982   1
   1   2  13 9469.26 851.675   1
  -1  -2 -14  362.01 438.268   1
  -1  -2 -14  618.44 383.798   1
   1   2  14  611.45 451.676   1
   1   2  14  708.94 344.692   1
   1   2  14  251.23 355.028   1
  -1  -2 -15  30056. 1536.87   1
  -1  -2 -15  32682. 2372.62   1
   1   2  15  28827. 1490.78   1
   1   2  15  29078. 2132.68   1
   1   2  15  32123. 2350.56   1
  -1  -2 -16  57542. 2646.37   1
  -1  -2 -16  60810. 4265.36   1
   1   2  16  53743. 2494.69   1
   1   2  16  55782. 3918.99   1
   1   2  16  57039. 3997.20   1
  -1  -3  15  959.78 595.530   1
  -1  -3  15 1025.70 518.435   1
  -1  -3  15 1065.92 500.279   1
   1   3 -15 1141.06 435.754   1
   1   3 -15  801.95 415.083   1
  -1  -3  14  68883. 3134.07   1
  -1  -3  14  73603. 5145.25   1
  -1  -3  14  66816. 4675.97   1
   1   3 -14  67207. 3039.10   1
   1   3 -14  67039. 4692.73   1
  -1  -3  13  55754. 2584.63   1
  -1  -3  13  59888. 4226.25   1
  -1  -3  13  60279. 4231.84   1
   1   3 -13  52346. 2426.81   1
   1   3 -13  58128. 4078.21   1
  -1  -3  12  26835. 1373.18   1
  -1  -3  12  27905. 2081.84   1
   1   3 -12  25869. 1300.28   1
   1   3 -12  29581. 2166.48   1
  -1  -3  11 169190. 7298.88   1
  -1  -3  11 171424.  11774.   1
   1   3 -11 172458. 7432.95   1
   1   3 -11 177653.  12207.   1
  -1  -3  10  10486. 724.580   1
  -1  -3  10 9675.97 845.809   1
   1   3 -10  11307. 747.485   1
   1   3 -10 9402.22 863.407   1
  -1  -3   9  38631. 1843.01   1
  -1  -3   9  34916. 2522.06   1
   1   3  -9  37905. 1810.89   1
   1   3  -9  32179. 2380.17   1
  -1  -3   8  33073. 1594.13   1
  -1  -3   8  28128. 2062.29   1
   1   3  -8  37095. 1781.00   1
   1   3  -8  30447. 2259.77   1
  -1  -3   7 137179. 5932.95   1
  -1  -3   7 129078. 8879.88   1
   1   3  -7 147151. 6363.12   1
   1   3  -7 148519.  10240.   1
  -1  -3   6 121536. 5268.15   1
  -1  -3   6 125223. 8620.10   1
   1   3  -6 126424. 5477.65   1
   1   3  -6 139413. 9606.13   1
  -1  -3   5 118687. 5131.28   1
  -1  -3   5 119218. 8198.32   1
   1   3  -5 124972. 5399.44   1
   1   3  -5 143072. 9829.60   1
  -1  -3   4 601117.  25385.   1
  -1  -3   4 615642.  41844.   1
   1   3  -4 592178.  25008.   1
   1   3  -4 635474.  26835.   1
   1   3  -4 689105.  46844.   1
   1   3  -4 603351.  41006.   1
  -1  -3   3  35000. 1607.26   1
  -1  -3   3  36927. 2598.88   1
   1   3  -3  35447. 1622.34   1
   1   3  -3  37458. 1709.22   1
   1   3  -3  39525. 2777.65   1
   1   3  -3  30978. 2186.03   1
  -1  -3   2 646368.  27274.   1
  -1  -3   2 645809.  43883.   1
   1   3  -2 670390.  28268.   1
   1   3  -2 641340.  27070.   1
  -1  -3   1 503351.  21263.   1
  -1  -3   1 489664.  20693.   1
  -1  -3   1 481564.  32737.   1
  -1  -3   1 498324.  33855.   1
   1   3  -1 486592.  20564.   1
   1   3  -1 486592.  20561.   1
   1   3  -1 373463.  25399.   1
  -1  -3   0  14190. 722.904   1
  -1  -3   0  12858. 667.038   1
  -1  -3   0  12679. 940.222   1
  -1  -3   0  11522. 862.010   1
   1   3   0  13006. 684.357   1
   1   3   0  12444. 653.910   1
   1   3   0  13567. 996.647   1
   1   3   0  13299. 980.725   1
  -1  -3  -1 9963.68 556.424   1
  -1  -3  -1 9502.78 531.005   1
  -1  -3  -1 8673.17 673.742   1
  -1  -3  -1 9332.39 718.714   1
   1   3   1 9226.25 533.519   1
   1   3   1 8301.67 481.843   1
   1   3   1 9391.05 716.480   1
   1   3   1  10508. 789.385   1
  -1  -3  -2 108045. 4653.63   1
  -1  -3  -2 109469. 7491.61   1
  -1  -3  -2 105866. 7251.39   1
   1   3   2 110810. 7578.20   1
   1   3   2 102179. 6991.61   1
  -1  -3  -3 132877. 5701.11   1
  -1  -3  -3 143855. 9837.98   1
  -1  -3  -3 137067. 9371.50   1
   1   3   3 136061. 5849.16   1
   1   3   3 140363. 9586.58   1
   1   3   3 139329. 9522.34   1
  -1  -3  -4  521.51 207.486   1
  -1  -3  -4  821.51 249.301   1
  -1  -3  -4  482.96 217.262   1
   1   3   4 1058.10 252.206   1
   1   3   4  691.62 218.687   1
   1   3   4  932.96 230.363   1
  -1  -3  -5 258072.  10975.   1
  -1  -3  -5 269832.  18408.   1
  -1  -3  -5 248659.  16961.   1
   1   3   5 275977.  11740.   1
   1   3   5 260614.  17774.   1
   1   3   5 276368.  18855.   1
  -1  -3  -6 472625.  19992.   1
  -1  -3  -6 456424.  31089.   1
  -1  -3  -6 446648.  30391.   1
   1   3   6 502234.  21257.   1
   1   3   6 479050.  32598.   1
   1   3   6 513687.  34972.   1
  -1  -3  -7  28743. 1365.92   1
  -1  -3  -7  26349. 1919.27   1
   1   3   7  32011. 1559.50   1
   1   3   7  31536. 2294.97   1
   1   3   7  27293. 1985.75   1
  -1  -3  -8 444692.  18818.   1
  -1  -3  -8 415642.  28324.   1
   1   3   8 447486.  18983.   1
   1   3   8 460335.  31369.   1
   1   3   8 460335.  31369.   1
  -1  -3  -9 108184. 4698.32   1
  -1  -3  -9 100363. 6935.75   1
   1   3   9 108045. 4740.22   1
   1   3   9 106117. 7368.71   1
   1   3   9 111704. 7703.90   1
  -1  -3 -10 5790.50 494.972   1
  -1  -3 -10 4444.13 500.279   1
   1   3  10 5751.39 539.106   1
   1   3  10 5407.82 620.111   1
   1   3  10 5195.53 538.268   1
  -1  -3 -11 5589.38 539.944   1
  -1  -3 -11 5304.46 568.714   1
   1   3  11 6086.59 592.178   1
   1   3  11 5812.84 654.748   1
   1   3  11 5270.94 551.117   1
  -1  -3 -12  26961. 1362.85   1
  -1  -3 -12  26911. 1982.68   1
   1   3  12  26793. 1382.96   1
   1   3  12  25461. 1875.42   1
   1   3  12  27732. 2062.85   1
  -1  -3 -13  51816. 2360.33   1
  -1  -3 -13  52207. 3689.94   1
   1   3  13  56313. 2603.63   1
   1   3  13  50838. 3586.59   1
   1   3  13  49330. 3508.38   1
  -1  -3 -14 6145.25 644.971   1
  -1  -3 -14 6874.29 679.329   1
   1   3  14 6952.51 628.770   1
   1   3  14 6363.12 630.446   1
   1   3  14 6240.22 633.240   1
  -1  -3 -15 103492. 4555.86   1
  -1  -3 -15 105698. 7315.63   1
   1   3  15  98324. 4360.33   1
   1   3  15 100307. 6924.57   1
   1   3  15  95922. 6639.66   1
  -1  -3 -16  25053. 1315.64   1
  -1  -3 -16  26196. 1962.01   1
   1   3  16  23290. 1277.37   1
   1   3  16  26478. 1954.19   1
   1   3  16  24318. 1807.54   1
  -1  -4  14  57737. 2643.29   1
  -1  -4  14  61871. 4351.95   1
  -1  -4  14  60475. 4248.60   1
   1   4 -14  54385. 2482.96   1
   1   4 -14  58603. 4111.73   1
  -1  -4  13  701.40 446.089   1
  -1  -4  13  937.71 374.022   1
  -1  -4  13  687.99 428.491   1
   1   4 -13  413.13 479.329   1
   1   4 -13  992.74 420.670   1
  -1  -4  12  28631. 1427.37   1
  -1  -4  12  26715. 1989.94   1
   1   4 -12  28380. 1430.17   1
   1   4 -12  29497. 2172.62   1
  -1  -4  11  22531. 1169.83   1
  -1  -4  11  19958. 1548.04   1
   1   4 -11  22047. 1151.40   1
   1   4 -11  21620. 1660.33   1
  -1  -4  10 1029.89 380.447   1
  -1  -4  10  719.55 389.385   1
   1   4 -10 1191.06 371.229   1
   1   4 -10 1082.40 376.536   1
  -1  -4   9 5550.27 503.072   1
  -1  -4   9 6100.55 633.798   1
   1   4  -9 6097.76 520.670   1
   1   4  -9 5086.59 616.759   1
  -1  -4   8  93659. 4106.14   1
  -1  -4   8  98352. 6810.05   1
   1   4  -8 105000. 4608.93   1
   1   4  -8  92207. 6421.78   1
  -1  -4   7 196201. 8410.61   1
  -1  -4   7 181396.  12436.   1
   1   4  -7 208156.  14285.   1
   1   4  -7 184916.  12637.   1
  -1  -4   6  10992. 655.865   1
  -1  -4   6 9712.28 824.580   1
   1   4  -6 9846.36 796.927   1
   1   4  -6  11779. 968.435   1
  -1  -4   5 434078.  18380.   1
  -1  -4   5 462569.  31480.   1
   1   4  -5 444972.  18852.   1
   1   4  -5 437988.  18553.   1
   1   4  -5 416759.  28352.   1
   1   4  -5 509776.  34721.   1
  -1  -4   4 151369. 6505.58   1
  -1  -4   4 161285.  11042.   1
   1   4  -4 156341. 6709.49   1
   1   4  -4 151955. 6533.51   1
   1   4  -4 155754.  10659.   1
   1   4  -4 159022.  10869.   1
  -1  -4   3 122067. 5262.56   1
  -1  -4   3 121173. 8307.25   1
   1   4  -3 115726. 5013.96   1
   1   4  -3 115559. 4991.62   1
   1   4  -3 112626. 7717.87   1
   1   4  -3 121341. 8321.22   1
  -1  -4   2 351676.  14905.   1
  -1  -4   2 356424.  24251.   1
   1   4  -2 342178.  14522.   1
   1   4  -2 346089.  14676.   1
   1   4  -2 344692.  23461.   1
   1   4  -2 346089.  23550.   1
  -1  -4   1  22084. 1069.55   1
  -1  -4   1  22888. 1096.37   1
  -1  -4   1  22352. 1599.16   1
  -1  -4   1  21726. 1555.03   1
   1   4  -1  22785. 1105.03   1
   1   4  -1  22064. 1070.67   1
   1   4  -1  21159. 1515.92   1
   1   4  -1  26413. 1873.46   1
  -1  -4   0  11422. 628.491   1
  -1  -4   0  10534. 584.636   1
  -1  -4   0 9851.95 757.541   1
  -1  -4   0  10212. 780.167   1
   1   4   0 9762.56 555.307   1
   1   4   0  10263. 593.575   1
   1   4   0  10335. 783.519   1
   1   4   0 9888.26 754.748   1
  -1  -4  -1  13564. 703.910   1
  -1  -4  -1  15056. 782.122   1
  -1  -4  -1  13578. 1001.95   1
  -1  -4  -1  13464. 998.044   1
   1   4   1  12927. 694.133   1
   1   4   1  12640. 670.949   1
   1   4   1  13184. 973.463   1
   1   4   1  14587. 1065.36   1
  -1  -4  -2 377095.  15964.   1
  -1  -4  -2 365642.  24877.   1
  -1  -4  -2 378771.  25765.   1
   1   4   2 372625.  15774.   1
   1   4   2 368156.  15603.   1
   1   4   2 380167.  25852.   1
   1   4   2 371229.  25240.   1
  -1  -4  -3 110894. 4796.08   1
  -1  -4  -3 116732. 7997.20   1
  -1  -4  -3 113324. 7756.98   1
   1   4   3 101397. 4391.06   1
   1   4   3 108855. 4712.29   1
   1   4   3 108743. 7455.30   1
   1   4   3 114581. 7849.15   1
  -1  -4  -4 146788. 6307.26   1
  -1  -4  -4 149106.  10193.   1
  -1  -4  -4 161313.  11034.   1
   1   4   4 141257. 6067.03   1
   1   4   4 135056. 5810.05   1
   1   4   4 148352.  10140.   1
   1   4   4 155503.  10626.   1
  -1  -4  -5 324860.  13779.   1
  -1  -4  -5 316480.  21561.   1
  -1  -4  -5 317877.  21659.   1
   1   4   5 331564.  14095.   1
   1   4   5 335195.  22818.   1
   1   4   5 312011.  21240.   1
  -1  -4  -6 3243.01 363.966   1
  -1  -4  -6 3455.30 415.083   1
  -1  -4  -6 3002.79 381.005   1
   1   4   6 3530.72 412.849   1
   1   4   6 3092.18 352.234   1
   1   4   6 3659.21 412.011   1
  -1  -4  -7 146592. 6312.84   1
  -1  -4  -7 130195. 8944.12   1
  -1  -4  -7 146536.  10050.   1
   1   4   7 159357. 6879.88   1
   1   4   7 145279. 9966.47   1
   1   4   7 152318.  10436.   1
  -1  -4  -8  66229. 2952.51   1
  -1  -4  -8  63268. 4413.40   1
   1   4   8  68631. 3094.97   1
   1   4   8  65531. 4555.86   1
   1   4   8  64218. 4480.44   1
  -1  -4  -9  20193. 1051.67   1
  -1  -4  -9  21656. 1613.41   1
   1   4   9  22779. 1187.43   1
   1   4   9  22866. 1683.24   1
   1   4   9  21732. 1639.66   1
  -1  -4 -10  253.38 331.564   1
  -1  -4 -10  327.37 312.290   1
   1   4  10   17.74 365.363   1
   1   4  10  262.26 271.424   1
   1   4  10  301.12 318.994   1
  -1  -4 -11  33575. 1608.38   1
  -1  -4 -11  29777. 2175.42   1
   1   4  11  31285. 1562.85   1
   1   4  11  27961. 2043.29   1
   1   4  11  31676. 2319.55   1
  -1  -4 -12 108017. 4731.84   1
  -1  -4 -12  99916. 6916.19   1
   1   4  12 101760. 4477.65   1
   1   4  12  91424. 6324.02   1
   1   4  12 102681. 7100.55   1
  -1  -4 -13 8642.45 652.513   1
  -1  -4 -13 7458.09 707.820   1
   1   4  13 7650.83 681.843   1
   1   4  13 8776.53 801.396   1
   1   4  13 7069.82 684.077   1
  -1  -4 -14 106145. 4675.97   1
  -1  -4 -14  99050. 6851.95   1
   1   4  14 101536. 4477.65   1
   1   4  14 101424. 6999.99   1
   1   4  14 107598. 7430.16   1
  -1  -4 -15  84078. 3737.43   1
  -1  -4 -15  78855. 5486.03   1
   1   4  15  78547. 3527.93   1
   1   4  15  77709. 5396.64   1
   1   4  15  81341. 5645.25   1
  -1  -5  14 1050.56 615.642   1
  -1  -5  14  729.05 614.245   1
   1   5 -14  713.41 528.212   1
  -1  -5  13  11804. 814.245   1
  -1  -5  13  10793. 956.424   1
  -1  -5  13  12425. 1090.78   1
   1   5 -13  10260. 753.630   1
   1   5 -13  10316. 759.496   1
   1   5 -13  10184. 922.066   1
   1   5 -13  11980. 1016.76   1
  -1  -5  12 7768.15 648.323   1
  -1  -5  12 8391.05 837.429   1
   1   5 -12 8321.22 691.061   1
   1   5 -12 9159.21 681.005   1
   1   5 -12 8516.75 782.401   1
   1   5 -12 8530.72 793.854   1
  -1  -5  11  18371.  999.16   1
  -1  -5  11  18193. 1421.23   1
   1   5 -11  19950. 1060.33   1
   1   5 -11  19307. 1042.46   1
   1   5 -11  18777. 1472.34   1
   1   5 -11  16662. 1283.24   1
  -1  -5  10  14866. 854.189   1
  -1  -5  10  13036. 1086.03   1
   1   5 -10  14349. 849.440   1
   1   5 -10  14846. 878.770   1
   1   5 -10  12115. 1056.98   1
   1   5 -10  11698. 946.088   1
  -1  -5   9  20279. 1069.83   1
  -1  -5   9  22936. 1730.17   1
   1   5  -9  20670. 1083.80   1
   1   5  -9  23433. 1198.04   1
   1   5  -9  20575. 1614.24   1
   1   5  -9  20637. 1543.02   1
  -1  -5   8 312849.  13304.   1
  -1  -5   8 347765.  23721.   1
   1   5  -8 321229.  13659.   1
   1   5  -8 312570.  13285.   1
   1   5  -8 283519.  19366.   1
   1   5  -8 308938.  21117.   1
  -1  -5   7  21246. 1089.10   1
  -1  -5   7  22483. 1684.36   1
   1   5  -7  21436. 1093.85   1
   1   5  -7  22095. 1134.92   1
   1   5  -7  21835. 1629.61   1
   1   5  -7  25444. 1942.18   1
  -1  -5   6 241005.  10282.   1
  -1  -5   6 250251.  17092.   1
   1   5  -6 237793.  10142.   1
   1   5  -6 242877.  10369.   1
   1   5  -6 241815.  16517.   1
   1   5  -6 234357.  16036.   1
  -1  -5   5 106620. 4645.25   1
  -1  -5   5 117933. 8108.93   1
   1   5  -5 105922. 4617.31   1
   1   5  -5 106508. 4634.07   1
   1   5  -5 112793. 7768.15   1
   1   5  -5 108128. 7463.68   1
  -1  -5   4  390.78 279.190   1
  -1  -5   4  488.83 247.933   1
   1   5  -4  680.17 305.307   1
   1   5  -4  531.01 270.447   1
   1   5  -4  579.61 277.374   1
   1   5  -4  423.18 282.681   1
  -1  -5   3  15483. 822.066   1
  -1  -5   3  15263. 1151.40   1
   1   5  -3  13721. 759.776   1
   1   5  -3  13385. 749.999   1
   1   5  -3  16919. 1279.05   1
   1   5  -3  15045. 1137.15   1
  -1  -5   2  17891. 901.675   1
  -1  -5   2  19028. 967.597   1
  -1  -5   2  17461. 1289.10   1
   1   5  -2  17391. 904.189   1
   1   5  -2  17494. 902.513   1
   1   5  -2  18115. 1313.69   1
   1   5  -2  17360. 1272.62   1
  -1  -5   1 125586. 5393.85   1
  -1  -5   1 128380. 5536.31   1
  -1  -5   1 141816. 9703.90   1
  -1  -5   1 124441. 8519.54   1
   1   5  -1 124190. 5365.92   1
   1   5  -1 118855. 5131.28   1
   1   5  -1 123966. 8480.44   1
   1   5  -1 120475. 8245.80   1
  -1  -5   0  31676. 1455.59   1
  -1  -5   0  32654. 1520.39   1
  -1  -5   0  29609. 2094.69   1
  -1  -5   0  30056. 2120.67   1
   1   5   0  28855. 1361.17   1
   1   5   0  31452. 1486.03   1
   1   5   0  29330. 2069.55   1
   1   5   0  30559. 2152.51   1
  -1  -5  -1 418715.  17707.   1
  -1  -5  -1 426536.  18064.   1
  -1  -5  -1 416480.  28324.   1
  -1  -5  -1 411731.  28017.   1
   1   5   1 411452.  17430.   1
   1   5   1 412290.  17452.   1
   1   5   1 421787.  28687.   1
   1   5   1 411452.  27989.   1
  -1  -5  -2 573463.  24215.   1
   1   5   2 524860.  22182.   1
   1   5   2 560055.  23682.   1
   1   5   2 546648.  37151.   1
   1   5   2 560614.  38101.   1
  -1  -5  -3  26413. 1257.54   1
  -1  -5  -3  23073. 1655.03   1
  -1  -5  -3  23771. 1706.98   1
   1   5   3  24628. 1214.80   1
   1   5   3  25628. 1239.94   1
   1   5   3  24500. 1754.19   1
   1   5   3  24779. 1763.13   1
  -1  -5  -4 421508.  17846.   1
  -1  -5  -4 412011.  28045.   1
  -1  -5  -4 417597.  28408.   1
   1   5   4 371229.  15749.   1
   1   5   4 405866.  17193.   1
   1   5   4 403072.  27402.   1
   1   5   4 416759.  28380.   1
  -1  -5  -5  24193. 1177.93   1
  -1  -5  -5  24933. 1800.28   1
  -1  -5  -5  26888. 1943.85   1
   1   5   5  24008. 1173.18   1
   1   5   5  23506. 1171.23   1
   1   5   5  27961. 2032.96   1
   1   5   5  26740. 1908.66   1
  -1  -5  -6  35307. 1645.81   1
  -1  -5  -6  33994. 2431.84   1
  -1  -5  -6  36899. 2620.95   1
   1   5   6  31816. 1496.09   1
   1   5   6  35419. 1684.64   1
   1   5   6  35950. 2563.96   1
   1   5   6  37654. 2662.57   1
  -1  -5  -7  11003. 687.150   1
  -1  -5  -7  10508. 866.200   1
  -1  -5  -7  11302. 922.345   1
   1   5   7  11411. 719.832   1
   1   5   7  10849. 856.982   1
   1   5   7  10743. 894.971   1
  -1  -5  -8  54693. 2483.80   1
  -1  -5  -8  51564. 3628.49   1
   1   5   8  53045. 2431.56   1
   1   5   8  50363. 3522.34   1
   1   5   8  52290. 3698.32   1
  -1  -5  -9  64413. 2888.27   1
  -1  -5  -9  67961. 4743.01   1
   1   5   9  67430. 3033.52   1
   1   5   9  62654. 4393.85   1
   1   5   9  63715. 4444.13   1
  -1  -5 -10  19888. 1063.97   1
  -1  -5 -10  17944. 1368.15   1
   1   5  10  19128. 1065.64   1
   1   5  10  16665. 1305.59   1
   1   5  10  18698. 1406.42   1
  -1  -5 -11 198659. 8502.78   1
  -1  -5 -11 176648.  12095.   1
   1   5  11 197039. 8458.09   1
   1   5  11 169860.  11640.   1
   1   5  11 176005.  12050.   1
  -1  -5 -12  39078. 1869.55   1
  -1  -5 -12  42598. 3036.31   1
   1   5  12  39413. 1902.51   1
   1   5  12  39330. 2796.09   1
   1   5  12  39637. 2860.33   1
  -1  -5 -13  66676. 2980.44   1
  -1  -5 -13  62709. 4399.44   1
   1   5  13  64693. 2949.72   1
   1   5  13  66620. 4670.39   1
   1   5  13  60559. 4243.01   1
  -1  -5 -14  45950. 2139.10   1
  -1  -5 -14  47961. 3413.40   1
   1   5  14  46871. 2224.02   1
   1   5  14  45056. 3192.73   1
   1   5  14  45531. 3234.63   1
  -1  -5 -15  995.53 553.910   1
  -1  -5 -15 1830.44 527.932   1
   1   5  15 1810.05 642.178   1
   1   5  15  189.97 481.564   1
   1   5  15 1501.67 542.458   1
  -1  -6  13  305.87 560.335   1
  -1  -6  13  229.66 552.513   1
  -1  -6  13  518.99 656.145   1
   1   6 -13  710.89 522.346   1
   1   6 -13  564.25 569.552   1
   1   6 -13  337.43 622.904   1
   1   6 -13  252.49 475.977   1
  -1  -6  12  23804. 1236.31   1
  -1  -6  12  29022. 2150.00   1
   1   6 -12  24385. 1263.69   1
   1   6 -12  25955. 1334.91   1
   1   6 -12  24880. 1866.20   1
   1   6 -12  24047. 1820.67   1
  -1  -6  11  51899. 2399.44   1
  -1  -6  11  51313. 3662.01   1
   1   6 -11  52849. 2413.68   1
   1   6 -11  51536. 2379.05   1
   1   6 -11  50642. 3608.93   1
   1   6 -11  51592. 3648.04   1
  -1  -6  10 2078.49 413.407   1
  -1  -6  10 1717.32 458.379   1
   1   6 -10 2315.92 438.547   1
   1   6 -10 2671.78 452.234   1
   1   6 -10 1934.36 386.871   1
   1   6 -10 2064.80 488.826   1
  -1  -6   9 182877. 7846.36   1
  -1  -6   9 175475.  12022.   1
   1   6  -9 184832. 7930.16   1
   1   6  -9 169357. 7293.29   1
   1   6  -9 183771.  12570.   1
   1   6  -9 165056.  11355.   1
  -1  -6   8  54804. 2475.70   1
  -1  -6   8  54469. 3826.81   1
   1   6  -8  57011. 2589.94   1
   1   6  -8  54721. 2489.10   1
   1   6  -8  54190. 3812.84   1
   1   6  -8  48715. 3474.86   1
  -1  -6   7  97262. 4254.19   1
  -1  -6   7 101760. 7025.13   1
   1   6  -7  92346. 4053.07   1
   1   6  -7  95614. 4195.53   1
   1   6  -7  94860. 6567.03   1
   1   6  -7  94776. 6583.79   1
  -1  -6   6  85866. 3779.33   1
  -1  -6   6  85251. 5896.64   1
   1   6  -6  84581. 3723.46   1
   1   6  -6  86592. 3807.26   1
   1   6  -6  91061. 6324.02   1
   1   6  -6  86033. 5958.09   1
  -1  -6   5  19740. 1006.42   1
  -1  -6   5  20000. 1493.57   1
   1   6  -5  17483. 937.709   1
   1   6  -5  18807. 983.518   1
  -1  -6   4  183.55 251.648   1
  -1  -6   4  -63.24 272.653   1
   1   6  -4  561.73 291.340   1
   1   6  -4  705.31 287.709   1
   1   6  -4  242.96 218.100   1
   1   6  -4  237.12 283.240   1
  -1  -6   3  11860. 695.251   1
  -1  -6   3  10782. 882.681   1
   1   6  -3  11346. 673.184   1
   1   6  -3  11115. 674.580   1
   1   6  -3  12285. 925.418   1
   1   6  -3  10944. 884.636   1
  -1  -6   2 223408. 9550.27   1
  -1  -6   2 201257. 8600.55   1
  -1  -6   2 216033.  14743.   1
   1   6  -2 201061. 8600.55   1
   1   6  -2 204832. 8762.56   1
   1   6  -2 197653.  13497.   1
   1   6  -2 204413.  13939.   1
  -1  -6   1 195586. 8371.50   1
  -1  -6   1 191257. 8173.18   1
  -1  -6   1 196173.  13391.   1
   1   6  -1 195614. 8368.71   1
   1   6  -1 188017. 8058.65   1
   1   6  -1 192877.  13148.   1
   1   6  -1 188017.  12838.   1
  -1  -6   0 221173. 9446.92   1
  -1  -6   0 208743. 8902.23   1
  -1  -6   0 215642.  14707.   1
  -1  -6   0 215726.  14715.   1
   1   6   0 214385. 9159.21   1
   1   6   0 204804. 8765.35   1
   1   6   0 214190.  14587.   1
   1   6   0 202598.  13818.   1
  -1  -6  -1 615362.  25989.   1
  -1  -6  -1 629050.  26578.   1
   1   6   1 605307.  25595.   1
   1   6   1 599441.  25338.   1
   1   6   1 646927.  43939.   1
   1   6   1 594692.  40419.   1
  -1  -6  -2  16475. 845.530   1
  -1  -6  -2  17067. 1254.19   1
  -1  -6  -2  16542. 1222.90   1
   1   6   2  16866. 904.468   1
   1   6   2  16679. 889.943   1
   1   6   2  16561. 1192.18   1
   1   6   2  18131. 1316.20   1
  -1  -6  -3 227542. 9687.14   1
  -1  -6  -3 244106.  16648.   1
  -1  -6  -3 238491.  16263.   1
   1   6   3 219218. 9368.71   1
   1   6   3 209665. 8972.06   1
   1   6   3 242374.  16517.   1
   1   6   3 232234.  15827.   1
  -1  -6  -4  50978. 2278.21   1
  -1  -6  -4  48994. 3416.20   1
  -1  -6  -4  56397. 3924.58   1
   1   6   4  51871. 2351.39   1
   1   6   4  48771. 2229.05   1
   1   6   4  54441. 3779.33   1
   1   6   4  53659. 3726.25   1
  -1  -6  -5 3667.59 363.687   1
  -1  -6  -5 3111.73 393.016   1
  -1  -6  -5 3435.75 432.402   1
   1   6   5 3287.71 388.826   1
   1   6   5 2966.48 368.994   1
   1   6   5 2972.06 345.251   1
   1   6   5 3416.20 372.905   1
  -1  -6  -6 8678.76 558.938   1
  -1  -6  -6 9142.45 769.832   1
  -1  -6  -6 9483.23 790.781   1
   1   6   6 9946.92 664.524   1
   1   6   6 9466.47 649.441   1
   1   6   6 9466.47 789.664   1
   1   6   6  10332. 815.362   1
  -1  -6  -7  59413. 2654.19   1
  -1  -6  -7  58492. 4083.79   1
  -1  -6  -7  51788. 3625.69   1
   1   6   7  56397. 2560.33   1
   1   6   7  58352. 2653.91   1
   1   6   7  52682. 3703.91   1
   1   6   7  60531. 4198.32   1
  -1  -6  -8 177039. 7594.96   1
  -1  -6  -8 186508.  12765.   1
   1   6   8 175503. 7553.06   1
   1   6   8 188491. 8106.14   1
   1   6   8 177430.  12137.   1
   1   6   8 180223.  12374.   1
  -1  -6  -9 5167.59 511.731   1
  -1  -6  -9 5511.17 586.871   1
   1   6   9 4857.54 525.977   1
   1   6   9 5527.93 570.670   1
   1   6   9 4298.88 560.614   1
  -1  -6 -10 212234. 9089.38   1
  -1  -6 -10 222067.  15176.   1
   1   6  10 212542. 9111.72   1
   1   6  10 180028.  12344.   1
   1   6  10 206201.  14095.   1
  -1  -6 -11  75335. 3324.02   1
  -1  -6 -11  71508. 4988.82   1
   1   6  11  74246. 3332.40   1
   1   6  11  67598. 4745.81   1
   1   6  11  73827. 5125.69   1
  -1  -6 -12  25450. 1325.98   1
  -1  -6 -12  23207. 1761.17   1
   1   6  12  22168. 1196.93   1
   1   6  12  23047. 1773.18   1
   1   6  12  21545. 1607.82   1
  -1  -6 -13  19176. 1099.72   1
  -1  -6 -13  24324. 1856.42   1
   1   6  13  19952. 1120.95   1
   1   6  13  21059. 1612.85   1
   1   6  13  20335. 1574.02   1
  -1  -6 -14 3047.48 594.971   1
  -1  -6 -14 2355.30 586.871   1
   1   6  14 3402.23 622.346   1
   1   6  14 3849.16 545.251   1
   1   6  14 3583.80 607.541   1
  -1  -7  11 5050.27 586.312   1
  -1  -7  11 4075.41 654.469   1
   1   7 -11 5198.32 577.932   1
   1   7 -11 3988.82 572.625   1
   1   7 -11 4223.46 579.608   1
   1   7 -11 3955.30 663.966   1
  -1  -7  10  84944. 3751.39   1
  -1  -7  10  76955. 5379.88   1
   1   7 -10  86927. 3843.57   1
   1   7 -10  83268. 3698.32   1
   1   7 -10  77989. 5432.96   1
   1   7 -10  76788. 5379.88   1
  -1  -7   9  46341. 2124.58   1
  -1  -7   9  46201. 3298.88   1
   1   7  -9  42961. 2020.39   1
   1   7  -9  42821. 1986.31   1
   1   7  -9  44637. 3173.18   1
   1   7  -9  37346. 2742.73   1
  -1  -7   8 6648.04 532.960   1
  -1  -7   8 7544.69 740.502   1
   1   7  -8 6329.60 547.206   1
   1   7  -8 7067.03 581.284   1
   1   7  -8 6952.51 656.424   1
   1   7  -8 5893.85 703.072   1
  -1  -7   7  17869. 948.602   1
  -1  -7   7  16075. 1292.74   1
   1   7  -7  16564. 938.826   1
   1   7  -7  17452. 946.647   1
   1   7  -7  15869. 1300.56   1
   1   7  -7  16564. 1281.28   1
  -1  -7   6  19701. 1014.52   1
  -1  -7   6  19623. 1496.93   1
   1   7  -6  17193. 947.206   1
   1   7  -6  18383. 997.764   1
  -1  -7   5  42933. 1966.48   1
  -1  -7   5  43743. 3092.18   1
   1   7  -5  43492. 2029.33   1
   1   7  -5  39916. 1867.32   1
   1   7  -5  42290. 2966.48   1
   1   7  -5  42793. 3067.04   1
  -1  -7   4  737.15 301.117   1
  -1  -7   4  752.23 334.637   1
   1   7  -4  344.13 322.905   1
   1   7  -4 1009.78 385.754   1
   1   7  -4  542.46 248.408   1
   1   7  -4  663.97 330.167   1
  -1  -7   3 139162. 6008.37   1
  -1  -7   3 144581. 9913.40   1
   1   7  -3 142067. 6142.45   1
   1   7  -3 134162. 5801.67   1
   1   7  -3 137709. 9441.33   1
   1   7  -3 139637. 9544.68   1
  -1  -7   2 123603. 5343.57   1
  -1  -7   2 133100. 9120.10   1
   1   7  -2 125642. 5441.33   1
   1   7  -2 125642. 5441.33   1
   1   7  -2 130307. 8941.33   1
   1   7  -2 131508. 9002.78   1
  -1  -7   1  47123. 2141.06   1
  -1  -7   1  47346. 2139.94   1
  -1  -7   1  49693. 3466.48   1
   1   7  -1  46704. 2135.75   1
   1   7  -1  45950. 2094.41   1
   1   7  -1  47374. 3290.50   1
   1   7  -1  51341. 3589.38   1
  -1  -7   0 199162. 8522.34   1
  -1  -7   0 212793. 9083.79   1
  -1  -7   0 209274.  14274.   1
   1   7   0 191536. 8203.90   1
   1   7   0 200056. 8553.06   1
   1   7   0 201508.  13746.   1
   1   7   0 202793.  13849.   1
  -1  -7  -1  24221. 1196.09   1
  -1  -7  -1  23492. 1697.48   1
  -1  -7  -1  24975. 1811.73   1
   1   7   1  23321. 1156.98   1
   1   7   1  24039. 1197.48   1
  -1  -7  -2  10782. 650.279   1
  -1  -7  -2  10824. 881.284   1
  -1  -7  -2  11346. 891.061   1
   1   7   2  11341. 695.530   1
   1   7   2  10198. 644.413   1
   1   7   2  11003. 855.027   1
   1   7   2  10947. 840.781   1
  -1  -7  -3  43184. 1973.18   1
  -1  -7  -3  45251. 3173.18   1
  -1  -7  -3  43743. 3075.42   1
   1   7   3  42430. 1970.67   1
   1   7   3  40866. 1894.69   1
   1   7   3  44246. 3083.80   1
   1   7   3  41425. 2902.23   1
  -1  -7  -4  65978. 2921.78   1
  -1  -7  -4  74469. 5156.42   1
  -1  -7  -4  68128. 4731.84   1
   1   7   4  65391. 2935.75   1
   1   7   4  65000. 2905.02   1
   1   7   4  66648. 4608.93   1
   1   7   4  67821. 4692.73   1
  -1  -7  -5  51732. 2332.12   1
  -1  -7  -5  53324. 3720.67   1
  -1  -7  -5  54330. 3815.64   1
   1   7   5  52737. 2416.20   1
   1   7   5  48771. 2230.44   1
   1   7   5  51844. 3606.14   1
   1   7   5  51145. 3564.24   1
  -1  -7  -6  21366. 1064.24   1
  -1  -7  -6  21187. 1593.29   1
  -1  -7  -6  19746. 1478.21   1
   1   7   6  21696. 1143.29   1
   1   7   6  20774. 1108.10   1
   1   7   6  20603. 1526.26   1
   1   7   6  22263. 1623.18   1
  -1  -7  -7 218324. 9298.87   1
  -1  -7  -7 221033.  15109.   1
  -1  -7  -7 192486.  13173.   1
   1   7   7 221927. 9516.75   1
   1   7   7 211089. 9053.06   1
   1   7   7 228659.  15603.   1
   1   7   7 205223.  14031.   1
  -1  -7  -8  89944. 3930.16   1
  -1  -7  -8  98799. 6821.22   1
   1   7   8  87877. 3877.09   1
   1   7   8  87933. 3885.47   1
   1   7   8  87542. 6078.21   1
   1   7   8  94330. 6502.79   1
  -1  -7  -9  68631. 3061.45   1
  -1  -7  -9  73156. 5094.97   1
   1   7   9  70503. 3139.66   1
   1   7   9  71871. 3223.46   1
   1   7   9  73994. 5134.07   1
   1   7   9  65503. 4586.59   1
  -1  -7 -10 119609. 5184.35   1
  -1  -7 -10 129693. 8921.78   1
   1   7  10 121061. 5248.60   1
   1   7  10 129776. 5636.87   1
   1   7  10 111955. 7748.60   1
   1   7  10 128631. 8829.60   1
  -1  -7 -11  722.62 416.759   1
  -1  -7 -11  801.68 436.033   1
   1   7  11 1121.23 481.843   1
   1   7  11 1231.56 445.530   1
   1   7  11  963.41 538.826   1
   1   7  11 1441.06 405.028   1
  -1  -7 -12 4061.45 525.418   1
  -1  -7 -12 3047.48 597.765   1
   1   7  12 3019.55 518.435   1
   1   7  12 3399.44 503.351   1
   1   7  12 3564.24 559.217   1
   1   7  12 3111.73 616.480   1
  -1  -7 -13 5519.55 593.854   1
  -1  -7 -13 5938.54 734.357   1
   1   7  13 6416.19 637.709   1
   1   7  13 7586.58 856.424   1
   1   7  13 6913.40 762.290   1
  -1  -8  10  26983. 1389.94   1
  -1  -8  10  27109. 2091.06   1
   1   8 -10  24553. 1339.66   1
   1   8 -10  27170. 1424.86   1
   1   8 -10  27514. 2059.50   1
   1   8 -10  23760. 1901.12   1
  -1  -8   9 3670.39 490.223   1
  -1  -8   9 3248.60 685.195   1
   1   8  -9 3343.57 570.949   1
   1   8  -9 3684.35 535.754   1
  -1  -8   8 1604.19 380.726   1
  -1  -8   8 1176.81 564.804   1
   1   8  -8 1293.57 474.581   1
   1   8  -8 1342.74 437.709   1
   1   8  -8  890.22 437.150   1
   1   8  -8 1416.20 627.374   1
  -1  -8   7 9575.41 624.301   1
  -1  -8   7  10142. 948.602   1
   1   8  -7  10810. 712.848   1
   1   8  -7  10159. 686.312   1
   1   8  -7  10006. 996.647   1
   1   8  -7  11740. 979.608   1
  -1  -8   6  84749. 3720.67   1
  -1  -8   6  89637. 6212.28   1
   1   8  -6  90419. 3986.03   1
   1   8  -6  90614. 3986.03   1
   1   8  -6  90726. 6268.15   1
   1   8  -6  85419. 5988.82   1
  -1  -8   5  44637. 2045.53   1
  -1  -8   5  46564. 3293.29   1
   1   8  -5  45335. 2101.11   1
   1   8  -5  44888. 2050.00   1
   1   8  -5  46816. 3371.50   1
   1   8  -5  49525. 3469.27   1
  -1  -8   4  60419. 2697.76   1
  -1  -8   4  64330. 4491.62   1
   1   8  -4  59357. 2684.35   1
   1   8  -4  58631. 2635.47   1
   1   8  -4  59972. 4173.18   1
   1   8  -4  60614. 4256.98   1
  -1  -8   3 181983. 7787.70   1
  -1  -8   3 180558.  12346.   1
   1   8  -3 178212. 7653.62   1
   1   8  -3 175056. 7530.72   1
   1   8  -3 173436.  11846.   1
   1   8  -3 183687.  12584.   1
  -1  -8   2 1487.71 332.123   1
  -1  -8   2 1721.51 409.217   1
   1   8  -2  943.30 361.173   1
   1   8  -2 1208.66 365.921   1
   1   8  -2  987.43 375.419   1
   1   8  -2 1456.98 301.955   1
  -1  -8   1  82849. 3639.66   1
  -1  -8   1  86927. 3804.47   1
  -1  -8   1  86564. 5974.85   1
   1   8  -1  84106. 3712.29   1
   1   8  -1  75614. 3365.92   1
   1   8  -1  83352. 5720.66   1
   1   8  -1  87542. 6047.48   1
  -1  -8   0  22316. 1113.13   1
  -1  -8   0  23073. 1160.05   1
  -1  -8   0  21637. 1595.25   1
   1   8   0  20374. 1078.49   1
   1   8   0  21871. 1126.54   1
   1   8   0  21078. 1510.61   1
   1   8   0  24215. 1760.61   1
  -1  -8  -1 4955.30 451.676   1
  -1  -8  -1 3483.24 447.206   1
  -1  -8  -1 4508.38 546.647   1
   1   8   1 4178.77 453.351   1
   1   8   1 4564.24 450.837   1
   1   8   1 4564.24 475.139   1
   1   8   1 3684.35 391.620   1
  -1  -8  -2 6276.53 496.368   1
  -1  -8  -2 5634.07 581.284   1
  -1  -8  -2 5913.40 593.575   1
   1   8   2 5170.39 471.229   1
   1   8   2 6044.69 513.407   1
  -1  -8  -3  52793. 2388.27   1
  -1  -8  -3  58045. 4053.07   1
  -1  -8  -3  54581. 3812.84   1
   1   8   3  53687. 2442.46   1
   1   8   3  54246. 2468.71   1
   1   8   3  53799. 3729.05   1
   1   8   3  52486. 3650.83   1
  -1  -8  -4 133994. 5779.32   1
  -1  -8  -4 153352.  10500.   1
  -1  -8  -4 141899. 9731.83   1
   1   8   4 135922. 5877.09   1
   1   8   4 135726. 5871.50   1
   1   8   4 145419. 9949.71   1
   1   8   4 136089. 9321.22   1
  -1  -8  -5   23.24 314.804   1
  -1  -8  -5   53.66 353.072   1
  -1  -8  -5  305.87 369.553   1
   1   8   5  304.47 351.676   1
   1   8   5  612.57 351.117   1
   1   8   5  -27.78 295.810   1
   1   8   5  106.73 297.765   1
  -1  -8  -6 166396. 7114.52   1
  -1  -8  -6 175642.  12017.   1
  -1  -8  -6 151955.  10413.   1
   1   8   6 165419. 7120.10   1
   1   8   6 177430. 7622.90   1
   1   8   6 154413.  10592.   1
   1   8   6 170307.  11648.   1
  -1  -8  -7  83771. 3659.21   1
  -1  -8  -7  88045. 6086.59   1
   1   8   7  82430. 3656.42   1
   1   8   7  78100. 3472.06   1
   1   8   7  85391. 5913.40   1
   1   8   7  88659. 6117.31   1
  -1  -8  -8 9379.88 659.776   1
  -1  -8  -8 8458.09 816.759   1
   1   8   8  10053. 716.759   1
   1   8   8  10701. 708.100   1
   1   8   8 9069.82 883.239   1
   1   8   8  10749. 905.865   1
  -1  -8  -9  61089. 2725.70   1
  -1  -8  -9  63994. 4477.65   1
   1   8   9  63687. 2854.75   1
   1   8   9  64274. 2916.20   1
   1   8   9  62654. 4377.09   1
   1   8   9  56564. 4022.34   1
  -1  -8 -10  20053. 1077.93   1
  -1  -8 -10  17913. 1427.93   1
   1   8  10  19394. 1085.47   1
   1   8  10  17941. 1020.67   1
   1   8  10  16668. 1401.67   1
   1   8  10  18631. 1450.56   1
  -1  -8 -11 1350.84 446.089   1
  -1  -8 -11 1448.32 551.955   1
   1   8  11  816.48 477.374   1
   1   8  11  926.81 472.905   1
   1   8  11  771.79 466.759   1
   1   8  11 1520.95 629.608   1
  -1  -8 -12 2615.08 509.497   1
  -1  -8 -12 3047.48 681.005   1
   1   8  12 1886.03 495.810   1
   1   8  12 3022.34 567.039   1
   1   8  12 3483.24 773.184   1
   1   8  12 2832.40 574.301   1
  -1  -9   8 1899.72 471.508   1
  -1  -9   8 1313.13 646.647   1
   1   9  -8 1532.40 527.932   1
   1   9  -8 1317.32 554.189   1
   1   9  -8 1721.23 755.586   1
   1   9  -8 1331.56 510.335   1
  -1  -9   7  62989. 2829.61   1
  -1  -9   7  64525. 4578.21   1
   1   9  -7  61955. 2790.22   1
   1   9  -7  64162. 2896.65   1
   1   9  -7  63380. 4432.96   1
   1   9  -7  57793. 4220.67   1
  -1  -9   6  72570. 3212.29   1
  -1  -9   6  73352. 5142.45   1
   1   9  -6  72737. 3229.05   1
   1   9  -6  75559. 3371.50   1
   1   9  -6  76844. 5335.19   1
   1   9  -6  67709. 4860.33   1
  -1  -9   5 9581.00 630.446   1
  -1  -9   5 8835.19 917.597   1
   1   9  -5 9486.02 835.474   1
   1   9  -5 8857.53 1079.89   1
  -1  -9   4 132514. 5706.70   1
  -1  -9   4 131061. 9011.16   1
   1   9  -4 134832. 5835.19   1
   1   9  -4 126732. 5480.44   1
   1   9  -4 126117. 8656.42   1
   1   9  -4 154385.  10687.   1
  -1  -9   3  15799. 854.189   1
  -1  -9   3  15344. 1242.46   1
   1   9  -3  15223. 871.507   1
   1   9  -3  16436. 932.122   1
   1   9  -3  16134. 1235.75   1
   1   9  -3  17290. 1494.41   1
  -1  -9   2  23869. 1186.03   1
  -1  -9   2  24156. 1800.56   1
   1   9  -2  21561. 1125.14   1
   1   9  -2  21344. 1130.45   1
   1   9  -2  22106. 1617.60   1
   1   9  -2  22260. 1705.31   1
  -1  -9   1  29525. 1411.73   1
  -1  -9   1  29162. 1407.26   1
  -1  -9   1  26413. 1945.53   1
   1   9  -1  29078. 1430.17   1
   1   9  -1  27614. 1360.61   1
   1   9  -1  26114. 1933.80   1
   1   9  -1  27011. 1942.18   1
  -1  -9   0  26318. 1293.29   1
  -1  -9   0  27263. 2009.22   1
   1   9   0  26070. 1285.75   1
   1   9   0  26162. 1317.88   1
   1   9   0  25939. 1872.90   1
   1   9   0  26603. 1954.75   1
  -1  -9  -1  22455. 1141.06   1
  -1  -9  -1  23503. 1754.47   1
   1   9   1  21941. 1112.85   1
   1   9   1  20606. 1095.53   1
   1   9   1  21743. 1628.77   1
   1   9   1  19226. 1428.21   1
  -1  -9  -2 7723.46 564.525   1
  -1  -9  -2 7684.35 770.111   1
   1   9   2 7312.84 554.748   1
   1   9   2 6363.12 555.865   1
   1   9   2 6832.40 671.787   1
   1   9   2 7055.86 666.480   1
  -1  -9  -3 162123. 6952.51   1
  -1  -9  -3 166145.  11397.   1
  -1  -9  -3 160279.  10989.   1
   1   9   3 164497. 7058.65   1
   1   9   3 159218. 6877.09   1
   1   9   3 171927.  11768.   1
   1   9   3 175279.  11983.   1
  -1  -9  -4  29972. 1425.14   1
  -1  -9  -4  29777. 2172.90   1
  -1  -9  -4  29637. 2180.44   1
   1   9   4  30279. 1479.89   1
   1   9   4  29721. 1433.52   1
   1   9   4  28352. 2049.72   1
   1   9   4  30000. 2166.76   1
  -1  -9  -5  80168. 3508.38   1
  -1  -9  -5  85531. 5949.71   1
  -1  -9  -5  76257. 5301.67   1
   1   9   5  83687. 3698.32   1
   1   9   5  85922. 3773.74   1
   1   9   5  77793. 5413.40   1
   1   9   5  84497. 5840.78   1
  -1  -9  -6  64804. 2902.23   1
  -1  -9  -6  70419. 4921.78   1
   1   9   6  67123. 3016.76   1
   1   9   6  67989. 3053.07   1
   1   9   6  69944. 4899.44   1
   1   9   6  68464. 4754.19   1
  -1  -9  -7  838.27 415.921   1
  -1  -9  -7  467.32 571.508   1
   1   9   7 1155.86 438.547   1
   1   9   7  690.50 408.659   1
   1   9   7  889.11 629.329   1
   1   9   7  747.49 453.910   1
  -1  -9  -8 9589.38 641.340   1
  -1  -9  -8 9578.20 986.870   1
   1   9   8  10282. 760.614   1
   1   9   8  10617. 730.167   1
   1   9   8 9754.18 915.362   1
   1   9   8 9418.98 1089.66   1
  -1  -9  -9  11950. 793.575   1
  -1  -9  -9  11506. 1096.93   1
   1   9   9  11835. 835.474   1
   1   9   9  12589. 846.647   1
   1   9   9  11394. 1020.67   1
   1   9   9 9533.51 1113.13   1
  -1  -9 -10  16385. 955.306   1
  -1  -9 -10  15816. 1394.97   1
   1   9  10  16818. 1013.41   1
   1   9  10  17103. 989.105   1
   1   9  10  17237. 1544.69   1
   1   9  10  15802. 1314.80   1
  -1 -10   5  35195. 1662.57   1
  -1 -10   5  30642. 2341.62   1
   1  10  -5  35223. 1713.41   1
   1  10  -5  36033. 1756.42   1
   1  10  -5  29469. 2212.01   1
   1  10  -5  28324. 2457.82   1
  -1 -10   4  13302. 800.837   1
  -1 -10   4  10648. 1188.83   1
   1  10  -4  13022. 827.653   1
   1  10  -4  14436. 893.854   1
  -1 -10   3  605.87 411.452   1
  -1 -10   3 1066.48 731.284   1
   1  10  -3  896.37 447.486   1
   1  10  -3  639.38 436.592   1
   1  10  -3  275.22 891.340   1
   1  10  -3  998.88 526.815   1
  -1 -10   2  -21.74 386.871   1
  -1 -10   2  992.46 618.714   1
   1  10  -2  750.56 415.363   1
   1  10  -2 -143.16 403.352   1
   1  10  -2  484.36 841.619   1
   1  10  -2  338.27 496.648   1
  -1 -10   1  21061. 1653.63   1
   1  10  -1  23841. 1223.18   1
   1  10  -1  25254. 1284.36   1
   1  10  -1  20120. 1540.22   1
   1  10  -1  18570. 1655.58   1
  -1 -10   0  51145. 2304.75   1
  -1 -10   0  48855. 3480.44   1
   1  10   0  51592. 2371.23   1
   1  10   0  49218. 2272.34   1
  -1 -10  -1 4486.03 467.877   1
  -1 -10  -1 3259.77 648.323   1
   1  10   1 3826.81 509.217   1
   1  10   1 4513.96 529.888   1
   1  10   1 2843.57 783.798   1
   1  10   1 3237.43 584.078   1
  -1 -10  -2 101899. 4435.75   1
  -1 -10  -2  99721. 6910.61   1
   1  10   2  97542. 4296.08   1
   1  10   2  94022. 4139.66   1
   1  10   2  80950. 5675.97   1
   1  10   2  91732. 6354.74   1
  -1 -10  -3  64357. 2893.85   1
  -1 -10  -3  59190. 4175.97   1
   1  10   3  64944. 2927.37   1
   1  10   3  67458. 3033.52   1
   1  10   3  70698. 4958.10   1
   1  10   3  59888. 4220.67   1
  -1 -10  -4  30726. 1484.08   1
  -1 -10  -4  27581. 2073.74   1
  -1 -10  -4  33547. 2496.92   1
   1  10   4  31844. 1567.04   1
   1  10   4  34385. 1668.43   1
   1  10   4  25137. 1950.28   1
  -1 -10  -5  26006. 1265.36   1
  -1 -10  -5  19034. 1586.31   1
   1  10   5  25983. 1338.55   1
   1  10   5  27014. 1368.99   1
   1  10   5  19916. 1574.86   1
   1  10   5  21056. 1755.86   1
  -1 -10  -6 2681.84 465.642   1
  -1 -10  -6 2230.72 796.927   1
   1  10   6 2390.50 528.770   1
   1  10   6 2673.74 567.318   1
   1  10   6 2166.76 921.507   1
   1  10   6 1840.22 638.268   1
  -1 -10  -7 1205.59 466.759   1
  -1 -10  -7  902.51 912.569   1
   1  10   7  706.42 467.877   1
   1  10   7  853.63 513.407   1
   1  10   7  814.24 663.966   1
   1  10   7 1299.72 953.072   1
  -1 -10  -8 1547.21 468.715   1
  -1 -10  -8 1489.66 1066.76   1
   1  10   8 2589.94 499.441   1
   1  10   8 1906.42 557.541   1
   1  10   8 -112.85 937.988   1
   1  10   8  842.74 810.055   1
  -2   9   6  76285. 3427.37   1
  -2   9   6  71117. 3212.29   1
   2  -9  -6  75782. 3379.88   1
  -2   9   5  59860. 2733.80   1
  -2   9   5  55335. 2561.73   1
   2  -9  -5  53045. 2413.68   1
  -2   9   4 4539.10 666.759   1
  -2   9   4 4178.77 635.195   1
   2  -9  -4 5804.46 579.050   1
  -2   9   3  41983. 2014.52   1
  -2   9   3  42570. 2043.29   1
   2  -9  -3  41006. 1910.61   1
  -2   9   2 5994.41 642.457   1
  -2   9   2 4192.73 589.106   1
   2  -9  -2 5843.57 566.201   1
  -2   9   1 1324.86 528.770   1
  -2   9   1 1128.49 484.636   1
   2  -9  -1 1661.73 466.759   1
  -2   9   0 1009.22 482.681   1
  -2   9   0  836.59 510.335   1
   2  -9   0 1113.41 418.156   1
  -2   9  -1  29469. 1488.27   1
  -2   9  -1  28073. 1418.71   1
  -2   9  -2  25165. 1330.45   1
  -2   9  -2  26503. 1363.96   1
  -2   9  -3 7932.95 694.692   1
  -2   9  -3 7812.84 699.720   1
  -2   9  -4  72318. 3270.95   1
  -2   9  -4  72430. 3248.60   1
   2  -9   4  75587. 3374.30   1
  -2   9  -5  14469. 956.144   1
  -2   9  -5  14036. 969.831   1
   2  -9   5  13712. 881.843   1
  -2   8   9  62235. 2849.16   1
  -2   8   9  61816. 2835.19   1
   2  -8  -9  63715. 2882.68   1
  -2   8   8  30363. 1533.80   1
  -2   8   8  31061. 1548.60   1
   2  -8  -8  29665. 1466.20   1
  -2   8   7  44693. 2104.75   1
  -2   8   7  43464. 2060.33   1
   2  -8  -7  43436. 2025.42   1
  -2   8   6 124469. 5418.99   1
  -2   8   6 120279. 5245.80   1
   2  -8  -6 123436. 5351.95   1
  -2   8   5  11623. 763.686   1
  -2   8   5  11855. 805.865   1
   2  -8  -5  11737. 747.206   1
  -2   8   4  27830. 1386.31   1
  -2   8   4  26123. 1338.83   1
   2  -8  -4  29777. 1432.68   1
  -2   8   3  22947. 1186.03   1
  -2   8   3  25011. 1276.26   1
   2  -8  -3  24101. 1195.81   1
  -2   8   2 9343.57 678.212   1
  -2   8   2 9846.36 693.016   1
   2  -8  -2 9371.50 622.904   1
  -2   8   1  16355. 919.831   1
  -2   8   1  16651. 936.871   1
   2  -8  -1  17402. 936.033   1
  -2   8   0  20897. 1101.12   1
  -2   8   0  20447. 1081.56   1
   2  -8   0  19156. 1008.10   1
  -2   8  -1 156508. 6734.63   1
  -2   8  -1 163324. 7027.93   1
  -2   8  -2  659.50 415.083   1
  -2   8  -2 1024.02 400.279   1
  -2   8  -3 112821. 4918.99   1
  -2   8  -3 109218. 4762.56   1
   2  -8   3 109581. 4748.60   1
  -2   8  -4  43855. 2056.70   1
  -2   8  -4  43520. 2053.63   1
   2  -8   4  44441. 2040.50   1
  -2   8  -5 6312.84 612.849   1
  -2   8  -5 5209.49 556.145   1
   2  -8   5 5642.45 518.435   1
  -2   8  -6  12478. 825.977   1
  -2   8  -6  12427. 837.150   1
   2  -8   6  12318. 765.921   1
  -2   8  -7 1435.19 511.173   1
  -2   8  -7 1879.33 512.290   1
  -2   8  -7 1545.53 460.055   1
  -2   8  -7 1743.57 625.418   1
   2  -8   7 1722.34 440.782   1
   2  -8   7 2476.25 689.943   1
   2  -8   7 1213.13 562.011   1
  -2   8  -8 5614.52 667.597   1
  -2   8  -8 5662.01 694.971   1
  -2   8  -8 5695.52 752.234   1
  -2   8  -8 5885.47 948.882   1
   2  -8   8 6245.80 616.759   1
   2  -8   8 4287.71 820.669   1
   2  -8   8 5748.60 949.999   1
  -2   7  11 4614.52 669.552   1
  -2   7  11 3522.34 619.273   1
  -2   7  11 3491.62 897.206   1
  -2   7  11 4662.01 785.195   1
   2  -7 -11 3997.20 584.357   1
   2  -7 -11 4357.54 843.575   1
  -2   7  10  65223. 2952.51   1
  -2   7  10  63212. 2882.68   1
  -2   7  10  68575. 4784.91   1
  -2   7  10  63352. 4486.03   1
   2  -7 -10  61732. 2787.99   1
   2  -7 -10  67681. 4756.98   1
  -2   7   9  96816. 4273.74   1
  -2   7   9  91648. 4053.07   1
  -2   7   9 104162. 7184.35   1
  -2   7   9 106117. 7360.33   1
   2  -7  -9  89832. 3944.13   1
   2  -7  -9  98352. 6810.05   1
  -2   7   8  23614. 1264.80   1
  -2   7   8  23712. 1238.83   1
  -2   7   8  23441. 1717.04   1
  -2   7   8  27075. 1980.72   1
   2  -7  -8  22240. 1157.54   1
   2  -7  -8  21936. 1644.69   1
  -2   7   7  88352. 3910.61   1
  -2   7   7  86955. 3849.16   1
  -2   7   7  91061. 6276.53   1
  -2   7   7  88715. 6097.76   1
   2  -7  -7  87961. 3860.33   1
   2  -7  -7  86592. 5960.89   1
   2  -7  -7  96089. 6611.73   1
  -2   7   6  18427. 1016.20   1
  -2   7   6  19011. 1047.21   1
   2  -7  -6  18709. 989.943   1
  -2   7   5  733.24 395.810   1
  -2   7   5   95.08 410.055   1
   2  -7  -5  511.17 351.396   1
  -2   7   4  26212. 1317.88   1
  -2   7   4  23950. 1229.61   1
   2  -7  -4  24126. 1196.37   1
  -2   7   3  74860. 3324.02   1
  -2   7   3  78519. 3486.03   1
   2  -7  -3  77123. 3399.44   1
  -2   7   2  94469. 4145.25   1
  -2   7   2  93994. 4125.69   1
   2  -7  -2  92402. 4039.10   1
  -2   7   1  15377. 880.167   1
  -2   7   1  15458. 890.502   1
   2  -7  -1  15514. 858.100   1
  -2   7   0 262374.  11187.   1
  -2   7   0 271704.  11573.   1
   2  -7   0 271424.  11556.   1
  -2   7  -1  33799. 1612.29   1
  -2   7  -1  33799. 1620.67   1
   2  -7   1  33939. 1603.91   1
  -2   7  -2  80000. 3539.10   1
  -2   7  -2  81285. 3586.59   1
   2  -7   2  78017. 3432.96   1
  -2   7  -3  95168. 4170.39   1
  -2   7  -3  96033. 4209.49   1
   2  -7   3  93994. 4094.97   1
  -2   7  -4 9731.83 676.815   1
  -2   7  -4  10123. 684.636   1
   2  -7   4 9259.77 608.379   1
  -2   7  -5 1431.56 401.676   1
  -2   7  -5  337.15 360.893   1
  -2   7  -5  893.85 229.497   1
  -2   7  -5 1173.46 343.575   1
   2  -7   5  983.80 336.312   1
   2  -7   5  675.98 307.262   1
   2  -7   5 1151.67 347.206   1
  -2   7  -6 3117.32 479.608   1
  -2   7  -6 3226.25 451.676   1
  -2   7  -6 3421.78 433.240   1
  -2   7  -6 3189.94 506.145   1
   2  -7   6 2606.42 362.011   1
   2  -7   6 2584.63 477.094   1
   2  -7   6 3363.12 560.055   1
  -2   7  -7  31760. 1544.97   1
  -2   7  -7  31871. 1552.51   1
  -2   7  -7  36648. 2630.17   1
  -2   7  -7  36871. 2705.30   1
   2  -7   7  30447. 1464.24   1
   2  -7   7  34581. 2512.01   1
   2  -7   7  37989. 2790.78   1
  -2   7  -8  26028. 1336.03   1
  -2   7  -8  25285. 1309.78   1
  -2   7  -8  25933. 2024.58   1
  -2   7  -8  23645. 1774.86   1
   2  -7   8  24204. 1246.09   1
   2  -7   8  26265. 2055.30   1
   2  -7   8  25662. 1936.59   1
  -2   7  -9  29134. 1473.46   1
  -2   7  -9  32626. 1607.26   1
  -2   7  -9  31425. 2317.87   1
  -2   7  -9  27363. 2200.56   1
   2  -7   9  30810. 1524.86   1
   2  -7   9  26296. 2070.95   1
   2  -7   9  28771. 2159.77   1
  -2   7 -10  58938. 2721.51   1
  -2   7 -10  62402. 2846.37   1
  -2   7 -10  63799. 4667.59   1
  -2   7 -10  60000. 4251.39   1
   2  -7  10  60810. 2762.85   1
   2  -7  10  59721. 4332.40   1
   2  -7  10  58659. 4173.18   1
  -2   6  12  16285. 1039.11   1
  -2   6  12  13140. 1251.12   1
  -2   6  12  13092. 1127.65   1
   2  -6 -12  14553. 895.809   1
   2  -6 -12  15506. 1312.29   1
  -2   6  11  46788. 2209.77   1
   2  -6 -11  48156. 2218.71   1
   2  -6 -11  50251. 3586.59   1
  -2   6  10  96313. 4259.77   1
   2  -6 -10  98799. 4304.46   1
   2  -6 -10 104302. 7209.49   1
  -2   6   9 3455.30 502.513   1
  -2   6   9 3324.02 511.731   1
  -2   6   9 2731.56 517.877   1
  -2   6   9 3086.59 412.849   1
   2  -6  -9 3539.10 442.737   1
   2  -6  -9 2476.53 470.949   1
  -2   6   8  49832. 2306.14   1
  -2   6   8  50168. 2308.94   1
  -2   6   8  48520. 3435.75   1
  -2   6   8  47346. 3301.67   1
   2  -6  -8  48101. 2162.57   1
   2  -6  -8  50084. 3522.34   1
  -2   6   7 5069.83 524.022   1
  -2   6   7 5905.02 562.849   1
  -2   6   7 6217.87 636.033   1
  -2   6   7 5460.89 503.351   1
   2  -6  -7 4628.49 425.139   1
   2  -6  -7 4645.25 520.391   1
  -2   6   6  24095. 1245.53   1
  -2   6   6  23816. 1233.80   1
  -2   6   6  23380. 1650.84   1
  -2   6   6  26623. 1896.65   1
   2  -6  -6  22371. 1119.55   1
   2  -6  -6  23606. 1683.80   1
  -2   6   5 3044.69 455.586   1
  -2   6   5 3701.11 456.424   1
  -2   6   5 2877.09 243.212   1
  -2   6   5 3564.24 289.106   1
   2  -6  -5 3072.62 386.312   1
   2  -6  -5 3486.03 303.631   1
   2  -6  -5 2829.61 271.117   1
  -2   6   4 108771. 4748.60   1
  -2   6   4 106397. 4648.04   1
   2  -6  -4 103575. 4491.62   1
  -2   6   3 282123.  12034.   1
  -2   6   3 262430.  11182.   1
   2  -6  -3 275949.  11715.   1
  -2   6   2 2652.23 382.122   1
  -2   6   2 2431.28 378.491   1
   2  -6  -2 2082.68 300.558   1
  -2   6   1 255475.  10883.   1
  -2   6   1 269888.  11486.   1
   2  -6  -1 270586.  11486.   1
  -2   6   0  61201. 2732.12   1
  -2   6   0  57626. 2582.68   1
   2  -6   0  55475. 2453.07   1
  -2   6  -1  11961. 713.128   1
  -2   6  -1  12411. 738.826   1
   2  -6   1  12358. 670.949   1
  -2   6  -2  41732. 1921.23   1
  -2   6  -2  40503. 1875.14   1
   2  -6   2  40335. 1834.36   1
  -2   6  -3  46033. 2094.13   1
  -2   6  -3  45894. 2098.88   1
   2  -6   3  44190. 1994.41   1
  -2   6  -4  67207. 2997.20   1
  -2   6  -4  61536. 2765.36   1
  -2   6  -4  68687. 4706.70   1
  -2   6  -4  71257. 4899.44   1
   2  -6   4  61760. 2726.53   1
   2  -6   4  73547. 5058.65   1
   2  -6   4  83408. 5717.87   1
  -2   6  -5 3259.77 423.743   1
  -2   6  -5 2980.44 415.083   1
  -2   6  -5 3301.67 358.659   1
  -2   6  -5 2804.47 397.486   1
   2  -6   5 2409.22 351.676   1
   2  -6   5 3349.16 466.759   1
   2  -6   5 2079.33 346.368   1
  -2   6  -6 176089. 7555.86   1
  -2   6  -6 185614. 7960.89   1
  -2   6  -6 193631.  13257.   1
  -2   6  -6 181843.  12422.   1
   2  -6   6 180419. 7729.04   1
   2  -6   6 192151.  13156.   1
   2  -6   6 176369.  12056.   1
  -2   6  -7  73575. 3265.36   1
  -2   6  -7  74916. 3335.19   1
  -2   6  -7  62765. 4413.40   1
  -2   6  -7  69078. 4787.70   1
   2  -6   7  68938. 3053.07   1
   2  -6   7  72486. 5030.72   1
   2  -6   7  64274. 4511.17   1
  -2   6  -8  14466. 851.675   1
  -2   6  -8  13933. 825.418   1
  -2   6  -8  11050. 1000.00   1
  -2   6  -8  13855. 1097.21   1
   2  -6   8  15137. 855.865   1
   2  -6   8  12894. 1131.28   1
   2  -6   8  12885. 1079.89   1
  -2   6  -9  94609. 4159.21   1
  -2   6  -9  93799. 4142.45   1
  -2   6  -9  84972. 5899.44   1
  -2   6  -9  72402. 5114.52   1
   2  -6   9  96145. 4220.67   1
  -2   6 -10 7765.35 703.072   1
  -2   6 -10 8418.99 693.016   1
  -2   6 -10 7715.08 770.670   1
  -2   6 -10 8187.14 899.720   1
   2  -6  10 8547.48 675.977   1
   2  -6  10 8078.20 920.111   1
   2  -6  10 8111.72 910.334   1
  -2   6 -11 9416.19 779.329   1
  -2   6 -11 9382.67 725.698   1
  -2   6 -11 9773.73 1049.16   1
  -2   6 -11 9639.65 906.424   1
   2  -6  11 9938.54 766.200   1
   2  -6  11  10137. 1037.15   1
   2  -6  11 9259.77 962.569   1
  -2   5  13  50754. 2396.09   1
  -2   5  13  55279. 3938.54   1
  -2   5  13  52514. 3731.84   1
   2  -5 -13  50894. 2359.49   1
   2  -5 -13  44162. 3175.97   1
  -2   5  12 5589.38 658.379   1
  -2   5  12 5198.32 757.820   1
  -2   5  12 5907.81 695.251   1
   2  -5 -12 5558.65 595.530   1
   2  -5 -12 5625.69 695.809   1
  -2   5  11  85922. 3832.40   1
  -2   5  11  79330. 5561.45   1
  -2   5  11  88994. 6170.38   1
   2  -5 -11  89804. 3958.10   1
   2  -5 -11  89888. 6240.22   1
  -2   5  10  22084. 1193.57   1
   2  -5 -10  23723. 1245.81   1
   2  -5 -10  25609. 1910.61   1
  -2   5   9  774.02 439.664   1
  -2   5   9  462.29 321.787   1
  -2   5   9  601.95 410.335   1
   2  -5  -9 1067.60 401.676   1
   2  -5  -9 1466.76 373.463   1
  -2   5   8 2279.05 460.335   1
  -2   5   8 1641.34 410.893   1
  -2   5   8 2938.54 410.055   1
   2  -5  -8 2499.72 419.553   1
   2  -5  -8 2123.74 385.474   1
  -2   5   7  35335. 1706.98   1
  -2   5   7  36369. 2613.41   1
  -2   5   7  37570. 2645.53   1
   2  -5  -7  37682. 1774.30   1
   2  -5  -7  35838. 2546.37   1
  -2   5   6 115782. 5050.27   1
  -2   5   6 117067. 5100.55   1
  -2   5   6 110670. 7578.20   1
  -2   5   6 124916. 8581.00   1
   2  -5  -6 111732. 4846.36   1
   2  -5  -6 123128. 8432.95   1
  -2   5   5  32654. 1565.64   1
  -2   5   5  31648. 1520.67   1
  -2   5   5  37765. 2626.25   1
  -2   5   5  32067. 2226.81   1
   2  -5  -5  33128. 1572.90   1
   2  -5  -5  35782. 2502.23   1
  -2   5   4 368435.  15642.   1
  -2   5   4 386033.  16371.   1
  -2   5   4 429608.  29358.   1
  -2   5   4 369553.  25260.   1
   2  -5  -4 372905.  15824.   1
   2  -5  -4 377374.  25785.   1
   2  -5  -4 378212.  25835.   1
  -2   5   3  39637. 1845.53   1
  -2   5   3  36257. 1697.48   1
   2  -5  -3  35447. 1653.07   1
  -2   5   2 142207. 6131.28   1
  -2   5   2 141732. 6103.35   1
   2  -5  -2 141257. 6083.79   1
  -2   5   1 100028. 4346.36   1
  -2   5   1 101341. 4405.02   1
   2  -5  -1  98994. 4298.88   1
  -2   5   0 3226.25 362.290   1
  -2   5   0 3094.97 359.497   1
   2  -5   0 3013.96 345.530   1
  -2   5  -1 6016.75 467.597   1
  -2   5  -1 5513.96 447.765   1
   2  -5   1 5734.63 432.681   1
   2  -5   1 5740.22 420.949   1
  -2   5  -2  41620. 1912.57   1
  -2   5  -2  43939. 2011.17   1
   2  -5   2  42123. 1908.66   1
  -2   5  -3 216396. 9237.42   1
  -2   5  -3 216955. 9268.15   1
  -2   5  -3 256536.  17506.   1
  -2   5  -3 209134.  14282.   1
   2  -5   3 207151. 8835.19   1
   2  -5   3 238827.  16304.   1
   2  -5   3 235475.  16075.   1
  -2   5  -4  45084. 2062.01   1
  -2   5  -4  41788. 1924.02   1
  -2   5  -4  46369. 3198.32   1
  -2   5  -4  47793. 3321.23   1
   2  -5   4  41425. 1870.67   1
   2  -5   4  44553. 3089.38   1
   2  -5   4  49357. 3438.54   1
  -2   5  -5 292458.  12433.   1
  -2   5  -5 279329.  11888.   1
  -2   5  -5 299720.  20464.   1
  -2   5  -5 329609.  22441.   1
   2  -5   5 282681.  12003.   1
   2  -5   5 307542.  20958.   1
   2  -5   5 323184.  22017.   1
  -2   5  -6 232039. 9902.22   1
  -2   5  -6 235586.  10034.   1
  -2   5  -6 207179.  14170.   1
   2  -5   6 224581. 9572.62   1
   2  -5   6 249944.  17073.   1
   2  -5   6 225698.  15439.   1
  -2   5  -7  303.63 345.810   1
  -2   5  -7  876.81 335.474   1
  -2   5  -7 1089.66 364.245   1
   2  -5   7  540.22 315.642   1
   2  -5   7 1099.16 373.743   1
   2  -5   7 1061.73 367.877   1
  -2   5  -8  78575. 3472.06   1
  -2   5  -8  78687. 3500.00   1
   2  -5   8  80447. 3550.28   1
  -2   5  -9  30140. 1484.91   1
  -2   5  -9  30922. 1500.28   1
  -2   5  -9  21665. 1665.36   1
   2  -5   9  31397. 1502.51   1
  -2   5 -10 1616.48 456.983   1
  -2   5 -10 1501.12 404.190   1
  -2   5 -10 1464.24 469.553   1
   2  -5  10 1442.18 419.273   1
   2  -5  10  972.35 469.553   1
   2  -5  10 1216.20 489.106   1
  -2   5 -11 1422.34 492.178   1
  -2   5 -11  925.70 444.413   1
  -2   5 -11 1605.03 555.027   1
   2  -5  11  643.85 458.100   1
   2  -5  11 1546.09 520.949   1
   2  -5  11 1582.12 491.340   1
  -2   5 -12  21031. 1205.03   1
  -2   5 -12  21112. 1163.41   1
  -2   5 -12  24528. 1901.95   1
   2  -5  12  21268. 1182.12   1
   2  -5  12  24067. 1870.39   1
   2  -5  12  24994. 1909.77   1
  -2   5 -13  28296. 1498.32   1
  -2   5 -13  27827. 1472.34   1
  -2   5 -13  33324. 2484.35   1
   2  -5  13  30112. 1555.86   1
   2  -5  13  31592. 2383.80   1
   2  -5  13  30056. 2261.45   1
  -2   4  14  58045. 2683.80   1
  -2   4  14  61760. 4349.16   1
  -2   4  14  68100. 4782.12   1
   2  -4 -14  57542. 2640.78   1
   2  -4 -14  55279. 3905.02   1
  -2   4  13  597.76 542.178   1
  -2   4  13  416.20 456.983   1
  -2   4  13  595.81 493.296   1
   2  -4 -13  507.54 485.195   1
   2  -4 -13  411.17 413.407   1
  -2   4  12  32682. 1650.00   1
  -2   4  12  35335. 2556.70   1
  -2   4  12  37486. 2739.66   1
   2  -4 -12  34637. 1668.71   1
   2  -4 -12  37179. 2678.49   1
  -2   4  11  71061. 3212.29   1
  -2   4  11  61592. 4346.36   1
  -2   4  11  74022. 5156.42   1
   2  -4 -11  70140. 3114.52   1
   2  -4 -11  77905. 5432.96   1
  -2   4  10  43156. 2055.58   1
   2  -4 -10  43659. 2006.42   1
   2  -4 -10  45503. 3231.84   1
  -2   4   9 3994.41 523.184   1
  -2   4   9 1513.41 402.234   1
  -2   4   9 2732.68 451.396   1
   2  -4  -9 1932.12 385.754   1
   2  -4  -9 1033.24 359.776   1
  -2   4   8  88659. 3921.78   1
   2  -4  -8  88743. 3882.68   1
   2  -4  -8  82262. 5709.49   1
  -2   4   7 270307.  11536.   1
  -2   4   7 213631.  14626.   1
  -2   4   7 253408.  17296.   1
   2  -4  -7 272821.  11603.   1
   2  -4  -7 252765.  17257.   1
  -2   4   6 4142.45 451.117   1
  -2   4   6 3851.95 427.932   1
  -2   4   6 4008.38 503.631   1
   2  -4  -6 3952.51 391.061   1
   2  -4  -6 4184.35 440.782   1
  -2   4   5 369553.  15701.   1
  -2   4   5 372905.  25383.   1
  -2   4   5 368994.  25131.   1
   2  -4  -5 349441.  14821.   1
   2  -4  -5 353910.  24103.   1
  -2   4   4 145558. 6268.15   1
  -2   4   4 157849. 6790.50   1
  -2   4   4 158883.  10835.   1
  -2   4   4 160195.  10922.   1
   2  -4  -4 149134. 6391.05   1
   2  -4  -4 162821.  11112.   1
  -2   4   3  22841. 1141.34   1
  -2   4   3  21712. 1079.33   1
  -2   4   3  22293. 1544.69   1
  -2   4   3  22031. 1528.49   1
   2  -4  -3  23263. 1121.23   1
   2  -4  -3  22902. 1591.34   1
   2  -4  -3  22768. 1582.12   1
  -2   4   2 107151. 4634.07   1
  -2   4   2 105866. 4583.79   1
   2  -4  -2 106452. 4592.17   1
  -2   4   1  21427. 1043.02   1
  -2   4   1  20425. 1005.59   1
   2  -4  -1  21492. 1033.80   1
  -2   4   0 6458.09 427.095   1
  -2   4   0 5770.94 418.994   1
   2  -4   0 5497.20 390.223   1
  -2   4  -1  14925. 776.535   1
  -2   4  -1  13380. 708.379   1
   2  -4   1  14832. 768.156   1
   2  -4   1  15073. 776.256   1
  -2   4  -2 155531. 6659.21   1
  -2   4  -2 161871. 6921.78   1
  -2   4  -2 167374.  11486.   1
  -2   4  -2 131005. 8991.61   1
   2  -4   2 159804. 6840.77   1
   2  -4   2 173743.  11911.   1
   2  -4   2 173715.  11908.   1
  -2   4  -3 245642.  10458.   1
  -2   4  -3 224553. 9558.65   1
  -2   4  -3 229553.  15637.   1
   2  -4   3 217681. 9276.53   1
   2  -4   3 238910.  16277.   1
   2  -4   3 245251.  16715.   1
  -2   4  -4 110419. 4784.91   1
  -2   4  -4 112989. 4885.47   1
  -2   4  -4 126369. 8667.59   1
   2  -4   4 112793. 4865.92   1
   2  -4   4 112095. 7684.35   1
   2  -4   4 131089. 8986.02   1
  -2   4  -5 401396.  17008.   1
  -2   4  -5 387988.  16447.   1
  -2   4  -5 388547.  26461.   1
   2  -4   5 402234.  17028.   1
   2  -4   5 397765.  27095.   1
   2  -4   5 419832.  28575.   1
  -2   4  -6 7569.82 527.374   1
  -2   4  -6 7220.66 527.653   1
  -2   4  -6 6555.86 622.066   1
   2  -4   6 7519.55 509.217   1
   2  -4   6 7282.12 665.642   1
   2  -4   6 6837.98 634.916   1
  -2   4  -7  33603. 1601.67   1
  -2   4  -7  32542. 1530.72   1
   2  -4   7  32654. 1536.87   1
  -2   4  -8  38939. 1822.90   1
  -2   4  -8  39302. 1822.90   1
   2  -4   8  39832. 1843.29   1
  -2   4  -9  30726. 1491.06   1
  -2   4  -9  33827. 1638.83   1
  -2   4  -9  23682. 1777.65   1
   2  -4   9  32933. 1574.86   1
  -2   4 -10  13718. 849.440   1
  -2   4 -10  12838. 779.608   1
  -2   4 -10  14690. 1208.38   1
   2  -4  10  12472. 760.055   1
   2  -4  10  16310. 1304.19   1
   2  -4  10  13651. 1144.97   1
  -2   4 -11  18184. 985.194   1
  -2   4 -11  19299. 1064.24   1
  -2   4 -11  23830. 1810.33   1
   2  -4  11  17282. 982.122   1
   2  -4  11  18952. 1508.10   1
   2  -4  11  22693. 1717.88   1
  -2   4 -12 127234. 5541.89   1
  -2   4 -12 117402. 5122.90   1
  -2   4 -12 137681. 9502.78   1
   2  -4  12 127430. 5547.48   1
   2  -4  12 134609. 9270.94   1
   2  -4  12 136173. 9388.26   1
  -2   4 -13  11751. 828.770   1
  -2   4 -13  12106. 814.524   1
  -2   4 -13  14899. 1272.90   1
   2  -4  13  10961. 843.575   1
   2  -4  13  13905. 1189.38   1
   2  -4  13  12419. 1084.92   1
  -2   4 -14  31145. 1579.61   1
  -2   4 -14  32486. 1632.68   1
  -2   4 -14  37346. 2734.63   1
   2  -4  14  31983. 1657.82   1
   2  -4  14  37179. 2725.14   1
   2  -4  14  40978. 2988.82   1
  -2   3  15  52877. 2503.35   1
  -2   3  15  63380. 4472.06   1
  -2   3  15  63687. 4505.58   1
   2  -3 -15  56844. 2649.72   1
   2  -3 -15  55112. 3910.61   1
  -2   3  14 2315.64 575.698   1
  -2   3  14 3446.92 596.368   1
  -2   3  14 3382.68 515.363   1
   2  -3 -14 2057.82 572.346   1
   2  -3 -14 3340.78 558.100   1
  -2   3  13 3701.11 596.927   1
  -2   3  13 3413.40 492.458   1
  -2   3  13 4444.13 643.854   1
   2  -3 -13 3396.64 536.312   1
   2  -3 -13 4030.72 538.826   1
  -2   3  12  10416. 756.982   1
  -2   3  12  11240. 987.988   1
  -2   3  12  13134. 1110.33   1
   2  -3 -12 9924.57 718.714   1
   2  -3 -12  12606. 1048.88   1
  -2   3  11  46369. 2184.08   1
   2  -3 -11  42151. 1954.19   1
   2  -3 -11  47737. 3385.47   1
  -2   3  10  81369. 3656.42   1
   2  -3 -10  78938. 3477.65   1
   2  -3 -10  87598. 6078.21   1
  -2   3   9  28073. 1427.37   1
   2  -3  -9  28212. 1365.08   1
   2  -3  -9  27902. 2057.54   1
  -2   3   8 385754.  16399.   1
   2  -3  -8 408100.  17285.   1
   2  -3  -8 400000.  27260.   1
  -2   3   7  29413. 1455.86   1
  -2   3   7  22813. 1668.99   1
  -2   3   7  28408. 2055.58   1
   2  -3  -7  29804. 1394.69   1
   2  -3  -7  29218. 2119.27   1
  -2   3   6 218352. 9343.57   1
  -2   3   6 196955.  13472.   1
  -2   3   6 188128.  12871.   1
   2  -3  -6 221480. 9427.36   1
   2  -3  -6 203017.  13885.   1
  -2   3   5 215335. 9206.69   1
   2  -3  -5 211815. 9005.58   1
   2  -3  -5 193156.  13198.   1
  -2   3   4 3796.09 385.195   1
   2  -3  -4 3351.95 308.659   1
   2  -3  -4 3120.11 350.558   1
  -2   3   3 6064.24 445.530   1
   2  -3  -3 5960.89 384.636   1
   2  -3  -3 5100.55 409.776   1
   2  -3  -3 5240.22 446.089   1
  -2   3   2  61704. 2713.68   1
  -2   3   2  67262. 2952.51   1
  -2   3   2  67262. 4600.55   1
  -2   3   2  70503. 4832.40   1
   2  -3  -2  62542. 2721.23   1
   2  -3  -2  70810. 4854.74   1
   2  -3  -2  73492. 5030.72   1
  -2   3   1 289944.  12285.   1
  -2   3   1 287709.  12201.   1
   2  -3  -1 292737.  12391.   1
  -2   3   0  83994. 3631.28   1
  -2   3   0  84357. 3650.83   1
   2  -3   0  83715. 3606.14   1
  -2   3  -1 123687. 5298.88   1
  -2   3  -1 119944. 5136.87   1
   2  -3   1 125894. 5377.09   1
   2  -3   1 128408. 5488.82   1
  -2   3  -2 506145.  21380.   1
  -2   3  -2 498882.  21073.   1
  -2   3  -2 524022.  35642.   1
   2  -3   2 507262.  21425.   1
  -2   3  -3 1602.51 254.385   1
  -2   3  -3 1696.93 258.352   1
  -2   3  -3 2417.04 264.218   1
   2  -3   3 1386.87 218.882   1
   2  -3   3 2087.15 256.396   1
   2  -3   3 1654.75 260.530   1
  -2   3  -4 330726.  14017.   1
  -2   3  -4 340502.  14439.   1
  -2   3  -4 358100.  24366.   1
   2  -3   4 352514.  14933.   1
  -2   3  -5  46369. 2088.27   1
  -2   3  -5  50307. 2255.58   1
  -2   3  -5  48687. 3430.16   1
   2  -3   5  45251. 2047.48   1
   2  -3   5  48017. 3368.71   1
   2  -3   5  42598. 3008.38   1
  -2   3  -6 3717.87 396.927   1
  -2   3  -6 3365.92 356.983   1
  -2   3  -6 3128.49 430.446   1
   2  -3   6 3086.59 330.447   1
   2  -3   6 3290.50 445.530   1
   2  -3   6 3620.11 477.094   1
  -2   3  -7 2980.44 348.324   1
  -2   3  -7 3382.68 401.396   1
  -2   3  -7 2333.80 382.122   1
   2  -3   7 3438.54 367.877   1
   2  -3   7 3547.48 484.636   1
   2  -3   7 2490.78 406.703   1
   2  -3   8  55391. 2497.76   1
  -2   3  -9 120642. 5256.98   1
  -2   3  -9  95056. 6611.73   1
   2  -3   9 129357. 5592.17   1
  -2   3 -10  387.71 390.223   1
  -2   3 -10  544.41 398.044   1
   2  -3  10  591.62 398.044   1
   2  -3  10  591.62 406.424   1
   2  -3  10  387.71 363.407   1
  -2   3 -11 251843.  10754.   1
  -2   3 -11 250363.  17137.   1
   2  -3  11 250670.  10696.   1
   2  -3  11 266145.  18196.   1
   2  -3  11 255922.  17500.   1
  -2   3 -12  64749. 2924.58   1
  -2   3 -12  69469. 4879.88   1
   2  -3  12  63408. 2891.06   1
   2  -3  12  71732. 5013.96   1
   2  -3  12  68296. 4790.50   1
  -2   3 -13  45475. 2140.22   1
  -2   3 -13  55670. 3944.13   1
   2  -3  13  45447. 2153.35   1
   2  -3  13  48547. 3460.89   1
   2  -3  13  49888. 3541.90   1
  -2   3 -14  44385. 2085.75   1
  -2   3 -14  47626. 3405.02   1
   2  -3  14  42793. 2055.30   1
   2  -3  14  45140. 3217.87   1
   2  -3  14  47821. 3405.02   1
  -2   2  15 7011.17 715.921   1
  -2   2  15 9240.21 913.966   1
  -2   2  15 8902.23 843.854   1
   2  -2 -15 7268.15 740.502   1
   2  -2 -15 8162.00 808.658   1
  -2   2  14 4935.75 626.536   1
  -2   2  14 7125.69 739.385   1
  -2   2  14 7237.42 738.547   1
   2  -2 -14 6198.32 661.173   1
   2  -2 -14 6578.21 702.793   1
  -2   2  13 6223.46 632.681   1
  -2   2  13 6513.96 688.547   1
  -2   2  13 7413.40 721.787   1
   2  -2 -13 5701.11 547.206   1
   2  -2 -13 6991.61 710.334   1
  -2   2  12  35391. 1736.31   1
  -2   2  12  45335. 3229.05   1
  -2   2  12  40782. 2921.78   1
   2  -2 -12  36760. 1776.81   1
   2  -2 -12  37709. 2718.43   1
  -2   2  11 177821. 7681.56   1
  -2   2  11 159385.  10975.   1
  -2   2  11 183994.  12615.   1
   2  -2 -11 159022. 6857.53   1
   2  -2 -11 186676.  12796.   1
  -2   2  10  284.64 437.709   1
  -2   2  10  812.29 347.486   1
  -2   2  10 -130.20 374.860   1
   2  -2 -10 -153.41 358.380   1
   2  -2 -10  -84.25 305.586   1
  -2   2   9 309776.  13209.   1
   2  -2  -9 296089.  12615.   1
   2  -2  -9 327095.  22332.   1
   2  -2  -8  88492. 3885.47   1
   2  -2  -8  92765. 6441.33   1
  -2   2   7  24966. 1273.46   1
  -2   2   7  19031. 1453.91   1
   2  -2  -7  27427. 1332.68   1
   2  -2  -7  23813. 1776.53   1
  -2   2   6 108994. 4754.19   1
  -2   2   6  95503. 6611.73   1
   2  -2  -6 108910. 4701.11   1
   2  -2  -6 108100. 7466.47   1
  -2   2   5  72402. 3212.29   1
  -2   2   5  71145. 4918.99   1
   2  -2  -5  71788. 3145.25   1
   2  -2  -5  64413. 4500.00   1
  -2   2   4  94832. 4125.69   1
  -2   2   4 100223. 6865.91   1
   2  -2  -4  93631. 4055.86   1
   2  -2  -4  72318. 5011.17   1
  -2   2   3 4768.15 377.095   1
  -2   2   3 3486.03 319.553   1
   2  -2  -3 4131.28 337.150   1
   2  -2  -3 3882.68 346.089   1
   2  -2  -3 3888.26 394.972   1
  -2   2   2 999999.  42151.   1
   2  -2  -2 970669.  65950.   1
  -2   2   1 360335.  15243.   1
  -2   2   1 372625.  15746.   1
   2  -2  -1 354469.  14989.   1
   2  -2  -1 397206.  27045.   1
   2  -2  -1 347765.  23656.   1
  -2   2   0 180531. 7667.59   1
  -2   2   0 188240. 7991.61   1
  -2   2   0 193910.  13226.   1
  -2   2   0 194888.  13293.   1
   2  -2   0 181089. 7695.52   1
   2  -2   0 171173.  11679.   1
   2  -2   0 187123.  12760.   1
  -2   2  -1 625977.  26408.   1
  -2   2  -1 618714.  26095.   1
   2  -2   1 668435.  45475.   1
   2  -2   1 641061.  43603.   1
  -2   2  -2 9555.86 501.117   1
  -2   2  -2  10575. 569.832   1
  -2   2  -2 9360.33 688.547   1
   2  -2   2 9413.40 486.033   1
  -2   2  -3 229190. 9737.42   1
  -2   2  -3 214581. 9106.13   1
  -2   2  -3 217514.  14821.   1
   2  -2   3 223156. 9466.47   1
  -2   2  -4  31899. 1472.34   1
  -2   2  -4  28240. 1298.32   1
  -2   2  -4  27293. 1937.71   1
   2  -2   4  28659. 1313.69   1
  -2   2  -5  67793. 2997.20   1
  -2   2  -5  64357. 4463.68   1
   2  -2   5  65950. 2888.27   1
  -2   2  -6  14883. 813.128   1
  -2   2  -6  13067. 1059.50   1
   2  -2   6  12455. 703.072   1
   2  -2   6  14997. 1174.86   1
   2  -2   6  13285. 1076.54   1
   2  -2   7  37570. 1740.22   1
   2  -2   7  29413. 2156.14   1
   2  -2   7  34721. 2534.63   1
   2  -2   8 217430. 9298.87   1
  -2   2  -9  21369. 1113.13   1
  -2   2  -9  19849. 1526.26   1
   2  -2   9  23156. 1206.70   1
  -2   2 -10 186313. 8005.58   1
  -2   2 -10 153855.  10609.   1
   2  -2  10 182849. 7851.95   1
   2  -2  10 168938.  11620.   1
   2  -2  10 194553.  13349.   1
  -2   2 -11 103212. 4530.72   1
  -2   2 -11 105335. 7310.05   1
   2  -2  11  97207. 4282.12   1
   2  -2  11 107989. 7480.44   1
   2  -2  11  95475. 6634.07   1
  -2   2 -12 9120.10 668.435   1
  -2   2 -12 8972.06 854.748   1
   2  -2  12 7083.79 662.569   1
   2  -2  12 8022.34 781.005   1
   2  -2  12 7622.90 785.753   1
  -2   2 -13  32290. 1606.14   1
  -2   2 -13  30754. 2248.32   1
   2  -2  13  32905. 1637.71   1
   2  -2  13  30084. 2207.26   1
   2  -2  13  36704. 2663.68   1
  -2   2 -14  12645. 853.630   1
  -2   2 -14  15397. 1268.71   1
   2  -2  14  14441. 963.127   1
   2  -2  14  15168. 1228.21   1
   2  -2  14  13277. 1112.57   1
   2  -2  15 9664.79 858.379   1
   2  -2  15  12972. 1087.99   1
   2  -2  15  10964. 967.317   1
  -2   1  15  32961. 1662.29   1
  -2   1  15  33045. 2401.39   1
  -2   1  15  36033. 2615.92   1
   2  -1 -15  32179. 1603.07   1
   2  -1 -15  34022. 2461.45   1
  -2   1  14  32123. 1618.43   1
  -2   1  14  34832. 2529.89   1
  -2   1  14  30978. 2261.17   1
   2  -1 -14  31229. 1531.28   1
   2  -1 -14  31508. 2300.28   1
  -2   1  13  14461. 933.798   1
  -2   1  13  14265. 1157.82   1
  -2   1  13  16534. 1301.12   1
   2  -1 -13  16014. 905.027   1
   2  -1 -13  13601. 1098.88   1
  -2   1  12 218771. 9393.84   1
  -2   1  12 233044.  15936.   1
  -2   1  12 231396.  15816.   1
   2  -1 -12 218603. 9340.77   1
   2  -1 -12 215139.  14729.   1
  -2   1  11  11313. 788.267   1
  -2   1  11  10218. 879.887   1
  -2   1  11  10251. 895.250   1
   2  -1 -11  10257. 714.804   1
   2  -1 -11  10911. 928.770   1
  -2   1  10 173687. 7508.37   1
  -2   1  10 144022. 9905.02   1
   2  -1 -10 167905. 7256.98   1
   2  -1 -10 176815.  12148.   1
   2  -1  -9  92989. 4108.93   1
   2  -1  -9  92402. 6421.78   1
  -2   1   8 3192.73 477.932   1
  -2   1   8 2015.36 365.642   1
   2  -1  -8 1629.61 370.391   1
   2  -1  -8 2765.08 460.893   1
  -2   1   7  16980. 945.809   1
  -2   1   7  14237. 1101.40   1
   2  -1  -7  16902. 919.552   1
   2  -1  -7  17034. 1337.15   1
  -2   1   6  25187. 1274.30   1
  -2   1   6  24288. 1786.03   1
   2  -1  -6  25634. 1276.54   1
   2  -1  -6  23327. 1756.70   1
  -2   1   5 257737.  10997.   1
  -2   1   5 261368.  17838.   1
   2  -1  -5 262178.  11156.   1
   2  -1  -5 253854.  17335.   1
  -2   1   4  67458. 2986.03   1
  -2   1   4  66648. 4617.31   1
   2  -1  -4  69804. 3067.04   1
   2  -1  -4  67877. 4715.08   1
  -2   1   3 874580.  36871.   1
   2  -1  -3 927653.  39106.   1
   2  -1  -3 917318.  62318.   1
  -2   1   2 658100.  27771.   1
   2  -1  -2 771228.  52402.   1
   2  -1  -2 679050.  46117.   1
  -2   1   1  95810. 4097.76   1
   2  -1  -1  91257. 3885.47   1
   2  -1  -1 102207. 6983.23   1
   2  -1  -1  93603. 6393.85   1
  -2   1   0 450558.  19022.   1
   2  -1   0 482681.  32793.   1
   2  -1   0 436033.  29637.   1
  -2   1  -1 173017. 7332.39   1
  -2   1  -1 178631. 7569.82   1
  -2   1  -1 173603.  11821.   1
  -2   1  -1 171732.  11696.   1
   2  -1   1 175977. 7455.30   1
   2  -1   1 186369.  12693.   1
   2  -1   1 167542.  11411.   1
  -2   1  -2 6511.17 359.217   1
  -2   1  -2 6653.62 354.190   1
  -2   1  -2 7290.50 582.681   1
  -2   1  -2 7561.44 580.167   1
   2  -1   2 6955.30 358.380   1
   2  -1   2 7472.06 588.826   1
   2  -1   2 6837.98 544.133   1
  -2   1  -3 3832.40 295.251   1
  -2   1  -3 3787.71 371.229   1
  -2   1  -3 4371.50 391.061   1
   2  -1   3 3248.60 247.402   1
   2  -1   3 4039.10 409.776   1
   2  -1   3 3567.04 348.882   1
  -2   1  -4 310056.  13156.   1
  -2   1  -4 263799.  17983.   1
  -2   1  -4 309497.  21078.   1
   2  -1   4 308380.  13059.   1
   2  -1   4 326815.  22260.   1
   2  -1   4 337988.  23028.   1
  -2   1  -5 372625.  15796.   1
  -2   1  -5 384078.  26142.   1
   2  -1   5 389106.  16478.   1
   2  -1   5 418715.  28492.   1
   2  -1   5 386592.  26344.   1
  -2   1  -6 7966.47 535.754   1
  -2   1  -6 8502.78 734.915   1
   2  -1   6 7999.99 524.860   1
   2  -1   6 6622.90 637.430   1
   2  -1   6 7949.71 718.156   1
  -2   1  -7 227151. 9706.69   1
  -2   1  -7 212849.  14587.   1
   2  -1   7 213324. 9100.55   1
   2  -1   7 212514.  14539.   1
   2  -1   7 199301.  13673.   1
   2  -1   8  80894. 3575.42   1
   2  -1   9  66145. 2969.27   1
  -2   1 -10  67877. 3041.90   1
  -2   1 -10  53017. 3765.36   1
   2  -1  10  65391. 2932.96   1
  -2   1 -11 5801.67 551.955   1
  -2   1 -11 4617.31 566.201   1
   2  -1  11 4522.34 517.039   1
   2  -1  11 5924.57 647.485   1
   2  -1  11 6276.53 668.994   1
  -2   1 -12  406.70 384.916   1
  -2   1 -12  357.54 342.458   1
   2  -1  12 -179.89 399.720   1
   2  -1  12  -46.90 315.363   1
   2  -1  12  224.89 379.609   1
  -2   1 -13  11246. 757.262   1
  -2   1 -13  12416. 1055.59   1
   2  -1  13  11615. 799.999   1
   2  -1  13  12196. 1036.03   1
   2  -1  13 9854.74 870.111   1
  -2   1 -14  53911. 2484.91   1
  -2   1 -14  56341. 3986.03   1
   2  -1  14  53464. 2493.85   1
   2  -1  14  48911. 3458.10   1
   2  -1  14  49525. 3513.96   1
  -2   1 -15  22265. 1204.47   1
  -2   1 -15  27296. 2032.68   1
   2  -1  15  20930. 1216.48   1
   2  -1  15  25419. 1898.88   1
   2  -1  15  22517. 1708.38   1
   2  -1  16  22209. 1746.93   1
   2  -1  16  25257. 1973.74   1
  -2   0  15  61816. 2835.19   1
  -2   0  15  66760. 4659.21   1
  -2   0  15  72430. 5078.21   1
   2   0 -15  68296. 3053.07   1
   2   0 -15  67095. 4687.15   1
  -2   0  14 2245.81 542.458   1
  -2   0  14 2456.42 445.530   1
  -2   0  14 2826.81 537.988   1
   2   0 -14 2605.03 477.932   1
   2   0 -14 2321.51 434.636   1
  -2   0  13 157374. 6810.05   1
  -2   0  13 170084.  11665.   1
  -2   0  13 159720.  10966.   1
   2   0 -13 165307. 7117.31   1
   2   0 -13 153519.  10542.   1
  -2   0  12  63073. 2868.71   1
  -2   0  12  63073. 4413.40   1
   2   0 -12  64581. 2877.09   1
   2   0 -12  63240. 4435.75   1
  -2   0  11  21933. 1191.90   1
  -2   0  11  20556. 1583.24   1
   2   0 -11  22447. 1161.45   1
   2   0 -11  20536. 1575.14   1
  -2   0  10  48631. 2266.48   1
  -2   0  10  37709. 2722.34   1
   2   0 -10  47067. 2184.36   1
   2   0 -10  42011. 3011.17   1
   2   0  -9  32654. 1589.38   1
   2   0  -9  31369. 2299.44   1
  -2   0   8 8611.72 630.167   1
  -2   0   8 6145.25 624.860   1
   2   0  -8 7960.89 592.737   1
   2   0  -8 7122.90 725.977   1
  -2   0   7 5337.98 488.826   1
  -2   0   7 3553.07 451.676   1
   2   0  -7 4505.58 437.430   1
   2   0  -7 4675.97 535.195   1
  -2   0   6  92095. 4050.28   1
  -2   0   6  91760. 6354.74   1
   2   0  -6  92793. 4094.97   1
   2   0  -6  99302. 6882.67   1
  -2   0   5 182039. 7804.46   1
  -2   0   5 215670.  14723.   1
   2   0  -5 186815. 7986.03   1
   2   0  -5 227681.  15570.   1
  -2   0   4 144190. 6203.90   1
  -2   0   4 173771.  11877.   1
  -2   0   3 453631.  19179.   1
  -2   0   3 604189.  41061.   1
   2   0  -3 491061.  20737.   1
   2   0  -3 666200.  45279.   1
   2   0  -3 541061.  36788.   1
  -2   0   2  23246. 1074.30   1
  -2   0   2  29274. 2066.76   1
   2   0  -2  24927. 1139.38   1
   2   0  -2  27184. 1922.34   1
   2   0  -2  28659. 2018.71   1
  -2   0   1 313128.  13240.   1
  -2   0   1 374022.  25439.   1
  -2   0   1 353352.  24033.   1
   2   0  -1 336033.  14196.   1
   2   0  -1 445251.  30279.   1
   2   0  -1 371508.  25249.   1
  -2   0   0 169022. 7307.25   1
  -2   0   0 176257.  12008.   1
  -2   0   0 180139.  12271.   1
   2   0   0 158184. 6851.95   1
   2   0   0 175056.  11930.   1
   2   0   0 176843.  12056.   1
  -2   0  -1  48212. 3326.81   1
  -2   0  -1  47989. 3315.64   1
   2   0   1  47961. 3310.05   1
   2   0   1  47765. 3301.67   1
  -2   0  -2  52737. 2266.76   1
  -2   0  -2  59693. 4122.90   1
  -2   0  -2  60531. 4167.59   1
   2   0   2  50922. 2187.99   1
   2   0   2  57877. 3994.41   1
   2   0   2  56899. 3927.37   1
  -2   0  -3 188268.  12841.   1
  -2   0  -3 211145.  14405.   1
   2   0   3 163212. 6935.75   1
   2   0   3 185503.  12659.   1
   2   0   3 174972.  11936.   1
  -2   0  -5  56425. 2500.84   1
  -2   0  -5  64665. 4497.20   1
  -2   0  -5  62402. 4337.98   1
   2   0   5  60419. 2684.63   1
   2   0   5  67151. 4667.59   1
   2   0   5  79302. 5502.79   1
  -2   0  -6 646927.  27330.   1
  -2   0  -6 722066.  49078.   1
   2   0   6 685195.  28939.   1
   2   0   6 739385.  50251.   1
   2   0   6 780446.  53073.   1
  -2   0  -7 284637.  12109.   1
  -2   0  -7 291620.  19908.   1
   2   0   7 287151.  12201.   1
   2   0   7 277011.  18916.   1
   2   0   7 299441.  20455.   1
  -2   0  -8 2292.18 359.217   1
  -2   0  -8 2038.55 420.670   1
   2   0   8 2014.24 380.726   1
   2   0   8 2339.10 415.083   1
   2   0   8 1439.94 379.050   1
   2   0   9  44916. 2072.90   1
   2   0   9  38408. 2777.65   1
   2   0   9  40587. 2930.16   1
  -2   0 -10  36229. 1721.79   1
  -2   0 -10  27296. 2031.28   1
   2   0  10  37318. 1772.62   1
   2   0  10  34665. 2535.19   1
   2   0  10  29022. 2131.84   1
  -2   0 -11  47011. 2180.44   1
  -2   0 -11  37151. 2691.62   1
   2   0  11  43268. 2026.81   1
  -2   0 -12 3664.80 473.184   1
  -2   0 -12 3103.35 475.698   1
   2   0  12 3162.01 501.955   1
   2   0  12 3064.24 457.821   1
   2   0  12 3525.14 498.324   1
  -2   0 -13  75447. 3357.54   1
  -2   0 -13  75670. 5276.53   1
   2   0  13  77709. 3480.44   1
   2   0  13  75782. 5287.70   1
   2   0  13  76732. 5340.78   1
  -2   0 -14  91816. 4055.86   1
  -2   0 -14  96871. 6723.46   1
   2   0  14  94106. 4156.42   1
   2   0  14  97011. 6729.04   1
   2   0  14  97346. 6751.39   1
  -2   0 -15 3480.44 564.245   1
  -2   0 -15 5368.71 647.765   1
   2   0  15 4729.05 662.290   1
   2   0  15 4368.71 588.547   1
   2   0  15 5335.19 615.921   1
  -2   0 -16  48966. 2280.44   1
  -2   0 -16  62598. 4410.61   1
   2   0  16  55000. 2588.82   1
   2   0  16  56536. 3988.82   1
   2   0  16  51983. 3650.83   1
  -2  -1  15 9620.10 817.038   1
  -2  -1  15 8759.77 813.686   1
  -2  -1  15 9248.59 887.429   1
   2   1 -15 8092.17 686.871   1
   2   1 -15 8324.01 776.256   1
  -2  -1  14  58212. 2698.32   1
  -2  -1  14  61816. 4326.81   1
  -2  -1  14  74972. 5234.63   1
   2   1 -14  60056. 2736.31   1
   2   1 -14  59916. 4206.70   1
  -2  -1  13  77235. 3458.10   1
  -2  -1  13  84888. 5885.47   1
   2   1 -13  78464. 3483.24   1
   2   1 -13  73911. 5148.04   1
  -2  -1  12 5511.17 580.167   1
  -2  -1  12 6860.33 695.530   1
   2   1 -12 6226.25 549.161   1
   2   1 -12 5270.94 574.580   1
  -2  -1  11 5097.76 560.893   1
  -2  -1  11 5251.39 627.374   1
   2   1 -11 5388.26 491.061   1
   2   1 -11 4659.21 551.396   1
   2   1 -10  43603. 1996.37   1
   2   1 -10  39749. 2865.92   1
  -2  -1   9 165195. 7134.07   1
  -2  -1   9 128324. 8868.71   1
   2   1  -9 166480. 7148.04   1
   2   1  -9 157849.  10874.   1
  -2  -1   8  19687. 1045.25   1
  -2  -1   8  17162. 1356.70   1
   2   1  -8  21067. 1072.90   1
   2   1  -8  19877. 1548.88   1
  -2  -1   7 152123. 6564.24   1
  -2  -1   7 164274.  11290.   1
   2   1  -7 162346. 6983.23   1
   2   1  -7 164888.  11335.   1
  -2  -1   6 372067.  15802.   1
  -2  -1   6 392178.  26726.   1
   2   1  -6 396927.  16835.   1
   2   1  -6 439664.  29972.   1
  -2  -1   5  17871. 919.552   1
  -2  -1   5  18760. 1403.07   1
   2   1  -5  18265. 924.021   1
   2   1  -5  21570. 1603.35   1
  -2  -1   4 465363.  19687.   1
  -2  -1   4 499162.  33939.   1
   2   1  -4 488268.  20640.   1
   2   1  -4 595530.  40503.   1
   2   1  -4 481005.  32709.   1
  -2  -1   3  82709. 3586.59   1
  -2  -1   3  74022. 5108.93   1
   2   1  -3  86397. 3740.22   1
   2   1  -3  88408. 6089.38   1
   2   1  -3  79022. 5449.71   1
  -2  -1   2  22721. 1058.10   1
  -2  -1   2  20397. 1466.76   1
  -2  -1   2  20701. 1487.15   1
   2   1  -2  20757. 989.664   1
   2   1  -2  20433. 1476.26   1
   2   1  -2  21458. 1542.74   1
  -2  -1   1  58827. 2536.87   1
  -2  -1   1  59609. 4117.31   1
  -2  -1   1  61089. 4215.08   1
   2   1  -1  56229. 2429.33   1
   2   1  -1  59581. 4117.31   1
   2   1  -1  59665. 4120.11   1
  -2  -1   0  41620. 1802.23   1
  -2  -1   0  37626. 2623.18   1
  -2  -1   0  40531. 2818.43   1
   2   1   0  37626. 1624.30   1
   2   1   0  36397. 1581.84   1
   2   1   0  37402. 2611.45   1
   2   1   0  41620. 2896.65   1
  -2  -1  -1  35279. 1526.53   1
  -2  -1  -1  33939. 2377.37   1
  -2  -1  -1  36257. 2535.75   1
   2   1   1  32765. 1423.46   1
   2   1   1  33939. 1468.15   1
   2   1   1  31173. 2191.62   1
   2   1   1  36899. 2579.05   1
  -2  -1  -2  10358. 499.720   1
  -2  -1  -2  11031. 842.178   1
  -2  -1  -2  12388. 929.049   1
   2   1   2  12263. 586.033   1
   2   1   2  10215. 789.664   1
   2   1   2  11073. 847.206   1
  -2  -1  -3 563128.  23749.   1
  -2  -1  -3 604469.  41061.   1
  -2  -1  -3 571787.  38883.   1
   2   1   3 613966.  25905.   1
   2   1   3 570390.  38771.   1
   2   1   3 562290.  38212.   1
  -2  -1  -4 311173.  13168.   1
  -2  -1  -4 339385.  23112.   1
  -2  -1  -4 314804.  21447.   1
   2   1   4 307542.  13034.   1
   2   1   4 326536.  22240.   1
   2   1   4 320391.  21810.   1
  -2  -1  -5 468994.  19835.   1
  -2  -1  -5 489106.  33268.   1
  -2  -1  -5 525977.  35754.   1
   2   1   5 491899.  20810.   1
   2   1   5 566759.  38547.   1
   2   1   5 570670.  38827.   1
  -2  -1  -6 567876.  24003.   1
  -2  -1  -6 559776.  38073.   1
  -2  -1  -6 589106.  40056.   1
   2   1   6 634357.  26807.   1
   2   1   6 607821.  41341.   1
   2   1   6 719832.  48966.   1
  -2  -1  -7 9986.02 610.335   1
  -2  -1  -7  10763. 866.200   1
  -2  -1  -7  13592. 1079.61   1
   2   1   7  11140. 677.374   1
   2   1   7  11039. 921.228   1
   2   1   7  12863. 1032.12   1
  -2  -1  -8  15115. 834.357   1
  -2  -1  -8  14936. 1183.24   1
   2   1   8  16034. 911.731   1
   2   1   8  15897. 1257.26   1
   2   1   8  17682. 1383.80   1
  -2  -1  -9  26050. 1301.67   1
  -2  -1  -9  23271. 1762.29   1
   2   1   9  29469. 1456.98   1
   2   1   9  25173. 1881.56   1
   2   1   9  27634. 2067.32   1
  -2  -1 -10  82933. 3670.39   1
  -2  -1 -10  69888. 4888.26   1
   2   1  10  87011. 3854.74   1
   2   1  10  77961. 5466.47   1
   2   1  10  69078. 4835.19   1
  -2  -1 -11  68268. 3069.83   1
  -2  -1 -11  61341. 4329.60   1
   2   1  11  65810. 2966.48   1
   2   1  11  65112. 4583.79   1
   2   1  11  57654. 4072.62   1
  -2  -1 -12  72933. 3265.36   1
  -2  -1 -12  66257. 4656.42   1
   2   1  12  71397. 3223.46   1
   2   1  12  65894. 4620.11   1
   2   1  12  64302. 4516.75   1
  -2  -1 -13 260419.  11112.   1
  -2  -1 -13 244441.  16721.   1
   2   1  13 234162.  10031.   1
   2   1  13 222709.  15221.   1
   2   1  13 229022.  15668.   1
  -2  -1 -14 4145.25 541.899   1
  -2  -1 -14 5497.20 627.374   1
   2   1  14 3916.20 548.603   1
   2   1  14 4525.14 570.391   1
   2   1  14 5589.38 617.039   1
  -2  -1 -15  70950. 3184.35   1
  -2  -1 -15  65754. 4617.31   1
   2   1  15  65838. 3000.00   1
   2   1  15  67011. 4689.94   1
   2   1  15  64190. 4511.17   1
  -2  -1 -16  11637. 849.440   1
  -2  -1 -16  13251. 1131.28   1
   2   1  16  10749. 879.049   1
   2   1  16  13162. 1109.50   1
   2   1  16  13824. 1132.40   1
  -2  -2  15  16151. 1024.30   1
  -2  -2  15  16779. 1329.33   1
  -2  -2  15  19084. 1492.46   1
   2   2 -15  16290. 932.401   1
   2   2 -15  16721. 1300.00   1
  -2  -2  14  35056. 1743.85   1
  -2  -2  14  39441. 2832.40   1
  -2  -2  14  32095. 2340.78   1
   2   2 -14  36061. 1703.07   1
   2   2 -14  37067. 2665.64   1
  -2  -2  13 8131.28 676.256   1
  -2  -2  13 8326.81 777.094   1
   2   2 -13 7055.86 574.301   1
   2   2 -13 7421.78 728.770   1
   2   2 -12  14575. 852.513   1
   2   2 -12  13983. 1132.68   1
  -2  -2  11 8499.99 665.642   1
  -2  -2  11 7399.43 751.117   1
   2   2 -11 7835.19 628.491   1
   2   2 -11 8592.17 794.971   1
  -2  -2  10 296648.  12659.   1
  -2  -2  10 252011.  17232.   1
   2   2 -10 303352.  12925.   1
   2   2 -10 232681.  15936.   1
  -2  -2   9 121145. 5279.32   1
  -2  -2   9 111983. 7731.84   1
   2   2  -9 129302. 5606.14   1
   2   2  -9 118799. 8226.25   1
  -2  -2   8 132402. 5740.22   1
  -2  -2   8 128268. 8837.98   1
   2   2  -8 141145. 6092.17   1
   2   2  -8 142681. 9840.77   1
  -2  -2   7 428770.  18179.   1
  -2  -2   7 465642.  31704.   1
   2   2  -7 458100.  19405.   1
   2   2  -7 522346.  35587.   1
  -2  -2   6 9734.63 610.335   1
  -2  -2   6 8955.30 776.256   1
   2   2  -6  10444. 623.742   1
   2   2  -6  11182. 945.250   1
  -2  -2   5 231927. 9902.22   1
  -2  -2   5 225084.  15394.   1
   2   2  -5 231285. 9863.12   1
   2   2  -5 240419.  16416.   1
   2   2  -5 211480.  14450.   1
  -2  -2   4  24598. 1186.03   1
  -2  -2   4  26249. 1906.42   1
   2   2  -4  25064. 1202.79   1
   2   2  -4  27338. 1976.25   1
   2   2  -4  22397. 1629.33   1
  -2  -2   3  92346. 4005.58   1
  -2  -2   3  93408. 6432.95   1
   2   2  -3  87430. 3796.09   1
   2   2  -3  93547. 6432.95   1
   2   2  -3  90112. 6206.70   1
  -2  -2   2 133743. 5717.87   1
  -2  -2   2 129274. 8849.15   1
  -2  -2   2 122542. 8405.02   1
   2   2  -2 131369. 5620.11   1
   2   2  -2 121955. 5220.67   1
   2   2  -2 125475. 8600.55   1
   2   2  -2 123603. 8466.47   1
  -2  -2   1 101397. 4346.36   1
  -2  -2   1 105978. 7268.15   1
  -2  -2   1  92151. 6329.60   1
   2   2  -1 104693. 4497.20   1
   2   2  -1 103128. 4421.78   1
   2   2  -1 100223. 6882.67   1
   2   2  -1 109441. 7499.99   1
  -2  -2   0 294413.  12453.   1
  -2  -2   0 296089.  12517.   1
  -2  -2   0 286313.  19497.   1
  -2  -2   0 286033.  19475.   1
   2   2   0 292458.  12377.   1
   2   2   0 296927.  12570.   1
   2   2   0 305586.  20790.   1
   2   2   0 311732.  21221.   1
  -2  -2  -1  67709. 2921.78   1
  -2  -2  -1  71732. 3094.97   1
  -2  -2  -1  63938. 4413.40   1
  -2  -2  -1  64916. 4480.44   1
   2   2   1  73436. 3167.59   1
   2   2   1  65587. 2840.78   1
   2   2   1  62961. 4349.16   1
   2   2   1  66089. 4558.65   1
  -2  -2  -2 499720.  21081.   1
  -2  -2  -2 466201.  31704.   1
  -2  -2  -2 500558.  34022.   1
   2   2   2 488547.  20617.   1
   2   2   2 480167.  20268.   1
   2   2   2 496089.  33743.   1
   2   2   2 458100.  31145.   1
  -2  -2  -3 157793. 6720.66   1
  -2  -2  -3 145503. 9955.30   1
  -2  -2  -3 141341. 9670.38   1
   2   2   3 138100. 5899.44   1
   2   2   3 149721.  10240.   1
   2   2   3 137039. 9379.88   1
  -2  -2  -4  44525. 1984.36   1
  -2  -2  -4  44218. 3094.97   1
  -2  -2  -4  47402. 3324.02   1
   2   2   4  45614. 2036.59   1
   2   2   4  42626. 2983.24   1
   2   2   4  45782. 3209.49   1
  -2  -2  -5 125754. 5399.44   1
  -2  -2  -5 151089.  10363.   1
  -2  -2  -5 138994. 9527.92   1
   2   2   5 135112. 5804.46   1
   2   2   5 155363.  10648.   1
   2   2   5 117933. 8097.76   1
  -2  -2  -6  61732. 2728.21   1
  -2  -2  -6  64162. 4460.89   1
  -2  -2  -6  68268. 4762.56   1
   2   2   6  57290. 2566.76   1
   2   2   6  75335. 5234.63   1
   2   2   6  63268. 4396.64   1
  -2  -2  -7  84246. 3695.53   1
  -2  -2  -7  78966. 5483.23   1
  -2  -2  -7  88464. 6125.69   1
   2   2   7  83659. 3692.73   1
   2   2   7  86704. 6002.79   1
   2   2   7  94106. 6511.17   1
  -2  -2  -8  23779. 1179.33   1
  -2  -2  -8  23260. 1721.23   1
  -2  -2  -8  25533. 1884.64   1
   2   2   8  23240. 1175.14   1
   2   2   8  27659. 2023.46   1
   2   2   8  26212. 1925.14   1
  -2  -2  -9 189190. 8111.72   1
  -2  -2  -9 185195.  12696.   1
   2   2   9 196843. 8483.23   1
   2   2   9 191732.  13148.   1
   2   2   9 206564.  14142.   1
  -2  -2 -10 134497. 5821.22   1
  -2  -2 -10 130559. 9002.78   1
   2   2  10 144860. 6276.53   1
   2   2  10 130559. 8986.02   1
   2   2  10 149329.  10271.   1
  -2  -2 -11  20584. 1069.83   1
  -2  -2 -11  20944. 1605.86   1
   2   2  11  24235. 1284.91   1
   2   2  11  18123. 1406.42   1
   2   2  11  18243. 1406.70   1
  -2  -2 -12 218408. 9349.15   1
  -2  -2 -12 210866.  14444.   1
   2   2  12 246145.  10534.   1
   2   2  12 232318.  15894.   1
   2   2  12 198128.  13564.   1
  -2  -2 -13  46397. 2152.51   1
  -2  -2 -13  42654. 3058.66   1
   2   2  13  43240. 2063.41   1
   2   2  13  40894. 2910.61   1
   2   2  13  40726. 2905.02   1
  -2  -2 -14  30838. 1533.80   1
  -2  -2 -14  28464. 2102.79   1
   2   2  14  28883. 1464.24   1
   2   2  14  27740. 2040.22   1
   2   2  14  27989. 2058.10   1
  -2  -2 -15  21156. 1165.64   1
  -2  -2 -15  21466. 1639.94   1
   2   2  15  21179. 1210.61   1
   2   2  15  20182. 1565.36   1
   2   2  15  20003. 1523.74   1
  -2  -2 -16 9930.16 822.066   1
  -2  -2 -16  12182. 1054.19   1
   2   2  16 9259.77 828.211   1
   2   2  16  10757. 945.250   1
   2   2  16 9539.10 850.558   1
  -2  -3  15 4583.79 727.932   1
  -2  -3  15 4430.16 631.843   1
  -2  -3  15 4488.82 657.821   1
   2   3 -15 4298.88 555.307   1
   2   3 -15 4581.00 552.513   1
   2   3 -15 4145.25 581.843   1
  -2  -3  14 1584.64 568.156   1
  -2  -3  14 2543.57 539.664   1
   2   3 -14 1970.39 470.111   1
   2   3 -14 2444.97 443.016   1
   2   3 -14 2744.13 462.011   1
  -2  -3  13  14620. 914.804   1
  -2  -3  13  12989. 1103.63   1
   2   3 -13  13182. 856.424   1
   2   3 -13  11737. 974.301   1
   2   3 -13  13877. 1122.62   1
  -2  -3  12  10972. 793.854   1
  -2  -3  12 7986.03 784.915   1
   2   3 -12 9502.78 651.675   1
   2   3 -12  11271. 954.468   1
  -2  -3  11 150419. 6513.96   1
  -2  -3  11 131648. 9081.00   1
   2   3 -11 145307. 6270.94   1
   2   3 -11 133938. 9231.83   1
  -2  -3  10 184078. 7916.19   1
  -2  -3  10 163966.  11257.   1
   2   3 -10 187877. 8083.79   1
   2   3 -10 167234.  11503.   1
  -2  -3   9  21656. 1151.95   1
  -2  -3   9  20008. 1530.72   1
   2   3  -9  22067. 1150.00   1
   2   3  -9  21218. 1625.14   1
   2   3  -9  17514. 1344.41   1
  -2  -3   8 298603.  12721.   1
  -2  -3   8 292178.  19933.   1
   2   3  -8 311452.  13254.   1
  -2  -3   7  52654. 2393.29   1
  -2  -3   7  48352. 3416.20   1
   2   3  -7  54553. 2478.77   1
   2   3  -7  48855. 3441.34   1
   2   3  -7  60894. 4287.71   1
  -2  -3   6  16288. 876.815   1
  -2  -3   6  16413. 1258.66   1
   2   3  -6  19371. 1012.01   1
   2   3  -6  15383. 1186.59   1
   2   3  -6  19187. 1468.15   1
   2   3  -5 4357.54 390.782   1
   2   3  -5 4891.06 495.810   1
   2   3  -5 4782.12 477.653   1
  -2  -3   4 163436. 7002.79   1
  -2  -3   4 171369.  11732.   1
   2   3  -4 184972.  12659.   1
   2   3  -4 158045.  10824.   1
  -2  -3   3 517039.  21852.   1
  -2  -3   3 582402.  39609.   1
   2   3  -3 528770.  22341.   1
   2   3  -3 592737.  25020.   1
   2   3  -3 581843.  39553.   1
   2   3  -3 578212.  39330.   1
  -2  -3   2  38966. 1763.13   1
  -2  -3   2  37067. 2616.20   1
  -2  -3   2  35922. 2528.49   1
   2   3  -2  40000. 1806.42   1
   2   3  -2  38520. 1755.31   1
   2   3  -2  38547. 2705.03   1
   2   3  -2  42989. 3013.96   1
  -2  -3   0 234441. 9952.50   1
  -2  -3   0 250586.  10637.   1
  -2  -3   0 251704.  17156.   1
  -2  -3   0 239692.  16335.   1
   2   3   0 231229. 9815.63   1
   2   3   0 224162. 9519.54   1
   2   3   0 250698.  17084.   1
   2   3   0 237542.  16190.   1
  -2  -3  -1 268659.  11394.   1
  -2  -3  -1 272123.  11536.   1
  -2  -3  -1 275866.  18793.   1
  -2  -3  -1 261648.  17830.   1
   2   3   1 251843.  10679.   1
   2   3   1 264022.  11193.   1
   2   3   1 271927.  18528.   1
   2   3   1 261955.  17846.   1
  -2  -3  -2  98743. 4254.19   1
  -2  -3  -2 107430. 7377.09   1
  -2  -3  -2  99525. 6832.40   1
   2   3   2  93994. 4053.07   1
   2   3   2  98659. 4248.60   1
   2   3   2 104972. 7201.11   1
   2   3   2 104330. 7162.00   1
  -2  -3  -3 6310.05 416.201   1
  -2  -3  -3 5921.78 531.843   1
  -2  -3  -3 6134.07 542.178   1
   2   3   3 5935.75 397.765   1
   2   3   3 5877.09 406.424   1
   2   3   3 6254.18 544.971   1
   2   3   3 6156.42 538.826   1
  -2  -3  -4  184.47 191.564   1
  -2  -3  -4  169.08 213.491   1
  -2  -3  -4  375.14 233.938   1
   2   3   4  471.79 228.268   1
   2   3   4  283.52 213.799   1
   2   3   4  793.02 225.866   1
  -2  -3  -5  38799. 1768.71   1
  -2  -3  -5  40614. 2863.13   1
  -2  -3  -5  40894. 2899.44   1
   2   3   5  41760. 1907.54   1
   2   3   5  43212. 3047.48   1
   2   3   5  40894. 2882.68   1
  -2  -3  -6 164944. 7069.82   1
  -2  -3  -6 177486.  12148.   1
  -2  -3  -6 160894.  11020.   1
   2   3   6 179944. 7715.08   1
   2   3   6 178352.  12207.   1
   2   3   6 160922.  11020.   1
  -2  -3  -7 148855. 6405.02   1
  -2  -3  -7 140950. 9684.35   1
  -2  -3  -7 154274.  10581.   1
   2   3   7 151648. 6527.93   1
   2   3   7 155056.  10637.   1
   2   3   7 152011.  10425.   1
  -2  -3  -8 181117. 7762.56   1
  -2  -3  -8 175419.  12022.   1
  -2  -3  -8 166452.  11416.   1
   2   3   8 183799. 7916.19   1
   2   3   8 172570.  11818.   1
   2   3   8 182849.  12514.   1
  -2  -3  -9 296927.  12623.   1
  -2  -3  -9 308938.  21087.   1
   2   3   9 321787.  13698.   1
   2   3   9 325139.  22190.   1
   2   3   9 317877.  21682.   1
  -2  -3 -10 7921.78 590.781   1
  -2  -3 -10 6782.12 651.955   1
   2   3  10 6863.12 605.307   1
   2   3  10 6810.05 637.430   1
   2   3  10 8463.68 762.848   1
  -2  -3 -11 127207. 5522.34   1
  -2  -3 -11 113296. 7821.22   1
   2   3  11 127402. 5561.45   1
   2   3  11 122877. 8474.85   1
   2   3  11 107933. 7449.71   1
  -2  -3 -12  67151. 2997.20   1
  -2  -3 -12  59106. 4156.42   1
   2   3  12  68017. 3075.42   1
   2   3  12  55726. 3921.78   1
   2   3  12  58464. 4097.76   1
  -2  -3 -13 1447.48 438.547   1
  -2  -3 -13  756.42 364.804   1
   2   3  13  875.42 497.206   1
   2   3  13  648.04 372.067   1
   2   3  13 1122.07 336.312   1
  -2  -3 -14 1822.62 484.916   1
  -2  -3 -14 1917.60 442.458   1
   2   3  14 1598.88 504.189   1
   2   3  14 1565.92 376.257   1
   2   3  14 1645.25 415.642   1
  -2  -3 -15  25293. 1329.89   1
  -2  -3 -15  27148. 2017.32   1
   2   3  15  22757. 1275.98   1
   2   3  15  25293. 1884.08   1
   2   3  15  23950. 1780.17   1
  -2  -3 -16  55056. 2566.48   1
  -2  -3 -16  61313. 4315.64   1
   2   3  16  54218. 2546.65   1
   2   3  16  55419. 3902.23   1
   2   3  16  53408. 3754.19   1
  -2  -4  14  35279. 1742.74   1
  -2  -4  14  33575. 2442.46   1
   2   4 -14  34804. 1684.91   1
   2   4 -14  32765. 2377.37   1
   2   4 -14  36117. 2582.96   1
  -2  -4  13  36899. 1781.28   1
  -2  -4  13  33715. 2452.23   1
   2   4 -13  36844. 1778.21   1
   2   4 -13  33911. 2429.89   1
   2   4 -13  31955. 2329.61   1
  -2  -4  12  39888. 1887.43   1
  -2  -4  12  42039. 3000.00   1
   2   4 -12  42430. 1989.66   1
   2   4 -12  40950. 2924.58   1
   2   4 -12  37486. 2684.08   1
  -2  -4  11 115028. 5019.55   1
  -2  -4  11 116480. 8053.06   1
   2   4 -11 125922. 5441.33   1
   2   4 -11 100335. 6921.78   1
   2   4 -11 105503. 7296.08   1
  -2  -4  10 2789.10 431.284   1
  -2  -4  10 2918.99 477.094   1
   2   4 -10 2679.05 402.234   1
   2   4 -10 2292.46 361.452   1
   2   4 -10 1826.81 415.921   1
  -2  -4   9  32598. 1567.88   1
  -2  -4   9  28352. 2073.74   1
   2   4  -9  33101. 1612.01   1
  -2  -4   8  48966. 2239.10   1
  -2  -4   8  44246. 3145.25   1
   2   4  -8  49078. 2263.41   1
   2   4  -8  52235. 3681.56   1
   2   4  -8  47123. 3357.54   1
  -2  -4   7  21411. 1089.94   1
  -2  -4   7  20296. 1523.18   1
   2   4  -7  23737. 1205.59   1
   2   4  -7  24070. 1811.73   1
   2   4  -7  22226. 1663.69   1
  -2  -4   6 1764.52 306.424   1
  -2  -4   6  589.38 285.754   1
   2   4  -6 1566.20 309.218   1
   2   4  -6 1876.53 360.614   1
   2   4  -6 1582.68 330.447   1
   2   4  -6 1156.42 312.011   1
  -2  -4   5  61145. 2725.42   1
  -2  -4   5  70335. 4888.26   1
   2   4  -5  67849. 3027.93   1
   2   4  -5  66033. 2941.34   1
   2   4  -5  59609. 4170.39   1
   2   4  -5  62458. 4354.74   1
  -2  -4   4 227737. 9709.49   1
  -2  -4   4 229274.  15662.   1
   2   4  -4 229134. 9779.32   1
   2   4  -4 219190. 9354.74   1
   2   4  -4 226424.  15469.   1
   2   4  -4 248240.  16930.   1
  -2  -4   3  10290. 600.837   1
  -2  -4   3 9768.15 800.558   1
   2   4  -3  10559. 618.435   1
   2   4  -3 9818.43 586.592   1
   2   4  -3  10648. 857.820   1
   2   4  -3  10492. 843.854   1
  -2  -4   2 948882.  40000.   1
  -2  -4   2 872625.  59274.   1
  -2  -4   2 978770.  66480.   1
   2   4  -2 934077.  39385.   1
   2   4  -2 889105.  37486.   1
   2   4  -2 915083.  62151.   1
  -2  -4   1 744971.  31425.   1
  -2  -4   1 670111.  28296.   1
  -2  -4   1 685754.  46620.   1
  -2  -4   1 642178.  43659.   1
   2   4  -1 664524.  28045.   1
   2   4  -1 678491.  28631.   1
   2   4  -1 763966.  51899.   1
   2   4  -1 667876.  45391.   1
  -2  -4   0  89022. 3863.12   1
  -2  -4   0  91480. 3963.68   1
   2   4   0  86089. 3740.22   1
   2   4   0  89022. 3857.54   1
   2   4   0  89665. 6170.38   1
   2   4   0  93408. 6418.99   1
  -2  -4  -1 138938. 5949.71   1
  -2  -4  -1 143128. 6134.07   1
  -2  -4  -1 138855. 9505.58   1
  -2  -4  -1 140866. 9636.86   1
   2   4   1 138771. 5944.13   1
   2   4   1 139525. 5983.23   1
   2   4   1 140670. 9625.69   1
   2   4   1 135140. 9243.01   1
  -2  -4  -2  66145. 2902.23   1
  -2  -4  -2  68855. 4759.77   1
  -2  -4  -2  63436. 4393.85   1
   2   4   2  65894. 2885.47   1
   2   4   2  68715. 3013.96   1
   2   4   2  70251. 4857.54   1
   2   4   2  66425. 4586.59   1
  -2  -4  -3  43575. 1965.92   1
  -2  -4  -3  44776. 3131.28   1
  -2  -4  -3  43687. 3061.45   1
   2   4   3  40279. 1815.64   1
   2   4   3  40782. 1853.35   1
   2   4   3  42877. 2994.41   1
   2   4   3  44804. 3136.87   1
  -2  -4  -4 1173.46 242.430   1
  -2  -4  -4  782.96 240.391   1
  -2  -4  -4  783.80 257.709   1
   2   4   4 1140.22 279.888   1
   2   4   4  815.92 231.815   1
   2   4   4 1117.88 251.452   1
   2   4   4  847.76 244.804   1
  -2  -4  -5 194134. 8284.91   1
  -2  -4  -5 197067.  13464.   1
  -2  -4  -5 215949.  14754.   1
   2   4   5 201564. 8634.07   1
   2   4   5 203687.  13916.   1
   2   4   5 215139.  14709.   1
  -2  -4  -6 286592.  12168.   1
  -2  -4  -6 309776.  21109.   1
  -2  -4  -6 303352.  20687.   1
   2   4   6 284078.  12084.   1
   2   4   6 313408.  21374.   1
   2   4   6 293016.  19978.   1
  -2  -4  -7  46425. 2106.70   1
  -2  -4  -7  42430. 3005.58   1
  -2  -4  -7  46425. 3279.33   1
   2   4   7  47737. 2202.23   1
   2   4   7  44525. 3139.66   1
   2   4   7  48128. 3405.02   1
  -2  -4  -8 315921.  13413.   1
  -2  -4  -8 312011.  21279.   1
  -2  -4  -8 315083.  21494.   1
   2   4   8 326257.  13902.   1
   2   4   8 313128.  21349.   1
   2   4   8 346089.  23612.   1
  -2  -4  -9  15425. 853.072   1
  -2  -4  -9  14824. 1168.99   1
  -2  -4  -9  14425. 1136.03   1
   2   4   9  15274. 882.681   1
   2   4   9  13321. 1048.04   1
   2   4   9  14559. 1169.83   1
  -2  -4 -10  19883. 1047.21   1
  -2  -4 -10  19187. 1457.26   1
   2   4  10  18391. 1013.41   1
   2   4  10  19871. 1529.33   1
   2   4  10  18969. 1418.43   1
  -2  -4 -11  13824. 824.301   1
  -2  -4 -11  12642. 1032.96   1
   2   4  11  13894. 861.452   1
   2   4  11  13707. 1113.97   1
   2   4  11  12933. 1032.12   1
  -2  -4 -12  18106. 1005.03   1
  -2  -4 -12  14383. 1158.38   1
   2   4  12  15517. 920.111   1
   2   4  12  13816. 1119.27   1
   2   4  12  14891. 1163.41   1
  -2  -4 -13 2576.53 490.223   1
  -2  -4 -13 3600.55 482.960   1
   2   4  13 3413.40 556.703   1
   2   4  13 3391.06 512.011   1
   2   4  13 2729.89 446.927   1
  -2  -4 -14  10084. 721.787   1
  -2  -4 -14 9648.04 878.491   1
   2   4  14  10159. 811.172   1
   2   4  14 9762.56 856.982   1
   2   4  14 9365.91 819.273   1
  -2  -4 -15  74302. 3349.16   1
  -2  -4 -15  73268. 5117.31   1
   2   4  15  72821. 3290.50   1
   2   4  15  69469. 4837.98   1
   2   4  15  69022. 4804.46   1
  -2  -5  13 3533.52 558.100   1
  -2  -5  13 3949.72 589.106   1
   2   5 -13 3508.38 521.787   1
   2   5 -13 3597.76 540.782   1
   2   5 -13 3656.42 553.631   1
   2   5 -13 3776.53 540.223   1
  -2  -5  12  81899. 3622.90   1
  -2  -5  12  77039. 5368.71   1
   2   5 -12  90363. 4000.00   1
   2   5 -12  84385. 3720.67   1
   2   5 -12  81006. 5625.69   1
   2   5 -12  79749. 5564.24   1
  -2  -5  11  11416. 753.630   1
  -2  -5  11 8673.17 805.586   1
   2   5 -11  10774. 725.977   1
   2   5 -11  11318. 734.077   1
   2   5 -11  11123. 939.105   1
   2   5 -11 9539.10 885.753   1
  -2  -5  10 4072.62 482.681   1
  -2  -5  10 4396.64 556.424   1
   2   5 -10 4382.68 499.441   1
   2   5 -10 3564.24 458.100   1
   2   5 -10 4421.78 477.653   1
   2   5 -10 4522.34 570.949   1
  -2  -5   9 6502.79 540.502   1
  -2  -5   9 6189.94 638.826   1
   2   5  -9 5544.69 513.128   1
   2   5  -9 6829.60 536.871   1
   2   5  -9 7365.91 732.122   1
   2   5  -9 5826.81 542.178   1
  -2  -5   8  56620. 2561.73   1
  -2  -5   8  60503. 4245.81   1
   2   5  -8  62905. 2810.05   1
   2   5  -8  57598. 2603.63   1
   2   5  -8  56760. 4011.17   1
   2   5  -8  56452. 3918.99   1
  -2  -5   7  73380. 3251.39   1
  -2  -5   7  75670. 5265.36   1
   2   5  -7  75531. 3343.57   1
   2   5  -7  76173. 3379.88   1
   2   5  -7  76955. 5318.43   1
   2   5  -7  78743. 5488.82   1
  -2  -5   6 9041.89 594.971   1
  -2  -5   6 8379.88 740.781   1
   2   5  -6 7594.96 563.128   1
   2   5  -6 8131.28 572.346   1
   2   5  -6 8536.30 716.480   1
   2   5  -6 9941.33 863.407   1
  -2  -5   5 223408. 9530.72   1
  -2  -5   5 235223.  16073.   1
   2   5  -5 233659. 9974.85   1
   2   5  -5 231173. 9877.08   1
   2   5  -5 253296.  17277.   1
   2   5  -5 250642.  17112.   1
  -2  -5   4  53687. 2415.92   1
  -2  -5   4  50642. 3550.28   1
   2   5  -4  55028. 2497.20   1
   2   5  -4  52095. 2356.42   1
   2   5  -4  54413. 3787.71   1
   2   5  -4  52598. 3681.56   1
  -2  -5   3 125531. 5427.37   1
  -2  -5   3 129162. 8863.12   1
   2   5  -3 120726. 5223.46   1
   2   5  -3 122235. 5298.88   1
   2   5  -3 137821. 9452.50   1
   2   5  -3 123855. 8480.44   1
  -2  -5   2 285754.  12148.   1
  -2  -5   2 308938.  21045.   1
  -2  -5   2 287151.  19573.   1
   2   5  -2 279609.  11897.   1
   2   5  -2 307542.  13078.   1
   2   5  -2 239637.  16330.   1
   2   5  -2 268352.  18285.   1
  -2  -5   1  15620. 815.362   1
  -2  -5   1  14430. 765.083   1
  -2  -5   1  13913. 1065.92   1
  -2  -5   1  13827. 1055.59   1
   2   5  -1  14344. 780.725   1
   2   5  -1  12874. 719.273   1
   2   5  -1  14439. 1080.17   1
   2   5  -1  17198. 1256.42   1
  -2  -5   0 5108.93 389.385   1
  -2  -5   0 4983.23 388.268   1
  -2  -5   0 3837.98 418.994   1
  -2  -5   0 4723.46 462.849   1
   2   5   0 4589.38 388.547   1
   2   5   0 5072.62 393.296   1
   2   5   0 4396.64 420.111   1
   2   5   0 4835.19 453.351   1
  -2  -5  -1  32542. 1510.05   1
  -2  -5  -1  31536. 1468.71   1
  -2  -5  -1  30168. 2147.76   1
  -2  -5  -1  31816. 2255.86   1
   2   5   1  31480. 1474.86   1
   2   5   1  29749. 1393.02   1
   2   5   1  32095. 2256.98   1
   2   5   1  30726. 2173.18   1
  -2  -5  -2 201620. 8600.55   1
  -2  -5  -2 197653.  13500.   1
  -2  -5  -2 200419.  13682.   1
   2   5   2 197374. 8424.57   1
   2   5   2 200112. 8547.48   1
   2   5   2 220782.  15053.   1
   2   5   2 198771.  13553.   1
  -2  -5  -3  51732. 2318.43   1
  -2  -5  -3  49134. 3430.16   1
  -2  -5  -3  47961. 3349.16   1
   2   5   3  47933. 2155.86   1
   2   5   3  46508. 2111.17   1
   2   5   3  47486. 3301.67   1
   2   5   3  49274. 3427.37   1
  -2  -5  -4 127207. 5480.44   1
  -2  -5  -4 125922. 8642.45   1
  -2  -5  -4 125810. 8634.07   1
   2   5   4 117486. 5078.21   1
   2   5   4 116369. 5050.27   1
   2   5   4 125782. 8611.72   1
   2   5   4 127877. 8756.97   1
  -2  -5  -5 487150.  20609.   1
  -2  -5  -5 483519.  32905.   1
  -2  -5  -5 519832.  35363.   1
   2   5   5 498603.  21089.   1
   2   5   5 520111.  22014.   1
   2   5   5 502234.  34134.   1
   2   5   5 484078.  32933.   1
  -2  -5  -6 8192.73 549.999   1
  -2  -5  -6 8472.06 730.446   1
  -2  -5  -6 8181.56 709.496   1
   2   5   6 8407.81 535.474   1
   2   5   6 9301.67 626.536   1
   2   5   6 8807.25 729.608   1
   2   5   6 8924.57 750.558   1
  -2  -5  -7 305028.  12966.   1
  -2  -5  -7 309497.  21098.   1
  -2  -5  -7 320670.  21869.   1
   2   5   7 333240.  14173.   1
   2   5   7 318435.  21690.   1
   2   5   7 315921.  21528.   1
  -2  -5  -8 108408. 4717.87   1
  -2  -5  -8 116564. 8022.34   1
  -2  -5  -8  98073. 6768.15   1
   2   5   8 115922. 5067.03   1
   2   5   8 106592. 7337.98   1
   2   5   8 111033. 7653.62   1
  -2  -5  -9 1475.14 367.318   1
  -2  -5  -9 1354.47 377.095   1
  -2  -5  -9 1877.65 390.223   1
   2   5   9 1478.21 381.005   1
   2   5   9 2243.29 377.374   1
   2   5   9 1221.79 362.849   1
  -2  -5 -10 1630.17 382.122   1
  -2  -5 -10 1804.19 393.296   1
   2   5  10 2101.11 443.575   1
   2   5  10 2392.46 407.821   1
   2   5  10 1813.41 329.329   1
  -2  -5 -11  18832. 1023.46   1
  -2  -5 -11  15223. 1216.76   1
   2   5  11  17251. 976.815   1
   2   5  11  16109. 1252.23   1
   2   5  11  16324. 1288.27   1
  -2  -5 -12  61257. 2783.52   1
  -2  -5 -12  53631. 3784.91   1
   2   5  12  61006. 2764.24   1
   2   5  12  56397. 3986.03   1
   2   5  12  52793. 3701.11   1
  -2  -5 -13  477.65 422.067   1
  -2  -5 -13   34.86 355.307   1
   2   5  13   10.50 444.413   1
   2   5  13  381.28 362.569   1
   2   5  13  814.24 327.374   1
  -2  -5 -14  68659. 3092.18   1
  -2  -5 -14  70866. 4941.34   1
   2   5  14  72877. 3290.50   1
   2   5  14  63408. 4427.37   1
   2   5  14  68547. 4773.74   1
  -2  -5 -15  38324. 1890.22   1
  -2  -5 -15  36816. 2650.84   1
   2   5  15  40559. 1974.86   1
   2   5  15  36899. 2656.42   1
   2   5  15  37067. 2661.17   1
  -2  -6  12 9639.65 741.340   1
  -2  -6  12  10237. 968.155   1
   2   6 -12 9488.82 688.267   1
   2   6 -12 9930.16 731.563   1
   2   6 -12 9673.17 923.463   1
   2   6 -12 9846.36 881.843   1
  -2  -6  11 3720.67 499.441   1
  -2  -6  11 2693.29 551.396   1
   2   6 -11 3011.17 481.284   1
   2   6 -11 3245.81 479.888   1
   2   6 -11 3553.07 507.821   1
   2   6 -11 3016.76 572.904   1
  -2  -6  10 2588.82 473.463   1
  -2  -6  10 1630.17 473.184   1
   2   6 -10 2418.99 418.994   1
   2   6 -10 2398.32 452.234   1
   2   6 -10 1485.19 355.307   1
   2   6 -10 2442.18 500.837   1
  -2  -6   9  34581. 1665.92   1
  -2  -6   9  35056. 2536.03   1
   2   6  -9  33017. 1606.42   1
   2   6  -9  31508. 1548.04   1
   2   6  -9  34525. 2456.42   1
   2   6  -9  31201. 2306.98   1
  -2  -6   8 172737. 7416.19   1
  -2  -6   8 160391.  11008.   1
   2   6  -8 177458. 7622.90   1
   2   6  -8 176871. 7592.17   1
   2   6  -8 165922.  11408.   1
   2   6  -8 169050.  11561.   1
  -2  -6   7 8921.78 629.608   1
  -2  -6   7 7187.14 692.737   1
   2   6  -7 8416.19 597.765   1
   2   6  -7 7999.99 564.804   1
   2   6  -7 8656.42 806.703   1
   2   6  -7 8310.05 713.128   1
  -2  -6   6 217849. 9312.84   1
  -2  -6   6 220195.  15059.   1
   2   6  -6 216508. 9243.01   1
   2   6  -6 222765. 9527.92   1
   2   6  -6 221592.  15162.   1
   2   6  -6 239553.  16385.   1
  -2  -6   5 106285. 4628.49   1
  -2  -6   5  99804. 6888.26   1
   2   6  -5 106983. 4648.04   1
   2   6  -5 106061. 4625.69   1
   2   6  -5 117067. 8067.03   1
   2   6  -5 104274. 7212.28   1
  -2  -6   4  18670. 971.228   1
  -2  -6   4  21321. 1582.12   1
   2   6  -4  18570. 975.977   1
   2   6  -4  18196. 952.513   1
   2   6  -4  19902. 1478.77   1
   2   6  -4  19452. 1455.86   1
  -2  -6   3  78352. 3441.34   1
  -2  -6   3  79413. 5499.99   1
   2   6  -3  75503. 3343.57   1
   2   6  -3  72821. 3220.67   1
   2   6  -3  77290. 5349.16   1
   2   6  -3  77318. 5363.12   1
  -2  -6   2  37989. 1753.35   1
  -2  -6   2  35810. 2546.09   1
   2   6  -2  36927. 1720.67   1
   2   6  -2  34665. 1644.97   1
   2   6  -2  39413. 2792.18   1
   2   6  -2  37514. 2649.16   1
  -2  -6   1 4935.75 405.586   1
  -2  -6   1 5868.71 439.385   1
  -2  -6   1 4977.65 510.614   1
  -2  -6   1 4980.44 515.921   1
   2   6  -1 5150.83 431.843   1
   2   6  -1 4818.43 428.491   1
   2   6  -1 5215.08 509.776   1
   2   6  -1 4396.64 442.458   1
  -2  -6   0 1595.81 290.502   1
  -2  -6   0 1971.51 324.301   1
  -2  -6   0 1296.93 311.173   1
  -2  -6   0 1247.48 307.262   1
   2   6   0 1695.81 322.625   1
   2   6   0 1718.43 315.921   1
   2   6   0 1993.01 317.318   1
   2   6   0 2233.52 344.413   1
  -2  -6  -1 258519.  10989.   1
  -2  -6  -1 266815.  11358.   1
  -2  -6  -1 271005.  18478.   1
  -2  -6  -1 279050.  19034.   1
   2   6   1 259022.  11036.   1
   2   6   1 261843.  11156.   1
   2   6   1 257961.  17587.   1
   2   6   1 256676.  17506.   1
  -2  -6  -2 300838.  12777.   1
  -2  -6  -2 296089.  20187.   1
  -2  -6  -2 295530.  20142.   1
   2   6   2 277905.  11838.   1
   2   6   2 294413.  12536.   1
   2   6   2 287709.  19612.   1
   2   6   2 298044.  20304.   1
  -2  -6  -3  54078. 2420.95   1
  -2  -6  -3  56983. 3974.86   1
  -2  -6  -3  55140. 3849.16   1
   2   6   3  56927. 2565.08   1
   2   6   3  50810. 2308.38   1
   2   6   3  51927. 3617.31   1
   2   6   3  54888. 3821.23   1
  -2  -6  -4 441899.  18715.   1
  -2  -6  -4 466759.  31760.   1
  -2  -6  -4 445810.  30335.   1
   2   6   4 438547.  18587.   1
   2   6   4 449720.  19064.   1
   2   6   4 442178.  30112.   1
   2   6   4 463966.  31564.   1
  -2  -6  -5  76089. 3343.57   1
  -2  -6  -5  85503. 5918.99   1
  -2  -6  -5  75642. 5240.22   1
   2   6   5  75503. 3340.78   1
   2   6   5  76424. 3377.09   1
   2   6   5  83436. 5770.94   1
   2   6   5  77681. 5368.71   1
  -2  -6  -6 132179. 5703.90   1
  -2  -6  -6 131648. 9044.68   1
  -2  -6  -6 134302. 9217.87   1
   2   6   6 122039. 5293.29   1
   2   6   6 124134. 5388.26   1
   2   6   6 128631. 8826.81   1
   2   6   6 126117. 8645.24   1
  -2  -6  -7  83631. 3689.94   1
  -2  -6  -7  87402. 6055.86   1
  -2  -6  -7  83938. 5807.26   1
   2   6   7  80531. 3555.86   1
   2   6   7  87598. 3865.92   1
   2   6   7  85559. 5913.40   1
   2   6   7  86648. 5991.61   1
  -2  -6  -8  29441. 1448.60   1
  -2  -6  -8  29609. 2156.14   1
  -2  -6  -8  30978. 2241.62   1
   2   6   8  32402. 1581.28   1
   2   6   8  29609. 1448.32   1
   2   6   8  28520. 2060.89   1
   2   6   8  30531. 2213.41   1
  -2  -6  -9  22835. 1177.93   1
  -2  -6  -9  23701. 1746.65   1
  -2  -6  -9  21587. 1618.71   1
   2   6   9  22609. 1191.06   1
   2   6   9  21218. 1116.48   1
   2   6   9  22707. 1673.18   1
   2   6   9  20955. 1546.65   1
  -2  -6 -10  16520. 917.597   1
  -2  -6 -10  17525. 1347.76   1
   2   6  10  16053. 927.932   1
   2   6  10  15894. 1229.05   1
   2   6  10  15799. 1218.16   1
  -2  -6 -11 122262. 5298.88   1
  -2  -6 -11 116369. 8019.54   1
   2   6  11 117514. 5131.28   1
   2   6  11 115978. 7980.44   1
   2   6  11 112709. 7782.11   1
  -2  -6 -12  27799. 1405.03   1
  -2  -6 -12  27265. 2012.29   1
   2   6  12  28464. 1443.02   1
   2   6  12  24603. 1841.90   1
   2   6  12  29385. 2133.52   1
  -2  -6 -13  63631. 2893.85   1
  -2  -6 -13  64497. 4525.14   1
   2   6  13  66313. 2994.41   1
   2   6  13  56397. 3977.65   1
   2   6  13  66927. 4675.97   1
  -2  -6 -14  54218. 2497.76   1
  -2  -6 -14  57933. 4075.41   1
   2   6  14  59721. 2726.81   1
   2   6  14  57011. 4011.17   1
   2   6  14  61313. 4293.29   1
  -2  -7  11  16729. 978.770   1
  -2  -7  11  15542. 1293.02   1
   2   7 -11  16235. 973.742   1
   2   7 -11  16715. 976.815   1
   2   7 -11  16972. 1339.66   1
   2   7 -11  14874. 1268.99   1
  -2  -7  10 5153.63 552.513   1
  -2  -7  10 5564.24 737.709   1
   2   7 -10 4597.76 573.742   1
   2   7 -10 5416.20 565.083   1
   2   7 -10 4430.16 658.938   1
   2   7 -10 5960.89 647.765   1
  -2  -7   9 177542. 7625.69   1
  -2  -7   9 181983.  12472.   1
   2   7  -9 181676. 7807.25   1
   2   7  -9 180167. 7743.01   1
   2   7  -9 159441.  10980.   1
   2   7  -9 191843.  13145.   1
  -2  -7   8  65726. 2949.72   1
  -2  -7   8  59776. 4198.32   1
   2   7  -8  61927. 2763.96   1
   2   7  -8  65391. 2935.75   1
   2   7  -8  71788. 4999.99   1
   2   7  -8  61425. 4349.16   1
  -2  -7   7 127123. 5502.79   1
  -2  -7   7 132570. 9120.10   1
   2   7  -7 121843. 5298.88   1
   2   7  -7 127877. 5547.48   1
   2   7  -7 126732. 8698.31   1
   2   7  -7 129274. 8905.02   1
  -2  -7   6  96033. 4192.73   1
  -2  -7   6 101732. 7016.75   1
   2   7  -6  95698. 4195.53   1
   2   7  -6  95419. 4178.77   1
   2   7  -6  96927. 6706.70   1
   2   7  -6  93464. 6463.68   1
  -2  -7   5 1405.59 331.564   1
  -2  -7   5 1041.90 374.022   1
   2   7  -5 1939.94 382.961   1
   2   7  -5 1223.18 343.575   1
   2   7  -5 1818.15 348.324   1
   2   7  -5 1630.72 398.324   1
  -2  -7   4 1170.39 339.944   1
  -2  -7   4 1375.98 359.776   1
   2   7  -4 1423.46 346.927   1
   2   7  -4 1262.85 326.536   1
   2   7  -4 1488.55 390.223   1
   2   7  -4 2102.51 354.469   1
  -2  -7   3 5567.03 468.994   1
  -2  -7   3 5351.95 552.234   1
   2   7  -3 5393.85 455.865   1
   2   7  -3 4932.96 463.966   1
   2   7  -3 5092.17 523.742   1
   2   7  -3 5762.56 585.754   1
  -2  -7   2  63771. 2840.78   1
  -2  -7   2  60279. 4195.53   1
   2   7  -2  62570. 2782.96   1
   2   7  -2  63436. 2846.37   1
   2   7  -2  56732. 3944.13   1
   2   7  -2  62346. 4337.98   1
  -2  -7   1  32793. 1553.07   1
  -2  -7   1  32039. 1518.99   1
  -2  -7   1  31816. 2277.37   1
  -2  -7   1  35028. 2490.50   1
   2   7  -1  33101. 1577.09   1
   2   7  -1  31397. 1483.80   1
   2   7  -1  31788. 2261.17   1
   2   7  -1  33017. 2341.06   1
  -2  -7   0 150475. 6480.44   1
  -2  -7   0 148743. 6405.02   1
  -2  -7   0 154553.  10584.   1
  -2  -7   0 146396.  10028.   1
   2   7   0 143771. 6201.11   1
   2   7   0 148827. 6405.02   1
   2   7   0 149134.  10212.   1
   2   7   0 154860.  10587.   1
  -2  -7  -1 249776.  10645.   1
  -2  -7  -1 257486.  10964.   1
  -2  -7  -1 255223.  17405.   1
  -2  -7  -1 262821.  17925.   1
   2   7   1 246368.  10508.   1
   2   7   1 246899.  10534.   1
   2   7   1 242514.  16534.   1
   2   7   1 234385.  15997.   1
  -2  -7  -2 7846.36 552.513   1
  -2  -7  -2 7050.27 642.178   1
  -2  -7  -2 8159.21 727.094   1
   2   7   2 7798.87 548.044   1
   2   7   2 7418.99 554.189   1
   2   7   2 6863.12 597.765   1
   2   7   2 8773.73 750.837   1
  -2  -7  -3 151871. 6527.93   1
  -2  -7  -3 151955.  10411.   1
  -2  -7  -3 145195. 9949.71   1
   2   7   3 144134. 6215.08   1
   2   7   3 136257. 5893.85   1
   2   7   3 136564. 9357.53   1
   2   7   3 139776. 9564.24   1
  -2  -7  -4  37849. 1762.29   1
  -2  -7  -4  39888. 2818.43   1
  -2  -7  -4  44022. 3106.14   1
   2   7   4  36927. 1741.34   1
   2   7   4  36871. 1737.43   1
   2   7   4  40922. 2891.06   1
   2   7   4  41648. 2916.20   1
  -2  -7  -5 4944.13 442.737   1
  -2  -7  -5 5664.80 591.340   1
  -2  -7  -5 4659.21 529.608   1
   2   7   5 5893.85 508.379   1
   2   7   5 6555.86 558.100   1
   2   7   5 5564.24 576.536   1
   2   7   5 5089.38 496.648   1
  -2  -7  -6  11374. 694.413   1
  -2  -7  -6  11561. 959.217   1
  -2  -7  -6  10743. 894.412   1
   2   7   6  11209. 730.725   1
   2   7   6 9513.96 649.720   1
   2   7   6  11453. 947.206   1
   2   7   6  10570. 848.602   1
  -2  -7  -7  47263. 2165.36   1
  -2  -7  -7  46425. 3290.50   1
  -2  -7  -7  50670. 3558.66   1
   2   7   7  46480. 2150.00   1
   2   7   7  44162. 2060.89   1
   2   7   7  45559. 3215.08   1
   2   7   7  44776. 3148.04   1
  -2  -7  -8  88799. 3910.61   1
  -2  -7  -8  86480. 5980.44   1
  -2  -7  -8  88128. 6106.14   1
   2   7   8  93017. 4089.38   1
   2   7   8  91257. 4011.17   1
   2   7   8  89944. 6209.49   1
   2   7   8  92011. 6354.74   1
  -2  -7  -9 1562.01 416.201   1
  -2  -7  -9 1801.67 384.357   1
  -2  -7  -9 1051.67 411.173   1
   2   7   9 1771.23 392.458   1
   2   7   9 2290.78 437.709   1
   2   7   9 2090.50 419.832   1
   2   7   9 2469.27 405.307   1
  -2  -7 -10 160475. 6879.88   1
  -2  -7 -10 166173.  11391.   1
   2   7  10 160977. 6924.57   1
   2   7  10 169525. 7298.88   1
   2   7  10 158184.  10874.   1
   2   7  10 165391.  11327.   1
  -2  -7 -11  95922. 4229.05   1
  -2  -7 -11  97011. 6712.28   1
   2   7  11  91117. 4008.38   1
   2   7  11  96899. 4268.15   1
   2   7  11  94385. 6553.07   1
   2   7  11  98687. 6804.46   1
  -2  -7 -12  20888. 1134.08   1
  -2  -7 -12  20885. 1606.14   1
   2   7  12  22022. 1167.32   1
   2   7  12  21793. 1204.75   1
   2   7  12  20168. 1545.53   1
   2   7  12  18408. 1474.58   1
  -2  -7 -13  53966. 2493.29   1
  -2  -7 -13  52793. 3726.25   1
   2   7  13  52737. 2435.75   1
   2   7  13  53659. 2465.08   1
   2   7  13  56704. 3986.03   1
   2   7  13  49302. 3505.58   1
  -2  -8  10  56927. 2584.63   1
  -2  -8  10  51816. 3695.53   1
   2   8 -10  59190. 2677.93   1
   2   8 -10  59385. 2691.62   1
  -2  -8   9  46927. 2161.45   1
  -2  -8   9  48966. 3505.58   1
   2   8  -9  44609. 2075.70   1
   2   8  -9  50000. 2306.42   1
  -2  -8   8  14366. 835.753   1
  -2  -8   8  15207. 1265.08   1
   2   8  -8  15489. 921.228   1
   2   8  -8  15623. 920.949   1
   2   8  -8  15478. 1231.84   1
   2   8  -8  13575. 1224.58   1
  -2  -8   7  40978. 1896.65   1
  -2  -8   7  44525. 3167.59   1
   2   8  -7  41844. 1962.01   1
   2   8  -7  44693. 2080.72   1
   2   8  -7  41927. 3047.48   1
   2   8  -7  45195. 3198.32   1
  -2  -8   6  18989. 1005.03   1
  -2  -8   6  15802. 1271.23   1
   2   8  -6  18925. 1000.56   1
   2   8  -6  18782. 1018.71   1
   2   8  -6  16388. 1326.26   1
   2   8  -6  17952. 1360.05   1
  -2  -8   5  12310. 736.591   1
  -2  -8   5  10570. 923.742   1
   2   8  -5  11690. 717.318   1
   2   8  -5  12531. 788.826   1
   2   8  -5  12036. 1020.39   1
   2   8  -5  12218. 971.787   1
  -2  -8   4  780.73 322.346   1
  -2  -8   4 1323.46 441.899   1
   2   8  -4 1357.26 373.463   1
   2   8  -4 1451.40 370.391   1
   2   8  -4 1517.60 333.240   1
   2   8  -4  938.27 411.173   1
  -2  -8   3  98156. 4279.33   1
  -2  -8   3  99162. 6849.15   1
   2   8  -3  91899. 4027.93   1
   2   8  -3  91676. 4033.52   1
   2   8  -3  95894. 6611.73   1
   2   8  -3 102123. 7047.48   1
  -2  -8   2 180977. 7762.56   1
  -2  -8   2 186620.  12768.   1
   2   8  -2 178715. 7684.35   1
   2   8  -2 174022. 7483.23   1
   2   8  -2 181089.  12397.   1
   2   8  -2 175810.  12028.   1
  -2  -8   1  34804. 1651.40   1
  -2  -8   1  35866. 1688.27   1
  -2  -8   1  37458. 2674.30   1
   2   8  -1  31006. 1495.25   1
   2   8  -1  33212. 1593.29   1
   2   8  -1  34302. 2426.81   1
   2   8  -1  33520. 2395.81   1
  -2  -8   0 271983.  11589.   1
  -2  -8   0 276005.  11760.   1
  -2  -8   0 276368.  18849.   1
  -2  -8   0 317039.  21626.   1
   2   8   0 281564.  11980.   1
   2   8   0 270363.  11525.   1
   2   8   0 270056.  18405.   1
   2   8   0 268771.  18327.   1
  -2  -8  -1  16952. 923.183   1
  -2  -8  -1  19173. 1465.36   1
  -2  -8  -1  18103. 1377.65   1
   2   8   1  17207. 919.831   1
   2   8   1  19103. 1025.42   1
  -2  -8  -2  34358. 1632.12   1
  -2  -8  -2  35028. 2501.11   1
  -2  -8  -2  35140. 2526.25   1
   2   8   2  34609. 1616.76   1
   2   8   2  32849. 1575.42   1
   2   8   2  33603. 2381.84   1
   2   8   2  33771. 2398.04   1
  -2  -8  -3  10327. 660.614   1
  -2  -8  -3 9458.09 844.133   1
  -2  -8  -3 9578.20 829.329   1
   2   8   3 9745.80 619.832   1
   2   8   3  10176. 657.541   1
   2   8   3  10310. 837.709   1
   2   8   3 8756.97 742.178   1
  -2  -8  -4 8958.09 605.027   1
  -2  -8  -4 8706.69 780.167   1
  -2  -8  -4 8734.63 810.614   1
   2   8   4 8550.27 581.005   1
   2   8   4 8449.71 593.295   1
   2   8   4 8617.31 746.647   1
   2   8   4 8930.16 758.658   1
  -2  -8  -5  32179. 1524.58   1
  -2  -8  -5  36061. 2584.63   1
  -2  -8  -5  32709. 2355.86   1
   2   8   5  35056. 1667.04   1
   2   8   5  35782. 1669.27   1
   2   8   5  35503. 2543.01   1
   2   8   5  34190. 2435.75   1
  -2  -8  -6  17355. 919.273   1
  -2  -8  -6  17634. 1367.32   1
  -2  -8  -6  16182. 1270.67   1
   2   8   6  16550. 879.049   1
   2   8   6  14514. 830.446   1
   2   8   6  17235. 1315.08   1
   2   8   6  16363. 1253.91   1
  -2  -8  -7 140782. 6067.03   1
  -2  -8  -7 146704.  10067.   1
  -2  -8  -7 147067.  10103.   1
   2   8   7 143380. 6195.52   1
   2   8   7 139050. 5988.82   1
   2   8   7 148575.  10187.   1
   2   8   7 142123. 9745.80   1
  -2  -8  -8  14804. 881.005   1
  -2  -8  -8  13858. 1130.45   1
  -2  -8  -8  13978. 1154.75   1
   2   8   8  14818. 859.217   1
   2   8   8  14115. 863.686   1
   2   8   8  14606. 1179.89   1
   2   8   8  13637. 1080.73   1
  -2  -8  -9 105698. 4586.59   1
  -2  -8  -9 106285. 7329.60   1
   2   8   9 100140. 6896.64   1
   2   8   9  97821. 6765.36   1
  -2  -8 -10  81899. 3642.45   1
  -2  -8 -10  83659. 5810.05   1
   2   8  10  86229. 3826.81   1
   2   8  10  83017. 3653.63   1
   2   8  10  87989. 6136.86   1
   2   8  10  81620. 5656.42   1
  -2  -8 -11 1327.09 482.681   1
  -2  -8 -11 1125.42 493.016   1
   2   8  11  948.60 480.167   1
   2   8  11  568.99 479.888   1
   2   8  11 1312.85 558.659   1
   2   8  11 1268.99 438.826   1
  -2  -8 -12  16137. 984.357   1
  -2  -8 -12  16539. 1346.37   1
   2   8  12  15969. 967.038   1
   2   8  12  15729. 935.195   1
   2   8  12  13763. 1194.69   1
   2   8  12  15788. 1277.37   1
  -2  -9   8 3312.85 507.541   1
  -2  -9   8 3642.45 707.262   1
   2   9  -8 2938.54 568.994   1
   2   9  -8 3614.52 565.642   1
   2   9  -8 2375.98 537.988   1
   2   9  -8 2849.16 754.468   1
  -2  -9   7  12427. 746.089   1
  -2  -9   7  10802. 1030.17   1
   2   9  -7  11302. 777.094   1
   2   9  -7  12207. 807.820   1
   2   9  -7  12405. 1049.72   1
   2   9  -7  11832. 1208.94   1
  -2  -9   6  37011. 1750.28   1
  -2  -9   6  39888. 2899.44   1
   2   9  -6  38045. 1814.52   1
   2   9  -6  37151. 1800.28   1
   2   9  -6  35838. 2574.02   1
   2   9  -6  38520. 2865.92   1
  -2  -9   5 7558.65 555.586   1
  -2  -9   5 6656.42 791.899   1
   2   9  -5 7203.90 604.748   1
   2   9  -5 6717.87 560.893   1
   2   9  -5 6335.19 642.737   1
   2   9  -5 6664.80 817.876   1
  -2  -9   4  57933. 2604.19   1
  -2  -9   4  55866. 3944.13   1
   2   9  -4  59162. 2673.74   1
   2   9  -4  57737. 2620.95   1
   2   9  -4  55587. 3882.68   1
   2   9  -4  60503. 4276.53   1
  -2  -9   3 155810. 6698.32   1
  -2  -9   3 161899.  11115.   1
   2   9  -3 152290. 6564.24   1
   2   9  -3 151592. 6544.69   1
   2   9  -3 159078.  10930.   1
   2   9  -3 153631.  10525.   1
  -2  -9   2 1226.26 355.586   1
  -2  -9   2  412.29 489.944   1
   2   9  -2  760.89 358.100   1
   2   9  -2 1110.61 368.156   1
   2   9  -2  554.47 335.474   1
   2   9  -2 1026.26 480.726   1
  -2  -9   1 172598.  11835.   1
   2   9  -1 155028. 6681.56   1
   2   9  -1 162179. 6958.09   1
   2   9  -1 154441.  10567.   1
   2   9  -1 186871.  12813.   1
  -2  -9   0  49581. 2273.46   1
  -2  -9   0  53883. 2444.97   1
  -2  -9   0  51704. 3650.83   1
   2   9   0  52905. 2421.79   1
   2   9   0  52654. 2385.75   1
   2   9   0  54665. 3849.16   1
   2   9   0  52654. 3664.80   1
  -2  -9  -1 1163.97 364.804   1
  -2  -9  -1  800.84 500.558   1
  -2  -9  -1  637.43 433.240   1
   2   9   1 1266.76 396.927   1
   2   9   1 1369.27 365.083   1
   2   9   1 1554.47 369.553   1
   2   9   1  415.64 400.838   1
  -2  -9  -2  15640. 874.580   1
  -2  -9  -2  15961. 1267.32   1
  -2  -9  -2  14427. 1186.31   1
   2   9   2  13106. 812.848   1
   2   9   2  15053. 856.424   1
   2   9   2  15844. 1206.98   1
   2   9   2  15821. 1234.08   1
  -2  -9  -3  37542. 1755.86   1
  -2  -9  -3  34078. 2474.58   1
  -2  -9  -3  37039. 2678.49   1
   2   9   3  36341. 1739.38   1
   2   9   3  34944. 1665.08   1
   2   9   3  39553. 2798.88   1
   2   9   3  38520. 2744.41   1
  -2  -9  -4  48212. 2183.52   1
  -2  -9  -4  48156. 3418.99   1
  -2  -9  -4  47682. 3391.06   1
   2   9   4  47402. 2188.82   1
   2   9   4  44022. 2048.60   1
   2   9   4  45894. 3237.43   1
   2   9   4  52318. 3667.59   1
  -2  -9  -5  506.98 351.676   1
  -2  -9  -5  864.52 499.720   1
  -2  -9  -5  849.44 552.234   1
   2   9   5  170.81 374.581   1
   2   9   5   47.93 395.530   1
   2   9   5  370.11 375.698   1
   2   9   5  247.71 374.022   1
  -2  -9  -6 114581. 4986.03   1
  -2  -9  -6 126117. 8695.52   1
  -2  -9  -6 124441. 8581.00   1
   2   9   6 116676. 5053.07   1
   2   9   6 107737. 4706.70   1
   2   9   6 114497. 7893.85   1
   2   9   6 116676. 8041.89   1
  -2  -9  -7  80866. 3572.62   1
   2   9   7  79581. 5536.31   1
   2   9   7  74972. 5203.90   1
  -2  -9  -8  19475. 1060.61   1
  -2  -9  -8  17344. 1423.46   1
  -2  -9  -8  19310. 1542.18   1
   2   9   8  17908. 1016.20   1
   2   9   8  18117. 1023.74   1
   2   9   8  17972. 1397.21   1
   2   9   8  19721. 1568.15   1
  -2  -9  -9  65810. 2932.96   1
  -2  -9  -9  65223. 4583.79   1
   2   9   9  66899. 2983.24   1
   2   9   9  69413. 3103.35   1
   2   9   9  68296. 4815.64   1
   2   9   9  61313. 4298.88   1
  -2  -9 -10  626.54 456.145   1
  -2  -9 -10 1534.64 558.938   1
   2   9  10 1121.79 483.240   1
   2   9  10 1827.37 541.899   1
   2   9  10 1595.81 655.307   1
   2   9  10 1748.32 560.055   1
  -2 -10   5  15536. 901.954   1
  -2 -10   5  12994. 1245.25   1
   2  10  -5  15617. 939.664   1
   2  10  -5  14712. 913.686   1
   2  10  -5  13751. 1174.58   1
   2  10  -5  15992. 1536.59   1
  -2 -10   4  65503. 2927.37   1
  -2 -10   4  70754. 4988.82   1
   2  10  -4  69525. 3103.35   1
   2  10  -4  67570. 3019.55   1
   2  10  -4  66816. 4678.77   1
   2  10  -4  69581. 4972.06   1
  -2 -10   3 9033.51 639.385   1
  -2 -10   3 8648.04 976.256   1
   2  10  -3 8075.41 642.737   1
   2  10  -3 8726.25 673.742   1
  -2 -10   2  31816. 1529.61   1
  -2 -10   2  31955. 2411.17   1
   2  10  -2  28827. 1442.46   1
   2  10  -2  29330. 1460.89   1
   2  10  -2  33771. 2456.14   1
   2  10  -2  33911. 2553.07   1
  -2 -10   1  28939. 1403.35   1
  -2 -10   1  29330. 2219.83   1
   2  10  -1  27989. 1413.13   1
   2  10  -1  30084. 1500.28   1
   2  10  -1  30391. 2222.90   1
   2  10  -1  31089. 2363.96   1
  -2 -10   0 6402.23 546.089   1
  -2 -10   0 4807.26 779.608   1
   2  10   0 7960.89 630.446   1
   2  10   0 7293.29 588.826   1
   2  10   0 6089.38 858.658   1
   2  10   0 6762.56 728.491   1
  -2 -10  -1 3497.20 467.039   1
  -2 -10  -1 3162.01 672.904   1
   2  10   1 3511.17 461.452   1
   2  10   1 3779.33 485.195   1
   2  10   1 3287.71 688.826   1
   2  10   1 2648.60 565.362   1
  -2 -10  -2  20628. 1096.93   1
  -2 -10  -2  23852. 1861.45   1
   2  10   2  23123. 1205.86   1
   2  10   2  22047. 1136.87   1
   2  10   2  20592. 1612.29   1
   2  10   2  22204. 1751.67   1
  -2 -10  -3  77262. 3418.99   1
  -2 -10  -3  90223. 6298.88   1
  -2 -10  -3  83324. 5851.95   1
   2  10   3  73156. 3243.01   1
   2  10   3  77207. 3421.78   1
   2  10   3  92514. 6424.57   1
   2  10   3  84916. 5916.19   1
  -2 -10  -4  12645. 770.949   1
  -2 -10  -4  13899. 1256.70   1
  -2 -10  -4  12978. 1269.27   1
   2  10   4  12349. 812.010   1
   2  10   4  12441. 786.033   1
   2  10   4  13223. 1175.42   1
   2  10   4  11584. 1071.51   1
  -2 -10  -5  62346. 2776.81   1
  -2 -10  -5  62821. 4458.10   1
  -2 -10  -5  73631. 5206.70   1
   2  10   5  57430. 2630.72   1
   2  10   5  62793. 2851.95   1
   2  10   5  63771. 4502.79   1
   2  10   5  65894. 4625.69   1
  -2 -10  -6  73659. 3273.74   1
   2  10   6  76844. 3416.20   1
   2  10   6  69469. 3122.90   1
   2  10   6  79330. 5564.24   1
   2  10   6  74022. 5175.97   1
  -2 -10  -7  737.43 418.156   1
  -2 -10  -7 1130.72 676.536   1
  -2 -10  -7  475.14 774.580   1
   2  10   7 1530.72 486.592   1
   2  10   7  786.03 433.240   1
   2  10   7 -113.27 669.832   1
   2  10   7 1025.14 584.636   1
  -2 -10  -8  18268. 1036.87   1
  -2 -10  -8  20768. 1732.40   1
   2  10   8  17768. 1056.70   1
   2  10   8  18458. 1029.61   1
   2  10   8  19014. 1637.71   1
   2  10   8  18196. 1486.03   1
  -2 -11   0  30000. 2342.74   1
   2  11   0  31089. 1565.08   1
   2  11   0  30810. 1572.62   1
   2  11   0  22081. 1797.48   1
   2  11   0  24338. 2058.66   1
  -2 -11  -1  445.53 448.603   1
  -2 -11  -1  445.25 911.452   1
   2  11   1  813.97 523.184   1
   2  11   1  151.42 489.664   1
   2  11   1  155.89 770.390   1
   2  11   1 -226.62 888.267   1
  -2 -11  -2  83519. 3664.80   1
  -2 -11  -2  80670. 5709.49   1
   2  11   2  80084. 3575.42   1
   2  11   2  77514. 3449.72   1
   2  11   2  65195. 4687.15   1
   2  11   2  68519. 4868.71   1
  -2 -11  -3  36955. 1718.43   1
  -2 -11  -3  30000. 2359.49   1
   2  11   3  35531. 1726.81   1
   2  11   3  36257. 1779.05   1
  -3   9   2  55084. 2552.51   1
  -3   9   2  54693. 2565.64   1
   3  -9  -2  54804. 2513.41   1
  -3   9   1 -647.49 609.217   1
  -3   9   1  668.71 634.078   1
   3  -9  -1   -7.57 528.770   1
  -3   9   0  26341. 1414.24   1
  -3   9   0  26860. 1461.45   1
  -3   9  -1  10243. 872.904   1
  -3   9  -1 9075.41 868.156   1
  -3   8   7  144.30 572.346   1
  -3   8   7  501.68 614.245   1
   3  -8  -7  252.51 507.541   1
  -3   8   6  69385. 3125.69   1
  -3   8   6  67933. 3078.21   1
   3  -8  -6  68212. 3053.07   1
  -3   8   5  52821. 2454.47   1
  -3   8   5  53017. 2466.20   1
   3  -8  -5  51397. 2360.33   1
  -3   8   4  12413. 888.547   1
  -3   8   4  12408. 901.116   1
   3  -8  -4  13402. 853.910   1
  -3   8   3  87821. 3913.40   1
  -3   8   3  90559. 4030.72   1
   3  -8  -3  85363. 3765.36   1
  -3   8   2  14696. 946.368   1
  -3   8   2  14997. 945.530   1
   3  -8  -2  15908. 930.446   1
  -3   8   1 6636.86 683.240   1
  -3   8   1 5927.37 638.268   1
   3  -8  -1 7561.44 641.899   1
  -3   8   0  14763. 935.195   1
  -3   8   0  12978. 874.580   1
   3  -8   0  13802. 827.932   1
  -3   8  -1  31257. 1553.35   1
  -3   8  -1  31648. 1596.37   1
  -3   8  -2  22165. 1214.80   1
  -3   8  -2  22288. 1208.66   1
  -3   8  -3 4938.54 614.245   1
  -3   8  -3 6586.59 665.642   1
  -3   8  -4  88631. 3932.96   1
  -3   8  -4  82095. 3662.01   1
  -3   8  -5  12277. 874.859   1
  -3   8  -5  12950. 907.541   1
   3  -8   5  12528. 831.005   1
  -3   8  -6  32486. 1666.48   1
  -3   8  -6  34134. 1725.14   1
   3  -8   6  34274. 1679.05   1
  -3   7   9  45223. 2159.49   1
  -3   7   9  34190. 2403.63   1
  -3   7   9  34860. 2448.32   1
   3  -7  -9  49302. 2271.23   1
   3  -7  -9  38212. 2714.24   1
   3  -7  -9  47542. 3340.78   1
  -3   7   8  23497. 1269.55   1
  -3   7   8  24553. 1334.08   1
   3  -7  -8  23321. 1250.28   1
  -3   7   7  58212. 2670.11   1
  -3   7   7  56927. 2626.53   1
   3  -7  -7  59776. 2702.51   1
  -3   7   6 140586. 6083.79   1
  -3   7   6 148017. 6410.61   1
   3  -7  -6 144776. 6240.22   1
  -3   7   5  250.28 422.067   1
  -3   7   5  119.89 453.631   1
   3  -7  -5  615.36 405.307   1
  -3   7   4  47933. 2217.32   1
  -3   7   4  46844. 2178.77   1
   3  -7  -4  48631. 2202.51   1
  -3   7   3  22891. 1195.25   1
  -3   7   3  23190. 1210.05   1
   3  -7  -3  21743. 1092.18   1
  -3   7   2 1810.05 439.944   1
  -3   7   2 2299.72 445.810   1
   3  -7  -2 1544.41 382.961   1
  -3   7   1  283.52 383.240   1
  -3   7   1  757.82 411.173   1
   3  -7  -1  613.69 356.145   1
  -3   7   0  59721. 2700.28   1
  -3   7   0  58324. 2634.91   1
   3  -7   0  61844. 2741.06   1
  -3   7  -1 105642. 4617.31   1
  -3   7  -1 102989. 4502.79   1
  -3   7  -2 2621.51 456.703   1
  -3   7  -2 2879.89 462.290   1
  -3   7  -3 144329. 6234.63   1
  -3   7  -3 157933. 6801.67   1
  -3   7  -4  82765. 3667.59   1
  -3   7  -4  79357. 3519.55   1
   3  -7   4  82235. 3617.31   1
  -3   7  -5  14525. 898.044   1
  -3   7  -5  14237. 883.239   1
   3  -7   5  13997. 827.932   1
  -3   7  -6  48603. 2259.77   1
  -3   7  -6  45000. 2115.08   1
   3  -7   6  47290. 2178.49   1
  -3   7  -7 4729.05 625.418   1
  -3   7  -7 4963.68 648.323   1
  -3   7  -7 3877.09 454.189   1
  -3   7  -7 3583.80 422.625   1
   3  -7   7 4941.34 540.782   1
   3  -7   7 4187.15 553.072   1
   3  -7   7 4474.86 578.491   1
  -3   7  -8  965.64 543.296   1
  -3   7  -8  470.67 562.290   1
  -3   7  -8 1569.83 613.966   1
  -3   7  -8  992.46 597.206   1
   3  -7   8  518.16 438.547   1
   3  -7   8  950.00 736.033   1
   3  -7   8  604.47 591.899   1
  -3   7  -9 1254.47 688.826   1
  -3   7  -9  594.69 548.044   1
  -3   7  -9 1056.98 848.602   1
  -3   7  -9  514.52 708.100   1
   3  -7   9  426.82 537.709   1
   3  -7   9  -67.82 807.820   1
   3  -7   9  406.70 826.535   1
  -3   6  11  769.27 636.591   1
  -3   6  11  987.99 590.502   1
  -3   6  11 1027.65 658.938   1
  -3   6  11  343.58 628.212   1
   3  -6 -11  257.21 532.960   1
   3  -6 -11  631.84 506.145   1
   3  -6 -11  881.28 698.044   1
  -3   6  10  74888. 3354.75   1
  -3   6  10  75251. 3402.23   1
  -3   6  10  75391. 5254.18   1
  -3   6  10  75531. 5287.70   1
   3  -6 -10  77681. 3446.92   1
   3  -6 -10  79972. 5583.79   1
   3  -6 -10  69106. 4837.98   1
  -3   6   9  63575. 2902.23   1
  -3   6   9  63184. 2865.92   1
  -3   6   9  67626. 4720.67   1
  -3   6   9  70056. 4877.09   1
   3  -6  -9  62067. 2793.29   1
   3  -6  -9  69553. 4865.92   1
   3  -6  -9  64022. 4500.00   1
  -3   6   8  33603. 1675.42   1
  -3   6   8  32905. 1600.00   1
  -3   6   8  35978. 2546.09   1
  -3   6   8  39804. 2804.47   1
   3  -6  -8  33408. 1613.13   1
   3  -6  -8  38659. 2762.85   1
   3  -6  -8  35810. 2575.70   1
  -3   6   7 154190. 6662.00   1
  -3   6   7 159441. 6885.47   1
  -3   6   7 165391.  11313.   1
  -3   6   7 163240.  11170.   1
   3  -6  -7 155279. 6684.35   1
   3  -6  -7 169413.  11592.   1
   3  -6  -7 181285.  12402.   1
  -3   6   6  14288. 888.826   1
  -3   6   6  16472. 944.971   1
   3  -6  -6  15707. 877.932   1
  -3   6   5  20969. 1110.33   1
  -3   6   5  21824. 1162.29   1
   3  -6  -5  20723. 1045.25   1
  -3   6   4  11036. 721.508   1
  -3   6   4  11749. 767.038   1
   3  -6  -4  10212. 625.139   1
  -3   6   3  13053. 786.312   1
  -3   6   3  12925. 789.943   1
   3  -6  -3  14268. 754.468   1
  -3   6   2  45726. 2098.04   1
  -3   6   2  43156. 2009.22   1
   3  -6  -2  44832. 2015.36   1
  -3   6   1 9265.35 651.117   1
  -3   6   1 7905.02 585.195   1
   3  -6  -1 8044.68 528.770   1
  -3   6   0 297486.  12654.   1
  -3   6   0 292458.  12444.   1
   3  -6   0 296927.  12598.   1
  -3   6  -1  12740. 763.128   1
  -3   6  -1  13131. 775.698   1
   3  -6   1  12388. 686.871   1
  -3   6  -2 164385. 7055.86   1
  -3   6  -2 165586. 7120.10   1
  -3   6  -3  88855. 3902.23   1
  -3   6  -3  93715. 4106.14   1
   3  -6   3  91201. 3977.65   1
  -3   6  -4 2653.35 427.374   1
  -3   6  -4 2863.13 435.474   1
   3  -6   4 2388.27 372.346   1
  -3   6  -5  16508. 916.479   1
  -3   6  -5  17064. 938.546   1
  -3   6  -5  13891. 991.340   1
  -3   6  -5  15039. 1071.51   1
   3  -6   5  15796. 853.351   1
   3  -6   5  14316. 1032.40   1
   3  -6   5  16358. 1176.26   1
  -3   6  -6 7164.80 589.664   1
  -3   6  -6 6843.57 589.943   1
  -3   6  -6 7885.47 658.938   1
  -3   6  -6 9463.68 772.904   1
   3  -6   6 7296.08 550.279   1
   3  -6   6 6983.23 640.502   1
   3  -6   6 8237.42 723.742   1
  -3   6  -7  32849. 1581.00   1
  -3   6  -7  29972. 1497.21   1
  -3   6  -7  35922. 2572.90   1
  -3   6  -7  32011. 2296.65   1
   3  -6   7  29749. 1431.00   1
   3  -6   7  34302. 2474.86   1
   3  -6   7  36425. 2604.47   1
  -3   6  -8 5206.70 619.273   1
  -3   6  -8 4438.54 546.927   1
  -3   6  -8 6276.53 768.714   1
  -3   6  -8 4782.12 586.312   1
   3  -6   8 3949.72 468.156   1
   3  -6   8 4773.74 648.603   1
   3  -6   8 5784.91 674.860   1
  -3   6  -9  80726. 3608.93   1
  -3   6  -9  80670. 3628.49   1
  -3   6  -9  81760. 5740.22   1
  -3   6  -9  67849. 4756.98   1
   3  -6   9  77095. 3430.16   1
   3  -6   9  75531. 5290.50   1
   3  -6   9  74302. 5215.08   1
  -3   6 -10  70587. 3178.77   1
  -3   6 -10  73184. 3318.43   1
  -3   6 -10  73547. 5145.25   1
  -3   6 -10  62933. 4480.44   1
   3  -6  10  69218. 3103.35   1
   3  -6  10  71927. 5064.24   1
   3  -6  10  61871. 4382.68   1
  -3   5  12  13045. 934.357   1
   3  -5 -12  13955. 921.787   1
   3  -5 -12  12494. 1127.93   1
   3  -5 -12  10064. 944.133   1
  -3   5  11  51397. 2417.87   1
   3  -5 -11  52207. 2407.82   1
  -3   5  10 139190. 6072.62   1
  -3   5  10 126424. 8703.90   1
  -3   5  10 122486. 8444.12   1
   3  -5 -10 139804. 6050.27   1
  -3   5   9  859.50 453.351   1
  -3   5   9 1318.71 414.804   1
  -3   5   9  404.19 363.128   1
   3  -5  -9  479.33 419.832   1
   3  -5  -9  295.25 398.603   1
   3  -5  -9  929.61 380.167   1
  -3   5   8  88883. 3941.34   1
  -3   5   8  92374. 6374.29   1
  -3   5   8  88324. 6089.38   1
   3  -5  -8  89357. 3913.40   1
   3  -5  -8  86871. 5997.20   1
   3  -5  -8  90307. 6240.22   1
  -3   5   7  23623. 1226.26   1
  -3   5   7  25961. 1342.18   1
  -3   5   7  25061. 1802.51   1
  -3   5   7  26821. 1911.73   1
   3  -5  -7  25126. 1262.85   1
   3  -5  -7  27366. 1983.80   1
   3  -5  -7  25846. 1859.77   1
  -3   5   6 9650.83 648.323   1
  -3   5   6 8270.94 665.921   1
  -3   5   6 9608.93 751.954   1
  -3   5   6 9608.93 745.809   1
   3  -5  -6 8363.12 575.418   1
   3  -5  -6  10369. 822.066   1
   3  -5  -6 9491.61 774.301   1
  -3   5   5  944.13 405.586   1
  -3   5   5  239.58 368.715   1
  -3   5   5  714.80 146.033   1
  -3   5   5  932.40 174.469   1
   3  -5  -5  652.79 340.502   1
   3  -5  -5 1027.93 220.251   1
   3  -5  -5  907.26 201.173   1
  -3   5   4  52654. 2406.42   1
  -3   5   4  51061. 2326.53   1
   3  -5  -4  49888. 2254.47   1
  -3   5   3 174804. 7508.37   1
  -3   5   3 183799. 7888.26   1
   3  -5  -3 177486. 7597.76   1
  -3   5   2  13930. 795.251   1
  -3   5   2  13397. 781.843   1
   3  -5  -2  14288. 773.184   1
  -3   5   1 293296.  12458.   1
  -3   5   1 293575.  12494.   1
   3  -5  -1 289106.  12277.   1
  -3   5   0  85559. 3756.98   1
  -3   5   0  80028. 3505.58   1
   3  -5   0  82877. 3622.90   1
  -3   5  -1  71369. 3145.25   1
  -3   5  -1  71173. 3153.63   1
   3  -5   1  70419. 3097.76   1
  -3   5  -2  76229. 3357.54   1
  -3   5  -2  73352. 3240.22   1
   3  -5   2  73994. 3248.60   1
  -3   5  -3  31899. 1510.61   1
  -3   5  -3  30531. 1463.13   1
   3  -5   3  30978. 1455.86   1
  -3   5  -4 6209.49 517.039   1
  -3   5  -4 6533.51 522.904   1
  -3   5  -4 5972.06 455.307   1
  -3   5  -4 6136.86 474.581   1
   3  -5   4 5935.75 456.145   1
   3  -5   4 6701.11 529.329   1
   3  -5   4 6189.94 492.737   1
  -3   5  -5 5081.00 477.094   1
  -3   5  -5 5310.05 471.229   1
  -3   5  -5 5572.62 493.296   1
   3  -5   5 5131.28 443.854   1
   3  -5   5 5349.16 513.966   1
   3  -5   5 5078.21 498.603   1
  -3   5  -6  91033. 3986.03   1
  -3   5  -6  97067. 4234.63   1
  -3   5  -6  97067. 6675.97   1
   3  -5   6  88073. 3846.36   1
   3  -5   6  94525. 6508.37   1
   3  -5   6 100363. 6916.19   1
  -3   5  -7  79190. 3497.20   1
  -3   5  -7  75084. 3335.19   1
  -3   5  -7  83827. 5807.26   1
   3  -5   7  77737. 3421.78   1
   3  -5   7  75000. 5201.11   1
   3  -5   7  90000. 6234.63   1
  -3   5  -8  66816. 2980.44   1
  -3   5  -8  63659. 2860.33   1
  -3   5  -8  67570. 4740.22   1
   3  -5   8  64413. 2877.09   1
   3  -5   8  68519. 4798.88   1
   3  -5   8  64693. 4525.14   1
  -3   5  -9 162234. 6999.99   1
  -3   5  -9 161927. 6966.47   1
  -3   5  -9 149134.  10251.   1
   3  -5   9 159385. 6857.53   1
   3  -5   9 142402. 9804.46   1
   3  -5   9 167961.  11539.   1
  -3   5 -10 2770.95 533.519   1
  -3   5 -10 2439.38 574.580   1
  -3   5 -10 2818.43 555.865   1
   3  -5  10 2138.55 525.977   1
   3  -5  10 1980.72 579.329   1
   3  -5  10 2019.55 523.742   1
  -3   5 -11  42067. 2070.95   1
  -3   5 -11  40028. 1920.11   1
   3  -5  11  39665. 1924.02   1
  -3   5 -12  12464. 924.580   1
  -3   5 -12  11131. 829.608   1
  -3   5 -12 9918.98 1059.50   1
   3  -5  12  10626. 852.792   1
  -3   4  13  35447. 1795.53   1
   3  -4 -13  33045. 1671.79   1
   3  -4 -13  40112. 2899.44   1
  -3   4  12  23796. 1336.31   1
   3  -4 -12  25352. 1326.81   1
   3  -4 -12  25478. 1926.81   1
  -3   4  11  97961. 4343.57   1
   3  -4 -11 102123. 4488.82   1
   3  -4 -11 100726. 6977.65   1
  -3   4  10  12749. 868.714   1
  -3   4  10  13709. 1124.02   1
  -3   4  10  12022. 1031.56   1
   3  -4 -10  13036. 837.150   1
   3  -4 -10  12642. 1039.38   1
  -3   4   9  21550. 1211.73   1
  -3   4   9  19344. 1490.78   1
  -3   4   9  21651. 1626.81   1
   3  -4  -9  22782. 1182.68   1
   3  -4  -9  22226. 1688.27   1
  -3   4   8  22807. 1224.58   1
  -3   4   8  25925. 1890.78   1
  -3   4   8  23081. 1701.95   1
   3  -4  -8  24874. 1241.62   1
   3  -4  -8  22391. 1674.02   1
   3  -4  -8  19070. 1416.76   1
  -3   4   7  92318. 4081.00   1
  -3   4   7 104916. 7223.46   1
  -3   4   7  91369. 6310.05   1
   3  -4  -7  93883. 4086.59   1
   3  -4  -7  94944. 6539.10   1
   3  -4  -7  92123. 6363.12   1
  -3   4   6  21497. 1135.75   1
  -3   4   6  18832. 1407.26   1
  -3   4   6  19961. 1442.18   1
   3  -4  -6  19458. 977.932   1
   3  -4  -6  19064. 1425.42   1
   3  -4  -6  18757. 1369.27   1
  -3   4   5 168212. 7245.80   1
  -3   4   5 174078. 7483.23   1
  -3   4   5 171843.  11718.   1
  -3   4   5 166592.  11380.   1
   3  -4  -5 166424. 7103.34   1
   3  -4  -5 168017.  11475.   1
   3  -4  -5 175642.  12003.   1
  -3   4   4 373463.  15846.   1
  -3   4   4 360056.  15288.   1
  -3   4   4 378491.  25788.   1
  -3   4   4 365642.  24899.   1
   3  -4  -4 363966.  15405.   1
   3  -4  -4 386312.  26330.   1
   3  -4  -4 399441.  27201.   1
  -3   4   3  75251. 3315.64   1
  -3   4   3  74274. 3268.15   1
   3  -4  -3  73492. 3192.73   1
  -3   4   2 199274. 8513.96   1
  -3   4   2 202933. 8662.00   1
   3  -4  -2 197514. 8393.85   1
  -3   4   1 174497. 7449.71   1
  -3   4   1 168855. 7215.08   1
   3  -4  -1 170866. 7273.74   1
  -3   4   0 1291.62 250.754   1
  -3   4   0 1401.95 274.218   1
   3  -4   0 1419.83 225.056   1
  -3   4  -1  27232. 1274.86   1
  -3   4  -1  25480. 1204.47   1
   3  -4   1  27989. 1280.72   1
  -3   4  -2  35810. 1640.50   1
  -3   4  -2  37682. 1712.57   1
   3  -4   2  35950. 1624.02   1
  -3   4  -3  77877. 3410.61   1
  -3   4  -3  77933. 3405.02   1
  -3   4  -3  71369. 4885.47   1
   3  -4   3  74441. 3237.43   1
   3  -4   3  84050. 5754.18   1
   3  -4   3  77542. 5324.02   1
  -3   4  -4  15115. 816.759   1
  -3   4  -4  16947. 869.552   1
  -3   4  -4  17642. 1267.60   1
   3  -4   4  16112. 826.256   1
   3  -4   4  17115. 1241.62   1
   3  -4   4  17933. 1309.50   1
  -3   4  -5 143072. 6167.59   1
  -3   4  -5 143715. 6173.18   1
  -3   4  -5 151704.  10388.   1
   3  -4   5 140084. 6025.13   1
   3  -4   5 137877. 9455.30   1
   3  -4   5 138687. 9486.02   1
  -3   4  -6 163910. 7027.93   1
  -3   4  -6 161033. 6930.16   1
  -3   4  -6 171620.  11737.   1
   3  -4   6 163659. 7013.96   1
   3  -4   6 160335.  11003.   1
   3  -4   6 173547.  11871.   1
  -3   4  -7 2047.20 408.659   1
  -3   4  -7 3036.31 389.944   1
  -3   4  -7 3002.79 435.195   1
   3  -4   7 3067.04 390.223   1
   3  -4   7 2294.41 414.525   1
   3  -4   7 2123.74 377.095   1
  -3   4  -8 119637. 5203.90   1
  -3   4  -8 122151. 5287.70   1
  -3   4  -8 108240. 7472.06   1
   3  -4   8 118799. 5134.07   1
   3  -4   8 109246. 7541.89   1
   3  -4   8 119721. 8265.35   1
  -3   4  -9  25536. 1284.36   1
  -3   4  -9  26665. 1335.75   1
  -3   4  -9  20830. 1593.29   1
   3  -4   9  26394. 1298.60   1
  -3   4 -10 4851.95 523.463   1
  -3   4 -10 5162.01 552.513   1
  -3   4 -10 3243.01 505.307   1
   3  -4  10 6396.64 590.502   1
   3  -4  10 4497.20 617.318   1
   3  -4  10 3340.78 530.167   1
  -3   4 -11  11883. 827.932   1
  -3   4 -11  12573. 811.731   1
   3  -4  11  11137. 813.407   1
  -3   4 -12  20285. 1152.79   1
  -3   4 -12  21511. 1201.67   1
  -3   4 -12  16612. 1377.65   1
   3  -4  12  20380. 1179.33   1
  -3   4 -13  15447. 956.982   1
  -3   4 -13  17020. 1055.86   1
  -3   4 -13  15187. 1304.47   1
   3  -4  13  16137. 1041.90   1
  -3   3  14  57011. 2674.30   1
  -3   3  14  60391. 4304.46   1
  -3   3  14  68184. 4784.91   1
   3  -3 -14  62737. 2874.30   1
   3  -3 -14  57402. 4047.48   1
  -3   3  13 1155.86 541.340   1
  -3   3  13  477.09 534.357   1
  -3   3  13  566.76 482.681   1
   3  -3 -13  318.44 543.854   1
   3  -3 -13  384.08 500.837   1
  -3   3  12  69637. 3184.35   1
   3  -3 -12  63603. 2882.68   1
   3  -3 -12  68492. 4796.08   1
  -3   3  11  22184. 1214.52   1
   3  -3 -11  21344. 1130.45   1
   3  -3 -11  24626. 1846.09   1
  -3   3  10  413.13 489.106   1
  -3   3  10  678.77 439.664   1
  -3   3  10  373.46 398.324   1
   3  -3 -10 1445.25 390.502   1
   3  -3 -10  889.11 392.178   1
  -3   3   9 1147.76 472.346   1
  -3   3   9 1780.17 423.743   1
  -3   3   9 1306.14 393.016   1
   3  -3  -9 1387.99 362.011   1
   3  -3  -9 1884.91 415.921   1
  -3   3   8  26039. 1353.07   1
  -3   3   8  28352. 2059.22   1
  -3   3   8  28939. 2114.80   1
   3  -3  -8  25338. 1250.28   1
   3  -3  -8  28408. 2088.82   1
  -3   3   7 173715. 7480.44   1
   3  -3  -7 186173. 7958.09   1
   3  -3  -7 172877.  11849.   1
   3  -3  -7 154162.  10561.   1
  -3   3   6  22533. 1168.43   1
  -3   3   6  24458. 1785.19   1
   3  -3  -6  24011. 1162.01   1
   3  -3  -6  19204. 1449.16   1
   3  -3  -6  20631. 1500.00   1
  -3   3   5 477932.  20251.   1
  -3   3   5 503631.  34246.   1
   3  -3  -5 501955.  21215.   1
  -3   3   4 102207. 4452.51   1
  -3   3   4 102877. 7039.10   1
   3  -3  -4  96508. 4178.77   1
  -3   3   3  97318. 4226.25   1
  -3   3   3  94441. 4100.55   1
  -3   3   3  93659. 6393.85   1
   3  -3  -3  96648. 4167.59   1
  -3   3   2 171117. 7298.88   1
  -3   3   2 167681. 7167.59   1
  -3   3   2 178072.  12145.   1
   3  -3  -2 175419. 7460.89   1
  -3   3   1  18472. 907.262   1
  -3   3   1  18008. 885.753   1
  -3   3   1  19413. 1353.91   1
   3  -3  -1  19913. 947.764   1
  -3   3   0   28.85 206.732   1
  -3   3   0  154.13 196.033   1
   3  -3   0  340.22 186.257   1
  -3   3  -1  27933. 1280.72   1
  -3   3  -1  26939. 1244.97   1
  -3   3  -1  27145. 1874.02   1
   3  -3   1  27497. 1253.07   1
  -3   3  -2 229190. 9731.83   1
  -3   3  -2 242095.  10285.   1
  -3   3  -2 233687.  15913.   1
   3  -3   2 237933.  10078.   1
  -3   3  -3 154888. 6611.73   1
  -3   3  -3 153352. 6553.07   1
  -3   3  -3 160251.  10927.   1
   3  -3   3 155447. 6620.10   1
  -3   3  -4 115531. 4969.27   1
  -3   3  -4 121592. 5217.87   1
  -3   3  -4 126564. 8664.80   1
   3  -3   4 116760. 5008.37   1
  -3   3  -5 396089.  16754.   1
  -3   3  -5 391620.  16581.   1
  -3   3  -5 416759.  28352.   1
   3  -3   5 410055.  17341.   1
   3  -3   5 387988.  26439.   1
   3  -3   5 317597.  21634.   1
  -3   3  -6  21075. 1062.57   1
  -3   3  -6  20936. 1032.12   1
  -3   3  -6  21282. 1555.86   1
   3  -3   6  23251. 1131.28   1
   3  -3   6  21550. 1573.74   1
   3  -3   6  19394. 1474.02   1
  -3   3  -7  46229. 2099.44   1
  -3   3  -7  44916. 2075.14   1
  -3   3  -7  43603. 3092.18   1
   3  -3   7  44721. 2033.24   1
   3  -3   7  43352. 3058.66   1
   3  -3   7  44302. 3170.39   1
  -3   3  -8  42821. 1965.36   1
  -3   3  -8  37598. 1770.67   1
  -3   3  -8  38408. 2748.88   1
   3  -3   8  42849. 1951.12   1
   3  -3   8  40670. 2905.02   1
   3  -3   8  36536. 2621.51   1
  -3   3  -9 4318.43 430.446   1
  -3   3  -9 4438.54 500.279   1
  -3   3  -9 3938.54 501.955   1
   3  -3   9 4368.71 443.854   1
   3  -3   9 3349.16 474.022   1
   3  -3   9 3692.73 541.620   1
  -3   3 -10 2526.53 394.134   1
  -3   3 -10 2564.80 479.888   1
  -3   3 -10 1602.79 420.949   1
   3  -3  10 2774.86 421.229   1
   3  -3  11  21824. 1155.59   1
  -3   3 -12 101871. 4463.68   1
  -3   3 -12  75251. 5276.53   1
   3  -3  12 100167. 4396.64   1
  -3   3 -13 3413.40 594.413   1
  -3   3 -13 4000.00 672.066   1
   3  -3  13 3148.04 606.983   1
   3  -3  13 4712.29 669.552   1
   3  -3  13 3058.66 552.793   1
  -3   3 -14  69804. 3153.63   1
  -3   3 -14  65894. 4645.25   1
   3  -3  14  60140. 2801.67   1
   3  -3  14  62263. 4385.47   1
   3  -3  14  58184. 4120.11   1
  -3   2  14 2955.30 643.854   1
  -3   2  14 3449.72 636.591   1
  -3   2  14 3167.59 561.731   1
   3  -2 -14 2592.46 595.530   1
   3  -2 -14 3346.36 522.346   1
  -3   2  13  12184. 867.876   1
  -3   2  13  12899. 1167.32   1
  -3   2  13  15120. 1255.03   1
   3  -2 -13  12103. 853.351   1
   3  -2 -13  14757. 1213.41   1
  -3   2  12  31899. 1610.33   1
   3  -2 -12  28240. 1432.96   1
   3  -2 -12  32039. 2331.00   1
  -3   2  11  23151. 1263.69   1
   3  -2 -11  19196. 1055.59   1
   3  -2 -11  22313. 1685.47   1
   3  -2 -10  24556. 1276.26   1
   3  -2 -10  25939. 1920.11   1
  -3   2   9 3662.01 559.776   1
  -3   2   9 2969.27 494.413   1
   3  -2  -9 4279.33 491.061   1
   3  -2  -9 4977.65 589.385   1
  -3   2   8 243799.  10444.   1
  -3   2   8 256061.  17492.   1
   3  -2  -8 241676.  10327.   1
   3  -2  -8 242402.  16584.   1
  -3   2   7  75056. 3365.92   1
  -3   2   7  84497. 5846.36   1
   3  -2  -7  77877. 3438.54   1
   3  -2  -7  66285. 4628.49   1
   3  -2  -7  68938. 4815.64   1
  -3   2   6 227290. 9731.83   1
  -3   2   6 266117.  18137.   1
   3  -2  -6 234692.  10011.   1
  -3   2   5 196843. 8427.37   1
  -3   2   5 200698.  13693.   1
   3  -2  -5 206368. 8821.22   1
  -3   2   4 1257.26 305.028   1
  -3   2   4 1268.43 256.396   1
   3  -2  -4  962.01 246.424   1
   3  -2  -4 1096.65 262.877   1
   3  -2  -4 1432.12 259.972   1
  -3   2   3  77542. 3388.26   1
  -3   2   3  77514. 5329.60   1
   3  -2  -3  84190. 3653.63   1
   3  -2  -3  76341. 5265.36   1
   3  -2  -3  75894. 5215.08   1
  -3   2   2  54134. 2395.53   1
  -3   2   2  49832. 2189.66   1
  -3   2   2  52290. 3597.76   1
   3  -2  -2  51927. 2274.58   1
   3  -2  -2  53212. 3678.77   1
   3  -2  -2  51899. 3575.42   1
  -3   2   1  76564. 3301.67   1
  -3   2   1  81564. 3519.55   1
  -3   2   1  78045. 5340.78   1
   3  -2  -1  78380. 3365.92   1
   3  -2  -1  74246. 5083.79   1
   3  -2  -1  78492. 5385.47   1
  -3   2   0  58492. 2534.63   1
  -3   2   0  56564. 2453.91   1
  -3   2   0  60140. 4125.69   1
  -3   2   0  53966. 3701.11   1
   3  -2   0  57682. 2491.34   1
   3  -2   0  53827. 3698.32   1
   3  -2   0  57542. 3952.51   1
  -3   2  -1 329050.  13927.   1
  -3   2  -1 324022.  13709.   1
  -3   2  -1 342458.  23310.   1
  -3   2  -1 337430.  22950.   1
   3  -2   1 334637.  22765.   1
   3  -2   1 297206.  20232.   1
  -3   2  -2 523463.  22109.   1
  -3   2  -2 527932.  22310.   1
  -3   2  -2 499720.  33966.   1
  -3   2  -2 491340.  33408.   1
   3  -2   2 543296.  22941.   1
   3  -2   2 499999.  33994.   1
   3  -2   2 541620.  36844.   1
  -3   2  -3  43128. 1911.45   1
  -3   2  -3  44525. 1953.91   1
  -3   2  -3  40698. 2846.37   1
  -3   2  -3  43911. 3036.31   1
   3  -2   3  44246. 1933.24   1
  -3   2  -4 654748.  27626.   1
  -3   2  -4 666480.  28156.   1
  -3   2  -4 674301.  45810.   1
   3  -2   4 657541.  27740.   1
   3  -2   4 656983.  44665.   1
   3  -2   4 657821.  44721.   1
  -3   2  -5  48771. 2155.30   1
  -3   2  -5  44888. 2024.86   1
  -3   2  -5  52849. 3681.56   1
   3  -2   5  46229. 2049.16   1
   3  -2   5  50587. 3525.14   1
   3  -2   5  41732. 2958.10   1
  -3   2  -6  42821. 1959.77   1
  -3   2  -6  44776. 1999.16   1
  -3   2  -6  46229. 3245.81   1
   3  -2   6  41788. 1878.49   1
   3  -2   6  43687. 3078.21   1
   3  -2   6  35614. 2570.39   1
  -3   2  -7  24385. 1214.52   1
  -3   2  -7  23589. 1746.09   1
   3  -2   7  26405. 1267.32   1
   3  -2   7  23302. 1757.82   1
   3  -2   7  24525. 1794.97   1
  -3   2  -8  29385. 1431.84   1
  -3   2  -8  29804. 2161.17   1
   3  -2   8  31006. 1473.46   1
   3  -2   8  30028. 2213.41   1
   3  -2   8  26871. 1968.15   1
  -3   2  -9  30391. 1472.34   1
  -3   2  -9  28799. 2116.48   1
   3  -2   9  30642. 1486.59   1
  -3   2 -10 3572.62 482.960   1
  -3   2 -10 1365.92 388.826   1
   3  -2  10 2874.30 481.564   1
   3  -2  10 1419.83 383.798   1
   3  -2  10 2599.44 514.804   1
   3  -2  11 196955. 8460.88   1
  -3   2 -12  52402. 2424.02   1
  -3   2 -12  40866. 2958.10   1
   3  -2  12  55223. 2531.84   1
  -3   2 -13  57123. 2620.95   1
  -3   2 -13  47263. 3379.88   1
   3  -2  13  52933. 2473.74   1
  -3   2 -14  58966. 2706.70   1
  -3   2 -14  66732. 4695.53   1
   3  -2  14  55195. 2577.09   1
   3  -2  14  62654. 4407.82   1
   3  -2  14  53380. 3779.33   1
  -3   2 -15 1020.67 660.614   1
   3  -2  15  638.55 484.636   1
   3  -2  15  330.17 484.357   1
  -3   1  15  10698. 1090.78   1
  -3   1  14 2097.20 581.564   1
  -3   1  14 2625.70 551.396   1
  -3   1  14 1657.26 513.966   1
   3  -1 -14 1820.39 548.044   1
   3  -1 -14 3005.58 529.329   1
  -3   1  13 2846.37 555.027   1
  -3   1  13 4047.48 547.765   1
  -3   1  13 3569.83 572.346   1
   3  -1 -13 3675.97 571.508   1
   3  -1 -13 3851.95 518.715   1
  -3   1  12  71117. 3209.49   1
  -3   1  12  54497. 3868.71   1
   3  -1 -12  66871. 3008.38   1
   3  -1 -12  67681. 4734.63   1
   3  -1 -11  96369. 4256.98   1
   3  -1 -11  94469. 6553.07   1
  -3   1  10  743.85 450.558   1
  -3   1  10  877.93 412.569   1
   3  -1 -10  791.62 427.653   1
   3  -1 -10  285.75 330.447   1
  -3   1   9 310056.  13232.   1
  -3   1   9 251145.  17204.   1
   3  -1  -9 290782.  12391.   1
   3  -1  -9 279609.  19120.   1
  -3   1   8  82542. 3689.94   1
  -3   1   8  83073. 5804.46   1
   3  -1  -8  83938. 3729.05   1
   3  -1  -8  72737. 5094.97   1
  -3   1   7  96229. 4287.71   1
  -3   1   7  96732. 6715.08   1
   3  -1  -7  86117. 3810.05   1
   3  -1  -7  73855. 5122.90   1
   3  -1  -7  77095. 5371.50   1
  -3   1   6 142151. 6164.80   1
  -3   1   6 153128.  10500.   1
   3  -1  -6 143212. 6173.18   1
   3  -1  -6 151313.  10369.   1
   3  -1  -6 140419. 9659.21   1
  -3   1   5  14358. 819.552   1
  -3   1   5  19684. 1477.93   1
   3  -1  -5  15000. 811.731   1
   3  -1  -5  16327. 1218.16   1
   3  -1  -5  16944. 1287.99   1
  -3   1   4   79.89 286.313   1
  -3   1   4  260.67 203.910   1
   3  -1  -4  347.21 216.257   1
   3  -1  -4  267.54 220.195   1
   3  -1  -4  197.35 222.095   1
  -3   1   3  12480. 696.089   1
  -3   1   3  12223. 913.686   1
   3  -1  -3  13070. 655.586   1
   3  -1  -3  13698. 1030.45   1
   3  -1  -3  11483. 870.390   1
  -3   1   2 351396.  14885.   1
  -3   1   2 348603.  23693.   1
   3  -1  -2 408938.  17260.   1
   3  -1  -2 376257.  25603.   1
   3  -1  -2 405586.  27573.   1
  -3   1   1 215558. 9150.83   1
  -3   1   1 235670.  16034.   1
  -3   1   1 254050.  17296.   1
   3  -1  -1 258519.  10941.   1
   3  -1  -1 225530.  15358.   1
   3  -1  -1 246732.  16799.   1
  -3   1   0 223659. 9505.58   1
  -3   1   0 211396. 8994.40   1
  -3   1   0 213044.  14497.   1
  -3   1   0 196033.  13358.   1
   3  -1   0 217681. 9245.80   1
   3  -1   0 208212.  14184.   1
   3  -1   0 217318.  14802.   1
  -3   1  -1 626815.  42570.   1
  -3   1  -1 647206.  43966.   1
   3  -1   1 644971.  43827.   1
   3  -1   1 611173.  41508.   1
  -3   1  -2 4508.38 249.469   1
  -3   1  -2 4324.02 263.994   1
  -3   1  -2 4636.87 405.307   1
  -3   1  -2 4994.41 420.391   1
   3  -1   2 4966.48 263.631   1
   3  -1   2 4382.68 400.000   1
   3  -1   2 4329.60 391.620   1
  -3   1  -3 288268.  19609.   1
  -3   1  -3 310335.  21123.   1
   3  -1   3 304190.  12874.   1
   3  -1   3 331285.  22550.   1
   3  -1   3 308100.  20972.   1
  -3   1  -4  91871. 3972.06   1
  -3   1  -4 106285. 7282.12   1
  -3   1  -4  93547. 6418.99   1
   3  -1   4 103017. 4402.23   1
   3  -1   4 101983. 6997.20   1
   3  -1   4 106145. 7296.08   1
  -3   1  -5 7907.81 497.486   1
  -3   1  -5 7804.46 659.497   1
  -3   1  -5  10665. 850.837   1
   3  -1   5 8310.05 474.581   1
   3  -1   5 8913.40 747.485   1
   3  -1   5 8966.47 734.636   1
  -3   1  -6 2517.04 318.994   1
  -3   1  -6 2966.48 386.871   1
   3  -1   6 2763.40 331.843   1
   3  -1   6 3181.56 425.698   1
   3  -1   6 3620.11 431.284   1
  -3   1  -7  59637. 2658.66   1
  -3   1  -7  72681. 5061.45   1
   3  -1   7  60978. 2695.25   1
   3  -1   7  69469. 4829.60   1
   3  -1   7  62849. 4405.02   1
  -3   1  -8 145251. 6251.39   1
  -3   1  -8 136676. 9402.22   1
   3  -1   8 154693. 6650.83   1
   3  -1   8 134078. 9240.21   1
   3  -1   8 153240.  10514.   1
  -3   1  -9  13271. 797.206   1
  -3   1  -9  13469. 1077.37   1
   3  -1   9  14802. 870.669   1
   3  -1   9  14073. 1124.86   1
   3  -1   9  12453. 1056.14   1
   3  -1  10 152653. 6594.97   1
   3  -1  11 123659. 5368.71   1
   3  -1  12  20156. 1108.94   1
  -3   1 -13  38380. 1856.14   1
  -3   1 -13  29330. 2178.21   1
   3  -1  13  36816. 1806.70   1
  -3   1 -14 9223.45 762.848   1
  -3   1 -14  10008. 930.446   1
   3  -1  14 9128.48 780.725   1
   3  -1  14  10318. 917.317   1
   3  -1  14 9770.94 871.228   1
  -3   1 -15  731.00 580.726   1
  -3   1 -15 1292.74 531.005   1
   3  -1  15 1063.69 626.815   1
   3  -1  15 1728.77 486.592   1
   3  -1  15 1275.42 489.385   1
  -3   0  15 5734.63 743.295   1
  -3   0  15 7634.07 793.575   1
  -3   0  15  10807. 1033.52   1
   3   0 -15 6932.95 708.658   1
   3   0 -15 8597.76 796.647   1
   3   0 -15 8681.55 784.077   1
  -3   0  14  12947. 886.591   1
  -3   0  14  13061. 1121.23   1
  -3   0  14  11860. 1006.14   1
   3   0 -14  13067. 870.111   1
   3   0 -14  12207. 1023.46   1
  -3   0  13  36955. 1799.44   1
  -3   0  13  36536. 2681.84   1
   3   0 -13  38212. 1827.37   1
   3   0 -13  37207. 2674.02   1
  -3   0  12 171871. 7413.40   1
  -3   0  12 139693. 9614.51   1
   3   0 -12 174469. 7477.65   1
   3   0 -12 167626.  11503.   1
  -3   0  11 2725.70 494.972   1
  -3   0  11 1807.82 424.581   1
   3   0 -11 3245.81 467.039   1
   3   0 -11 2627.93 460.055   1
   3   0 -10 246117.  10494.   1
   3   0 -10 198100.  13581.   1
  -3   0   9 101369. 4469.27   1
  -3   0   9  85419. 5927.37   1
   3   0  -9 101536. 4430.16   1
   3   0  -9  83799. 5837.98   1
  -3   0   8  11936. 787.988   1
  -3   0   8  10888. 932.401   1
   3   0  -8  11039. 706.982   1
   3   0  -8  11098. 936.871   1
   3   0  -8  10377. 866.480   1
  -3   0   7  26757. 1346.37   1
  -3   0   7  28017. 2037.99   1
   3   0  -7  27344. 1356.42   1
   3   0  -7  27497. 2018.43   1
   3   0  -7  24215. 1777.37   1
  -3   0   6  49776. 2281.00   1
  -3   0   6  54693. 3815.64   1
   3   0  -6  49246. 2222.62   1
   3   0  -6  54078. 3804.47   1
   3   0  -6  50810. 3558.66   1
  -3   0   5  51480. 2335.75   1
  -3   0   5  49553. 3480.44   1
   3   0  -5  54972. 2448.60   1
   3   0  -5  58966. 4103.35   1
   3   0  -5  66760. 4645.25   1
  -3   0   4  36006. 1665.64   1
  -3   0   4  40866. 2874.30   1
   3   0  -4  40084. 1812.29   1
   3   0  -4  42430. 2977.65   1
   3   0  -4  42095. 2963.68   1
  -3   0   3 257095.  10922.   1
  -3   0   3 298603.  20344.   1
   3   0  -3 286592.  12140.   1
   3   0  -3 293296.  19978.   1
   3   0  -3 300279.  20444.   1
  -3   0   2 416480.  17603.   1
  -3   0   2 404190.  27503.   1
  -3   0   2 451396.  30698.   1
   3   0  -2 451955.  19092.   1
   3   0  -2 445810.  30307.   1
   3   0  -2 470391.  31983.   1
  -3   0   1  38631. 1684.91   1
  -3   0   1  34721. 2428.49   1
  -3   0   1  36844. 2581.28   1
   3   0  -1  36536. 1587.15   1
   3   0  -1  34050. 2386.03   1
   3   0  -1  37598. 2626.53   1
  -3   0   0 343575.  23374.   1
  -3   0   0 331005.  22522.   1
   3   0   0 363966.  24768.   1
   3   0   0 323184.  21992.   1
  -3   0  -1  62290. 4301.67   1
  -3   0  -1  59441. 4097.76   1
   3   0   1  60307. 4162.01   1
   3   0   1  56927. 3930.16   1
  -3   0  -2  95084. 6525.13   1
  -3   0  -2  98827. 6782.12   1
   3   0   2 104218. 7142.45   1
   3   0   2 104134. 7134.07   1
  -3   0  -3  15422. 711.731   1
  -3   0  -3  15863. 1191.34   1
  -3   0  -3  13615. 1019.83   1
   3   0   3  13698. 634.357   1
   3   0   3  14961. 1111.45   1
   3   0   3  14358. 1069.55   1
  -3   0  -4 179218. 7620.10   1
  -3   0  -4 195922.  13385.   1
  -3   0  -4 197625.  13492.   1
   3   0   4 170866. 7259.77   1
   3   0   4 183463.  12531.   1
   3   0   4 194357.  13277.   1
  -3   0  -5 181871. 7754.18   1
  -3   0  -5 219413.  14975.   1
  -3   0  -5 230698.  15757.   1
   3   0   5 185726. 7907.81   1
   3   0   5 232570.  15888.   1
   3   0   5 208324.  14223.   1
  -3   0  -6  49274. 2208.66   1
   3   0   6  59190. 2630.44   1
   3   0   6  65335. 4536.31   1
   3   0   6  63855. 4458.10   1
  -3   0  -7 393575.  16673.   1
  -3   0  -7 445530.  30335.   1
  -3   0  -7 500837.  34078.   1
   3   0   7 468715.  19835.   1
   3   0   7 546927.  37235.   1
   3   0   7 469832.  31983.   1
  -3   0  -8  91592. 4008.38   1
  -3   0  -8  99860. 6913.40   1
   3   0   8  93715. 4103.35   1
   3   0   8  90726. 6293.29   1
   3   0   8 103547. 7153.62   1
  -3   0  -9 169469. 7284.91   1
  -3   0  -9 142737. 9815.63   1
   3   0   9 153687. 6639.66   1
   3   0   9 129553. 8918.99   1
   3   0   9 141229. 9731.83   1
  -3   0 -10 159804. 6879.88   1
  -3   0 -10 125000. 8622.90   1
   3   0  10 157067. 6765.36   1
   3   0  10 129860. 8963.68   1
   3   0  10 126592. 8723.45   1
  -3   0 -11 2846.37 467.039   1
  -3   0 -11 2534.35 433.240   1
   3   0  11 3069.83 474.860   1
   3   0  11 2913.40 466.480   1
   3   0  11 2248.88 395.810   1
  -3   0 -12 6393.85 590.781   1
  -3   0 -12 3972.06 539.944   1
   3   0  12 5882.68 588.547   1
   3   0  12 4863.12 571.228   1
   3   0  12 4184.35 510.335   1
  -3   0 -13  22802. 1223.74   1
  -3   0 -13  18483. 1458.94   1
   3   0  13  22531. 1212.29   1
   3   0  13  19003. 1481.00   1
   3   0  13  15821. 1251.95   1
  -3   0 -14  34972. 1721.51   1
  -3   0 -14  36452. 2649.72   1
   3   0  14  34972. 1747.76   1
   3   0  14  32933. 2388.27   1
   3   0  14  30698. 2249.44   1
  -3   0 -15 3134.07 587.709   1
  -3   0 -15 5594.97 674.860   1
   3   0  15 3276.53 658.100   1
   3   0  15 3033.52 501.955   1
   3   0  15 3555.86 579.329   1
  -3  -1  15  29888. 1594.97   1
  -3  -1  15  30587. 2267.04   1
  -3  -1  15  27757. 2055.30   1
   3   1 -15  30782. 1565.92   1
   3   1 -15  28939. 2123.46   1
   3   1 -15  27321. 2008.38   1
  -3  -1  14  436.59 558.379   1
  -3  -1  14  626.26 471.229   1
   3   1 -14 -128.66 522.625   1
   3   1 -14   61.37 425.419   1
   3   1 -14  504.19 373.184   1
  -3  -1  13 115642. 5069.83   1
  -3  -1  13 121117. 8374.29   1
   3   1 -13 110726. 4835.19   1
   3   1 -13 112458. 7762.56   1
   3   1 -13  97207. 6720.66   1
  -3  -1  12  52793. 2435.47   1
  -3  -1  12  40419. 2885.47   1
   3   1 -12  53575. 2443.29   1
   3   1 -11  53799. 2441.34   1
  -3  -1  10  97151. 4284.91   1
  -3  -1  10  73575. 5131.28   1
   3   1 -10  76117. 5315.64   1
   3   1 -10  67514. 4689.94   1
  -3  -1   9  14654. 884.915   1
  -3  -1   9  13383. 1079.61   1
   3   1  -9  14754. 833.798   1
   3   1  -9  13318. 1090.78   1
   3   1  -9  11676. 929.329   1
  -3  -1   8  603.35 356.424   1
  -3  -1   8   40.08 287.430   1
   3   1  -8  387.99 320.111   1
   3   1  -8  128.63 235.251   1
   3   1  -8  475.42 334.357   1
  -3  -1   7  19606. 1034.64   1
  -3  -1   7  20170. 1509.50   1
   3   1  -7  20665. 1053.07   1
   3   1  -7  21128. 1570.39   1
   3   1  -7  23673. 1771.79   1
  -3  -1   6 235139.  10047.   1
  -3  -1   6 245307.  16746.   1
   3   1  -6 231145. 9840.77   1
   3   1  -6 240614.  16425.   1
   3   1  -6 263212.  17975.   1
  -3  -1   5 117374. 5078.21   1
  -3  -1   5 109385. 7516.75   1
   3   1  -5 116313. 5022.34   1
   3   1  -5 123100. 8466.47   1
   3   1  -5 122681. 8427.37   1
  -3  -1   4 249692.  10626.   1
  -3  -1   4 259609.  17701.   1
   3   1  -4 232905. 9916.19   1
   3   1  -4 272681.  18606.   1
   3   1  -4 255391.  17413.   1
  -3  -1   3 631564.  26668.   1
  -3  -1   3 608379.  41341.   1
   3   1  -3 562569.  23765.   1
   3   1  -3 556983.  37877.   1
   3   1  -3 588547.  40028.   1
  -3  -1   2 1923.18 230.782   1
  -3  -1   2 1956.98 292.737   1
  -3  -1   2 2215.64 317.318   1
   3   1  -2 1452.51 250.335   1
   3   1  -2 1809.50 281.843   1
   3   1  -2 2005.86 291.899   1
  -3  -1   1 217542. 9212.28   1
  -3  -1   1 212206.  14478.   1
  -3  -1   1 227681.  15528.   1
   3   1  -1 219441. 9293.29   1
   3   1  -1 205950. 8743.01   1
   3   1  -1 214246.  14615.   1
   3   1  -1 221201.  15084.   1
  -3  -1   0 178659. 7578.20   1
  -3  -1   0 202486.  13813.   1
  -3  -1   0 186676.  12746.   1
   3   1   0 195251. 8276.53   1
   3   1   0 183519. 7790.49   1
   3   1   0 191899.  13101.   1
   3   1   0 198017.  13508.   1
  -3  -1  -1  11318. 870.669   1
  -3  -1  -1 9712.28 765.921   1
   3   1   1  10073. 461.173   1
   3   1   1 9620.10 448.882   1
   3   1   1 8857.53 712.010   1
   3   1   1  10366. 806.982   1
  -3  -1  -2 4162.01 235.195   1
  -3  -1  -2 4628.49 440.502   1
  -3  -1  -2 3935.75 400.558   1
   3   1   2 3930.16 235.503   1
   3   1   2 4005.58 227.262   1
   3   1   2 3720.67 382.122   1
   3   1   2 3706.70 385.195   1
  -3  -1  -3  68492. 2946.92   1
  -3  -1  -3  70978. 4905.02   1
  -3  -1  -3  71006. 4907.82   1
   3   1   3  67737. 2918.99   1
   3   1   3  73966. 5106.14   1
   3   1   3  66592. 4600.55   1
  -3  -1  -4 429888.  18165.   1
  -3  -1  -4 489664.  33296.   1
  -3  -1  -4 618435.  42039.   1
   3   1   4 450000.  19028.   1
   3   1   4 439944.  29916.   1
   3   1   4 436871.  29721.   1
  -3  -1  -5  12765. 669.273   1
  -3  -1  -5  15603. 1186.03   1
  -3  -1  -5  13000. 1019.83   1
   3   1   5  11480. 647.485   1
   3   1   5  13662. 1063.97   1
   3   1   5  13598. 1047.21   1
  -3  -1  -6 323743.  13732.   1
  -3  -1  -6 317877.  21654.   1
  -3  -1  -6 306145.  20883.   1
   3   1   6 305307.  12969.   1
   3   1   6 322346.  21969.   1
   3   1   6 351396.  23955.   1
  -3  -1  -7 237933.  10131.   1
  -3  -1  -7 241564.  16489.   1
  -3  -1  -7 280447.  19145.   1
   3   1   7 236843.  10115.   1
   3   1   7 274273.  18709.   1
   3   1   7 255223.  17436.   1
  -3  -1  -8  49022. 2231.28   1
  -3  -1  -8  47458. 3363.12   1
  -3  -1  -8  48324. 3388.26   1
   3   1   8  49190. 2253.91   1
   3   1   8  49804. 3508.38   1
   3   1   8  56620. 3983.24   1
  -3  -1  -9 173659. 7466.47   1
  -3  -1  -9 183519.  12584.   1
   3   1   9 188352. 8086.58   1
   3   1   9 187123.  12832.   1
   3   1   9 180558.  12371.   1
  -3  -1 -10  12377. 772.904   1
  -3  -1 -10  12028.  999.72   1
   3   1  10  14020. 855.865   1
   3   1  10  13673. 1121.79   1
   3   1  10  15081. 1189.66   1
  -3  -1 -11 1208.10 395.251   1
  -3  -1 -11 1661.17 404.469   1
   3   1  11  857.54 405.586   1
   3   1  11 1279.33 363.687   1
   3   1  11  678.21 341.061   1
  -3  -1 -12 4544.69 536.871   1
  -3  -1 -12 3745.81 505.586   1
   3   1  12 5002.79 571.508   1
   3   1  12 4142.45 496.648   1
   3   1  12 3438.54 465.363   1
  -3  -1 -13  76313. 3391.06   1
  -3  -1 -13  62402. 4385.47   1
   3   1  13  77067. 3438.54   1
   3   1  13  62430. 4368.71   1
   3   1  13  60587. 4245.81   1
  -3  -1 -14  68324. 3083.80   1
  -3  -1 -14  56089. 3966.48   1
   3   1  14  61173. 2818.43   1
   3   1  14  63017. 4438.54   1
   3   1  14  50754. 3597.76   1
  -3  -1 -15  14670. 938.267   1
  -3  -1 -15  16584. 1360.33   1
   3   1  15  15975. 1012.57   1
   3   1  15  14877. 1179.89   1
   3   1  15  14810. 1207.54   1
  -3  -1 -16  68408. 3111.73   1
  -3  -1 -16  62989. 4441.34   1
   3   1  16  64721. 2997.20   1
   3   1  16  62933. 4413.40   1
   3   1  16  57067. 4016.76   1
  -3  -2  14  67989. 3100.56   1
  -3  -2  14  69776. 4891.06   1
   3   2 -14  67402. 3019.55   1
   3   2 -14  61369. 4301.67   1
   3   2 -14  63156. 4430.16   1
  -3  -2  13  72207. 3270.95   1
  -3  -2  13  61788. 4343.57   1
   3   2 -13  64078. 2865.92   1
   3   2 -13  59749. 4201.11   1
   3   2 -13  57374. 4039.10   1
  -3  -2  12 1265.36 475.698   1
  -3  -2  12 1403.63 422.346   1
   3   2 -12 1254.47 418.435   1
   3   2 -12 1146.93 365.642   1
   3   2 -12 2010.05 391.061   1
  -3  -2  11  36788. 1782.40   1
  -3  -2  11  29246. 2136.03   1
   3   2 -11  35475. 1705.31   1
   3   2 -11  31145. 2274.02   1
   3   2 -11  27218. 1986.03   1
  -3  -2  10  38659. 1853.91   1
  -3  -2  10  32849. 2401.67   1
   3   2 -10  40559. 1918.15   1
  -3  -2   9  46788. 2187.15   1
  -3  -2   9  42542. 3058.66   1
   3   2  -9  48631. 2246.09   1
   3   2  -9  39832. 2826.81   1
   3   2  -9  46033. 3276.53   1
  -3  -2   8 3541.90 452.234   1
  -3  -2   8 3762.57 491.061   1
   3   2  -8 4553.07 448.324   1
   3   2  -8 3349.16 393.575   1
   3   2  -8 4606.14 562.290   1
  -3  -2   7 181927. 7821.22   1
  -3  -2   7 226285.  15511.   1
   3   2  -7 179776. 7706.70   1
   3   2  -7 211396.  14483.   1
   3   2  -7 181313.  12419.   1
  -3  -2   6 349441.  14855.   1
  -3  -2   6 375977.  25626.   1
   3   2  -6 329329.  13975.   1
   3   2  -6 343016.  23388.   1
   3   2  -6 361173.  24626.   1
  -3  -2   5  75000. 3301.67   1
  -3  -2   5  71844. 4994.41   1
   3   2  -5  72849. 3217.87   1
   3   2  -5  80447. 5575.41   1
   3   2  -5  73631. 5103.35   1
  -3  -2   4 638547.  26975.   1
  -3  -2   4 647206.  44022.   1
   3   2  -4 624301.  26360.   1
   3   2  -4 639106.  43464.   1
   3   2  -4 575139.  39106.   1
  -3  -2   3  75782. 3296.09   1
  -3  -2   3  75838. 5251.39   1
   3   2  -3  75391. 3310.05   1
   3   2  -3  72681. 5027.93   1
   3   2  -3  77039. 5329.60   1
  -3  -2   2  67542. 2938.54   1
  -3  -2   2  69469. 4796.08   1
  -3  -2   2  68352. 4731.84   1
   3   2  -2  69302. 3027.93   1
   3   2  -2  68547. 2977.65   1
   3   2  -2  71983. 4974.85   1
   3   2  -2  66927. 4634.07   1
  -3  -2   1  95978. 4117.31   1
  -3  -2   1  89665. 6173.18   1
  -3  -2   1  86536. 5944.13   1
   3   2  -1  94581. 4075.41   1
   3   2  -1  94357. 4041.90   1
   3   2  -1  93296. 6416.19   1
   3   2  -1  87961. 6044.69   1
  -3  -2   0  38128. 1682.12   1
  -3  -2   0  42682. 2988.82   1
  -3  -2   0  35614. 2500.84   1
   3   2   0  39106. 1722.90   1
   3   2   0  39190. 1741.06   1
   3   2   0  40503. 2840.78   1
   3   2   0  40028. 2801.67   1
  -3  -2  -1  27168. 1218.71   1
  -3  -2  -1  26832. 1205.59   1
  -3  -2  -1  25662. 1838.55   1
  -3  -2  -1  25087. 1787.71   1
   3   2   1  25816. 1173.18   1
   3   2   1  27156. 1219.27   1
   3   2   1  25338. 1805.86   1
   3   2   1  26905. 1920.39   1
  -3  -2  -2 4296.08 283.799   1
  -3  -2  -2 3812.84 387.709   1
  -3  -2  -2 3821.23 396.368   1
   3   2   2 3896.64 273.938   1
   3   2   2 4173.18 294.413   1
   3   2   2 4203.91 407.821   1
   3   2   2 3860.33 406.424   1
  -3  -2  -3 543854.  22955.   1
  -3  -2  -3 550837.  37430.   1
  -3  -2  -3 513128.  34888.   1
   3   2   3 522625.  22061.   1
   3   2   3 540782.  22830.   1
   3   2   3 536592.  36480.   1
   3   2   3 510893.  34749.   1
  -3  -2  -4 240307.  10193.   1
  -3  -2  -4 241173.  16452.   1
  -3  -2  -4 212346.  14503.   1
   3   2   4 229469. 9751.39   1
   3   2   4 217542.  14852.   1
   3   2   4 215838.  14735.   1
  -3  -2  -5 289944.  12302.   1
  -3  -2  -5 275530.  18788.   1
  -3  -2  -5 295251.  20134.   1
   3   2   5 301396.  12788.   1
   3   2   5 263352.  17961.   1
   3   2   5 272402.  18584.   1
  -3  -2  -6 226815. 9650.83   1
  -3  -2  -6 204748.  14000.   1
  -3  -2  -6 217737.  14888.   1
   3   2   6 207430. 8868.71   1
   3   2   6 201899.  13802.   1
   3   2   6 228268.  15606.   1
  -3  -2  -7 8455.30 530.726   1
  -3  -2  -7 9578.20 818.714   1
  -3  -2  -7 8148.04 718.994   1
   3   2   7 8449.71 593.854   1
   3   2   7  10251. 856.703   1
   3   2   7 9108.93 774.301   1
  -3  -2  -8  27642. 1336.87   1
  -3  -2  -8  31061. 2254.47   1
  -3  -2  -8  30503. 2218.43   1
   3   2   8  28324. 1385.75   1
   3   2   8  29525. 2158.66   1
   3   2   8  27961. 2035.47   1
  -3  -2  -9  24891. 1236.03   1
  -3  -2  -9  24363. 1798.04   1
  -3  -2  -9  24824. 1831.00   1
   3   2   9  26008. 1319.27   1
   3   2   9  23838. 1749.44   1
   3   2   9  28268. 2088.82   1
  -3  -2 -10  38715. 1820.95   1
  -3  -2 -10  45363. 3234.63   1
   3   2  10  43436. 2044.13   1
   3   2  10  42263. 3027.93   1
   3   2  10  39888. 2843.57   1
  -3  -2 -11  30419. 1498.60   1
  -3  -2 -11  33492. 2436.87   1
   3   2  11  37318. 1791.62   1
  -3  -2 -12  53855. 2470.39   1
  -3  -2 -12  53045. 3756.98   1
   3   2  12  57905. 2663.13   1
   3   2  12  51592. 3634.07   1
   3   2  12  49134. 3480.44   1
  -3  -2 -13 168100. 7234.63   1
  -3  -2 -13 153072.  10528.   1
   3   2  13 164748. 7120.10   1
   3   2  13 138799. 9547.48   1
   3   2  13 138938. 9558.65   1
  -3  -2 -14 1371.23 465.083   1
  -3  -2 -14 1344.13 444.692   1
   3   2  14 1369.55 510.893   1
   3   2  14  998.60 363.128   1
   3   2  14  620.11 370.670   1
  -3  -2 -15  70112. 3173.18   1
  -3  -2 -15  72402. 5064.24   1
   3   2  15  68296. 3131.28   1
   3   2  15  58184. 4089.38   1
   3   2  15  63911. 4474.86   1
  -3  -2 -16  13232. 963.127   1
  -3  -2 -16  12821. 1106.42   1
   3   2  16  11603. 921.507   1
   3   2  16  11304. 983.798   1
   3   2  16  11807. 983.239   1
  -3  -3  14  29441. 1519.83   1
  -3  -3  14  24500. 1840.78   1
   3   3 -14  25723. 1305.86   1
   3   3 -14  25704. 1884.91   1
   3   3 -14  23989. 1779.05   1
  -3  -3  13 3938.54 625.698   1
  -3  -3  13 3949.72 575.139   1
   3   3 -13 3458.10 480.167   1
   3   3 -13 3120.11 503.631   1
   3   3 -13 4382.68 533.240   1
  -3  -3  12 2463.41 520.391   1
  -3  -3  12 1255.86 429.329   1
   3   3 -12 1617.32 413.966   1
   3   3 -12 1380.45 340.502   1
   3   3 -12 1678.77 454.189   1
  -3  -3  11 4231.84 536.592   1
  -3  -3  11 3097.76 490.782   1
   3   3 -11 4502.79 536.033   1
   3   3 -11 3175.97 507.541   1
   3   3 -11 4245.81 509.776   1
  -3  -3  10  58296. 2660.33   1
  -3  -3  10  49609. 3516.76   1
   3   3 -10  57654. 2634.63   1
   3   3 -10  55726. 3944.13   1
   3   3 -10  49721. 3497.20   1
  -3  -3   9  54581. 2507.26   1
  -3  -3   9  60587. 4276.53   1
   3   3  -9  55782. 2565.36   1
  -3  -3   8  62737. 2829.61   1
  -3  -3   8  52011. 3659.21   1
   3   3  -8  64385. 2921.78   1
  -3  -3   7 327095.  13913.   1
  -3  -3   7 306704.  20922.   1
   3   3  -7 344692.  14679.   1
   3   3  -7 303631.  20704.   1
   3   3  -7 338826.  23112.   1
  -3  -3   6 1846.37 339.944   1
  -3  -3   6 1416.48 348.044   1
   3   3  -6 1656.42 350.838   1
   3   3  -6 1935.47 350.558   1
   3   3  -6 1654.75 340.782   1
  -3  -3   5 431005.  18251.   1
  -3  -3   5 450279.  30642.   1
   3   3  -5 455865.  19304.   1
   3   3  -5 454748.  30950.   1
   3   3  -5 472346.  32151.   1
  -3  -3   4  78827. 3444.13   1
  -3  -3   4  74274. 5156.42   1
   3   3  -4  78715. 3466.48   1
   3   3  -4  75614. 3312.85   1
   3   3  -4  81257. 5611.73   1
   3   3  -4  88324. 6111.73   1
  -3  -3   3  18715. 927.932   1
  -3  -3   3  18684. 1405.86   1
   3   3  -3  19332. 963.407   1
   3   3  -3  19081. 935.474   1
   3   3  -3  19416. 1426.81   1
   3   3  -3  19925. 1472.34   1
  -3  -3   2  13723. 712.848   1
   3   3  -2  13232. 716.200   1
   3   3  -2  12411. 657.262   1
   3   3  -2  11360. 887.988   1
   3   3  -2  14458. 1103.35   1
  -3  -3   1 165391. 7050.27   1
  -3  -3   1 167318.  11455.   1
  -3  -3   1 158184.  10821.   1
   3   3  -1 165195. 7067.03   1
   3   3  -1 164162. 7008.37   1
   3   3  -1 174190.  11908.   1
   3   3  -1 158827.  10863.   1
  -3  -3   0 355586.  15039.   1
  -3  -3   0 349720.  14799.   1
  -3  -3   0 384916.  26190.   1
  -3  -3   0 351955.  23952.   1
   3   3   0 344972.  14598.   1
   3   3   0 350279.  14824.   1
   3   3   0 330447.  22503.   1
   3   3   0 374301.  25480.   1
  -3  -3  -1  39637. 1768.15   1
  -3  -3  -1  39972. 1781.56   1
  -3  -3  -1  37179. 2622.34   1
  -3  -3  -1  34162. 2418.99   1
   3   3   1  38939. 1746.65   1
   3   3   1  39218. 1759.22   1
   3   3   1  37430. 2639.66   1
   3   3   1  38547. 2702.51   1
  -3  -3  -2 660893.  27880.   1
  -3  -3  -2 626815.  42598.   1
  -3  -3  -2 646647.  43939.   1
   3   3   2 615083.  25955.   1
   3   3   2 589944.  24908.   1
   3   3   2 605586.  41173.   1
   3   3   2 631284.  42905.   1
  -3  -3  -3 417039.  17637.   1
  -3  -3  -3 403631.  27483.   1
  -3  -3  -3 385195.  26209.   1
   3   3   3 401955.  17006.   1
   3   3   3 408100.  17263.   1
   3   3   3 399162.  27165.   1
   3   3   3 392458.  26707.   1
  -3  -3  -4 169385. 7223.46   1
  -3  -3  -4 152877.  10478.   1
  -3  -3  -4 155363.  10634.   1
   3   3   4 165950. 7103.34   1
   3   3   4 158994. 6782.12   1
   3   3   4 154916.  10598.   1
   3   3   4 157877.  10802.   1
  -3  -3  -5 253771.  10788.   1
  -3  -3  -5 245139.  16737.   1
  -3  -3  -5 243072.  16595.   1
   3   3   5 250726.  10682.   1
   3   3   5 250419.  17084.   1
   3   3   5 242262.  16528.   1
  -3  -3  -6  36369. 1674.58   1
  -3  -3  -6  35307. 2524.02   1
  -3  -3  -6  40028. 2849.16   1
   3   3   6  42039. 1920.95   1
   3   3   6  38436. 2720.95   1
   3   3   6  39190. 2780.72   1
  -3  -3  -7  10595. 644.413   1
  -3  -3  -7  12413. 1007.54   1
  -3  -3  -7  12209. 987.150   1
   3   3   7  10919. 679.608   1
   3   3   7  11271. 910.055   1
   3   3   7  12056. 965.083   1
  -3  -3  -8 6427.37 504.469   1
  -3  -3  -8 7192.73 682.681   1
  -3  -3  -8 5527.93 575.977   1
   3   3   8 6393.85 544.413   1
   3   3   8 7583.79 683.519   1
   3   3   8 7162.00 664.524   1
  -3  -3  -9  84525. 3715.08   1
  -3  -3  -9  85503. 5932.95   1
  -3  -3  -9  82123. 5703.90   1
   3   3   9  85838. 3798.88   1
   3   3   9  94804. 6561.45   1
   3   3   9  84413. 5846.36   1
  -3  -3 -10 128296. 5567.03   1
  -3  -3 -10 126704. 8726.25   1
  -3  -3 -10 122011. 8410.61   1
   3   3  10 124134. 5410.61   1
   3   3  10 123966. 8530.72   1
   3   3  10 140335. 9650.83   1
  -3  -3 -11  21436. 1123.46   1
  -3  -3 -11  22802. 1699.44   1
   3   3  11  25573. 1330.17   1
  -3  -3 -12 235251.  10047.   1
  -3  -3 -12 250866.  17156.   1
   3   3  12 272430.  11628.   1
   3   3  12 234888.  16047.   1
   3   3  12 234609.  16017.   1
  -3  -3 -13  24511. 1276.81   1
  -3  -3 -13  25679. 1909.22   1
   3   3  13  27704. 1416.76   1
   3   3  13  23084. 1743.57   1
   3   3  13  22117. 1650.56   1
  -3  -3 -14  46592. 2187.43   1
  -3  -3 -14  42570. 3061.45   1
   3   3  14  50782. 2387.71   1
   3   3  14  40363. 2865.92   1
   3   3  14  42514. 3022.34   1
  -3  -3 -15  23371. 1269.83   1
  -3  -3 -15  22405. 1706.70   1
   3   3  15  21983. 1254.75   1
   3   3  15  19318. 1464.52   1
   3   3  15  20589. 1557.82   1
  -3  -4  14 4603.35 648.044   1
  -3  -4  14 5444.13 671.787   1
   3   4 -14 3717.87 546.647   1
   3   4 -14 4298.88 579.888   1
   3   4 -14 4455.30 621.228   1
  -3  -4  13  20550. 1142.74   1
  -3  -4  13  22615. 1721.51   1
   3   4 -13  21212. 1167.32   1
   3   4 -13  17450. 1373.18   1
   3   4 -13  18310. 1429.61   1
  -3  -4  12 1810.89 462.849   1
  -3  -4  12 2299.72 528.770   1
   3   4 -12 2211.73 442.737   1
   3   4 -12 1415.92 395.810   1
   3   4 -12 2058.38 479.608   1
  -3  -4  11 104609. 4589.38   1
  -3  -4  11 113855. 7840.77   1
   3   4 -11 111760. 4860.33   1
   3   4 -11  92849. 6410.61   1
   3   4 -11  95335. 6620.10   1
  -3  -4  10 109637. 4782.12   1
  -3  -4  10  90866. 6310.05   1
   3   4 -10 106676. 4631.28   1
   3   4 -10 103659. 7162.00   1
   3   4 -10 112458. 7776.53   1
  -3  -4   9  16385. 920.949   1
  -3  -4   9  20947. 1593.85   1
   3   4  -9  16268. 924.301   1
   3   4  -9  16394. 1276.26   1
   3   4  -9  19813. 1527.93   1
  -3  -4   8 141145. 6092.17   1
  -3  -4   8 144721. 9949.71   1
   3   4  -8 157933. 6821.22   1
   3   4  -8 146452.  10075.   1
   3   4  -8 128380. 8832.39   1
  -3  -4   7  38799. 1819.27   1
  -3  -4   7  42514. 3027.93   1
   3   4  -7  45614. 3237.43   1
   3   4  -7  39581. 2818.43   1
  -3  -4   6  40112. 1857.26   1
  -3  -4   6  43296. 3064.24   1
   3   4  -6  45810. 2135.75   1
   3   4  -6  42793. 1960.89   1
   3   4  -6  44944. 3192.73   1
   3   4  -6  47067. 3326.81   1
  -3  -4   5  30670. 1455.86   1
  -3  -4   5  33603. 2412.85   1
   3   4  -5  31704. 1524.86   1
   3   4  -5  30838. 1474.30   1
   3   4  -5  37793. 2693.01   1
   3   4  -5  30922. 2237.71   1
  -3  -4   4  49106. 2215.08   1
  -3  -4   4  49804. 3497.20   1
   3   4  -4  45391. 2080.17   1
   3   4  -4  46983. 2119.83   1
   3   4  -4  49609. 3480.44   1
   3   4  -4  41732. 2963.68   1
  -3  -4   3 137933. 5932.95   1
  -3  -4   3 143910. 9865.91   1
   3   4  -3 137626. 5927.37   1
   3   4  -3 129581. 5578.21   1
   3   4  -3 146257.  10017.   1
   3   4  -3 124162. 8533.51   1
  -3  -4   2  57402. 2544.13   1
  -3  -4   2  58966. 4108.93   1
  -3  -4   2  57654. 4022.34   1
   3   4  -2  60475. 2673.18   1
   3   4  -2  62849. 2798.88   1
   3   4  -2  61899. 4290.50   1
   3   4  -2  71201. 4944.13   1
  -3  -4   1 450558.  19061.   1
  -3  -4   1 464245.  31564.   1
  -3  -4   1 455027.  30950.   1
   3   4  -1 435474.  18439.   1
   3   4  -1 416201.  17609.   1
   3   4  -1 422067.  28715.   1
   3   4  -1 462569.  31452.   1
  -3  -4   0 124162. 5332.40   1
  -3  -4   0 125978. 5410.61   1
  -3  -4   0 118352. 8122.90   1
  -3  -4   0 129972. 8916.19   1
   3   4   0 120614. 5192.73   1
   3   4   0 118352. 5086.59   1
   3   4   0 128352. 8801.67   1
   3   4   0 120670. 8284.91   1
  -3  -4  -1 410614.  17369.   1
  -3  -4  -1 420949.  17802.   1
  -3  -4  -1 415921.  28324.   1
  -3  -4  -1 415642.  28296.   1
   3   4   1 408659.  17282.   1
   3   4   1 405028.  17142.   1
   3   4   1 397206.  27033.   1
   3   4   1 424022.  28855.   1
  -3  -4  -2 432402.  18288.   1
  -3  -4  -2 484357.  32933.   1
  -3  -4  -2 445251.  30279.   1
   3   4   2 434916.  18388.   1
   3   4   2 437150.  18486.   1
   3   4   2 474301.  32263.   1
   3   4   2 446648.  30391.   1
  -3  -4  -3  34581. 1578.21   1
  -3  -4  -3  32821. 2333.52   1
  -3  -4  -3  31788. 2264.52   1
   3   4   3  34218. 1573.18   1
   3   4   3  33380. 1529.89   1
   3   4   3  34693. 2461.73   1
   3   4   3  34218. 2420.95   1
  -3  -4  -4 106313. 4592.17   1
  -3  -4  -4 108100. 7435.75   1
  -3  -4  -4  98352. 6773.74   1
   3   4   4  98994. 4290.50   1
   3   4   4  96732. 4187.15   1
   3   4   4 101732. 6983.23   1
   3   4   4 101648. 6994.41   1
  -3  -4  -5  67681. 2980.44   1
  -3  -4  -5  67570. 4695.53   1
  -3  -4  -5  63045. 4393.85   1
   3   4   5  66061. 2902.23   1
   3   4   5  73715. 3248.60   1
   3   4   5  64246. 4458.10   1
   3   4   5  67458. 4692.73   1
  -3  -4  -6 109134. 4731.84   1
  -3  -4  -6 116257. 8008.37   1
  -3  -4  -6 115335. 7935.75   1
   3   4   6 114302. 4980.44   1
   3   4   6 119860. 8231.83   1
   3   4   6 111061. 7645.24   1
  -3  -4  -7  37793. 1752.79   1
  -3  -4  -7  40056. 2857.54   1
  -3  -4  -7  37179. 2654.47   1
   3   4   7  37682. 1767.04   1
   3   4   7  38408. 2735.47   1
   3   4   7  37877. 2686.87   1
  -3  -4  -8 124748. 5396.64   1
  -3  -4  -8 135586. 9321.22   1
  -3  -4  -8 131397. 9036.30   1
   3   4   8 134190. 5810.05   1
   3   4   8 140307. 9625.69   1
   3   4   8 122346. 8416.19   1
  -3  -4  -9 156061. 6720.66   1
  -3  -4  -9 172989.  11863.   1
  -3  -4  -9 154553.  10617.   1
   3   4   9 149916. 6502.79   1
   3   4   9 160084.  10966.   1
   3   4   9 157123.  10774.   1
  -3  -4 -10 6765.36 554.748   1
  -3  -4 -10 8907.81 792.737   1
  -3  -4 -10 7664.80 731.563   1
   3   4  10 8312.84 623.184   1
   3   4  10 7298.88 660.614   1
   3   4  10 8175.97 731.005   1
  -3  -4 -11 126788. 5494.41   1
  -3  -4 -11 143240. 9857.53   1
   3   4  11 133017. 5787.70   1
   3   4  11 128966. 8871.50   1
   3   4  11 133575. 9178.76   1
  -3  -4 -12  49162. 2258.66   1
  -3  -4 -12  48799. 3449.72   1
   3   4  12  52989. 2456.42   1
   3   4  12  50642. 3583.80   1
   3   4  12  45950. 3234.63   1
  -3  -4 -13 4837.98 560.893   1
  -3  -4 -13 6139.66 650.279   1
   3   4  13 6120.11 619.552   1
   3   4  13 5092.17 543.016   1
   3   4  13 4770.94 552.513   1
  -3  -4 -14  12841. 851.116   1
  -3  -4 -14  10623. 935.753   1
   3   4  14  13321. 915.362   1
   3   4  14  11824. 1010.61   1
   3   4  14  10927. 922.066   1
  -3  -4 -15  11609. 878.211   1
  -3  -4 -15  10321. 905.306   1
   3   4  15  10399. 830.167   1
   3   4  15  11885. 988.546   1
   3   4  15  10198. 887.150   1
  -3  -5  13  15142. 953.351   1
  -3  -5  13  13941. 1203.07   1
   3   5 -13  14813. 937.709   1
   3   5 -13  13707. 910.614   1
   3   5 -13  13897. 1116.48   1
   3   5 -13  14087. 1146.37   1
  -3  -5  12  66061. 2983.24   1
  -3  -5  12  66648. 4678.77   1
   3   5 -12  73436. 3270.95   1
   3   5 -12  70279. 3164.80   1
   3   5 -12  67123. 4689.94   1
   3   5 -12  55754. 3924.58   1
  -3  -5  11 130698. 5667.59   1
  -3  -5  11 140559. 9675.97   1
   3   5 -11 141788. 6114.52   1
   3   5 -11 138072. 5966.47   1
   3   5 -11 142207. 9776.53   1
   3   5 -11 134246. 9243.01   1
  -3  -5  10 1669.27 433.240   1
  -3  -5  10 1445.25 448.603   1
   3   5 -10 1634.91 443.016   1
   3   5 -10 1184.08 399.441   1
   3   5 -10 2066.76 495.251   1
   3   5 -10 1618.43 346.368   1
  -3  -5   9  96397. 4226.25   1
  -3  -5   9 105028. 7270.94   1
   3   5  -9  97011. 4245.81   1
   3   5  -9 100503. 4365.92   1
   3   5  -9 112318. 7734.63   1
   3   5  -9  95642. 6622.90   1
  -3  -5   8  41033. 1915.92   1
  -3  -5   8  39274. 2812.85   1
   3   5  -8  41061. 1901.67   1
   3   5  -8  42626. 1982.40   1
   3   5  -8  41257. 2946.92   1
   3   5  -8  39553. 2815.64   1
  -3  -5   7 1419.83 352.234   1
  -3  -5   7  919.55 345.810   1
   3   5  -7  867.88 336.871   1
   3   5  -7  658.10 325.139   1
   3   5  -7 1019.55 332.123   1
   3   5  -7 1431.28 354.469   1
  -3  -5   6 1186.87 318.715   1
  -3  -5   6  697.76 325.698   1
   3   5  -6  734.92 321.508   1
   3   5  -6  779.61 340.223   1
   3   5  -6  976.81 330.447   1
   3   5  -6 1305.86 315.642   1
  -3  -5   5  39050. 1813.13   1
  -3  -5   5  34330. 2465.92   1
   3   5  -5  37765. 1770.95   1
   3   5  -5  40866. 1911.73   1
   3   5  -5  43687. 3103.35   1
   3   5  -5  37682. 2700.83   1
  -3  -5   4 213156. 9108.93   1
  -3  -5   4 200698.  13721.   1
   3   5  -4 215279. 9215.07   1
   3   5  -4 201676. 8622.90   1
   3   5  -4 223938.  15302.   1
   3   5  -4 213463.  14601.   1
  -3  -5   3 1483.52 288.268   1
  -3  -5   3 1088.27 310.894   1
   3   5  -3 1099.16 293.016   1
   3   5  -3  833.52 291.899   1
   3   5  -3 1389.38 300.558   1
   3   5  -3 1077.37 306.145   1
  -3  -5   2 467877.  19802.   1
  -3  -5   2 479888.  32654.   1
  -3  -5   2 423463.  28827.   1
   3   5  -2 467597.  19802.   1
   3   5  -2 443854.  18796.   1
   3   5  -2 456145.  31061.   1
   3   5  -2 475977.  32374.   1
  -3  -5   1 204916. 8748.59   1
  -3  -5   1 195000. 8332.39   1
  -3  -5   1 191955.  13128.   1
  -3  -5   1 184581.  12623.   1
   3   5  -1 203044. 8681.55   1
   3   5  -1 186061. 7946.92   1
   3   5  -1 192262.  13140.   1
   3   5  -1 194693.  13296.   1
  -3  -5   0  32709. 1521.51   1
  -3  -5   0  31760. 1487.43   1
  -3  -5   0  30503. 2184.63   1
  -3  -5   0  29944. 2153.63   1
   3   5   0  28073. 1335.19   1
   3   5   0  29581. 1391.34   1
   3   5   0  30475. 2174.86   1
   3   5   0  32961. 2339.38   1
  -3  -5  -1 102961. 4463.68   1
  -3  -5  -1 103827. 4502.79   1
  -3  -5  -1 101648. 6997.20   1
  -3  -5  -1  99302. 6840.77   1
   3   5   1  99357. 4312.84   1
   3   5   1  97458. 4229.05   1
   3   5   1 101648. 6991.61   1
   3   5   1 102989. 7083.79   1
  -3  -5  -2  23341. 1132.40   1
  -3  -5  -2  20844. 1534.91   1
  -3  -5  -2  22746. 1662.01   1
   3   5   2  21693. 1066.76   1
   3   5   2  22788. 1114.24   1
   3   5   2  23271. 1688.83   1
   3   5   2  22668. 1651.12   1
  -3  -5  -3 6946.92 472.067   1
  -3  -5  -3 6321.22 590.502   1
  -3  -5  -3 6555.86 600.837   1
   3   5   3 6899.43 478.212   1
   3   5   3 5821.22 431.843   1
   3   5   3 7058.65 619.273   1
   3   5   3 6818.43 599.161   1
  -3  -5  -4  10782. 634.916   1
  -3  -5  -4  10581. 859.776   1
  -3  -5  -4 9284.91 775.418   1
   3   5   4  10461. 634.078   1
   3   5   4  10405. 616.759   1
   3   5   4  10511. 849.720   1
   3   5   4  11067. 887.988   1
  -3  -5  -5 168603. 7229.04   1
  -3  -5  -5 153324.  10506.   1
  -3  -5  -5 175782.  12034.   1
   3   5   5 162123. 6955.30   1
   3   5   5 165894. 7114.52   1
   3   5   5 162151.  11103.   1
   3   5   5 163352.  11190.   1
  -3  -5  -6 197598. 8441.33   1
  -3  -5  -6 212877.  14542.   1
  -3  -5  -6 211313.  14447.   1
   3   5   6 197151. 8446.92   1
   3   5   6 199804. 8533.51   1
   3   5   6 200977.  13737.   1
   3   5   6 199972.  13682.   1
  -3  -5  -7  46201. 2102.51   1
  -3  -5  -7  47430. 3351.95   1
  -3  -5  -7  44441. 3142.45   1
   3   5   7  44721. 2068.15   1
   3   5   7  43352. 1987.15   1
   3   5   7  47709. 3368.71   1
   3   5   7  45642. 3212.29   1
  -3  -5  -8 332123.  14112.   1
  -3  -5  -8 322905.  22022.   1
  -3  -5  -8 346927.  23656.   1
   3   5   8 346368.  14721.   1
   3   5   8 318435.  21707.   1
   3   5   8 362290.  24690.   1
  -3  -5  -9 3405.02 448.882   1
  -3  -5  -9 5192.73 556.145   1
  -3  -5  -9 5206.70 591.899   1
   3   5   9 4047.48 472.905   1
   3   5   9 4148.04 457.821   1
   3   5   9 4935.75 544.133   1
  -3  -5 -10  65140. 2924.58   1
  -3  -5 -10  58408. 4094.97   1
  -3  -5 -10  62067. 4346.36   1
   3   5  10  64832. 2935.75   1
   3   5  10  62290. 4349.16   1
   3   5  10  61257. 4279.33   1
  -3  -5 -11  41341. 1932.96   1
  -3  -5 -11  39972. 2860.33   1
   3   5  11  39330. 1861.45   1
   3   5  11  40168. 2868.71   1
   3   5  11  42542. 3013.96   1
  -3  -5 -12 6351.95 574.022   1
  -3  -5 -12 6994.41 688.267   1
   3   5  12 5910.61 589.106   1
   3   5  12 7955.30 746.927   1
   3   5  12 6930.16 691.899   1
  -3  -5 -13    5.66 447.206   1
  -3  -5 -13  121.90 388.268   1
   3   5  13  542.18 460.893   1
   3   5  13  103.30 332.961   1
   3   5  13  669.83 343.296   1
  -3  -5 -14  11260. 807.820   1
  -3  -5 -14  10933. 969.273   1
   3   5  14  12274. 895.809   1
   3   5  14  11240. 950.837   1
   3   5  14  10478. 931.005   1
  -3  -5 -15  48883. 2323.74   1
  -3  -5 -15  43520. 3106.14   1
   3   5  15  51592. 2442.46   1
   3   5  15  39888. 2865.92   1
   3   5  15  45810. 3245.81   1
  -3  -6  12  85726. 3790.50   1
  -3  -6  12  90112. 6251.39   1
   3   6 -12  84525. 3759.77   1
   3   6 -12  85978. 3807.26   1
   3   6 -12  70866. 4960.89   1
   3   6 -12  81788. 5681.56   1
  -3  -6  11 7067.03 629.050   1
  -3  -6  11 7519.55 788.826   1
   3   6 -11 7955.30 598.882   1
   3   6 -11 7991.61 667.318   1
   3   6 -11 7851.95 777.932   1
   3   6 -11 7592.17 770.390   1
  -3  -6  10  13587. 836.871   1
  -3  -6  10  13061. 1129.89   1
   3   6 -10  13578. 813.128   1
   3   6 -10  13371. 824.580   1
   3   6 -10  13251. 1127.09   1
   3   6 -10  14559. 1169.55   1
  -3  -6   9  22916. 1179.89   1
  -3  -6   9  20930. 1594.41   1
   3   6  -9  20581. 1095.53   1
   3   6  -9  19774. 1045.53   1
   3   6  -9  21871. 1621.23   1
   3   6  -9  20726. 1598.32   1
  -3  -6   8  24567. 1241.62   1
  -3  -6   8  23439. 1756.42   1
   3   6  -8  28184. 1391.06   1
   3   6  -8  25385. 1288.83   1
   3   6  -8  25025. 1853.35   1
   3   6  -8  25503. 1849.16   1
  -3  -6   7  17380. 965.362   1
  -3  -6   7  17162. 1347.48   1
   3   6  -7  16927. 935.474   1
   3   6  -7  16670. 894.412   1
   3   6  -7  18517. 1383.24   1
   3   6  -7  15022. 1196.93   1
  -3  -6   6  11184. 696.927   1
  -3  -6   6  10061. 875.139   1
   3   6  -6  10838. 662.010   1
   3   6  -6  10559. 674.860   1
   3   6  -6  11371. 904.468   1
   3   6  -6  11492. 964.245   1
  -3  -6   5 155754. 6698.32   1
  -3  -6   5 157151.  10779.   1
   3   6  -5 154469. 6631.28   1
   3   6  -5 155307. 6684.35   1
   3   6  -5 156536.  10740.   1
   3   6  -5 153966.  10547.   1
  -3  -6   4  44693. 2052.23   1
  -3  -6   4  49441. 3477.65   1
   3   6  -4  45000. 2074.02   1
   3   6  -4  42989. 1992.46   1
   3   6  -4  51425. 3625.69   1
   3   6  -4  43380. 3039.10   1
  -3  -6   3 211257. 9030.72   1
  -3  -6   3 210391.  14383.   1
   3   6  -3 207653. 8882.67   1
   3   6  -3 210810. 9011.16   1
   3   6  -3 201396.  13768.   1
   3   6  -3 195726.  13374.   1
  -3  -6   2 293296.  12478.   1
  -3  -6   2 308380.  21014.   1
  -3  -6   2 289944.  19765.   1
   3   6  -2 305866.  13006.   1
   3   6  -2 297486.  12659.   1
   3   6  -2 287989.  19642.   1
   3   6  -2 323184.  22000.   1
  -3  -6   1 1026.26 273.491   1
  -3  -6   1  692.74 268.882   1
  -3  -6   1  527.93 294.413   1
  -3  -6   1  615.36 274.162   1
   3   6  -1  778.21 287.430   1
   3   6  -1 1144.97 295.530   1
   3   6  -1  905.31 256.732   1
   3   6  -1 1307.54 282.123   1
  -3  -6   0  39246. 1797.76   1
  -3  -6   0  40000. 1846.37   1
  -3  -6   0  35531. 2529.89   1
  -3  -6   0  39497. 2796.09   1
   3   6   0  37793. 1759.50   1
   3   6   0  38994. 1812.01   1
   3   6   0  40642. 2857.54   1
   3   6   0  39581. 2785.19   1
  -3  -6  -1  43659. 1988.27   1
  -3  -6  -1  45251. 2063.41   1
  -3  -6  -1  41061. 2899.44   1
  -3  -6  -1  38715. 2741.90   1
   3   6   1  41927. 1933.52   1
   3   6   1  42123. 1940.78   1
   3   6   1  43911. 3072.62   1
   3   6   1  44832. 3142.45   1
  -3  -6  -2  56983. 2541.62   1
  -3  -6  -2  49469. 3466.48   1
  -3  -6  -2  47737. 3349.16   1
   3   6   2  53771. 2429.89   1
   3   6   2  57151. 2566.48   1
   3   6   2  53631. 3729.05   1
   3   6   2  54134. 3770.95   1
  -3  -6  -3  15665. 827.932   1
   3   6   3  14589. 815.642   1
   3   6   3  14402. 800.279   1
   3   6   3  14475. 1106.98   1
   3   6   3  15936. 1194.13   1
  -3  -6  -4 119944. 5184.35   1
  -3  -6  -4 116061. 7974.85   1
  -3  -6  -4 109274. 7519.55   1
   3   6   4 118352. 5122.90   1
   3   6   4 109190. 4768.15   1
   3   6   4 112933. 7762.56   1
   3   6   4 106397. 7301.67   1
  -3  -6  -5 388547.  16466.   1
  -3  -6  -5 403910.  27497.   1
  -3  -6  -5 387150.  26360.   1
   3   6   5 375139.  15939.   1
   3   6   5 344972.  14648.   1
   3   6   5 359218.  24461.   1
   3   6   5 365642.  24899.   1
  -3  -6  -6 2190.78 358.659   1
  -3  -6  -6 2591.06 410.335   1
  -3  -6  -6 2754.19 436.033   1
   3   6   6 1992.46 362.849   1
   3   6   6 1808.94 362.569   1
   3   6   6 1913.96 322.905   1
   3   6   6 2359.77 383.798   1
  -3  -6  -7 356704.  15131.   1
  -3  -6  -7 380726.  25925.   1
  -3  -6  -7 408100.  27807.   1
   3   6   7 369553.  15701.   1
   3   6   7 373743.  15883.   1
   3   6   7 387430.  26397.   1
   3   6   7 369273.  25156.   1
  -3  -6  -8 105670. 4597.76   1
  -3  -6  -8 102067. 7047.48   1
  -3  -6  -8 108073. 7466.47   1
   3   6   8 102654. 4500.00   1
   3   6   8 106229. 4653.63   1
   3   6   8 102402. 7053.07   1
   3   6   8 107598. 7410.61   1
  -3  -6  -9  13310. 775.977   1
  -3  -6  -9  12964. 1058.94   1
  -3  -6  -9  13352. 1078.77   1
   3   6   9  14014. 795.251   1
   3   6   9  14455. 860.614   1
   3   6   9  13782. 1113.69   1
   3   6   9  14112. 1105.59   1
  -3  -6 -10  11662. 729.608   1
  -3  -6 -10  10179. 892.457   1
  -3  -6 -10  10648. 905.027   1
   3   6  10  11022. 943.854   1
   3   6  10  10115. 858.938   1
  -3  -6 -11  16841. 949.720   1
  -3  -6 -11  15165. 1194.97   1
  -3  -6 -11  19355. 1481.00   1
   3   6  11  18383. 1029.05   1
   3   6  11  17349. 1353.91   1
   3   6  11  19464. 1467.32   1
  -3  -6 -12  17972. 1011.45   1
  -3  -6 -12  18483. 1430.72   1
   3   6  12  16492. 980.446   1
   3   6  12  17126. 1319.55   1
   3   6  12  17279. 1347.76   1
  -3  -6 -13  979.61 482.960   1
  -3  -6 -13  811.17 410.614   1
   3   6  13  618.99 496.927   1
   3   6  13  668.99 402.793   1
   3   6  13  807.82 365.642   1
  -3  -6 -14  49525. 2329.33   1
  -3  -6 -14  55391. 3893.85   1
   3   6  14  54246. 2544.97   1
   3   6  14  45950. 3262.57   1
   3   6  14  58603. 4120.11   1
  -3  -7  11  234.36 505.586   1
  -3  -7  11  113.71 547.206   1
   3   7 -11  707.26 505.027   1
   3   7 -11 -184.58 459.497   1
   3   7 -11  183.21 471.229   1
   3   7 -11  463.41 545.530   1
  -3  -7  10  785.47 444.413   1
  -3  -7  10  760.33 512.290   1
   3   7 -10  645.53 456.424   1
   3   7 -10  886.31 434.357   1
   3   7 -10 1175.14 490.223   1
   3   7 -10 1278.49 458.659   1
  -3  -7   9  34246. 1648.32   1
  -3  -7   9  32235. 2354.47   1
   3   7  -9  34106. 1673.18   1
   3   7  -9  35642. 1711.45   1
   3   7  -9  36285. 2612.01   1
   3   7  -9  30894. 2290.22   1
  -3  -7   8  72235. 3201.11   1
  -3  -7   8  77402. 5388.26   1
   3   7  -8  73547. 3259.77   1
   3   7  -8  75950. 3343.57   1
   3   7  -8  77402. 5368.71   1
   3   7  -8  68715. 4821.22   1
  -3  -7   7 2882.68 443.854   1
  -3  -7   7 2152.23 467.039   1
   3   7  -7 2667.04 428.491   1
   3   7  -7 2452.51 434.916   1
   3   7  -7 2249.72 510.055   1
   3   7  -7 1800.28 367.318   1
  -3  -7   6 186843. 8008.37   1
  -3  -7   6 184888.  12662.   1
   3   7  -6 190391. 8164.80   1
   3   7  -6 179972. 7726.25   1
   3   7  -6 186033.  12709.   1
   3   7  -6 179078.  12277.   1
  -3  -7   5 110084. 4793.29   1
  -3  -7   5 114329. 7879.88   1
   3   7  -5 113408. 4924.58   1
   3   7  -5 122262. 5307.26   1
   3   7  -5 122290. 8421.78   1
   3   7  -5 113156. 7770.94   1
  -3  -7   4  61592. 2762.01   1
  -3  -7   4  63492. 4438.54   1
   3   7  -4  61341. 2760.33   1
   3   7  -4  62961. 2792.73   1
   3   7  -4  58156. 4039.10   1
   3   7  -4  61844. 4321.22   1
  -3  -7   3 159497. 6860.33   1
  -3  -7   3 153240.  10517.   1
   3   7  -3 155838. 6692.73   1
   3   7  -3 148799. 6410.61   1
   3   7  -3 149441.  10240.   1
   3   7  -3 176201.  12070.   1
  -3  -7   2  16701. 887.709   1
  -3  -7   2  16846. 1308.10   1
   3   7  -2  16000. 846.647   1
   3   7  -2  16545. 891.619   1
   3   7  -2  16941. 1270.11   1
   3   7  -2  18120. 1379.89   1
  -3  -7   1  514.80 282.123   1
  -3  -7   1  439.66 279.609   1
  -3  -7   1  548.04 363.128   1
  -3  -7   1  686.31 347.206   1
   3   7  -1  404.19 286.871   1
   3   7  -1  230.25 304.748   1
   3   7  -1  829.89 310.614   1
   3   7  -1  713.69 289.944   1
  -3  -7   0 4223.46 407.541   1
  -3  -7   0 3614.52 386.033   1
  -3  -7   0 4343.57 518.994   1
  -3  -7   0 3466.48 491.620   1
   3   7   0 3980.44 403.352   1
   3   7   0 3103.35 398.324   1
   3   7   0 3974.86 464.804   1
   3   7   0 3980.44 442.178   1
  -3  -7  -1  84665. 3703.91   1
  -3  -7  -1  88296. 3871.50   1
  -3  -7  -1  87458. 6047.48   1
  -3  -7  -1  89804. 6209.49   1
   3   7   1  87235. 3837.98   1
   3   7   1  83827. 3687.15   1
   3   7   1  88994. 6134.07   1
   3   7   1  90726. 6254.18   1
  -3  -7  -2  52039. 2336.87   1
  -3  -7  -2  57011. 3988.82   1
  -3  -7  -2  53073. 3729.05   1
   3   7   2  50670. 2312.85   1
   3   7   2  51006. 2323.18   1
   3   7   2  49581. 3466.48   1
   3   7   2  50782. 3547.48   1
  -3  -7  -3  47709. 2158.94   1
  -3  -7  -3  49916. 3508.38   1
  -3  -7  -3  50223. 3527.93   1
   3   7   3  47542. 2180.72   1
   3   7   3  47346. 2182.96   1
   3   7   3  46871. 3282.12   1
   3   7   3  47486. 3329.61   1
  -3  -7  -4 205112. 8768.15   1
  -3  -7  -4 182123.  12475.   1
  -3  -7  -4 209525.  14324.   1
   3   7   4 201452. 8628.48   1
   3   7   4 202961. 8695.52   1
   3   7   4 209916.  14330.   1
   3   7   4 206005.  14078.   1
  -3  -7  -5  21838. 1099.72   1
  -3  -7  -5  24399. 1809.22   1
  -3  -7  -5  23978. 1771.23   1
   3   7   5  23179. 1171.51   1
   3   7   5  21441. 1112.85   1
   3   7   5  25014. 1819.83   1
   3   7   5  23573. 1727.09   1
  -3  -7  -6 130614. 5648.04   1
  -3  -7  -6 144302. 9913.40   1
  -3  -7  -6 135978. 9332.39   1
   3   7   6 130251. 5664.80   1
   3   7   6 124329. 5402.23   1
   3   7   6 142653. 9779.32   1
   3   7   6 128743. 8840.77   1
  -3  -7  -7 120028. 5212.29   1
  -3  -7  -7 120391. 8287.70   1
  -3  -7  -7 116033. 7980.44   1
   3   7   7 124274. 5407.82   1
   3   7   7 111788. 4877.09   1
   3   7   7 120978. 8304.46   1
   3   7   7 111229. 7653.62   1
  -3  -7  -8 6365.92 529.329   1
  -3  -7  -8 4790.50 553.072   1
  -3  -7  -8 6075.41 631.843   1
   3   7   8 6175.97 556.145   1
   3   7   8 6223.46 535.195   1
   3   7   8 6248.60 618.714   1
   3   7   8 5505.58 566.201   1
  -3  -7  -9   92.15 355.028   1
  -3  -7  -9  567.32 364.804   1
  -3  -7  -9  554.75 401.396   1
   3   7   9  -11.34 390.782   1
   3   7   9   54.89 406.145   1
   3   7   9  588.27 316.201   1
   3   7   9  577.93 347.486   1
  -3  -7 -10  11729. 759.217   1
  -3  -7 -10  11394. 974.021   1
  -3  -7 -10  10640. 918.714   1
   3   7  10  13609. 850.278   1
   3   7  10  11656. 763.966   1
   3   7  10  12589. 1030.17   1
   3   7  10  11324. 956.982   1
  -3  -7 -11  61480. 2753.35   1
  -3  -7 -11  61704. 4315.64   1
   3   7  11  58212. 2627.65   1
   3   7  11  65223. 2955.30   1
   3   7  11  55866. 3918.99   1
   3   7  11  62318. 4354.74   1
  -3  -7 -12  10595. 746.647   1
  -3  -7 -12  10841. 961.731   1
   3   7  12  10170. 739.664   1
   3   7  12 9910.60 767.876   1
   3   7  12  11536. 985.753   1
   3   7  12  11790. 996.647   1
  -3  -7 -13  48324. 2251.39   1
  -3  -7 -13  45782. 3254.19   1
   3   7  13  44078. 2059.22   1
   3   7  13  40642. 1958.10   1
   3   7  13  48827. 3463.68   1
   3   7  13  41927. 3005.58   1
  -3  -8  10 4857.54 757.820   1
  -3  -8   9  82989. 3667.59   1
  -3  -8   9  78659. 5488.82   1
   3   8  -9  89637. 3960.89   1
   3   8  -9  83128. 3662.01   1
   3   8  -9  80028. 5558.65   1
   3   8  -9  76229. 5363.12   1
  -3  -8   8  17796. 1005.86   1
  -3  -8   8  16254. 1311.17   1
   3   8  -8  18142. 1030.17   1
   3   8  -8  18212. 973.463   1
   3   8  -8  20008. 1528.77   1
   3   8  -8  17922. 1479.61   1
  -3  -8   7  76145. 3382.68   1
  -3  -8   7  78464. 5449.71   1
   3   8  -7  77486. 3421.78   1
   3   8  -7  78464. 3502.79   1
   3   8  -7  78268. 5427.37   1
   3   8  -7  73156. 5111.73   1
  -3  -8   6  96341. 4201.11   1
  -3  -8   6  93324. 6463.68   1
   3   8  -6  94721. 4134.07   1
   3   8  -6  97570. 4270.95   1
   3   8  -6  95922. 6645.24   1
   3   8  -6  79637. 5525.13   1
  -3  -8   5 2972.06 429.050   1
  -3  -8   5 3522.34 520.391   1
   3   8  -5 3106.14 442.458   1
   3   8  -5 3047.48 410.893   1
   3   8  -5 3206.70 417.318   1
   3   8  -5 4050.28 566.759   1
  -3  -8   4  24816. 1242.46   1
  -3  -8   4  24302. 1813.13   1
   3   8  -4  23589. 1195.53   1
   3   8  -4  20969. 1089.38   1
   3   8  -4  22737. 1659.50   1
   3   8  -4  23025. 1710.61   1
  -3  -8   3  19662. 1021.23   1
  -3  -8   3  20003. 1531.00   1
   3   8  -3  20503. 1072.35   1
   3   8  -3  20187. 1053.91   1
   3   8  -3  19229. 1429.33   1
   3   8  -3  19251. 1472.07   1
  -3  -8   2  23299. 1176.54   1
  -3  -8   2  22687. 1699.72   1
   3   8  -2  24765. 1235.47   1
   3   8  -2  23223. 1180.17   1
   3   8  -2  24888. 1833.24   1
   3   8  -2  23033. 1679.89   1
  -3  -8   1  14494. 827.932   1
  -3  -8   1  13025. 775.698   1
  -3  -8   1  13749. 1103.35   1
  -3  -8   1  14704. 1180.45   1
   3   8  -1  14913. 832.681   1
   3   8  -1  14070. 826.535   1
   3   8  -1  14338. 1143.02   1
   3   8  -1  14743. 1119.55   1
  -3  -8   0  96452. 4217.87   1
  -3  -8   0  89721. 3930.16   1
  -3  -8   0  90307. 6251.39   1
  -3  -8   0  89078. 6164.80   1
   3   8   0  88743. 3905.02   1
   3   8   0  88156. 3849.16   1
   3   8   0  87598. 6055.86   1
   3   8   0  87430. 6033.51   1
  -3  -8  -1 269888.  11492.   1
  -3  -8  -1 271145.  18511.   1
  -3  -8  -1 251033.  17142.   1
   3   8   1 255530.  10897.   1
   3   8   1 255056.  10852.   1
   3   8   1 252430.  17218.   1
   3   8   1 250949.  17120.   1
  -3  -8  -2 7656.42 547.765   1
  -3  -8  -2 7270.94 698.882   1
  -3  -8  -2 6639.66 672.346   1
   3   8   2 7648.04 537.988   1
   3   8   2 7589.38 565.362   1
   3   8   2 7662.00 667.038   1
   3   8   2 6513.96 616.201   1
  -3  -8  -3 170922. 7318.43   1
  -3  -8  -3 188631.  12911.   1
  -3  -8  -3 172207.  11796.   1
   3   8   3 163994. 7030.72   1
   3   8   3 162039. 6980.44   1
   3   8   3 158380.  10835.   1
   3   8   3 159832.  10944.   1
  -3  -8  -4  28045. 1350.00   1
  -3  -8  -4  31173. 2251.67   1
  -3  -8  -4  27475. 2018.15   1
   3   8   4  29162. 1425.98   1
   3   8   4  27061. 1325.14   1
   3   8   4  30223. 2149.72   1
   3   8   4  29190. 2106.70   1
  -3  -8  -5  16450. 891.340   1
  -3  -8  -5  18142. 1389.94   1
  -3  -8  -5  19332. 1472.34   1
   3   8   5  16626. 903.072   1
   3   8   5  18735. 1010.61   1
   3   8   5  17134. 1299.16   1
   3   8   5  19112. 1421.23   1
  -3  -8  -6 9427.36 637.150   1
  -3  -8  -6 9298.87 835.474   1
  -3  -8  -6 8589.38 791.619   1
   3   8   6 9765.35 832.681   1
   3   8   6 8796.08 786.312   1
  -3  -8  -7  18117. 994.412   1
  -3  -8  -7  19173. 1468.71   1
  -3  -8  -7  18444. 1413.96   1
   3   8   7  20274. 1057.54   1
   3   8   7  20098. 1074.02   1
   3   8   7  19243. 1445.81   1
   3   8   7  19008. 1450.56   1
  -3  -8  -8  55056. 2487.71   1
  -3  -8  -8  53547. 3768.15   1
  -3  -8  -8  55978. 3938.54   1
   3   8   8  57989. 2632.96   1
   3   8   8  56760. 2549.16   1
   3   8   8  53045. 3734.63   1
   3   8   8  52235. 3659.21   1
  -3  -8  -9 3910.61 487.430   1
  -3  -8  -9 4081.00 570.111   1
  -3  -8  -9 3589.38 533.240   1
   3   8   9 4265.36 527.094   1
   3   8   9 3944.13 508.938   1
   3   8   9 3815.64 513.128   1
   3   8   9 3622.90 526.536   1
  -3  -8 -10  89497. 3932.96   1
  -3  -8 -10  74525. 5187.15   1
  -3  -8 -10  80168. 5564.24   1
   3   8  10  88268. 3899.44   1
   3   8  10  86369. 3815.64   1
   3   8  10  87067. 6033.51   1
   3   8  10  82207. 5709.49   1
  -3  -8 -11  33603. 1638.27   1
  -3  -8 -11  30614. 2240.22   1
   3   8  11  28994. 1475.14   1
   3   8  11  30000. 1465.64   1
   3   8  11  31117. 2271.23   1
   3   8  11  31425. 2301.11   1
  -3  -8 -12  19768. 1108.66   1
  -3  -8 -12  21033. 1633.24   1
   3   8  12  20718. 1153.07   1
   3   8  12  20338. 1174.58   1
   3   8  12  24492. 1825.70   1
   3   8  12  21740. 1667.32   1
  -3  -9   8  13936. 854.468   1
  -3  -9   8  13011. 1149.72   1
   3   9  -8  16514. 920.390   1
   3   9  -8  14866. 968.155   1
   3   9  -8  14260. 1188.55   1
   3   9  -8  15302. 1386.59   1
  -3  -9   7  40503. 1883.24   1
  -3  -9   7  42290. 3061.45   1
   3   9  -7  41397. 1941.06   1
   3   9  -7  38911. 1831.28   1
   3   9  -7  39246. 2804.47   1
   3   9  -7  39469. 2916.20   1
  -3  -9   6 5868.71 534.357   1
  -3  -9   6 5083.79 712.010   1
   3   9  -6 5659.21 578.491   1
   3   9  -6 4343.57 549.999   1
   3   9  -6 4516.75 725.977   1
   3   9  -6 4449.72 576.256   1
  -3  -9   5  467.60 364.804   1
  -3  -9   5  773.18 478.770   1
   3   9  -5  759.50 383.519   1
   3   9  -5  377.65 390.782   1
   3   9  -5  451.95 494.134   1
   3   9  -5  370.67 382.122   1
  -3  -9   4 2372.06 389.944   1
  -3  -9   4 2689.94 549.161   1
   3   9  -4 2960.89 450.558   1
   3   9  -4 2824.02 470.670   1
   3   9  -4 3335.19 482.960   1
   3   9  -4 3256.98 572.625   1
  -3  -9   3  55614. 2500.84   1
  -3  -9   3  55168. 3888.26   1
   3   9  -3  55223. 2506.70   1
   3   9  -3  55251. 2515.64   1
   3   9  -3  54609. 3835.19   1
   3   9  -3  54022. 3776.53   1
  -3  -9   2  55503. 2506.98   1
  -3  -9   2  54525. 3837.98   1
   3   9  -2  54497. 2461.73   1
   3   9  -2  56341. 2525.98   1
   3   9  -2  51397. 3603.35   1
   3   9  -2  54441. 3821.23   1
  -3  -9   1  42542. 1981.00   1
  -3  -9   1  42458. 3025.14   1
   3   9  -1  39888. 1862.57   1
   3   9  -1  38911. 1801.67   1
   3   9  -1  39860. 2826.81   1
   3   9  -1  41229. 2946.92   1
  -3  -9   0 251620.  10712.   1
  -3  -9   0 253994.  10846.   1
  -3  -9   0 255949.  17492.   1
  -3  -9   0 254888.  17411.   1
   3   9   0 232234. 9902.22   1
   3   9   0 238994.  10196.   1
   3   9   0 247262.  16869.   1
   3   9   0 248072.  16933.   1
  -3  -9  -1  16749. 901.954   1
  -3  -9  -1  15941. 1294.13   1
  -3  -9  -1  15768. 1261.45   1
   3   9   1  15330. 858.658   1
   3   9   1  15972. 895.809   1
   3   9   1  14626. 1132.96   1
   3   9   1  15377. 1209.50   1
  -3  -9  -2  82626. 3622.90   1
  -3  -9  -2  91648. 6357.54   1
  -3  -9  -2  91452. 6329.60   1
   3   9   2  85195. 3748.60   1
   3   9   2  95838. 4198.32   1
   3   9   2  88045. 6081.00   1
   3   9   2  84553. 5837.98   1
  -3  -9  -3  47849. 2169.27   1
  -3  -9  -3  50726. 3583.80   1
  -3  -9  -3  46620. 3326.81   1
   3   9   3  48492. 2220.95   1
   3   9   3  45503. 2099.72   1
   3   9   3  49050. 3446.92   1
   3   9   3  46425. 3265.36   1
  -3  -9  -4 1663.13 393.016   1
  -3  -9  -4 1510.89 460.893   1
  -3  -9  -4 1131.00 511.173   1
   3   9   4 1113.69 416.480   1
   3   9   4 1534.91 387.430   1
   3   9   4 1339.66 394.692   1
   3   9   4 1147.21 395.251   1
  -3  -9  -5  560.61 382.961   1
  -3  -9  -5  401.68 450.837   1
  -3  -9  -5  576.26 491.061   1
   3   9   5  549.72 382.961   1
   3   9   5  -33.13 378.491   1
   3   9   5  611.17 351.117   1
   3   9   5  844.13 334.637   1
  -3  -9  -6  13464. 816.759   1
  -3  -9  -6  12073. 1046.65   1
  -3  -9  -6  14369. 1196.93   1
   3   9   6  14022. 1136.59   1
   3   9   6  12824. 1032.96   1
  -3  -9  -7  79525. 3505.58   1
  -3  -9  -7  79190. 5513.96   1
  -3  -9  -7  95810. 6645.24   1
   3   9   7  82989. 3645.25   1
   3   9   7  82011. 3648.04   1
   3   9   7  83408. 5773.74   1
   3   9   7  83827. 5815.64   1
  -3  -9  -8 3108.94 495.530   1
  -3  -9  -8 3486.03 596.089   1
  -3  -9  -8 3960.89 632.960   1
   3   9   8 3837.98 475.698   1
   3   9   8 3692.73 511.731   1
   3   9   8 4187.15 588.826   1
   3   9   8 4586.59 573.184   1
  -3  -9  -9  79022. 3500.00   1
  -3  -9  -9  73464. 5148.04   1
  -3  -9  -9  81341. 5653.63   1
   3   9   9  80363. 3567.04   1
   3   9   9  83212. 3712.29   1
   3   9   9  82626. 5751.39   1
   3   9   9  81145. 5628.49   1
  -3  -9 -10  59274. 2684.91   1
  -3  -9 -10  55503. 3932.96   1
  -3  -9 -10  53911. 3810.05   1
   3   9  10  59078. 2652.79   1
   3   9  10  60922. 2779.61   1
   3   9  10  56508. 3980.44   1
   3   9  10  61089. 4284.91   1
  -3 -10   5  -25.73 415.642   1
  -3 -10   5  411.17 590.781   1
   3  10  -5  410.06 451.955   1
   3  10  -5   58.97 460.614   1
   3  10  -5 -886.03 680.167   1
   3  10  -5 -202.57 493.296   1
  -3 -10   4  29469. 1452.79   1
  -3 -10   4  31229. 2335.19   1
   3  10  -4  29469. 1472.62   1
   3  10  -4  30223. 1485.19   1
   3  10  -4  28073. 2067.88   1
   3  10  -4  30140. 2291.06   1
  -3 -10   3  55419. 2499.44   1
  -3 -10   3  58436. 4139.66   1
   3  10  -3  54860. 2491.06   1
   3  10  -3  54218. 2467.59   1
   3  10  -3  53743. 3837.98   1
   3  10  -3  55950. 3930.16   1
  -3 -10   2 2570.95 446.648   1
  -3 -10   2 1394.13 617.876   1
   3  10  -2 1904.19 455.865   1
   3  10  -2 2409.22 437.988   1
   3  10  -2 1957.54 620.390   1
   3  10  -2 2092.74 496.648   1
  -3 -10   1 106732. 4645.25   1
  -3 -10   1 113464. 7857.53   1
   3  10  -1 106760. 4648.04   1
   3  10  -1 103575. 4508.38   1
   3  10  -1 105028. 7248.60   1
   3  10  -1 124357. 8592.17   1
  -3 -10   0  32905. 1576.26   1
  -3 -10   0  34637. 2559.49   1
   3  10   0  32849. 1576.81   1
   3  10   0  34190. 1653.63   1
   3  10   0  33352. 2466.20   1
   3  10   0  34190. 2467.59   1
  -3 -10  -1 7865.91 637.709   1
  -3 -10  -1 6924.57 829.887   1
  -3 -10  -1 6586.59 827.373   1
   3  10   1 6905.02 582.122   1
   3  10   1 7829.60 617.318   1
   3  10   1 6541.89 772.625   1
   3  10   1 7402.23 731.563   1
  -3 -10  -2  21366. 1122.07   1
  -3 -10  -2  20182. 1624.02   1
  -3 -10  -2  20366. 1610.61   1
   3  10   2  24581. 1248.60   1
   3  10   2  22383. 1149.16   1
   3  10   2  22006. 1699.44   1
   3  10   2  21106. 1596.65   1
  -3 -10  -3  12450. 763.128   1
  -3 -10  -3  13031. 1196.93   1
  -3 -10  -3  14559. 1268.43   1
   3  10   3  13517. 812.569   1
   3  10   3  12589. 798.323   1
   3  10   3  13193. 1105.59   1
   3  10   3  13070. 1114.80   1
  -3 -10  -4  10972. 714.524   1
  -3 -10  -4  10824. 1096.93   1
  -3 -10  -4  13416. 1213.41   1
   3  10   4  11215. 751.675   1
   3  10   4  12229. 795.809   1
   3  10   4  11539. 1028.49   1
   3  10   4  12075. 1058.10   1
  -3 -10  -5 1346.93 468.156   1
  -3 -10  -5 1855.58 679.888   1
  -3 -10  -5 1815.36 624.301   1
   3  10   5 2189.38 420.949   1
   3  10   5 1936.87 477.653   1
   3  10   5 2488.54 552.513   1
   3  10   5 1654.47 548.044   1
  -3 -10  -6  66844. 2986.03   1
  -3 -10  -6  71285. 5016.75   1
  -3 -10  -6  68184. 4804.46   1
   3  10   6  65195. 2927.37   1
   3  10   6  64302. 2865.92   1
   3  10   6  61704. 4346.36   1
   3  10   6  73268. 5108.93   1
  -3 -10  -7  32598. 1606.98   1
  -3 -10  -7  33743. 2501.39   1
  -3 -10  -7  29916. 2257.82   1
   3  10   7  31145. 1545.25   1
   3  10   7  32737. 1633.52   1
   3  10   7  33212. 2443.01   1
   3  10   7  30866. 2282.12   1
  -3 -10  -8  28156. 1386.31   1
  -3 -10  -8  25802. 2009.49   1
  -3 -10  -8  29609. 2235.19   1
   3  10   8  28128. 1428.49   1
   3  10   8  26964. 1397.21   1
   3  10   8  27480. 2049.72   1
   3  10   8  27466. 2076.25   1
  -3 -11   0  601.68 746.927   1
   3  11   0  599.44 430.446   1
   3  11   0  584.92 557.262   1
   3  11   0 1323.74 762.848   1
   3  11   0  440.50 653.631   1
  -3 -11  -1  303.35 500.279   1
  -3 -11  -1  232.57 739.664   1
   3  11   1  374.58 451.117   1
   3  11   1  486.59 490.782   1
   3  11   1 1459.22 818.994   1
   3  11   1  -13.15 649.161   1
  -3 -11  -2  15165. 936.871   1
  -3 -11  -2  15371. 1413.13   1
   3  11   2  14684. 905.586   1
   3  11   2  13416. 850.278   1
   3  11   2  12830. 1185.47   1
   3  11   2  11215. 1212.85   1
  -3 -11  -3  35112. 1723.18   1
  -3 -11  -3  29469. 2264.52   1
  -3 -11  -3  27863. 2256.14   1
   3  11   3  34860. 1722.90   1
   3  11   3  34469. 1653.91   1
   3  11   3  32346. 2455.86   1
   3  11   3  31676. 2386.03   1
  -3 -11  -4 2191.62 529.608   1
  -3 -11  -4 1982.96 746.927   1
  -3 -11  -4 1866.48 926.535   1
   3  11   4 2682.96 612.569   1
   3  11   4 3092.18 509.776   1
   3  11   4  708.66 765.921   1
   3  11   4  987.71 694.971   1
  -4   8   3  43156. 2123.46   1
  -4   8   3  42290. 2106.42   1
   4  -8  -3  43687. 2131.28   1
  -4   8   2  65670. 3033.52   1
  -4   8   2  68715. 3156.42   1
   4  -8  -2  67458. 3078.21   1
  -4   8   1  212.23 669.273   1
  -4   8   1 -107.15 660.335   1
   4  -8  -1   69.78 586.871   1
  -4   8   0  57989. 2715.64   1
  -4   8   0  61676. 2874.30   1
  -4   8  -1  20073. 1236.87   1
  -4   8  -1  18980. 1203.35   1
  -4   8  -2  250.59 713.686   1
  -4   8  -2 -330.73 655.307   1
  -4   8  -3  666.48 699.720   1
  -4   8  -3  766.20 701.675   1
  -4   7   7  412.57 605.307   1
  -4   7   7  785.47 633.240   1
   4  -7  -7  716.76 574.860   1
  -4   7   6  55112. 2570.11   1
  -4   7   6  54385. 2559.49   1
   4  -7  -6  57179. 2608.10   1
  -4   7   5  48659. 2321.51   1
  -4   7   5  48156. 2272.34   1
   4  -7  -5  46341. 2166.20   1
  -4   7   4  26486. 1420.39   1
  -4   7   4  26589. 1421.23   1
   4  -7  -4  26411. 1348.04   1
  -4   7   3  96732. 4282.12   1
  -4   7   3 105223. 4639.66   1
   4  -7  -3  96592. 4240.22   1
  -4   7   2 9365.91 744.133   1
  -4   7   2  10891. 834.357   1
   4  -7  -2  10771. 731.843   1
  -4   7   1  16332. 1003.07   1
  -4   7   1  18240. 1084.92   1
   4  -7  -1  16260. 945.809   1
  -4   7   0  43743. 2072.90   1
  -4   7   0  45056. 2131.84   1
  -4   7  -1  20939. 1163.69   1
  -4   7  -1  21701. 1201.12   1
  -4   7  -2 3385.47 622.904   1
  -4   7  -2 4329.60 598.044   1
  -4   7  -3  17637. 1060.61   1
  -4   7  -3  16581. 1045.53   1
  -4   7  -4  67989. 3083.80   1
  -4   7  -4  66871. 3041.90   1
  -4   7  -5 6025.13 749.161   1
  -4   7  -5 5913.40 704.469   1
  -4   7  -6  50000. 2355.03   1
  -4   7  -6  47346. 2315.08   1
   4  -7   6  52654. 2455.58   1
  -4   7  -7  46592. 2313.96   1
  -4   7  -7  50866. 2419.83   1
   4  -7   7  47011. 2246.65   1
  -4   6   9  19413. 1220.67   1
  -4   6   9  20028. 1169.83   1
  -4   6   9  17598. 1383.24   1
  -4   6   9  20436. 1558.38   1
   4  -6  -9  19528. 1094.69   1
   4  -6  -9  23832. 1858.66   1
   4  -6  -9  20751. 1579.61   1
  -4   6   8 5234.63 687.429   1
  -4   6   8 6243.01 765.362   1
   4  -6  -8 5142.45 616.759   1
   4  -6  -8 4058.65 453.631   1
   4  -6  -8 3148.04 371.787   1
  -4   6   7  65614. 3016.76   1
  -4   6   7  66871. 3039.10   1
   4  -6  -7  68631. 3083.80   1
  -4   6   6 116704. 5131.28   1
  -4   6   6 116732. 5106.14   1
   4  -6  -6 113156. 4927.37   1
  -4   6   5 5505.58 665.642   1
  -4   6   5 6385.47 633.519   1
   4  -6  -5 6332.40 587.988   1
  -4   6   4 115335. 5055.86   1
  -4   6   4 114860. 5011.17   1
   4  -6  -4 113659. 4932.96   1
  -4   6   3  20341. 1121.23   1
  -4   6   3  19452. 1062.01   1
   4  -6  -3  19028. 991.619   1
  -4   6   2 6491.61 611.452   1
  -4   6   2 6645.24 585.754   1
   4  -6  -2 6067.03 509.776   1
  -4   6   1 6701.11 583.519   1
  -4   6   1 6494.41 563.966   1
   4  -6  -1 6980.44 553.072   1
  -4   6   0  41061. 1922.34   1
  -4   6   0  37039. 1765.08   1
   4  -6   0  38240. 1757.26   1
  -4   6  -1  57542. 2605.86   1
  -4   6  -1  55419. 2517.32   1
  -4   6  -2 2815.64 468.435   1
  -4   6  -2 1928.77 445.251   1
  -4   6  -3 158827. 6840.77   1
  -4   6  -3 156955. 6759.77   1
  -4   6  -4  47514. 2206.98   1
  -4   6  -4  47849. 2203.35   1
  -4   6  -5  41452. 1976.53   1
  -4   6  -5  42961. 2015.08   1
   4  -6   5  42235. 1957.26   1
  -4   6  -6  61927. 2851.95   1
  -4   6  -6  62095. 2804.47   1
   4  -6   6  63855. 2854.75   1
  -4   6  -7 7717.87 808.938   1
  -4   6  -7 8349.15 703.072   1
  -4   6  -7 6326.81 557.541   1
  -4   6  -7 6567.03 620.670   1
   4  -6   7 8081.00 659.776   1
   4  -6   7 8058.65 746.368   1
   4  -6   7 6835.19 684.636   1
  -4   6  -8 -358.66 630.167   1
  -4   6  -8  731.84 584.916   1
  -4   6  -8 -195.61 562.849   1
  -4   6  -8  422.07 481.564   1
   4  -6   8 -140.95 491.340   1
   4  -6   8  500.56 569.273   1
   4  -6   8 -449.44 670.670   1
  -4   6  -9 6164.80 875.697   1
  -4   6  -9 6382.67 780.446   1
  -4   6  -9 7561.44 919.831   1
  -4   6  -9 6634.07 891.061   1
   4  -6   9 6167.59 677.653   1
   4  -6   9 6857.53 973.183   1
   4  -6   9 7332.39 1014.24   1
  -4   5  11  107.60 704.748   1
  -4   5  11  632.68 658.659   1
  -4   5  11  611.17 812.290   1
   4  -5 -11  439.66 597.485   1
   4  -5 -11  291.06 573.742   1
   4  -5 -11 2239.38 769.552   1
  -4   5  10  58380. 2728.21   1
  -4   5  10  63100. 4441.34   1
  -4   5  10  65866. 4614.52   1
   4  -5 -10  61844. 2810.05   1
   4  -5 -10  58100. 4122.90   1
   4  -5 -10  64218. 4544.69   1
  -4   5   9  50810. 2377.09   1
  -4   5   9  50978. 2449.44   1
  -4   5   9  47570. 3374.30   1
  -4   5   9  52095. 3664.80   1
   4  -5  -9  49916. 2317.32   1
   4  -5  -9  50335. 3581.00   1
   4  -5  -9  49553. 3502.79   1
  -4   5   8  26006. 1414.80   1
  -4   5   8  27366. 1401.12   1
  -4   5   8  30670. 2232.40   1
  -4   5   8  29050. 2099.44   1
   4  -5  -8  27282. 1372.34   1
   4  -5  -8  32430. 2360.89   1
   4  -5  -8  31369. 2298.32   1
  -4   5   7 211508. 9061.44   1
  -4   5   7 211760. 9097.76   1
  -4   5   7 218184.  14897.   1
  -4   5   7 190028.  12975.   1
   4  -5  -7 205810. 8793.29   1
   4  -5  -7 226983.  15506.   1
   4  -5  -7 222961.  15237.   1
  -4   5   6  22212. 1178.21   1
  -4   5   6  23405. 1237.43   1
  -4   5   6  21704. 1542.74   1
  -4   5   6  20601. 1449.72   1
   4  -5  -6  20226. 1059.22   1
   4  -5  -6  19508. 1395.25   1
   4  -5  -6  22095. 1587.99   1
  -4   5   5  43771. 2053.91   1
  -4   5   5  45978. 2110.05   1
   4  -5  -5  45503. 2065.36   1
  -4   5   4  14098. 863.128   1
  -4   5   4  13763. 822.346   1
   4  -5  -4  13344. 742.737   1
  -4   5   3 2544.69 459.217   1
  -4   5   3 2938.54 422.625   1
   4  -5  -3 2448.04 360.056   1
  -4   5   2  15095. 831.563   1
  -4   5   2  16707. 931.284   1
   4  -5  -2  14782. 786.312   1
  -4   5   1 8536.30 622.625   1
  -4   5   1 7787.70 575.418   1
   4  -5  -1 7522.34 524.580   1
  -4   5   0 183324. 7846.36   1
  -4   5   0 198966. 8527.92   1
   4  -5   0 176229. 7522.34   1
  -4   5  -1  14567. 822.625   1
  -4   5  -1  13673. 772.066   1
  -4   5  -2 172709. 7407.81   1
  -4   5  -2 179916. 7709.49   1
  -4   5  -3 125614. 5424.58   1
  -4   5  -3 122570. 5298.88   1
  -4   5  -4 7706.70 597.206   1
  -4   5  -4 8220.66 611.173   1
   4  -5   4 7879.88 548.603   1
  -4   5  -5  46704. 2141.34   1
  -4   5  -5  47961. 2208.94   1
  -4   5  -5  42430. 2930.16   1
  -4   5  -5  45950. 3178.77   1
   4  -5   5  49721. 2245.25   1
   4  -5   5  48408. 3357.54   1
   4  -5   5  44832. 3108.94   1
  -4   5  -6  10908. 702.513   1
  -4   5  -6 9243.01 681.284   1
  -4   5  -6 8667.59 697.206   1
   4  -5   6  10006. 635.195   1
   4  -5   6 9969.26 844.692   1
   4  -5   6 8396.64 755.865   1
  -4   5  -7  13578. 825.698   1
  -4   5  -7  12461. 844.133   1
  -4   5  -7  13383. 1059.78   1
   4  -5   7  11581. 728.212   1
   4  -5   7  14408. 1166.76   1
   4  -5   7  14089. 1160.33   1
  -4   5  -8 1045.25 475.977   1
  -4   5  -8  531.56 574.022   1
  -4   5  -8 1696.37 486.033   1
   4  -5   8 1486.87 464.804   1
   4  -5   8  749.16 527.653   1
   4  -5   8 1495.53 475.418   1
  -4   5  -9  76229. 3458.10   1
  -4   5  -9  81089. 3603.35   1
  -4   5  -9  91927. 6413.40   1
   4  -5   9  74497. 3321.23   1
   4  -5   9  84413. 5893.85   1
   4  -5   9  84804. 5927.37   1
  -4   5 -10  69525. 3156.42   1
  -4   5 -10  65335. 3027.93   1
  -4   5 -10  73436. 5159.21   1
   4  -5  10  68184. 3083.80   1
   4  -5  10  61508. 4349.16   1
   4  -5  10  71955. 5072.62   1
  -4   5 -11 4217.87 804.189   1
  -4   5 -11 4829.60 748.882   1
  -4   5 -11 4837.98 885.195   1
   4  -5  11 4217.87 678.212   1
   4  -5  11 4432.96 840.223   1
   4  -5  11 6385.47 896.368   1
  -4   4  12 9326.81 875.139   1
   4  -4 -12 7483.23 766.200   1
   4  -4 -12 8312.84 866.480   1
   4  -4 -12 8893.85 909.496   1
  -4   4  11  70475. 3223.46   1
  -4   4  11  75168. 5287.70   1
  -4   4  11  73408. 5136.87   1
   4  -4 -11  69022. 3108.94   1
   4  -4 -11  64218. 4536.31   1
   4  -4 -11  75000. 5268.15   1
  -4   4  10  94665. 4229.05   1
  -4   4  10  94860. 6586.59   1
  -4   4  10  88547. 6139.66   1
   4  -4 -10  89944. 3986.03   1
   4  -4 -10  93687. 6497.20   1
   4  -4 -10  89637. 6234.63   1
  -4   4   9 7374.29 718.435   1
  -4   4   9 8547.48 836.871   1
  -4   4   9 8125.69 764.804   1
   4  -4  -9 7472.06 629.888   1
   4  -4  -9 9265.35 839.664   1
   4  -4  -9 8234.63 817.038   1
  -4   4   8 126760. 5544.69   1
  -4   4   8 122235. 8407.81   1
  -4   4   8 134916. 9251.39   1
   4  -4  -8 128212. 5536.31   1
   4  -4  -8 128855. 8863.12   1
   4  -4  -8 125140. 8620.10   1
  -4   4   7  74776. 3368.71   1
  -4   4   7  73492. 5100.55   1
  -4   4   7  83296. 5740.22   1
   4  -4  -7  76816. 3396.64   1
   4  -4  -7  82179. 5673.18   1
   4  -4  -7  72374. 5033.51   1
  -4   4   6  107.71 381.843   1
  -4   4   6  899.72 435.474   1
  -4   4   6  576.82 267.653   1
  -4   4   6  -52.49 314.525   1
   4  -4  -6 -543.02 346.368   1
   4  -4  -6  -59.94 304.190   1
   4  -4  -6  -10.41 364.245   1
  -4   4   5  19578. 1065.64   1
  -4   4   5  17983. 1001.40   1
  -4   4   5  17911. 1308.94   1
  -4   4   5  17997. 1279.61   1
   4  -4  -5  18101. 933.239   1
   4  -4  -5  17980. 1331.84   1
   4  -4  -5  17573. 1274.58   1
  -4   4   4  85000. 3751.39   1
  -4   4   4  76564. 3396.64   1
  -4   4   4  75866. 5192.73   1
  -4   4   4  77067. 5293.29   1
   4  -4  -4  77262. 3374.30   1
   4  -4  -4  72709. 4986.03   1
   4  -4  -4  82821. 5692.73   1
  -4   4   3  91452. 4005.58   1
  -4   4   3  87318. 3832.40   1
   4  -4  -3  86508. 3740.22   1
  -4   4   2 1779.61 336.033   1
  -4   4   2 1640.78 363.128   1
   4  -4  -2 1616.20 291.899   1
  -4   4   1 332681.  14109.   1
  -4   4   1 327374.  13888.   1
   4  -4  -1 327095.  13838.   1
  -4   4   0 120531. 5187.15   1
  -4   4   0 120698. 5195.53   1
   4  -4   0 121033. 5173.18   1
  -4   4  -1 124553. 5357.54   1
  -4   4  -1 117793. 5072.62   1
  -4   4  -2 130978. 5625.69   1
  -4   4  -2 133771. 5743.01   1
  -4   4  -3  19749. 988.826   1
  -4   4  -3  18109. 924.301   1
  -4   4  -3  18483. 1287.15   1
   4  -4   3  16371. 1165.92   1
   4  -4   3  16511. 1164.80   1
  -4   4  -4 5698.32 464.804   1
  -4   4  -4 6717.87 479.050   1
  -4   4  -4 4564.24 383.240   1
   4  -4   4 6276.53 450.837   1
   4  -4   4 4905.02 472.905   1
   4  -4   4 4692.73 438.547   1
  -4   4  -5 3413.40 399.162   1
  -4   4  -5 2905.02 410.335   1
  -4   4  -5 3329.61 349.720   1
   4  -4   5 2749.72 327.095   1
   4  -4   5 2877.09 406.145   1
   4  -4   5 2205.03 418.156   1
  -4   4  -6  19751. 1034.08   1
  -4   4  -6  22668. 1130.45   1
  -4   4  -6  23478. 1688.83   1
   4  -4   6  22310. 1097.48   1
   4  -4   6  20874. 1567.04   1
   4  -4   6  23894. 1731.84   1
  -4   4  -7  46480. 2122.06   1
  -4   4  -7  40447. 1912.29   1
  -4   4  -7  46955. 3301.67   1
   4  -4   7  41704. 1900.56   1
   4  -4   7  43352. 3086.59   1
   4  -4   7  42290. 2977.65   1
  -4   4  -8  69022. 3094.97   1
  -4   4  -8  76006. 3360.33   1
  -4   4  -8  92235. 6391.05   1
   4  -4   8  73408. 3248.60   1
   4  -4   8  74274. 5192.73   1
   4  -4   8  77877. 5405.02   1
  -4   4  -9 155950. 6729.04   1
  -4   4  -9 146620. 6360.33   1
  -4   4  -9 150586.  10355.   1
   4  -4   9 155642. 6692.73   1
   4  -4   9 147626.  10159.   1
   4  -4   9 157933.  10877.   1
  -4   4 -10  760.06 560.614   1
  -4   4 -10  803.07 523.463   1
  -4   4 -10   52.96 498.882   1
   4  -4  10   82.29 474.022   1
   4  -4  10  406.42 458.379   1
   4  -4  10   98.63 536.312   1
  -4   4 -11  50195. 2387.71   1
  -4   4 -11  51425. 2393.29   1
  -4   4 -11  42318. 3083.80   1
   4  -4  11  53296. 2481.84   1
  -4   4 -12  16240. 1406.70   1
   4  -4  12  19056. 1172.90   1
  -4   3  13  29916. 1622.07   1
   4  -3 -13  30084. 1609.77   1
  -4   3  12  23620. 1322.35   1
   4  -3 -12  26659. 1442.74   1
  -4   3  11 112207. 4952.51   1
   4  -3 -11 106927. 4695.53   1
  -4   3  10 1279.05 554.748   1
  -4   3  10 1092.18 388.547   1
  -4   3  10 1354.19 436.312   1
   4  -3 -10  715.36 457.541   1
   4  -3 -10 1058.94 394.413   1
   4  -3 -10 2052.51 475.418   1
  -4   3   9  61536. 2835.19   1
  -4   3   9  71704. 4997.20   1
  -4   3   9  58603. 4111.73   1
   4  -3  -9  61760. 2807.26   1
   4  -3  -9  57793. 4050.28   1
   4  -3  -9  61564. 4324.02   1
  -4   3   8  17838. 1070.11   1
  -4   3   8  20598. 1529.05   1
   4  -3  -8  17452. 947.764   1
   4  -3  -8  18754. 1418.43   1
   4  -3  -8  17352. 1365.92   1
  -4   3   7  17844. 1020.67   1
  -4   3   7  19966. 1493.02   1
   4  -3  -7  18863. 977.373   1
   4  -3  -7  17860. 1380.45   1
   4  -3  -7  17592. 1327.93   1
  -4   3   6 4159.21 526.256   1
  -4   3   6 4326.81 463.966   1
   4  -3  -6 4181.56 421.508   1
   4  -3  -6 3868.71 494.972   1
   4  -3  -6 4111.73 442.458   1
  -4   3   5  92626. 4081.00   1
  -4   3   5  98464. 6743.01   1
   4  -3  -5  99106. 4282.12   1
  -4   3   4 258380.  11006.   1
  -4   3   4 244273.  10427.   1
  -4   3   4 253380.  17257.   1
   4  -3  -4 254190.  10804.   1
  -4   3   3  12073. 681.843   1
  -4   3   3  12416. 725.698   1
  -4   3   3  11277. 825.139   1
   4  -3  -3  10961. 622.066   1
  -4   3   2 315642.  13391.   1
  -4   3   2 303910.  12902.   1
  -4   3   2 309218.  21056.   1
   4  -3  -2 296089.  12567.   1
  -4   3   1 167961. 7175.97   1
  -4   3   1 164776. 7036.31   1
  -4   3   1 163268.  11142.   1
   4  -3  -1 166257. 7083.79   1
   4  -3  -1 164525.  11237.   1
   4  -3  -1 167290.  11427.   1
  -4   3   0  33855. 1543.02   1
  -4   3   0  32235. 1455.31   1
  -4   3   0  30056. 2082.68   1
   4  -3   0  33045. 1482.12   1
   4  -3   0  32290. 2242.18   1
   4  -3   0  32402. 2254.19   1
  -4   3  -1  60642. 2651.39   1
  -4   3  -1  63156. 2750.00   1
   4  -3   1  56508. 3896.64   1
   4  -3   1  58464. 4013.96   1
  -4   3  -2  84441. 3650.83   1
  -4   3  -2  83938. 3622.90   1
  -4   3  -2  77011. 5276.53   1
   4  -3   2  73296. 5047.48   1
   4  -3   2  75698. 5187.15   1
  -4   3  -3  40028. 1798.88   1
  -4   3  -3  41704. 1856.42   1
  -4   3  -3  42737. 2958.10   1
   4  -3   3  41033. 1814.52   1
  -4   3  -4 2471.51 316.759   1
  -4   3  -4 2958.10 315.921   1
  -4   3  -4 2484.91 306.424   1
   4  -3   4 2720.67 291.899   1
   4  -3   4 1773.18 353.631   1
   4  -3   4 2249.72 307.262   1
  -4   3  -5  59609. 2625.42   1
  -4   3  -5  64525. 2854.75   1
  -4   3  -5  60503. 4175.97   1
   4  -3   5  60642. 2648.88   1
  -4   3  -6 136452. 5885.47   1
  -4   3  -6 147877. 6340.78   1
  -4   3  -6 151760.  10391.   1
   4  -3   6 140112. 6002.79   1
  -4   3  -7  10056. 667.597   1
  -4   3  -7  10788. 652.234   1
  -4   3  -7  11508. 932.960   1
   4  -3   7  11098. 663.966   1
   4  -3   7  10897. 989.664   1
   4  -3   7 9301.67 797.765   1
  -4   3  -8 175977. 7561.44   1
  -4   3  -8 188743. 8078.20   1
  -4   3  -8 189804.  12997.   1
   4  -3   8 185391. 7924.57   1
   4  -3   8 173491.  11925.   1
   4  -3   8 183659.  12575.   1
  -4   3  -9  24919. 1273.18   1
  -4   3  -9  26793. 1322.90   1
  -4   3  -9  24341. 1811.45   1
   4  -3   9  23517. 1180.73   1
   4  -3   9  24078. 1773.74   1
   4  -3   9  26489. 2003.35   1
  -4   3 -10  18709. 1078.49   1
  -4   3 -10  17123. 979.887   1
  -4   3 -10  13718. 1116.20   1
   4  -3  10  17277. 977.373   1
   4  -3  10  13662. 1118.71   1
   4  -3  10  15813. 1322.35   1
  -4   3 -11  21095. 1158.10   1
  -4   3 -11  23863. 1305.31   1
  -4   3 -11  17218. 1386.03   1
   4  -3  11  23533. 1243.29   1
  -4   3 -12 4329.60 667.597   1
   4  -3  12 7337.98 736.312   1
  -4   3 -13 8720.66 843.016   1
  -4   3 -13 8114.52 779.049   1
  -4   3 -13 4360.33 708.938   1
   4  -3  13 6782.12 817.038   1
  -4   2  13 1227.37 618.435   1
  -4   2  13 1786.31 563.966   1
  -4   2  13 1977.65 649.720   1
   4  -2 -13  647.21 624.301   1
   4  -2 -13 1916.20 518.994   1
   4  -2 -13  936.03 513.407   1
  -4   2  12  66899. 3064.24   1
   4  -2 -12  59972. 2742.46   1
  -4   2  11  20749. 1189.38   1
  -4   2  11  19352. 1527.65   1
  -4   2  11  21140. 1679.61   1
   4  -2 -11  18542. 1082.96   1
   4  -2 -11  19771. 1522.90   1
   4  -2 -11  16539. 1286.31   1
  -4   2  10  10101. 762.010   1
  -4   2  10 8824.01 810.055   1
   4  -2 -10 9030.72 673.742   1
   4  -2 -10 8544.68 778.211   1
   4  -2 -10 8321.22 812.290   1
  -4   2   9 4740.22 617.039   1
  -4   2   9 5296.08 585.474   1
   4  -2  -9 4726.25 510.614   1
   4  -2  -9 4444.13 491.620   1
   4  -2  -9 4488.82 572.904   1
  -4   2   8  16405. 1013.41   1
  -4   2   8  21196. 1567.60   1
   4  -2  -8  16992. 943.854   1
   4  -2  -8  14469. 1177.65   1
   4  -2  -8  15137. 1172.62   1
  -4   2   7  66061. 2994.41   1
  -4   2   7  75726. 5243.01   1
   4  -2  -7  67095. 2991.62   1
  -4   2   6  17673. 1001.67   1
  -4   2   6  20318. 1513.69   1
   4  -2  -6  19430. 1023.74   1
  -4   2   5 279609.  11925.   1
  -4   2   5 309497.  21092.   1
   4  -2  -5 332681.  14112.   1
  -4   2   4 154469. 6642.45   1
  -4   2   4 174720.  11941.   1
   4  -2  -4 183128. 7824.01   1
   4  -2  -4 164944.  11290.   1
   4  -2  -4 177905.  12151.   1
  -4   2   3  76564. 3354.75   1
  -4   2   3  81983. 5617.31   1
   4  -2  -3  86117. 3706.70   1
   4  -2  -3  87654. 6033.51   1
   4  -2  -3  78492. 5393.85   1
  -4   2   2 219637.  14955.   1
   4  -2  -2 246341.  10439.   1
   4  -2  -2 232598.  15838.   1
   4  -2  -2 239050.  16299.   1
  -4   2   1 5913.40 391.620   1
  -4   2   1 5656.42 346.089   1
  -4   2   1 5675.97 461.452   1
   4  -2  -1 5430.16 309.218   1
   4  -2  -1 5851.95 480.446   1
   4  -2  -1 6712.28 541.899   1
  -4   2   0 6460.89 377.374   1
  -4   2   0 6212.28 350.000   1
  -4   2   0 6332.40 517.877   1
  -4   2   0 5472.06 443.854   1
   4  -2   0 6555.86 332.681   1
   4  -2   0 6050.27 505.865   1
   4  -2   0 4935.75 417.877   1
  -4   2  -1  43547. 1897.48   1
  -4   2  -1  41592. 1819.55   1
  -4   2  -1  44385. 3067.04   1
  -4   2  -1  41313. 2871.51   1
   4  -2   1  43380. 3002.79   1
   4  -2   1  45531. 3148.04   1
  -4   2  -2 219106. 9326.81   1
  -4   2  -2 220028. 9357.53   1
  -4   2  -2 220447.  15022.   1
  -4   2  -2 231732.  15779.   1
   4  -2   2 226843.  15464.   1
   4  -2   2 217793.  14844.   1
  -4   2  -3  70056. 3033.52   1
  -4   2  -3  67793. 2924.58   1
  -4   2  -3  62570. 4307.26   1
  -4   2  -3  65978. 4541.89   1
   4  -2   3  69860. 3011.17   1
   4  -2   3  64776. 4477.65   1
   4  -2   3  64776. 4472.06   1
  -4   2  -4 150447.  10279.   1
  -4   2  -4 135140. 9254.18   1
   4  -2   4 151788. 6455.30   1
   4  -2   4 143631. 9843.57   1
   4  -2   4 150419.  10288.   1
  -4   2  -5 323743.  22053.   1
   4  -2   5 338268.  14330.   1
  -4   2  -6 8715.08 525.418   1
  -4   2  -6 7427.37 533.798   1
  -4   2  -6 9868.71 816.480   1
   4  -2   6 7899.43 481.843   1
   4  -2   6 9215.07 769.273   1
   4  -2   6 7332.39 691.061   1
  -4   2  -7 154497.  10587.   1
   4  -2   7 142458. 6114.52   1
   4  -2   7 116816. 8064.24   1
   4  -2   7 133575. 9167.59   1
  -4   2  -8  52011. 2334.08   1
  -4   2  -8  48101. 2193.57   1
  -4   2  -8  53659. 3756.98   1
   4  -2   8  51006. 2305.86   1
   4  -2   8  48659. 3424.58   1
   4  -2   8  40838. 2935.75   1
  -4   2  -9 2045.53 369.273   1
  -4   2  -9 1807.54 427.095   1
  -4   2  -9 1890.22 415.363   1
   4  -2   9 2228.77 402.234   1
   4  -2   9 1553.35 450.000   1
   4  -2   9 2540.22 413.407   1
  -4   2 -10 7706.70 630.167   1
  -4   2 -10 7162.00 699.999   1
   4  -2  10 8835.19 634.078   1
   4  -2  10 6910.61 735.474   1
   4  -2  10 7360.33 695.251   1
  -4   2 -11  19704. 1099.72   1
  -4   2 -11  18536. 1467.04   1
   4  -2  11  17628. 1034.92   1
   4  -2  12  32235. 1649.16   1
  -4   2 -13 1325.42 617.318   1
  -4   2 -13  214.94 534.636   1
   4  -2  13  497.21 605.307   1
   4  -2  13  769.83 512.011   1
   4  -2  13  524.02 449.162   1
   4  -2  14  42039. 2080.72   1
  -4   1  14 2690.78 875.697   1
  -4   1  14 2882.68 784.636   1
   4  -1 -14 2627.93 500.279   1
   4  -1 -14 3849.16 698.882   1
  -4   1  13  29358. 1517.88   1
   4  -1 -13  27989. 1452.23   1
   4  -1 -12  41871. 2004.19   1
  -4   1  11  14665. 930.446   1
  -4   1  11  11964. 1050.28   1
   4  -1 -11  13061. 835.753   1
  -4   1  10 1299.44 500.279   1
  -4   1  10 1297.48 409.217   1
   4  -1 -10 1700.84 471.508   1
   4  -1 -10 1762.29 391.899   1
   4  -1 -10 1482.12 359.776   1
  -4   1   9  14257. 915.362   1
  -4   1   9  10849. 940.781   1
   4  -1  -9  10961. 743.575   1
   4  -1  -9  10335. 903.910   1
   4  -1  -9  11436. 939.943   1
  -4   1   8 173659. 7497.20   1
  -4   1   8 154637.  10603.   1
   4  -1  -8 169134. 7270.94   1
   4  -1  -8 170335.  11662.   1
   4  -1  -8 153324.  10547.   1
  -4   1   7  17841. 1021.79   1
  -4   1   7  18436. 1387.71   1
   4  -1  -7  17391. 945.530   1
  -4   1   6 296368.  12637.   1
  -4   1   6 332681.  22662.   1
   4  -1  -6 308659.  13117.   1
   4  -1  -6 327653.  22335.   1
   4  -1  -6 313966.  21413.   1
  -4   1   5 168519. 7240.22   1
  -4   1   5 193436.  13198.   1
   4  -1  -5 180586. 7701.11   1
   4  -1  -5 195754.  13385.   1
   4  -1  -5 181424.  12419.   1
  -4   1   4  15128. 817.318   1
  -4   1   4  18547. 1364.80   1
   4  -1  -4  15589. 762.569   1
   4  -1  -4  18089. 1340.50   1
   4  -1  -4  17156. 1281.28   1
  -4   1   3 145726. 6248.60   1
  -4   1   3 177234.  12101.   1
   4  -1  -3 168072. 7145.24   1
   4  -1  -3 166089.  11349.   1
   4  -1  -3 167486.  11453.   1
  -4   1   2  15589. 763.128   1
  -4   1   2  17690. 1286.87   1
   4  -1  -2  17517. 801.954   1
   4  -1  -2  18279. 1331.00   1
   4  -1  -2  18732. 1365.64   1
  -4   1   1 1284.64 151.480   1
  -4   1   1 1382.40 179.609   1
  -4   1   1 2003.91 284.916   1
  -4   1   1 2051.39 280.447   1
   4  -1  -1 1429.89 152.486   1
   4  -1  -1 1492.74 249.804   1
   4  -1  -1 1606.98 253.072   1
  -4   1   0 1858.38 271.424   1
  -4   1   0 2098.04 284.357   1
   4  -1   0 1809.77 270.642   1
   4  -1   0 1449.72 244.553   1
  -4   1  -1 319273.  21729.   1
  -4   1  -1 316759.  21575.   1
   4  -1   1 305028.  20771.   1
   4  -1   1 324301.  22067.   1
  -4   1  -2 352234.  23978.   1
  -4   1  -2 368435.  25067.   1
   4  -1   2 334357.  22751.   1
   4  -1   2 340782.  23198.   1
  -4   1  -3  91536. 3960.89   1
  -4   1  -3  95140. 4120.11   1
  -4   1  -3  93771. 6449.71   1
  -4   1  -3  83575. 5745.80   1
   4  -1   3 104637. 4536.31   1
   4  -1   3  97151. 6678.76   1
   4  -1   3  87821. 6039.10   1
  -4   1  -4 643575.  43715.   1
  -4   1  -4 667318.  45363.   1
   4  -1   4 653072.  27631.   1
   4  -1   4 657821.  44721.   1
   4  -1   4 666480.  45307.   1
  -4   1  -5  82346. 3544.69   1
  -4   1  -5  76899. 3332.40   1
  -4   1  -5  88352. 6092.17   1
  -4   1  -5  84190. 5810.05   1
   4  -1   5  81760. 3508.38   1
   4  -1   5  86955. 6013.96   1
   4  -1   5  87570. 6044.69   1
  -4   1  -6  34441. 1574.86   1
  -4   1  -6  40140. 2843.57   1
  -4   1  -6  33212. 2367.32   1
   4  -1   6  36788. 1661.17   1
   4  -1   6  37821. 2696.65   1
   4  -1   6  38408. 2718.99   1
  -4   1  -7  42961. 1946.93   1
  -4   1  -7  46341. 3259.77   1
   4  -1   7  47570. 2147.76   1
   4  -1   7  45866. 3231.84   1
   4  -1   7  40391. 2882.68   1
  -4   1  -8  14595. 831.843   1
  -4   1  -8  17687. 1361.17   1
   4  -1   8  16559. 905.586   1
   4  -1   8  15034. 1206.14   1
   4  -1   8  15860. 1223.74   1
  -4   1  -9  13642. 835.753   1
  -4   1  -9  13746. 1113.13   1
   4  -1   9  14908. 870.669   1
   4  -1   9  12374. 993.295   1
   4  -1   9  13433. 1118.43   1
  -4   1 -10 8385.47 648.603   1
  -4   1 -10 8698.31 779.049   1
   4  -1  10 8293.29 642.737   1
   4  -1  10 6360.33 694.692   1
  -4   1 -11 113715. 4966.48   1
  -4   1 -11  87737. 6106.14   1
   4  -1  11 100195. 4399.44   1
   4  -1  11  95670. 6625.69   1
   4  -1  11  95475. 6631.28   1
   4  -1  12  31285. 1606.14   1
   4  -1  13  42067. 2043.01   1
   4  -1  14  49330. 2363.41   1
  -4   0  14 5782.12 797.485   1
  -4   0  14 4667.59 791.619   1
   4   0 -14 3946.92 679.329   1
   4   0 -14 4296.08 567.877   1
   4   0 -14 4893.85 650.558   1
  -4   0  13  10469. 820.949   1
  -4   0  13 9301.67 1010.89   1
   4   0 -13 9918.98 783.519   1
   4   0 -13 9178.76 864.804   1
   4   0 -13  11103. 965.921   1
  -4   0  12  40000. 1933.80   1
  -4   0  12  30587. 2328.21   1
   4   0 -12  37933. 1838.82   1
  -4   0  11  43073. 2043.29   1
  -4   0  11  33073. 2460.33   1
   4   0 -11  40168. 1926.53   1
   4   0 -11  29441. 2143.29   1
   4   0 -11  34302. 2489.94   1
  -4   0  10 6206.70 607.541   1
  -4   0  10 5480.44 601.117   1
   4   0 -10 6695.52 603.351   1
   4   0 -10 5382.68 558.100   1
   4   0 -10 5561.45 615.642   1
  -4   0   9 237514.  10184.   1
  -4   0   9 234218.  16028.   1
   4   0  -9 242514.  10358.   1
   4   0  -9 215307.  14721.   1
   4   0  -9 209776.  14366.   1
  -4   0   8  82989. 3695.53   1
  -4   0   8  89134. 6201.11   1
   4   0  -8  78715. 3455.30   1
   4   0  -8  78380. 5435.75   1
   4   0  -8  74916. 5229.04   1
  -4   0   7 159665. 6907.81   1
  -4   0   7 167598.  11506.   1
   4   0  -7 157570. 6751.39   1
   4   0  -7 171229.  11723.   1
   4   0  -7 167514.  11492.   1
  -4   0   6 143268. 6187.14   1
  -4   0   6 158436.  10860.   1
   4   0  -6 143994. 6181.56   1
   4   0  -6 160419.  10994.   1
   4   0  -6 144134. 9893.84   1
  -4   0   5 2994.41 374.022   1
  -4   0   5 3268.15 412.569   1
   4   0  -5 2741.90 340.782   1
   4   0  -5 3078.21 391.620   1
   4   0  -5 3173.18 411.731   1
  -4   0   4  20871. 1029.89   1
  -4   0   4  22059. 1605.86   1
   4   0  -4  22168. 1050.56   1
   4   0  -4  23922. 1740.78   1
   4   0  -4  25274. 1837.43   1
  -4   0   3  21464. 1014.24   1
  -4   0   3  23383. 1689.10   1
   4   0  -3  22564. 1064.24   1
   4   0  -3  22922. 1663.41   1
   4   0  -3  23168. 1680.72   1
  -4   0   2  23257. 1059.78   1
  -4   0   2  23486. 1680.72   1
  -4   0   2  20050. 1461.73   1
   4   0  -2  22832. 1044.69   1
   4   0  -2  22008. 1589.66   1
   4   0  -2  21508. 1557.82   1
  -4   0   1 156760. 6698.32   1
  -4   0   1 144441. 9860.32   1
  -4   0   1 143715. 9824.01   1
   4   0  -1 156313. 6678.76   1
   4   0  -1 141536. 9681.55   1
   4   0  -1 169218.  11556.   1
  -4   0   0  81536. 5592.17   1
  -4   0   0  79916. 5494.41   1
   4   0   0  86480. 5949.71   1
   4   0   0  86229. 5930.16   1
  -4   0  -1 494692.  33631.   1
  -4   0  -1 474301.  32235.   1
   4   0   1 404190.  27506.   1
   4   0   1 477932.  32486.   1
  -4   0  -2  928.49 238.044   1
  -4   0  -2  617.60 193.268   1
   4   0   2  700.00 241.201   1
   4   0   2  474.30 220.447   1
  -4   0  -3 476256.  32374.   1
  -4   0  -3 496927.  33771.   1
   4   0   3 449441.  30559.   1
   4   0   3 468715.  31899.   1
  -4   0  -4 101927. 4357.54   1
  -4   0  -4 116397. 7988.82   1
  -4   0  -4 101760. 6986.03   1
   4   0   4 102458. 4374.30   1
   4   0   4 103966. 7148.04   1
   4   0   4 103771. 7142.45   1
  -4   0  -5  20036. 944.133   1
  -4   0  -5  20061. 1469.55   1
  -4   0  -5  20869. 1522.07   1
   4   0   5  18603. 872.625   1
   4   0   5  21721. 1600.00   1
   4   0   5  22492. 1648.88   1
  -4   0  -6 2091.06 299.162   1
  -4   0  -6 1766.76 339.385   1
  -4   0  -6 1450.56 321.229   1
   4   0   6 1586.59 287.709   1
   4   0   6 2232.12 349.441   1
   4   0   6 2397.76 372.905   1
  -4   0  -7  62514. 2773.18   1
  -4   0  -7  78380. 5438.54   1
  -4   0  -7  65950. 4581.00   1
   4   0   7  61006. 2699.16   1
   4   0   7  68547. 4759.77   1
   4   0   7  63687. 4444.13   1
  -4   0  -8 138436. 5986.03   1
  -4   0  -8 161341.  11056.   1
  -4   0  -8 142765. 9793.29   1
   4   0   8 148938. 6399.43   1
   4   0   8 159302.  10933.   1
   4   0   8 147234.  10101.   1
  -4   0  -9  535.19 384.916   1
  -4   0  -9  120.84 323.743   1
   4   0   9   52.93 362.849   1
   4   0   9  934.36 306.983   1
   4   0   9  587.99 381.005   1
  -4   0 -10 271508.  11573.   1
  -4   0 -10 287151.  19598.   1
   4   0  10 276815.  11810.   1
   4   0  10 248072.  16964.   1
   4   0  10 252849.  17274.   1
  -4   0 -11 142346. 6167.59   1
  -4   0 -11 133910. 9240.21   1
   4   0  11 146871. 6354.74   1
   4   0  12  31788. 1594.97   1
   4   0  12  27162. 2023.74   1
   4   0  12  24229. 1806.42   1
   4   0  13  67430. 3055.86   1
  -4   0 -14  10296. 834.636   1
  -4   0 -14 8050.27 861.731   1
   4   0  14 8502.78 842.737   1
   4   0  14 6363.12 701.396   1
   4   0  14 8474.85 828.770   1
  -4   0 -15  451.12 615.083   1
  -4   0 -15  -10.97 501.117   1
   4   0  15 -169.97 744.413   1
   4   0  15  419.55 465.642   1
   4   0  15   48.97 493.854   1
  -4  -1  14 1834.36 696.647   1
  -4  -1  14 1759.50 645.530   1
   4   1 -14 1581.00 566.480   1
   4   1 -14 1585.75 403.631   1
   4   1 -14 1246.37 464.804   1
   4   1 -13  24804. 1296.65   1
   4   1 -13  19712. 1525.70   1
   4   1 -13  21190. 1622.07   1
   4   1 -12  93324. 4111.73   1
   4   1 -11  11522. 762.010   1
   4   1 -11 7913.40 743.854   1
   4   1 -11 7296.08 718.156   1
  -4  -1  10 159190. 6882.67   1
  -4  -1  10 162793.  11156.   1
   4   1 -10 173184. 7421.78   1
   4   1 -10 138380. 9519.54   1
   4   1 -10 133240. 9162.00   1
  -4  -1   9 118184. 5173.18   1
  -4  -1   9  94218. 6516.75   1
   4   1  -9 128966. 5564.24   1
   4   1  -9 117039. 8053.06   1
   4   1  -9 116480. 8044.68   1
  -4  -1   8  19145. 1042.74   1
  -4  -1   8  23006. 1707.82   1
   4   1  -8  21506. 1101.12   1
   4   1  -8  21832. 1615.36   1
   4   1  -8  23626. 1766.48   1
  -4  -1   7  55391. 2524.86   1
  -4  -1   7  65922. 4592.17   1
   4   1  -7  57235. 2568.43   1
   4   1  -7  64497. 4511.17   1
   4   1  -7  59665. 4167.59   1
  -4  -1   6  50614. 2308.10   1
  -4  -1   6  52346. 3675.97   1
   4   1  -6  46899. 2123.74   1
   4   1  -6  54274. 3810.05   1
   4   1  -6  51648. 3631.28   1
  -4  -1   5  37793. 1745.81   1
  -4  -1   5  38073. 2697.76   1
   4   1  -5  33603. 1586.31   1
   4   1  -5  37849. 2691.90   1
   4   1  -5  41871. 2966.48   1
  -4  -1   4 4025.14 357.542   1
  -4  -1   4 2952.51 378.771   1
   4   1  -4 2396.09 305.028   1
   4   1  -4 3905.02 450.000   1
   4   1  -4 3005.58 383.240   1
  -4  -1   3 302793.  12835.   1
  -4  -1   3 282961.  19293.   1
   4   1  -3 241424.  10279.   1
   4   1  -3 294692.  20078.   1
   4   1  -3 284637.  19405.   1
  -4  -1   2 336871.  14254.   1
  -4  -1   2 319273.  21751.   1
  -4  -1   2 311452.  21221.   1
   4   1  -2 261732.  11112.   1
   4   1  -2 372625.  25363.   1
   4   1  -2 301955.  20564.   1
  -4  -1   1  34749. 1522.34   1
  -4  -1   1  35168. 2491.90   1
  -4  -1   1  32318. 2289.66   1
   4   1  -1  36313. 2564.80   1
   4   1  -1  34860. 2460.33   1
  -4  -1   0 351955.  15050.   1
  -4  -1   0 317597.  21626.   1
  -4  -1   0 355028.  24173.   1
   4   1   0 352234.  23969.   1
   4   1   0 353631.  24070.   1
  -4  -1  -1  34274. 2427.65   1
  -4  -1  -1  36145. 2543.29   1
   4   1   1  37486. 2636.03   1
   4   1   1  38324. 2699.72   1
  -4  -1  -2  69469. 4810.05   1
  -4  -1  -2  71592. 4944.13   1
   4   1   2  70838. 4902.23   1
   4   1   2  68073. 4709.49   1
  -4  -1  -3 110586. 4731.84   1
  -4  -1  -3 120223. 8256.97   1
  -4  -1  -3 100391. 6905.02   1
   4   1   3 100112. 6879.88   1
   4   1   3 103911. 7145.24   1
  -4  -1  -4  13522. 644.971   1
  -4  -1  -4  13196. 1027.65   1
  -4  -1  -4  13508. 1046.65   1
   4   1   4 9231.83 490.223   1
   4   1   4  12534. 975.418   1
   4   1   4  13324. 1032.96   1
  -4  -1  -5 4463.68 333.519   1
  -4  -1  -5 4804.46 490.223   1
  -4  -1  -5 5008.37 493.575   1
   4   1   5 7187.14 455.865   1
   4   1   5 4379.88 480.446   1
   4   1   5 5011.17 506.983   1
  -4  -1  -6  24966. 1178.21   1
  -4  -1  -6  26458. 1922.34   1
  -4  -1  -6  27154. 1985.47   1
   4   1   6  21964. 1061.73   1
   4   1   6  25844. 1886.59   1
   4   1   6  28324. 2050.56   1
  -4  -1  -7 196871. 8399.43   1
  -4  -1  -7 213855.  14628.   1
  -4  -1  -7 220167.  15053.   1
   4   1   7 178519. 7642.45   1
   4   1   7 230530.  15760.   1
   4   1   7 215782.  14751.   1
  -4  -1  -8  43855. 2010.61   1
  -4  -1  -8  41369. 2938.54   1
  -4  -1  -8  47821. 3379.88   1
   4   1   8  44581. 2048.32   1
   4   1   8  42989. 3041.90   1
   4   1   8  44050. 3134.07   1
  -4  -1  -9 153827. 6617.31   1
  -4  -1  -9 146564.  10070.   1
  -4  -1  -9 164609.  11299.   1
   4   1   9 166983. 7192.73   1
   4   1   9 164609.  11299.   1
   4   1   9 146313.  10053.   1
  -4  -1 -10 229581. 9818.43   1
  -4  -1 -10 248408.  16978.   1
   4   1  10 255139.  10891.   1
   4   1  10 240139.  16425.   1
   4   1  10 226927.  15517.   1
  -4  -1 -11 7779.32 641.899   1
  -4  -1 -11 7530.72 732.122   1
   4   1  11 8039.10 644.413   1
   4   1  11 6315.64 667.038   1
   4   1  11 5740.22 596.647   1
  -4  -1 -12  53799. 2470.67   1
  -4  -1 -12  48715. 3458.10   1
   4   1  12  57179. 2620.39   1
   4   1  12  46760. 3310.05   1
   4   1  12  46117. 3262.57   1
  -4  -1 -13  20033. 1128.77   1
  -4  -1 -13  14011. 1172.35   1
   4   1  13  19260. 1093.57   1
  -4  -1 -14 8874.29 789.664   1
  -4  -1 -14 6455.30 758.100   1
   4   1  14 7974.85 777.373   1
   4   1  14 6262.56 703.072   1
   4   1  14 7729.04 770.670   1
  -4  -1 -15 -182.79 627.094   1
  -4  -1 -15   22.47 483.798   1
   4   1  15  302.23 644.133   1
   4   1  15  311.73 440.223   1
   4   1  15  769.55 413.966   1
  -4  -2  14 3192.73 701.955   1
  -4  -2  14  572.63 531.284   1
   4   2 -14 3435.75 619.832   1
   4   2 -14 2854.75 536.312   1
   4   2 -14 2835.19 525.139   1
   4   2 -13  96341. 4251.39   1
   4   2 -13  73184. 5114.52   1
   4   2 -13  74553. 5195.53   1
   4   2 -12  21271. 1111.73   1
   4   2 -12  16441. 1284.64   1
   4   2 -12  15587. 1230.17   1
   4   2 -11  65056. 4564.24   1
   4   2 -11  61536. 4318.43   1
  -4  -2  10 114106. 4994.41   1
  -4  -2  10 120698. 8301.67   1
   4   2 -10 117905. 5120.11   1
   4   2 -10 102151. 7050.27   1
   4   2 -10 108073. 7466.47   1
  -4  -2   9 1245.53 454.748   1
  -4  -2   9 1550.00 365.642   1
   4   2  -9 1372.90 418.715   1
   4   2  -9 1691.06 329.888   1
   4   2  -9 1235.75 373.743   1
  -4  -2   8 8150.83 627.094   1
  -4  -2   8 7594.96 689.943   1
   4   2  -8 8410.61 636.312   1
   4   2  -8 7315.63 672.066   1
   4   2  -8 9220.66 812.290   1
  -4  -2   7  57514. 2604.47   1
  -4  -2   7  58128. 4064.24   1
   4   2  -7  53855. 2463.68   1
   4   2  -7  62849. 4399.44   1
   4   2  -7  57290. 4016.76   1
  -4  -2   6 178519. 7673.18   1
  -4  -2   6 185391.  12673.   1
   4   2  -6 160950. 6946.92   1
   4   2  -6 196424.  13444.   1
   4   2  -6 193491.  13251.   1
  -4  -2   5  39832. 1838.82   1
  -4  -2   5  37877. 2674.86   1
   4   2  -5  38184. 1782.12   1
   4   2  -5  41369. 2932.96   1
   4   2  -5  43268. 3064.24   1
  -4  -2   4 263072.  11176.   1
  -4  -2   4 269553.  18371.   1
   4   2  -4 256257.  10939.   1
   4   2  -4 291340.  19874.   1
   4   2  -4 286033.  19517.   1
  -4  -2   3 659496.  27832.   1
  -4  -2   3 643295.  43715.   1
  -4  -2   3 558938.  38017.   1
   4   2  -3 600279.  25383.   1
   4   2  -3 622904.  26296.   1
   4   2  -3 610055.  41480.   1
   4   2  -3 655027.  44525.   1
  -4  -2   2 3044.69 278.072   1
  -4  -2   2 3097.76 358.659   1
  -4  -2   2 2494.41 349.441   1
   4   2  -2 3002.79 272.206   1
   4   2  -2 3206.70 347.486   1
  -4  -2   1 304469.  12888.   1
  -4  -2   1 290782.  19807.   1
  -4  -2   1 294413.  20064.   1
   4   2  -1 306145.  12944.   1
   4   2  -1 292737.  12411.   1
   4   2  -1 280726.  19128.   1
   4   2  -1 289664.  19737.   1
  -4  -2   0 109106. 4664.80   1
  -4  -2   0  92654. 6388.26   1
  -4  -2   0 107318. 7368.71   1
   4   2   0 100922. 4310.05   1
   4   2   0 100391. 4298.88   1
   4   2   0  94553. 6516.75   1
   4   2   0 102570. 7050.27   1
  -4  -2  -1 3745.81 413.687   1
  -4  -2  -1 3248.60 377.374   1
   4   2   1 3332.40 241.229   1
   4   2   1 3541.90 252.486   1
   4   2   1 2712.85 335.474   1
   4   2   1 3986.03 434.636   1
  -4  -2  -2 9382.67 472.067   1
  -4  -2  -2 8770.94 714.245   1
  -4  -2  -2 9474.85 778.491   1
   4   2   2 9086.58 463.407   1
   4   2   2 8622.90 449.441   1
   4   2   2 9081.00 740.502   1
   4   2   2 8840.77 734.636   1
  -4  -2  -3  89022. 3810.05   1
  -4  -2  -3  85642. 5913.40   1
  -4  -2  -3  86899. 5983.23   1
   4   2   3  87849. 3779.33   1
   4   2   3  83911. 3600.55   1
   4   2   3  87737. 6053.07   1
   4   2   3  90223. 6220.66   1
  -4  -2  -4 140754. 5999.99   1
  -4  -2  -4 145223. 9932.95   1
  -4  -2  -4 146369.  10028.   1
   4   2   4 154134. 6578.21   1
   4   2   4 144497. 6159.21   1
   4   2   4 135335. 9284.91   1
   4   2   4 143771. 9857.53   1
  -4  -2  -5 2298.88 269.329   1
  -4  -2  -5 2106.14 344.692   1
  -4  -2  -5 1878.49 314.525   1
   4   2   5 1697.48 258.771   1
   4   2   5 2263.96 351.117   1
   4   2   5 2736.59 390.502   1
  -4  -2  -6 182179. 7765.35   1
  -4  -2  -6 188938.  12913.   1
  -4  -2  -6 187849.  12852.   1
   4   2   6 180754. 7737.42   1
   4   2   6 192933.  13204.   1
   4   2   6 193463.  13235.   1
  -4  -2  -7 125922. 5413.40   1
  -4  -2  -7 129469. 8891.05   1
  -4  -2  -7 134916. 9276.53   1
   4   2   7 118492. 5145.25   1
   4   2   7 135447. 9310.05   1
   4   2   7 122989. 8472.06   1
  -4  -2  -8  30754. 1455.59   1
  -4  -2  -8  34469. 2487.43   1
  -4  -2  -8  32039. 2298.60   1
   4   2   8  24450. 1241.62   1
   4   2   8  33631. 2430.44   1
   4   2   8  30698. 2216.76   1
  -4  -2  -9 118464. 5142.45   1
  -4  -2  -9 143268. 9849.15   1
  -4  -2  -9 124581. 8547.48   1
   4   2   9 123352. 5360.33   1
   4   2   9 138408. 9530.72   1
   4   2   9 125195. 8614.52   1
  -4  -2 -10  11226. 737.429   1
  -4  -2 -10  12277. 980.725   1
  -4  -2 -10  13399. 1096.65   1
   4   2  10  11751. 760.614   1
   4   2  10  11559. 990.502   1
   4   2  10  13346. 1068.71   1
  -4  -2 -11 1098.88 407.821   1
  -4  -2 -11 2059.77 426.257   1
   4   2  11 2431.28 517.877   1
   4   2  11 1441.62 378.212   1
   4   2  11 2278.21 399.720   1
  -4  -2 -12  10877. 755.027   1
  -4  -2 -12  12749. 1064.80   1
   4   2  12  12712. 852.234   1
   4   2  12 9689.93 838.826   1
   4   2  12  10332. 876.535   1
  -4  -2 -13  39804. 1900.56   1
  -4  -2 -13  38827. 2798.88   1
   4   2  13  44581. 2126.53   1
   4   2  13  36536. 2635.75   1
   4   2  13  36983. 2668.71   1
  -4  -2 -14  12592. 889.105   1
  -4  -2 -14  10656. 971.787   1
   4   2  14  14243. 986.032   1
   4   2  14 9675.97 886.591   1
   4   2  14  11941. 1036.59   1
  -4  -2 -15 8712.28 836.591   1
  -4  -2 -15  10025. 911.731   1
   4   2  15  11059. 908.100   1
   4   2  15 9198.31 861.731   1
   4   2  15 8134.07 774.301   1
  -4  -3  13  40335. 1956.14   1
  -4  -3  13  34525. 2505.86   1
   4   3 -13  36397. 1742.46   1
   4   3 -13  34609. 2486.59   1
   4   3 -13  31592. 2317.04   1
  -4  -3  12 9963.68 774.021   1
  -4  -3  12 8689.94 826.535   1
   4   3 -12 9125.69 664.245   1
   4   3 -12 8293.29 793.016   1
   4   3 -12 8217.87 796.089   1
  -4  -3  11  51760. 2387.99   1
  -4  -3  11  50419. 3589.38   1
   4   3 -11  53743. 2459.49   1
   4   3 -11  45922. 3265.36   1
   4   3 -11  50670. 3586.59   1
  -4  -3  10 7162.00 606.983   1
  -4  -3  10 7798.87 723.184   1
   4   3 -10 7821.22 629.608   1
   4   3 -10 6494.41 671.508   1
   4   3 -10 5824.02 596.368   1
  -4  -3   9 3581.00 507.541   1
  -4  -3   9 2449.72 440.502   1
   4   3  -9 2237.15 447.486   1
   4   3  -9 2460.33 453.351   1
   4   3  -9 2078.77 358.659   1
  -4  -3   8 1819.27 431.843   1
  -4  -3   8 1796.65 391.899   1
   4   3  -8 1665.92 456.145   1
   4   3  -8 1865.08 333.799   1
   4   3  -8 1698.32 373.743   1
  -4  -3   7  70810. 3156.42   1
  -4  -3   7  72262. 5036.31   1
   4   3  -7  71704. 3212.29   1
   4   3  -7  75894. 5276.53   1
   4   3  -7  71369. 4966.48   1
  -4  -3   6 135866. 5874.30   1
  -4  -3   6 133966. 9212.28   1
   4   3  -6 139609. 6058.65   1
   4   3  -6 148910.  10237.   1
   4   3  -6 141173. 9692.73   1
  -4  -3   5  47598. 2162.85   1
  -4  -3   5  43687. 3097.76   1
   4   3  -5  51816. 3648.04   1
   4   3  -5  51452. 3620.11   1
  -4  -3   4 522346.  22087.   1
  -4  -3   4 527653.  35894.   1
   4   3  -4 554748.  23444.   1
   4   3  -4 570670.  24134.   1
   4   3  -4 599441.  40782.   1
   4   3  -4 596368.  40559.   1
  -4  -3   3  52402. 2328.77   1
  -4  -3   3  48045. 3374.30   1
  -4  -3   3  50000. 3511.17   1
   4   3  -3  47486. 2134.91   1
   4   3  -3  49609. 2262.01   1
   4   3  -3  50698. 3555.86   1
   4   3  -3  50698. 3555.86   1
  -4  -3   2 267262.  11335.   1
  -4  -3   2 256592.  17511.   1
  -4  -3   2 271257.  18508.   1
   4   3  -2 263463.  11198.   1
   4   3  -2 267653.  11346.   1
  -4  -3   1 131145. 5614.52   1
  -4  -3   1 130447. 8955.30   1
  -4  -3   1 116536. 8008.37   1
   4   3  -1 127542. 5480.44   1
   4   3  -1 123184. 5287.70   1
   4   3  -1 130922. 8983.23   1
   4   3  -1 122123. 8385.47   1
  -4  -3   0  43296. 1928.21   1
  -4  -3   0  39525. 2791.62   1
  -4  -3   0  39358. 2778.21   1
   4   3   0  41089. 1848.60   1
   4   3   0  41313. 1849.44   1
   4   3   0  43631. 3075.42   1
   4   3   0  38687. 2731.28   1
  -4  -3  -1  28240. 1286.59   1
  -4  -3  -1  26916. 1229.61   1
  -4  -3  -1  28380. 2029.33   1
  -4  -3  -1  26439. 1905.86   1
   4   3   1  27645. 1281.84   1
   4   3   1  28408. 1297.76   1
   4   3   1  30642. 2190.78   1
   4   3   1  26936. 1947.20   1
  -4  -3  -2  45503. 2008.66   1
  -4  -3  -2  43073. 3022.34   1
  -4  -3  -2  45391. 3187.15   1
   4   3   2  43240. 1915.64   1
   4   3   2  47011. 2091.34   1
   4   3   2  44553. 3131.28   1
   4   3   2  45614. 3209.49   1
  -4  -3  -3 662010.  27933.   1
  -4  -3  -3 641340.  43603.   1
  -4  -3  -3 579888.  39413.   1
   4   3   3 666200.  28101.   1
   4   3   3 681005.  28743.   1
   4   3   3 628491.  42737.   1
   4   3   3 616480.  41927.   1
  -4  -3  -4 127737. 5474.85   1
  -4  -3  -4 137430. 9430.16   1
  -4  -3  -4 134218. 9206.69   1
   4   3   4 142849. 6131.28   1
   4   3   4 134525. 5773.74   1
   4   3   4 127458. 8748.59   1
   4   3   4 138408. 9497.20   1
  -4  -3  -5 237989.  10120.   1
  -4  -3  -5 247318.  16877.   1
  -4  -3  -5 222989.  15229.   1
   4   3   5 239106.  10187.   1
   4   3   5 246815.  10489.   1
   4   3   5 229776.  15693.   1
   4   3   5 233659.  15955.   1
  -4  -3  -6 247402.  10520.   1
  -4  -3  -6 259692.  17723.   1
  -4  -3  -6 274860.  18760.   1
   4   3   6 254553.  10824.   1
   4   3   6 255056.  17416.   1
   4   3   6 248994.  17011.   1
  -4  -3  -7  838.55 307.542   1
  -4  -3  -7 1188.27 311.452   1
  -4  -3  -7  833.52 333.799   1
   4   3   7  973.74 326.815   1
   4   3   7 1037.99 328.771   1
   4   3   7 1103.91 283.240   1
  -4  -3  -8  82207. 3622.90   1
  -4  -3  -8  81648. 5662.01   1
  -4  -3  -8  84330. 5837.98   1
   4   3   8  74441. 3315.64   1
   4   3   8  82542. 5731.84   1
   4   3   8  78715. 5463.68   1
  -4  -3  -9  17321. 935.753   1
  -4  -3  -9  17154. 1316.76   1
  -4  -3  -9  19645. 1501.40   1
   4   3   9  15458. 898.602   1
   4   3   9  18025. 1390.78   1
   4   3   9  17324. 1322.07   1
  -4  -3 -10 8675.97 633.798   1
  -4  -3 -10 9363.12 797.485   1
  -4  -3 -10 9731.83 854.748   1
   4   3  10 8162.00 654.469   1
   4   3  10 9877.08 834.357   1
   4   3  10 9611.72 845.530   1
  -4  -3 -11 3902.23 503.910   1
  -4  -3 -11 4120.11 530.446   1
  -4  -3 -11 4594.97 508.938   1
   4   3  11 3455.30 515.642   1
   4   3  11 4346.36 510.614   1
   4   3  11 4541.89 517.039   1
  -4  -3 -12  50112. 2307.82   1
  -4  -3 -12  55503. 3921.78   1
   4   3  12  53296. 2452.51   1
   4   3  12  52849. 3709.49   1
   4   3  12  50335. 3550.28   1
  -4  -3 -13  90559. 3997.20   1
  -4  -3 -13  92905. 6444.13   1
   4   3  13 105447. 4636.87   1
   4   3  13  89749. 6220.66   1
   4   3  13  91927. 6368.71   1
  -4  -3 -14 1785.47 544.413   1
  -4  -3 -14 1466.48 467.877   1
   4   3  14 1572.34 612.010   1
   4   3  14 1834.63 458.938   1
   4   3  14 1286.31 410.055   1
  -4  -3 -15  64749. 2980.44   1
  -4  -3 -15  61732. 4340.78   1
   4   3  15  66592. 3078.21   1
   4   3  15  53268. 3759.77   1
   4   3  15  57207. 4022.34   1
  -4  -4  13 1975.14 575.698   1
  -4  -4  13 1439.38 529.050   1
   4   4 -13 1677.37 508.379   1
   4   4 -13 1551.67 452.234   1
   4   4 -13 1417.88 435.474   1
  -4  -4  12 3932.96 579.050   1
  -4  -4  12 4195.53 638.826   1
   4   4 -12 4427.37 540.223   1
   4   4 -12 3743.01 517.877   1
   4   4 -12 3994.41 560.893   1
  -4  -4  11  13561. 862.848   1
  -4  -4  11  15039. 1241.06   1
   4   4 -11  13899. 844.413   1
   4   4 -11  12807. 1070.67   1
   4   4 -11  12844. 1034.36   1
  -4  -4  10  36592. 1740.50   1
  -4  -4  10  38631. 2767.59   1
   4   4 -10  39693. 1886.31   1
   4   4 -10  36983. 2664.52   1
   4   4 -10  37542. 2708.66   1
  -4  -4   9  24964. 1262.85   1
  -4  -4   9  26961. 1995.81   1
   4   4  -9  25101. 1289.94   1
   4   4  -9  24520. 1818.43   1
   4   4  -9  23237. 1742.46   1
  -4  -4   8  43464. 2020.11   1
  -4  -4   8  43631. 3111.73   1
   4   4  -8  43128. 2043.85   1
   4   4  -8  40112. 1868.71   1
   4   4  -8  44581. 3173.18   1
   4   4  -8  44581. 3145.25   1
  -4  -4   7 178240. 7648.04   1
  -4  -4   7 178436.  12229.   1
   4   4  -7 176061. 7558.65   1
   4   4  -7 177765. 7659.21   1
   4   4  -7 188631.  12927.   1
   4   4  -7 178799.  12232.   1
  -4  -4   6  639.11 313.966   1
  -4  -4   6  812.85 332.681   1
   4   4  -6  699.16 316.201   1
   4   4  -6 1166.76 386.033   1
   4   4  -6 1172.07 272.542   1
   4   4  -6 1025.98 332.961   1
  -4  -4   5 182290. 7810.05   1
  -4  -4   5 189106.  12944.   1
   4   4  -5 190950. 8178.76   1
   4   4  -5 194301. 8340.77   1
   4   4  -5 186341.  12740.   1
   4   4  -5 197737.  13539.   1
  -4  -4   4 103324. 4497.20   1
  -4  -4   4 103827. 7167.59   1
   4   4  -4  98966. 4307.26   1
   4   4  -4 105698. 4614.52   1
   4   4  -4 106983. 7360.33   1
   4   4  -4 114190. 7871.50   1
  -4  -4   3  10399. 611.731   1
  -4  -4   3 9399.43 803.910   1
  -4  -4   3  10327. 865.083   1
   4   4  -3  10701. 657.821   1
   4   4  -3 9762.56 580.726   1
   4   4  -3  11156. 910.614   1
   4   4  -3  10115. 828.770   1
  -4  -4   2  48045. 2162.01   1
  -4  -4   2  42821. 3027.93   1
  -4  -4   2  41564. 2944.13   1
   4   4  -2  42849. 1948.04   1
   4   4  -2  43994. 2008.38   1
   4   4  -2  45698. 3203.91   1
   4   4  -2  38520. 2729.61   1
  -4  -4   1  34721. 1593.02   1
  -4  -4   1  36425. 2597.20   1
  -4  -4   1  34134. 2438.54   1
   4   4  -1  35335. 1648.88   1
   4   4  -1  36871. 1703.63   1
   4   4  -1  35838. 2543.85   1
   4   4  -1  33883. 2411.17   1
  -4  -4   0  65475. 2874.30   1
  -4  -4   0  66201. 4606.14   1
  -4  -4   0  70754. 4918.99   1
   4   4   0  68911. 3039.10   1
   4   4   0  68547. 3011.17   1
   4   4   0  66201. 4594.97   1
   4   4   0  63715. 4427.37   1
  -4  -4  -1 3966.48 338.826   1
  -4  -4  -1 3907.82 334.916   1
  -4  -4  -1 3388.26 414.245   1
  -4  -4  -1 3270.95 405.307   1
   4   4   1 3307.26 329.050   1
   4   4   1 3407.82 315.921   1
   4   4   1 3583.80 413.407   1
   4   4   1 3391.06 405.865   1
  -4  -4  -2 489664.  20693.   1
  -4  -4  -2 451955.  30754.   1
  -4  -4  -2 521508.  35475.   1
   4   4   2 481005.  32737.   1
   4   4   2 499441.  33966.   1
  -4  -4  -3 463128.  19581.   1
  -4  -4  -3 443016.  30168.   1
  -4  -4  -3 450558.  30670.   1
   4   4   3 488547.  20684.   1
   4   4   3 477094.  20162.   1
   4   4   3 470670.  32039.   1
   4   4   3 455865.  31033.   1
  -4  -4  -4 250586.  10654.   1
  -4  -4  -4 241424.  16483.   1
  -4  -4  -4 237206.  16196.   1
   4   4   4 256033.  10913.   1
   4   4   4 252877.  10763.   1
   4   4   4 231257.  15782.   1
   4   4   4 250475.  17095.   1
  -4  -4  -5 389385.  16492.   1
  -4  -4  -5 403910.  27514.   1
  -4  -4  -5 422067.  28743.   1
   4   4   5 389106.  16500.   1
   4   4   5 377653.  16017.   1
   4   4   5 370111.  25204.   1
   4   4   5 383519.  26112.   1
  -4  -4  -6  13885. 747.765   1
  -4  -4  -6  13816. 1106.42   1
  -4  -4  -6  12165. 977.094   1
   4   4   6  13344. 778.491   1
   4   4   6  12296. 693.854   1
   4   4   6  12849. 1030.45   1
   4   4   6  14729. 1136.31   1
  -4  -4  -7  13447. 755.865   1
  -4  -4  -7  14201. 1143.02   1
  -4  -4  -7  12997. 1037.71   1
   4   4   7  14095. 769.552   1
   4   4   7  13508. 791.061   1
   4   4   7  14709. 1160.89   1
   4   4   7  14045. 1093.57   1
  -4  -4  -8  25640. 1254.75   1
  -4  -4  -8  26355. 1929.61   1
  -4  -4  -8  26330. 1937.15   1
   4   4   8  27229. 1333.52   1
   4   4   8  26358. 1928.21   1
   4   4   8  26816. 1959.22   1
  -4  -4  -9  45307. 2071.79   1
  -4  -4  -9  41117. 2924.58   1
  -4  -4  -9  42654. 3025.14   1
   4   4   9  39665. 1864.52   1
   4   4   9  41117. 2918.99   1
   4   4   9  38240. 2720.67   1
  -4  -4 -10  65056. 2924.58   1
  -4  -4 -10  65642. 4586.59   1
  -4  -4 -10  65028. 4530.72   1
   4   4  10  63631. 2885.47   1
   4   4  10  68128. 4734.63   1
   4   4  10  72849. 5067.03   1
  -4  -4 -11  25539. 1306.14   1
  -4  -4 -11  27209. 2005.31   1
  -4  -4 -11  24335. 1781.84   1
   4   4  11  24383. 1291.90   1
   4   4  11  24288. 1768.99   1
   4   4  11  26246. 1919.83   1
  -4  -4 -12 155726. 6726.25   1
  -4  -4 -12 184106.  12615.   1
   4   4  12 160391. 6932.95   1
   4   4  12 170251.  11668.   1
   4   4  12 171285.  11737.   1
  -4  -4 -13 6597.76 649.161   1
  -4  -4 -13 8932.95 830.446   1
   4   4  13 7349.15 710.614   1
   4   4  13 8150.83 744.692   1
   4   4  13 8243.01 749.161   1
  -4  -4 -14  38240. 1874.86   1
  -4  -4 -14  38073. 2750.00   1
   4   4  14  40195. 1957.54   1
   4   4  14  34330. 2473.74   1
   4   4  14  35475. 2551.11   1
  -4  -4 -15  12676. 941.060   1
  -4  -4 -15  12031. 1046.65   1
   4   4  15  16131. 1066.48   1
   4   4  15  11450. 979.887   1
   4   4  15  12813. 1053.91   1
  -4  -5  12 1360.05 509.497   1
  -4  -5  12 1288.83 519.553   1
   4   5 -12 1128.49 459.497   1
   4   5 -12 1589.66 505.586   1
   4   5 -12 1143.29 454.189   1
   4   5 -12 1840.50 445.810   1
  -4  -5  11  58994. 2676.81   1
  -4  -5  11  58743. 4131.28   1
   4   5 -11  60866. 2744.13   1
   4   5 -11  59776. 2710.33   1
   4   5 -11  62542. 4371.50   1
   4   5 -11  61257. 4298.88   1
  -4  -5  10  73436. 3279.33   1
  -4  -5  10  82458. 5745.80   1
   4   5 -10  73268. 3276.53   1
   4   5 -10  74916. 3315.64   1
   4   5 -10  76536. 5318.43   1
   4   5 -10  75559. 5259.77   1
  -4  -5   9  38128. 1798.32   1
  -4  -5   9  36955. 2645.25   1
   4   5  -9  37849. 1798.88   1
   4   5  -9  37458. 1746.93   1
   4   5  -9  41704. 2974.86   1
   4   5  -9  39804. 2843.57   1
  -4  -5   8 194497. 8326.81   1
  -4  -5   8 212542.  14550.   1
   4   5  -8 201424. 8622.90   1
   4   5  -8 192290. 8231.83   1
   4   5  -8 190056.  13020.   1
   4   5  -8 227989.  15595.   1
  -4  -5   7 9776.53 655.307   1
  -4  -5   7  11318. 963.127   1
   4   5  -7  10986. 711.731   1
   4   5  -7 9435.74 658.938   1
   4   5  -7  10662. 889.943   1
   4   5  -7 9441.33 828.211   1
  -4  -5   6 111788. 4860.33   1
  -4  -5   6 114944. 7927.37   1
   4   5  -6 112262. 4868.71   1
   4   5  -6 116145. 5033.51   1
   4   5  -6 118380. 8156.42   1
   4   5  -6 117318. 8069.82   1
  -4  -5   5  39553. 1835.75   1
  -4  -5   5  37290. 2668.43   1
   4   5  -5  40698. 1896.09   1
   4   5  -5  39302. 1818.15   1
   4   5  -5  43184. 3036.31   1
   4   5  -5  43520. 3086.59   1
  -4  -5   4  19620. 1008.38   1
  -4  -5   4  20785. 1557.54   1
   4   5  -4  18997. 980.167   1
   4   5  -4  18564. 978.491   1
   4   5  -4  18615. 1385.47   1
   4   5  -4  17751. 1359.78   1
  -4  -5   3  32542. 1539.94   1
  -4  -5   3  33268. 2389.66   1
  -4  -5   3  31201. 2246.65   1
   4   5  -3  33380. 1569.55   1
   4   5  -3  32346. 1524.30   1
   4   5  -3  38743. 2730.16   1
   4   5  -3  31676. 2281.28   1
  -4  -5   2  54609. 2447.76   1
  -4  -5   2  47374. 3340.78   1
  -4  -5   2  49553. 3491.62   1
   4   5  -2  50726. 2290.50   1
   4   5  -2  50056. 2266.20   1
   4   5  -2  49469. 3486.03   1
   4   5  -2  47821. 3351.95   1
  -4  -5   1 170279. 7293.29   1
  -4  -5   1 175251.  12000.   1
  -4  -5   1 157989.  10832.   1
   4   5  -1 172514. 7405.02   1
   4   5  -1 173072. 7421.78   1
   4   5  -1 169637.  11615.   1
   4   5  -1 164302.  11237.   1
  -4  -5   0  32011. 1491.90   1
  -4  -5   0  31369. 1472.90   1
  -4  -5   0  31089. 2239.10   1
  -4  -5   0  31369. 2255.58   1
   4   5   0  32207. 1502.51   1
   4   5   0  31592. 1494.13   1
   4   5   0  30922. 2217.60   1
   4   5   0  30559. 2174.86   1
  -4  -5  -1 196732. 8405.02   1
  -4  -5  -1 175754. 7519.55   1
  -4  -5  -1 178715.  12229.   1
  -4  -5  -1 177877.  12173.   1
   4   5   1 179302. 7662.00   1
   4   5   1 173855. 7458.09   1
   4   5   1 174497.  11939.   1
   4   5   1 176033.  12031.   1
  -4  -5  -2 298882.  12698.   1
  -4  -5  -2 293854.  20045.   1
  -4  -5  -2 286033.  19500.   1
   4   5   2 295810.  12547.   1
   4   5   2 298324.  12690.   1
   4   5   2 302514.  20612.   1
   4   5   2 279609.  19056.   1
  -4  -5  -3  22179. 1089.38   1
  -4  -5  -3  20209. 1505.58   1
  -4  -5  -3  20648. 1531.56   1
   4   5   3  20997. 1041.62   1
   4   5   3  22223. 1123.74   1
   4   5   3  20394. 1493.02   1
   4   5   3  21866. 1613.69   1
  -4  -5  -4 130642. 5625.69   1
  -4  -5  -4 130922. 8994.40   1
  -4  -5  -4 125475. 8628.48   1
   4   5   4 123966. 5346.36   1
   4   5   4 121648. 5282.12   1
   4   5   4 124888. 8561.44   1
   4   5   4 128017. 8796.08   1
  -4  -5  -5  38017. 1758.38   1
  -4  -5  -5  37095. 2643.57   1
  -4  -5  -5  37961. 2700.83   1
   4   5   5  39832. 1860.33   1
   4   5   5  35782. 1662.85   1
   4   5   5  40307. 2857.54   1
   4   5   5  34916. 2466.76   1
  -4  -5  -6  44497. 2026.53   1
  -4  -5  -6  46089. 3254.19   1
  -4  -5  -6  48938. 3455.30   1
   4   5   6  43408. 2006.98   1
   4   5   6  46089. 2098.88   1
   4   5   6  43994. 3108.94   1
   4   5   6  49218. 3449.72   1
  -4  -5  -7  688.55 321.508   1
  -4  -5  -7  517.88 292.737   1
  -4  -5  -7  825.70 366.480   1
   4   5   7  829.33 313.407   1
   4   5   7  453.91 343.854   1
   4   5   7  498.88 268.128   1
   4   5   7  191.98 276.173   1
  -4  -5  -8  73045. 3229.05   1
  -4  -5  -8  73352. 5100.55   1
  -4  -5  -8  78855. 5483.23   1
   4   5   8  74776. 3301.67   1
   4   5   8  76006. 3374.30   1
   4   5   8  77737. 5382.68   1
   4   5   8  73436. 5097.76   1
  -4  -5  -9 145586. 6270.94   1
  -4  -5  -9 143938. 9882.67   1
  -4  -5  -9 143324. 9835.18   1
   4   5   9 137961. 5946.92   1
   4   5   9 140810. 6097.76   1
   4   5   9 143910. 9857.53   1
   4   5   9 149888.  10282.   1
  -4  -5 -10 1097.76 393.575   1
  -4  -5 -10 1210.05 387.988   1
  -4  -5 -10 1261.45 371.787   1
   4   5  10 1122.62 441.620   1
   4   5  10  899.16 308.100   1
   4   5  10  787.99 314.525   1
  -4  -5 -11 194385. 8343.57   1
  -4  -5 -11 176536.  12087.   1
  -4  -5 -11 208296.  14249.   1
   4   5  11 187653. 8078.20   1
   4   5  11 199776.  13668.   1
   4   5  11 193352.  13232.   1
  -4  -5 -12  37514. 1793.57   1
  -4  -5 -12  37123. 2675.97   1
  -4  -5 -12  37290. 2679.33   1
   4   5  12  36117. 1784.64   1
   4   5  12  38128. 2716.48   1
   4   5  12  40335. 2868.71   1
  -4  -5 -13  12637. 857.820   1
  -4  -5 -13  14511. 1187.71   1
   4   5  13  14226. 930.446   1
   4   5  13  13117. 1072.90   1
   4   5  13  13444. 1083.52   1
  -4  -5 -14  12913. 931.005   1
  -4  -5 -14  11841. 998.882   1
   4   5  14  11799. 903.072   1
   4   5  14  11606. 981.563   1
   4   5  14  12036. 975.697   1
  -4  -6  11  82793. 3675.97   1
  -4  -6  11  79357. 5527.93   1
   4   6 -11  80084. 3527.93   1
   4   6 -11  78827. 3530.72   1
  -4  -6  10 1591.62 455.027   1
  -4  -6  10 1058.94 467.039   1
   4   6 -10 1480.17 467.877   1
   4   6 -10  572.07 452.513   1
   4   6 -10 1622.34 445.251   1
   4   6 -10 1905.03 442.458   1
  -4  -6   9 102737. 4494.41   1
  -4  -6   9 116033. 8008.37   1
   4   6  -9 101201. 4430.16   1
   4   6  -9 102374. 4477.65   1
   4   6  -9 110866. 7645.24   1
   4   6  -9 101257. 7005.58   1
  -4  -6   8  35642. 1692.18   1
  -4  -6   8  31760. 2291.90   1
   4   6  -8  35140. 1662.29   1
   4   6  -8  35503. 1683.52   1
   4   6  -8  37039. 2665.64   1
   4   6  -8  38492. 2731.28   1
  -4  -6   7 7935.75 600.558   1
  -4  -6   7 8050.27 751.675   1
   4   6  -7 8692.73 653.910   1
   4   6  -7 8544.68 591.340   1
   4   6  -7 8991.61 794.692   1
   4   6  -7  10966. 912.010   1
  -4  -6   6  13075. 764.245   1
  -4  -6   6  12098. 1007.82   1
   4   6  -6  12966. 737.150   1
   4   6  -6  12648. 751.675   1
   4   6  -6  13696. 1097.21   1
   4   6  -6  13439. 1069.27   1
  -4  -6   5  25472. 1252.79   1
  -4  -6   5  25994. 1910.33   1
   4   6  -5  25000. 1230.45   1
   4   6  -5  24561. 1242.18   1
   4   6  -5  25025. 1845.81   1
   4   6  -5  25871. 1898.04   1
  -4  -6   4 136480. 5891.06   1
  -4  -6   4 134637. 9251.39   1
   4   6  -4 144888. 6226.25   1
   4   6  -4 144581. 6226.25   1
  -4  -6   3 2460.89 347.486   1
  -4  -6   3 2835.19 422.625   1
   4   6  -3 2681.56 378.212   1
   4   6  -3 2350.28 343.575   1
   4   6  -3 2640.50 400.558   1
   4   6  -3 2650.28 388.268   1
  -4  -6   2 221005. 9432.95   1
  -4  -6   2 228463.  15606.   1
  -4  -6   2 210726.  14411.   1
   4   6  -2 222542. 9483.23   1
   4   6  -2 226424. 9667.59   1
   4   6  -2 223771.  15290.   1
   4   6  -2 222262.  15187.   1
  -4  -6   1  87346. 3821.23   1
  -4  -6   1  80754. 5597.76   1
  -4  -6   1  89972. 6223.46   1
   4   6  -1  86536. 3790.50   1
   4   6  -1  86369. 3784.91   1
   4   6  -1  89274. 6164.80   1
   4   6  -1  84972. 5877.09   1
  -4  -6   0  54832. 2461.17   1
  -4  -6   0  51201. 2301.39   1
  -4  -6   0  54749. 3843.57   1
  -4  -6   0  53771. 3773.74   1
   4   6   0  50950. 2294.69   1
   4   6   0  46089. 2096.93   1
   4   6   0  50279. 3519.55   1
   4   6   0  53464. 3745.81   1
  -4  -6  -1 190726. 8156.42   1
  -4  -6  -1 177318. 7603.34   1
  -4  -6  -1 187179.  12804.   1
  -4  -6  -1 226704.  15489.   1
   4   6   1 179720. 7695.52   1
   4   6   1 181788. 7784.91   1
   4   6   1 185503.  12684.   1
   4   6   1 188799.  12911.   1
  -4  -6  -2 2851.95 349.720   1
  -4  -6  -2 3466.48 440.782   1
  -4  -6  -2 2941.34 438.826   1
   4   6   2 3282.12 384.916   1
   4   6   2 3539.10 376.536   1
   4   6   2 3153.63 405.865   1
   4   6   2 3284.91 403.352   1
  -4  -6  -3  14413. 786.033   1
  -4  -6  -3  13313. 1058.38   1
  -4  -6  -3  14816. 1163.13   1
   4   6   3  13816. 1074.86   1
   4   6   3  15371. 1178.49   1
  -4  -6  -4  25494. 1241.90   1
  -4  -6  -4  29078. 2106.14   1
  -4  -6  -4  27391. 1998.60   1
   4   6   4  25880. 1295.53   1
   4   6   4  26408. 1287.99   1
   4   6   4  26947. 1950.56   1
   4   6   4  24818. 1813.41   1
  -4  -6  -5 119469. 5170.39   1
  -4  -6  -5 125614. 8639.66   1
  -4  -6  -5 125698. 8642.45   1
   4   6   5 113910. 4938.54   1
   4   6   5 119860. 5206.70   1
   4   6   5 118799. 8162.00   1
   4   6   5 125195. 8608.93   1
  -4  -6  -6  73100. 3234.63   1
  -4  -6  -6  87011. 6033.51   1
  -4  -6  -6  78128. 5421.78   1
   4   6   6  78464. 3491.62   1
   4   6   6  77626. 3435.75   1
   4   6   6  83799. 5807.26   1
   4   6   6  80028. 5539.10   1
  -4  -6  -7  57095. 2568.71   1
  -4  -6  -7  60894. 4270.95   1
  -4  -6  -7  56676. 3969.27   1
   4   6   7  58855. 2663.96   1
   4   6   7  60866. 2743.29   1
   4   6   7  57709. 4027.93   1
   4   6   7  61536. 4304.46   1
  -4  -6  -8 223966. 9575.41   1
  -4  -6  -8 235195.  16067.   1
  -4  -6  -8 248463.  16975.   1
   4   6   8 255195.  10905.   1
   4   6   8 235754.  10067.   1
   4   6   8 240139.  16399.   1
   4   6   8 233910.  15969.   1
  -4  -6  -9 7608.93 583.519   1
  -4  -6  -9 7273.74 703.910   1
  -4  -6  -9 7243.01 684.915   1
   4   6   9 7930.16 716.480   1
   4   6   9 8843.57 779.329   1
  -4  -6 -10 108855. 4743.01   1
  -4  -6 -10 107961. 7435.75   1
  -4  -6 -10 116871. 8041.89   1
   4   6  10 110084. 4807.26   1
   4   6  10 104525. 4536.31   1
   4   6  10 109357. 7541.89   1
   4   6  10 116480. 8019.54   1
  -4  -6 -11  80000. 3550.28   1
  -4  -6 -11  80838. 5603.35   1
  -4  -6 -11  81480. 5659.21   1
   4   6  11  80084. 3567.04   1
   4   6  11  73547. 3273.74   1
   4   6  11  83911. 5810.05   1
   4   6  11  78045. 5416.20   1
  -4  -6 -12  115.25 464.245   1
  -4  -6 -12  788.55 402.514   1
  -4  -6 -12  844.13 410.055   1
   4   6  12  590.78 481.843   1
   4   6  12 1007.54 410.335   1
   4   6  12  662.01 361.173   1
   4   6  12  720.11 363.966   1
  -4  -6 -13 3108.94 577.653   1
  -4  -6 -13 3600.55 563.966   1
   4   6  13 4449.72 643.016   1
   4   6  13 4284.91 554.748   1
   4   6  13 4307.26 533.240   1
  -4  -6 -14 9134.07 810.055   1
  -4  -6 -14 9008.37 856.703   1
   4   6  14  10059. 877.094   1
   4   6  14 9784.91 881.843   1
   4   6  14  11757. 1006.42   1
  -4  -7  10  20008. 1103.63   1
  -4  -7  10  19975. 1553.35   1
   4   7 -10  19422. 1085.75   1
   4   7 -10  20162. 1119.55   1
   4   7 -10  17497. 1384.91   1
   4   7 -10  16983. 1331.56   1
  -4  -7   9  32207. 1590.22   1
  -4  -7   9  30922. 2260.61   1
   4   7  -9  31648. 1552.79   1
   4   7  -9  31536. 1555.31   1
   4   7  -9  33939. 2444.13   1
   4   7  -9  29330. 2160.33   1
  -4  -7   8 7340.77 610.335   1
  -4  -7   8 7209.49 744.692   1
   4   7  -8 7597.76 607.262   1
   4   7  -8 7287.70 618.435   1
   4   7  -8 8170.38 756.424   1
   4   7  -8 7382.67 747.206   1
  -4  -7   7  -65.45 356.704   1
  -4  -7   7  344.41 408.659   1
   4   7  -7  197.07 381.285   1
   4   7  -7  651.68 397.486   1
   4   7  -7  127.93 317.877   1
   4   7  -7  136.34 343.854   1
  -4  -7   6  17422. 939.664   1
  -4  -7   6  16207. 1272.62   1
   4   7  -6  18539. 1011.45   1
   4   7  -6  17061. 950.558   1
   4   7  -6  15785. 1244.13   1
   4   7  -6  16894. 1298.32   1
  -4  -7   5 137402. 5930.16   1
  -4  -7   5 152793.  10480.   1
   4   7  -5 135419. 5837.98   1
   4   7  -5 144609. 6245.80   1
   4   7  -5 156257.  10701.   1
   4   7  -5 138184. 9494.40   1
  -4  -7   4  37095. 1737.15   1
  -4  -7   4  35475. 2553.91   1
   4   7  -4  39860. 1865.92   1
   4   7  -4  37793. 1755.86   1
   4   7  -4  39162. 2769.27   1
   4   7  -4  38659. 2772.90   1
  -4  -7   3 227625. 9715.07   1
  -4  -7   3 234637.  16031.   1
   4   7  -3 245810.  10483.   1
   4   7  -3 241815.  10307.   1
   4   7  -3 229860.  15690.   1
   4   7  -3 238491.  16293.   1
  -4  -7   2 219776. 9385.46   1
  -4  -7   2 229972.  15712.   1
  -4  -7   2 194022.  13285.   1
   4   7  -2 220810. 9416.19   1
   4   7  -2 216424. 9256.97   1
   4   7  -2 222430.  15193.   1
   4   7  -2 221089.  15087.   1
  -4  -7   1 4572.62 461.452   1
  -4  -7   1 4298.88 552.513   1
  -4  -7   1 4427.37 532.960   1
   4   7  -1 4455.30 391.899   1
   4   7  -1 4396.64 448.044   1
   4   7  -1 5810.05 555.307   1
   4   7  -1 5011.17 532.960   1
  -4  -7   0  66508. 2952.51   1
  -4  -7   0  65978. 2932.96   1
  -4  -7   0  66648. 4645.25   1
  -4  -7   0  71788. 4997.20   1
   4   7   0  66145. 2935.75   1
   4   7   0  62402. 2758.94   1
   4   7   0  69246. 4810.05   1
   4   7   0  70782. 4916.20   1
  -4  -7  -1  21751. 1103.07   1
  -4  -7  -1  22411. 1126.26   1
  -4  -7  -1  20346. 1529.89   1
  -4  -7  -1  23405. 1742.18   1
   4   7   1  21377. 1079.89   1
   4   7   1  22031. 1088.83   1
   4   7   1  20371. 1513.96   1
   4   7   1  21623. 1600.56   1
  -4  -7  -2 4932.96 455.307   1
  -4  -7  -2 3846.36 512.290   1
  -4  -7  -2 4117.31 514.525   1
   4   7   2 5237.42 444.413   1
   4   7   2 4779.32 437.988   1
   4   7   2 4712.29 512.011   1
   4   7   2 4614.52 506.983   1
  -4  -7  -3  631.84 313.966   1
  -4  -7  -3  655.03 380.167   1
  -4  -7  -3  694.41 350.838   1
   4   7   3  512.85 291.899   1
   4   7   3  494.97 321.508   1
   4   7   3  793.02 297.206   1
   4   7   3  213.60 273.603   1
  -4  -7  -4  65642. 2927.37   1
  -4  -7  -4  70950. 4941.34   1
  -4  -7  -4  71369. 4969.27   1
   4   7   4  63575. 2835.19   1
   4   7   4  65391. 2910.61   1
   4   7   4  63464. 4413.40   1
   4   7   4  62793. 4368.71   1
  -4  -7  -5 103575. 4508.38   1
  -4  -7  -5 113268. 7804.46   1
  -4  -7  -5 106760. 7365.91   1
   4   7   5 102877. 4486.03   1
   4   7   5 106704. 4650.83   1
   4   7   5 105838. 7282.12   1
   4   7   5 105447. 7256.98   1
  -4  -7  -6 3175.97 414.525   1
  -4  -7  -6 3525.14 504.189   1
  -4  -7  -6 3122.90 486.312   1
   4   7   6 3821.23 456.424   1
   4   7   6 3522.34 431.843   1
   4   7   6 3377.09 455.307   1
   4   7   6 3717.87 479.329   1
  -4  -7  -7 170084. 7307.25   1
  -4  -7  -7 157123.  10774.   1
  -4  -7  -7 187626.  12846.   1
   4   7   7 175754. 7558.65   1
   4   7   7 165782. 7134.07   1
   4   7   7 177095.  12128.   1
   4   7   7 175531.  12020.   1
  -4  -7  -8  25469. 1273.18   1
  -4  -7  -8  29665. 2169.27   1
  -4  -7  -8  29777. 2174.02   1
   4   7   8  26617. 1346.93   1
   4   7   8  26458. 1333.80   1
   4   7   8  30754. 2227.65   1
   4   7   8  29162. 2115.92   1
  -4  -7  -9  35531. 1694.97   1
  -4  -7  -9  35978. 2579.61   1
  -4  -7  -9  32318. 2334.08   1
   4   7   9  35056. 1689.66   1
   4   7   9  34078. 1654.19   1
   4   7   9  35140. 2530.72   1
   4   7   9  33296. 2377.37   1
  -4  -7 -10  46536. 2147.48   1
  -4  -7 -10  49385. 3480.44   1
  -4  -7 -10  45140. 3201.11   1
   4   7  10  46397. 2146.37   1
   4   7  10  41592. 1982.40   1
   4   7  10  46089. 3262.57   1
   4   7  10  49078. 3455.30   1
  -4  -7 -11  10830. 754.189   1
  -4  -7 -11  12517. 1043.29   1
  -4  -7 -11  11229. 962.848   1
   4   7  11 9511.16 759.217   1
   4   7  11  10092. 710.334   1
   4   7  11  10656. 907.820   1
   4   7  11  10975. 917.317   1
  -4  -7 -12  127.26 503.351   1
  -4  -7 -12  159.94 420.391   1
  -4  -7 -12  962.57 464.245   1
   4   7  12 -151.96 462.849   1
   4   7  12  562.57 517.318   1
   4   7  12  133.49 384.636   1
   4   7  12  392.18 376.536   1
  -4  -7 -13 3726.25 616.201   1
  -4  -7 -13 4173.18 582.122   1
   4   7  13 4726.25 632.122   1
   4   7  13 4938.54 596.368   1
  -4  -8   9  13355. 861.731   1
  -4  -8   9  14265. 1198.60   1
   4   8  -9  12531. 860.334   1
   4   8  -9  12992. 831.843   1
   4   8  -9  13226. 1104.47   1
   4   8  -9  13464. 1224.58   1
  -4  -8   8  16595. 944.692   1
  -4  -8   8  16207. 1327.37   1
   4   8  -8  15897. 951.954   1
   4   8  -8  15869. 931.843   1
   4   8  -8  14670. 1166.20   1
   4   8  -8  15179. 1263.41   1
  -4  -8   7 1263.41 408.100   1
  -4  -8   7  986.59 480.726   1
   4   8  -7  688.83 424.581   1
   4   8  -7  768.16 424.022   1
   4   8  -7  973.74 387.150   1
   4   8  -7 1043.85 457.821   1
  -4  -8   6  80391. 3544.69   1
  -4  -8   6  72095. 5016.75   1
   4   8  -6  71899. 3209.49   1
   4   8  -6  70559. 3125.69   1
   4   8  -6  76061. 5296.08   1
   4   8  -6  72179. 5011.17   1
  -4  -8   5  55810. 2521.23   1
  -4  -8   5  65140. 4561.45   1
   4   8  -5  60754. 2720.95   1
   4   8  -5  61033. 2741.06   1
   4   8  -5  60279. 4229.05   1
   4   8  -5  60810. 4237.43   1
  -4  -8   4  59134. 2655.30   1
  -4  -8   4  65754. 4589.38   1
   4   8  -4  61006. 2758.66   1
   4   8  -4  59190. 2660.05   1
   4   8  -4  63575. 4444.13   1
   4   8  -4  59106. 4125.69   1
  -4  -8   3 189609. 8114.52   1
  -4  -8   3 204916.  14011.   1
   4   8  -3 192402. 8245.80   1
   4   8  -3 191173. 8201.11   1
   4   8  -3 202486.  13858.   1
   4   8  -3 209525.  14318.   1
  -4  -8   2 8888.26 588.826   1
  -4  -8   2 8522.34 785.753   1
   4   8  -2 8391.05 585.754   1
   4   8  -2 8905.02 628.491   1
   4   8  -2 7653.62 719.552   1
   4   8  -2 7779.32 690.502   1
  -4  -8   1  11902. 719.273   1
  -4  -8   1  10997. 934.357   1
  -4  -8   1  11673. 988.546   1
   4   8  -1  12534. 757.820   1
   4   8  -1  11098. 691.061   1
   4   8  -1  12397. 979.887   1
   4   8  -1  11564. 962.848   1
  -4  -8   0  17031. 917.038   1
  -4  -8   0  15475. 855.306   1
  -4  -8   0  14980. 1181.00   1
  -4  -8   0  16260. 1277.37   1
   4   8   0  17818. 944.133   1
   4   8   0  15871. 882.122   1
  -4  -8  -1  36341. 1709.22   1
  -4  -8  -1  37598. 2693.29   1
  -4  -8  -1  37346. 2660.33   1
   4   8   1  34916. 1658.10   1
   4   8   1  36732. 1705.58   1
   4   8   1  32598. 2332.40   1
   4   8   1  35307. 2504.75   1
  -4  -8  -2  43520. 2005.58   1
  -4  -8  -2  43743. 3100.56   1
  -4  -8  -2  45363. 3201.11   1
   4   8   2  43939. 1994.13   1
   4   8   2  43520. 2013.13   1
   4   8   2  42737. 3005.58   1
   4   8   2  41676. 2941.34   1
  -4  -8  -3  27162. 1334.64   1
  -4  -8  -3  26707. 1954.47   1
  -4  -8  -3  27726. 2029.89   1
   4   8   3  25346. 1229.05   1
   4   8   3  27198. 1338.27   1
   4   8   3  26533. 1925.42   1
   4   8   3  27025. 1957.54   1
  -4  -8  -4 229357. 9790.49   1
  -4  -8  -4 219860.  15022.   1
  -4  -8  -4 226760.  15489.   1
   4   8   4 219609. 9368.71   1
   4   8   4 221955. 9483.23   1
   4   8   4 214916.  14676.   1
   4   8   4 217234.  14835.   1
  -4  -8  -5  11489. 702.793   1
  -4  -8  -5  11190. 962.569   1
  -4  -8  -5  11888. 991.898   1
   4   8   5  12458. 770.111   1
   4   8   5  11732. 711.172   1
   4   8   5  12648. 1018.71   1
   4   8   5  12441. 996.647   1
  -4  -8  -6 112709. 4885.47   1
  -4  -8  -6 111033. 7653.62   1
  -4  -8  -6 111229. 7670.38   1
   4   8   6 105223. 4600.55   1
   4   8   6 115503. 4999.99   1
   4   8   6 115363. 7930.16   1
   4   8   6 114721. 7905.02   1
  -4  -8  -7  47207. 2164.80   1
  -4  -8  -7  54776. 3857.54   1
  -4  -8  -7  50559. 3567.04   1
   4   8   7  51033. 2347.20   1
   4   8   7  46760. 2151.67   1
   4   8   7  54469. 3801.67   1
   4   8   7  54413. 3826.81   1
  -4  -8  -8 2006.42 439.944   1
  -4  -8  -8 1805.03 448.044   1
  -4  -8  -8 1074.58 434.357   1
   4   8   8 2375.14 466.201   1
   4   8   8 2427.37 451.117   1
   4   8   8 2074.02 410.055   1
   4   8   8 1694.97 401.117   1
  -4  -8  -9  882.12 414.525   1
  -4  -8  -9 1115.08 433.798   1
  -4  -8  -9 1007.54 435.474   1
   4   8   9  427.65 437.988   1
   4   8   9  696.65 425.419   1
   4   8   9 1071.51 371.229   1
   4   8   9  875.42 361.452   1
  -4  -8 -10 5469.27 604.748   1
  -4  -8 -10 5505.58 649.999   1
  -4  -8 -10 5614.52 675.139   1
   4   8  10 5896.64 626.815   1
   4   8  10 5541.89 638.547   1
   4   8  10 6770.94 685.753   1
   4   8  10 6296.08 676.815   1
  -4  -8 -11  24732. 1308.94   1
  -4  -8 -11  23592. 1775.98   1
  -4  -8 -11  24732. 1842.46   1
   4   8  11  23939. 1243.57   1
   4   8  11  25687. 1360.89   1
   4   8  11  23701. 1767.88   1
   4   8  11  26492. 1961.17   1
  -4  -8 -12  265.28 496.648   1
  -4  -8 -12  179.39 513.687   1
  -4  -8 -12  361.45 418.715   1
   4   8  12  219.08 516.480   1
   4   8  12  850.28 600.837   1
   4   8  12  561.73 465.083   1
   4   8  12 1067.60 477.932   1
  -4  -9   7  37542. 1784.91   1
  -4  -9   7  37263. 2706.42   1
   4   9  -7  39358. 1886.31   1
   4   9  -7  38408. 1813.13   1
   4   9  -7  36760. 2622.62   1
   4   9  -7  34413. 2542.18   1
  -4  -9   6  56732. 2572.90   1
  -4  -9   6  55587. 3927.37   1
   4   9  -6  57682. 2618.71   1
   4   9  -6  59218. 2683.24   1
   4   9  -6  51508. 3620.11   1
   4   9  -6  51648. 3675.97   1
  -4  -9   5 6983.23 570.949   1
  -4  -9   5 7938.54 811.452   1
   4   9  -5 7178.76 789.943   1
   4   9  -5 7284.91 699.999   1
  -4  -9   4  42765. 1981.28   1
  -4  -9   4  45642. 3251.39   1
   4   9  -4  47374. 2190.78   1
   4   9  -4  47458. 2192.46   1
   4   9  -4  52290. 3703.91   1
   4   9  -4  44302. 3128.49   1
  -4  -9   3  17874. 963.965   1
  -4  -9   3  17232. 1356.70   1
   4   9  -3  17883. 994.412   1
   4   9  -3  17925. 982.960   1
   4   9  -3  17679. 1384.08   1
   4   9  -3  18240. 1392.74   1
  -4  -9   2 6061.45 542.737   1
  -4  -9   2 4494.41 598.323   1
   4   9  -2 4717.87 506.983   1
   4   9  -2 6229.04 498.324   1
   4   9  -2 6248.60 685.195   1
   4   9  -2 6094.97 635.754   1
  -4  -9   1 1105.59 380.726   1
  -4  -9   1 1114.80 466.480   1
   4   9  -1  879.89 348.882   1
   4   9  -1  620.11 356.983   1
   4   9  -1  868.99 414.525   1
   4   9  -1 1096.09 379.609   1
  -4  -9   0  57765. 4072.62   1
  -4  -9   0  57654. 4058.65   1
   4   9   0  56341. 2556.70   1
   4   9   0  60559. 2725.70   1
   4   9   0  58659. 4103.35   1
   4   9   0  57765. 4050.28   1
  -4  -9  -1 111397. 4849.16   1
  -4  -9  -1 114581. 7907.81   1
  -4  -9  -1 114776. 7921.78   1
   4   9   1 102933. 4511.17   1
   4   9   1 109860. 4793.29   1
   4   9   1 120475. 8287.70   1
   4   9   1 113045. 7784.91   1
  -4  -9  -2 5005.58 499.999   1
  -4  -9  -2 4555.86 615.921   1
  -4  -9  -2 5296.08 682.960   1
   4   9   2 4983.23 510.335   1
   4   9   2 5310.05 510.893   1
   4   9   2 5541.89 598.323   1
   4   9   2 4648.04 564.525   1
  -4  -9  -3 195139. 8357.53   1
  -4  -9  -3 201145.  13765.   1
  -4  -9  -3 198547.  13592.   1
   4   9   3 180335. 7754.18   1
   4   9   3 179497. 7712.28   1
   4   9   3 194916.  13332.   1
   4   9   3 189357.  12958.   1
  -4  -9  -4  50195. 2289.38   1
  -4  -9  -4  54916. 3877.09   1
  -4  -9  -4  48603. 3432.96   1
   4   9   4  48128. 2219.55   1
   4   9   4  53212. 2425.42   1
   4   9   4  49581. 3488.82   1
   4   9   4  50447. 3547.48   1
  -4  -9  -5  42626. 1974.58   1
  -4  -9  -5  48184. 3413.40   1
  -4  -9  -5  41452. 2969.27   1
   4   9   5  48073. 2231.28   1
   4   9   5  43659. 2037.43   1
   4   9   5  46006. 3256.98   1
   4   9   5  45642. 3220.67   1
  -4  -9  -6  63938. 2868.71   1
  -4  -9  -6  58827. 4128.49   1
  -4  -9  -6  62514. 4388.26   1
   4   9   6  62849. 2832.40   1
   4   9   6  64972. 2918.99   1
   4   9   6  64888. 4516.75   1
   4   9   6  69330. 4829.60   1
  -4  -9  -7 9156.42 660.614   1
  -4  -9  -7 9857.53 900.558   1
  -4  -9  -7 8055.86 813.966   1
   4   9   7 8245.80 631.284   1
   4   9   7 8318.43 677.653   1
   4   9   7 8930.16 832.681   1
   4   9   7 8941.33 803.910   1
  -4  -9  -8 6393.85 608.379   1
  -4  -9  -8 6720.66 762.290   1
  -4  -9  -8 6768.15 759.217   1
   4   9   8 7754.18 635.195   1
   4   9   8 6287.70 630.167   1
   4   9   8 6578.21 691.619   1
   4   9   8 7142.45 713.966   1
  -4  -9  -9  628.77 447.486   1
  -4  -9  -9 1313.97 521.508   1
  -4  -9  -9 1457.82 520.670   1
   4   9   9  766.48 437.430   1
   4   9   9  818.99 548.882   1
   4   9   9 1427.93 462.849   1
   4   9   9 1195.25 455.865   1
  -4  -9 -10  42709. 2016.48   1
  -4  -9 -10  41341. 2974.86   1
  -4  -9 -10  43436. 3114.52   1
   4   9  10  47346. 2213.41   1
   4   9  10  47598. 2252.23   1
   4   9  10  43855. 3117.32   1
   4   9  10  41955. 2986.03   1
  -4 -10   5  656.14 649.441   1
  -4 -10   4 2782.12 526.536   1
  -4 -10   4 2404.75 674.860   1
   4  10  -4 4114.52 516.480   1
   4  10  -4 2781.00 585.195   1
   4  10  -4 2733.52 528.491   1
   4  10  -4 2700.00 657.541   1
  -4 -10   3  18190. 994.692   1
  -4 -10   3  17436. 1426.81   1
   4  10  -3  17844.  999.16   1
   4  10  -3  16061. 935.474   1
   4  10  -3  18838. 1442.46   1
   4  10  -3  16751. 1374.30   1
  -4 -10   2 4120.11 512.849   1
  -4 -10   2 2918.99 631.564   1
   4  10  -2 3776.53 512.849   1
   4  10  -2 3446.92 492.178   1
   4  10  -2 3863.12 573.742   1
   4  10  -2 3941.34 636.033   1
  -4 -10   1  26911. 1342.46   1
  -4 -10   1  27394. 2069.55   1
   4  10  -1  25933. 1299.16   1
   4  10  -1  27461. 1380.72   1
   4  10  -1  26360. 1950.28   1
   4  10  -1  26575. 2000.00   1
  -4 -10   0 107905. 7466.47   1
   4  10   0 101424. 4416.20   1
   4  10   0 102011. 4469.27   1
   4  10   0 102151. 7078.21   1
   4  10   0 102095. 7050.27   1
  -4 -10  -1  702.51 413.966   1
  -4 -10  -1  111.26 623.742   1
  -4 -10  -1  451.95 521.508   1
   4  10   1  409.22 414.245   1
   4  10   1  543.57 422.346   1
   4  10   1  884.08 498.882   1
   4  10   1  617.88 409.776   1
  -4 -10  -2  82681. 3656.42   1
  -4 -10  -2  76927. 5371.50   1
  -4 -10  -2  83352. 5821.22   1
   4  10   2  80726. 3578.21   1
   4  10   2  78659. 3488.82   1
  -4 -10  -3  39581. 1875.70   1
  -4 -10  -3  39274. 2877.09   1
  -4 -10  -3  41173. 2972.06   1
   4  10   3  39749. 1892.74   1
   4  10   3  39553. 1865.64   1
   4  10   3  40754. 2916.20   1
   4  10   3  40000. 2888.27   1
  -4 -10  -4 1087.99 435.195   1
  -4 -10  -4  982.12 591.061   1
  -4 -10  -4 1240.50 553.351   1
   4  10   4  427.93 447.206   1
   4  10   4 1188.83 430.446   1
   4  10   4 1388.55 491.340   1
   4  10   4  572.90 462.290   1
  -4 -10  -5  10944. 748.882   1
  -4 -10  -5  11045. 1032.40   1
  -4 -10  -5  13075. 1210.61   1
   4  10   5  11536. 781.563   1
   4  10   5  10547. 747.485   1
   4  10   5  11126. 984.915   1
   4  10   5  12223. 1089.38   1
  -4 -10  -6  14352. 903.351   1
  -4 -10  -6  14941. 1272.34   1
  -4 -10  -6  16947. 1398.04   1
   4  10   6  15310. 903.910   1
   4  10   6  14830. 912.290   1
   4  10   6  14961. 1216.76   1
   4  10   6  13989. 1181.28   1
  -4 -10  -7  29916. 1495.53   1
  -4 -10  -7  28464. 2132.68   1
  -4 -10  -7  31145. 2314.52   1
   4  10   7  30195. 1484.64   1
   4  10   7  29078. 1543.02   1
   4  10   7  29804. 2192.18   1
   4  10   7  29022. 2142.46   1
  -4 -10  -8  377.09 503.072   1
  -4 -10  -8 -103.74 589.943   1
  -4 -10  -8  513.69 599.161   1
   4  10   8  265.22 545.530   1
   4  10   8   -6.32 499.999   1
   4  10   8  914.52 495.251   1
   4  10   8  354.19 454.748   1
  -4 -11  -2 2249.44 783.798   1
  -4 -11  -2 3279.33 943.295   1
  -5   7   3  33184. 1743.29   1
  -5   7   3  32598. 1759.22   1
   5  -7  -3  34246. 1760.61   1
  -5   7   2  62067. 2902.23   1
  -5   7   2  62123. 2944.13   1
   5  -7  -2  56006. 2632.12   1
  -5   7   1 2818.43 824.859   1
  -5   7   1 2436.59 714.524   1
  -5   7   0  60587. 2868.71   1
  -5   7   0  60056. 2829.61   1
  -5   7  -1  14271. 1137.15   1
  -5   7  -1  11721. 996.647   1
  -5   7  -2 3460.89 865.642   1
  -5   7  -2 3614.52 796.089   1
  -5   7  -3 7810.05 968.155   1
  -5   7  -3 7634.07 949.999   1
  -5   6   7 6773.74 1026.54   1
  -5   6   7 7706.70 844.133   1
   5  -6  -7 6488.82 820.111   1
  -5   6   6  28128. 1598.04   1
  -5   6   6  28883. 1554.75   1
   5  -6  -6  28184. 1487.99   1
  -5   6   5  29693. 1653.91   1
  -5   6   5  29385. 1563.13   1
   5  -6  -5  27184. 1463.13   1
  -5   6   4  36676. 1906.98   1
  -5   6   4  35782. 1799.72   1
   5  -6  -4  35307. 1738.82   1
  -5   6   3 105642. 4706.70   1
  -5   6   3 102207. 4505.58   1
   5  -6  -3 101341. 4444.13   1
  -5   6   2 2356.98 589.385   1
  -5   6   2 2563.68 654.748   1
   5  -6  -2 2204.19 527.094   1
  -5   6   1  49916. 2342.18   1
  -5   6   1  51788. 2434.35   1
  -5   6   0  39553. 1941.06   1
  -5   6   0  37570. 1835.19   1
  -5   6  -1 1221.51 577.653   1
  -5   6  -1  539.94 556.703   1
  -5   6  -2 -116.79 563.966   1
  -5   6  -2 1337.71 583.240   1
  -5   6  -3  12196. 878.211   1
  -5   6  -3  11816. 865.642   1
  -5   6  -4  50195. 2392.46   1
  -5   6  -4  46620. 2201.95   1
  -5   6  -5 1451.67 720.670   1
  -5   6  -5 1301.12 617.597   1
  -5   6  -6  54693. 2643.85   1
  -5   6  -6  57374. 2677.09   1
  -5   6  -7  33492. 1775.14   1
  -5   6  -7  34804. 1929.89   1
   5  -6   7  39302. 1992.18   1
  -5   5   9 6787.70 832.401   1
  -5   5   9 5840.78 988.267   1
  -5   5   9 6972.06 793.575   1
  -5   5   9 7807.25 978.211   1
   5  -5  -9 7321.22 842.178   1
   5  -5  -9 8790.49 985.194   1
   5  -5  -9 6932.95 929.608   1
  -5   5   8  750.84 670.390   1
  -5   5   8  294.41 794.971   1
  -5   5   8  139.25 475.698   1
  -5   5   8  142.54 515.363   1
   5  -5  -8   84.30 598.603   1
   5  -5  -8  375.14 654.189   1
   5  -5  -8 1046.09 476.815   1
  -5   5   7  54385. 2629.89   1
  -5   5   7  53240. 2492.73   1
   5  -5  -7  53324. 2474.58   1
   5  -5  -7  44581. 3120.11   1
   5  -5  -7  44134. 3083.80   1
  -5   5   6  98352. 4357.54   1
  -5   5   6  99665. 4483.24   1
   5  -5  -6  93547. 4111.73   1
  -5   5   5 6368.71 768.156   1
  -5   5   5 5438.54 628.770   1
   5  -5  -5 6307.26 586.033   1
  -5   5   4 145279. 6315.64   1
  -5   5   4 142123. 6145.25   1
   5  -5  -4 143575. 6198.32   1
  -5   5   3  29218. 1505.58   1
  -5   5   3  28547. 1421.79   1
   5  -5  -3  27486. 1338.27   1
  -5   5   2 6818.43 640.781   1
  -5   5   2 7237.42 586.033   1
   5  -5  -2 7377.09 569.552   1
  -5   5   1  28296. 1410.89   1
  -5   5   1  29581. 1441.90   1
   5  -5  -1  27665. 1327.65   1
  -5   5   0  16718. 941.619   1
  -5   5   0  16628. 921.507   1
  -5   5  -1  24240. 1217.04   1
  -5   5  -1  24754. 1237.71   1
  -5   5  -2 1923.74 485.195   1
  -5   5  -2 1993.29 452.793   1
  -5   5  -3  95447. 4173.18   1
  -5   5  -3  91005. 3980.44   1
  -5   5  -4  38547. 1842.18   1
  -5   5  -4  38352. 1806.42   1
  -5   5  -6  79022. 3511.17   1
  -5   5  -6  78659. 3567.04   1
  -5   5  -6  65866. 4544.69   1
   5  -5   6  88352. 3896.64   1
   5  -5   6  76341. 5287.70   1
   5  -5   6  67877. 4695.53   1
  -5   5  -7 1524.86 662.569   1
  -5   5  -7  986.31 524.301   1
  -5   5  -7 1168.16 391.899   1
   5  -5   7 2125.70 572.066   1
   5  -5   7 1515.08 582.402   1
   5  -5   7  827.93 544.413   1
  -5   5  -8 6541.89 868.156   1
  -5   5  -8 8094.96 755.586   1
  -5   5  -8 7865.91 752.234   1
   5  -5   8 8564.24 750.279   1
   5  -5   8 7162.00 889.664   1
   5  -5   8 7203.90 909.496   1
  -5   5  -9 8622.90 883.519   1
  -5   5  -9 8097.76 957.541   1
  -5   5  -9 8008.37 866.200   1
   5  -5   9 6759.77 737.429   1
   5  -5   9 8614.52 1089.10   1
   5  -5   9 8575.41 995.530   1
  -5   4  10  24492. 1513.41   1
  -5   4  10  30950. 2294.97   1
  -5   4  10  31480. 2404.47   1
   5  -4 -10  27732. 1480.72   1
   5  -4 -10  26466. 2007.82   1
   5  -4 -10  30112. 2295.53   1
  -5   4   9  23723. 1435.19   1
  -5   4   9  24980. 1934.91   1
  -5   4   9  23802. 1786.87   1
   5  -4  -9  23757. 1297.48   1
   5  -4  -9  23978. 1857.54   1
   5  -4  -9  26883. 2029.33   1
  -5   4   8  40056. 2039.66   1
  -5   4   8  38324. 1881.00   1
   5  -4  -8  37793. 1823.18   1
   5  -4  -8  39860. 2843.57   1
   5  -4  -8  38966. 2826.81   1
  -5   4   7 160447. 6938.54   1
  -5   4   7 155866. 6793.29   1
  -5   4   7 157542.  10774.   1
  -5   4   7 146648.  10073.   1
   5  -4  -7 154274. 6634.07   1
   5  -4  -7 157765.  10804.   1
   5  -4  -7 151564.  10413.   1
  -5   4   6 3170.39 632.681   1
  -5   4   6 3041.90 545.530   1
  -5   4   6 3053.07 394.413   1
  -5   4   6 2868.71 481.284   1
   5  -4  -6 2660.33 464.804   1
   5  -4  -6 3472.06 482.960   1
   5  -4  -6 3215.08 511.452   1
  -5   4   5 103492. 4519.55   1
  -5   4   5  97067. 4307.26   1
  -5   4   5  89330. 6142.45   1
  -5   4   5  96201. 6589.38   1
   5  -4  -5 101117. 4399.44   1
   5  -4  -5  95223. 6536.31   1
   5  -4  -5  93184. 6413.40   1
  -5   4   4  60587. 2729.89   1
  -5   4   4  53687. 2478.49   1
  -5   4   4  57933. 4000.00   1
  -5   4   4  50475. 3483.24   1
   5  -4  -4  58045. 2588.54   1
   5  -4  -4  58938. 4078.21   1
   5  -4  -4  55168. 3804.47   1
  -5   4   3 2747.20 443.575   1
  -5   4   3 3240.22 522.066   1
   5  -4  -3 2545.53 403.352   1
  -5   4   2 3620.11 483.240   1
  -5   4   2 2810.05 406.703   1
   5  -4  -2 3187.15 374.581   1
  -5   4   1  76927. 3393.85   1
  -5   4   1  75084. 3290.50   1
   5  -4  -1  78184. 3402.23   1
  -5   4   0 117989. 5083.79   1
  -5   4   0 119721. 5156.42   1
  -5   4  -1  11159. 664.804   1
  -5   4  -1  11472. 671.508   1
  -5   4  -2 172318. 7363.12   1
  -5   4  -2 172542. 7388.26   1
  -5   4  -3 160726. 6874.29   1
  -5   4  -3 155670. 6681.56   1
  -5   4  -4  20050. 1421.51   1
   5  -4   4  18327. 1323.18   1
   5  -4   4  17486. 1296.37   1
  -5   4  -5  72486. 3173.18   1
  -5   4  -5  70056. 3122.90   1
  -5   4  -5  63938. 4407.82   1
   5  -4   5  66648. 4636.87   1
   5  -4   5  67626. 4675.97   1
  -5   4  -6  14371. 820.669   1
  -5   4  -6  13754. 863.686   1
  -5   4  -6  12439. 940.222   1
   5  -4   6  14405. 817.038   1
   5  -4   6  14458. 1144.69   1
   5  -4   6  13154. 1125.14   1
  -5   4  -7 1284.08 556.703   1
  -5   4  -7 1269.83 436.592   1
  -5   4  -7 1336.59 362.569   1
   5  -4   7  839.94 408.100   1
   5  -4   7 1218.43 435.195   1
   5  -4   7 1490.50 542.737   1
  -5   4  -8 1538.83 628.491   1
  -5   4  -8 1159.22 496.648   1
  -5   4  -8 1058.38 411.173   1
   5  -4   8  760.61 459.776   1
   5  -4   8  860.05 586.871   1
   5  -4   8  836.87 513.966   1
  -5   4  -9  34413. 1771.79   1
  -5   4  -9  32905. 1642.18   1
  -5   4  -9  33352. 2424.58   1
   5  -4   9  32654. 1610.89   1
   5  -4   9  34218. 2573.18   1
   5  -4   9  33659. 2474.02   1
  -5   4 -10  31117. 1604.19   1
  -5   4 -10  31732. 1686.31   1
  -5   4 -10  34469. 2539.66   1
   5  -4  10  29972. 1562.85   1
   5  -4  10  33045. 2453.35   1
   5  -4  10  32402. 2452.23   1
  -5   3  11  42514. 2129.89   1
  -5   3  11  46006. 3310.05   1
  -5   3  11  42179. 3039.10   1
   5  -3 -11  41033. 1992.74   1
   5  -3 -11  42011. 3036.31   1
   5  -3 -11  40028. 2899.44   1
  -5   3  10  75475. 3466.48   1
  -5   3  10  71369. 5027.93   1
  -5   3  10  76313. 5321.22   1
   5  -3 -10  72542. 3276.53   1
   5  -3 -10  79022. 5539.10   1
   5  -3 -10  74469. 5217.87   1
  -5   3   9  10788. 942.457   1
  -5   3   9  10318. 947.764   1
  -5   3   9  10123. 897.206   1
   5  -3  -9 9483.23 765.083   1
   5  -3  -9  11274. 981.284   1
   5  -3  -9 9793.29 936.312   1
  -5   3   8 171396. 7449.71   1
  -5   3   8 173910.  11899.   1
   5  -3  -8 165000. 7106.14   1
   5  -3  -8 156201.  10715.   1
   5  -3  -8 171396.  11779.   1
  -5   3   7  36508. 1828.49   1
  -5   3   7  37682. 2661.17   1
   5  -3  -7  37263. 1747.20   1
   5  -3  -7  37346. 2706.70   1
   5  -3  -7  39776. 2818.43   1
  -5   3   6  31983. 1628.77   1
  -5   3   6  32346. 2289.10   1
   5  -3  -6  35503. 1675.14   1
   5  -3  -6  29777. 2174.02   1
   5  -3  -6  32151. 2289.66   1
  -5   3   5 6547.48 656.703   1
  -5   3   5 7969.27 603.072   1
  -5   3   5 7502.79 640.502   1
   5  -3  -5 7234.63 533.798   1
   5  -3  -5 7474.85 731.005   1
   5  -3  -5 7606.14 660.055   1
  -5   3   4 8673.17 697.206   1
   5  -3  -4 8304.46 525.977   1
   5  -3  -4 7851.95 753.351   1
   5  -3  -4 8460.88 693.854   1
  -5   3   3  33966. 1611.45   1
  -5   3   3  38743. 1773.74   1
  -5   3   3  39693. 2748.60   1
   5  -3  -3  35475. 1597.20   1
   5  -3  -3  32598. 2322.06   1
   5  -3  -3  36592. 2554.19   1
  -5   3   2  17179. 899.720   1
  -5   3   2  19464. 951.954   1
  -5   3   2  20304. 1442.18   1
   5  -3  -2  20986. 984.077   1
   5  -3  -2  18721. 1373.74   1
   5  -3  -2  19799. 1419.83   1
  -5   3   1 250028.  17042.   1
   5  -3  -1 261648.  11123.   1
   5  -3  -1 265614.  18112.   1
   5  -3  -1 257989.  17587.   1
  -5   3   0  31369. 2194.69   1
   5  -3   0  31201. 2190.22   1
   5  -3   0  28492. 2001.67   1
  -5   3  -1 196648. 8410.61   1
  -5   3  -1 187933. 8039.10   1
  -5   3  -1 180503.  12330.   1
   5  -3   1 190977.  13042.   1
   5  -3   1 185028.  12628.   1
  -5   3  -2 181452. 7768.15   1
  -5   3  -2 178910. 7673.18   1
  -5   3  -2 175726.  11992.   1
  -5   3  -2 153687.  10508.   1
   5  -3   2 167095.  11405.   1
   5  -3   2 172346.  11788.   1
  -5   3  -3 1118.16 293.016   1
  -5   3  -3 1503.07 249.413   1
  -5   3  -3 1169.83 229.301   1
   5  -3   3 1076.81 285.195   1
   5  -3   3  841.90 320.111   1
  -5   3  -4  30223. 2132.68   1
  -5   3  -5  21715. 1563.96   1
   5  -3   5  22503. 1059.78   1
  -5   3  -6  26176. 1239.66   1
  -5   3  -6  23288. 1184.92   1
  -5   3  -6  25425. 1829.61   1
   5  -3   6  26310. 1226.26   1
  -5   3  -7  10737. 710.334   1
  -5   3  -7  11469. 679.888   1
  -5   3  -7  11849. 946.926   1
   5  -3   7  10651. 656.424   1
   5  -3   7  10997. 916.479   1
   5  -3   7  10031. 953.351   1
  -5   3  -8  63855. 2837.99   1
  -5   3  -8  57933. 2634.63   1
  -5   3  -8  60642. 4234.63   1
   5  -3   8  62318. 2774.30   1
   5  -3   8  65475. 4583.79   1
   5  -3   8  68492. 4865.92   1
  -5   3  -9 140754. 9664.79   1
   5  -3   9 131341. 5673.18   1
   5  -3   9 124274. 8564.24   1
   5  -3   9 146396.  10123.   1
  -5   3 -10  431.01 641.061   1
  -5   3 -10  531.56 546.368   1
  -5   3 -10  166.45 478.491   1
   5  -3  10  950.56 607.262   1
   5  -3  10  527.37 489.385   1
   5  -3  10  485.47 636.591   1
  -5   3 -11  46033. 2204.19   1
  -5   3 -11  47989. 2354.75   1
  -5   3 -11  42654. 3086.59   1
   5  -3  11  44832. 2208.94   1
   5  -3  11  49609. 3592.17   1
   5  -3  11  40810. 2941.34   1
  -5   3 -12  20589. 1329.61   1
  -5   3 -12  17687. 1167.04   1
  -5   3 -12  16394. 1403.91   1
   5  -3  12  12480. 978.770   1
   5  -3  12  13925. 1315.64   1
   5  -3  12  16165. 1367.60   1
  -5   2  12  27408. 1525.70   1
  -5   2  12  27128. 2048.60   1
  -5   2  12  23022. 1808.66   1
   5  -2 -12  23863. 1355.86   1
  -5   2  11 102709. 4569.83   1
  -5   2  11  86536. 6013.96   1
   5  -2 -11  88631. 3963.68   1
   5  -2 -11  92626. 6435.75   1
   5  -2 -11  86480. 6036.31   1
  -5   2  10   30.98 660.055   1
  -5   2  10  611.45 462.849   1
   5  -2 -10 -153.04 574.860   1
   5  -2 -10 -173.44 478.212   1
   5  -2 -10  362.57 446.648   1
  -5   2   9  64134. 2955.30   1
  -5   2   9  61341. 4293.29   1
   5  -2  -9  60866. 2766.76   1
   5  -2  -9  58938. 4142.45   1
   5  -2  -9  53771. 3815.64   1
  -5   2   8  57793. 2675.42   1
  -5   2   8  62849. 4382.68   1
   5  -2  -8  58911. 2679.89   1
  -5   2   7 1870.67 541.061   1
  -5   2   7 1839.10 360.335   1
   5  -2  -7 1338.55 403.910   1
   5  -2  -7 1986.87 382.961   1
   5  -2  -7 1146.93 429.888   1
  -5   2   6  133.52 432.960   1
  -5   2   6  475.14 293.296   1
   5  -2  -6  917.32 364.525   1
   5  -2  -6  425.42 308.938   1
   5  -2  -6  631.00 350.558   1
  -5   2   5  11464. 762.569   1
  -5   2   5  13589. 1050.84   1
   5  -2  -5  13064. 732.122   1
   5  -2  -5  13327. 1063.41   1
   5  -2  -5  13201. 1026.26   1
  -5   2   4 110614. 7583.79   1
   5  -2  -4 106508. 4592.17   1
   5  -2  -4 109162. 7494.41   1
   5  -2  -4 109246. 7519.55   1
  -5   2   3  17022. 1241.62   1
   5  -2  -3  17330. 852.513   1
   5  -2  -3  17824. 1331.00   1
   5  -2  -3  18433. 1355.03   1
  -5   2   2 192206.  13098.   1
   5  -2  -2 193882. 8240.21   1
   5  -2  -2 197290.  13478.   1
   5  -2  -2 191257.  13056.   1
  -5   2   1 207877.  14168.   1
   5  -2  -1 193463. 8284.91   1
   5  -2  -1 196592.  13408.   1
   5  -2  -1 206257.  14078.   1
  -5   2   0  51201. 3544.69   1
  -5   2   0  53743. 3720.67   1
   5  -2   0  54050. 3745.81   1
   5  -2   0  52933. 3670.39   1
  -5   2  -1 131201. 8972.06   1
  -5   2  -1 128268. 8776.53   1
   5  -2   1 136788. 9351.95   1
   5  -2   1 135112. 9243.01   1
  -5   2  -2  42514. 2960.89   1
  -5   2  -2  51229. 3553.07   1
   5  -2   2  44218. 3086.59   1
   5  -2   2  50782. 3539.10   1
  -5   2  -3 5279.32 489.944   1
  -5   2  -3 5315.64 486.592   1
   5  -2   3 5053.07 520.391   1
   5  -2   3 5807.26 527.653   1
  -5   2  -4 5256.98 498.044   1
  -5   2  -4 4189.94 471.787   1
   5  -2   4 4857.54 494.972   1
   5  -2   4 4944.13 530.167   1
  -5   2  -5  43045. 3016.76   1
  -5   2  -5  37458. 2642.46   1
   5  -2   5  44832. 1957.26   1
   5  -2   5  41564. 2946.92   1
   5  -2   5  44832. 3148.04   1
  -5   2  -6  92235. 6357.54   1
   5  -2   6  92961. 4000.00   1
   5  -2   6  95195. 6575.41   1
   5  -2   6  83212. 5762.56   1
  -5   2  -7  43240. 3050.28   1
   5  -2   7  46899. 2088.27   1
  -5   2  -8 256424.  17506.   1
   5  -2   8 257123.  10947.   1
  -5   2  -9  11039. 718.435   1
  -5   2  -9  11698. 793.854   1
  -5   2  -9  12846. 1044.41   1
   5  -2   9  12182. 767.318   1
   5  -2   9 9868.71 944.133   1
   5  -2   9  11022. 955.027   1
  -5   2 -10  44469. 2058.66   1
  -5   2 -10  45698. 2169.55   1
  -5   2 -10  48603. 3441.34   1
   5  -2  10  47207. 2193.29   1
   5  -2  10  43659. 3111.73   1
   5  -2  10  42179. 3069.83   1
  -5   2 -11  31341. 1571.79   1
  -5   2 -11  36006. 1831.56   1
  -5   2 -11  33631. 2467.59   1
   5  -2  11  36257. 1815.36   1
  -5   2 -12 2534.08 644.133   1
  -5   2 -12 3896.64 807.820   1
  -5   2 -12 2972.06 645.809   1
   5  -2  12 2423.46 773.184   1
   5  -2  12 3044.69 561.452   1
   5  -2  12 3634.07 689.664   1
  -5   2 -13  930.17 874.301   1
  -5   2 -13  197.43 681.284   1
  -5   2 -13  339.94 595.251   1
   5  -2  13 -275.11 782.681   1
   5  -2  13   39.89 549.161   1
   5  -2  13  -85.70 554.189   1
   5  -1 -12  81201. 3645.25   1
  -5   1  11  19589. 1211.73   1
  -5   1  11  16749. 1362.85   1
   5  -1 -11  16818. 1072.62   1
   5  -1 -11  18042. 1422.62   1
   5  -1 -11  17816. 1406.98   1
  -5   1  10  14285. 956.424   1
  -5   1  10  13905. 1163.97   1
   5  -1 -10  11754. 851.675   1
   5  -1 -10  12659. 1087.71   1
   5  -1 -10  11444. 1021.23   1
  -5   1   9  31648. 1612.57   1
  -5   1   9  32709. 2368.71   1
   5  -1  -9  27156. 1385.19   1
  -5   1   8  41508. 1990.78   1
  -5   1   8  48547. 3421.78   1
   5  -1  -8  40531. 1889.10   1
   5  -1  -8  39413. 2826.81   1
   5  -1  -8  43101. 3058.66   1
  -5   1   7  12612. 823.463   1
  -5   1   7  16575. 1243.85   1
   5  -1  -7  13668. 812.290   1
   5  -1  -7  15961. 1229.89   1
   5  -1  -7  14640. 1179.61   1
  -5   1   6  24514. 1255.86   1
  -5   1   6  29413. 2093.85   1
   5  -1  -6  28352. 1386.87   1
   5  -1  -6  27478. 2011.45   1
   5  -1  -6  31006. 2224.02   1
  -5   1   5 187849. 8061.44   1
  -5   1   5 164162.  11237.   1
   5  -1  -5 222011. 9455.30   1
   5  -1  -5 197402.  13503.   1
   5  -1  -5 230223.  15709.   1
  -5   1   4  86564. 3782.12   1
  -5   1   4  99385. 6840.77   1
   5  -1  -4  99609. 4282.12   1
   5  -1  -4 102681. 7067.03   1
   5  -1  -4  93799. 6466.47   1
  -5   1   3 100726. 4354.74   1
  -5   1   3 102486. 7053.07   1
   5  -1  -3 111173. 4756.98   1
   5  -1  -3 101899. 6999.99   1
   5  -1  -3 102626. 7067.03   1
  -5   1   2 240195.  10232.   1
  -5   1   2 242793.  10341.   1
  -5   1   2 223687.  15257.   1
   5  -1  -2 245028.  10430.   1
   5  -1  -2 258827.  17648.   1
   5  -1  -2 237681.  16212.   1
  -5   1   1 1555.31 287.430   1
  -5   1   1 1452.79 274.497   1
   5  -1  -1 1291.06 278.128   1
   5  -1  -1 1636.87 290.223   1
  -5   1   0  44302. 3094.97   1
  -5   1   0  43715. 3053.07   1
   5  -1   0  47011. 3273.74   1
   5  -1   0  43296. 3027.93   1
  -5   1  -1  56592. 3921.78   1
  -5   1  -1  52514. 3648.04   1
   5  -1   1  53687. 3731.84   1
   5  -1   1  55531. 3854.74   1
  -5   1  -2  92737. 6377.09   1
  -5   1  -2  90000. 6187.14   1
   5  -1   2  93156. 6407.81   1
   5  -1   2  91536. 6304.46   1
  -5   1  -3 2227.37 317.877   1
  -5   1  -3 2449.44 358.938   1
   5  -1   3 3041.90 412.290   1
   5  -1   3 2131.84 327.374   1
  -5   1  -4  71955. 4997.20   1
  -5   1  -4  65810. 4558.65   1
   5  -1   4  71341. 4944.13   1
   5  -1   4  68883. 4784.91   1
  -5   1  -5 204888. 8812.84   1
  -5   1  -5 209385. 9011.16   1
  -5   1  -5 191564.  13081.   1
  -5   1  -5 210335.  14377.   1
   5  -1   5 209916. 9058.65   1
   5  -1   5 209609.  14318.   1
   5  -1   5 203910.  13950.   1
  -5   1  -6  424.86 264.665   1
  -5   1  -6  293.85 218.380   1
  -5   1  -6  327.37 258.072   1
  -5   1  -6 1065.92 374.860   1
   5  -1   6  525.14 209.944   1
   5  -1   6  418.99 326.536   1
   5  -1   6  782.68 313.687   1
  -5   1  -7 207011.  14148.   1
  -5   1  -7 236201.  16123.   1
   5  -1   7 237765.  10103.   1
   5  -1   7 250782.  17123.   1
   5  -1   7 217765.  14897.   1
  -5   1  -8  79944. 5547.48   1
   5  -1   8  68799. 3025.14   1
   5  -1   8  68436. 4765.36   1
   5  -1   8  66006. 4614.52   1
  -5   1  -9 3692.73 541.899   1
  -5   1  -9 4932.96 571.787   1
   5  -1   9 4544.69 503.910   1
   5  -1   9 4963.68 544.133   1
   5  -1   9 3854.74 511.731   1
  -5   1 -10  25363. 1322.35   1
  -5   1 -10  31145. 2263.13   1
   5  -1  10  27626. 1415.36   1
   5  -1  10  28771. 2107.26   1
   5  -1  10  24371. 1860.61   1
  -5   1 -11  15028. 968.435   1
  -5   1 -11  18399. 1434.91   1
   5  -1  11  16863. 1055.03   1
   5  -1  11  16235. 1325.42   1
   5  -1  11  16849. 1328.21   1
  -5   1 -12  13880. 1003.63   1
  -5   1 -12  12765. 1130.17   1
   5  -1  12  10922. 925.139   1
   5  -1  12  12251. 1083.24   1
   5  -1  12  11804. 1034.36   1
  -5   1 -13  780.73 764.245   1
  -5   1 -13  -11.79 508.938   1
   5  -1  13  109.55 741.899   1
   5  -1  13  548.04 452.793   1
   5  -1  13   55.20 549.161   1
  -5   0  13  20212. 1713.41   1
   5   0 -13  25656. 1944.97   1
  -5   0  12  17103. 1065.92   1
  -5   0  12  13472. 1195.53   1
   5   0 -12  16290. 1062.29   1
   5   0 -12  13427. 1167.88   1
   5   0 -12  15078. 1212.29   1
  -5   0  11 1262.85 608.379   1
  -5   0  11 1418.43 508.938   1
   5   0 -11 1872.62 608.938   1
   5   0 -11 1670.95 463.128   1
   5   0 -11 1303.35 429.329   1
  -5   0  10 1364.24 549.161   1
  -5   0  10 2174.02 459.776   1
   5   0 -10 2003.07 535.754   1
   5   0 -10 1392.46 431.564   1
   5   0 -10 1860.89 449.441   1
  -5   0   9  23483. 1253.35   1
  -5   0   9  26539. 1967.32   1
   5   0  -9  24790. 1299.44   1
   5   0  -9  28156. 2062.85   1
   5   0  -9  21911. 1668.43   1
  -5   0   8  82877. 3684.35   1
  -5   0   8  94469. 6539.10   1
   5   0  -8  86173. 3807.26   1
   5   0  -8  91536. 6332.40   1
   5   0  -8  84078. 5837.98   1
  -5   0   7 4312.84 516.201   1
  -5   0   7 6675.97 617.876   1
   5   0  -7 5575.41 540.223   1
   5   0  -7 6396.64 617.318   1
   5   0  -7 5578.21 594.971   1
  -5   0   6 299162.  12749.   1
  -5   0   6 344413.  23447.   1
   5   0  -6 327653.  13897.   1
   5   0  -6 354190.  24145.   1
   5   0  -6 337430.  23000.   1
  -5   0   5 184916. 7921.78   1
  -5   0   5 192542.  13148.   1
   5   0  -5 188156. 8030.72   1
   5   0  -5 194720.  13307.   1
   5   0  -5 184693.  12637.   1
  -5   0   4  40810. 1857.82   1
  -5   0   4  36313. 2548.88   1
   5   0  -4  37961. 1733.24   1
   5   0  -4  37402. 2658.94   1
   5   0  -4  38771. 2738.27   1
  -5   0   3 217737. 9276.53   1
  -5   0   3 198436.  13542.   1
   5   0  -3 204190. 8695.52   1
   5   0  -3 207123.  14151.   1
   5   0  -3 200447.  13693.   1
  -5   0   2  12324. 594.692   1
  -5   0   2 9368.71 770.949   1
  -5   0   2  11679. 909.217   1
   5   0  -2  11204. 543.575   1
   5   0  -2  10735. 858.658   1
   5   0  -2  12045. 943.574   1
  -5   0   1 9991.61 780.725   1
  -5   0   1 9424.57 775.418   1
   5   0  -1 9388.26 778.770   1
   5   0  -1 7349.15 632.960   1
  -5   0   0 3927.37 400.000   1
  -5   0   0 3916.20 452.234   1
   5   0   0 3304.47 398.603   1
   5   0   0 4251.39 434.636   1
  -5   0  -1  92514. 6357.54   1
  -5   0  -1 103436. 7111.72   1
   5   0   1  89330. 6153.62   1
   5   0   1  93519. 6441.33   1
  -5   0  -2 164218.  11218.   1
  -5   0  -2 167737.  11472.   1
   5   0   2 165279.  11310.   1
   5   0   2 178575.  12212.   1
  -5   0  -3  46536. 3256.98   1
  -5   0  -3  42486. 2983.24   1
   5   0   3  43045. 3030.72   1
   5   0   3  43883. 3081.00   1
  -5   0  -4 310335.  21137.   1
  -5   0  -4 348044.  23707.   1
   5   0   4 340502.  23196.   1
   5   0   4 313408.  21360.   1
  -5   0  -5  46369. 2031.00   1
  -5   0  -5  47486. 2074.86   1
  -5   0  -5  52570. 3673.18   1
  -5   0  -5  46508. 3251.39   1
   5   0   5  50670. 2221.79   1
   5   0   5  50028. 3516.76   1
   5   0   5  48827. 3418.99   1
  -5   0  -6 122039. 5226.25   1
  -5   0  -6 116983. 8047.48   1
  -5   0  -6 114888. 7885.47   1
   5   0   6 110950. 4751.39   1
   5   0   6 116257. 7991.61   1
   5   0   6 114218. 7868.71   1
  -5   0  -7  57682. 2532.12   1
  -5   0  -7  58966. 4122.90   1
  -5   0  -7  59469. 4153.63   1
   5   0   7  51899. 2281.28   1
   5   0   7  59274. 4142.45   1
   5   0   7  64776. 4533.51   1
  -5   0  -8 1907.82 399.162   1
  -5   0  -8 2865.92 415.083   1
  -5   0  -8 1948.60 369.273   1
   5   0   8 1773.46 389.106   1
   5   0   8 1901.95 360.893   1
   5   0   8 2586.87 441.061   1
  -5   0  -9 1343.29 430.167   1
  -5   0  -9  801.95 294.972   1
  -5   0  -9 1501.40 373.743   1
   5   0   9  517.32 436.871   1
   5   0   9 1559.22 425.698   1
   5   0   9 1404.75 351.676   1
  -5   0 -10  26637. 1368.43   1
  -5   0 -10  30587. 2238.55   1
   5   0  10  30168. 1515.08   1
   5   0  10  27078. 2001.12   1
   5   0  10  27525. 2014.80   1
  -5   0 -11  80363. 3575.42   1
  -5   0 -11 108296. 7488.82   1
   5   0  11  89637. 3977.65   1
   5   0  11  75531. 5270.94   1
   5   0  11  85279. 5916.19   1
  -5   0 -12 9273.73 816.200   1
  -5   0 -12  10075. 939.384   1
   5   0  12 9405.02 862.010   1
   5   0  12 8581.00 849.161   1
   5   0  12 9530.72 869.552   1
  -5   0 -13  56760. 2675.42   1
  -5   0 -13  43603. 3134.07   1
   5   0  13  57989. 2740.78   1
   5   0  13  45894. 3268.15   1
   5   0  13  48631. 3452.51   1
   5   0  14  54441. 2672.90   1
  -5  -1  13  12363. 1010.61   1
  -5  -1  13 8351.95 953.072   1
   5   1 -13  12885. 957.820   1
  -5  -1  12 4664.80 679.329   1
  -5  -1  12 5432.96 720.949   1
   5   1 -12 3924.58 655.307   1
   5   1 -12 4561.45 566.759   1
   5   1 -12 5111.73 628.770   1
  -5  -1  11 8770.94 780.167   1
  -5  -1  11 8502.78 871.787   1
   5   1 -11 8259.77 740.781   1
   5   1 -11 7684.35 759.496   1
   5   1 -11 8553.06 803.630   1
  -5  -1  10 1832.96 524.580   1
  -5  -1  10 1981.00 480.167   1
   5   1 -10 2330.17 511.452   1
   5   1 -10 1811.17 387.709   1
   5   1 -10 1867.88 439.664   1
  -5  -1   9 105307. 4628.49   1
  -5  -1   9 117570. 8103.34   1
   5   1  -9 116816. 5114.52   1
   5   1  -9 122933. 8460.88   1
   5   1  -9 114218. 7882.67   1
  -5  -1   8  66369. 2991.62   1
  -5  -1   8  72681. 5061.45   1
   5   1  -8  68073. 3027.93   1
   5   1  -8  74553. 5181.56   1
   5   1  -8  70475. 4921.78   1
  -5  -1   7 182346. 7835.19   1
  -5  -1   7 184441.  12620.   1
   5   1  -7 177123. 7586.58   1
   5   1  -7 167430.  11480.   1
   5   1  -7 197570.  13520.   1
  -5  -1   6 209106. 8960.88   1
  -5  -1   6 197346.  13506.   1
   5   1  -6 191983. 8212.28   1
   5   1  -6 199944.  13684.   1
   5   1  -6 210391.  14385.   1
  -5  -1   5 1212.01 371.229   1
  -5  -1   5 1076.26 329.329   1
   5   1  -5  806.14 358.938   1
   5   1  -5 1290.78 308.659   1
   5   1  -5 1252.23 324.581   1
  -5  -1   4  57430. 2544.13   1
  -5  -1   4  52570. 3678.77   1
   5   1  -4  49246. 2244.41   1
   5   1  -4  54581. 3824.02   1
   5   1  -4  48771. 3416.20   1
  -5  -1   3  41732. 1870.95   1
  -5  -1   3  34190. 2421.79   1
   5   1  -3  34525. 1578.77   1
   5   1  -3  33352. 2382.12   1
   5   1  -3  33631. 2399.16   1
  -5  -1   2  16696. 789.943   1
  -5  -1   2  16774. 1261.17   1
  -5  -1   2  15268. 1164.80   1
   5   1  -2  15936. 783.239   1
   5   1  -2  16665. 786.312   1
   5   1  -2  18212. 1358.38   1
   5   1  -2  18031. 1343.29   1
  -5  -1   1  29218. 1283.24   1
  -5  -1   1  28771. 2066.48   1
  -5  -1   1  26897. 1929.89   1
   5   1  -1  29916. 1313.97   1
   5   1  -1  27084. 1195.25   1
   5   1  -1  28017. 2010.33   1
   5   1  -1  30894. 2198.04   1
  -5  -1   0 147709.  10109.   1
  -5  -1   0 146257.  10017.   1
   5   1   0 141424. 9684.35   1
   5   1   0 142821. 9784.91   1
  -5  -1  -1 362290.  24665.   1
  -5  -1  -1 379329.  25816.   1
   5   1   1 391620.  26654.   1
   5   1   1 403352.  27439.   1
  -5  -1  -2 2425.98 331.285   1
  -5  -1  -2 3016.76 375.139   1
   5   1   2 2367.04 351.676   1
   5   1   2 2988.82 382.961   1
  -5  -1  -3 371229.  25279.   1
  -5  -1  -3 393296.  26768.   1
   5   1   3 385195.  26223.   1
   5   1   3 405028.  27567.   1
  -5  -1  -4 129721. 8893.85   1
  -5  -1  -4 132793. 9106.13   1
   5   1   4 123603. 8486.02   1
   5   1   4 135838. 9315.63   1
  -5  -1  -5  12106. 587.709   1
  -5  -1  -5  11140. 891.061   1
  -5  -1  -5  12140. 957.541   1
   5   1   5  11581. 937.988   1
   5   1   5  12425. 982.960   1
  -5  -1  -6  32263. 1454.75   1
  -5  -1  -6  28296. 2050.28   1
  -5  -1  -6  26964. 1942.18   1
   5   1   6  22902. 1084.64   1
   5   1   6  28240. 2051.39   1
   5   1   6  29050. 2093.29   1
  -5  -1  -7 7927.37 517.597   1
  -5  -1  -7 9122.90 789.105   1
  -5  -1  -7 8365.91 740.781   1
   5   1   7 7159.21 520.670   1
   5   1   7 9072.62 820.669   1
   5   1   7  10332. 865.642   1
  -5  -1  -8  36732. 1705.03   1
  -5  -1  -8  38966. 2774.02   1
  -5  -1  -8  38939. 2765.92   1
   5   1   8  30587. 1461.17   1
   5   1   8  38715. 2761.45   1
   5   1   8  37290. 2682.96   1
  -5  -1  -9  381.28 388.547   1
  -5  -1  -9  847.49 360.614   1
  -5  -1  -9  747.76 329.609   1
   5   1   9 1026.81 411.731   1
   5   1   9 1775.70 442.178   1
   5   1   9 1590.50 375.139   1
  -5  -1 -10 135810. 5874.30   1
  -5  -1 -10 137011. 9402.22   1
  -5  -1 -10 164609.  11299.   1
   5   1  10 136285. 5902.23   1
   5   1  10 140307. 9645.24   1
   5   1  10 143184. 9837.98   1
  -5  -1 -11  71313. 3203.91   1
  -5  -1 -11  83771. 5824.02   1
   5   1  11  77877. 3474.86   1
   5   1  11  71425. 4977.65   1
   5   1  11  80168. 5572.62   1
  -5  -1 -12  38352. 1880.44   1
  -5  -1 -12  46564. 3329.61   1
   5   1  12  45950. 2195.25   1
   5   1  12  36173. 2604.47   1
   5   1  12  33045. 2397.76   1
  -5  -1 -13  91564. 4086.59   1
  -5  -1 -13  80195. 5597.76   1
   5   1  13  99469. 4416.20   1
   5   1  13  72486. 5055.86   1
   5   1  13  79693. 5547.48   1
  -5  -1 -14 1055.59 709.496   1
  -5  -1 -14 1461.17 514.804   1
   5   1  14 1455.86 775.139   1
   5   1  14  657.54 406.983   1
   5   1  14  681.56 422.905   1
  -5  -2  13 7016.75 893.295   1
   5   2 -13 9167.59 917.876   1
  -5  -2  12  38687. 1917.04   1
  -5  -2  12  29078. 2176.53   1
   5   2 -12  40419. 1922.34   1
   5   2 -12  31508. 2327.65   1
   5   2 -12  29050. 2137.43   1
  -5  -2  11  370.39 563.128   1
  -5  -2  11  800.00 486.592   1
   5   2 -11 1137.71 518.156   1
   5   2 -11 1001.95 439.944   1
   5   2 -11  753.35 377.933   1
  -5  -2  10 101285. 4466.48   1
  -5  -2  10 109972. 7606.14   1
   5   2 -10 110335. 4837.98   1
   5   2 -10 117207. 8083.79   1
   5   2 -10  95140. 6581.00   1
  -5  -2   9  99944. 4399.44   1
  -5  -2   9 105112. 7268.15   1
   5   2  -9 116397. 5089.38   1
   5   2  -9 105363. 7273.74   1
   5   2  -9  98100. 6787.70   1
  -5  -2   8  42486. 2000.28   1
  -5  -2   8  43017. 3047.48   1
   5   2  -8  40140. 1865.36   1
   5   2  -8  40782. 2893.85   1
   5   2  -8  41117. 2932.96   1
  -5  -2   7 126955. 5511.17   1
  -5  -2   7 117765. 8106.14   1
   5   2  -7 119944. 5203.90   1
   5   2  -7 129721. 8918.99   1
   5   2  -7 126955. 8737.42   1
  -5  -2   6  19469. 1036.31   1
  -5  -2   6  20983. 1559.77   1
   5   2  -6  16626. 939.943   1
   5   2  -6  19103. 1434.36   1
   5   2  -6  19047. 1443.57   1
  -5  -2   5 2365.36 367.039   1
  -5  -2   5 2494.97 388.268   1
   5   2  -5 1190.22 387.150   1
   5   2  -5 3128.49 404.748   1
   5   2  -5 2501.67 402.234   1
  -5  -2   4  38492. 1756.42   1
  -5  -2   4  38296. 2712.85   1
   5   2  -4  43659. 3089.38   1
   5   2  -4  40084. 2843.57   1
  -5  -2   3 144134. 6173.18   1
  -5  -2   3 135866. 9321.22   1
  -5  -2   3 133715. 9198.31   1
   5   2  -3 141033. 9670.38   1
   5   2  -3 144246. 9891.05   1
  -5  -2   2 155419. 6631.28   1
  -5  -2   2 153603.  10517.   1
  -5  -2   2 156843.  10746.   1
  -5  -2   1  75838. 3268.15   1
  -5  -2   1  79106. 5474.85   1
  -5  -2   1  77989. 5399.44   1
   5   2  -1  80447. 5561.45   1
   5   2  -1  81536. 5639.66   1
  -5  -2   0 634357.  26866.   1
  -5  -2   0 543575.  36983.   1
  -5  -2   0 517039.  35168.   1
   5   2   0 580446.  24573.   1
   5   2   0 513407.  21749.   1
   5   2   0 562290.  38240.   1
   5   2   0 546089.  37151.   1
  -5  -2  -1  11528. 915.921   1
  -5  -2  -1  10073. 827.932   1
   5   2   1  10880. 881.005   1
   5   2   1  12464. 985.194   1
  -5  -2  -2 182262.  12466.   1
  -5  -2  -2 180167.  12324.   1
   5   2   2 183994.  12584.   1
   5   2   2 188994.  12927.   1
  -5  -2  -3 142542. 6083.79   1
  -5  -2  -3 151704.  10394.   1
  -5  -2  -3 155642.  10670.   1
   5   2   3 154972.  10620.   1
   5   2   3 146201.  10028.   1
  -5  -2  -4 2193.57 214.693   1
  -5  -2  -4 2619.83 371.229   1
  -5  -2  -4 2008.38 347.486   1
   5   2   4 2414.52 387.150   1
   5   2   4 2112.29 331.005   1
  -5  -2  -5  264.58 203.519   1
  -5  -2  -5  497.76 309.497   1
  -5  -2  -5  168.74 251.005   1
   5   2   5  358.66 262.430   1
   5   2   5  322.63 283.240   1
  -5  -2  -6  26112. 1213.69   1
  -5  -2  -6  25321. 1844.69   1
  -5  -2  -6  26897. 1970.39   1
   5   2   6  26603. 1941.90   1
   5   2   6  25411. 1856.14   1
  -5  -2  -7 112821. 4863.12   1
  -5  -2  -7 113128. 7787.70   1
  -5  -2  -7 129944. 8952.50   1
   5   2   7 101536. 4402.23   1
   5   2   7 123631. 8513.96   1
   5   2   7 110894. 7639.66   1
  -5  -2  -8  11249. 695.251   1
  -5  -2  -8  10927. 897.206   1
  -5  -2  -8  11439. 972.066   1
   5   2   8 9726.25 654.189   1
   5   2   8  12941. 1055.59   1
   5   2   8  11383. 935.753   1
  -5  -2  -9 122961. 5318.43   1
  -5  -2  -9 123631. 8502.78   1
  -5  -2  -9 125000. 8603.34   1
   5   2   9 114134. 4974.85   1
   5   2   9 121341. 8360.33   1
   5   2   9 125028. 8608.93   1
  -5  -2 -10 145894. 6298.88   1
  -5  -2 -10 143128. 9826.81   1
  -5  -2 -10 162458.  11148.   1
   5   2  10 142179. 6156.42   1
   5   2  10 169357.  11609.   1
   5   2  10 154665.  10620.   1
  -5  -2 -11 2674.02 522.066   1
  -5  -2 -11 2307.82 430.726   1
  -5  -2 -11 2691.90 427.374   1
   5   2  11 3530.72 567.877   1
   5   2  11 1655.31 380.726   1
   5   2  11 2555.58 452.793   1
  -5  -2 -12  50112. 2343.01   1
  -5  -2 -12  51788. 3656.42   1
   5   2  12  56788. 2626.25   1
   5   2  12  51452. 3628.49   1
   5   2  12  49078. 3472.06   1
  -5  -2 -13  11634. 874.021   1
  -5  -2 -13  12880. 1107.26   1
   5   2  13  12559. 944.412   1
   5   2  13  12092. 1017.88   1
   5   2  13  13020. 1101.40   1
  -5  -2 -14 1178.49 679.050   1
  -5  -2 -14 1219.83 493.016   1
   5   2  14 1274.30 721.228   1
   5   2  14  806.42 425.698   1
   5   2  14 1067.32 418.994   1
  -5  -3  12  11156. 858.100   1
  -5  -3  12 9840.77 879.329   1
   5   3 -12  11492. 806.424   1
   5   3 -12  10014. 899.161   1
   5   3 -12  10070. 915.083   1
  -5  -3  11  44916. 2128.21   1
  -5  -3  11  52570. 3720.67   1
   5   3 -11  50810. 2353.63   1
   5   3 -11  49106. 3494.41   1
   5   3 -11  52654. 3723.46   1
  -5  -3  10  80587. 3581.00   1
  -5  -3  10  88575. 6145.25   1
   5   3 -10  87737. 3891.06   1
   5   3 -10  80168. 5581.00   1
   5   3 -10  86843. 6033.51   1
  -5  -3   9 3396.64 501.675   1
  -5  -3   9 2865.92 486.312   1
   5   3  -9 3301.67 498.603   1
   5   3  -9 2793.29 445.530   1
   5   3  -9 3759.77 521.508   1
  -5  -3   8  31704. 1547.21   1
  -5  -3   8  33268. 2385.19   1
   5   3  -8  32905. 1603.63   1
   5   3  -8  34190. 2445.53   1
   5   3  -8  35838. 2573.46   1
  -5  -3   7  14087. 826.535   1
  -5  -3   7  15265. 1175.14   1
   5   3  -7  15045. 899.440   1
   5   3  -7  15880. 1225.70   1
   5   3  -7  14045. 1114.80   1
  -5  -3   6  12553. 741.899   1
  -5  -3   6  10832. 882.122   1
   5   3  -6  11156. 694.413   1
   5   3  -6  10754. 726.256   1
   5   3  -6  12383. 1001.12   1
   5   3  -6  10648. 893.295   1
  -5  -3   5 2362.29 371.508   1
  -5  -3   5 2082.12 338.826   1
   5   3  -5 2663.13 432.681   1
   5   3  -5 2636.59 381.564   1
   5   3  -5 2541.34 400.000   1
   5   3  -5 2801.67 401.396   1
  -5  -3   4  97570. 4240.22   1
  -5  -3   4  93827. 6463.68   1
   5   3  -4  95168. 4189.94   1
   5   3  -4 105391. 4575.41   1
   5   3  -4  96927. 6692.73   1
   5   3  -4  94804. 6550.27   1
  -5  -3   3 265726.  11285.   1
  -5  -3   3 261480.  17852.   1
  -5  -3   3 254301.  17332.   1
   5   3  -3 251452.  10709.   1
   5   3  -3 280167.  11891.   1
   5   3  -3 274972.  18757.   1
   5   3  -3 252011.  17204.   1
  -5  -3   2 2469.55 294.692   1
  -5  -3   2 1545.25 344.413   1
  -5  -3   2 2682.40 382.961   1
   5   3  -2 1939.10 310.056   1
   5   3  -2 2225.98 284.916   1
   5   3  -2 1914.24 341.620   1
   5   3  -2 2177.37 367.877   1
  -5  -3   1 367039.  15534.   1
  -5  -3   1 363966.  24802.   1
  -5  -3   1 368435.  25073.   1
   5   3  -1 340223.  14394.   1
   5   3  -1 373184.  15785.   1
   5   3  -1 346368.  23598.   1
   5   3  -1 377933.  25735.   1
  -5  -3   0  61760. 2693.01   1
  -5  -3   0  58631. 4097.76   1
  -5  -3   0  62263. 4315.64   1
   5   3   0  61257. 2661.45   1
   5   3   0  64106. 2798.88   1
   5   3   0  62961. 4382.68   1
   5   3   0  66927. 4650.83   1
  -5  -3  -1  36173. 2574.58   1
  -5  -3  -1  34106. 2411.45   1
   5   3   1  38799. 1732.40   1
   5   3   1  38520. 1708.94   1
   5   3   1  37095. 2633.24   1
   5   3   1  37542. 2663.13   1
  -5  -3  -2  59106. 2575.14   1
  -5  -3  -2  58240. 4067.03   1
  -5  -3  -2  66871. 4628.49   1
   5   3   2  68212. 2952.51   1
   5   3   2  61844. 2689.66   1
   5   3   2  61173. 4262.57   1
   5   3   2  63436. 4416.20   1
  -5  -3  -3  77235. 3337.99   1
  -5  -3  -3  81843. 5664.80   1
  -5  -3  -3  68966. 4773.74   1
   5   3   3  78994. 3407.82   1
   5   3   3  78100. 3388.26   1
   5   3   3  70978. 4924.58   1
   5   3   3  79749. 5522.34   1
  -5  -3  -4  41201. 1832.40   1
  -5  -3  -4  41983. 2972.06   1
  -5  -3  -4  36452. 2581.84   1
   5   3   4  46955. 2076.25   1
   5   3   4  42039. 1900.00   1
   5   3   4  45056. 3184.35   1
   5   3   4  43771. 3086.59   1
  -5  -3  -5 7972.06 479.608   1
  -5  -3  -5 9516.75 798.602   1
  -5  -3  -5 9005.58 775.977   1
   5   3   5 8301.67 540.782   1
   5   3   5 9391.05 576.815   1
   5   3   5 8997.20 768.714   1
   5   3   5 9463.68 798.044   1
  -5  -3  -6 251648.  10693.   1
  -5  -3  -6 274916.  18757.   1
  -5  -3  -6 240698.  16441.   1
   5   3   6 239609.  10218.   1
   5   3   6 264385.  11232.   1
   5   3   6 280167.  19120.   1
   5   3   6 253854.  17332.   1
  -5  -3  -7 100698. 4363.12   1
  -5  -3  -7 104330. 7181.56   1
  -5  -3  -7 101480. 6994.41   1
   5   3   7 107849. 4662.01   1
   5   3   7 100503. 4402.23   1
   5   3   7 100028. 6918.99   1
   5   3   7 106117. 7315.63   1
  -5  -3  -8  57402. 2572.62   1
  -5  -3  -8  57039. 4000.00   1
  -5  -3  -8  53436. 3751.39   1
   5   3   8  48771. 2248.88   1
   5   3   8  53687. 3768.15   1
   5   3   8  61117. 4293.29   1
  -5  -3  -9 207709. 8888.26   1
  -5  -3  -9 190726.  13047.   1
  -5  -3  -9 177765.  12176.   1
   5   3   9 178994. 7706.70   1
   5   3   9 193072.  13215.   1
   5   3   9 189078.  12950.   1
  -5  -3 -10 7896.64 631.284   1
  -5  -3 -10 8449.71 775.977   1
  -5  -3 -10 8544.68 767.038   1
   5   3  10 7114.52 631.005   1
   5   3  10 8851.95 787.150   1
   5   3  10 7684.35 727.374   1
  -5  -3 -11  17950. 1017.88   1
  -5  -3 -11  17464. 1354.75   1
  -5  -3 -11  15425. 1209.22   1
   5   3  11  16458. 975.418   1
   5   3  11  17913. 1387.43   1
   5   3  11  17444. 1327.37   1
  -5  -3 -12  12656. 868.714   1
  -5  -3 -12  13486. 1092.18   1
   5   3  12  11925. 864.524   1
   5   3  12  12453. 1047.48   1
   5   3  12  12757. 1059.22   1
  -5  -3 -13  15601. 1005.59   1
  -5  -3 -13  17399. 1363.13   1
   5   3  13  17430. 1120.95   1
   5   3  13  16986. 1332.12   1
   5   3  13  17142. 1360.89   1
  -5  -3 -14 1734.64 683.519   1
  -5  -3 -14 2758.10 525.139   1
   5   3  14 2324.30 703.910   1
   5   3  14 3072.62 518.994   1
   5   3  14 2154.75 477.932   1
  -5  -4  12  12534. 902.792   1
  -5  -4  12  12528. 1111.17   1
   5   4 -12  14573. 953.351   1
   5   4 -12  12450. 879.887   1
   5   4 -12  12531. 1078.77   1
   5   4 -12  12226. 1055.03   1
  -5  -4  11  54693. 2518.15   1
  -5  -4  11  53631. 3782.12   1
   5   4 -11  53799. 2479.89   1
   5   4 -11  54749. 2505.58   1
   5   4 -11  55195. 3882.68   1
   5   4 -11  51983. 3667.59   1
  -5  -4  10 7421.78 664.245   1
  -5  -4  10 7840.77 754.468   1
   5   4 -10 6486.03 625.698   1
   5   4 -10 6430.16 636.033   1
   5   4 -10 8625.69 784.077   1
   5   4 -10 7128.48 740.223   1
  -5  -4   9  164.64 411.731   1
  -5  -4   9  315.92 408.659   1
   5   4  -9  -30.28 432.681   1
   5   4  -9  -16.56 447.765   1
   5   4  -9  -73.27 341.899   1
   5   4  -9  265.00 374.022   1
  -5  -4   8 7843.57 603.351   1
  -5  -4   8 9273.73 794.971   1
   5   4  -8 8826.81 700.837   1
   5   4  -8 7843.57 608.938   1
   5   4  -8  10383. 875.139   1
   5   4  -8 9385.46 830.725   1
  -5  -4   7  72151. 3203.91   1
  -5  -4   7  76983. 5324.02   1
   5   4  -7  73045. 3290.50   1
   5   4  -7  75587. 3349.16   1
   5   4  -7  74413. 5162.01   1
   5   4  -7  73352. 5103.35   1
  -5  -4   6  57598. 2588.54   1
  -5  -4   6  54469. 3810.05   1
   5   4  -6  58631. 2685.75   1
   5   4  -6  55223. 2487.43   1
   5   4  -6  55978. 3916.20   1
   5   4  -6  56648. 3969.27   1
  -5  -4   5  18168. 959.217   1
  -5  -4   5  19092. 1430.17   1
   5   4  -5  18718. 984.636   1
   5   4  -5  20053. 1064.24   1
   5   4  -5  18645. 1398.60   1
   5   4  -5  20684. 1550.84   1
  -5  -4   4 262318.  11170.   1
  -5  -4   4 252151.  17207.   1
   5   4  -4 262123.  11165.   1
   5   4  -4 273044.  11620.   1
   5   4  -4 267290.  18243.   1
   5   4  -4 239972.  16397.   1
  -5  -4   3  53799. 2403.63   1
  -5  -4   3  51033. 3583.80   1
  -5  -4   3  55698. 3905.02   1
   5   4  -3  53855. 2398.60   1
   5   4  -3  52570. 2371.23   1
   5   4  -3  54749. 3846.36   1
   5   4  -3  56369. 3941.34   1
  -5  -4   2 106257. 4586.59   1
  -5  -4   2 107262. 7396.64   1
  -5  -4   2  98156. 6773.74   1
   5   4  -2 101201. 4377.09   1
   5   4  -2 109804. 4748.60   1
   5   4  -2  99469. 6860.33   1
   5   4  -2 102374. 7058.65   1
  -5  -4   1 103184. 4455.30   1
  -5  -4   1 101592. 6994.41   1
  -5  -4   1 113408. 7815.63   1
   5   4  -1 100447. 4335.19   1
   5   4  -1 107793. 4648.04   1
   5   4  -1 105084. 7243.01   1
   5   4  -1 105084. 7237.42   1
  -5  -4   0 1377.37 248.044   1
  -5  -4   0 1242.74 312.011   1
  -5  -4   0 1625.14 355.586   1
   5   4   0 1461.45 279.609   1
   5   4   0 1340.78 272.793   1
   5   4   0 1576.53 330.447   1
   5   4   0 1866.76 359.217   1
  -5  -4  -1 2351.11 368.156   1
  -5  -4  -1 2557.82 396.089   1
   5   4   1 2685.47 297.206   1
   5   4   1 2456.70 300.558   1
   5   4   1 3455.30 438.826   1
   5   4   1 2474.02 385.195   1
  -5  -4  -2  36341. 1648.32   1
  -5  -4  -2  35922. 2568.15   1
  -5  -4  -2  36117. 2567.04   1
   5   4   2  31089. 1432.40   1
   5   4   2  34330. 1567.32   1
   5   4   2  28883. 2093.29   1
   5   4   2  35307. 2525.98   1
  -5  -4  -3 170112. 7256.98   1
  -5  -4  -3 175195.  11994.   1
  -5  -4  -3 164497.  11257.   1
   5   4   3 168631.  11545.   1
   5   4   3 163575.  11209.   1
  -5  -4  -4  19399. 948.044   1
  -5  -4  -4  20405. 1515.64   1
  -5  -4  -4  22679. 1674.30   1
   5   4   4  21709. 1056.98   1
   5   4   4  22313. 1096.37   1
   5   4   4  21777. 1616.48   1
   5   4   4  21846. 1613.41   1
  -5  -4  -5 210531. 8974.85   1
  -5  -4  -5 227989.  15567.   1
  -5  -4  -5 185977.  12723.   1
   5   4   5 225530. 9611.72   1
   5   4   5 229190. 9765.35   1
   5   4   5 211787.  14472.   1
   5   4   5 214469.  14665.   1
  -5  -4  -6 286033.  12162.   1
  -5  -4  -6 279329.  19059.   1
  -5  -4  -6 295530.  20154.   1
   5   4   6 312290.  13277.   1
   5   4   6 332123.  14112.   1
   5   4   6 282961.  19302.   1
   5   4   6 325419.  22184.   1
  -5  -4  -7  21980. 1112.01   1
  -5  -4  -7  21609. 1601.12   1
  -5  -4  -7  20969. 1563.96   1
   5   4   7  21209. 1107.26   1
   5   4   7  21871. 1080.17   1
   5   4   7  21528. 1610.05   1
   5   4   7  20358. 1520.11   1
  -5  -4  -8 170614. 7318.43   1
  -5  -4  -8 168938.  11561.   1
  -5  -4  -8 164357.  11263.   1
   5   4   8 170139. 7335.19   1
   5   4   8 179553. 7675.97   1
   5   4   8 187877.  12869.   1
   5   4   8 163128.  11179.   1
  -5  -4  -9  23095. 1172.07   1
  -5  -4  -9  23866. 1770.67   1
  -5  -4  -9  22355. 1640.22   1
   5   4   9  20503. 1123.46   1
   5   4   9  22212. 1159.22   1
   5   4   9  24684. 1825.70   1
   5   4   9  24972. 1847.76   1
  -5  -4 -10  643.85 413.966   1
  -5  -4 -10  419.55 322.625   1
  -5  -4 -10  501.12 361.452   1
   5   4  10  337.43 458.659   1
   5   4  10  667.32 330.726   1
   5   4  10  371.51 300.000   1
  -5  -4 -11 3100.56 527.653   1
  -5  -4 -11 3664.80 507.821   1
  -5  -4 -11 3863.12 517.318   1
   5   4  11 4142.45 613.407   1
   5   4  11 4349.16 502.234   1
   5   4  11 4527.93 558.659   1
  -5  -4 -12  37514. 1829.05   1
  -5  -4 -12  32318. 2308.66   1
  -5  -4 -12  40894. 2932.96   1
   5   4  12  37458. 1836.59   1
   5   4  12  38966. 2783.24   1
   5   4  12  39497. 2821.23   1
  -5  -4 -13  28073. 1479.89   1
  -5  -4 -13  29385. 2162.85   1
   5   4  13  29385. 1569.27   1
   5   4  13  27989. 2069.27   1
   5   4  13  30894. 2243.57   1
  -5  -4 -14 2291.62 668.714   1
  -5  -4 -14 2849.16 547.485   1
   5   4  14 2955.30 699.161   1
   5   4  14 3335.19 537.150   1
   5   4  14 2480.72 485.754   1
  -5  -5  11  12966. 878.211   1
  -5  -5  11  13084. 1110.33   1
   5   5 -11  12022. 817.597   1
   5   5 -11  13925. 936.871   1
   5   5 -11  12168. 1032.40   1
   5   5 -11  13204. 1078.21   1
  -5  -5  10 5729.04 615.362   1
  -5  -5  10 5600.55 682.960   1
   5   5 -10 5583.79 657.541   1
   5   5 -10 5041.89 565.921   1
   5   5 -10 6648.04 701.675   1
   5   5 -10 6614.52 680.167   1
  -5  -5   9 3195.53 511.173   1
  -5  -5   9 4846.36 594.971   1
   5   5  -9 4377.09 554.469   1
   5   5  -9 4924.58 580.446   1
   5   5  -9 4530.72 591.340   1
   5   5  -9 4033.52 486.592   1
  -5  -5   8  72598. 3234.63   1
  -5  -5   8  70531. 4913.40   1
   5   5  -8  70754. 3175.97   1
   5   5  -8  73128. 3268.15   1
   5   5  -8  75782. 5279.32   1
   5   5  -8  81285. 5650.83   1
  -5  -5   7 162346. 6988.82   1
  -5  -5   7 173184.  11855.   1
   5   5  -7 167737. 7248.60   1
   5   5  -7 156927. 6751.39   1
   5   5  -7 170419.  11682.   1
   5   5  -7 162067.  11106.   1
  -5  -5   6 9698.31 668.994   1
  -5  -5   6 8421.78 759.776   1
   5   5  -6 9689.93 710.614   1
   5   5  -6 9460.88 671.508   1
   5   5  -6  10553. 912.010   1
   5   5  -6  10137. 830.167   1
  -5  -5   5 248659.  10601.   1
  -5  -5   5 247290.  16888.   1
   5   5  -5 245084.  10450.   1
   5   5  -5 254553.  10855.   1
   5   5  -5 256480.  17494.   1
   5   5  -5 248324.  16966.   1
  -5  -5   4  73464. 3237.43   1
  -5  -5   4  80503. 5581.00   1
   5   5  -4  72570. 3201.11   1
   5   5  -4  78268. 3438.54   1
   5   5  -4  78100. 5418.99   1
   5   5  -4  79637. 5502.79   1
  -5  -5   3  58715. 2625.70   1
  -5  -5   3  65223. 4550.27   1
  -5  -5   3  66704. 4650.83   1
   5   5  -3  58575. 2613.96   1
   5   5  -3  58603. 2618.71   1
   5   5  -3  59721. 4156.42   1
   5   5  -3  59162. 4134.07   1
  -5  -5   2  47458. 2152.23   1
  -5  -5   2  47654. 3360.33   1
  -5  -5   2  48240. 3407.82   1
   5   5  -2  49246. 2206.98   1
   5   5  -2  49916. 2265.08   1
   5   5  -2  59609. 4181.56   1
   5   5  -2  48771. 3407.82   1
  -5  -5   1  16961. 881.843   1
  -5  -5   1  17173. 1317.88   1
  -5  -5   1  19257. 1469.27   1
   5   5  -1  18628. 946.088   1
   5   5  -1  19528. 991.898   1
   5   5  -1  16975. 1275.70   1
   5   5  -1  17690. 1340.78   1
  -5  -5   0  35000. 1616.48   1
  -5  -5   0  37039. 2644.41   1
  -5  -5   0  36285. 2604.75   1
   5   5   0  35614. 1639.38   1
   5   5   0  36145. 1666.76   1
   5   5   0  35195. 2510.61   1
   5   5   0  35195. 2508.10   1
  -5  -5  -1 4988.82 406.703   1
  -5  -5  -1 4036.31 408.379   1
  -5  -5  -1 4527.93 503.910   1
  -5  -5  -1 5430.16 591.620   1
   5   5   1 5262.56 428.770   1
   5   5   1 5083.79 414.245   1
   5   5   1 5310.05 541.620   1
   5   5   1 4544.69 483.519   1
  -5  -5  -2 241313.  10263.   1
  -5  -5  -2 253966.  17332.   1
  -5  -5  -2 251760.  17196.   1
   5   5   2 250391.  10662.   1
   5   5   2 223072. 9505.58   1
   5   5   2 241313.  16472.   1
   5   5   2 268044.  18285.   1
  -5  -5  -3 157765. 6762.56   1
  -5  -5  -3 158212.  10852.   1
  -5  -5  -3 167570.  11486.   1
   5   5   3 160754. 6891.05   1
   5   5   3 158491. 6807.26   1
   5   5   3 155447.  10651.   1
   5   5   3 156033.  10690.   1
  -5  -5  -4  74776. 3296.09   1
  -5  -5  -4  79721. 5527.93   1
  -5  -5  -4  70028. 4874.30   1
   5   5   4  74888. 3296.09   1
   5   5   4  75587. 3337.99   1
   5   5   4  66369. 4614.52   1
   5   5   4  72654. 5044.69   1
  -5  -5  -5 222625. 9499.99   1
  -5  -5  -5 214972.  14701.   1
  -5  -5  -5 217374.  14858.   1
   5   5   5 223519. 9533.51   1
   5   5   5 238240.  10162.   1
   5   5   5 197234.  13486.   1
   5   5   5 208603.  14260.   1
  -5  -5  -6 5558.65 465.083   1
   5   5   6 4583.79 474.022   1
   5   5   6 6298.88 530.726   1
   5   5   6 6164.80 596.368   1
   5   5   6 6837.98 654.469   1
  -5  -5  -7  42849. 1957.54   1
  -5  -5  -7  46425. 3276.53   1
  -5  -5  -7  43045. 3053.07   1
   5   5   7  43408. 1982.96   1
   5   5   7  44330. 2037.43   1
   5   5   7  42346. 3002.79   1
   5   5   7  44525. 3142.45   1
  -5  -5  -8  17053. 920.669   1
  -5  -5  -8  18042. 1368.71   1
  -5  -5  -8  18182. 1387.15   1
   5   5   8  15955. 906.424   1
   5   5   8  16673. 887.709   1
   5   5   8  18648. 1413.13   1
   5   5   8  16246. 1241.06   1
  -5  -5  -9  14961. 860.893   1
  -5  -5  -9  14835. 1156.70   1
  -5  -5  -9  13698. 1093.02   1
   5   5   9  14461. 860.614   1
   5   5   9  13581. 853.630   1
   5   5   9  15553. 1182.12   1
   5   5   9  14662. 1145.81   1
  -5  -5 -10  16603. 939.943   1
  -5  -5 -10  17212. 1328.77   1
  -5  -5 -10  18587. 1425.14   1
   5   5  10  15159. 926.815   1
   5   5  10  16751. 952.792   1
   5   5  10  18704. 1415.36   1
   5   5  10  16737. 1267.32   1
  -5  -5 -11  25310. 1285.19   1
  -5  -5 -11  23391. 1737.71   1
  -5  -5 -11  24877. 1836.87   1
   5   5  11  23891. 1233.52   1
   5   5  11  23545. 1264.80   1
   5   5  11  24408. 1808.94   1
   5   5  11  25355. 1860.33   1
  -5  -5 -12 110670. 4835.19   1
  -5  -5 -12 112207. 7734.63   1
  -5  -5 -12 103966. 7181.56   1
   5   5  12 111564. 4913.40   1
   5   5  12 114329. 7854.74   1
   5   5  12 116424. 8011.17   1
  -5  -5 -13  651.40 568.156   1
  -5  -5 -13 1210.61 440.782   1
   5   5  13 1443.85 644.971   1
   5   5  13 1069.55 401.676   1
   5   5  13 1366.48 408.100   1
  -5  -5 -14  40950. 2005.31   1
  -5  -5 -14  35838. 2601.11   1
   5   5  14  44246. 2203.35   1
   5   5  14  34749. 2484.63   1
   5   5  14  36983. 2658.66   1
  -5  -6  10  22556. 1219.27   1
  -5  -6  10  20790. 1611.17   1
   5   6 -10  19299. 1074.02   1
   5   6 -10  21821. 1189.10   1
   5   6 -10  20439. 1562.57   1
   5   6 -10  20011. 1547.48   1
  -5  -6   9  18659. 1058.38   1
  -5  -6   9  16799. 1339.66   1
   5   6  -9  16036. 950.278   1
   5   6  -9  18201. 1078.77   1
   5   6  -9  18634. 1452.23   1
   5   6  -9  18718. 1431.00   1
  -5  -6   8 158771. 6846.36   1
  -5  -6   8 164413.  11274.   1
   5   6  -8 151369. 6533.51   1
   5   6  -8 165223. 7108.93   1
   5   6  -8 178687.  12246.   1
   5   6  -8 153072.  10489.   1
  -5  -6   7 3466.48 469.832   1
  -5  -6   7 3385.47 496.089   1
   5   6  -7 3097.76 459.497   1
   5   6  -7 3156.42 491.899   1
   5   6  -7 2432.96 446.927   1
   5   6  -7 3466.48 472.905   1
  -5  -6   6 109637. 4776.53   1
  -5  -6   6 109748. 7550.27   1
   5   6  -6 106899. 4667.59   1
   5   6  -6 109329. 4779.32   1
   5   6  -6 115223. 7932.95   1
   5   6  -6 114609. 7893.85   1
  -5  -6   5  63352. 2829.61   1
  -5  -6   5  59274. 4139.66   1
   5   6  -5  63436. 2824.02   1
   5   6  -5  61536. 2764.24   1
   5   6  -5  66480. 4625.69   1
   5   6  -5  61899. 4321.22   1
  -5  -6   4 1538.27 335.474   1
  -5  -6   4  833.52 384.636   1
   5   6  -4 1067.88 346.648   1
   5   6  -4 1246.65 345.810   1
   5   6  -4 1208.10 352.234   1
   5   6  -4 1225.14 304.469   1
  -5  -6   3 3527.93 417.039   1
  -5  -6   3 3270.95 477.653   1
   5   6  -3 3804.47 444.972   1
   5   6  -3 3231.84 401.955   1
   5   6  -3 3583.80 410.893   1
   5   6  -3 4371.50 503.631   1
  -5  -6   2  16712. 889.664   1
  -5  -6   2  18103. 1390.78   1
  -5  -6   2  17891. 1386.31   1
   5   6  -2  16852. 899.440   1
   5   6  -2  17207. 905.027   1
   5   6  -2  18193. 1376.26   1
   5   6  -2  17112. 1282.96   1
  -5  -6   1  95307. 4148.04   1
  -5  -6   1 100084. 6913.40   1
  -5  -6   1  91843. 6354.74   1
   5   6  -1  99022. 4301.67   1
   5   6  -1 100642. 4351.95   1
   5   6  -1  99078. 6826.81   1
   5   6  -1  97598. 6712.28   1
  -5  -6   0  11841. 700.837   1
  -5  -6   0  12436. 1025.70   1
  -5  -6   0  12601. 1024.58   1
   5   6   0  12679. 702.793   1
   5   6   0  12349. 705.586   1
   5   6   0  12472. 989.664   1
   5   6   0  12670. 974.580   1
  -5  -6  -1 132933. 5776.53   1
  -5  -6  -1 146676. 6304.46   1
  -5  -6  -1 142626. 9793.29   1
  -5  -6  -1 152458.  10458.   1
   5   6   1 146313. 6284.91   1
   5   6   1 153324. 6575.41   1
   5   6   1 155531.  10651.   1
   5   6   1 149050.  10196.   1
  -5  -6  -2 253044.  10785.   1
  -5  -6  -2 251145.  17148.   1
  -5  -6  -2 266536.  18193.   1
   5   6   2 246396.  10483.   1
   5   6   2 279301.  11880.   1
   5   6   2 240614.  16419.   1
   5   6   2 238156.  16237.   1
  -5  -6  -3  25816. 1261.17   1
  -5  -6  -3  24383. 1794.13   1
  -5  -6  -3  27637. 2021.79   1
   5   6   3  27218. 1310.89   1
   5   6   3  27039. 1311.73   1
   5   6   3  26542. 1903.91   1
   5   6   3  23696. 1734.91   1
  -5  -6  -4 150894. 6486.03   1
  -5  -6  -4 163855.  11229.   1
  -5  -6  -4 158464.  10866.   1
   5   6   4 155698. 6692.73   1
   5   6   4 149804. 6449.71   1
   5   6   4 151117.  10344.   1
   5   6   4 153128.  10489.   1
  -5  -6  -5  15682. 841.899   1
  -5  -6  -5  16472. 1274.02   1
  -5  -6  -5  14869. 1183.52   1
   5   6   5  16229. 896.088   1
   5   6   5  13855. 796.647   1
   5   6   5  15073. 1146.37   1
   5   6   5  15450. 1194.97   1
  -5  -6  -6 2707.26 390.782   1
  -5  -6  -6 2358.10 427.095   1
  -5  -6  -6 2700.00 442.737   1
   5   6   6 2696.09 414.525   1
   5   6   6 2194.69 420.949   1
   5   6   6 3382.68 442.458   1
   5   6   6 2403.91 360.893   1
  -5  -6  -7 7592.17 572.066   1
  -5  -6  -7 7765.35 725.698   1
  -5  -6  -7 7432.95 704.469   1
   5   6   7 7720.66 599.720   1
   5   6   7 7988.82 580.726   1
   5   6   7 7189.94 648.323   1
   5   6   7 7689.94 704.189   1
  -5  -6  -8  49385. 2241.06   1
  -5  -6  -8  51983. 3645.25   1
  -5  -6  -8  52011. 3659.21   1
   5   6   8  48324. 2196.37   1
   5   6   8  48631. 2262.01   1
   5   6   8  52011. 3648.04   1
   5   6   8  50782. 3561.45   1
  -5  -6  -9  93212. 4086.59   1
  -5  -6  -9  96285. 6653.62   1
  -5  -6  -9  96173. 6639.66   1
   5   6   9  95894. 4229.05   1
   5   6   9  98855. 4332.40   1
   5   6   9 102207. 7044.69   1
   5   6   9  99916. 6882.67   1
  -5  -6 -10 2468.99 458.379   1
  -5  -6 -10 2792.18 476.257   1
  -5  -6 -10 2735.75 492.178   1
   5   6  10 2179.61 483.798   1
   5   6  10 2687.43 510.055   1
   5   6  10 2226.81 403.072   1
   5   6  10 2846.37 450.279   1
  -5  -6 -11 166536. 7162.00   1
  -5  -6 -11 174972.  11978.   1
  -5  -6 -11 177905.  12182.   1
   5   6  11 174357. 7508.37   1
   5   6  11 160195. 6932.95   1
   5   6  11 179329.  12254.   1
   5   6  11 177653.  12156.   1
  -5  -6 -12  29441. 1488.55   1
  -5  -6 -12  31592. 2290.22   1
  -5  -6 -12  28212. 2055.03   1
   5   6  12  29190. 1500.56   1
   5   6  12  30447. 1569.55   1
   5   6  12  31592. 2299.16   1
   5   6  12  31592. 2270.39   1
  -5  -6 -13  19687. 1156.14   1
  -5  -6 -13  15992. 1253.91   1
  -5  -6 -13  19450. 1487.99   1
   5   6  13  21478. 1304.19   1
   5   6  13  19620. 1130.45   1
   5   6  13  19631. 1476.81   1
   5   6  13  20020. 1515.08   1
  -5  -7   9  54050. 2492.46   1
  -5  -7   9  60838. 4265.36   1
   5   7  -9  55419. 2517.59   1
   5   7  -9  56788. 2628.49   1
   5   7  -9  58547. 4106.14   1
   5   7  -9  56452. 3980.44   1
  -5  -7   8  21556. 1147.76   1
  -5  -7   8  20774. 1594.97   1
   5   7  -8  19257. 1056.42   1
   5   7  -8  21830. 1178.49   1
   5   7  -8  23114. 1727.37   1
   5   7  -8  20659. 1562.01   1
  -5  -7   7  20975. 1110.89   1
  -5  -7   7  20215. 1529.05   1
   5   7  -7  19162. 1044.97   1
   5   7  -7  17693. 982.680   1
  -5  -7   6  26894. 1343.29   1
  -5  -7   6  31313. 2288.54   1
   5   7  -6  31201. 1509.50   1
   5   7  -6  28799. 1407.54   1
   5   7  -6  30084. 2153.91   1
   5   7  -6  28101. 2064.80   1
  -5  -7   5  22427. 1145.53   1
  -5  -7   5  21670. 1617.60   1
   5   7  -5  19899. 1039.94   1
   5   7  -5  19777. 1062.85   1
   5   7  -5  20461. 1543.57   1
   5   7  -5  22936. 1689.66   1
  -5  -7   4  30838. 1478.21   1
  -5  -7   4  36089. 2580.44   1
   5   7  -4  32430. 1533.52   1
   5   7  -4  34776. 1660.61   1
   5   7  -4  37039. 2642.18   1
   5   7  -4  34581. 2483.80   1
  -5  -7   3  11380. 710.614   1
  -5  -7   3 9885.46 868.156   1
   5   7  -3  10017. 629.888   1
   5   7  -3  10715. 705.586   1
   5   7  -3  10902. 904.468   1
   5   7  -3  10793. 905.027   1
  -5  -7   2 171313. 7354.74   1
  -5  -7   2 190558.  13045.   1
  -5  -7   2 162570.  11148.   1
   5   7  -2 157933. 6773.74   1
   5   7  -2 169274. 7268.15   1
   5   7  -2 165614.  11344.   1
   5   7  -2 165251.  11318.   1
  -5  -7   1  61704. 2757.26   1
  -5  -7   1  68128. 4754.19   1
  -5  -7   1  63883. 4463.68   1
   5   7  -1  66620. 2966.48   1
   5   7  -1  64721. 2871.51   1
   5   7  -1  56536. 3960.89   1
   5   7  -1  67151. 4664.80   1
  -5  -7   0  78687. 3477.65   1
  -5  -7   0  83994. 5826.81   1
  -5  -7   0  84134. 5835.19   1
   5   7   0  79497. 3480.44   1
   5   7   0  78575. 3466.48   1
   5   7   0  80391. 5558.65   1
   5   7   0  85000. 5882.68   1
  -5  -7  -1 204525. 8737.42   1
  -5  -7  -1 202821.  13871.   1
  -5  -7  -1 213743.  14620.   1
   5   7   1 194218. 8318.43   1
   5   7   1 189329. 8083.79   1
   5   7   1 197709.  13511.   1
   5   7   1 200028.  13670.   1
  -5  -7  -2 1266.20 319.553   1
  -5  -7  -2  836.03 400.279   1
  -5  -7  -2  953.63 368.715   1
   5   7   2  992.74 294.692   1
   5   7   2 1848.88 371.508   1
   5   7   2 1418.43 347.765   1
   5   7   2 1349.44 324.301   1
  -5  -7  -3  50503. 2293.29   1
  -5  -7  -3  49972. 3522.34   1
  -5  -7  -3  52626. 3709.49   1
   5   7   3  46844. 2126.25   1
   5   7   3  44944. 2069.55   1
   5   7   3  46508. 3254.19   1
   5   7   3  48017. 3377.09   1
  -5  -7  -4  19774. 1038.83   1
  -5  -7  -4  19522. 1482.96   1
  -5  -7  -4  20385. 1543.29   1
   5   7   4  20257. 1061.45   1
   5   7   4  19520. 1033.24   1
   5   7   4  20011. 1508.66   1
   5   7   4  20478. 1508.94   1
  -5  -7  -5  40754. 1901.12   1
  -5  -7  -5  42151. 2988.82   1
  -5  -7  -5  35391. 2541.06   1
   5   7   5  41229. 1932.68   1
   5   7   5  40363. 1906.70   1
   5   7   5  38687. 2738.54   1
   5   7   5  39246. 2783.80   1
  -5  -7  -6 1987.71 390.502   1
  -5  -7  -6 1860.33 430.726   1
  -5  -7  -6 2160.61 453.072   1
   5   7   6 3047.48 446.648   1
   5   7   6 2612.57 449.162   1
   5   7   6 2067.60 418.435   1
   5   7   6 3164.80 440.223   1
  -5  -7  -7  35950. 1697.20   1
  -5  -7  -7  41508. 2949.72   1
  -5  -7  -7  39525. 2818.43   1
   5   7   7  36313. 1721.23   1
   5   7   7  40503. 1914.24   1
   5   7   7  36369. 2591.06   1
   5   7   7  38156. 2724.86   1
  -5  -7  -8  63045. 2821.23   1
  -5  -7  -8  65642. 4572.62   1
  -5  -7  -8  75894. 5279.32   1
   5   7   8  69134. 3083.80   1
   5   7   8  66397. 2994.41   1
   5   7   8  67626. 4701.11   1
   5   7   8  69134. 4818.43   1
  -5  -7  -9 3656.42 490.782   1
  -5  -7  -9 3997.20 524.860   1
  -5  -7  -9 3966.48 527.094   1
   5   7   9 4215.08 537.988   1
   5   7   9 4871.50 572.625   1
   5   7   9 4508.38 533.519   1
   5   7   9 4986.03 571.508   1
  -5  -7 -10  91145. 4005.58   1
  -5  -7 -10  93827. 6486.03   1
  -5  -7 -10  98883. 6835.19   1
   5   7  10  92151. 4078.21   1
   5   7  10  92486. 4081.00   1
   5   7  10  97011. 6689.94   1
   5   7  10  94078. 6499.99   1
  -5  -7 -11  50251. 2333.24   1
  -5  -7 -11  54721. 3846.36   1
  -5  -7 -11  51117. 3603.35   1
   5   7  11  43436. 2091.34   1
   5   7  11  49022. 2273.18   1
   5   7  11  51732. 3634.07   1
   5   7  11  48743. 3438.54   1
  -5  -7 -12 2586.87 618.994   1
  -5  -7 -12 2251.11 500.558   1
  -5  -7 -12 2435.47 496.927   1
   5   7  12 2310.61 527.374   1
   5   7  12 1473.46 575.139   1
   5   7  12 3005.58 483.519   1
   5   7  12 2702.51 481.564   1
  -5  -8   8  164.94 440.502   1
  -5  -8   8  408.38 513.128   1
   5   8  -8  636.03 531.284   1
   5   8  -8  689.38 484.916   1
   5   8  -8 -197.79 462.290   1
   5   8  -8 -182.65 385.754   1
  -5  -8   7 1722.62 436.592   1
  -5  -8   7 2037.71 531.843   1
   5   8  -7 1556.98 470.949   1
   5   8  -7 1686.87 493.016   1
   5   8  -7 1653.35 425.419   1
   5   8  -7 1573.46 476.536   1
  -5  -8   6  10500. 728.491   1
  -5  -8   6  11648. 1004.19   1
   5   8  -6  12690. 835.753   1
   5   8  -6  11634. 766.480   1
   5   8  -6  13450. 1105.59   1
   5   8  -6  12894. 1033.80   1
  -5  -8   5  64246. 2879.89   1
  -5  -8   5  59050. 4145.25   1
   5   8  -5  61871. 2770.11   1
   5   8  -5  67486. 3019.55   1
   5   8  -5  58994. 4120.11   1
   5   8  -5  61620. 4312.84   1
  -5  -8   4 5656.42 519.832   1
  -5  -8   4 3863.12 573.184   1
   5   8  -4 4751.39 508.100   1
   5   8  -4 4111.73 511.173   1
   5   8  -4 5569.83 589.664   1
   5   8  -4 4832.40 549.441   1
  -5  -8   3 100503. 4385.47   1
  -5  -8   3 113212. 7807.25   1
   5   8  -3 108575. 4745.81   1
   5   8  -3 102821. 4472.06   1
   5   8  -3 106536. 7337.98   1
   5   8  -3 102290. 7053.07   1
  -5  -8   2  94749. 4142.45   1
  -5  -8   2  94581. 6564.24   1
  -5  -8   2  97430. 6729.04   1
   5   8  -2  93408. 4097.76   1
   5   8  -2  88687. 3877.09   1
   5   8  -2  89581. 6195.52   1
   5   8  -2 100670. 6946.92   1
  -5  -8   1 7053.07 550.558   1
  -5  -8   1 8284.91 819.832   1
  -5  -8   1 8120.10 784.357   1
   5   8  -1 8541.89 610.893   1
   5   8  -1 7122.90 523.184   1
   5   8  -1 7483.23 696.089   1
   5   8  -1 8541.89 777.653   1
  -5  -8   0 123464. 5346.36   1
  -5  -8   0 131760. 9064.24   1
  -5  -8   0 124497. 8561.44   1
   5   8   0 119832. 5173.18   1
   5   8   0 121648. 5276.53   1
   5   8   0 115950. 7980.44   1
   5   8   0 124776. 8567.03   1
  -5  -8  -1  15098. 854.189   1
  -5  -8  -1  15888. 1250.84   1
  -5  -8  -1  16156. 1291.34   1
   5   8   1  14115. 822.066   1
   5   8   1  15215. 832.681   1
   5   8   1  15240. 1183.52   1
   5   8   1  14673. 1151.95   1
  -5  -8  -2 5108.93 494.413   1
  -5  -8  -2 5134.07 638.268   1
  -5  -8  -2 5779.32 649.161   1
   5   8   2 4868.71 496.648   1
   5   8   2 5195.53 467.877   1
  -5  -8  -3 4315.64 481.005   1
  -5  -8  -3 5346.36 631.564   1
  -5  -8  -3 5282.12 606.424   1
   5   8   3 4513.96 466.480   1
   5   8   3 5223.46 513.687   1
   5   8   3 6388.26 627.932   1
   5   8   3 4891.06 539.664   1
  -5  -8  -4  54385. 2463.96   1
  -5  -8  -4  56704. 3977.65   1
  -5  -8  -4  60838. 4268.15   1
   5   8   4  53017. 2400.56   1
   5   8   4  54665. 2491.34   1
   5   8   4  52570. 3687.15   1
   5   8   4  55894. 3913.40   1
  -5  -8  -5  82318. 3628.49   1
  -5  -8  -5  92765. 6418.99   1
  -5  -8  -5  80307. 5567.03   1
   5   8   5  76033. 3374.30   1
   5   8   5  86732. 3821.23   1
   5   8   5  84190. 5835.19   1
   5   8   5  76927. 5326.81   1
  -5  -8  -6 8689.94 618.714   1
  -5  -8  -6 7388.26 741.061   1
  -5  -8  -6 7547.48 760.893   1
   5   8   6 9036.30 677.653   1
   5   8   6 9016.75 664.524   1
   5   8   6 8416.19 741.340   1
   5   8   6 8662.00 781.284   1
  -5  -8  -7 113380. 4935.75   1
  -5  -8  -7 123408. 8494.40   1
  -5  -8  -7 112486. 7743.01   1
   5   8   7 110559. 4843.57   1
   5   8   7 113324. 4935.75   1
   5   8   7 115782. 7969.27   1
   5   8   7 117821. 8097.76   1
  -5  -8  -8  11656. 775.977   1
  -5  -8  -8  12709. 1067.32   1
  -5  -8  -8  13321. 1095.81   1
   5   8   8  12612. 826.815   1
   5   8   8  11947. 791.340   1
   5   8   8  14439. 1152.23   1
   5   8   8  13327. 1066.20   1
  -5  -8  -9  27221. 1393.57   1
  -5  -8  -9  29106. 2128.77   1
  -5  -8  -9  28911. 2124.86   1
   5   8   9  26816. 1383.24   1
   5   8   9  27919. 1427.37   1
   5   8   9  25316. 1858.66   1
   5   8   9  28436. 2060.61   1
  -5  -8 -10  26757. 1383.24   1
  -5  -8 -10  25958. 1922.07   1
  -5  -8 -10  27123. 1994.97   1
   5   8  10  28128. 1439.10   1
   5   8  10  28073. 1446.93   1
   5   8  10  26385. 1933.24   1
   5   8  10  29693. 2159.49   1
  -5  -8 -11 1885.75 571.228   1
  -5  -8 -11 1892.46 494.413   1
  -5  -8 -11 1958.94 504.748   1
   5   8  11  986.87 590.223   1
   5   8  11 1263.97 543.296   1
   5   8  11 2211.45 461.173   1
   5   8  11 1875.70 479.050   1
  -5  -9   6  30140. 1495.25   1
  -5  -9   6  30614. 2258.94   1
   5   9  -6  30531. 1525.14   1
   5   9  -6  30112. 1518.15   1
   5   9  -6  32263. 2384.36   1
   5   9  -6  31089. 2254.75   1
  -5  -9   5  28492. 1420.39   1
  -5  -9   5  30531. 2248.32   1
   5   9  -5  30140. 1487.15   1
   5   9  -5  31257. 1575.70   1
   5   9  -5  29106. 2113.68   1
   5   9  -5  31452. 2294.13   1
  -5  -9   4  38771. 1828.21   1
  -5  -9   4  41285. 2960.89   1
   5   9  -4  38743. 1850.56   1
   5   9  -4  41257. 1934.63   1
   5   9  -4  37626. 2685.75   1
   5   9  -4  42067. 3013.96   1
  -5  -9   3 103519. 4519.55   1
  -5  -9   3 109357. 7541.89   1
   5   9  -3 110419. 4832.40   1
   5   9  -3 109078. 4756.98   1
   5   9  -3 108994. 7502.79   1
   5   9  -3 108240. 7472.06   1
  -5  -9   2 1148.60 395.251   1
  -5  -9   2 1239.94 487.150   1
   5   9  -2 1524.58 406.424   1
   5   9  -2 1509.50 450.000   1
   5   9  -2 1082.12 411.173   1
   5   9  -2  996.65 452.793   1
  -5  -9   1  18179. 988.546   1
  -5  -9   1  20994. 1618.15   1
  -5  -9   1  19690. 1532.40   1
   5   9  -1  20721. 1088.83   1
   5   9  -1  21218. 1135.19   1
   5   9  -1  20452. 1531.00   1
   5   9  -1  20117. 1530.17   1
  -5  -9   0  20235. 1567.60   1
  -5  -9   0  19723. 1528.49   1
   5   9   0  20439. 1083.24   1
   5   9   0  18444. 1003.35   1
   5   9   0  19846. 1482.68   1
   5   9   0  18148. 1406.14   1
  -5  -9  -1  10405. 684.077   1
  -5  -9  -1 9631.27 902.513   1
  -5  -9  -1 9701.11 893.854   1
   5   9   1 9695.52 651.955   1
   5   9   1 9539.10 680.167   1
  -5  -9  -2 6634.07 569.273   1
  -5  -9  -2 6229.04 695.809   1
  -5  -9  -2 6463.68 734.915   1
   5   9   2 6611.73 588.268   1
   5   9   2 7452.51 565.083   1
   5   9   2 6815.64 659.776   1
   5   9   2 6997.20 686.591   1
  -5  -9  -3  28436. 1413.41   1
  -5  -9  -3  26408. 1967.32   1
  -5  -9  -3  24648. 1855.03   1
   5   9   3  27754. 1360.33   1
   5   9   3  28771. 1435.75   1
   5   9   3  27927. 2029.05   1
   5   9   3  27028. 1982.40   1
  -5  -9  -4 143436. 6201.11   1
  -5  -9  -4 140223. 9636.86   1
  -5  -9  -4 129385. 8899.43   1
   5   9   4 137123. 5927.37   1
   5   9   4 139385. 6030.72   1
   5   9   4 139302. 9553.06   1
   5   9   4 147402.  10117.   1
  -5  -9  -5 7910.61 624.580   1
  -5  -9  -5 8106.14 837.150   1
  -5  -9  -5 8307.25 810.055   1
   5   9   5 7296.08 629.329   1
   5   9   5 5751.39 610.055   1
   5   9   5 8354.74 778.491   1
   5   9   5 8497.20 767.876   1
  -5  -9  -6 110223. 4815.64   1
  -5  -9  -6 116983. 8064.24   1
  -5  -9  -6 114329. 7888.26   1
   5   9   6 108743. 4773.74   1
   5   9   6 118380. 5150.83   1
   5   9   6 112235. 7726.25   1
   5   9   6 110670. 7628.48   1
  -5  -9  -7  53352. 2444.13   1
  -5  -9  -7  47793. 3396.64   1
  -5  -9  -7  52151. 3681.56   1
   5   9   7  48380. 2247.48   1
   5   9   7  51732. 2388.82   1
   5   9   7  51620. 3642.45   1
   5   9   7  51201. 3594.97   1
  -5  -9  -8 8851.95 688.826   1
  -5  -9  -8 9368.71 874.859   1
  -5  -9  -8  10818. 992.736   1
   5   9   8 9983.23 745.809   1
   5   9   8 9516.75 795.251   1
   5   9   8 9594.96 878.211   1
   5   9   8  10503. 929.329   1
  -5  -9  -9  15411. 974.580   1
  -5  -9  -9  17358. 1385.47   1
  -5  -9  -9  15254. 1240.50   1
   5   9   9  16617. 1013.69   1
   5   9   9  18642. 1127.93   1
   5   9   9  16022. 1271.23   1
   5   9   9  16899. 1334.91   1
  -5 -10   3 4614.52 562.569   1
  -5 -10   3 3050.28 641.619   1
   5  10  -3 3343.57 592.458   1
   5  10  -3 4184.35 569.832   1
   5  10  -3 3477.65 686.033   1
   5  10  -3 3963.68 569.832   1
  -5 -10   2  177.99 427.095   1
  -5 -10   2 -352.51 546.089   1
   5  10  -2  -19.44 422.067   1
   5  10  -2 -193.97 472.346   1
   5  10  -2   37.85 485.195   1
   5  10  -2  142.29 409.776   1
  -5 -10   1 2639.66 469.553   1
  -5 -10   1 2258.66 601.955   1
   5  10  -1 2327.37 474.581   1
   5  10  -1 1921.79 544.692   1
   5  10  -1 2242.46 551.955   1
   5  10  -1 2335.75 511.731   1
  -5 -10   0  18187. 1469.55   1
  -5 -10   0  19592. 1565.64   1
   5  10   0  18835. 1037.99   1
   5  10   0  19318. 1091.06   1
   5  10   0  18466. 1406.98   1
   5  10   0  18388. 1443.29   1
  -5 -10  -1  18006. 1459.77   1
  -5 -10  -1  18972. 1510.05   1
   5  10   1  19603. 1074.02   1
   5  10   1  21768. 1177.93   1
   5  10   1  17503. 1347.76   1
   5  10   1  16500. 1322.07   1
  -5 -10  -2 4195.53 530.167   1
  -5 -10  -2 3581.00 649.441   1
  -5 -10  -2 4720.67 726.256   1
   5  10   2 3787.71 539.664   1
   5  10   2 5089.38 591.061   1
   5  10   2 3972.06 573.184   1
   5  10   2 3279.33 560.614   1
  -5 -10  -3 104497. 4578.21   1
  -5 -10  -3  97486. 6756.98   1
  -5 -10  -3  97737. 6776.53   1
   5  10   3 103966. 4550.27   1
   5  10   3 101648. 4458.10   1
   5  10   3 106983. 7385.47   1
   5  10   3  97737. 6743.01   1
  -5 -10  -4  20816. 1136.87   1
  -5 -10  -4  16729. 1379.89   1
  -5 -10  -4  18307. 1483.52   1
   5  10   4  20142. 1127.65   1
   5  10   4  21740. 1169.83   1
   5  10   4  20003. 1552.51   1
   5  10   4  18277. 1418.99   1
  -5 -10  -5  42290. 2013.96   1
  -5 -10  -5  38492. 2778.21   1
  -5 -10  -5  44749. 3229.05   1
   5  10   5  40223. 1960.33   1
   5  10   5  39162. 1854.19   1
   5  10   5  37821. 2718.43   1
   5  10   5  40614. 2891.06   1
  -5 -10  -6  50894. 2360.05   1
  -5 -10  -6  54525. 3874.30   1
  -5 -10  -6  51285. 3650.83   1
   5  10   6  47458. 2232.96   1
   5  10   6  50978. 2372.90   1
   5  10   6  46117. 3282.12   1
   5  10   6  53128. 3743.01   1
  -5 -10  -7 1654.47 600.558   1
  -5 -10  -7  340.22 546.089   1
  -5 -10  -7  867.04 678.212   1
   5  10   7  884.92 568.994   1
   5  10   7  723.46 618.994   1
   5  10   7  997.48 545.530   1
   5  10   7  453.91 531.284   1
  -6   6   1 7270.94 898.044   1
  -6   6   1 7910.61 990.781   1
  -6   6   0  51033. 2437.15   1
  -6   6   0  56257. 2658.10   1
  -6   6  -1 4480.44 846.089   1
  -6   6  -1 5192.73 897.764   1
  -6   6  -2  10992. 1026.81   1
  -6   6  -2  10439. 959.776   1
  -6   5   6  16595. 1543.85   1
  -6   5   6  16458. 1188.55   1
   6  -5  -6  14782. 1206.70   1
  -6   5   5  14360. 1062.85   1
  -6   5   5  12377. 1270.11   1
   6  -5  -5  12528. 997.764   1
  -6   5   4  21676. 1466.48   1
  -6   5   4  22204. 1293.29   1
   6  -5  -4  23070. 1328.77   1
   6  -5  -3 105894. 4653.63   1
  -6   5   2  280.73 746.368   1
  -6   5   2  735.19 564.245   1
  -6   5   1  48659. 2235.75   1
  -6   5   1  44776. 2138.82   1
  -6   5   0  22522. 1162.57   1
  -6   5   0  19617. 1079.05   1
  -6   5  -1  522.35 463.687   1
  -6   5  -1  735.47 424.581   1
  -6   5  -2 2159.77 462.290   1
  -6   5  -2 1591.06 395.251   1
  -6   5  -3 2202.23 355.586   1
  -6   5  -3 1546.93 439.106   1
  -6   5  -5  655.03 541.061   1
  -6   5  -5  511.17 486.871   1
  -6   4   8  132.37 1018.71   1
  -6   4   8  367.88 805.306   1
  -6   4   8  498.32 585.754   1
  -6   4   8 1906.70 801.954   1
   6  -4  -8  935.75 765.083   1
   6  -4  -8 1056.98 772.346   1
   6  -4  -8 1345.53 722.066   1
  -6   4   7  24422. 1394.41   1
  -6   4   7  27067. 1718.15   1
  -6   4   7  26433. 1986.31   1
  -6   4   7  26902. 1987.15   1
   6  -4  -7  24846. 1396.93   1
   6  -4  -7  25232. 1891.06   1
   6  -4  -7  28687. 2191.06   1
  -6   4   6  49246. 2494.69   1
  -6   4   6  46089. 2184.91   1
  -6   4   6  45531. 3201.11   1
  -6   4   6  46452. 3296.09   1
   6  -4  -6  46676. 2210.33   1
   6  -4  -6  52095. 3712.29   1
   6  -4  -6  45894. 3229.05   1
  -6   4   5 8689.94 1058.10   1
  -6   4   5 7826.81 734.077   1
  -6   4   5 8438.54 742.457   1
  -6   4   5 6069.83 550.558   1
   6  -4  -5 9298.87 779.887   1
   6  -4  -5 7729.04 720.949   1
   6  -4  -5 7458.09 727.653   1
  -6   4   4 124218. 5527.93   1
  -6   4   4 117793. 5131.28   1
   6  -4  -4 132877. 5751.39   1
  -6   4   3  26542. 1332.12   1
  -6   4   3  24307. 1384.64   1
   6  -4  -3  27897. 1382.68   1
  -6   4  -4  24573. 1750.28   1
  -6   4  -5  34385. 2426.81   1
   6  -4   5  38128. 2754.47   1
   6  -4   5  42989. 3027.93   1
  -6   4  -6 107570. 7402.23   1
   6  -4   6  86564. 5994.41   1
   6  -4   6  84497. 5899.44   1
  -6   4  -7   93.30 469.273   1
  -6   4  -7 -135.64 573.742   1
  -6   4  -7  229.25 434.357   1
   6  -4   7  327.09 766.759   1
   6  -4   7  369.83 626.536   1
  -6   4  -8  22330. 1711.17   1
   6  -4   8  22380. 1875.98   1
   6  -4   8  21567. 1708.10   1
  -6   3   9  12304. 1107.26   1
  -6   3   9  13536. 1292.18   1
   6  -3  -9  11888. 1010.33   1
   6  -3  -9  14430. 1324.02   1
   6  -3  -9  13223. 1150.28   1
  -6   3   8  28715. 1737.43   1
  -6   3   8  28101. 1522.62   1
  -6   3   8  26533. 1970.39   1
   6  -3  -8  28715. 1536.59   1
   6  -3  -8  28324. 2168.43   1
   6  -3  -8  26126. 1946.37   1
  -6   3   7 113017. 4969.27   1
  -6   3   7 120559. 5371.50   1
  -6   3   7 110279. 7592.17   1
   6  -3  -7 113128. 4941.34   1
   6  -3  -7 109916. 7572.62   1
   6  -3  -7 121536. 8449.71   1
  -6   3   6  726.81 597.206   1
  -6   3   6  -14.10 766.200   1
  -6   3   6  327.93 421.229   1
   6  -3  -6   -3.19 513.128   1
   6  -3  -6   62.88 384.916   1
   6  -3  -6  829.33 584.916   1
  -6   3   5 118492. 5223.46   1
  -6   3   5 127067. 5511.17   1
  -6   3   5 129693. 8891.05   1
   6  -3  -5 132598. 5723.46   1
   6  -3  -5 130670. 8963.68   1
   6  -3  -5 117514. 8136.86   1
  -6   3   4  32011. 2267.04   1
   6  -3  -4  30056. 1417.04   1
   6  -3  -4  31955. 2379.33   1
   6  -3  -4  32151. 2296.09   1
  -6   3   3 3022.34 397.206   1
  -6   3   3 3083.80 476.257   1
  -6   3   3 3243.01 409.217   1
   6  -3  -3 3276.53 376.536   1
   6  -3  -3 3064.24 433.240   1
   6  -3  -3 2818.43 532.402   1
  -6   3   2  10927. 602.513   1
  -6   3   2  10313. 546.927   1
  -6   3   2  11486. 880.725   1
   6  -3  -2  10466. 902.234   1
   6  -3  -2  11919. 931.005   1
  -6   3   1  41369. 2888.27   1
   6  -3  -1  42626. 2983.24   1
   6  -3  -1  38575. 2719.83   1
  -6   3   0  46201. 3217.87   1
  -6   3  -1  308.10 318.156   1
   6  -3   1  707.26 339.106   1
   6  -3   1  887.43 351.955   1
  -6   3  -2 112374. 7706.70   1
  -6   3  -2 131788. 9016.75   1
   6  -3   2 136816. 9368.71   1
   6  -3   2 137011. 9393.84   1
  -6   3  -3  68883. 4751.39   1
   6  -3   3  75726. 5220.67   1
   6  -3   3  64553. 4511.17   1
  -6   3  -4  42318. 2958.10   1
   6  -3   4  42318. 2980.44   1
   6  -3   4  36927. 2683.52   1
  -6   3  -5  96536. 6631.28   1
   6  -3   5  85084. 5958.09   1
   6  -3   5  85195. 5882.68   1
  -6   3  -6  10615. 863.407   1
  -6   3  -7 2186.31 456.703   1
  -6   3  -7 2352.51 373.184   1
  -6   3  -7 2705.30 471.508   1
   6  -3   7 2824.02 535.195   1
   6  -3   7 2337.71 760.334   1
  -6   3  -8  11394. 977.932   1
   6  -3   8 9611.72 653.910   1
   6  -3   8  11964. 1055.86   1
   6  -3   8  14179. 1403.63   1
  -6   3  -9  13053. 1094.41   1
   6  -3   9  13142. 887.150   1
   6  -3   9  13651. 1186.03   1
   6  -3   9  15682. 1494.97   1
  -6   3 -10  11620. 1030.73   1
   6  -3  10 8572.62 912.848   1
   6  -3  10  10385. 1223.46   1
   6  -3  10  10749. 1052.51   1
  -6   2  10  36061. 1950.00   1
  -6   2  10  34525. 2514.52   1
   6  -2 -10  41313. 2102.23   1
   6  -2 -10  39776. 2910.61   1
   6  -2 -10  40866. 2955.30   1
  -6   2   9  10156. 985.474   1
  -6   2   9 9589.38 910.055   1
   6  -2  -9  10874. 982.122   1
   6  -2  -9  11123. 1023.74   1
   6  -2  -9  11154. 1087.43   1
  -6   2   8 132151. 5826.81   1
  -6   2   8 131285. 9008.37   1
   6  -2  -8 146983. 6377.09   1
   6  -2  -8 122123. 8469.26   1
   6  -2  -8 133883. 9212.28   1
  -6   2   7  15539. 1071.79   1
  -6   2   7  19511. 1477.93   1
   6  -2  -7  17229. 1023.74   1
   6  -2  -7  17628. 1354.47   1
   6  -2  -7  15363. 1372.62   1
  -6   2   6  49860. 2350.28   1
  -6   2   6  57318. 3997.20   1
   6  -2  -6  58743. 2644.97   1
   6  -2  -6  56983. 3983.24   1
   6  -2  -6  54972. 3910.61   1
  -6   2   5  25441. 1315.92   1
  -6   2   5  25816. 1281.56   1
  -6   2   5  28436. 2039.94   1
   6  -2  -5  28184. 1339.10   1
   6  -2  -5  31536. 2318.43   1
   6  -2  -5  28073. 2024.58   1
  -6   2   4 1265.08 376.536   1
  -6   2   4 2100.28 431.005   1
  -6   2   4 2450.56 379.329   1
   6  -2  -4 2018.99 348.324   1
   6  -2  -4 1963.41 380.726   1
   6  -2  -4 2361.45 429.608   1
  -6   2   3 6555.86 446.368   1
  -6   2   3 7418.99 485.754   1
  -6   2   3 8715.08 722.066   1
   6  -2  -3 6731.84 429.050   1
   6  -2  -3 8198.32 743.016   1
   6  -2  -3 7276.53 657.541   1
  -6   2   2  15330. 1164.24   1
   6  -2  -2  12964. 1008.38   1
   6  -2  -2  15006. 1162.01   1
  -6   2   1 135112. 9248.59   1
   6  -2  -1 137207. 9413.40   1
   6  -2  -1 131648. 9022.34   1
  -6   2   0  46732. 3251.39   1
   6  -2   0  47318. 3310.05   1
   6  -2   0  49022. 3427.37   1
  -6   2  -1 115642. 7924.57   1
  -6   2  -1 117654. 8061.44   1
   6  -2   1 128184. 8801.67   1
   6  -2   1 115726. 7952.51   1
  -6   2  -2 236341.  16126.   1
  -6   2  -2 220949.  15070.   1
   6  -2   2 219162.  14961.   1
   6  -2   2 221424.  15120.   1
  -6   2  -3  10662. 853.910   1
  -6   2  -3  10511. 873.183   1
   6  -2   3 9723.45 807.820   1
   6  -2   3 9664.79 857.541   1
  -6   2  -4  56844. 3952.51   1
  -6   2  -4  51676. 3617.31   1
   6  -2   4  54218. 3776.53   1
   6  -2   4  57374. 4013.96   1
   6  -2   5  19617. 1467.88   1
   6  -2   5  19525. 1503.35   1
  -6   2  -6  18693. 1405.59   1
   6  -2   6  19651. 1483.52   1
   6  -2   6  17634. 1431.84   1
  -6   2  -7 2102.51 412.011   1
   6  -2   7 1769.27 462.569   1
   6  -2   7 1738.55 535.754   1
  -6   2  -8  43799. 1973.46   1
  -6   2  -8  42793. 1976.53   1
  -6   2  -8  44050. 3120.11   1
   6  -2   8  45838. 2044.97   1
   6  -2   8  47207. 3346.36   1
   6  -2   8  44413. 3240.22   1
  -6   2  -9  66480. 2969.27   1
  -6   2  -9  68715. 3094.97   1
  -6   2  -9  73547. 5117.31   1
   6  -2   9  73408. 3237.43   1
   6  -2   9  78799. 5488.82   1
   6  -2   9  66397. 4731.84   1
  -6   2 -10  268.85 608.659   1
  -6   2 -10 -122.63 732.401   1
  -6   2 -10  268.46 457.821   1
   6  -2  10  542.74 615.642   1
   6  -2  10  448.04 491.061   1
   6  -2  10   40.53 578.770   1
  -6   2 -11  48268. 3441.34   1
   6  -2  11  41313. 2150.84   1
   6  -2  11  49162. 3511.17   1
   6  -2  11  48212. 3530.72   1
  -6   1  11  56341. 3997.20   1
   6  -1 -11  56620. 4069.83   1
   6  -1 -11  56648. 4027.93   1
  -6   1  10  668.43 736.312   1
  -6   1  10  914.80 471.787   1
   6  -1 -10  681.84 768.714   1
   6  -1 -10 1378.21 486.312   1
   6  -1 -10   17.24 493.016   1
  -6   1   9  78017. 3572.62   1
  -6   1   9  88408. 6125.69   1
   6  -1  -9  85000. 3829.60   1
   6  -1  -9  72793. 5122.90   1
   6  -1  -9  91676. 6363.12   1
  -6   1   8  75363. 3432.96   1
  -6   1   8  79581. 5513.96   1
   6  -1  -8  81089. 3614.52   1
   6  -1  -8  77905. 5452.51   1
   6  -1  -8  90447. 6270.94   1
  -6   1   7 1032.12 561.452   1
  -6   1   7  406.14 354.748   1
   6  -1  -7  251.96 490.782   1
   6  -1  -7  900.00 382.122   1
   6  -1  -7  153.88 412.290   1
  -6   1   6  10045. 750.279   1
  -6   1   6  11679. 937.988   1
   6  -1  -6  11520. 764.524   1
   6  -1  -6  12732. 1021.23   1
   6  -1  -6  10947. 964.245   1
  -6   1   5  15385. 913.686   1
  -6   1   5  14483. 1112.01   1
   6  -1  -5  15092. 836.871   1
   6  -1  -5  16422. 1263.13   1
   6  -1  -5  13860. 1111.17   1
  -6   1   4  64804. 2857.54   1
  -6   1   4  60698. 4217.87   1
   6  -1  -4  60279. 2642.73   1
   6  -1  -4  62290. 4346.36   1
   6  -1  -4  58883. 4106.14   1
  -6   1   3  871.23 238.212   1
  -6   1   3  685.47 246.257   1
  -6   1   3 1007.26 318.435   1
   6  -1  -3  434.64 214.609   1
   6  -1  -3  626.81 330.726   1
   6  -1  -3 1462.85 350.279   1
  -6   1   2 170782.  11687.   1
   6  -1  -2 174246.  11908.   1
   6  -1  -2 168575.  11553.   1
  -6   1   1 108100. 7430.16   1
   6  -1  -1 115363. 7918.99   1
   6  -1  -1 107151. 7371.50   1
  -6   1   0  56648. 3944.13   1
  -6   1   0  55028. 3835.19   1
   6  -1   0  57598. 4022.34   1
   6  -1   0  51369. 3578.21   1
  -6   1  -1 206368.  14095.   1
  -6   1  -1 204888.  13986.   1
   6  -1   1 233268.  15916.   1
   6  -1   1 195279.  13338.   1
  -6   1  -2  17642. 1317.32   1
  -6   1  -2  15726. 1212.01   1
   6  -1   2  14751. 1131.56   1
   6  -1   2  16570. 1246.37   1
  -6   1  -3  11453. 947.764   1
  -6   1  -3  13017. 1023.46   1
   6  -1   3  11014. 902.792   1
   6  -1   3  11740. 955.306   1
  -6   1  -4  14855. 1161.73   1
  -6   1  -4  15511. 1184.36   1
   6  -1   4  14897. 1165.36   1
   6  -1   4  14327. 1120.95   1
  -6   1  -5  51229. 3583.80   1
  -6   1  -5  48994. 3452.51   1
   6  -1   5  51397. 3606.14   1
   6  -1   5  50195. 3533.52   1
  -6   1  -6  27089. 1977.65   1
  -6   1  -6  32654. 2333.80   1
   6  -1   6  32570. 2343.01   1
   6  -1   6  30419. 2215.92   1
  -6   1  -7  43994. 3103.35   1
  -6   1  -7  42430. 2994.41   1
   6  -1   7  44134. 3148.04   1
   6  -1   7  47654. 3368.71   1
  -6   1  -8 206815. 8854.74   1
  -6   1  -8 193184. 8262.56   1
  -6   1  -8 178882.  12226.   1
   6  -1   8 195363. 8354.74   1
   6  -1   8 201955.  13818.   1
   6  -1   8 169497.  11634.   1
  -6   1  -9 9223.45 824.021   1
   6  -1   9 7111.72 617.039   1
   6  -1   9 9768.15 879.329   1
   6  -1   9 8438.54 863.966   1
  -6   1 -10  46648. 3315.64   1
   6  -1  10  45251. 2158.38   1
   6  -1  10  48464. 3444.13   1
   6  -1  10  39218. 2849.16   1
  -6   1 -11  29022. 1577.65   1
  -6   1 -11  32458. 1642.18   1
  -6   1 -11  39609. 2851.95   1
   6  -1  11  33492. 1757.26   1
   6  -1  11  32709. 2445.53   1
   6  -1  11  37095. 2697.20   1
  -6   1 -12 -396.09 837.150   1
  -6   1 -12  724.30 767.038   1
  -6   1 -12  699.44 475.139   1
   6  -1  12  339.66 969.273   1
   6  -1  12  651.40 488.268   1
   6  -1  12  846.09 585.195   1
  -6   0  11 2735.19 827.094   1
  -6   0  11 2535.47 583.240   1
   6   0 -11 1636.03 812.010   1
   6   0 -11 2602.51 591.340   1
   6   0 -11 1862.29 570.391   1
  -6   0  10  23296. 1355.86   1
  -6   0  10  27126. 2012.57   1
   6   0 -10  24179. 1391.90   1
   6   0 -10  23087. 1751.95   1
   6   0 -10  30950. 2275.70   1
  -6   0   9  35475. 1816.20   1
  -6   0   9  44525. 3162.01   1
   6   0  -9  43436. 2107.26   1
   6   0  -9  44469. 3156.42   1
   6   0  -9  40447. 2921.78   1
  -6   0   8  17388. 1087.15   1
  -6   0   8  18849. 1441.34   1
   6   0  -8  17589. 1068.99   1
   6   0  -8  16117. 1280.72   1
   6   0  -8  19975. 1517.04   1
  -6   0   7  -17.83 514.245   1
  -6   0   7   98.80 344.692   1
   6   0  -7  152.96 490.502   1
   6   0  -7  146.03 338.268   1
   6   0  -7  172.32 387.430   1
  -6   0   6  26866. 1374.58   1
  -6   0   6  24411. 1777.09   1
   6   0  -6  26201. 1310.05   1
   6   0  -6  26696. 1938.82   1
   6   0  -6  27187. 1993.57   1
  -6   0   5 145754. 6270.94   1
  -6   0   5 134078. 9178.76   1
   6   0  -5 139944. 6013.96   1
   6   0  -5 131173. 9011.16   1
   6   0  -5 129804. 8907.81   1
  -6   0   4  17260. 880.167   1
  -6   0   4  16939. 1266.48   1
   6   0  -4  15846. 799.999   1
   6   0  -4  16246. 1232.68   1
   6   0  -4  16472. 1260.61   1
  -6   0   3 137653. 5891.06   1
  -6   0   3 152234.  10422.   1
   6   0  -3 155866. 6667.59   1
   6   0  -3 148352. 6346.36   1
   6   0  -3 153687.  10522.   1
   6   0  -3 144274. 9905.02   1
  -6   0   2 207542.  14179.   1
   6   0  -2 192542.  13156.   1
   6   0  -2 197179.  13480.   1
  -6   0   1 5944.13 582.122   1
  -6   0   1 5804.46 556.703   1
   6   0  -1 5824.02 570.111   1
   6   0  -1 5441.33 540.782   1
  -6   0   0 119721. 8223.46   1
  -6   0   0 111871. 7675.97   1
   6   0   0 113743. 7818.43   1
   6   0   0 112346. 7715.08   1
  -6   0  -1  48659. 3416.20   1
  -6   0  -1  54693. 3807.26   1
   6   0   1  48855. 3430.16   1
   6   0   1  49832. 3486.03   1
  -6   0  -2 7877.09 677.932   1
  -6   0  -2 8041.89 721.228   1
   6   0   2 6768.15 646.368   1
   6   0   2 7840.77 681.843   1
  -6   0  -3  442.46 289.385   1
  -6   0  -3  889.66 376.257   1
   6   0   3  501.12 300.838   1
   6   0   3  684.08 321.508   1
  -6   0  -4  13631. 1087.15   1
  -6   0  -4  13648. 1055.59   1
   6   0   4  12760. 1014.24   1
   6   0   4  12539. 1020.11   1
  -6   0  -5 104134. 7184.35   1
  -6   0  -5 100056. 6893.85   1
   6   0   5 101452. 6991.61   1
   6   0   5  99274. 6857.53   1
  -6   0  -6 2403.35 407.541   1
  -6   0  -6 2284.91 395.530   1
   6   0   6 2062.29 384.636   1
   6   0   6 2274.86 418.156   1
  -6   0  -7 217039.  14824.   1
  -6   0  -7 214329.  14640.   1
   6   0   7 235251.  16087.   1
   6   0   7 231396.  15802.   1
  -6   0  -8  38966. 1765.36   1
  -6   0  -8  36257. 1634.08   1
  -6   0  -8  42458. 3000.00   1
  -6   0  -8  41844. 2958.10   1
   6   0   8  36480. 1643.02   1
   6   0   8  43799. 3111.73   1
   6   0   8  42765. 3030.72   1
  -6   0  -9  26240. 1304.19   1
  -6   0  -9  22609. 1117.32   1
  -6   0  -9  25355. 1891.06   1
  -6   0  -9  30195. 2185.47   1
   6   0   9  23897. 1210.05   1
   6   0   9  28855. 2111.73   1
   6   0   9  29637. 2177.65   1
  -6   0 -10  36732. 1789.66   1
  -6   0 -10  33408. 2415.36   1
   6   0  10  34190. 1706.42   1
   6   0  10  31899. 2325.70   1
   6   0  10  36508. 2635.47   1
  -6   0 -11  11723. 943.574   1
  -6   0 -11  16564. 1306.14   1
   6   0  11  12142. 1008.66   1
   6   0  11  12249. 1064.52   1
   6   0  11  14796. 1229.33   1
  -6   0 -12 3212.29 841.899   1
  -6   0 -12 3178.77 562.569   1
   6   0  12 2065.08 850.278   1
   6   0  12 3282.12 572.625   1
   6   0  12 2617.87 575.418   1
  -6  -1  11 4393.85 760.055   1
  -6  -1  11 5815.64 718.714   1
   6   1 -11 5597.76 788.547   1
   6   1 -11 5206.70 627.932   1
   6   1 -11 6703.90 747.206   1
  -6  -1  10 5567.03 739.664   1
  -6  -1  10 7539.10 775.418   1
   6   1 -10 6226.25 796.647   1
  -6  -1   9  14723. 1021.79   1
  -6  -1   9  15916. 1256.14   1
   6   1  -9  14729. 993.574   1
   6   1  -9  15556. 1247.48   1
   6   1  -9  13000. 1070.95   1
  -6  -1   8  26229. 1419.83   1
  -6  -1   8  26506. 1948.04   1
   6   1  -8  25223. 1353.91   1
   6   1  -8  29050. 2114.24   1
   6   1  -8  23070. 1729.05   1
  -6  -1   7  456.42 444.692   1
  -6  -1   7  773.18 348.882   1
   6   1  -7 1595.25 516.759   1
   6   1  -7  911.73 369.832   1
   6   1  -7  761.73 354.748   1
  -6  -1   6 159776. 6885.47   1
  -6  -1   6 154302.  10564.   1
   6   1  -6 142179. 6150.83   1
   6   1  -6 144776. 9932.95   1
   6   1  -6 158017.  10827.   1
  -6  -1   5 160894. 6905.02   1
  -6  -1   5 152123.  10413.   1
   6   1  -5 158156. 6776.53   1
   6   1  -5 159832.  10950.   1
   6   1  -5 163296.  11182.   1
  -6  -1   4  47793. 2133.52   1
  -6  -1   4  51145. 3567.04   1
   6   1  -4  50419. 2232.96   1
   6   1  -4  49888. 2224.02   1
   6   1  -4  47905. 3363.12   1
   6   1  -4  50112. 3519.55   1
  -6  -1   3 186704. 7952.51   1
  -6  -1   3 183296.  12522.   1
   6   1  -3 188659. 8061.44   1
   6   1  -3 196955. 8393.85   1
   6   1  -3 182765.  12494.   1
   6   1  -3 188100.  12871.   1
  -6  -1   2  10341. 505.586   1
  -6  -1   2  11525. 914.524   1
  -6  -1   2  10930. 897.206   1
   6   1  -2  10466. 498.044   1
   6   1  -2 9687.14 484.357   1
   6   1  -2  10581. 868.156   1
   6   1  -2  11835. 958.100   1
  -6  -1   1  12542. 979.329   1
  -6  -1   1  12718. 1007.82   1
   6   1  -1  12416. 986.591   1
   6   1  -1  13436. 1053.35   1
  -6  -1   0  28827. 2074.58   1
  -6  -1   0  26419. 1912.01   1
   6   1   0  25799. 1871.51   1
   6   1   0  26232. 1897.76   1
  -6  -1  -1  95586. 6589.38   1
  -6  -1  -1  90670. 6248.60   1
   6   1   1  90279. 6226.25   1
   6   1   1  89385. 6170.38   1
  -6  -1  -2  49330. 3463.68   1
  -6  -1  -2  42682. 3008.38   1
   6   1   2  42989. 3033.52   1
   6   1   2  43687. 3078.21   1
  -6  -1  -3  21117. 1560.05   1
  -6  -1  -3  22615. 1667.60   1
   6   1   3  24425. 1789.10   1
   6   1   3  21067. 1572.07   1
  -6  -1  -4 168408.  11531.   1
  -6  -1  -4 168519.  11525.   1
   6   1   4 168045.  11517.   1
   6   1   4 168799.  11561.   1
  -6  -1  -5  35112. 2501.39   1
  -6  -1  -5  37402. 2668.99   1
   6   1   5  33492. 2413.13   1
   6   1   5  35363. 2525.98   1
  -6  -1  -6 143771. 9851.95   1
  -6  -1  -6 147458.  10098.   1
   6   1   6 154944.  10631.   1
   6   1   6 143519. 9840.77   1
  -6  -1  -7  96145. 4148.04   1
  -6  -1  -7  85614. 5913.40   1
  -6  -1  -7  94050. 6486.03   1
   6   1   7  96564. 6675.97   1
   6   1   7  93352. 6446.92   1
  -6  -1  -8 1913.69 353.352   1
  -6  -1  -8 1142.46 368.715   1
  -6  -1  -8 1826.81 379.050   1
   6   1   8  824.86 421.229   1
   6   1   8 1859.77 424.860   1
   6   1   8 1498.32 406.983   1
  -6  -1  -9  13595. 803.072   1
  -6  -1  -9  13151. 1065.92   1
  -6  -1  -9  14235. 1117.60   1
   6   1   9  10634. 763.686   1
   6   1   9  13665. 1102.51   1
   6   1   9  14612. 1170.39   1
  -6  -1 -10  13500. 877.932   1
  -6  -1 -10  14277. 1132.68   1
  -6  -1 -10  12042. 993.295   1
   6   1  10  11053. 870.949   1
   6   1  10  12017. 1017.60   1
   6   1  10  13863. 1126.26   1
  -6  -1 -11  25550. 1396.37   1
  -6  -1 -11  26170. 1929.89   1
   6   1  11  24003. 1420.67   1
   6   1  11  26944. 1998.60   1
   6   1  11  22908. 1736.87   1
  -6  -1 -12 3296.09 776.535   1
  -6  -1 -12 4787.70 598.044   1
   6   1  12 5016.75 918.155   1
   6   1  12 4550.27 604.469   1
   6   1  12 4139.66 574.860   1
  -6  -1 -13  25299. 1511.73   1
  -6  -1 -13  28715. 2137.15   1
   6   1  13  27190. 1604.75   1
   6   1  13  28324. 2112.29   1
   6   1  13  24075. 1832.68   1
  -6  -2  11  259.78 627.374   1
  -6  -2  11  598.60 529.608   1
   6   2 -11  700.84 634.636   1
   6   2 -11  987.15 408.379   1
   6   2 -11  386.31 466.201   1
  -6  -2  10 3812.84 663.407   1
  -6  -2  10 4002.79 551.117   1
   6   2 -10 3812.84 707.820   1
   6   2 -10 3033.52 476.536   1
   6   2 -10 3860.33 583.240   1
  -6  -2   9  59246. 2737.15   1
  -6  -2   9  64385. 4511.17   1
   6   2  -9  67430. 3089.38   1
   6   2  -9  58324. 4100.55   1
   6   2  -9  58408. 4100.55   1
  -6  -2   8  10494. 768.994   1
  -6  -2   8  10796. 930.725   1
   6   2  -8 9734.63 800.279   1
   6   2  -8  12676. 1049.16   1
   6   2  -8  10648. 923.463   1
  -6  -2   7 135670. 5865.92   1
  -6  -2   7 142290. 9756.97   1
   6   2  -7 126732. 5525.13   1
   6   2  -7 156285.  10718.   1
   6   2  -7 140894. 9678.76   1
  -6  -2   6 219525. 9371.50   1
  -6  -2   6 218240.  14911.   1
   6   2  -6 185950. 7983.23   1
   6   2  -6 202989. 8673.17   1
   6   2  -6 206452.  14115.   1
   6   2  -6 208380.  14251.   1
  -6  -2   5 3480.44 413.407   1
  -6  -2   5 3639.66 464.245   1
   6   2  -5 2751.39 418.435   1
   6   2  -5 2022.06 420.111   1
   6   2  -5 3114.52 434.357   1
   6   2  -5 3500.00 469.273   1
  -6  -2   4 115084. 4963.68   1
  -6  -2   4 105223. 7231.84   1
   6   2  -4 111369. 4801.67   1
   6   2  -4  98464. 4298.88   1
   6   2  -4 113296. 7796.08   1
   6   2  -4 120810. 8315.63   1
  -6  -2   3  33659. 1533.80   1
  -6  -2   3  36313. 2585.47   1
   6   2  -3  33631. 2400.56   1
   6   2  -3  34916. 2500.84   1
  -6  -2   2 6944.13 424.022   1
  -6  -2   2 8008.37 694.413   1
  -6  -2   2 8567.03 760.614   1
   6   2  -2 7240.22 656.145   1
   6   2  -2 7332.39 669.832   1
  -6  -2   1 1026.26 185.084   1
  -6  -2   1 1186.31 301.396   1
  -6  -2   1 1608.38 341.620   1
   6   2  -1  876.26 197.765   1
   6   2  -1 1070.67 229.134   1
   6   2  -1  784.64 305.307   1
   6   2  -1  988.55 306.704   1
  -6  -2   0 146760.  10045.   1
  -6  -2   0 136117. 9346.36   1
   6   2   0 135866. 9321.22   1
   6   2   0 138380. 9486.02   1
  -6  -2  -1 311173.  21209.   1
  -6  -2  -1 271145.  18480.   1
   6   2   1 281005.  19151.   1
   6   2   1 287709.  19615.   1
  -6  -2  -2  20014. 1472.90   1
  -6  -2  -2  19268. 1444.97   1
   6   2   2  18304. 1374.02   1
   6   2   2  19564. 1464.52   1
  -6  -2  -3 350000.  23832.   1
  -6  -2  -3 352234.  24003.   1
   6   2   3 351955.  23989.   1
   6   2   3 366759.  24980.   1
  -6  -2  -4  88268. 6100.55   1
  -6  -2  -4  85950. 5932.95   1
   6   2   4  90978. 6287.70   1
   6   2   4  85642. 5930.16   1
  -6  -2  -5  31452. 1425.70   1
  -6  -2  -5  31927. 2282.96   1
  -6  -2  -5  34497. 2463.13   1
   6   2   5  31676. 2279.33   1
   6   2   5  33911. 2436.03   1
  -6  -2  -6  56006. 2444.97   1
  -6  -2  -6  57011. 3972.06   1
  -6  -2  -6  53575. 3745.81   1
   6   2   6  54665. 3829.60   1
   6   2   6  58380. 4089.38   1
  -6  -2  -7 3935.75 359.217   1
  -6  -2  -7 4846.36 542.178   1
  -6  -2  -7 4150.83 480.167   1
   6   2   7 2525.70 389.944   1
   6   2   7 3731.84 356.424   1
   6   2   7 4418.99 530.167   1
   6   2   7 5067.03 586.312   1
  -6  -2  -8 8966.47 588.547   1
  -6  -2  -8 9770.94 841.061   1
  -6  -2  -8 8539.10 766.759   1
   6   2   8 9986.02 851.116   1
   6   2   8 9974.85 881.843   1
  -6  -2  -9 6586.59 576.815   1
  -6  -2  -9 6692.73 634.916   1
  -6  -2  -9 7519.55 699.999   1
   6   2   9 5569.83 634.357   1
   6   2   9 6162.00 631.005   1
   6   2   9 6720.66 650.558   1
  -6  -2 -10  66620. 2988.82   1
  -6  -2 -10  63547. 4432.96   1
  -6  -2 -10  60894. 4245.81   1
   6   2  10  60810. 2771.78   1
   6   2  10  70028. 4874.30   1
   6   2  10  69525. 4846.36   1
  -6  -2 -11  22785. 1256.42   1
  -6  -2 -11  21134. 1582.40   1
  -6  -2 -11  26729. 1972.34   1
   6   2  11  21394. 1255.86   1
   6   2  11  20947. 1600.28   1
   6   2  11  25844. 1914.52   1
  -6  -2 -12  22698. 1347.48   1
  -6  -2 -12  21539. 1640.50   1
   6   2  12  23478. 1454.47   1
   6   2  12  18799. 1456.70   1
   6   2  12  22654. 1705.86   1
  -6  -2 -13  49609. 2425.42   1
  -6  -2 -13  49106. 3472.06   1
   6   2  13  53464. 2618.15   1
   6   2  13  43017. 3053.07   1
   6   2  13  49637. 3505.58   1
  -6  -3  11  189.27 588.826   1
  -6  -3  11  964.24 500.558   1
   6   3 -11  926.54 605.307   1
   6   3 -11  458.38 407.541   1
   6   3 -11  580.73 466.201   1
  -6  -3  10  49776. 2341.62   1
  -6  -3  10  52570. 3715.08   1
   6   3 -10  53017. 3734.63   1
   6   3 -10  54302. 3832.40   1
  -6  -3   9  57933. 2661.45   1
  -6  -3   9  60391. 4217.87   1
   6   3  -9  59050. 2719.55   1
   6   3  -9  53017. 2456.14   1
   6   3  -9  66341. 4628.49   1
   6   3  -9  59553. 4175.97   1
  -6  -3   8  46732. 2163.41   1
  -6  -3   8  50000. 3522.34   1
   6   3  -8  46899. 2208.66   1
   6   3  -8  45922. 2143.29   1
   6   3  -8  51620. 3631.28   1
   6   3  -8  52430. 3701.11   1
  -6  -3   7 126508. 5477.65   1
  -6  -3   7 110726. 7631.28   1
   6   3  -7 123910. 5405.02   1
   6   3  -7 130614. 5648.04   1
   6   3  -7 140754. 9664.79   1
   6   3  -7 140559. 9648.04   1
  -6  -3   6 1506.98 378.212   1
  -6  -3   6 1981.00 398.603   1
   6   3  -6 1271.51 427.374   1
   6   3  -6 1574.86 413.687   1
   6   3  -6 1858.66 362.290   1
   6   3  -6 2063.69 393.854   1
  -6  -3   5  19645. 1026.26   1
  -6  -3   5  18606. 1405.03   1
   6   3  -5  19578. 1482.40   1
   6   3  -5  23598. 1740.50   1
  -6  -3   4  13198. 740.223   1
  -6  -3   4  12098. 974.859   1
   6   3  -4  12718. 1014.80   1
   6   3  -4  15190. 1188.83   1
  -6  -3   3 9963.68 610.893   1
  -6  -3   3 9399.43 798.882   1
  -6  -3   3 7452.51 672.346   1
   6   3  -3 8491.61 739.943   1
   6   3  -3 8053.06 722.346   1
  -6  -3   2  29804. 1382.12   1
  -6  -3   2  32793. 2349.16   1
  -6  -3   2  31955. 2293.01   1
   6   3  -2  30251. 2181.56   1
   6   3  -2  34022. 2430.17   1
  -6  -3   1  48687. 2158.66   1
  -6  -3   1  49022. 3446.92   1
  -6  -3   1  49609. 3494.41   1
   6   3  -1  51452. 2256.70   1
   6   3  -1  49274. 2211.45   1
   6   3  -1  49413. 3472.06   1
   6   3  -1  54050. 3787.71   1
  -6  -3   0 351955.  23969.   1
  -6  -3   0 359497.  24500.   1
   6   3   0 344134.  14587.   1
   6   3   0 383240.  16232.   1
   6   3   0 351955.  23978.   1
   6   3   0 377095.  25682.   1
  -6  -3  -1 1740.22 384.078   1
  -6  -3  -1 1302.23 368.156   1
   6   3   1 1515.36 238.715   1
   6   3   1 1575.14 243.687   1
   6   3   1 1868.71 360.335   1
   6   3   1 1725.70 351.117   1
  -6  -3  -2 311173.  21226.   1
  -6  -3  -2 313128.  21355.   1
   6   3   2 321508.  13654.   1
   6   3   2 332123.  14117.   1
   6   3   2 319553.  21785.   1
   6   3   2 314245.  21422.   1
  -6  -3  -3 138547. 9508.37   1
  -6  -3  -3 147123.  10098.   1
   6   3   3 133268. 5706.70   1
   6   3   3 145503. 6215.08   1
   6   3   3 143994. 9879.88   1
   6   3   3 141201. 9692.73   1
  -6  -3  -4  582.96 215.754   1
  -6  -3  -4  429.33 339.106   1
  -6  -3  -4  152.96 293.575   1
   6   3   4  723.18 275.503   1
   6   3   4  683.80 232.653   1
   6   3   4  604.47 319.553   1
   6   3   4  841.34 316.201   1
  -6  -3  -5  10201. 567.318   1
  -6  -3  -5 9002.78 812.848   1
  -6  -3  -5 9583.79 811.452   1
   6   3   5 9298.87 796.368   1
   6   3   5  10874. 907.262   1
  -6  -3  -6  21162. 1031.28   1
  -6  -3  -6  22226. 1663.13   1
  -6  -3  -6  21612. 1610.33   1
   6   3   6  21975. 1634.08   1
   6   3   6  21628. 1615.08   1
  -6  -3  -7  82626. 3606.14   1
  -6  -3  -7  86536. 5991.61   1
  -6  -3  -7  82430. 5701.11   1
   6   3   7  92207. 6379.88   1
   6   3   7  81816. 5670.38   1
  -6  -3  -8 5371.50 497.486   1
  -6  -3  -8 4999.99 557.262   1
  -6  -3  -8 5513.96 579.888   1
   6   3   8 3935.75 546.647   1
   6   3   8 4173.18 460.893   1
   6   3   8 4667.59 533.240   1
   6   3   8 4541.89 565.642   1
  -6  -3  -9 135419. 5846.36   1
  -6  -3  -9 126005. 8659.21   1
  -6  -3  -9 121480. 8349.15   1
   6   3   9 140391. 6061.45   1
   6   3   9 127318. 5561.45   1
   6   3   9 127234. 8751.39   1
   6   3   9 134162. 9217.87   1
  -6  -3 -10  98017. 4290.50   1
  -6  -3 -10  94916. 6555.86   1
  -6  -3 -10  99637. 6857.53   1
   6   3  10  94469. 4192.73   1
   6   3  10  98492. 4315.64   1
   6   3  10  97933. 6765.36   1
   6   3  10  96341. 6645.24   1
  -6  -3 -11 3712.29 608.659   1
  -6  -3 -11 3667.59 510.614   1
  -6  -3 -11 3952.51 543.296   1
   6   3  11 3477.65 696.089   1
   6   3  11 4508.38 552.513   1
   6   3  11 4094.97 549.441   1
  -6  -3 -12  61816. 2854.75   1
  -6  -3 -12  60838. 4248.60   1
  -6  -3 -12  55503. 3877.09   1
   6   3  12  64609. 3055.86   1
   6   3  12  58631. 4120.11   1
   6   3  12  62039. 4343.57   1
  -6  -3 -13 3335.19 798.044   1
  -6  -3 -13 4237.43 562.290   1
   6   3  13 4664.80 945.530   1
   6   3  13 5265.36 631.564   1
   6   3  13 4486.03 570.391   1
  -6  -4  11  33128. 2404.75   1
   6   4 -11  40559. 2960.89   1
  -6  -4  10  54497. 2506.98   1
  -6  -4  10  58799. 4094.97   1
   6   4 -10  55559. 2572.62   1
   6   4 -10  58492. 2681.56   1
   6   4 -10  56536. 3974.86   1
   6   4 -10  63100. 4421.78   1
  -6  -4   9 2205.03 520.111   1
  -6  -4   9 2057.26 501.955   1
   6   4  -9 1367.32 583.798   1
   6   4  -9 1665.08 544.971   1
   6   4  -9 1698.04 455.027   1
   6   4  -9  705.87 434.636   1
  -6  -4   8  45363. 2108.38   1
  -6  -4   8  48855. 3430.16   1
   6   4  -8  43073. 2053.63   1
   6   4  -8  43827. 2045.25   1
   6   4  -8  50754. 3575.42   1
   6   4  -8  48575. 3432.96   1
  -6  -4   7  17807. 986.870   1
  -6  -4   7  18061. 1392.74   1
   6   4  -7  16240. 940.781   1
   6   4  -7  15525. 937.429   1
   6   4  -7  18335. 1396.37   1
   6   4  -7  17707. 1368.15   1
  -6  -4   6  11240. 717.038   1
  -6  -4   6 9326.81 825.139   1
   6   4  -6  10573. 889.943   1
   6   4  -6  10617. 873.742   1
  -6  -4   5 3449.72 432.402   1
  -6  -4   5 3114.52 435.754   1
   6   4  -5 3131.28 436.592   1
   6   4  -5 3527.93 490.223   1
   6   4  -5 4581.00 530.446   1
   6   4  -5 4212.29 477.653   1
  -6  -4   4  49302. 2231.28   1
  -6  -4   4  46145. 3240.22   1
   6   4  -4  48715. 2251.67   1
   6   4  -4  51257. 2322.90   1
   6   4  -4  48045. 3379.88   1
   6   4  -4  50000. 3519.55   1
  -6  -4   3  82905. 3622.90   1
  -6  -4   3  82123. 5692.73   1
  -6  -4   3  77933. 5379.88   1
   6   4  -3  82318. 3648.04   1
   6   4  -3  90782. 3969.27   1
   6   4  -3  88045. 6092.17   1
   6   4  -3  80726. 5594.97   1
  -6  -4   2 3248.60 384.916   1
  -6  -4   2 1927.65 364.525   1
  -6  -4   2 3198.32 449.441   1
   6   4  -2 2663.13 405.307   1
   6   4  -2 2482.68 365.921   1
   6   4  -2 1810.61 354.748   1
   6   4  -2 2526.25 388.547   1
  -6  -4   1 192933. 8240.21   1
  -6  -4   1 197374.  13480.   1
  -6  -4   1 198659.  13581.   1
   6   4  -1 209553. 8921.78   1
   6   4  -1 195139. 8332.39   1
   6   4  -1 190977.  13067.   1
   6   4  -1 189022.  12930.   1
  -6  -4   0  67626. 2963.68   1
  -6  -4   0  55810. 3891.06   1
  -6  -4   0  55894. 3913.40   1
   6   4   0  58883. 2589.66   1
   6   4   0  63073. 2765.64   1
   6   4   0  59190. 4139.66   1
   6   4   0  58128. 4061.45   1
  -6  -4  -1  35978. 2563.68   1
  -6  -4  -1  40447. 2851.95   1
   6   4   1  41033. 1834.08   1
   6   4   1  43547. 1966.76   1
   6   4   1  39441. 2796.09   1
   6   4   1  38268. 2725.70   1
  -6  -4  -2 115084. 7905.02   1
  -6  -4  -2 108855. 7494.41   1
   6   4   2 115028. 4960.89   1
   6   4   2 110475. 4745.81   1
   6   4   2 104469. 7198.32   1
   6   4   2 110670. 7628.48   1
  -6  -4  -3  11391. 636.871   1
  -6  -4  -3  11944. 959.217   1
  -6  -4  -3  12156. 979.049   1
   6   4   3  12670. 706.424   1
   6   4   3  12466. 662.290   1
   6   4   3  13229. 1047.48   1
   6   4   3  11723. 962.848   1
  -6  -4  -4   75.39 263.156   1
  -6  -4  -4  445.25 315.363   1
  -6  -4  -4  571.79 328.771   1
   6   4   4  277.43 256.899   1
   6   4   4  237.54 315.083   1
   6   4   4   64.61 319.273   1
   6   4   4  213.60 303.910   1
  -6  -4  -5 7231.84 499.161   1
  -6  -4  -5 6424.57 639.385   1
  -6  -4  -5 7997.20 725.698   1
   6   4   5 7189.94 512.011   1
   6   4   5 6198.32 510.893   1
   6   4   5 8125.69 738.547   1
   6   4   5 7642.45 704.469   1
  -6  -4  -6 119916. 5173.18   1
  -6  -4  -6 119441. 8209.49   1
  -6  -4  -6 126285. 8678.76   1
   6   4   6 119888. 8243.01   1
   6   4   6 117123. 8064.24   1
  -6  -4  -7  50922. 2302.23   1
  -6  -4  -7  49078. 3452.51   1
  -6  -4  -7  48827. 3438.54   1
   6   4   7  53156. 3734.63   1
   6   4   7  48380. 3416.20   1
  -6  -4  -8  93799. 4089.38   1
  -6  -4  -8  91285. 6315.64   1
  -6  -4  -8  93799. 6472.06   1
   6   4   8 100922. 4407.82   1
   6   4   8  91620. 4050.28   1
   6   4   8  96480. 6670.38   1
   6   4   8  93687. 6483.23   1
  -6  -4  -9 209609. 8966.47   1
  -6  -4  -9 227290.  15522.   1
  -6  -4  -9 194748.  13310.   1
   6   4   9 214246. 9156.42   1
   6   4   9 208575. 8958.09   1
   6   4   9 212374.  14520.   1
   6   4   9 217514.  14858.   1
  -6  -4 -10 1076.26 470.670   1
  -6  -4 -10 1297.21 385.195   1
  -6  -4 -10 1465.92 364.525   1
   6   4  10 1824.86 656.703   1
   6   4  10 2108.10 481.284   1
   6   4  10 1386.03 416.201   1
   6   4  10 1503.35 376.815   1
  -6  -4 -11  47989. 2249.16   1
  -6  -4 -11  44637. 3156.42   1
  -6  -4 -11  45447. 3217.87   1
   6   4  11  45223. 2114.52   1
   6   4  11  47151. 2294.41   1
   6   4  11  46480. 3287.71   1
   6   4  11  46397. 3276.53   1
  -6  -4 -12  19394. 1165.08   1
  -6  -4 -12  19975. 1492.74   1
  -6  -4 -12  20022. 1515.64   1
   6   4  12  17771. 1057.54   1
   6   4  12  19670. 1275.14   1
   6   4  12  21575. 1633.80   1
   6   4  12  21028. 1584.36   1
  -6  -4 -13 2653.35 761.172   1
  -6  -4 -13 2907.82 514.525   1
   6   4  13 3687.15 901.675   1
   6   4  13 2807.26 490.223   1
   6   4  13 2810.05 500.558   1
  -6  -5  10 2407.54 606.145   1
  -6  -5  10 3298.88 537.709   1
   6   5 -10 1735.19 661.731   1
   6   5 -10 1889.10 602.234   1
   6   5 -10 3092.18 512.849   1
   6   5 -10 1912.29 423.743   1
  -6  -5   9 6706.70 644.413   1
  -6  -5   9 6131.28 631.284   1
   6   5  -9 5547.48 646.647   1
   6   5  -9 7195.52 691.061   1
   6   5  -9 6734.63 690.781   1
   6   5  -9 6731.84 672.625   1
  -6  -5   8  14223. 884.636   1
  -6  -5   8  15299. 1206.14   1
   6   5  -8  14006. 929.049   1
   6   5  -8  12927. 848.323   1
   6   5  -8  14751. 1187.71   1
   6   5  -8  15455. 1219.83   1
  -6  -5   7  35112. 1674.86   1
  -6  -5   7  32793. 2356.70   1
   6   5  -7  33324. 1653.91   1
   6   5  -7  33687. 1616.48   1
   6   5  -7  38352. 2753.07   1
   6   5  -7  35614. 2543.01   1
  -6  -5   6  18698. 1008.38   1
  -6  -5   6  18679. 1427.65   1
   6   5  -6  19168. 1050.84   1
   6   5  -6  19475. 1043.57   1
   6   5  -6  21994. 1641.34   1
   6   5  -6  18567. 1421.51   1
  -6  -5   5  62849. 2812.85   1
  -6  -5   5  61899. 4304.46   1
   6   5  -5  61508. 2786.87   1
   6   5  -5  64665. 2885.47   1
   6   5  -5  65363. 4533.51   1
   6   5  -5  64972. 4536.31   1
  -6  -5   4 211341. 9025.13   1
  -6  -5   4 217262.  14821.   1
   6   5  -4 217458. 9307.25   1
   6   5  -4 216033. 9229.04   1
   6   5  -4 209972.  14363.   1
   6   5  -4 220028.  15022.   1
  -6  -5   3 7832.39 546.368   1
  -6  -5   3 8131.28 745.530   1
  -6  -5   3 8072.62 705.586   1
   6   5  -3 8832.39 646.089   1
   6   5  -3 9726.25 641.340   1
   6   5  -3 8231.83 737.988   1
   6   5  -3 7952.51 690.223   1
  -6  -5   2 145084. 6231.84   1
  -6  -5   2 155056.  10628.   1
  -6  -5   2 142905. 9787.70   1
   6   5  -2 144553. 6226.25   1
   6   5  -2 148268. 6377.09   1
   6   5  -2 150642.  10330.   1
   6   5  -2 148938.  10209.   1
  -6  -5   1  72681. 3203.91   1
  -6  -5   1  70642. 4918.99   1
  -6  -5   1  70475. 4879.88   1
   6   5  -1  72821. 3223.46   1
   6   5  -1  76620. 3371.50   1
   6   5  -1  85810. 5930.16   1
   6   5  -1  75475. 5234.63   1
  -6  -5   0 2798.88 363.128   1
  -6  -5   0 3762.57 504.748   1
  -6  -5   0 3064.24 419.553   1
   6   5   0 3402.23 422.067   1
   6   5   0 3391.06 400.838   1
   6   5   0 3569.83 455.307   1
   6   5   0 4025.14 475.139   1
  -6  -5  -1  10992. 920.390   1
  -6  -5  -1  12209. 964.524   1
   6   5   1  12620. 721.508   1
   6   5   1  12271. 720.390   1
   6   5   1  10958. 904.468   1
   6   5   1  11665. 943.574   1
  -6  -5  -2  50168. 3530.72   1
  -6  -5  -2  44469. 3122.90   1
   6   5   2  48128. 2169.55   1
   6   5   2  44972. 2038.27   1
   6   5   2  52765. 3703.91   1
   6   5   2  46117. 3248.60   1
  -6  -5  -3  33631. 1565.08   1
  -6  -5  -3  35363. 2537.71   1
  -6  -5  -3  35000. 2487.15   1
   6   5   3  35112. 2505.58   1
   6   5   3  33101. 2378.21   1
  -6  -5  -4  431.56 319.553   1
  -6  -5  -4  214.66 323.184   1
  -6  -5  -4  455.87 349.441   1
   6   5   4  438.27 304.748   1
   6   5   4  793.57 348.324   1
   6   5   4  475.42 315.363   1
   6   5   4  534.36 318.994   1
  -6  -5  -5  97793. 4245.81   1
  -6  -5  -5 106369. 7321.22   1
  -6  -5  -5  96927. 6689.94   1
   6   5   5 100419. 4363.12   1
   6   5   5  95475. 4167.59   1
   6   5   5 103519. 7139.66   1
   6   5   5  95084. 6564.24   1
  -6  -5  -6 133575. 5762.56   1
  -6  -5  -6 130112. 8927.36   1
  -6  -5  -6 135195. 9287.70   1
   6   5   6 131424. 5684.35   1
   6   5   6 129469. 5569.83   1
   6   5   6 131704. 9047.48   1
   6   5   6 135978. 9340.77   1
  -6  -5  -7 9857.53 646.927   1
  -6  -5  -7  10209. 877.932   1
  -6  -5  -7 9022.34 816.200   1
   6   5   7 9567.03 699.999   1
   6   5   7 7782.11 583.519   1
   6   5   7 9578.20 832.122   1
   6   5   7  10869. 915.083   1
  -6  -5  -8 129776. 5603.35   1
  -6  -5  -8 126955. 8723.45   1
  -6  -5  -8 136341. 9365.91   1
   6   5   8 128547. 5589.38   1
   6   5   8 134218. 5807.26   1
   6   5   8 139609. 9583.79   1
   6   5   8 135586. 9301.67   1
  -6  -5  -9  22380. 1175.70   1
  -6  -5  -9  23033. 1712.57   1
  -6  -5  -9  23626. 1753.91   1
   6   5   9  22656. 1269.83   1
   6   5   9  23503. 1225.98   1
   6   5   9  22237. 1640.50   1
   6   5   9  25701. 1887.99   1
  -6  -5 -10 6097.76 626.815   1
  -6  -5 -10 5899.44 603.351   1
  -6  -5 -10 6826.81 679.329   1
   6   5  10 7483.23 647.485   1
   6   5  10 6259.77 738.267   1
   6   5  10 7611.72 725.418   1
   6   5  10 6416.19 654.748   1
  -6  -5 -11 7508.37 705.307   1
  -6  -5 -11 9435.74 850.278   1
  -6  -5 -11 9502.78 838.267   1
   6   5  11 8298.87 696.927   1
   6   5  11 9290.49 882.960   1
   6   5  11 9103.34 816.759   1
   6   5  11 9731.83 851.954   1
  -6  -5 -12  13142. 930.446   1
  -6  -5 -12  14006. 1120.39   1
  -6  -5 -12  15000. 1193.29   1
   6   5  12  13416. 928.770   1
   6   5  12  13478. 1045.81   1
   6   5  12  17777. 1369.55   1
   6   5  12  15570. 1207.54   1
  -6  -5 -13 5600.55 630.726   1
   6   5  13 6393.85 650.279   1
  -6  -6   9  798.60 531.564   1
  -6  -6   9  922.90 423.463   1
   6   6  -9  959.22 540.223   1
   6   6  -9  881.00 608.659   1
   6   6  -9 1042.46 426.257   1
   6   6  -9  978.49 385.195   1
  -6  -6   8  27285. 1394.13   1
  -6  -6   8  27263. 1991.34   1
   6   6  -8  28212. 1451.40   1
   6   6  -8  25983. 1367.60   1
   6   6  -8  27698. 2025.98   1
   6   6  -8  30670. 2204.19   1
  -6  -6   7  60810. 2749.72   1
  -6  -6   7  58324. 4081.00   1
   6   6  -7  62877. 2871.51   1
   6   6  -7  57933. 2637.99   1
   6   6  -7  56676. 3988.82   1
   6   6  -7  67849. 4729.05   1
  -6  -6   6 7502.79 603.631   1
  -6  -6   6 6407.81 650.558   1
   6   6  -6 6167.59 615.921   1
   6   6  -6 5237.42 549.161   1
   6   6  -6 7248.60 651.117   1
   6   6  -6 7254.18 715.642   1
  -6  -6   5 204888. 8759.77   1
  -6  -6   5 210139.  14366.   1
   6   6  -5 209218. 8952.50   1
   6   6  -5 203268. 8695.52   1
   6   6  -5 200503.  13715.   1
   6   6  -5 204274.  13972.   1
  -6  -6   4  49497. 2256.70   1
  -6  -6   4  53659. 3759.77   1
   6   6  -4  55894. 2554.19   1
   6   6  -4  57318. 2590.22   1
   6   6  -4  51732. 3620.11   1
   6   6  -4  63771. 4449.72   1
  -6  -6   3  69860. 3103.35   1
  -6  -6   3  61229. 4265.36   1
   6   6  -3  70000. 3106.14   1
   6   6  -3  70028. 3134.07   1
   6   6  -3  67458. 4670.39   1
   6   6  -3  66257. 4614.52   1
  -6  -6   2  67765. 3005.58   1
  -6  -6   2  64469. 4505.58   1
  -6  -6   2  67989. 4717.87   1
   6   6  -2  66620. 2974.86   1
   6   6  -2  68268. 3039.10   1
   6   6  -2  70698. 4888.26   1
   6   6  -2  66173. 4606.14   1
  -6  -6   1 2642.73 381.564   1
  -6  -6   1 1839.10 413.966   1
  -6  -6   1 3106.14 447.206   1
   6   6  -1 3111.73 426.257   1
   6   6  -1 3547.48 442.178   1
   6   6  -1 2918.99 379.888   1
   6   6  -1 3217.87 466.759   1
  -6  -6   0 4634.07 433.519   1
  -6  -6   0 4363.12 516.759   1
  -6  -6   0 4187.15 532.122   1
   6   6   0 5128.49 483.240   1
   6   6   0 3924.58 441.620   1
   6   6   0 5421.78 534.916   1
   6   6   0 4692.73 517.318   1
  -6  -6  -1 5469.27 567.597   1
  -6  -6  -1 4606.14 557.541   1
   6   6   1 5326.81 482.122   1
   6   6   1 5594.97 489.106   1
   6   6   1 5125.69 551.396   1
   6   6   1 6201.11 581.564   1
  -6  -6  -2 106592. 4631.28   1
  -6  -6  -2 121620. 8354.74   1
  -6  -6  -2 126201. 8681.55   1
   6   6   2 119246. 5170.39   1
   6   6   2 117430. 5083.79   1
   6   6   2 122262. 8407.81   1
   6   6   2 116424. 7991.61   1
  -6  -6  -3  40112. 1844.41   1
  -6  -6  -3  41508. 2946.92   1
  -6  -6  -3  44134. 3114.52   1
   6   6   3  40782. 1888.27   1
   6   6   3  42402. 1960.05   1
   6   6   3  41006. 2888.27   1
   6   6   3  40447. 2868.71   1
  -6  -6  -4  49693. 2253.91   1
  -6  -6  -4  53128. 3731.84   1
  -6  -6  -4  61369. 4276.53   1
   6   6   4  53827. 2430.17   1
   6   6   4  56955. 2569.27   1
   6   6   4  56061. 3899.44   1
   6   6   4  52095. 3653.63   1
  -6  -6  -5 179860. 7703.90   1
  -6  -6  -5 160419.  10997.   1
  -6  -6  -5 184106.  12592.   1
   6   6   5 191843. 8195.52   1
   6   6   5 176033. 7553.06   1
   6   6   5 184665.  12612.   1
   6   6   5 175838.  12034.   1
  -6  -6  -6  791.06 362.011   1
  -6  -6  -6 1281.00 426.257   1
  -6  -6  -6  742.46 371.787   1
   6   6   6  599.16 372.346   1
   6   6   6  350.56 423.463   1
   6   6   6  222.82 332.961   1
   6   6   6  556.42 288.827   1
  -6  -6  -7  67402. 3002.79   1
  -6  -6  -7  70307. 4896.64   1
  -6  -6  -7  70447. 4907.82   1
   6   6   7  72542. 3240.22   1
   6   6   7  74804. 3321.23   1
   6   6   7  69246. 4796.08   1
   6   6   7  67793. 4706.70   1
  -6  -6  -8  12818. 796.368   1
  -6  -6  -8  14073. 1139.38   1
  -6  -6  -8  13966. 1137.99   1
   6   6   8  13804. 922.345   1
   6   6   8  13852. 836.871   1
   6   6   8  13031. 1049.44   1
   6   6   8  16413. 1263.97   1
  -6  -6  -9 3854.74 541.620   1
  -6  -6  -9 3871.50 513.407   1
  -6  -6  -9 3603.35 490.502   1
   6   6   9 4047.48 553.910   1
   6   6   9 3418.99 591.899   1
   6   6   9 4256.98 539.385   1
   6   6   9 4027.93 497.486   1
  -6  -6 -10  389.94 512.290   1
  -6  -6 -10 1572.07 458.659   1
  -6  -6 -10 1187.43 421.508   1
   6   6  10  258.66 543.296   1
   6   6  10  599.44 501.955   1
   6   6  10 1302.51 370.949   1
   6   6  10  817.60 369.273   1
  -6  -6 -11  23249. 1287.15   1
  -6  -6 -11  23452. 1757.26   1
  -6  -6 -11  25310. 1868.71   1
   6   6  11  21950. 1298.88   1
   6   6  11  23131. 1247.21   1
   6   6  11  24788. 1835.47   1
   6   6  11  22612. 1684.91   1
  -6  -6 -12  49944. 2352.23   1
  -6  -6 -12  52346. 3681.56   1
  -6  -6 -12  51676. 3656.42   1
   6   6  12  49218. 2317.32   1
   6   6  12  52290. 2508.66   1
   6   6  12  56369. 3938.54   1
   6   6  12  52458. 3684.35   1
  -6  -7   8  61871. 2812.85   1
  -6  -7   8  58771. 4094.97   1
   6   7  -8  57654. 2649.16   1
   6   7  -8  56648. 2614.80   1
   6   7  -8  57235. 4011.17   1
   6   7  -8  54106. 3793.29   1
  -6  -7   7 3223.46 520.949   1
  -6  -7   7 2306.98 503.910   1
   6   7  -7 1949.44 547.485   1
   6   7  -7 2204.75 509.217   1
   6   7  -7 2737.71 427.374   1
   6   7  -7 2145.53 441.899   1
  -6  -7   6  61676. 2779.89   1
  -6  -7   6  63715. 4460.89   1
   6   7  -6  61313. 2785.47   1
   6   7  -6  61229. 2784.63   1
   6   7  -6  63883. 4460.89   1
   6   7  -6  63352. 4418.99   1
  -6  -7   5  54022. 2459.49   1
  -6  -7   5  54693. 3835.19   1
   6   7  -5  58659. 2662.85   1
   6   7  -5  57905. 2636.03   1
   6   7  -5  56425. 3924.58   1
   6   7  -5  59078. 4128.49   1
  -6  -7   4 6167.59 539.664   1
  -6  -7   4 6145.25 677.094   1
   6   7  -4 6047.48 554.469   1
   6   7  -4 5642.45 563.128   1
   6   7  -4 5885.47 613.687   1
   6   7  -4 5865.92 595.809   1
  -6  -7   3  26221. 1297.76   1
  -6  -7   3  27067. 2001.95   1
   6   7  -3  27486. 1363.41   1
   6   7  -3  26092. 1317.88   1
   6   7  -3  26528. 1946.37   1
   6   7  -3  26243. 1915.08   1
  -6  -7   2  13101. 768.994   1
  -6  -7   2  12944. 1059.50   1
  -6  -7   2  12578. 1041.90   1
   6   7  -2  11112. 718.714   1
   6   7  -2  11676. 761.731   1
   6   7  -2  12346. 1007.82   1
   6   7  -2  11849. 971.787   1
  -6  -7   1  49302. 2246.09   1
  -6  -7   1  49972. 3513.96   1
  -6  -7   1  52765. 3715.08   1
   6   7  -1  51173. 2325.70   1
   6   7  -1  53938. 2465.64   1
   6   7  -1  46425. 3270.95   1
   6   7  -1  48911. 3432.96   1
  -6  -7   0 2918.99 397.206   1
  -6  -7   0 3044.69 448.044   1
  -6  -7   0 2910.61 490.502   1
   6   7   0 3441.34 473.463   1
   6   7   0 2513.41 435.754   1
   6   7   0 3156.42 439.106   1
   6   7   0 2786.59 409.497   1
  -6  -7  -1 173519.  11866.   1
  -6  -7  -1 177262.  12131.   1
   6   7   1 168547. 7237.42   1
   6   7   1 172849. 7430.16   1
   6   7   1 172793.  11818.   1
   6   7   1 156424.  10709.   1
  -6  -7  -2 160531. 6899.43   1
  -6  -7  -2 139413. 9569.82   1
  -6  -7  -2 148575.  10182.   1
   6   7   2 173324. 7449.71   1
   6   7   2 162961. 7005.58   1
   6   7   2 147486.  10101.   1
   6   7   2 156983.  10751.   1
  -6  -7  -3  19455. 1028.77   1
  -6  -7  -3  19559. 1494.97   1
  -6  -7  -3  20919. 1570.95   1
   6   7   3  19218. 1023.46   1
   6   7   3  20955. 1094.97   1
   6   7   3  18363. 1386.03   1
   6   7   3  19765. 1476.81   1
  -6  -7  -4 130363. 5639.66   1
  -6  -7  -4 127570. 8770.94   1
  -6  -7  -4 127207. 8743.01   1
   6   7   4 123631. 5363.12   1
   6   7   4 137402. 5930.16   1
   6   7   4 133240. 9136.86   1
   6   7   4 130810. 8969.26   1
  -6  -7  -5  12992. 781.843   1
  -6  -7  -5  13777. 1120.39   1
  -6  -7  -5  12517. 1039.66   1
   6   7   5  13676. 798.323   1
   6   7   5  11997. 784.357   1
   6   7   5  13288. 1049.16   1
   6   7   5  12609. 1016.20   1
  -6  -7  -6  10123. 681.843   1
   6   7   6 9664.79 704.748   1
   6   7   6  10204. 707.820   1
   6   7   6 9687.14 840.781   1
   6   7   6 8902.23 782.122   1
  -6  -7  -7 5877.09 565.083   1
  -6  -7  -7 5748.60 623.463   1
  -6  -7  -7 6530.72 694.971   1
   6   7   7 5796.08 615.921   1
   6   7   7 5145.25 522.346   1
   6   7   7 6840.77 674.022   1
   6   7   7 6932.95 664.524   1
  -6  -7  -8  12031. 781.284   1
  -6  -7  -8  13235. 1082.68   1
  -6  -7  -8  11547. 966.479   1
   6   7   8  13265. 842.737   1
   6   7   8  11668. 858.100   1
   6   7   8  13659. 1075.14   1
   6   7   8  11209. 923.463   1
  -6  -7  -9  15279. 927.373   1
  -6  -7  -9  15061. 1209.50   1
  -6  -7  -9  15827. 1263.41   1
   6   7   9  15156. 918.714   1
   6   7   9  15128. 998.323   1
   6   7   9  15844. 1236.31   1
   6   7   9  14458. 1152.23   1
  -6  -7 -10 4868.71 598.603   1
  -6  -7 -10 4731.84 615.362   1
  -6  -7 -10 5659.21 636.033   1
   6   7  10 4310.05 617.039   1
   6   7  10 4480.44 668.714   1
   6   7  10 5779.32 605.865   1
   6   7  10 4879.88 569.552   1
  -6  -7 -11  60698. 2773.46   1
  -6  -7 -11  64804. 4530.72   1
  -6  -7 -11  59749. 4173.18   1
   6   7  11  57430. 2695.25   1
   6   7  11  66369. 3016.76   1
   6   7  11  65000. 4522.34   1
   6   7  11  62514. 4346.36   1
  -6  -8   6  17645. 997.485   1
  -6  -8   6  18441. 1437.43   1
   6   8  -6  18156. 1061.45   1
   6   8  -6  16849. 994.133   1
   6   8  -6  16891. 1310.33   1
   6   8  -6  16796. 1293.57   1
  -6  -8   5 8483.23 685.753   1
  -6  -8   5 7251.39 761.731   1
   6   8  -5 9175.97 764.804   1
   6   8  -5 7787.70 656.983   1
   6   8  -5 7687.14 731.005   1
   6   8  -5 8178.76 754.189   1
  -6  -8   4   93.83 439.385   1
  -6  -8   4 -307.26 443.016   1
   6   8  -4  242.93 441.899   1
   6   8  -4  130.61 462.569   1
   6   8  -4  -76.20 379.329   1
   6   8  -4   49.72 341.340   1
  -6  -8   3 9120.10 662.290   1
  -6  -8   3 9298.87 854.468   1
   6   8  -3 8893.85 681.843   1
   6   8  -3 7969.27 663.407   1
   6   8  -3 8047.48 751.396   1
   6   8  -3 9499.99 808.658   1
  -6  -8   2  61285. 2751.95   1
  -6  -8   2  52263. 3681.56   1
  -6  -8   2  54888. 3843.57   1
   6   8  -2  57654. 2614.24   1
   6   8  -2  62235. 2801.67   1
   6   8  -2  56369. 3952.51   1
   6   8  -2  55391. 3865.92   1
  -6  -8   1  20243. 1063.41   1
  -6  -8   1  20693. 1577.09   1
  -6  -8   1  21464. 1635.19   1
   6   8  -1  20131. 1066.76   1
   6   8  -1  19844. 1054.47   1
   6   8  -1  21101. 1582.40   1
   6   8  -1  20427. 1525.70   1
  -6  -8   0  64609. 4513.96   1
  -6  -8   0  64553. 4508.38   1
   6   8   0  62374. 2792.46   1
   6   8   0  62458. 2804.47   1
   6   8   0  59497. 4148.04   1
   6   8   0  66341. 4625.69   1
  -6  -8  -1 167374.  11469.   1
  -6  -8  -1 167151.  11458.   1
   6   8   1 157793. 6784.91   1
   6   8   1 163156. 7013.96   1
   6   8   1 165195.  11316.   1
   6   8   1 156033.  10684.   1
  -6  -8  -2  182.96 350.838   1
  -6  -8  -2  213.99 426.536   1
  -6  -8  -2  455.59 452.513   1
   6   8   2  463.13 381.285   1
   6   8   2  233.74 406.703   1
   6   8   2  763.41 367.597   1
   6   8   2  479.61 358.380   1
  -6  -8  -3  81592. 3608.93   1
  -6  -8  -3  80391. 5578.21   1
  -6  -8  -3  95279. 6597.76   1
   6   8   3  80279. 3567.04   1
   6   8   3  84162. 3695.53   1
   6   8   3  78380. 5432.96   1
   6   8   3  84190. 5832.40   1
  -6  -8  -4  16860. 941.619   1
  -6  -8  -4  18559. 1444.41   1
  -6  -8  -4  16480. 1303.91   1
   6   8   4  18838. 1019.27   1
   6   8   4  18830. 1029.05   1
   6   8   4  17360. 1336.59   1
   6   8   4  18128. 1375.70   1
  -6  -8  -5 5192.73 545.810   1
  -6  -8  -5 4893.85 614.804   1
  -6  -8  -5 5321.22 620.111   1
   6   8   5 5681.56 557.821   1
   6   8   5 5723.46 582.960   1
   6   8   5 6178.76 633.240   1
   6   8   5 4983.23 550.837   1
  -6  -8  -6  266.54 441.061   1
  -6  -8  -6  456.14 430.726   1
  -6  -8  -6  353.63 430.446   1
   6   8   6   67.32 462.569   1
   6   8   6  111.37 462.849   1
   6   8   6  150.50 352.793   1
   6   8   6  545.53 362.290   1
  -6  -8  -7  22059. 1195.81   1
  -6  -8  -7  25852. 1913.69   1
  -6  -8  -7  22830. 1729.61   1
   6   8   7  25480. 1341.62   1
   6   8   7  23302. 1240.22   1
   6   8   7  23385. 1725.70   1
   6   8   7  25640. 1892.18   1
  -6  -8  -8  54050. 2503.35   1
  -6  -8  -8  56760. 3988.82   1
  -6  -8  -8  53687. 3782.12   1
   6   8   8  57151. 2613.13   1
   6   8   8  55223. 2568.15   1
   6   8   8  53659. 3768.15   1
   6   8   8  53631. 3768.15   1
  -6  -8  -9  645.81 483.798   1
  -6  -8  -9 1289.10 489.664   1
  -6  -8  -9 1425.14 455.865   1
   6   8   9 1356.70 494.413   1
   6   8   9  867.88 575.139   1
   6   8   9 1707.82 446.927   1
   6   8   9 1056.98 387.709   1
  -6  -8 -10  55810. 2575.70   1
  -6  -8 -10  63743. 4455.30   1
  -6  -8 -10  52961. 3726.25   1
   6   8  10  55670. 2621.51   1
   6   8  10  55335. 2573.46   1
   6   8  10  58603. 4097.76   1
   6   8  10  56704. 3966.48   1
  -6  -9   4  359.78 459.217   1
  -6  -9   4 -178.58 517.877   1
   6   9  -4  139.36 521.787   1
   6   9  -4 -375.14 523.184   1
   6   9  -4  410.06 437.988   1
   6   9  -4   10.99 473.463   1
  -6  -9   3  37095. 1767.60   1
  -6  -9   3  33492. 2432.68   1
   6   9  -3  38156. 1810.89   1
   6   9  -3  37737. 1835.19   1
   6   9  -3  34078. 2455.86   1
   6   9  -3  36592. 2609.77   1
  -6  -9   2  38966. 1849.16   1
  -6  -9   2  37458. 2692.73   1
   6   9  -2  39469. 1859.50   1
   6   9  -2  38408. 1848.32   1
   6   9  -2  36760. 2618.43   1
   6   9  -2  36201. 2610.05   1
  -6  -9   1 9030.72 691.619   1
  -6  -9   1  10279. 937.150   1
  -6  -9   1 8499.99 850.278   1
   6   9  -1  10466. 724.580   1
   6   9  -1 9351.95 713.966   1
   6   9  -1  10025. 894.692   1
   6   9  -1 9770.94 862.290   1
  -6  -9   0  79413. 5525.13   1
  -6  -9   0  81843. 5681.56   1
   6   9   0  80698. 3569.83   1
   6   9   0  81955. 3631.28   1
   6   9   0  80195. 5541.89   1
   6   9   0  92765. 6416.19   1
  -6  -9  -1 9259.77 864.804   1
  -6  -9  -1 8268.15 807.262   1
   6   9   1  11260. 758.938   1
   6   9   1 9251.39 695.809   1
  -6  -9  -2  11567. 800.279   1
  -6  -9  -2  10830. 962.848   1
  -6  -9  -2  10855. 993.295   1
   6   9   2  11302. 771.787   1
   6   9   2  11807. 792.737   1
   6   9   2  10888. 919.273   1
   6   9   2  11299. 963.965   1
  -6  -9  -3  11751. 787.429   1
  -6  -9  -3  12358. 1065.64   1
  -6  -9  -3  11679. 1039.11   1
   6   9   3  10617. 762.010   1
   6   9   3  10927. 754.748   1
   6   9   3  12014. 1003.63   1
   6   9   3  10047. 849.720   1
  -6  -9  -4  27173. 1400.56   1
  -6  -9  -4  29246. 2147.76   1
  -6  -9  -4  31704. 2354.75   1
   6   9   4  25307. 1312.85   1
   6   9   4  26159. 1331.00   1
   6   9   4  25494. 1864.80   1
   6   9   4  25101. 1858.94   1
  -6  -9  -5  15975. 942.736   1
  -6  -9  -5  19908. 1551.95   1
  -6  -9  -5  18173. 1451.40   1
   6   9   5  18078. 1051.67   1
   6   9   5  19173. 1112.85   1
   6   9   5  18059. 1399.16   1
   6   9   5  17142. 1341.34   1
  -6  -9  -6  10371. 797.765   1
  -6  -9  -6  10207. 937.709   1
  -6  -9  -6  10849. 988.267   1
   6   9   6  11547. 839.664   1
   6   9   6  11807. 791.899   1
   6   9   6  11285. 972.345   1
   6   9   6  12265. 1019.55   1
  -6  -9  -7  58296. 2671.23   1
  -6  -9  -7  62263. 4360.33   1
  -6  -9  -7  58073. 4078.21   1
   6   9   7  61955. 2849.16   1
   6   9   7  59693. 2710.05   1
   6   9   7  60084. 4212.29   1
   6   9   7  63519. 4424.58   1
  -6  -9  -8  17126. 1053.63   1
  -6  -9  -8  19014. 1488.55   1
  -6  -9  -8  15489. 1260.61   1
   6   9   8  19416. 1150.28   1
   6   9   8  16732. 1067.04   1
   6   9   8  17542. 1375.42   1
   6   9   8  16578. 1320.95   1
  -6 -10   0 7388.26 825.139   1
  -6 -10   0 5645.25 805.306   1
   6  10   0 8223.46 690.781   1
   6  10   0 6094.97 669.832   1
   6  10   0 7203.90 844.692   1
   6  10   0 7226.25 757.541   1
  -6 -10  -1  350.00 522.066   1
  -6 -10  -1  427.65 584.078   1
   6  10   1  -79.02 494.413   1
   6  10   1  636.31 525.977   1
   6  10   1  242.29 437.988   1
   6  10   1  481.28 558.659   1
  -6 -10  -2  782.68 574.022   1
  -6 -10  -2  988.55 582.122   1
   6  10   2  358.66 526.256   1
   6  10   2  918.43 535.195   1
   6  10   2  611.17 481.005   1
   6  10   2 1072.90 564.804   1
  -6 -10  -3  16209. 977.094   1
  -6 -10  -3  16952. 1408.66   1
  -6 -10  -3  14556. 1237.43   1
   6  10   3  17028. 1033.52   1
   6  10   3  14358. 926.535   1
   6  10   3  15503. 1312.57   1
   6  10   3  14553. 1199.44   1
  -6 -10  -4  40419. 1963.13   1
  -6 -10  -4  38045. 2750.56   1
  -6 -10  -4  37570. 2743.29   1
   6  10   4  43101. 2079.61   1
   6  10   4  39497. 1896.65   1
   6  10   4  42430. 3027.93   1
   6  10   4  38994. 2815.64   1
  -7   3   6  21810. 1305.03   1
  -7   3   6  22844. 1481.84   1
  -7   3   6  25670. 1966.76   1
   7  -3  -6  22413. 1332.12   1
  -7   3   5 2281.56 483.798   1
  -7   3   5 2237.99 532.960   1
  -7   3   5 4215.08 669.552   1
   7  -3  -5 2000.00 419.273   1
   7  -3  -5 3684.35 706.424   1
   7  -3  -5 4444.13 956.144   1
  -7   3   4 102318. 7061.45   1
   7  -3  -4  89749. 6312.84   1
   7  -3  -4 102486. 7083.79   1
  -7   3   3 9648.04 884.636   1
   7  -3  -3 8656.42 1008.38   1
   7  -3  -3  10707. 993.574   1
  -7   3   2  41089. 2910.61   1
   7  -3  -2  42877. 3050.28   1
   7  -3  -2  42346. 3075.42   1
  -7   3   1  29441. 2146.65   1
   7  -3  -1  33156. 2424.86   1
   7  -3  -1  31173. 2277.37   1
  -7   3   0  330.17 460.055   1
   7  -3   0  743.85 532.681   1
   7  -3   0  775.42 523.742   1
  -7   3  -1 1133.80 503.072   1
   7  -3   1 1720.95 493.575   1
   7  -3   1 1376.53 566.759   1
   7  -3   2 9748.59 921.507   1
   7  -3   2 9449.71 970.111   1
  -7   3  -3  31927. 2298.88   1
  -7   3  -4 2868.71 553.072   1
   7  -3   4 1655.86 750.837   1
   7  -3   4 2125.98 557.262   1
  -7   3  -5  55587. 3899.44   1
  -7   3  -6  60168. 4226.25   1
   7  -3   6  53240. 3787.71   1
   7  -3   6  48212. 3631.28   1
  -7   3  -7  950.28 669.832   1
   7  -3   7 1414.52 970.390   1
   7  -3   7 1040.78 682.402   1
  -7   2   7  55447. 2707.82   1
  -7   2   7  56564. 2648.32   1
  -7   2   7  68799. 4821.22   1
   7  -2  -7  56341. 2651.95   1
   7  -2  -7  66704. 4675.97   1
   7  -2  -7  62793. 4508.38   1
  -7   2   6  648.04 638.268   1
  -7   2   6 -159.86 718.714   1
  -7   2   6  191.87 480.446   1
   7  -2  -6  644.69 606.703   1
   7  -2  -6  593.85 642.457   1
   7  -2  -6  264.41 517.597   1
  -7   2   5  99274. 6854.74   1
   7  -2  -5  76201. 3343.57   1
   7  -2  -5 100391. 7013.96   1
   7  -2  -5 104693. 7231.84   1
  -7   2   4  44497. 3145.25   1
   7  -2  -4  40614. 2907.82   1
   7  -2  -4  48827. 3533.52   1
  -7   2   3  12939. 1053.35   1
   7  -2  -3  12173. 1081.56   1
   7  -2  -3  11947. 1029.61   1
  -7   2   2  39106. 2783.24   1
   7  -2  -2  36676. 2634.08   1
   7  -2  -2  39832. 2860.33   1
  -7   2   1 7315.63 710.893   1
   7  -2  -1 7108.93 725.698   1
   7  -2  -1 6340.78 681.284   1
  -7   2   0  10913. 934.077   1
   7  -2   0 9648.04 877.094   1
   7  -2   0  10095. 899.999   1
  -7   2  -1 2686.31 539.385   1
   7  -2   1 3128.49 548.882   1
   7  -2   1 2394.13 458.938   1
  -7   2  -2  75754. 5262.56   1
  -7   2  -2  68994. 4779.32   1
   7  -2   2  75419. 5251.39   1
   7  -2   2  69497. 4846.36   1
  -7   2  -3  71173. 4932.96   1
  -7   2  -3  72486. 5044.69   1
   7  -2   3  74050. 5167.59   1
   7  -2   3  70698. 4913.40   1
  -7   2  -4  28324. 2048.04   1
  -7   2  -4  25637. 1921.79   1
   7  -2   4  25899. 1953.07   1
   7  -2   4  26313. 1944.97   1
  -7   2  -5  99525. 6899.43   1
  -7   2  -5 101005. 6960.89   1
   7  -2   5 109553. 7569.82   1
   7  -2   5 114441. 7952.51   1
  -7   2  -6 3304.47 570.391   1
   7  -2   6 2144.97 754.748   1
   7  -2   6 3203.91 580.167   1
  -7   2  -7  17193. 1362.85   1
   7  -2   7  15179. 1265.92   1
   7  -2   7  15452. 1432.12   1
  -7   2  -8  10986. 994.971   1
   7  -2   8  12944. 1168.16   1
   7  -2   8 9687.14 1193.29   1
  -7   2  -9 1827.37 526.815   1
   7  -2   9 2438.54 646.089   1
   7  -2   9 1191.34 858.379   1
  -7   1   8  87151. 4008.38   1
  -7   1   8  96955. 6706.70   1
   7  -1  -8 102961. 4620.11   1
  -7   1   7 5977.65 878.491   1
  -7   1   7 5874.30 683.519   1
   7  -1  -7 4712.29 775.698   1
   7  -1  -7 5578.21 651.117   1
   7  -1  -7 5656.42 761.452   1
  -7   1   6  66536. 4628.49   1
   7  -1  -6  60587. 2742.46   1
   7  -1  -6  72654. 5108.93   1
   7  -1  -6  59860. 4192.73   1
  -7   1   5  58938. 2634.08   1
  -7   1   5  55531. 2509.22   1
  -7   1   5  62235. 4332.40   1
   7  -1  -5  59525. 2665.08   1
   7  -1  -5  58771. 4108.93   1
   7  -1  -5  62067. 4377.09   1
  -7   1   4 1781.28 424.022   1
   7  -1  -4 1900.00 505.027   1
   7  -1  -4 1435.19 450.837   1
  -7   1   3 1069.55 420.111   1
   7  -1  -3 1383.80 427.095   1
   7  -1  -3 1669.83 447.486   1
  -7   1   2  36760. 2612.29   1
   7  -1  -2  38492. 2764.24   1
   7  -1  -2  33603. 2424.30   1
  -7   1   1  90559. 6243.01   1
   7  -1  -1  94888. 6561.45   1
   7  -1  -1  90140. 6231.84   1
  -7   1   0  25142. 1824.02   1
  -7   1   0  26536. 1934.63   1
   7  -1   0  29106. 2117.60   1
   7  -1   0  29162. 2133.80   1
  -7   1  -1  73966. 5114.52   1
  -7   1  -1  77514. 5368.71   1
   7  -1   1  64860. 4525.14   1
   7  -1   1  76983. 5351.95   1
  -7   1  -2 152570.  10455.   1
  -7   1  -2 146117.  10011.   1
   7  -1   2 152737.  10469.   1
   7  -1   2 150838.  10360.   1
  -7   1  -3 9192.73 820.390   1
  -7   1  -3 9762.56 880.725   1
   7  -1   3 9081.00 855.027   1
   7  -1   3 7896.64 745.809   1
  -7   1  -4  82681. 5737.42   1
  -7   1  -4  79860. 5522.34   1
   7  -1   4  79665. 5527.93   1
   7  -1   4  82514. 5731.84   1
  -7   1  -5  20274. 1517.88   1
  -7   1  -5  19612. 1532.12   1
  -7   1  -6  941.06 413.407   1
  -7   1  -6 1355.59 470.391   1
   7  -1   6  606.70 515.363   1
   7  -1   6 1563.96 489.944   1
  -7   1  -7 4835.19 649.999   1
  -7   1  -7 6617.31 685.474   1
   7  -1   7 5377.09 667.597   1
   7  -1   7 5874.30 785.474   1
  -7   1  -8  26793. 1972.90   1
   7  -1   8  27073. 2011.45   1
   7  -1   8  27634. 2119.27   1
  -7   1  -9  25140. 1873.74   1
   7  -1   9  24439. 1926.81   1
   7  -1   9  27550. 2046.09   1
  -7   1 -10  348.32 489.664   1
   7  -1  10 -239.39 703.351   1
   7  -1  10  130.22 495.810   1
  -7   0   9  67235. 3170.39   1
  -7   0   9  72877. 5069.83   1
   7   0  -9  67961. 3223.46   1
   7   0  -9  82011. 5687.15   1
   7   0  -9  67179. 4720.67   1
  -7   0   8  19391. 1304.47   1
  -7   0   8  19866. 1526.26   1
   7   0  -8  20277. 1326.26   1
   7   0  -8  21304. 1660.33   1
   7   0  -8  22358. 1687.15   1
  -7   0   7  15159. 1035.47   1
  -7   0   7  16553. 1309.22   1
   7   0  -7  15522. 1086.87   1
   7   0  -7  16718. 1360.05   1
   7   0  -7  17858. 1374.30   1
  -7   0   6  29469. 1511.17   1
  -7   0   6  27081. 1977.65   1
   7   0  -6  28939. 1503.07   1
   7   0  -6  26243. 1923.18   1
   7   0  -6  24858. 1863.13   1
  -7   0   5 8441.33 615.921   1
  -7   0   5 8810.05 779.049   1
   7   0  -5 7695.52 629.608   1
   7   0  -5 7983.23 607.262   1
   7   0  -5 9148.04 821.787   1
   7   0  -5 8606.14 793.575   1
  -7   0   4  17318. 1326.26   1
   7   0  -4  15704. 1217.88   1
   7   0  -4  16682. 1292.74   1
  -7   0   3  18025. 1371.79   1
   7   0  -3  20042. 1533.52   1
   7   0  -3  16654. 1281.28   1
  -7   0   2 178380.  12187.   1
   7   0  -2 168408.  11531.   1
   7   0  -2 174190.  11927.   1
  -7   0   1  41536. 2944.13   1
  -7   0   1  46564. 3265.36   1
   7   0  -1  45922. 3240.22   1
   7   0  -1  48799. 3438.54   1
  -7   0   0  56760. 3966.48   1
  -7   0   0  55894. 3899.44   1
   7   0   0  54832. 3840.78   1
   7   0   0  64134. 4494.41   1
  -7   0  -1 229553.  15670.   1
  -7   0  -1 234972.  16042.   1
   7   0   1 203547.  13913.   1
   7   0   1 240614.  16425.   1
  -7   0  -2 2105.58 410.335   1
  -7   0  -2 2200.00 413.966   1
   7   0   2  795.25 375.139   1
   7   0   2 1866.20 442.458   1
  -7   0  -3  47039. 3307.26   1
  -7   0  -3  45084. 3187.15   1
   7   0   3  44721. 3173.18   1
   7   0   3  41844. 2963.68   1
  -7   0  -4  14684. 1154.75   1
  -7   0  -4  13972. 1108.94   1
   7   0   4  13461. 1094.13   1
   7   0   4  15369. 1207.26   1
  -7   0  -5  25614. 1875.98   1
  -7   0  -5  26712. 1963.41   1
   7   0   5  25950. 1908.10   1
   7   0   5  25673. 1909.50   1
  -7   0  -6 9525.13 822.625   1
  -7   0  -6 9117.31 848.323   1
   7   0   6 7606.14 739.664   1
   7   0   6 8815.63 843.016   1
  -7   0  -7  23455. 1754.75   1
  -7   0  -7  21341. 1590.50   1
   7   0   7  23961. 1805.86   1
   7   0   7  22159. 1654.47   1
  -7   0  -8  93017. 6438.54   1
  -7   0  -8  89665. 6195.52   1
   7   0   8  97849. 6784.91   1
   7   0   8 100726. 6966.47   1
  -7   0  -9 3779.33 568.156   1
  -7   0  -9 3784.91 552.793   1
   7   0   9 3687.15 644.971   1
   7   0   9 3435.75 543.575   1
  -7   0 -10  41173. 2941.34   1
   7   0  10  40587. 2913.40   1
   7   0  10  42961. 3106.14   1
  -7   0 -11 8662.00 744.413   1
  -7   0 -11 7916.19 706.145   1
   7   0  11 6553.07 746.089   1
   7   0  11 7745.80 686.312   1
  -7  -1   9  39916. 2017.60   1
  -7  -1   9  49888. 3513.96   1
   7   1  -9  38883. 2056.70   1
   7   1  -9  48352. 3421.78   1
   7   1  -9  44581. 3184.35   1
  -7  -1   8  748.60 690.781   1
  -7  -1   8  754.47 426.815   1
   7   1  -8 1710.61 845.250   1
   7   1  -8 1229.33 464.525   1
   7   1  -8  247.09 403.072   1
  -7  -1   7 2764.52 629.329   1
  -7  -1   7 3863.12 540.223   1
   7   1  -7 2201.39 765.083   1
   7   1  -7 2793.29 601.955   1
   7   1  -7 3762.57 553.351   1
   7   1  -7 3553.07 482.681   1
  -7  -1   6 3650.83 569.273   1
  -7  -1   6 3790.50 526.815   1
   7   1  -6 4888.26 609.217   1
   7   1  -6 3229.05 679.888   1
   7   1  -6 4611.73 524.580   1
   7   1  -6 3891.06 546.368   1
  -7  -1   5  48659. 2207.54   1
  -7  -1   5  45391. 3212.29   1
   7   1  -5  48715. 3441.34   1
   7   1  -5  46145. 3251.39   1
  -7  -1   4  12335. 675.977   1
  -7  -1   4  13704. 1094.41   1
   7   1  -4  12623. 719.273   1
   7   1  -4  13444. 718.435   1
   7   1  -4  14640. 1148.88   1
   7   1  -4  14707. 1178.21   1
  -7  -1   3 101564. 6991.61   1
   7   1  -3 112402. 7740.21   1
   7   1  -3 101313. 6974.85   1
  -7  -1   2 129944. 8905.02   1
   7   1  -2 136788. 9374.29   1
   7   1  -2 133994. 9198.31   1
   7   1  -1  10774. 899.161   1
   7   1  -1 9986.02 852.513   1
  -7  -1   0 138910. 9519.54   1
  -7  -1   0 144497. 9905.02   1
   7   1   0 124357. 8541.89   1
   7   1   0 134916. 9259.77   1
  -7  -1  -1  41564. 2941.34   1
  -7  -1  -1  44497. 3128.49   1
   7   1   1  40559. 2871.51   1
   7   1   1  44357. 3131.28   1
  -7  -1  -2 2586.87 443.854   1
  -7  -1  -2 2087.43 397.486   1
   7   1   2 2103.07 421.229   1
   7   1   2 2549.44 431.843   1
  -7  -1  -3 3522.34 463.966   1
  -7  -1  -3 4695.53 533.519   1
   7   1   3 4684.35 524.860   1
   7   1   3 5148.04 579.329   1
  -7  -1  -4  31341. 2248.88   1
  -7  -1  -4  33408. 2384.63   1
   7   1   4  25584. 1877.09   1
   7   1   4  30000. 2173.46   1
  -7  -1  -5  49749. 3488.82   1
  -7  -1  -5  43994. 3097.76   1
   7   1   5  46955. 3310.05   1
   7   1   5  48408. 3410.61   1
  -7  -1  -6 4592.17 548.882   1
  -7  -1  -6 4807.26 545.251   1
   7   1   6 4854.74 552.234   1
   7   1   6 4960.89 591.340   1
  -7  -1  -7 152207.  10447.   1
  -7  -1  -7 141229. 9678.76   1
   7   1   7 138799. 9530.72   1
   7   1   7 143491. 9851.95   1
  -7  -1  -8  39972. 2854.75   1
  -7  -1  -8  38520. 2744.13   1
   7   1   8  40531. 2882.68   1
   7   1   8  39525. 2832.40   1
  -7  -1  -9  23182. 1750.28   1
  -7  -1  -9  23852. 1773.18   1
   7   1   9  25944. 1939.10   1
   7   1   9  25673. 1900.00   1
  -7  -1 -10  33352. 2414.24   1
  -7  -1 -10  35866. 2580.72   1
   7   1  10  34609. 2512.01   1
   7   1  10  37374. 2681.00   1
  -7  -1 -11  984.36 601.955   1
  -7  -1 -11 1782.68 665.642   1
  -7  -1 -11 1660.33 506.983   1
   7   1  11 1659.22 708.379   1
   7   1  11 1191.34 860.614   1
   7   1  11 2663.96 533.240   1
   7   1  11 2079.33 495.810   1
  -7  -2   9  10522. 895.250   1
  -7  -2   9  12506. 1058.38   1
   7   2  -9  12665. 1199.44   1
   7   2  -9  10871. 942.457   1
   7   2  -9  11712. 1003.91   1
   7   2  -9  11844. 1023.46   1
  -7  -2   8 2261.17 639.664   1
  -7  -2   8 2478.77 500.279   1
   7   2  -8 2099.44 656.145   1
   7   2  -8 2487.71 914.524   1
   7   2  -8 2405.86 473.184   1
   7   2  -8 2868.71 494.972   1
  -7  -2   7 1020.11 547.485   1
  -7  -2   7 1567.60 410.055   1
   7   2  -7 1372.90 572.066   1
   7   2  -7 1262.85 748.603   1
   7   2  -7 2121.51 476.257   1
   7   2  -7 1170.67 417.597   1
  -7  -2   6  64469. 2899.44   1
  -7  -2   6  61257. 4268.15   1
   7   2  -6  59106. 2669.27   1
   7   2  -6  61285. 2849.16   1
   7   2  -6  66061. 4592.17   1
   7   2  -6  66676. 4667.59   1
  -7  -2   5  61927. 2764.80   1
  -7  -2   5  60838. 4248.60   1
   7   2  -5  64637. 2882.68   1
   7   2  -5  58715. 2696.92   1
   7   2  -5  58073. 4067.03   1
   7   2  -5  58687. 4100.55   1
  -7  -2   4  46173. 2082.40   1
  -7  -2   4  42235. 2977.65   1
   7   2  -4  38575. 2740.78   1
   7   2  -4  44749. 3173.18   1
  -7  -2   3 175726. 7511.17   1
  -7  -2   3 166424.  11388.   1
   7   2  -3 168100.  11506.   1
   7   2  -3 175084.  11989.   1
  -7  -2   2 5754.18 608.659   1
  -7  -2   2 6100.55 575.418   1
   7   2  -2 6106.14 602.234   1
   7   2  -2 4648.04 522.904   1
  -7  -2   1  51927. 3639.66   1
  -7  -2   1  47039. 3287.71   1
   7   2  -1  48799. 3427.37   1
   7   2  -1  60363. 4231.84   1
  -7  -2   0  62821. 4374.30   1
  -7  -2   0  63268. 4393.85   1
   7   2   0  60922. 4251.39   1
   7   2   0  63240. 4405.02   1
  -7  -2  -1  44525. 3136.87   1
  -7  -2  -1  38827. 2743.01   1
   7   2   1  41061. 2905.02   1
   7   2   1  41788. 2955.30   1
  -7  -2  -2 6720.66 641.619   1
  -7  -2  -2 5748.60 593.295   1
   7   2   2 5072.62 548.323   1
   7   2   2 5689.94 592.458   1
   7   2   3  22749. 1686.59   1
   7   2   3  23464. 1732.12   1
  -7  -2  -4 145391. 9972.06   1
  -7  -2  -4 142961. 9782.11   1
   7   2   4 158687.  10877.   1
   7   2   4 163547.  11204.   1
  -7  -2  -5 6603.34 663.966   1
  -7  -2  -5 5371.50 577.932   1
   7   2   5 5460.89 591.340   1
   7   2   5 4005.58 527.094   1
  -7  -2  -6 161341.  11034.   1
  -7  -2  -6 174302.  11927.   1
   7   2   6 170363.  11668.   1
   7   2   6 165782.  11363.   1
  -7  -2  -7  87486. 6055.86   1
  -7  -2  -7  81927. 5659.21   1
   7   2   7  86648. 6002.79   1
   7   2   7  84525. 5846.36   1
  -7  -2  -8 3977.65 496.927   1
  -7  -2  -8 4773.74 566.201   1
   7   2   8 5128.49 561.731   1
   7   2   8 5385.47 619.273   1
  -7  -2  -9  22581. 1129.33   1
  -7  -2  -9  25751. 1886.59   1
  -7  -2  -9  25198. 1862.57   1
   7   2   9  26045. 1929.05   1
   7   2   9  25536. 1886.59   1
  -7  -2 -10  10120. 760.334   1
  -7  -2 -10  11288. 967.876   1
  -7  -2 -10  10014. 868.714   1
   7   2  10 8550.27 886.312   1
   7   2  10  10232. 758.658   1
   7   2  10  12972. 1074.30   1
   7   2  10  12257. 1049.16   1
  -7  -2 -11 3877.09 693.854   1
  -7  -2 -11 5304.46 647.485   1
  -7  -2 -11 5270.94 615.921   1
   7   2  11 4030.72 746.368   1
   7   2  11 3002.79 996.647   1
   7   2  11 7441.33 796.647   1
   7   2  11 6435.75 710.055   1
  -7  -3   9  27989. 1508.10   1
  -7  -3   9  27176. 1982.96   1
   7   3  -9  26732. 1498.32   1
   7   3  -9  29777. 1710.33   1
   7   3  -9  26804. 1969.55   1
   7   3  -9  26656. 1963.96   1
  -7  -3   8 1272.34 616.480   1
  -7  -3   8  748.60 428.770   1
   7   3  -8  753.91 767.876   1
   7   3  -8 1345.81 641.061   1
   7   3  -8 1261.73 405.307   1
   7   3  -8 1046.37 411.452   1
  -7  -3   7  64832. 2946.92   1
  -7  -3   7  58240. 4064.24   1
   7   3  -7  62402. 2837.99   1
   7   3  -7  62933. 2938.54   1
   7   3  -7  62402. 4363.12   1
   7   3  -7  59749. 4173.18   1
  -7  -3   6 139357. 6030.72   1
  -7  -3   6 135838. 9321.22   1
   7   3  -6 131843. 5703.90   1
   7   3  -6 127933. 5606.14   1
   7   3  -6 134050. 9209.49   1
   7   3  -6 136005. 9332.39   1
  -7  -3   5 8441.33 639.943   1
  -7  -3   5 9519.54 830.446   1
   7   3  -5 7743.01 793.854   1
   7   3  -5 8787.70 653.351   1
   7   3  -5 9885.46 844.133   1
   7   3  -5 9648.04 851.396   1
  -7  -3   4 118324. 5114.52   1
  -7  -3   4 120670. 8298.87   1
   7   3  -4 114162. 4994.41   1
   7   3  -4 121620. 5262.56   1
   7   3  -4 124525. 8553.06   1
   7   3  -4 121089. 8335.19   1
  -7  -3   3 7011.17 520.391   1
  -7  -3   3 6670.38 637.988   1
   7   3  -3 6142.45 601.675   1
   7   3  -3 6243.01 520.949   1
   7   3  -3 7960.89 735.195   1
   7   3  -3 6094.97 604.469   1
  -7  -3   2 5832.40 447.765   1
  -7  -3   2 7502.79 713.686   1
  -7  -3   2 6527.93 621.228   1
   7   3  -2 5703.90 586.033   1
   7   3  -2 6067.03 614.804   1
  -7  -3   1 4949.72 524.860   1
  -7  -3   1 5058.65 551.117   1
   7   3  -1 5418.99 459.776   1
   7   3  -1 4175.97 365.083   1
   7   3  -1 4756.98 532.960   1
   7   3  -1 4402.23 524.860   1
  -7  -3   0  35670. 2529.89   1
  -7  -3   0  36313. 2593.85   1
   7   3   0  39693. 2824.02   1
   7   3   0  38492. 2739.66   1
  -7  -3  -1  80335. 5564.24   1
  -7  -3  -1  75614. 5231.84   1
   7   3   1  75894. 5265.36   1
   7   3   1  77654. 5385.47   1
  -7  -3  -2  11709. 948.323   1
  -7  -3  -2  11464. 951.675   1
   7   3   2  10816. 907.820   1
   7   3   2  11028. 922.625   1
  -7  -3  -3 198128.  13547.   1
  -7  -3  -3 190558.  13020.   1
   7   3   3 185866.  12723.   1
   7   3   3 183575.  12564.   1
  -7  -3  -4  35670. 2555.30   1
  -7  -3  -4  35559. 2525.42   1
   7   3   4  39246. 2791.06   1
   7   3   4  37318. 2670.95   1
  -7  -3  -5 100782. 6927.37   1
  -7  -3  -5  83240. 5765.36   1
   7   3   5 109776. 7567.03   1
   7   3   5 105391. 7268.15   1
  -7  -3  -6  96508. 6648.04   1
  -7  -3  -6  87346. 6036.31   1
   7   3   6 109944. 7575.41   1
   7   3   6  86732. 5997.20   1
  -7  -3  -7 1800.00 336.312   1
  -7  -3  -7 2177.09 408.659   1
  -7  -3  -7 2938.54 460.055   1
   7   3   7 2311.45 372.905   1
   7   3   7 1051.12 391.340   1
   7   3   7 3050.28 452.793   1
   7   3   7 2233.52 405.307   1
  -7  -3  -8  563.41 392.458   1
  -7  -3  -8  797.76 376.536   1
  -7  -3  -8 1114.52 376.536   1
   7   3   8   64.47 524.022   1
   7   3   8 1352.51 442.458   1
   7   3   8  605.59 376.536   1
   7   3   8  638.83 401.117   1
  -7  -3  -9  11670. 791.061   1
  -7  -3  -9  12536. 1038.27   1
  -7  -3  -9  14980. 1178.49   1
   7   3   9  13142. 1067.60   1
   7   3   9  13162. 1081.28   1
  -7  -3 -10  46173. 2172.06   1
  -7  -3 -10  49637. 3488.82   1
  -7  -3 -10  44609. 3150.83   1
   7   3  10  48966. 3458.10   1
   7   3  10  51033. 3600.55   1
  -7  -3 -11  10285. 877.653   1
  -7  -3 -11  11729. 978.491   1
  -7  -3 -11  11994. 1015.08   1
   7   3  11 9402.22 1144.69   1
   7   3  11  10637. 864.245   1
   7   3  11  11486. 969.831   1
   7   3  11  11425. 989.105   1
  -7  -3 -12  15774. 1301.40   1
  -7  -4   9  13274. 1016.48   1
  -7  -4   9  12980. 1071.23   1
   7   4  -9  10883. 927.094   1
   7   4  -9  13489. 1138.83   1
   7   4  -9  11332. 982.401   1
   7   4  -9  12615. 1072.07   1
  -7  -4   8  45056. 2172.06   1
  -7  -4   8  48631. 3407.82   1
   7   4  -8  48436. 2381.56   1
   7   4  -8  45531. 2176.81   1
   7   4  -8  56117. 3935.75   1
   7   4  -8  47235. 3337.99   1
  -7  -4   7 116564. 5094.97   1
  -7  -4   7 104357. 7187.14   1
   7   4  -7 110531. 4913.40   1
   7   4  -7 110391. 4835.19   1
   7   4  -7 109944. 7575.41   1
   7   4  -7 109972. 7586.58   1
  -7  -4   6 2661.17 531.564   1
  -7  -4   6 2146.37 437.430   1
   7   4  -6 2172.62 637.709   1
   7   4  -6 2807.26 541.061   1
   7   4  -6 2080.44 403.910   1
   7   4  -6 2413.41 453.631   1
  -7  -4   5  33436. 1613.41   1
  -7  -4   5  32514. 2318.43   1
   7   4  -5  31313. 2258.66   1
   7   4  -5  32039. 2311.45   1
  -7  -4   4  12369. 762.848   1
  -7  -4   4  15958. 1236.59   1
   7   4  -4  15282. 1179.05   1
   7   4  -4  14883. 1169.55   1
  -7  -4   3  12723. 766.200   1
  -7  -4   3  12140. 1003.63   1
   7   4  -3  10855. 891.898   1
   7   4  -3  13006. 1048.32   1
  -7  -4   2 3606.14 419.273   1
  -7  -4   2 3983.24 518.156   1
  -7  -4   2 4801.67 554.469   1
   7   4  -2 2214.80 511.452   1
   7   4  -2 3002.79 418.156   1
   7   4  -2 3974.86 498.882   1
   7   4  -2 3980.44 486.592   1
  -7  -4   1  22992. 1696.37   1
  -7  -4   1  21682. 1621.51   1
   7   4  -1  21084. 1056.98   1
   7   4  -1  21081. 1089.10   1
   7   4  -1  22684. 1682.40   1
   7   4  -1  20768. 1555.86   1
  -7  -4   0 145140. 9952.50   1
  -7  -4   0 147905.  10148.   1
   7   4   0 143045. 6150.83   1
   7   4   0 154860. 6631.28   1
   7   4   0 150894.  10346.   1
   7   4   0 145279. 9969.26   1
  -7  -4  -1  11073. 927.094   1
  -7  -4  -1  12556. 1022.62   1
   7   4   1 9486.02 613.966   1
   7   4   1  10883. 650.279   1
   7   4   1  11807. 971.228   1
   7   4   1  10729. 894.692   1
  -7  -4  -2 153687.  10534.   1
  -7  -4  -2 149748.  10268.   1
   7   4   2 153324. 6564.24   1
   7   4   2 163184. 6988.82   1
   7   4   2 151676.  10397.   1
   7   4   2 153464.  10522.   1
  -7  -4  -3  81369. 5628.49   1
  -7  -4  -3  92039. 6357.54   1
   7   4   3  81061. 5620.11   1
   7   4   3  87374. 6041.89   1
  -7  -4  -4 3536.31 468.994   1
  -7  -4  -4 3840.78 503.631   1
   7   4   4 3670.39 415.642   1
   7   4   4 2879.89 444.692   1
   7   4   4 3756.98 488.547   1
   7   4   4 2972.06 456.983   1
  -7  -4  -5  34358. 2468.15   1
  -7  -4  -5  35531. 2545.53   1
   7   4   5  33464. 2403.35   1
   7   4   5  38184. 2724.02   1
  -7  -4  -6 4910.61 467.318   1
  -7  -4  -6 5321.22 575.977   1
  -7  -4  -6 4583.79 534.636   1
   7   4   6 4159.21 582.402   1
   7   4   6 4667.59 450.558   1
   7   4   6 4955.30 559.497   1
   7   4   6 4857.54 547.206   1
  -7  -4  -7  13142. 767.038   1
  -7  -4  -7  14461. 1117.60   1
  -7  -4  -7  13539. 1083.80   1
   7   4   7  13986. 1116.48   1
   7   4   7  14846. 1155.86   1
  -7  -4  -8  649.44 448.324   1
  -7  -4  -8  378.49 344.972   1
  -7  -4  -8  765.64 412.011   1
   7   4   8  547.21 644.133   1
   7   4   8  513.97 459.776   1
   7   4   8  279.25 358.380   1
   7   4   8  979.89 399.162   1
  -7  -4  -9  80000. 3564.24   1
  -7  -4  -9  72430. 5019.55   1
  -7  -4  -9  77123. 5343.57   1
   7   4   9  76341. 3410.61   1
   7   4   9  82709. 3798.88   1
   7   4   9  76732. 5321.22   1
   7   4   9  80782. 5597.76   1
  -7  -4 -10  46508. 2196.09   1
  -7  -4 -10  45279. 3187.15   1
  -7  -4 -10  44609. 3145.25   1
   7   4  10  42989. 2206.14   1
   7   4  10  45587. 2169.83   1
   7   4  10  45950. 3245.81   1
   7   4  10  45168. 3209.49   1
  -7  -4 -11  12455. 986.312   1
  -7  -4 -11  11531. 966.200   1
  -7  -4 -11  11913. 1005.31   1
   7   4  11  12296. 971.787   1
   7   4  11  11947. 1182.68   1
   7   4  11  13480. 1093.29   1
   7   4  11  14704. 1177.09   1
  -7  -5   8  61704. 2843.57   1
  -7  -5   8  57682. 4039.10   1
   7   5  -8  59581. 2789.94   1
   7   5  -8  65363. 2997.20   1
   7   5  -8  58743. 4081.00   1
   7   5  -8  61285. 4298.88   1
  -7  -5   7  11142. 832.122   1
  -7  -5   7  10581. 880.167   1
   7   5  -7  10980. 910.334   1
   7   5  -7  10377. 799.999   1
   7   5  -7  12263. 979.887   1
   7   5  -7  12268. 1027.37   1
  -7  -5   6  354.19 475.418   1
  -7  -5   6   62.71 387.150   1
   7   5  -6 -321.23 593.854   1
   7   5  -6   82.18 471.508   1
   7   5  -6  168.94 341.061   1
   7   5  -6  131.06 394.413   1
  -7  -5   5 6393.85 595.530   1
  -7  -5   5 7488.82 703.072   1
   7   5  -5 7164.80 776.815   1
   7   5  -5 6106.14 617.318   1
   7   5  -5 8421.78 751.117   1
   7   5  -5 7801.67 749.720   1
  -7  -5   4  38771. 1836.59   1
  -7  -5   4  37039. 2626.53   1
   7   5  -4  38547. 1889.10   1
   7   5  -4  39888. 1901.12   1
   7   5  -4  37318. 2656.70   1
   7   5  -4  42430. 3016.76   1
  -7  -5   3  41648. 1936.03   1
  -7  -5   3  44330. 3131.28   1
   7   5  -3  40419. 1937.99   1
   7   5  -3  43911. 2032.12   1
   7   5  -3  44106. 3100.56   1
   7   5  -3  43631. 3092.18   1
  -7  -5   2  15042. 855.306   1
  -7  -5   2  16268. 1268.43   1
  -7  -5   2  14411. 1137.99   1
   7   5  -2  15866. 958.100   1
   7   5  -2  15749. 897.764   1
   7   5  -2  16494. 1283.80   1
   7   5  -2  14964. 1151.40   1
  -7  -5   1 201257. 8597.76   1
  -7  -5   1 185726.  12707.   1
  -7  -5   1 193882.  13257.   1
   7   5  -1 201396. 8628.48   1
   7   5  -1 206313. 8818.43   1
  -7  -5   0  28631. 2084.08   1
  -7  -5   0  30307. 2183.24   1
   7   5   0  27796. 2005.58   1
   7   5   0  30726. 2216.48   1
  -7  -5  -1  84693. 5863.12   1
  -7  -5  -1  92290. 6371.50   1
   7   5   1  89525. 3907.82   1
   7   5   1  97095. 4234.63   1
   7   5   1  90419. 6248.60   1
   7   5   1  85475. 5913.40   1
  -7  -5  -2  99078. 6829.60   1
  -7  -5  -2  92765. 6413.40   1
   7   5   2  96285. 4195.53   1
   7   5   2  96089. 4184.35   1
   7   5   2  93296. 6446.92   1
   7   5   2  88771. 6139.66   1
  -7  -5  -3 9424.57 808.100   1
  -7  -5  -3 9902.22 855.586   1
   7   5   3 8949.71 635.754   1
   7   5   3  10391. 658.100   1
   7   5   3 9737.42 829.608   1
   7   5   3  10173. 858.100   1
  -7  -5  -4  775.98 358.659   1
  -7  -5  -4  522.63 378.212   1
   7   5   4  690.78 453.910   1
   7   5   4  601.95 353.072   1
   7   5   4  662.85 336.871   1
   7   5   4  668.71 340.223   1
  -7  -5  -5  12883. 762.848   1
  -7  -5  -5  13422. 1074.86   1
  -7  -5  -5  13413. 1074.30   1
   7   5   5  12355. 991.060   1
   7   5   5  14165. 1118.43   1
  -7  -5  -6  41257. 1917.32   1
  -7  -5  -6  40559. 2877.09   1
  -7  -5  -6  41871. 2958.10   1
   7   5   6  40782. 1884.64   1
   7   5   6  43296. 2061.73   1
   7   5   6  43352. 3053.07   1
   7   5   6  42905. 3044.69   1
  -7  -5  -7  17232. 977.932   1
  -7  -5  -7  15860. 1231.28   1
  -7  -5  -7  18059. 1383.80   1
   7   5   7  15855. 1032.96   1
   7   5   7  16913. 954.468   1
   7   5   7  16581. 1292.18   1
   7   5   7  18313. 1389.66   1
  -7  -5  -8  50391. 2327.37   1
  -7  -5  -8  44106. 3111.73   1
  -7  -5  -8  42570. 3025.14   1
   7   5   8  44637. 3159.21   1
   7   5   8  47709. 3379.88   1
  -7  -5  -9  88547. 3927.37   1
  -7  -5  -9  85614. 5910.61   1
  -7  -5  -9  90503. 6240.22   1
   7   5   9  98128. 4435.75   1
   7   5   9  99413. 4377.09   1
   7   5   9  86871. 6011.17   1
   7   5   9  86061. 5949.71   1
  -7  -5 -10  278.04 621.508   1
  -7  -5 -10  504.47 427.374   1
  -7  -5 -10  906.14 426.257   1
   7   5  10 1805.31 916.200   1
   7   5  10  509.22 589.385   1
   7   5  10  463.13 376.815   1
   7   5  10  905.59 407.541   1
  -7  -5 -11  35559. 1807.54   1
  -7  -5 -11  37793. 2691.34   1
  -7  -5 -11  36899. 2637.99   1
   7   5  11  36508. 1972.06   1
   7   5  11  37989. 1910.33   1
   7   5  11  40447. 2882.68   1
   7   5  11  40056. 2851.95   1
  -7  -6   7 2352.23 556.703   1
  -7  -6   7 2223.18 467.597   1
   7   6  -7 1242.74 553.631   1
   7   6  -7 1509.78 684.636   1
   7   6  -7 2336.87 473.184   1
   7   6  -7 2100.28 424.581   1
  -7  -6   6  -39.50 493.854   1
  -7  -6   6  115.81 391.899   1
   7   6  -6 -246.62 626.815   1
   7   6  -6  708.10 538.826   1
   7   6  -6  150.34 345.810   1
   7   6  -6  536.31 372.905   1
  -7  -6   5  28017. 1420.95   1
  -7  -6   5  26712. 1962.29   1
   7   6  -5  29469. 1483.24   1
   7   6  -5  30447. 1593.57   1
   7   6  -5  25902. 1900.56   1
   7   6  -5  32737. 2363.96   1
  -7  -6   4  81592. 3625.69   1
  -7  -6   4  77151. 5343.57   1
   7   6  -4  87430. 3905.02   1
   7   6  -4  80810. 3589.38   1
   7   6  -4  72905. 5041.89   1
   7   6  -4  83464. 5790.50   1
  -7  -6   3 2013.96 473.743   1
  -7  -6   3 1670.95 397.765   1
   7   6  -3 2221.79 578.212   1
   7   6  -3 1919.83 513.966   1
   7   6  -3 1968.71 401.396   1
   7   6  -3 2006.98 432.402   1
  -7  -6   2 145838. 6296.08   1
  -7  -6   2 135251. 9282.11   1
  -7  -6   2 148072.  10162.   1
   7   6  -2 137821. 5977.65   1
   7   6  -2 138240. 5974.85   1
   7   6  -2 140726. 9662.00   1
   7   6  -2 132849. 9114.52   1
  -7  -6   1  68547. 3058.66   1
  -7  -6   1  69330. 4835.19   1
  -7  -6   1  67933. 4737.42   1
   7   6  -1  70978. 3170.39   1
   7   6  -1  69302. 3069.83   1
   7   6  -1  70531. 4891.06   1
   7   6  -1  66899. 4656.42   1
  -7  -6   0  16302. 1280.17   1
  -7  -6   0  17997. 1393.29   1
   7   6   0  15679. 908.938   1
   7   6   0  16176. 915.642   1
   7   6   0  16788. 1278.49   1
   7   6   0  18268. 1406.14   1
  -7  -6  -1  53687. 3776.53   1
  -7  -6  -1  49218. 3466.48   1
   7   6   1  53883. 2448.04   1
   7   6   1  54190. 2450.56   1
   7   6   1  51285. 3608.93   1
   7   6   1  51480. 3597.76   1
  -7  -6  -2  15425. 1219.55   1
  -7  -6  -2  15712. 1243.02   1
   7   6   2  17827. 986.870   1
   7   6   2  16251. 926.815   1
   7   6   2  15525. 1217.88   1
   7   6   2  16103. 1227.37   1
  -7  -6  -3 4734.63 572.066   1
  -7  -6  -3 4463.68 559.776   1
   7   6   3 5483.23 532.960   1
   7   6   3 4863.12 588.268   1
   7   6   3 5078.21 533.798   1
   7   6   3 5103.35 559.217   1
  -7  -6  -4 1002.23 390.782   1
  -7  -6  -4  543.85 387.988   1
  -7  -6  -4 1095.25 419.553   1
   7   6   4  242.23 428.491   1
   7   6   4  930.73 417.877   1
   7   6   4  520.39 328.212   1
   7   6   4  518.99 352.793   1
  -7  -6  -5  55587. 2520.39   1
  -7  -6  -5  60978. 4265.36   1
  -7  -6  -5  54609. 3815.64   1
   7   6   5  51508. 2391.34   1
   7   6   5  55279. 2500.28   1
   7   6   5  44106. 3134.07   1
   7   6   5  53520. 3745.81   1
  -7  -6  -6  55866. 2543.57   1
  -7  -6  -6  47151. 3321.23   1
  -7  -6  -6  52011. 3639.66   1
   7   6   6  53156. 2429.05   1
   7   6   6  56480. 2600.28   1
   7   6   6  55838. 3918.99   1
   7   6   6  53799. 3770.95   1
  -7  -6  -7  16366. 975.418   1
  -7  -6  -7  14852. 1160.61   1
  -7  -6  -7  15036. 1201.40   1
   7   6   7  15321. 933.239   1
   7   6   7  14894. 1027.09   1
   7   6   7  15140. 1188.83   1
   7   6   7  15494. 1221.23   1
  -7  -6  -8 120000. 5245.80   1
  -7  -6  -8 108938. 7508.37   1
  -7  -6  -8 113324. 7796.08   1
   7   6   8 117123. 5122.90   1
   7   6   8 112402. 4983.23   1
   7   6   8 116788. 8027.92   1
   7   6   8 109860. 7567.03   1
  -7  -6  -9 8955.30 796.368   1
  -7  -6  -9  10444. 917.317   1
  -7  -6  -9 9025.13 823.742   1
   7   6   9 8036.30 781.005   1
   7   6   9 8974.85 987.988   1
   7   6   9  10676. 925.418   1
   7   6   9 8555.86 775.977   1
  -7  -6 -10  12025. 923.742   1
  -7  -6 -10  12908. 1052.23   1
  -7  -6 -10  12751. 1028.77   1
   7   6  10  10628. 878.211   1
   7   6  10  10687. 1082.96   1
   7   6  10  11679. 978.211   1
   7   6  10  12399. 1031.00   1
  -7  -7   6  468.44 553.072   1
  -7  -7   6 1109.78 467.877   1
   7   7  -6 1648.60 654.469   1
   7   7  -6  204.86 603.910   1
   7   7  -6 1281.56 432.122   1
   7   7  -6 1177.37 378.212   1
  -7  -7   5  70810. 3187.15   1
  -7  -7   5  66564. 4636.87   1
   7   7  -5  73966. 3321.23   1
   7   7  -5  71145. 3212.29   1
   7   7  -5  67821. 4703.91   1
   7   7  -5  73073. 5067.03   1
  -7  -7   4  24637. 1309.22   1
  -7  -7   4  26573. 1953.07   1
   7   7  -4  23894. 1276.54   1
   7   7  -4  26760. 1442.46   1
   7   7  -4  25561. 1869.27   1
   7   7  -4  25855. 1900.84   1
  -7  -7   3  39721. 1898.88   1
  -7  -7   3  38268. 2748.60   1
   7   7  -3  38101. 1843.85   1
   7   7  -3  38045. 1832.40   1
   7   7  -3  41480. 2946.92   1
   7   7  -3  38939. 2760.33   1
  -7  -7   2  62570. 2832.40   1
  -7  -7   2  62179. 4349.16   1
  -7  -7   2  66788. 4662.01   1
   7   7  -2  60698. 2750.56   1
   7   7  -2  60838. 2774.30   1
   7   7  -2  63687. 4435.75   1
   7   7  -2  56201. 3907.82   1
  -7  -7   1 1088.55 447.486   1
  -7  -7   1  694.41 379.329   1
  -7  -7   1 1605.31 478.770   1
   7   7  -1 1102.51 491.620   1
   7   7  -1 1189.66 445.810   1
   7   7  -1 1248.88 418.994   1
   7   7  -1 1480.17 362.569   1
  -7  -7   0 1365.36 417.039   1
  -7  -7   0 2102.51 482.960   1
   7   7   0 2546.92 535.195   1
   7   7   0 1514.80 456.424   1
   7   7   0 2022.06 443.854   1
   7   7   0 1950.84 411.173   1
  -7  -7  -1  12668. 1066.76   1
  -7  -7  -1  14050. 1112.57   1
   7   7   1  14391. 892.457   1
   7   7   1  14994. 948.602   1
   7   7   1  13899. 1114.80   1
   7   7   1  12137. 1018.16   1
  -7  -7  -2  54078. 3784.91   1
  -7  -7  -2  47961. 3402.23   1
   7   7   2  51341. 2358.38   1
   7   7   2  50531. 2364.24   1
   7   7   2  54637. 3835.19   1
   7   7   2  45112. 3187.15   1
  -7  -7  -3  10978. 924.021   1
  -7  -7  -3 8980.44 845.530   1
   7   7   3 8614.52 779.608   1
   7   7   3 9326.81 823.742   1
  -7  -7  -4  56871. 2596.92   1
  -7  -7  -4  53575. 3762.57   1
  -7  -7  -4  59022. 4139.66   1
   7   7   4  54050. 2469.83   1
   7   7   4  53212. 2472.90   1
   7   7   4  49050. 3444.13   1
   7   7   4  56425. 3946.92   1
  -7  -7  -5 132179. 5737.42   1
  -7  -7  -5 129134. 8877.09   1
  -7  -7  -5 120112. 8265.35   1
   7   7   5 124050. 5388.26   1
   7   7   5 125140. 5469.27   1
   7   7   5 114106. 7832.39   1
   7   7   5 117290. 8069.82   1
  -7  -7  -6  189.69 504.189   1
  -7  -7  -6   44.39 429.329   1
  -7  -7  -6  303.07 417.318   1
   7   7   6   86.28 567.318   1
   7   7   6  620.67 476.536   1
   7   7   6   72.60 337.430   1
   7   7   6  658.94 370.949   1
  -7  -7  -7  68743. 3114.52   1
  -7  -7  -7  66061. 4608.93   1
  -7  -7  -7  76480. 5304.46   1
   7   7   7  65782. 3036.31   1
   7   7   7  69497. 3134.07   1
   7   7   7  64302. 4466.48   1
   7   7   7  78408. 5438.54   1
  -7  -7  -8  16285. 1039.11   1
  -7  -7  -8  15388. 1239.10   1
  -7  -7  -8  16575. 1299.72   1
   7   7   8  16067. 1140.78   1
   7   7   8  16908. 1082.12   1
   7   7   8  15718. 1226.26   1
   7   7   8  15344. 1198.32   1
  -7  -7  -9  118.38 630.167   1
  -7  -7  -9  114.72 473.184   1
  -7  -7  -9  363.13 430.446   1
   7   7   9  -24.58 762.848   1
   7   7   9 -105.11 655.027   1
   7   7   9  375.98 411.173   1
   7   7   9  425.70 384.916   1
  -7  -8   4 3446.92 594.413   1
  -7  -8   4 3536.31 539.944   1
   7   8  -4 3187.15 622.346   1
   7   8  -4 3824.02 635.754   1
   7   8  -4 4773.74 574.860   1
   7   8  -4 4617.31 591.061   1
  -7  -8   3  17966. 1039.38   1
  -7  -8   3  18302. 1423.46   1
   7   8  -3  20170. 1139.94   1
   7   8  -3  18274. 1052.79   1
   7   8  -3  18637. 1418.71   1
   7   8  -3  17958. 1349.44   1
  -7  -8   2 5178.77 620.390   1
  -7  -8   2 4921.78 637.988   1
   7   8  -2 5829.60 647.765   1
   7   8  -2 4167.59 564.245   1
   7   8  -2 5472.06 591.340   1
   7   8  -2 5779.32 589.106   1
  -7  -8   1 6148.04 655.586   1
  -7  -8   1 8706.69 858.658   1
  -7  -8   1 7363.12 746.368   1
   7   8  -1 7061.45 674.860   1
   7   8  -1 7217.87 676.256   1
   7   8  -1 6259.77 655.307   1
   7   8  -1 7804.46 735.753   1
  -7  -8   0 1124.02 435.474   1
  -7  -8   0  496.65 491.620   1
   7   8   0  988.55 506.145   1
   7   8   0  154.50 453.631   1
   7   8   0  813.97 409.497   1
   7   8   0  491.62 390.223   1
  -7  -8  -1  62263. 4340.78   1
  -7  -8  -1  77207. 5374.30   1
   7   8   1  74190. 3312.85   1
   7   8   1  75922. 3418.99   1
   7   8   1  68994. 4801.67   1
   7   8   1  72877. 5058.65   1
  -7  -8  -2  47039. 3340.78   1
  -7  -8  -2  44721. 3170.39   1
   7   8   2  39721. 1894.41   1
   7   8   2  44944. 2095.53   1
   7   8   2  43603. 3081.00   1
   7   8   2  40614. 2891.06   1
  -7  -8  -3  16397. 1294.69   1
  -7  -8  -3  14751. 1225.70   1
   7   8   3  14310. 928.211   1
   7   8   3  15042. 942.178   1
   7   8   3  14804. 1170.67   1
   7   8   3  15751. 1250.84   1
  -7  -8  -4 118464. 5170.39   1
  -7  -8  -4 133408. 9178.76   1
  -7  -8  -4 134050. 9198.31   1
   7   8   4 126369. 5525.13   1
   7   8   4 117821. 5128.49   1
   7   8   4 121145. 8329.60   1
   7   8   4 120363. 8273.73   1
  -7  -8  -5 5905.02 643.854   1
  -7  -8  -5 5765.36 662.290   1
  -7  -8  -5 5756.98 679.608   1
   7   8   5 5477.65 655.027   1
   7   8   5 6256.98 655.865   1
   7   8   5 5871.50 651.396   1
   7   8   5 6449.71 649.161   1
  -7  -8  -6  31061. 1582.12   1
  -7  -8  -6  31788. 2318.15   1
  -7  -8  -6  31788. 2328.49   1
   7   8   6  33073. 1658.10   1
   7   8   6  32877. 1682.68   1
   7   8   6  30642. 2215.36   1
   7   8   6  29078. 2105.31   1
  -7  -8  -7 5918.99 715.362   1
  -7  -8  -7 5047.48 640.223   1
  -7  -8  -7 4159.21 567.318   1
   7   8   7 6837.98 786.591   1
   7   8   7 5446.92 733.239   1
   7   8   7 5310.05 574.301   1
   7   8   7 5262.56 608.659   1
  -7  -8  -8 3427.37 673.463   1
  -7  -8  -8 4787.70 657.262   1
  -7  -8  -8 4120.11 630.167   1
   7   8   8 3910.61 756.424   1
   7   8   8 4999.99 739.385   1
   7   8   8 4695.53 588.826   1
   7   8   8 3212.29 478.491   1
  -7  -9   1 5145.25 693.295   1
  -7  -9   1 5684.35 716.759   1
   7   9  -1 5212.29 682.122   1
   7   9  -1 5382.68 696.089   1
   7   9  -1 4413.40 613.687   1
   7   9  -1 4687.15 588.268   1
  -7  -9   0  38715. 2796.09   1
  -7  -9   0  35950. 2608.94   1
   7   9   0  37542. 1832.68   1
   7   9   0  35475. 1772.34   1
   7   9   0  36480. 2611.73   1
   7   9   0  37430. 2691.90   1
  -7  -9  -1  59972. 4206.70   1
  -7  -9  -1  63128. 4421.78   1
   7   9   1  67346. 3041.90   1
   7   9   1  65307. 2972.06   1
  -7  -9  -2  279.02 512.290   1
  -7  -9  -2 -433.80 490.502   1
   7   9   2   80.28 513.687   1
   7   9   2  539.38 537.150   1
   7   9   2  104.05 425.698   1
   7   9   2  542.18 396.927   1
   7   9   3  42514. 2016.76   1
   7   9   3  44162. 2121.51   1
   7   9   3  46760. 3287.71   1
   7   9   3  43687. 3094.97   1
  -7  -9  -4  14506. 940.502   1
  -7  -9  -4  16168. 1306.98   1
  -7  -9  -4  16751. 1355.86   1
   7   9   4  16718. 1034.92   1
   7   9   4  15827. 1069.27   1
   7   9   4  15978. 1263.13   1
   7   9   4  15925. 1265.08   1
  -7  -9  -5  742.46 577.094   1
  -7  -9  -5  515.08 491.340   1
  -7  -9  -5  632.12 559.776   1
   7   9   5 1034.64 580.446   1
   7   9   5  471.79 611.173   1
   7   9   5  709.22 459.776   1
   7   9   5  600.84 481.005   1
  -8   2   3 5511.17 888.267   1
   8  -2  -3 5164.80 979.887   1
   8  -2  -3 4695.53 899.720   1
  -8   2   2  53659. 3849.16   1
   8  -2  -2  54721. 3935.75   1
   8  -2  -2  48855. 3550.28   1
  -8   2   1  32067. 2421.79   1
   8  -2  -1  25813. 2004.47   1
   8  -2  -1  31592. 2428.21   1
  -8   2   0 1529.89 789.385   1
   8  -2   0 1796.65 689.385   1
   8  -2   0 1336.59 779.049   1
  -8   2  -1 8525.13 1045.81   1
   8  -2   1 9701.11 1104.47   1
   8  -2   1 9972.06 1041.90   1
  -8   2  -2 2060.89 791.061   1
   8  -2   2 3466.48 874.301   1
   8  -2   2 1782.40 673.184   1
  -8   2  -4 1240.78 701.117   1
  -8   2  -4  -84.02 769.832   1
   8  -2   4  909.50 715.083   1
   8  -2   4  764.24 818.435   1
  -8   1   5  65950. 4625.69   1
   8  -1  -5  66006. 4684.35   1
   8  -1  -5  67235. 4715.08   1
  -8   1   4  39749. 2879.89   1
   8  -1  -4  34637. 2581.00   1
   8  -1  -4  39832. 2896.65   1
  -8   1   3  19290. 1536.59   1
   8  -1  -3  19751. 1586.59   1
   8  -1  -3  19198. 1546.37   1
  -8   1   2  48156. 3432.96   1
   8  -1  -2  56564. 4013.96   1
   8  -1  -2  50978. 3634.07   1
  -8   1   1 4594.97 698.882   1
   8  -1  -1 4312.84 727.932   1
   8  -1  -1 5865.92 756.703   1
  -8   1   0  -15.14 550.837   1
   8  -1   0  484.36 610.055   1
   8  -1   0  573.74 520.111   1
  -8   1  -1 2832.40 558.100   1
  -8   1  -1 3248.60 682.681   1
   8  -1   1 1367.32 670.390   1
   8  -1   1 2275.14 582.402   1
  -8   1  -2  40475. 2944.13   1
  -8   1  -2  40084. 2882.68   1
   8  -1   2  43855. 3164.80   1
   8  -1   2  37263. 2748.04   1
  -8   1  -3  36480. 2696.92   1
  -8   1  -3  37263. 2704.75   1
   8  -1   3  35335. 2634.35   1
   8  -1   3  36983. 2689.38   1
  -8   1  -4  20832. 1687.43   1
  -8   1  -4  18849. 1506.42   1
   8  -1   4  21617. 1676.81   1
   8  -1   4  21140. 1725.42   1
  -8   1  -5  93073. 6446.92   1
  -8   1  -5  79525. 5569.83   1
   8  -1   5  82318. 5743.01   1
   8  -1   5  84357. 5916.19   1
  -8   1  -6 1398.88 682.960   1
  -8   1  -6  694.13 541.061   1
   8  -1   6 1662.57 702.793   1
   8  -1   6 1970.11 600.558   1
  -8   1  -7  21425. 1799.72   1
  -8   0   6  52598. 3715.08   1
  -8   0   5  30391. 2227.93   1
   8   0  -5  34804. 2544.13   1
   8   0  -5  33184. 2424.02   1
  -8   0   4  658.38 496.089   1
   8   0  -4 1115.36 447.486   1
   8   0  -4  363.69 449.162   1
  -8   0   3  21000. 1612.01   1
   8   0  -3  20858. 1619.27   1
   8   0  -3  20131. 1567.60   1
  -8   0   2  23165. 1751.12   1
   8   0  -2  20913. 1621.79   1
   8   0  -2  20439. 1589.66   1
  -8   0   1  29721. 2168.15   1
   8   0  -1  24869. 1865.92   1
   8   0  -1  27243. 2033.80   1
  -8   0   0  672.90 437.430   1
  -8   0   0  717.60 441.899   1
   8   0   0  598.60 469.553   1
   8   0   0  242.37 506.424   1
  -8   0  -1  79162. 5486.03   1
  -8   0  -1  80084. 5553.07   1
   8   0   1  85698. 5966.47   1
   8   0   1  76927. 5365.92   1
  -8   0  -2  79860. 5541.89   1
  -8   0  -2  82151. 5698.32   1
   8   0   2  87374. 6061.45   1
   8   0   2  82402. 5737.42   1
  -8   0  -3 9245.80 890.223   1
  -8   0  -3 8310.05 829.329   1
   8   0   3 7527.93 809.496   1
   8   0   3 8245.80 820.669   1
  -8   0  -4 111983. 7729.04   1
  -8   0  -4  99190. 6885.47   1
   8   0   4 112011. 7754.18   1
   8   0   4 100670. 6960.89   1
  -8   0  -5  10045. 972.345   1
  -8   0  -5 9927.36 913.966   1
   8   0   5 9407.81 892.737   1
   8   0   5  10061. 1003.35   1
  -8   0  -6 5033.51 718.714   1
  -8   0  -6 5125.69 676.815   1
   8   0   6 4946.92 744.413   1
   8   0   6 4860.33 639.385   1
  -8   0  -7 7837.98 841.061   1
  -8   0  -7 8840.77 874.301   1
   8   0   7 8636.86 906.424   1
   8   0   7 8488.82 851.954   1
  -8   0  -8 3377.09 702.793   1
  -8   0  -8 5349.16 697.206   1
   8   0   8 3259.77 692.737   1
   8   0   8 3784.91 659.217   1
   8   1  -6  31061. 2282.68   1
   8   1  -6  32793. 2377.37   1
  -8  -1   5 2023.46 527.094   1
   8   1  -5 1651.95 465.363   1
   8   1  -5 2019.55 506.703   1
  -8  -1   4  570.67 456.424   1
   8   1  -4  589.94 467.877   1
   8   1  -4  407.54 441.899   1
  -8  -1   3 7075.41 734.636   1
   8   1  -3 7787.70 763.686   1
   8   1  -3 8100.55 811.172   1
  -8  -1   2  75307. 5226.25   1
   8   1  -2  82933. 5762.56   1
   8   1  -2  75810. 5268.15   1
  -8  -1   1  41369. 2941.34   1
   8   1  -1  40112. 2871.51   1
   8   1  -1  39497. 2829.61   1
  -8  -1   0  40894. 2905.02   1
  -8  -1   0  43324. 3081.00   1
   8   1   0  40587. 2899.44   1
   8   1   0  41089. 2941.34   1
  -8  -1  -1 136760. 9382.67   1
  -8  -1  -1 127905. 8790.49   1
   8   1   1 130279. 8958.09   1
   8   1   1 115614. 7963.68   1
  -8  -1  -2  864.24 463.966   1
  -8  -1  -2   17.67 397.486   1
   8   1   2  521.23 465.363   1
   8   1   2  432.68 427.374   1
  -8  -1  -3  46983. 3326.81   1
  -8  -1  -3  47793. 3371.50   1
   8   1   3  48883. 3449.72   1
   8   1   3  50168. 3553.07   1
  -8  -1  -4  16528. 1284.36   1
  -8  -1  -4  17556. 1377.37   1
   8   1   4  17746. 1404.47   1
   8   1   4  16053. 1268.43   1
  -8  -1  -5 7083.79 753.910   1
  -8  -1  -5 8231.83 797.206   1
   8   1   5 7354.74 738.826   1
   8   1   5 7768.15 802.234   1
  -8  -1  -6  390.78 499.720   1
  -8  -1  -6  121.23 448.882   1
   8   1   6   64.41 511.173   1
   8   1   6  526.82 450.837   1
  -8  -1  -7  19092. 1492.46   1
  -8  -1  -7  19911. 1538.55   1
   8   1   7  19925. 1575.98   1
   8   1   7  17508. 1392.46   1
  -8  -1  -8  27265. 2011.17   1
  -8  -1  -8  27623. 2040.50   1
   8   1   8  27651. 2081.00   1
   8   1   8  25740. 1919.55   1
  -8  -1  -9 2075.70 559.776   1
  -8  -1  -9 2402.23 671.228   1
   8   1   9 2119.83 617.876   1
   8   1   9 2918.99 587.430   1
  -8  -2   7 5586.59 919.552   1
  -8  -2   7 7410.61 790.223   1
   8   2  -7 5796.08 991.060   1
   8   2  -7 3432.96 1145.81   1
   8   2  -7 6966.47 715.921   1
   8   2  -7 7427.37 852.792   1
  -8  -2   6 3491.62 742.178   1
  -8  -2   6 3759.77 607.821   1
   8   2  -6 2415.64 952.234   1
   8   2  -6 4737.42 852.513   1
   8   2  -6 4474.86 614.245   1
   8   2  -6 3572.62 534.916   1
  -8  -2   5 6541.89 593.016   1
  -8  -2   5 9776.53 872.904   1
   8   2  -5  11637. 1000.00   1
   8   2  -5  10031. 900.278   1
  -8  -2   4  327.93 426.536   1
   8   2  -4  458.94 415.921   1
   8   2  -4  664.52 422.625   1
  -8  -2   3  72821. 5058.65   1
   8   2  -3  72626. 5041.89   1
   8   2  -3  74609. 5192.73   1
  -8  -2   2  70000. 4871.50   1
   8   2  -2  68073. 4751.39   1
   8   2  -2  63380. 4410.61   1
  -8  -2   1 4438.54 570.670   1
  -8  -2   1 5829.60 627.653   1
   8   2  -1 4371.50 576.256   1
   8   2  -1 4790.50 593.295   1
  -8  -2   0 143268. 9824.01   1
  -8  -2   0 140642. 9659.21   1
   8   2   0 122179. 8402.23   1
   8   2   0 143100. 9824.01   1
  -8  -2  -1  25483. 1876.81   1
  -8  -2  -1  24782. 1855.03   1
   8   2   1  21955. 1650.84   1
   8   2   1  24346. 1815.64   1
  -8  -2  -2  18978. 1469.27   1
  -8  -2  -2  17855. 1379.61   1
   8   2   2  18154. 1413.69   1
   8   2   2  16444. 1287.43   1
  -8  -2  -3  17469. 1356.42   1
  -8  -2  -3  15369. 1232.96   1
   8   2   3  15324. 1220.39   1
   8   2   3  16592. 1317.60   1
  -8  -2  -4  45140. 3201.11   1
  -8  -2  -4  44162. 3131.28   1
   8   2   4  47235. 3346.36   1
   8   2   4  50559. 3561.45   1
  -8  -2  -5  23226. 1750.56   1
  -8  -2  -5  23933. 1785.19   1
   8   2   5  22749. 1709.22   1
   8   2   5  22240. 1672.90   1
  -8  -2  -6  13254. 1091.06   1
  -8  -2  -6  15466. 1252.51   1
   8   2   6  15595. 1250.56   1
   8   2   6  14344. 1169.83   1
  -8  -2  -7  97877. 6759.77   1
  -8  -2  -7  94078. 6508.37   1
   8   2   7  96732. 6695.52   1
   8   2   7 102765. 7089.38   1
  -8  -2  -8  25525. 1889.38   1
  -8  -2  -8  20416. 1561.73   1
   8   2   8  22279. 1712.29   1
   8   2   8  22704. 1705.58   1
  -8  -2  -9  18084. 1438.27   1
  -8  -2  -9  17128. 1362.01   1
   8   2   9  17327. 1363.13   1
   8   2   9  17735. 1400.28   1
  -8  -3   7 1857.26 541.899   1
   8   3  -7 1507.54 477.932   1
  -8  -3   6  24673. 1384.08   1
  -8  -3   6  27369. 2017.04   1
   8   3  -6  26302. 1493.57   1
   8   3  -6  24701. 1685.47   1
   8   3  -6  28073. 2074.58   1
   8   3  -6  24506. 1813.13   1
  -8  -3   5  20087. 1193.85   1
  -8  -3   5  22804. 1694.13   1
   8   3  -5  21939. 1241.62   1
   8   3  -5  19782. 1385.47   1
   8   3  -5  20897. 1587.99   1
   8   3  -5  20265. 1539.38   1
  -8  -3   4  29525. 1479.05   1
  -8  -3   4  29777. 2163.96   1
   8   3  -4  32263. 2330.44   1
   8   3  -4  33911. 2450.28   1
  -8  -3   3  99246. 6840.77   1
   8   3  -3 105167. 7248.60   1
   8   3  -3 107905. 7438.54   1
  -8  -3   2  811.45 398.882   1
   8   3  -2    0.49 365.921   1
   8   3  -2  372.35 373.463   1
  -8  -3   1  67346. 4689.94   1
  -8  -3   1  72151. 5011.17   1
   8   3  -1  68743. 4782.12   1
   8   3  -1  73240. 5092.17   1
  -8  -3   0  32374. 2328.21   1
  -8  -3   0  31592. 2283.24   1
   8   3   0  34162. 2454.47   1
   8   3   0  31564. 2284.91   1
  -8  -3  -1 1615.08 431.284   1
  -8  -3  -1 2713.13 455.027   1
   8   3   1 1655.31 415.642   1
   8   3   1 2177.65 463.687   1
  -8  -3  -2  739.66 417.039   1
  -8  -3  -2  427.37 374.860   1
   8   3   2  653.63 418.156   1
   8   3   2  306.14 371.229   1
  -8  -3  -3 9217.87 826.535   1
  -8  -3  -3  11601. 970.669   1
   8   3   3  13151. 1086.31   1
   8   3   3  12346. 1013.69   1
  -8  -3  -4  58659. 4094.97   1
  -8  -3  -4  63575. 4430.16   1
   8   3   4  65391. 4569.83   1
   8   3   4  60978. 4262.57   1
  -8  -3  -5  250.53 412.849   1
  -8  -3  -5  332.40 422.625   1
   8   3   5  365.64 430.167   1
   8   3   5  494.13 382.681   1
  -8  -3  -6 127961. 8793.29   1
  -8  -3  -6 120056. 8256.97   1
   8   3   6 125810. 8648.04   1
   8   3   6 121033. 8324.01   1
  -8  -3  -7  59050. 4128.49   1
  -8  -3  -7  65950. 4606.14   1
   8   3   7  66089. 4622.90   1
   8   3   7  62514. 4368.71   1
  -8  -3  -8  13793. 1141.62   1
  -8  -3  -8  13268. 1090.22   1
   8   3   8  12735. 1072.07   1
   8   3   8  13978. 1147.48   1
  -8  -3  -9  32402. 2364.52   1
  -8  -3  -9  30614. 2234.08   1
   8   3   9  33240. 2420.11   1
   8   3   9  30112. 2189.66   1
  -8  -4   6  44050. 2167.32   1
  -8  -4   6  44888. 3162.01   1
   8   4  -6  41313. 2924.58   1
   8   4  -6  45307. 3201.11   1
  -8  -4   5  10964. 887.429   1
  -8  -4   5  11506. 964.245   1
   8   4  -5 9106.13 849.999   1
   8   4  -5 7902.23 1060.05   1
   8   4  -5  10830. 922.066   1
   8   4  -5  12103. 1010.89   1
  -8  -4   4  97095. 4310.05   1
  -8  -4   4  85447. 5899.44   1
   8   4  -4  82821. 5729.04   1
   8   4  -4  83603. 5796.08   1
  -8  -4   3 8483.23 756.703   1
  -8  -4   3 8675.97 790.781   1
   8   4  -3 7136.86 704.189   1
   8   4  -3 5628.49 906.982   1
   8   4  -3 8256.97 768.994   1
   8   4  -3 8497.20 760.614   1
  -8  -4   2  10771. 909.217   1
  -8  -4   2  10550. 923.742   1
   8   4  -2  10486. 907.541   1
   8   4  -2  11363. 945.530   1
  -8  -4   1  19422. 1482.68   1
  -8  -4   1  18796. 1421.79   1
   8   4  -1  15299. 815.921   1
   8   4  -1  15704. 943.574   1
   8   4  -1  17941. 1373.18   1
   8   4  -1  17584. 1357.54   1
  -8  -4   0  24296. 1805.86   1
  -8  -4   0  20799. 1555.03   1
   8   4   0  19115. 1451.95   1
   8   4   0  20799. 1566.76   1
  -8  -4  -1  12344. 1000.84   1
  -8  -4  -1  11707. 1003.07   1
   8   4   1  10966. 932.122   1
   8   4   1  12235. 1012.57   1
  -8  -4  -2 2117.04 472.625   1
  -8  -4  -2 1395.53 415.363   1
   8   4   2 1939.94 429.050   1
   8   4   2 2161.45 437.150   1
  -8  -4  -3  76145. 5276.53   1
  -8  -4  -3  67737. 4720.67   1
   8   4   3  67318. 4681.56   1
   8   4   3  76564. 5321.22   1
  -8  -4  -4  25950. 1905.03   1
  -8  -4  -4  28631. 2081.28   1
   8   4   4  28603. 2080.72   1
   8   4   4  29469. 2153.35   1
  -8  -4  -5  63436. 4421.78   1
  -8  -4  -5  63156. 4399.44   1
   8   4   5  65475. 4564.24   1
   8   4   5  61536. 4298.88   1
  -8  -4  -6  70140. 4874.30   1
  -8  -4  -6  70447. 4899.44   1
   8   4   6  65084. 4536.31   1
   8   4   6  74078. 5150.83   1
  -8  -4  -7  524.86 381.285   1
  -8  -4  -7  139.19 437.709   1
   8   4   7  548.32 416.480   1
   8   4   7  715.36 433.798   1
  -8  -4  -8  13911. 1124.58   1
  -8  -4  -8  13869. 1135.75   1
   8   4   8  13536. 1096.09   1
   8   4   8  14777. 1189.94   1
  -8  -4  -9 2983.24 493.296   1
  -8  -4  -9 4541.89 609.497   1
  -8  -4  -9 4564.24 596.927   1
   8   4   9 2756.70 469.273   1
   8   4   9 1494.41 528.491   1
   8   4   9 4575.41 557.821   1
   8   4   9 4843.57 597.485   1
  -8  -5   6   89.64 446.648   1
   8   5  -6  112.35 413.407   1
  -8  -5   5  47346. 2289.10   1
  -8  -5   5  46732. 3304.47   1
   8   5  -5  47514. 3357.54   1
   8   5  -5  45614. 3212.29   1
  -8  -5   4 9634.07 818.994   1
  -8  -5   4  11796.  999.72   1
   8   5  -4 9388.26 1031.56   1
   8   5  -4 9203.90 807.820   1
   8   5  -4  10592. 920.111   1
   8   5  -4  11265. 932.681   1
  -8  -5   3 2038.27 586.592   1
  -8  -5   3 2535.19 470.949   1
   8   5  -3 3025.14 617.876   1
   8   5  -3 2463.68 875.139   1
   8   5  -3 2673.74 473.184   1
   8   5  -3 2857.54 471.229   1
  -8  -5   2   59.02 405.586   1
  -8  -5   2  116.42 411.173   1
   8   5  -2  465.36 790.781   1
   8   5  -2  321.51 556.983   1
   8   5  -2  590.78 359.776   1
   8   5  -2  586.59 389.944   1
  -8  -5   1  39553. 2818.43   1
  -8  -5   1  41313. 2927.37   1
   8   5  -1  42402. 3008.38   1
   8   5  -1  38352. 2724.30   1
  -8  -5   0  83575. 5790.50   1
  -8  -5   0  82849. 5740.22   1
   8   5   0  85000. 5877.09   1
   8   5   0  72570. 5050.27   1
  -8  -5  -1  276.34 417.877   1
  -8  -5  -1   57.07 406.424   1
   8   5   1  459.78 658.379   1
   8   5   1   33.07 544.971   1
   8   5   1  278.32 393.016   1
   8   5   1  429.33 370.670   1
  -8  -5  -2 103994. 7170.38   1
  -8  -5  -2 103519. 7142.45   1
   8   5   2  92654. 4092.17   1
   8   5   2 102709. 4494.41   1
   8   5   2 102123. 7044.69   1
   8   5   2 101927. 7030.72   1
  -8  -5  -3  42235. 3005.58   1
  -8  -5  -3  46927. 3318.43   1
   8   5   3  40279. 1915.08   1
   8   5   3  41229. 1952.79   1
   8   5   3  41788. 2977.65   1
   8   5   3  41760. 2969.27   1
  -8  -5  -4  16573. 1287.99   1
  -8  -5  -4  17087. 1330.45   1
   8   5   4  17447. 1348.88   1
   8   5   4  16240. 1258.10   1
  -8  -5  -5  41480. 2944.13   1
  -8  -5  -5  36983. 2638.54   1
   8   5   5  42207. 3002.79   1
   8   5   5  36480. 2601.67   1
  -8  -5  -6 7977.65 749.720   1
  -8  -5  -6 7603.34 730.725   1
   8   5   6 5832.40 802.792   1
   8   5   6 7094.96 688.826   1
   8   5   6 8824.01 801.116   1
   8   5   6 7567.03 749.999   1
  -8  -5  -7  841.06 432.122   1
  -8  -5  -7  525.70 445.810   1
   8   5   7  331.28 631.284   1
   8   5   7 -855.86 855.865   1
   8   5   7  236.23 391.061   1
   8   5   7  900.84 411.731   1
  -8  -5  -8 2613.41 645.530   1
  -8  -5  -8 3064.24 517.877   1
  -8  -5  -8 3572.62 530.726   1
   8   5   8 3611.73 799.999   1
   8   5   8 3611.73 1118.71   1
   8   5   8 3810.05 530.726   1
   8   5   8 3340.78 527.653   1
  -8  -5  -9  23531. 1402.23   1
  -8  -5  -9  25274. 1862.57   1
  -8  -5  -9  23824. 1763.96   1
   8   5   9  20452. 1337.15   1
   8   5   9  21394. 1662.01   1
   8   5   9  24360. 1808.94   1
   8   5   9  27142. 1985.75   1
  -8  -6   5 4432.96 611.173   1
  -8  -6   4 6167.59 780.167   1
  -8  -6   4 8044.68 767.038   1
   8   6  -4 5125.69 982.960   1
   8   6  -4 5491.61 745.809   1
   8   6  -4 6798.88 710.614   1
   8   6  -4 7284.91 703.072   1
  -8  -6   3 5567.03 690.223   1
  -8  -6   3 5885.47 668.714   1
   8   6  -3 6441.33 769.832   1
   8   6  -3 6125.69 966.479   1
   8   6  -3 5519.55 601.117   1
   8   6  -3 6215.08 660.614   1
  -8  -6   2  13841. 1093.29   1
  -8  -6   2  16120. 1286.31   1
   8   6  -2  14240. 990.222   1
   8   6  -2  16179. 1174.02   1
   8   6  -2  15790. 1250.56   1
   8   6  -2  13743. 1089.38   1
  -8  -6   1 108436. 7472.06   1
  -8  -6   1 101955. 7011.17   1
   8   6  -1 113296. 4983.23   1
   8   6  -1 104274. 4659.21   1
   8   6  -1 104804. 7231.84   1
   8   6  -1  98156. 6776.53   1
  -8  -6   0  16503. 1260.05   1
  -8  -6   0  17492. 1367.32   1
   8   6   0  16603. 1127.65   1
   8   6   0  15788. 1036.87   1
  -8  -6  -1  91648. 6329.60   1
  -8  -6  -1  98017. 6745.80   1
   8   6   1  92123. 4086.59   1
   8   6   1  95028. 4234.63   1
   8   6   1  91760. 6346.36   1
   8   6   1  91005. 6284.91   1
  -8  -6  -2  68436. 4745.81   1
  -8  -6  -2  65056. 4539.10   1
   8   6   2  70000. 3189.94   1
   8   6   2  67709. 3092.18   1
   8   6   2  67654. 4715.08   1
   8   6   2  67654. 4698.32   1
  -8  -6  -3  245.39 401.955   1
  -8  -6  -3  520.95 375.139   1
   8   6   3  446.09 672.904   1
   8   6   3  687.71 659.497   1
   8   6   3  584.36 398.603   1
   8   6   3  229.27 373.743   1
  -8  -6  -4 9541.89 827.932   1
  -8  -6  -4  11003. 964.803   1
   8   6   4  10989. 927.932   1
   8   6   4  10542. 1019.27   1
   8   6   4 9324.01 827.932   1
   8   6   4  10075. 879.329   1
  -8  -6  -5 5212.29 632.402   1
  -8  -6  -5 5128.49 602.234   1
   8   6   5 4544.69 740.502   1
   8   6   5 5726.25 928.770   1
   8   6   5 5980.44 671.787   1
   8   6   5 4581.00 568.435   1
  -8  -6  -6  11693. 990.502   1
  -8  -6  -6  12039. 1025.98   1
   8   6   6  10961. 931.843   1
   8   6   6  11341. 937.429   1
  -8  -6  -7 3156.42 696.927   1
  -8  -6  -7 3041.90 493.854   1
  -8  -6  -7 3287.71 499.161   1
   8   6   7 3879.88 773.184   1
   8   6   7 2460.61 1050.84   1
   8   6   7 3416.20 543.016   1
   8   6   7 2879.89 502.234   1
  -8  -6  -8  25039. 1439.10   1
  -8  -6  -8  29274. 2137.15   1
  -8  -6  -8  25704. 1905.03   1
   8   6   8  24458. 1743.01   1
   8   6   8  24913. 1494.41   1
   8   6   8  27899. 2046.65   1
   8   6   8  27751. 2010.05   1
  -8  -7   3 1124.86 641.619   1
  -8  -7   3  862.01 430.726   1
   8   7  -3  560.89 890.223   1
   8   7  -3 1481.28 644.971   1
   8   7  -3 1142.46 453.910   1
   8   7  -3  646.37 360.056   1
  -8  -7   2  48631. 3418.99   1
   8   7  -2  47402. 2348.88   1
   8   7  -2  43045. 2088.55   1
   8   7  -2  48687. 3421.78   1
   8   7  -2  46899. 3310.05   1
  -8  -7   1  40223. 2849.16   1
  -8  -7   1  43017. 3064.24   1
   8   7  -1  37430. 1925.98   1
   8   7  -1  39330. 1963.96   1
   8   7  -1  36536. 2605.58   1
   8   7  -1  37095. 2654.19   1
  -8  -7   0  17662. 1383.24   1
  -8  -7   0  19159. 1477.37   1
   8   7   0  18804. 1231.56   1
   8   7   0  18290. 1180.73   1
   8   7   0  19098. 1437.99   1
   8   7   0  17296. 1332.40   1
  -8  -7  -1  52793. 3709.49   1
  -8  -7  -1  54944. 3857.54   1
   8   7   1  61927. 2879.89   1
   8   7   1  64134. 2988.82   1
   8   7   1  51006. 3569.83   1
   8   7   1  56676. 3969.27   1
  -8  -7  -2 6905.02 733.239   1
  -8  -7  -2 5882.68 692.178   1
   8   7   2 6349.16 788.826   1
   8   7   2 7304.46 860.334   1
   8   7   2 6248.60 673.463   1
   8   7   2 7178.76 701.117   1
  -8  -7  -3  225.70 458.938   1
  -8  -7  -3  572.07 453.072   1
   8   7   3  259.30 651.117   1
   8   7   3 1214.24 718.714   1
   8   7   3  276.26 369.553   1
   8   7   3  118.32 397.206   1
  -8  -7  -4 2740.78 521.229   1
  -8  -7  -4 2712.01 499.999   1
   8   7   4 2477.65 684.636   1
   8   7   4 3226.25 798.882   1
   8   7   4 2380.17 463.966   1
   8   7   4 2483.52 430.167   1
  -8  -7  -5  24922. 1828.21   1
  -8  -7  -5  27581. 2003.63   1
   8   7   5  26441. 1481.28   1
   8   7   5  28771. 1668.71   1
   8   7   5  28603. 2082.12   1
   8   7   5  27961. 2029.89   1
  -8  -7  -6  21201. 1287.71   1
  -8  -7  -6  21810. 1652.79   1
  -8  -7  -6  20659. 1546.65   1
   8   7   6  20838. 1571.79   1
   8   7   6  22170. 1676.53   1
  -8  -8   0 8245.80 860.055   1
   8   8   0 9924.57 893.854   1
  -8  -8  -1 9533.51 918.155   1
  -8  -8  -1 9879.88 919.552   1
   8   8   1  11000. 1035.19   1
   8   8   1 8368.71 903.910   1
   8   8   1 8108.93 836.033   1
   8   8   1 8988.82 798.882   1
  -8  -8  -2 7681.56 801.954   1
  -8  -8  -2 5832.40 719.273   1
   8   8   2 7033.51 905.306   1
   8   8   2 8486.02 875.139   1
   8   8   2 6974.85 746.368   1
   8   8   2 7818.43 742.178   1
  -8  -8  -3 1903.35 562.011   1
  -8  -8  -3 1812.01 513.687   1
   8   8   3 2151.67 746.089   1
   8   8   3 1763.69 704.189   1
   8   8   3 1189.38 419.553   1
   8   8   3 1223.18 467.597   1
  -9  -1   1 2334.91 685.753   1
   9   1  -1  454.47 621.228   1
   9   1  -1 2043.57 615.362   1
  -9  -1   0  845.53 609.497   1
   9   1   0  -50.78 558.938   1
   9   1   0  274.92 621.508   1
  -9  -1  -1  33966. 2504.75   1
  -9  -1  -1  32430. 2382.40   1
   9   1   1  37039. 2730.16   1
   9   1   1  34413. 2532.96   1
  -9  -1  -2  37570. 2719.55   1
  -9  -1  -2  41145. 2974.86   1
   9   1   2  38101. 2798.88   1
   9   1   2  34413. 2532.40   1
  -9  -1  -3 6016.75 820.949   1
  -9  -1  -3 7430.16 809.217   1
   9   1   3 5248.60 779.608   1
   9   1   3 6290.50 808.379   1
  -9  -2   2  15025. 1267.88   1
   9   2  -2  16176. 1330.45   1
   9   2  -2  16455. 1344.97   1
  -9  -2   1  10425. 972.625   1
   9   2  -1 9181.55 884.636   1
   9   2  -1 9399.43 898.044   1
  -9  -2   0  29246. 2169.27   1
  -9  -2   0  29385. 2169.55   1
   9   2   0  27042. 2006.70   1
   9   2   0  27601. 2066.20   1
  -9  -2  -1  59330. 4167.59   1
  -9  -2  -1  61145. 4287.71   1
   9   2   1  69693. 4885.47   1
   9   2   1  60279. 4243.01   1
  -9  -2  -2  446.37 505.586   1
  -9  -2  -2 -100.06 512.011   1
   9   2   2  497.49 494.692   1
   9   2   2  133.32 561.731   1
  -9  -2  -3  53464. 3782.12   1
  -9  -2  -3  52682. 3717.87   1
   9   2   3  50251. 3553.07   1
   9   2   3  51313. 3650.83   1
  -9  -2  -4  19070. 1508.94   1
  -9  -2  -4  20288. 1566.76   1
   9   2   4  20816. 1611.17   1
   9   2   4  19947. 1574.58   1
  -9  -2  -5   43.46 546.368   1
  -9  -2  -5  507.82 623.463   1
   9   2   5 -154.50 551.117   1
   9   2   5 -201.65 539.664   1
  -9  -3   2  38017. 2729.89   1
   9   3  -2  35782. 2578.77   1
   9   3  -2  37430. 2711.73   1
  -9  -3   1 4382.68 606.145   1
  -9  -3   1 5234.63 676.256   1
   9   3  -1 4379.88 613.966   1
   9   3  -1 5284.91 662.010   1
  -9  -3   0  83436. 5773.74   1
  -9  -3   0  74553. 5195.53   1
   9   3   0  74916. 5206.70   1
   9   3   0  76173. 5290.50   1
  -9  -3  -1 4114.52 636.312   1
  -9  -3  -1 3555.86 575.139   1
   9   3   1 3466.48 544.413   1
   9   3   1 2487.99 551.675   1
  -9  -3  -2  21721. 1655.03   1
  -9  -3  -2  22254. 1672.34   1
   9   3   2  21254. 1609.77   1
   9   3   2  20559. 1580.17   1
  -9  -3  -3 9321.22 872.625   1
  -9  -3  -3 8458.09 851.116   1
   9   3   3 8335.19 816.200   1
   9   3   3 9120.10 876.535   1
  -9  -3  -4 4351.95 632.122   1
  -9  -3  -4 3840.78 622.904   1
   9   3   4 4863.12 638.547   1
   9   3   4 3905.02 632.960   1
  -9  -3  -5 1433.80 565.921   1
  -9  -3  -5 1801.12 581.005   1
   9   3   5 1196.65 525.977   1
   9   3   5 1055.59 485.474   1
  -9  -4   2  379.05 542.178   1
   9   4  -2   41.79 484.916   1
   9   4  -2 -184.05 472.346   1
  -9  -4   1  57011. 4002.79   1
  -9  -4   1  55782. 3924.58   1
   9   4  -1  58715. 4128.49   1
   9   4  -1  57290. 4019.55   1
  -9  -4   0  26020. 1945.53   1
  -9  -4   0  24925. 1867.32   1
   9   4   0  23763. 1786.31   1
   9   4   0  24466. 1833.52   1
  -9  -4  -1 5170.39 668.994   1
  -9  -4  -1 5201.11 663.966   1
   9   4   1 4606.14 601.396   1
   9   4   1 5131.28 662.569   1
  -9  -4  -2 3273.74 590.502   1
  -9  -4  -2 2955.30 577.932   1
   9   4   2 3564.24 560.614   1
   9   4   2 3444.13 567.597   1
  -9  -4  -3 7681.56 825.418   1
  -9  -4  -3 8703.90 856.424   1
   9   4   3 8377.09 827.094   1
   9   4   3 8002.78 826.815   1
  -9  -4  -4  18290. 1449.16   1
  -9  -4  -4  19609. 1545.53   1
   9   4   4  20698. 1602.23   1
   9   4   4  18827. 1479.89   1
  -9  -4  -5  671.79 511.731   1
  -9  -4  -5  667.60 591.340   1
   9   4   5  522.90 497.765   1
   9   4   5  696.65 540.782   1
  -9  -5   1  18020. 1429.61   1
   9   5  -1  15399. 1251.40   1
   9   5  -1  18332. 1502.23   1
  -9  -5   0 5438.54 680.167   1
  -9  -5   0 5784.91 667.876   1
   9   5   0 5371.50 627.653   1
   9   5   0 4377.09 603.351   1
  -9  -5  -1   41.06 502.513   1
  -9  -5  -1 1395.81 509.497   1
   9   5   1  834.08 444.413   1
   9   5   1 1202.23 463.407   1
  -9  -5  -2 5075.41 643.575   1
  -9  -5  -2 5150.83 655.307   1
   9   5   2 5905.02 657.821   1
   9   5   2 4318.43 569.832   1
  -9  -5  -3  46871. 3318.43   1
  -9  -5  -3  45559. 3229.05   1
   9   5   3  51983. 3642.45   1
   9   5   3  48492. 3427.37   1
  -9  -5  -4 3896.64 598.603   1
  -9  -5  -4 3569.83 613.128   1
   9   5   4 3360.33 573.184   1
   9   5   4 2952.51 503.631   1
   0   0   0      0.    0.00   0
;
_shelx_hkl_checksum              9245
loop_
_space_group_symop_operation_xyz
'x, y, z'
'-x, -y, -z'
loop_
_atom_site_label
_atom_site_type_symbol
_atom_site_fract_x
_atom_site_fract_y
_atom_site_fract_z
_atom_site_U_iso_or_equiv
_atom_site_adp_type
_atom_site_occupancy
_atom_site_site_symmetry_order
_atom_site_calc_flag
_atom_site_refinement_flags_posn
_atom_site_refinement_flags_adp
_atom_site_refinement_flags_occupancy
_atom_site_disorder_assembly
_atom_site_disorder_group
Pt1 Pt 0.02354(2) 0.43475(2) 0.34454(2) 0.02349(11) Uani 1 1 d . . . . .
In1 In 0.30810(5) 0.22814(4) 0.23903(2) 0.02351(12) Uani 1 1 d . . . . .
O11 O 0.1407(6) 0.0700(4) 0.3138(3) 0.0298(8) Uani 1 1 d . . . . .
C11 C -0.0182(7) 0.1136(6) 0.3675(4) 0.0267(9) Uani 1 1 d . . . . .
O12 O -0.0966(5) 0.2549(4) 0.3957(3) 0.0273(7) Uani 1 1 d . . . . .
C12 C -0.1249(7) -0.0105(6) 0.4006(4) 0.0285(10) Uani 1 1 d . . . . .
H12A H -0.207227 0.020183 0.464238 0.043 Uiso 1 1 calc R U . . .
H12B H -0.031831 -0.115735 0.414364 0.043 Uiso 1 1 calc R U . . .
H12C H -0.205374 -0.017018 0.344911 0.043 Uiso 1 1 calc R U . . .
O21 O 0.0770(5) 0.2927(4) 0.1294(3) 0.0292(7) Uani 1 1 d . . . . .
C21 C -0.0788(7) 0.3993(6) 0.1397(4) 0.0265(9) Uani 1 1 d . . . . .
O22 O -0.1389(5) 0.4819(5) 0.2206(3) 0.0275(7) Uani 1 1 d . . . . .
C22 C -0.2148(8) 0.4397(7) 0.0530(4) 0.0307(10) Uani 1 1 d . . . . .
H22A H -0.328179 0.400628 0.074575 0.046 Uiso 1 1 calc R U . . .
H22B H -0.148591 0.387968 -0.009703 0.046 Uiso 1 1 calc R U . . .
H22C H -0.256150 0.556826 0.037601 0.046 Uiso 1 1 calc R U . . .
O31 O 0.3724(6) 0.4571(4) 0.1953(3) 0.0303(8) Uani 1 1 d . . . . .
C31 C 0.2825(8) 0.5919(6) 0.2266(4) 0.0273(10) Uani 1 1 d . . . . .
O32 O 0.1344(6) 0.6183(4) 0.2920(3) 0.0291(8) Uani 1 1 d . . . . .
C32 C 0.3533(9) 0.7352(6) 0.1875(5) 0.0350(11) Uani 1 1 d . . . . .
H32A H 0.265724 0.832557 0.215697 0.052 Uiso 1 1 calc R U . . .
H32B H 0.356833 0.746803 0.111023 0.052 Uiso 1 1 calc R U . . .
H32C H 0.483458 0.719796 0.210095 0.052 Uiso 1 1 calc R U . . .
O41 O 0.4355(6) 0.2319(5) 0.3877(3) 0.0324(8) Uani 1 1 d . . . . .
C41 C 0.3556(8) 0.3080(6) 0.4651(4) 0.0291(10) Uani 1 1 d . . . . .
O42 O 0.1820(5) 0.3970(5) 0.4713(3) 0.0276(7) Uani 1 1 d . . . . .
C42 C 0.4647(8) 0.2952(7) 0.5595(4) 0.0353(11) Uani 1 1 d . . . . .
H42A H 0.396165 0.380850 0.604805 0.053 Uiso 1 1 calc R U . . .
H42B H 0.594288 0.306358 0.538305 0.053 Uiso 1 1 calc R U . . .
H42C H 0.475412 0.189945 0.597501 0.053 Uiso 1 1 calc R U . . .
O51 O 0.5495(5) 0.0088(4) 0.2330(3) 0.0300(7) Uani 1 1 d . . . . .
C51 C 0.6007(7) 0.0401(6) 0.1380(4) 0.0284(10) Uani 1 1 d . . . . .
O52 O 0.4977(6) 0.1635(5) 0.0891(3) 0.0347(8) Uani 1 1 d . . . . .
C52 C 0.7779(9) -0.0682(8) 0.0882(5) 0.0430(13) Uani 1 1 d . . . . .
H52A H 0.877662 -0.010916 0.073863 0.064 Uiso 1 1 calc R U . . .
H52B H 0.747083 -0.100750 0.022668 0.064 Uiso 1 1 calc R U . . .
H52C H 0.825597 -0.164093 0.135437 0.064 Uiso 1 1 calc R U . . .
loop_
_atom_site_aniso_label
_atom_site_aniso_U_11
_atom_site_aniso_U_22
_atom_site_aniso_U_33
_atom_site_aniso_U_23
_atom_site_aniso_U_13
_atom_site_aniso_U_12
Pt1 0.02382(14) 0.02278(14) 0.02356(14) -0.00294(8) -0.00037(8) -0.00590(8)
In1 0.02463(19) 0.02219(19) 0.02381(19) -0.00222(12) -0.00025(13) -0.00688(14)
O11 0.0318(19) 0.0218(16) 0.0353(19) -0.0018(14) 0.0063(15) -0.0092(14)
C11 0.024(2) 0.029(2) 0.027(2) 0.0010(18) -0.0021(17) -0.0084(19)
O12 0.0256(18) 0.0235(17) 0.0324(19) -0.0011(14) 0.0031(14) -0.0081(14)
C12 0.022(2) 0.028(2) 0.036(3) 0.0026(19) -0.0031(18) -0.0084(19)
O21 0.0266(18) 0.0324(18) 0.0286(18) -0.0069(14) -0.0033(14) -0.0063(15)
C21 0.025(2) 0.029(2) 0.026(2) -0.0010(18) -0.0013(18) -0.0071(19)
O22 0.0252(18) 0.0312(18) 0.0247(17) -0.0034(14) -0.0042(14) -0.0043(14)
C22 0.031(3) 0.037(3) 0.026(2) 0.001(2) -0.0042(19) -0.014(2)
O31 0.0308(19) 0.0245(17) 0.0371(19) -0.0050(14) 0.0079(15) -0.0126(15)
C31 0.031(2) 0.027(2) 0.026(2) -0.0024(18) -0.0026(18) -0.011(2)
O32 0.0323(19) 0.0231(17) 0.0341(19) -0.0010(14) 0.0028(15) -0.0129(15)
C32 0.045(3) 0.028(2) 0.036(3) -0.005(2) 0.002(2) -0.016(2)
O41 0.0263(18) 0.038(2) 0.0294(18) -0.0074(15) -0.0071(14) 0.0002(15)
C41 0.028(2) 0.030(2) 0.030(2) -0.0014(19) -0.0043(19) -0.010(2)
O42 0.0226(17) 0.0298(18) 0.0290(18) -0.0071(14) -0.0023(14) -0.0033(14)
C42 0.037(3) 0.040(3) 0.028(3) -0.007(2) -0.002(2) -0.009(2)
O51 0.0281(18) 0.0280(17) 0.0316(18) -0.0039(14) -0.0003(14) -0.0041(14)
C51 0.025(2) 0.027(2) 0.035(3) -0.0076(19) -0.0007(19) -0.0103(19)
O52 0.037(2) 0.0326(19) 0.0318(19) -0.0052(15) 0.0049(15) -0.0059(16)
C52 0.042(3) 0.038(3) 0.043(3) -0.010(2) 0.006(3) -0.004(3)
loop_
_atom_type_symbol
_atom_type_description
_atom_type_scat_dispersion_real
_atom_type_scat_dispersion_imag
_atom_type_scat_source
C C 0.0050 0.0020 'International Tables Vol C Tables 4.2.6.8 and 6.1.1.4'
H H 0.0000 0.0000 'International Tables Vol C Tables 4.2.6.8 and 6.1.1.4'
In In -0.4874 1.6336 'International Tables Vol C Tables 4.2.6.8 and 6.1.1.4'
O O 0.0150 0.0080 'International Tables Vol C Tables 4.2.6.8 and 6.1.1.4'
Pt Pt -3.1221 10.1986 'International Tables Vol C Tables 4.2.6.8 and 6.1.1.4'
loop_
_geom_angle_atom_site_label_1
_geom_angle_atom_site_label_2
_geom_angle_atom_site_label_3
_geom_angle
_geom_angle_site_symmetry_1
_geom_angle_site_symmetry_3
O32 Pt1 O22 89.40(16) . .
O32 Pt1 O12 178.07(13) . .
O22 Pt1 O12 89.08(16) . .
O32 Pt1 O42 89.30(16) . .
O22 Pt1 O42 177.55(13) . .
O12 Pt1 O42 92.17(16) . .
O32 Pt1 In1 90.87(11) . .
O22 Pt1 In1 90.79(11) . .
O12 Pt1 In1 90.34(11) . .
O42 Pt1 In1 91.31(11) . .
O31 In1 O11 155.90(14) . .
O31 In1 O51 117.47(14) . .
O11 In1 O51 85.27(14) . .
O31 In1 O21 90.04(15) . .
O11 In1 O21 82.92(15) . .
O51 In1 O21 123.39(14) . .
O31 In1 O41 86.08(15) . .
O11 In1 O41 90.70(15) . .
O51 In1 O41 79.67(14) . .
O21 In1 O41 155.13(14) . .
O31 In1 O52 80.52(14) . .
O11 In1 O52 120.89(14) . .
O51 In1 O52 58.25(14) . .
O21 In1 O52 81.96(14) . .
O41 In1 O52 121.40(15) . .
O31 In1 C51 98.86(15) . .
O11 In1 C51 105.21(15) . .
O51 In1 C51 29.18(15) . .
O21 In1 C51 104.37(15) . .
O41 In1 C51 100.50(15) . .
O52 In1 C51 29.11(16) . .
O31 In1 Pt1 77.69(10) . .
O11 In1 Pt1 78.31(10) . .
O51 In1 Pt1 151.34(10) . .
O21 In1 Pt1 77.94(10) . .
O41 In1 Pt1 77.24(10) . .
O52 In1 Pt1 150.16(10) . .
C51 In1 Pt1 175.93(10) . .
C11 O11 In1 126.0(3) . .
O11 C11 O12 125.3(5) . .
O11 C11 C12 118.0(4) . .
O12 C11 C12 116.7(4) . .
C11 O12 Pt1 119.7(3) . .
C11 C12 H12A 109.5 . .
C11 C12 H12B 109.5 . .
H12A C12 H12B 109.5 . .
C11 C12 H12C 109.5 . .
H12A C12 H12C 109.5 . .
H12B C12 H12C 109.5 . .
C21 O21 In1 125.8(3) . .
O21 C21 O22 125.6(5) . .
O21 C21 C22 119.5(5) . .
O22 C21 C22 114.9(4) . .
C21 O22 Pt1 119.2(3) . .
C21 C22 H22A 109.5 . .
C21 C22 H22B 109.5 . .
H22A C22 H22B 109.5 . .
C21 C22 H22C 109.5 . .
H22A C22 H22C 109.5 . .
H22B C22 H22C 109.5 . .
C31 O31 In1 127.2(3) . .
O31 C31 O32 125.1(5) . .
O31 C31 C32 118.5(5) . .
O32 C31 C32 116.3(5) . .
C31 O32 Pt1 119.0(3) . .
C31 C32 H32A 109.5 . .
C31 C32 H32B 109.5 . .
H32A C32 H32B 109.5 . .
C31 C32 H32C 109.5 . .
H32A C32 H32C 109.5 . .
H32B C32 H32C 109.5 . .
C41 O41 In1 127.3(3) . .
O41 C41 O42 124.9(5) . .
O41 C41 C42 119.7(5) . .
O42 C41 C42 115.4(5) . .
C41 O42 Pt1 119.0(3) . .
C41 C42 H42A 109.5 . .
C41 C42 H42B 109.5 . .
H42A C42 H42B 109.5 . .
C41 C42 H42C 109.5 . .
H42A C42 H42C 109.5 . .
H42B C42 H42C 109.5 . .
C51 O51 In1 93.8(3) . .
O52 C51 O51 118.3(5) . .
O52 C51 C52 122.3(5) . .
O51 C51 C52 119.5(5) . .
O52 C51 In1 61.3(3) . .
O51 C51 In1 57.1(3) . .
C52 C51 In1 175.0(4) . .
C51 O52 In1 89.6(3) . .
C51 C52 H52A 109.5 . .
C51 C52 H52B 109.5 . .
H52A C52 H52B 109.5 . .
C51 C52 H52C 109.5 . .
H52A C52 H52C 109.5 . .
H52B C52 H52C 109.5 . .
loop_
_geom_bond_atom_site_label_1
_geom_bond_atom_site_label_2
_geom_bond_distance
_geom_bond_site_symmetry_2
Pt1 O32 2.012(4) .
Pt1 O22 2.013(4) .
Pt1 O12 2.021(4) .
Pt1 O42 2.030(4) .
Pt1 In1 2.6763(6) .
In1 O31 2.175(3) .
In1 O11 2.178(3) .
In1 O51 2.190(4) .
In1 O21 2.204(4) .
In1 O41 2.208(4) .
In1 O52 2.284(4) .
In1 C51 2.604(5) .
O11 C11 1.265(6) .
C11 O12 1.269(6) .
C11 C12 1.502(6) .
C12 H12A 0.9800 .
C12 H12B 0.9800 .
C12 H12C 0.9800 .
O21 C21 1.244(6) .
C21 O22 1.294(6) .
C21 C22 1.508(7) .
C22 H22A 0.9800 .
C22 H22B 0.9800 .
C22 H22C 0.9800 .
O31 C31 1.251(6) .
C31 O32 1.281(7) .
C31 C32 1.501(7) .
C32 H32A 0.9800 .
C32 H32B 0.9800 .
C32 H32C 0.9800 .
O41 C41 1.254(7) .
C41 O42 1.274(7) .
C41 C42 1.489(7) .
C42 H42A 0.9800 .
C42 H42B 0.9800 .
C42 H42C 0.9800 .
O51 C51 1.272(7) .
C51 O52 1.267(7) .
C51 C52 1.490(8) .
C52 H52A 0.9800 .
C52 H52B 0.9800 .
C52 H52C 0.9800 .
loop_
_geom_torsion_atom_site_label_1
_geom_torsion_atom_site_label_2
_geom_torsion_atom_site_label_3
_geom_torsion_atom_site_label_4
_geom_torsion
_geom_torsion_site_symmetry_1
_geom_torsion_site_symmetry_2
_geom_torsion_site_symmetry_3
_geom_torsion_site_symmetry_4
In1 O11 C11 O12 -7.7(8) . . . .
In1 O11 C11 C12 171.9(3) . . . .
O11 C11 O12 Pt1 4.9(7) . . . .
C12 C11 O12 Pt1 -174.7(3) . . . .
In1 O21 C21 O22 -5.9(7) . . . .
In1 O21 C21 C22 174.4(3) . . . .
O21 C21 O22 Pt1 -2.0(7) . . . .
C22 C21 O22 Pt1 177.7(3) . . . .
In1 O31 C31 O32 0.6(8) . . . .
In1 O31 C31 C32 179.2(4) . . . .
O31 C31 O32 Pt1 -3.7(7) . . . .
C32 C31 O32 Pt1 177.7(4) . . . .
In1 O41 C41 O42 0.8(8) . . . .
In1 O41 C41 C42 179.7(4) . . . .
O41 C41 O42 Pt1 -4.7(7) . . . .
C42 C41 O42 Pt1 176.4(3) . . . .
In1 O51 C51 O52 -4.2(5) . . . .
In1 O51 C51 C52 175.8(4) . . . .
O51 C51 O52 In1 4.0(5) . . . .
C52 C51 O52 In1 -176.0(5) . . . .
