#------------------------------------------------------------------------------
#$Date: 2021-07-15 10:49:38 +0300 (Thu, 15 Jul 2021) $
#$Revision: 267548 $
#$URL: file:///home/coder/svn-repositories/cod/cif/1/56/41/1564154.cif $
#------------------------------------------------------------------------------
#
# This file is available in the Crystallography Open Database (COD),
# http://www.crystallography.net/
#
# All data on this site have been placed in the public domain by the
# contributors.
#
data_1564154
loop_
_publ_author_name
'Pandey, Souvik'
'Pradeep, Prajisha'
'Venugopal M, Anjali'
'Aswanth, A.A.'
'Andrews, Alex P.'
'Venugopal, Ajay'
_publ_section_title
;
 Incorporation of nitrate ions into halobismuthates
;
_journal_name_full               'Inorganica Chimica Acta'
_journal_page_first              119754
_journal_paper_doi               10.1016/j.ica.2020.119754
_journal_volume                  511
_journal_year                    2020
_chemical_formula_moiety         'Bi2 Cl10, 2(C6 H10 N2), 2(H2 O)'
_chemical_formula_sum            'C12 H24 Bi2 Cl10 N4 O2'
_chemical_formula_weight         1028.81
_space_group_crystal_system      triclinic
_space_group_IT_number           2
_space_group_name_Hall           '-P 1'
_space_group_name_H-M_alt        'P -1'
_atom_sites_solution_hydrogens   mixed
_audit_creation_method           SHELXL-2014
_cell_angle_alpha                107.9200(10)
_cell_angle_beta                 103.4700(10)
_cell_angle_gamma                103.6630(10)
_cell_formula_units_Z            1
_cell_length_a                   7.42560(10)
_cell_length_b                   10.4710(2)
_cell_length_c                   10.6081(2)
_cell_measurement_reflns_used    9672
_cell_measurement_temperature    296(2)
_cell_measurement_theta_max      28.51
_cell_measurement_theta_min      2.39
_cell_volume                     719.73(2)
_computing_cell_refinement       'Bruker SAINT'
_computing_data_collection       'Bruker APEX2'
_computing_data_reduction        'Bruker SAINT'
_computing_molecular_graphics    'Bruker SHELXTL'
_computing_publication_material  'Bruker SHELXTL'
_computing_structure_refinement  'SHELXL-2014 (Sheldrick, 2014)'
_computing_structure_solution    'SHELXL-2014 (Sheldrick, 2014)'
_diffrn_ambient_temperature      296(2)
_diffrn_detector_area_resol_mean 0
_diffrn_measured_fraction_theta_full 0.997
_diffrn_measured_fraction_theta_max 0.994
_diffrn_measurement_device_type  'Bruker APEX-II CCD'
_diffrn_measurement_method       '\f and \w scans'
_diffrn_radiation_type           MoK\a
_diffrn_radiation_wavelength     0.71073
_diffrn_reflns_av_R_equivalents  0.0245
_diffrn_reflns_av_unetI/netI     0.0189
_diffrn_reflns_Laue_measured_fraction_full 0.997
_diffrn_reflns_Laue_measured_fraction_max 0.994
_diffrn_reflns_limit_h_max       9
_diffrn_reflns_limit_h_min       -9
_diffrn_reflns_limit_k_max       12
_diffrn_reflns_limit_k_min       -12
_diffrn_reflns_limit_l_max       13
_diffrn_reflns_limit_l_min       -13
_diffrn_reflns_number            11514
_diffrn_reflns_point_group_measured_fraction_full 0.997
_diffrn_reflns_point_group_measured_fraction_max 0.994
_diffrn_reflns_theta_full        25.242
_diffrn_reflns_theta_max         25.992
_diffrn_reflns_theta_min         3.055
_diffrn_source                   'sealed tube'
_exptl_absorpt_coefficient_mu    13.154
_exptl_absorpt_correction_T_max  0.1496
_exptl_absorpt_correction_T_min  0.0979
_exptl_absorpt_correction_type   multi-scan
_exptl_absorpt_process_details   SADABS
_exptl_crystal_colour            colourless
_exptl_crystal_density_diffrn    2.374
_exptl_crystal_density_meas      2.373
_exptl_crystal_density_method    NONE
_exptl_crystal_description       block
_exptl_crystal_F_000             476
_exptl_crystal_size_max          0.170
_exptl_crystal_size_mid          0.150
_exptl_crystal_size_min          0.120
_refine_diff_density_max         0.696
_refine_diff_density_min         -0.835
_refine_diff_density_rms         0.074
_refine_ls_extinction_coef       0.0185(4)
_refine_ls_extinction_expression Fc^*^=kFc[1+0.001xFc^2^\l^3^/sin(2\q)]^-1/4^
_refine_ls_extinction_method     SHELXL
_refine_ls_goodness_of_fit_ref   1.053
_refine_ls_hydrogen_treatment    mixed
_refine_ls_matrix_type           full
_refine_ls_number_parameters     147
_refine_ls_number_reflns         2810
_refine_ls_number_restraints     2
_refine_ls_restrained_S_all      1.054
_refine_ls_R_factor_all          0.0147
_refine_ls_R_factor_gt           0.0136
_refine_ls_shift/su_max          0.006
_refine_ls_shift/su_mean         0.000
_refine_ls_structure_factor_coef Fsqd
_refine_ls_weighting_details
'w=1/[\s^2^(Fo^2^)+(0.0148P)^2^+0.3880P] where P=(Fo^2^+2Fc^2^)/3'
_refine_ls_weighting_scheme      calc
_refine_ls_wR_factor_gt          0.0331
_refine_ls_wR_factor_ref         0.0335
_reflns_Friedel_coverage         0.000
_reflns_Friedel_fraction_full    .
_reflns_Friedel_fraction_max     .
_reflns_number_gt                2712
_reflns_number_total             2810
_reflns_threshold_expression     'I > 2\s(I)'
_cod_data_source_file            ICA-2020-511-119754.cif
_cod_data_source_block           1
_cod_database_code               1564154
_shelx_space_group_comment
;
The symmetry employed for this shelxl refinement is uniquely defined
by the following loop, which should always be used as a source of
symmetry information in preference to the above space-group names.
They are only intended as comments.
;
_shelx_estimated_absorpt_t_min   0.213
_shelx_estimated_absorpt_t_max   0.301
_shelxl_version_number           2014-3
_shelx_res_file
;
TITL SIR92 run in space group P -1
CELL  0.71073   7.4256  10.4710  10.6081  107.920  103.470  103.663
ZERR     1.00   0.0001   0.0002   0.0002    0.001    0.001    0.001
LATT   1
SFAC  C    H    N    CL   BI   O
UNIT  12 24 4 10 2 2
MERG   2
OMIT    -3.00  52.00
OMIT     0  -1   1
DFIX 0.92 0.015 O1' H1' O1' H1''
EQIV $1 -x, -y+1, -z+3
HTAB C1 Cl1_$1
EQIV $2 -x+1, -y+1, -z+3
HTAB N1 Cl4_$2
HTAB N1 Cl5_$1
EQIV $3 x, y, z-1
HTAB N1 Cl2_$3
HTAB N1 Cl4_$3
HTAB N2 Cl3
EQIV $4 -x+1, -y, -z+3
HTAB N2 O1'_$4
EQIV $5 x+1, y, z
HTAB N2 Cl1_$5
HTAB N2 O1'
HTAB O1' Cl3_$5
HTAB O1' Cl4_$4
HTAB C1 Cl1_$1
HTAB N1 Cl4_$2
HTAB N1 Cl5_$1
HTAB N1 Cl2_$3
HTAB N1 Cl4_$3
HTAB N2 Cl3
HTAB N2 O1'_$4
HTAB N2 Cl1_$5
HTAB N2 O1'
HTAB O1' Cl3_$5
HTAB O1' Cl4_$4
FMAP   2
PLAN    5
SIZE     0.120   0.150   0.170
ACTA
BOND   $H
CONF
L.S.  15
TEMP    23.00
WGHT    0.014800    0.388000
EXTI    0.018499
FVAR       0.16728
C1    1    0.313324    0.245187    1.202045    11.00000    0.03715    0.03026 =
         0.03160    0.00933    0.00938    0.00935
AFIX  43
H1    2    0.334476    0.326806    1.278624    11.00000   -1.20000
AFIX   0
C2    1    0.249781    0.238887    1.067320    11.00000    0.03270    0.03129 =
         0.03584    0.01515    0.00987    0.00787
C3    1    0.215799    0.118553    0.952304    11.00000    0.04189    0.04285 =
         0.02902    0.01345    0.01128    0.00984
AFIX  43
H3    2    0.172170    0.116641    0.861929    11.00000   -1.20000
AFIX   0
C4    1    0.247382    0.001693    0.973325    11.00000    0.05288    0.03754 =
         0.03398    0.00626    0.01610    0.01346
AFIX  43
H4    2    0.224742   -0.080128    0.896501    11.00000   -1.20000
AFIX   0
C5    1    0.312694    0.004297    1.107896    11.00000    0.04453    0.03279 =
         0.04470    0.01623    0.01659    0.01389
AFIX  43
H5    2    0.334392   -0.074908    1.122061    11.00000   -1.20000
AFIX   0
C6    1    0.344805    0.126128    1.220036    11.00000    0.03308    0.03589 =
         0.03034    0.01457    0.01106    0.00906
N1    3    0.214919    0.364955    1.046817    11.00000    0.05373    0.03686 =
         0.03708    0.01560    0.00358    0.01225
AFIX 137
H1A   2    0.318633    0.441945    1.102044    11.00000   -1.50000
H1B   2    0.109007    0.375324    1.068455    11.00000   -1.50000
H1C   2    0.196047    0.353783    0.957561    11.00000   -1.50000
AFIX   0
N2    3    0.410483    0.130756    1.363133    11.00000    0.05114    0.04045 =
         0.03705    0.01925    0.01135    0.01488
AFIX 137
H2A   2    0.308745    0.118394    1.394196    11.00000   -1.50000
H2B   2    0.501247    0.214793    1.418857    11.00000   -1.50000
H2C   2    0.461386    0.061897    1.363340    11.00000   -1.50000
AFIX   0
CL1   4   -0.259933    0.444443    1.518343    11.00000    0.03646    0.04334 =
         0.05264    0.02420    0.01115    0.01279
CL2   4   -0.124391    0.242980    1.731941    11.00000    0.04516    0.05890 =
         0.04789    0.03058    0.01222    0.00235
CL3   4    0.013704    0.166073    1.415689    11.00000    0.05687    0.04817 =
         0.04307    0.00337    0.02096    0.00940
CL4   4    0.403226    0.362272    1.774519    11.00000    0.03683    0.04134 =
         0.06668    0.01614    0.00252    0.01497
CL5   4    0.172378    0.617685    1.884250    11.00000    0.06235    0.04456 =
         0.05499   -0.00288    0.01263    0.01811
BI1   5    0.081093    0.399951    1.641573    11.00000    0.03364    0.03018 =
         0.02811    0.01379    0.00874    0.01098
O1'   6    0.617785   -0.049648    1.393051    11.00000    0.05257    0.04435 =
         0.06209    0.01558    0.01608    0.01731
H1''  2    0.745324   -0.001547    1.411217    11.00000    0.07729
H1'   2    0.598283   -0.130093    1.321290    11.00000    0.08996
HKLF    4

REM  SIR92 run in space group P -1
REM R1 =  0.0136 for    2712 Fo > 4sig(Fo)  and  0.0147 for all    2810 data
REM    147 parameters refined using      2 restraints

END

WGHT      0.0148      0.3880

REM Highest difference peak  0.696,  deepest hole -0.835,  1-sigma level  0.074
Q1    1   0.4193  0.3634  1.6964  11.00000  0.05    0.70
Q2    1   0.0783  0.4142  1.5675  11.00000  0.05    0.61
Q3    1   0.0465  0.3787  1.7176  11.00000  0.05    0.47
Q4    1   0.1563  0.6474  1.8160  11.00000  0.05    0.45
Q5    1   0.1957  0.4738  1.6996  11.00000  0.05    0.38
;
_shelx_res_checksum              54533
_shelx_hkl_file
;
  -2   0   0   12.38    0.48
  -2   0   0   11.75    0.59
  -2   0   0   12.93    0.40
  -2   0   0   12.53    0.41
   2   0   0   11.89    0.48
   2   0   0   13.52    0.47
  -3   0   0    6.01    0.24
  -3   0   0    5.84    0.34
  -3   0   0    6.26    0.43
  -3   0   0    6.30    0.26
   3   0   0    6.06    0.36
   3   0   0    5.92    0.31
  -4   0   0   57.00    1.69
  -4   0   0   54.85    1.68
  -4   0   0   54.63    2.21
  -4   0   0   54.12    1.86
   4   0   0   55.85    1.88
   4   0   0   54.48    1.91
  -5   0   0   53.97    2.22
  -5   0   0   53.22    1.66
  -5   0   0   53.63    1.85
  -5   0   0   54.50    1.65
   5   0   0   51.70    1.87
   5   0   0   52.28    1.85
  -6   0   0  123.37    3.99
  -6   0   0  121.57    4.72
  -6   0   0  121.93    3.66
   6   0   0  118.10    4.09
   6   0   0  119.86    4.08
  -7   0   0   24.82    0.89
   7   0   0   24.19    1.04
   7   0   0   25.14    1.04
  -8   0   0    3.96    0.35
   8   0   0    2.74    0.44
   8   0   0    3.18    0.45
   8  -1   0   -0.05    0.33
   8  -1   0    0.24    0.36
  -8   1   0    0.28    0.23
   7  -1   0    8.98    0.61
   7  -1   0   11.08    0.59
  -7   1   0   10.55    0.48
  -7   1   0   11.90    0.90
   6  -1   0  185.05    6.19
   6  -1   0  180.51    6.22
  -6   1   0  189.86    5.56
  -6   1   0  186.73    5.57
  -6   1   0  186.65    7.11
  -6   1   0  191.52    6.07
   5  -1   0  234.50    7.59
   5  -1   0  215.80    7.57
  -5   1   0  224.79    7.36
  -5   1   0  236.15    8.60
  -5   1   0  231.83    6.80
  -5   1   0  232.94    6.78
   4  -1   0  191.74    6.46
  -4   1   0  197.27    5.81
  -4   1   0  195.49    6.30
  -4   1   0  197.60    5.82
  -4   1   0  200.18    7.34
  -3   1   0  279.24   10.21
  -3   1   0  267.81    8.03
  -3   1   0  268.82    8.61
   2  -1   0   31.91    1.27
   1  -1   0   59.90    2.24
  -1  -1   0  526.54   15.91
  -1  -1   0  532.30   17.68
  -1  -1   0  517.00   15.89
  -1  -1   0  544.39   17.69
   1   1   0  544.08   15.90
   1   1   0  571.99   17.73
   1   1   0  522.39   17.68
   1   1   0  517.56   15.88
  -2  -1   0   27.36    0.87
  -2  -1   0   27.65    0.98
  -2  -1   0   27.07    0.97
  -2  -1   0   27.45    0.86
   2   1   0   27.08    0.98
   2   1   0   27.77    0.86
   2   1   0   28.92    0.94
   2   1   0   27.11    0.98
   2   1   0   26.98    0.86
  -3  -1   0   59.46    2.30
  -3  -1   0   59.55    1.79
  -3  -1   0   61.80    1.80
   3   1   0   59.52    2.01
   3   1   0   54.19    1.93
   3   1   0   57.96    1.78
   3   1   0   58.55    2.01
  -4  -1   0    9.11    0.37
  -4  -1   0    8.24    0.38
  -4  -1   0    8.43    0.62
   4   1   0    8.46    0.49
   4   1   0    7.61    0.51
  -5  -1   0    2.86    0.25
  -5  -1   0    2.40    0.46
  -5  -1   0    2.96    0.24
   5   1   0    2.86    0.37
   5   1   0    3.19    0.36
  -6  -1   0   37.71    1.69
  -6  -1   0   35.91    1.21
   6   1   0   35.27    1.39
   6   1   0   35.87    1.40
  -7  -1   0   37.98    1.29
   7   1   0   37.87    1.47
   7   1   0   35.74    1.45
  -8  -1   0   20.08    0.82
   8   1   0   19.58    1.01
   8  -2   0   11.10    0.63
   8  -2   0   11.39    0.66
  -8   2   0   12.46    0.54
   7  -2   0    1.75    0.28
   7  -2   0    1.93    0.35
  -7   2   0    2.05    0.23
  -7   2   0    2.66    0.58
  -7   2   0    2.59    0.40
   6  -2   0   28.38    1.01
   6  -2   0   26.83    1.06
  -6   2   0   29.53    0.91
  -6   2   0   28.21    1.19
  -6   2   0   28.56    1.43
  -6   2   0   27.44    0.93
  -5   2   0  105.04    3.16
  -5   2   0  107.63    3.52
  -5   2   0  102.99    4.08
  -5   2   0  108.05    3.14
  -5   2   0  104.54    3.16
  -4   2   0  170.59    6.40
   3  -2   0  345.02   13.06
  -3   2   0  347.69   12.95
   2  -2   0  257.34    9.91
   2  -2   0  258.19    8.61
  -2   2   0  263.81    7.78
  -2   2   0  260.47    7.78
  -2   2   0  270.97    9.93
   1  -2   0   13.11    0.52
   1  -2   0   13.05    0.58
   1  -2   0   12.81    0.45
   1  -2   0   13.01    0.55
   1  -2   0   12.88    0.44
   1  -2   0   12.93    0.52
  -1   2   0   13.79    0.45
  -1   2   0   13.67    0.54
  -1   2   0   12.74    0.52
  -1   2   0   12.56    0.44
  -1   2   0   12.94    0.51
   0  -2   0   33.96    1.06
   0  -2   0   32.72    1.19
   0   2   0   34.99    1.06
   0   2   0   33.21    1.19
  -1  -2   0   19.74    0.65
  -1  -2   0   19.32    0.75
  -1  -2   0   19.18    0.76
  -1  -2   0   19.75    0.65
   1   2   0   19.81    0.64
   1   2   0   19.72    0.65
   1   2   0   20.71    0.77
   1   2   0   19.92    0.74
  -2  -2   0  141.12    4.16
  -2  -2   0  138.48    4.16
  -2  -2   0  138.79    4.63
   2   2   0  138.40    4.63
   2   2   0  140.55    4.15
   2   2   0  136.19    4.44
   2   2   0  141.87    4.64
   2   2   0  137.24    4.16
  -3  -2   0  367.11   10.74
  -3  -2   0  352.45   13.21
  -3  -2   0  361.60   10.62
   3   2   0  375.94   11.91
   3   2   0  343.13   11.90
   3   2   0  359.63   10.57
   3   2   0  346.14   10.63
   3   2   0  341.27   11.28
  -4  -2   0  129.24    3.91
  -4  -2   0  128.06    4.92
  -4  -2   0  130.57    3.90
   4   2   0  123.44    4.15
   4   2   0  126.36    4.35
   4   2   0  134.45    3.87
   4   2   0  131.51    4.36
  -5  -2   0   11.43    0.51
  -5  -2   0   10.57    0.49
  -5  -2   0    8.74    0.75
   5   2   0    9.81    0.68
   5   2   0    9.47    0.67
  -6  -2   0    9.11    0.51
  -6  -2   0    8.99    0.80
   6   2   0    9.33    0.67
   6   2   0    9.54    0.67
  -7  -2   0   33.09    1.23
   7   2   0   34.24    1.44
   7   2   0   35.80    1.43
   8  -3   0   50.90    1.91
   8  -3   0   53.88    1.87
  -8   3   0   54.34    1.68
   7  -3   0   48.90    1.68
   7  -3   0   46.72    1.73
  -7   3   0   48.55    1.54
  -7   3   0   51.50    2.19
  -6   3   0    7.00    0.33
  -6   3   0    6.93    0.58
  -6   3   0    6.89    0.34
  -6   3   0    7.01    0.67
  -5   3   0    7.95    0.30
  -5   3   0    7.00    0.30
  -5   3   0    7.67    0.65
   4  -3   0   32.82    1.42
  -4   3   0   34.11    1.45
  -4   3   0   34.55    1.05
  -4   3   0   34.46    1.03
   3  -3   0  473.27   15.71
   3  -3   0  460.55   17.76
   3  -3   0  487.02   15.76
  -3   3   0  478.12   14.16
  -3   3   0  486.99   14.15
  -3   3   0  471.64   17.70
   2  -3   0  199.28    6.60
   2  -3   0  188.80    7.30
   2  -3   0  189.92    5.89
   2  -3   0  196.33    6.68
   2  -3   0  204.95    5.92
  -2   3   0  197.09    6.84
  -2   3   0  207.74    5.96
  -2   3   0  199.22    5.94
   1  -3   0  107.41    3.73
   1  -3   0  107.37    3.25
   1  -3   0  108.02    3.62
   1  -3   0  108.37    3.63
   1  -3   0  109.22    3.24
  -1   3   0  112.76    3.25
  -1   3   0  108.51    3.25
  -1   3   0  106.98    3.62
  -1   3   0  107.56    3.74
  -1   3   0  110.55    3.63
   0  -3   0   64.94    2.26
   0  -3   0   67.61    2.03
   0  -3   0   62.85    2.25
   0  -3   0   65.53    2.02
   0   3   0   66.47    2.02
   0   3   0   68.92    2.03
   0   3   0   67.57    2.26
  -1  -3   0   69.51    2.41
  -1  -3   0   69.21    2.41
  -1  -3   0   70.73    2.16
  -1  -3   0   71.95    2.16
   1   3   0   69.60    2.16
   1   3   0   73.03    2.16
   1   3   0   71.34    2.41
   1   3   0   69.67    2.42
  -2  -3   0  173.81    5.86
  -2  -3   0  176.97    5.27
  -2  -3   0  177.53    5.27
   2   3   0  178.47    5.88
   2   3   0  174.96    5.87
   2   3   0  175.85    5.27
  -3  -3   0  472.69   14.27
  -3  -3   0  477.05   17.61
  -3  -3   0  477.04   14.27
   3   3   0  465.00   15.22
   3   3   0  477.04   14.34
   3   3   0  497.20   15.96
   3   3   0  482.25   16.03
  -4  -3   0  201.25    5.98
  -4  -3   0  203.95    7.48
   4   3   0  184.65    6.35
   4   3   0  196.96    6.65
   4   3   0  202.64    5.95
   4   3   0  202.99    6.67
  -5  -3   0   28.20    1.36
  -5  -3   0   28.23    1.01
   5   3   0   27.39    1.21
   5   3   0   28.79    1.20
   5   3   0   27.54    0.96
  -6  -3   0   14.99    0.68
   6   3   0   13.28    0.86
   6   3   0   14.58    0.87
  -7  -3   0    1.03    0.33
   7   3   0    0.65    0.46
   7   3   0    0.54    0.47
   9  -4   0   17.79    0.84
   9  -4   0   16.09    0.85
   8  -4   0   53.24    2.00
   8  -4   0   57.94    1.99
  -8   4   0   57.41    1.78
  -8   4   0   57.23    2.32
   7  -4   0   41.36    1.47
   7  -4   0   42.57    1.46
  -7   4   0   40.45    1.32
  -7   4   0   43.49    1.92
  -7   4   0   38.09    1.71
   6  -4   0   51.82    1.80
   6  -4   0   49.78    1.77
  -6   4   0   52.56    1.61
  -6   4   0   53.59    1.63
  -6   4   0   54.32    2.24
   5  -4   0    3.67    0.31
   5  -4   0    3.27    0.27
  -5   4   0    3.61    0.27
  -5   4   0    3.03    0.38
  -5   4   0    4.06    0.51
  -5   4   0    3.76    0.22
   4  -4   0    6.18    0.33
   4  -4   0    6.62    0.47
   4  -4   0    5.37    0.48
  -4   4   0    5.68    0.43
  -4   4   0    5.94    0.33
  -4   4   0    5.82    0.58
  -4   4   0    6.49    0.27
   3  -4   0  128.47    4.88
   3  -4   0  128.92    4.33
   3  -4   0  125.40    4.36
  -3   4   0  128.61    4.55
  -3   4   0  135.64    3.89
  -3   4   0  135.74    3.91
   2  -4   0  456.12   14.95
   2  -4   0  449.51   13.40
   2  -4   0  454.64   14.95
   2  -4   0  426.90   16.68
   2  -4   0  455.12   13.35
  -2   4   0  452.75   15.57
  -2   4   0  478.30   13.46
  -2   4   0  407.17   13.37
   1  -4   0  161.60    5.42
   1  -4   0  158.99    4.86
   1  -4   0  162.63    4.86
   1  -4   0  165.97    5.61
   1  -4   0  162.44    5.42
  -1   4   0  164.47    4.92
  -1   4   0  160.24    5.41
  -1   4   0  159.89    5.42
  -1   4   0  168.22    4.87
   0  -4   0  389.19   11.81
   0  -4   0  378.07   13.07
   0  -4   0  378.61   11.64
   0  -4   0  386.90   12.85
   0   4   0  400.14   11.73
   0   4   0  398.20   12.89
   0   4   0  390.14   11.84
  -1  -4   0  116.83    3.97
  -1  -4   0  119.39    3.97
  -1  -4   0  116.45    3.56
   1   4   0  116.56    3.56
   1   4   0  119.95    3.97
   1   4   0  115.66    3.97
  -2  -4   0    0.18    0.26
  -2  -4   0    0.05    0.17
   2   4   0    1.11    0.30
   2   4   0    0.25    0.18
   2   4   0    0.29    0.30
  -3  -4   0   69.60    2.25
  -3  -4   0   72.51    2.81
   3   4   0   70.55    2.39
   3   4   0   72.73    2.54
   3   4   0   71.80    2.55
   3   4   0   72.06    2.24
  -4  -4   0  117.46    4.44
  -4  -4   0  113.28    3.54
   4   4   0  114.85    3.97
   4   4   0  107.50    3.74
   4   4   0  116.94    3.96
   4   4   0  117.97    3.52
  -5  -4   0   16.16    0.74
  -5  -4   0   19.73    1.06
   5   4   0   15.15    0.90
   5   4   0   16.73    0.71
   5   4   0   16.95    0.92
  -6  -4   0   34.07    1.29
   6   4   0   36.18    1.53
   6   4   0   35.34    1.53
  -7  -4   0   16.94    0.82
   7   4   0   15.50    1.01
   9  -5   0    2.20    0.44
   9  -5   0    2.77    0.42
   8  -5   0   21.36    0.94
   8  -5   0   22.17    0.95
  -8   5   0   22.33    0.81
  -8   5   0   22.40    1.21
   7  -5   0   17.14    0.79
   7  -5   0   16.17    0.72
  -7   5   0   18.14    0.65
  -7   5   0   18.25    1.13
  -7   5   0   16.75    0.95
   6  -5   0   99.16    3.41
   6  -5   0   97.20    3.36
  -6   5   0  104.08    3.97
  -6   5   0   98.89    3.02
  -6   5   0  102.48    3.06
   5  -5   0  133.08    5.18
   5  -5   0  138.48    4.60
   5  -5   0  131.12    4.53
  -5   5   0  139.22    4.11
  -5   5   0  133.17    4.07
  -5   5   0  138.16    4.85
  -5   5   0  141.11    5.23
   4  -5   0   26.50    1.00
   4  -5   0   25.09    1.09
   4  -5   0   26.86    1.17
  -4   5   0   26.95    1.12
  -4   5   0   27.43    0.91
  -4   5   0   26.82    0.88
   3  -5   0    5.02    0.29
   3  -5   0    4.77    0.26
   3  -5   0    4.50    0.39
   3  -5   0    4.54    0.39
   3  -5   0    4.71    0.39
  -3   5   0    5.01    0.30
  -3   5   0    4.07    0.36
  -3   5   0    4.91    0.29
   2  -5   0   57.77    2.32
   2  -5   0   60.84    1.90
   2  -5   0   60.46    2.13
   2  -5   0   60.31    2.12
  -2   5   0   60.79    1.89
  -2   5   0   66.75    1.91
  -2   5   0   59.65    2.19
   1  -5   0  162.70    5.65
   1  -5   0  165.51    5.66
   1  -5   0  176.25    5.80
   1  -5   0  171.07    5.08
  -1   5   0  173.30    5.08
  -1   5   0  164.34    5.65
  -1   5   0  167.16    5.08
  -1   5   0  173.53    5.66
   0  -5   0  474.44   15.90
   0  -5   0  458.39   14.22
   0  -5   0  483.33   15.72
   0   5   0  478.31   15.71
   0   5   0  482.08   14.22
  -1  -5   0  362.77   10.98
  -1  -5   0  369.75   12.23
  -1  -5   0  358.06   12.21
   1   5   0  379.14   12.24
   1   5   0  372.84   11.06
   1   5   0  374.32   12.22
  -2  -5   0   40.18    1.38
  -2  -5   0   38.66    1.56
   2   5   0   42.23    1.59
   2   5   0   41.79    1.59
   2   5   0   43.31    1.39
  -3  -5   0    2.68    0.44
  -3  -5   0    2.42    0.29
   3   5   0    2.62    0.45
   3   5   0    2.38    0.44
   3   5   0    3.41    0.33
  -4  -5   0   16.41    0.97
  -4  -5   0   16.51    0.75
   4   5   0   17.42    0.93
   4   5   0   15.56    0.76
   4   5   0   17.51    0.94
   4   5   0   16.62    0.73
  -5  -5   0   21.39    0.91
  -5  -5   0   23.12    1.25
   5   5   0   22.96    1.13
   5   5   0   21.77    1.14
  -6  -5   0   34.52    1.33
   6   5   0   35.92    1.58
   8  -6   0    0.37    0.31
   8  -6   0    0.21    0.41
  -8   6   0    0.33    0.24
  -8   6   0   -0.13    0.42
   7  -6   0    2.04    0.31
   7  -6   0    1.76    0.44
  -7   6   0    1.71    0.47
  -7   6   0    2.24    0.25
   6  -6   0   82.03    2.86
   6  -6   0   81.03    2.78
  -6   6   0   83.39    2.50
  -6   6   0   79.45    3.06
   5  -6   0  292.34    9.85
   5  -6   0  294.05   11.02
   5  -6   0  293.81    9.80
  -5   6   0  312.92    8.84
  -5   6   0  295.60   10.27
  -5   6   0  291.24    8.80
   4  -6   0  199.64    6.76
   4  -6   0  197.57    7.56
   4  -6   0  200.45    6.79
  -4   6   0  202.30    7.08
  -4   6   0  214.23    6.09
  -4   6   0  204.62    6.07
   3  -6   0  118.63    3.62
   3  -6   0  115.87    4.02
   3  -6   0  116.57    4.46
   3  -6   0  122.03    4.05
  -3   6   0  117.53    3.60
  -3   6   0  127.53    3.63
  -3   6   0  114.48    4.19
   2  -6   0    1.17    0.20
   2  -6   0    0.71    0.19
   2  -6   0    0.44    0.28
   2  -6   0    0.69    0.25
   2  -6   0    0.92    0.33
  -2   6   0    0.59    0.19
  -2   6   0    0.88    0.26
   1  -6   0   30.74    1.23
   1  -6   0   30.17    1.06
   1  -6   0   31.57    1.22
   1  -6   0   31.95    1.16
  -1   6   0   30.60    1.22
  -1   6   0   30.39    1.05
   0  -6   0  156.77    5.20
   0  -6   0  150.19    5.20
   0  -6   0  158.20    5.29
   0  -6   0  150.23    4.66
   0   6   0  154.23    5.20
   0   6   0  152.83    4.66
  -1  -6   0  201.35    6.97
  -1  -6   0  207.95    6.27
  -1  -6   0  206.17    6.97
   1   6   0  207.90    6.98
   1   6   0  207.75    6.26
   1   6   0  214.90    6.99
  -2  -6   0   28.54    1.07
   2   6   0   31.10    1.32
   2   6   0   30.12    1.28
   2   6   0   29.41    1.09
  -3  -6   0   12.75    0.81
  -3  -6   0   11.41    0.61
   3   6   0   12.77    0.65
   3   6   0   13.38    0.82
   3   6   0   13.37    0.87
  -4  -6   0    0.07    0.28
  -4  -6   0    0.57    0.43
   4   6   0    0.09    0.49
   4   6   0    0.50    0.33
   4   6   0    0.32    0.30
  -5  -6   0    6.52    0.54
   5   6   0    6.02    0.69
  -6  -6   0   16.88    0.88
   8  -7   0   16.93    0.92
   8  -7   0   16.78    0.83
  -8   7   0   16.05    1.07
  -8   7   0   18.95    0.74
   7  -7   0    4.50    0.41
   7  -7   0    4.21    0.52
  -7   7   0    3.75    0.55
  -7   7   0    4.94    0.38
   6  -7   0    9.55    0.60
   6  -7   0   11.04    0.74
  -6   7   0   10.05    0.48
  -6   7   0    9.64    0.73
   5  -7   0  167.25    5.59
   5  -7   0  163.55    6.22
   5  -7   0  157.45    5.53
  -5   7   0  162.22    4.97
  -5   7   0  175.57    5.00
  -5   7   0  163.51    5.85
   4  -7   0   86.29    3.00
   4  -7   0   82.75    2.65
   4  -7   0   84.15    3.32
   4  -7   0   87.77    3.05
  -4   7   0   86.65    3.17
  -4   7   0   93.12    2.71
  -4   7   0   86.16    2.68
   3  -7   0   52.93    1.71
   3  -7   0   51.83    1.92
   3  -7   0   52.63    2.07
   3  -7   0   55.41    1.96
  -3   7   0   51.33    1.99
  -3   7   0   51.68    1.69
   2  -7   0   41.11    1.41
   2  -7   0   40.47    1.59
   2  -7   0   45.14    1.57
   2  -7   0   42.71    1.64
  -2   7   0   41.35    1.41
   1  -7   0    3.31    0.47
   1  -7   0    3.23    0.32
   1  -7   0    3.58    0.29
   1  -7   0    2.51    0.41
  -1   7   0    3.12    0.30
  -1   7   0    3.13    0.41
   0  -7   0   14.45    0.78
   0  -7   0   13.81    0.81
   0  -7   0   14.85    0.66
   0  -7   0   15.39    0.66
   0   7   0   14.27    0.64
   0   7   0   14.47    0.89
   0   7   0   13.61    0.81
  -1  -7   0   94.55    3.26
  -1  -7   0   90.58    2.90
   1   7   0   91.22    3.25
   1   7   0   90.99    2.90
  -2  -7   0   44.03    1.55
   2   7   0   45.08    1.77
   2   7   0   43.38    1.52
  -3  -7   0   63.38    2.18
  -3  -7   0   66.79    2.66
   3   7   0   66.25    2.17
   3   7   0   64.74    2.47
  -4  -7   0   54.87    1.97
  -4  -7   0   57.42    2.44
   4   7   0   59.89    1.98
  -5  -7   0    3.58    0.51
   8  -8   0   35.34    1.48
   8  -8   0   40.05    1.56
  -8   8   0   39.76    1.33
  -8   8   0   36.98    1.81
   7  -8   0   18.51    0.98
   7  -8   0   18.53    0.90
  -7   8   0   18.95    1.14
  -7   8   0   18.88    0.76
   6  -8   0    2.35    0.50
   6  -8   0    3.36    0.43
  -6   8   0    3.28    0.32
  -6   8   0    3.21    0.50
   5  -8   0   18.29    0.93
   5  -8   0   19.34    0.95
   5  -8   0   17.97    0.89
  -5   8   0   18.06    0.96
  -5   8   0   17.72    0.73
   4  -8   0   36.24    1.47
   4  -8   0   38.27    1.56
   4  -8   0   38.11    1.29
   4  -8   0   37.49    1.55
  -4   8   0   36.34    1.27
  -4   8   0   37.19    1.56
   3  -8   0   80.53    2.52
   3  -8   0   79.18    2.83
   3  -8   0   82.86    2.87
   3  -8   0   77.93    3.04
  -3   8   0   77.45    2.51
   2  -8   0  105.58    3.31
   2  -8   0  106.85    3.71
   2  -8   0  110.96    3.74
  -2   8   0  102.72    3.30
   1  -8   0   60.66    1.98
   1  -8   0   64.67    2.17
   1  -8   0   60.69    2.24
   1  -8   0   62.07    2.27
  -1   8   0   53.86    2.21
  -1   8   0   57.99    1.96
   0  -8   0   54.16    1.85
   0  -8   0   54.33    2.08
   0  -8   0   55.70    2.11
   0  -8   0   58.61    2.01
   0   8   0   53.96    1.86
  -1  -8   0    4.82    0.44
   1   8   0    4.90    0.43
  -2  -8   0   49.89    1.78
   2   8   0   51.69    1.78
  -3  -8   0   69.77    2.75
  -3  -8   0   61.04    2.25
   3   8   0   70.67    2.28
  -4  -8   0   69.29    2.38
   8  -9   0   34.50    1.46
   8  -9   0   36.98    1.52
  -8   9   0   35.47    1.29
   7  -9   0   27.94    1.23
   7  -9   0   29.46    1.30
  -7   9   0   28.28    1.07
  -7   9   0   26.97    1.42
   6  -9   0   22.50    1.09
   6  -9   0   25.45    1.16
  -6   9   0   23.01    1.20
  -6   9   0   22.65    0.92
   5  -9   0    2.39    0.50
   5  -9   0    2.87    0.45
   5  -9   0    2.96    0.42
  -5   9   0    2.43    0.33
  -5   9   0    3.29    0.52
   4  -9   0    1.05    0.31
   4  -9   0    0.92    0.30
   4  -9   0    0.47    0.43
   4  -9   0    0.48    0.39
  -4   9   0    0.42    0.25
  -4   9   0    0.47    0.39
   3  -9   0   26.98    1.25
   3  -9   0   27.99    1.17
   3  -9   0   29.39    1.30
   3  -9   0   27.29    1.07
  -3   9   0   27.13    1.05
   2  -9   0  231.52    7.67
   2  -9   0  223.18    6.87
   2  -9   0  229.45    7.67
  -2   9   0  222.86    6.87
   1  -9   0   93.67    3.03
   1  -9   0   89.12    3.39
   1  -9   0  102.70    3.36
  -1   9   0   94.20    3.02
   0  -9   0   49.58    1.69
   0   9   0   47.40    1.70
  -1  -9   0   34.58    1.32
   1   9   0   33.38    1.31
  -2  -9   0    0.19    0.34
   2   9   0    0.07    0.35
  -3  -9   0    9.86    0.70
   3   9   0   10.29    0.77
   7 -10   0   23.47    1.20
   7 -10   0   26.45    1.25
  -7  10   0   26.04    1.37
  -7  10   0   24.16    1.00
   6 -10   0   27.18    1.25
   6 -10   0   25.32    1.27
  -6  10   0   28.24    1.06
  -6  10   0   28.18    1.42
   5 -10   0   63.43    2.36
   5 -10   0   61.88    2.38
  -5  10   0   63.02    2.08
  -5  10   0   61.62    2.51
   4 -10   0   17.47    1.00
   4 -10   0   17.35    1.05
  -4  10   0   16.67    0.80
   3 -10   0    2.80    0.39
   3 -10   0    3.27    0.59
  -3  10   0    2.12    0.37
   2 -10   0   22.99    0.97
  -2  10   0   21.44    0.93
   1 -10   0   59.40    2.05
  -1  10   0   61.42    2.07
   0 -10   0   26.53    1.11
   0  10   0   27.52    1.15
  -1 -10   0   33.57    1.36
   1  10   0   34.10    1.34
  -2 -10   0    8.69    0.69
   2  10   0    9.06    0.70
   6 -11   0   14.86    1.06
  -6  11   0   14.24    0.75
  -6  11   0   14.26    1.06
   5 -11   0   60.22    2.35
  -5  11   0   58.06    2.02
   4 -11   0   59.90    2.34
  -4  11   0   57.05    2.01
   3 -11   0   14.60    0.82
  -3  11   0   16.32    0.83
   2 -11   0   -0.19    0.36
  -2  11   0   -0.58    0.33
   1 -11   0    7.79    0.62
  -1  11   0    8.17    0.64
   0 -11   0   14.70    0.82
   0  11   0   13.07    0.84
  -1 -11   0   32.93    1.39
   1  11   0   32.97    1.36
  -5  12   0   36.93    1.43
  -4  12   0   32.59    1.32
  -3  12   0   13.61    0.82
   2 -12   0    8.93    0.69
  -2  12   0    8.44    0.67
   1 -12   0   -0.38    0.39
  -1  12   0    0.16    0.43
   0  12  -1    5.19    0.58
   0 -12   1    5.43    0.62
  -1  12  -1   27.92    1.21
   1 -12   1   25.27    1.16
  -2  12  -1   28.19    1.25
   2 -12   1   31.12    1.28
  -3  12  -1   24.88    1.11
  -4  12  -1   12.42    0.77
  -5  12  -1    0.59    0.39
   5 -12   1    0.91    0.65
   1  11  -1    8.11    0.68
  -1 -11   1    8.32    0.67
   0  11  -1    0.80    0.43
   0 -11   1    0.90    0.42
  -1  11  -1   12.87    0.76
   1 -11   1   14.81    0.82
  -2  11  -1   54.37    1.89
   2 -11   1   52.74    1.87
  -3  11  -1   47.24    1.73
   3 -11   1   50.34    1.75
  -4  11  -1   79.57    2.70
   4 -11   1   87.13    3.13
  -5  11  -1   13.11    0.73
  -5  11  -1   14.33    0.97
   5 -11   1   13.59    1.01
  -6  11  -1    0.06    0.33
  -6  11  -1   -0.31    0.50
   6 -11   1    0.51    0.56
   3  10  -1    7.84    0.68
  -3 -10   1    7.07    0.65
   2  10  -1   77.58    2.56
  -2 -10   1   72.88    2.54
   1  10  -1   96.75    3.08
  -1 -10   1   90.99    3.06
   0  10  -1   10.55    0.70
   0 -10   1   11.70    0.68
  -1  10  -1    1.54    0.35
   1 -10   1    1.46    0.38
  -2  10  -1   25.20    1.05
   2 -10   1   28.29    1.33
   2 -10   1   24.74    1.06
  -3  10  -1   46.01    1.61
   3 -10   1   45.64    1.62
   3 -10   1   44.31    1.90
   3 -10   1   47.42    1.90
  -4  10  -1   77.81    2.56
  -4  10  -1   75.54    2.98
   4 -10   1   81.90    2.95
   4 -10   1   82.01    2.92
  -5  10  -1   58.16    1.98
  -5  10  -1   57.69    2.37
   5 -10   1   60.30    2.27
   5 -10   1   61.97    2.33
  -6  10  -1    8.71    0.57
  -6  10  -1    8.05    0.75
   6 -10   1    6.61    0.64
   6 -10   1    7.41    0.73
  -7  10  -1    8.12    0.81
  -7  10  -1    7.19    0.57
   7 -10   1    6.71    0.65
   7 -10   1    8.17    0.74
  -4  -9   1   -0.28    0.40
   3   9  -1   17.56    0.92
  -3  -9   1   17.04    0.91
   2   9  -1   39.77    1.46
  -2  -9   1   38.71    1.48
   1   9  -1   99.72    3.17
  -1  -9   1   98.10    3.17
   0   9  -1   70.82    2.40
   0  -9   1   70.78    2.41
   0  -9   1   78.66    2.58
  -1   9  -1   48.44    1.69
   1  -9   1   51.03    1.97
   1  -9   1   48.49    1.69
  -2   9  -1   15.13    0.72
   2  -9   1   15.25    0.74
   2  -9   1   15.33    0.91
   2  -9   1   14.27    0.92
  -3   9  -1    0.95    0.30
   3  -9   1    1.15    0.31
   3  -9   1    1.48    0.39
   3  -9   1    1.15    0.39
   3  -9   1    1.49    0.49
  -4   9  -1   19.38    0.83
  -4   9  -1   18.25    1.00
   4  -9   1   20.23    1.01
   4  -9   1   20.98    0.85
   4  -9   1   22.17    1.03
   4  -9   1   19.91    1.07
  -5   9  -1   50.62    2.11
  -5   9  -1   51.57    1.75
   5  -9   1   53.70    2.19
   5  -9   1   53.84    2.07
   5  -9   1   53.72    2.00
  -6   9  -1   29.54    1.40
  -6   9  -1   27.77    1.06
   6  -9   1   29.76    1.42
   6  -9   1   28.55    1.26
   6  -9   1   28.29    1.33
  -7   9  -1   36.44    1.74
  -7   9  -1   37.19    1.35
   7  -9   1   38.45    1.56
   7  -9   1   40.81    1.65
  -4  -8   1   42.54    1.63
  -4  -8   1   47.27    2.04
   3   8  -1    6.26    0.53
  -3  -8   1    6.02    0.52
   2   8  -1    8.08    0.55
  -2  -8   1    6.95    0.53
   1   8  -1   15.81    0.92
   1   8  -1   14.55    0.71
  -1  -8   1   15.45    0.65
  -1  -8   1   15.10    0.74
   0   8  -1   17.35    0.79
   0   8  -1   17.79    0.95
   0  -8   1   17.14    0.96
   0  -8   1   18.33    0.98
   0  -8   1   18.36    0.71
   0  -8   1   17.23    0.77
  -1   8  -1  168.01    5.21
  -1   8  -1  175.26    5.82
   1  -8   1  168.72    5.22
   1  -8   1  172.56    5.83
   1  -8   1  171.12    5.82
  -2   8  -1  158.63    4.86
   2  -8   1  155.96    4.86
   2  -8   1  159.01    5.43
   2  -8   1  163.11    5.45
  -3   8  -1   17.18    0.73
  -3   8  -1   18.23    0.88
   3  -8   1   17.42    0.93
   3  -8   1   19.56    1.01
   3  -8   1   17.76    0.96
   3  -8   1   17.93    0.76
  -4   8  -1    0.80    0.25
  -4   8  -1    1.04    0.36
   4  -8   1    1.02    0.39
   4  -8   1    0.78    0.27
   4  -8   1    0.62    0.38
   4  -8   1    0.26    0.46
  -5   8  -1   58.08    2.29
  -5   8  -1   58.67    1.89
   5  -8   1   57.45    2.20
   5  -8   1   57.82    2.14
   5  -8   1   59.35    2.40
  -6   8  -1   55.19    2.23
  -6   8  -1   53.24    1.78
   6  -8   1   53.55    2.10
   6  -8   1   54.53    2.03
   6  -8   1   57.54    2.33
  -7   8  -1   60.46    1.94
  -7   8  -1   57.29    2.42
   7  -8   1   61.47    2.27
   7  -8   1   57.78    2.18
  -8   8  -1   37.58    1.31
  -8   8  -1   33.82    1.69
   8  -8   1   38.35    1.56
   8  -8   1   34.02    1.47
  -5  -7   1   37.45    1.42
   4   7  -1   90.86    3.23
   4   7  -1   84.20    2.81
  -4  -7   1   82.88    2.82
  -4  -7   1   90.56    3.51
   3   7  -1   38.96    1.59
   3   7  -1   36.36    1.32
  -3  -7   1   33.24    1.30
   2   7  -1   26.08    1.22
   2   7  -1   25.82    1.00
   2   7  -1   25.84    1.18
  -2  -7   1   26.01    1.02
   1   7  -1    6.92    0.60
   1   7  -1    6.96    0.51
   1   7  -1    7.21    0.60
  -1  -7   1    7.55    0.65
  -1  -7   1    7.62    0.42
  -1  -7   1    7.12    0.47
   0   7  -1   19.22    1.01
   0   7  -1   24.20    0.89
   0   7  -1   23.61    1.06
   0  -7   1   23.48    1.05
   0  -7   1   24.15    0.87
   0  -7   1   22.89    0.88
   0  -7   1   23.17    1.07
  -1   7  -1  149.06    4.47
  -1   7  -1  143.41    4.97
   1  -7   1  153.71    5.01
   1  -7   1  145.61    4.98
   1  -7   1  141.35    4.46
  -2   7  -1  400.61   12.22
  -2   7  -1  402.08   13.95
   2  -7   1  417.20   13.54
   2  -7   1  408.73   12.16
   2  -7   1  414.65   13.53
  -3   7  -1   67.59    2.55
  -3   7  -1   68.82    2.20
   3  -7   1   73.50    2.53
   3  -7   1   70.91    2.22
   3  -7   1   70.19    2.48
   3  -7   1   68.40    2.74
  -4   7  -1   22.75    0.87
  -4   7  -1   26.27    0.95
  -4   7  -1   24.40    1.09
   4  -7   1   23.39    1.11
   4  -7   1   23.05    1.02
   4  -7   1   24.98    1.16
   4  -7   1   24.81    0.85
  -5   7  -1    1.24    0.24
  -5   7  -1    0.93    0.36
  -5   7  -1    1.11    0.27
   5  -7   1    1.29    0.35
   5  -7   1    1.24    0.48
   5  -7   1    1.59    0.42
  -6   7  -1   31.83    1.51
  -6   7  -1   35.59    1.20
   6  -7   1   36.76    1.61
   6  -7   1   34.79    1.36
   6  -7   1   36.66    1.46
  -7   7  -1   35.85    1.21
  -7   7  -1   33.40    1.56
   7  -7   1   32.61    1.36
   7  -7   1   35.84    1.47
  -8   7  -1   40.18    1.39
  -8   7  -1   38.34    1.81
   8  -7   1   39.19    1.62
   8  -7   1   40.40    1.58
   6   6  -1    0.63    0.57
  -6  -6   1    1.23    0.39
   5   6  -1    8.92    0.75
  -5  -6   1    8.56    0.79
  -5  -6   1    9.02    0.62
   4   6  -1   83.42    2.57
   4   6  -1   86.15    2.94
   4   6  -1   80.72    2.90
   4   6  -1   72.03    2.63
  -4  -6   1   78.19    2.58
   3   6  -1   38.56    1.36
   3   6  -1   37.31    1.58
   3   6  -1   39.91    1.56
  -3  -6   1   39.35    1.36
   2   6  -1   55.05    2.04
   2   6  -1   53.98    1.78
   2   6  -1   53.92    2.04
  -2  -6   1   55.20    1.79
  -2  -6   1   53.65    2.01
   1   6  -1   89.70    3.06
   1   6  -1   87.09    2.71
   1   6  -1   87.65    3.04
  -1  -6   1   87.46    3.05
  -1  -6   1   80.45    3.01
  -1  -6   1   87.21    2.71
   0   6  -1    2.02    0.34
   0   6  -1    1.71    0.24
   0  -6   1    2.28    0.18
   0  -6   1    1.23    0.23
   0  -6   1    2.29    0.33
   0  -6   1    2.12    0.35
  -1   6  -1   48.68    1.78
  -1   6  -1   49.04    1.58
   1  -6   1   49.45    1.81
   1  -6   1   49.70    1.80
   1  -6   1   48.35    1.59
  -2   6  -1  337.42   10.30
  -2   6  -1  332.43   11.73
   2  -6   1  350.52   11.33
   2  -6   1  341.74   10.26
   2  -6   1  346.17   11.31
  -3   6  -1  226.10    7.94
  -3   6  -1  228.69    6.87
  -3   6  -1  248.25    6.91
   3  -6   1  226.72    7.65
   3  -6   1  226.02    8.57
   3  -6   1  226.85    7.69
   3  -6   1  228.94    6.88
  -4   6  -1   99.51    3.08
  -4   6  -1  105.18    3.13
  -4   6  -1   99.65    3.63
   4  -6   1  101.48    3.45
   4  -6   1   97.57    3.89
   4  -6   1  104.19    3.52
  -5   6  -1   99.96    3.76
  -5   6  -1  103.60    3.17
  -5   6  -1  108.23    3.22
   5  -6   1  104.27    4.05
   5  -6   1  103.23    3.54
   5  -6   1  105.05    3.62
  -6   6  -1    4.41    0.32
  -6   6  -1    3.38    0.47
   6  -6   1    4.31    0.54
   6  -6   1    4.14    0.38
   6  -6   1    4.00    0.50
  -7   6  -1    1.74    0.28
  -7   6  -1    1.83    0.47
   7  -6   1    2.29    0.46
   7  -6   1    2.45    0.38
  -8   6  -1   16.09    1.07
  -8   6  -1   17.25    0.75
   8  -6   1   17.06    0.90
   8  -6   1   18.66    0.94
   6   5  -1    6.80    0.67
  -6  -5   1    7.43    0.56
   5   5  -1    0.35    0.41
   5   5  -1    0.19    0.43
  -5  -5   1   -0.07    0.28
  -5  -5   1   -0.47    0.41
   4   5  -1   15.51    0.84
   4   5  -1   16.74    0.73
   4   5  -1   15.33    0.66
   4   5  -1   17.29    0.94
  -4  -5   1   16.41    0.72
   3   5  -1   79.90    2.58
   3   5  -1   81.67    2.89
   3   5  -1   87.40    2.95
  -3  -5   1   80.34    2.58
   2   5  -1  261.99    8.69
   2   5  -1  264.53    8.71
   2   5  -1  255.67    7.80
  -2  -5   1  259.37    8.67
  -2  -5   1  263.44    7.81
   1   5  -1  521.00   15.48
   1   5  -1  518.96   17.04
   1   5  -1  498.29   17.40
  -1  -5   1  531.98   15.74
  -1  -5   1  522.13   17.13
  -1  -5   1  510.75   17.17
   0   5  -1  159.12    4.82
   0   5  -1  159.38    5.37
   0  -5   1  157.95    4.82
   0  -5   1  165.60    5.47
   0  -5   1  157.15    5.37
   0  -5   1  162.39    5.38
  -1   5  -1   17.56    0.72
  -1   5  -1   17.91    0.81
  -1   5  -1   18.02    0.65
  -1   5  -1   20.05    0.68
  -1   5  -1   17.50    0.76
   1  -5   1   17.09    0.76
   1  -5   1   17.77    0.81
   1  -5   1   17.67    0.66
  -2   5  -1   11.36    0.52
  -2   5  -1   10.80    0.48
  -2   5  -1   10.26    0.45
   2  -5   1   10.46    0.56
   2  -5   1   10.95    0.62
   2  -5   1   11.61    0.49
  -3   5  -1  123.94    3.77
  -3   5  -1  122.97    4.38
  -3   5  -1  128.35    3.80
   3  -5   1  126.41    3.77
   3  -5   1  122.80    4.20
   3  -5   1  122.11    4.74
   3  -5   1  127.35    4.25
   3  -5   1  128.50    3.73
  -4   5  -1  180.83    5.27
  -4   5  -1  175.03    5.23
   4  -5   1  174.87    5.88
   4  -5   1  171.56    6.58
   4  -5   1  173.08    5.82
  -5   5  -1  204.85    5.95
  -5   5  -1  197.65    5.90
   5  -5   1  191.65    6.56
   5  -5   1  193.63    7.45
   5  -5   1  201.52    6.62
  -6   5  -1   27.21    0.94
  -6   5  -1   27.37    1.40
  -6   5  -1   26.89    0.96
   6  -5   1   25.94    1.32
   6  -5   1   25.55    1.05
   6  -5   1   28.02    1.12
  -7   5  -1    2.14    0.63
  -7   5  -1    2.49    0.29
   7  -5   1    2.42    0.40
   7  -5   1    2.25    0.42
  -8   5  -1    1.04    0.47
  -8   5  -1    1.73    0.29
   8  -5   1    1.58    0.44
   8  -5   1    1.90    0.43
   7   4  -1   49.49    1.97
   7   4  -1   51.05    1.99
  -7  -4   1   48.36    1.71
   6   4  -1   75.85    2.75
   6   4  -1   76.75    2.77
  -6  -4   1   74.91    2.44
   5   4  -1   66.81    2.44
   5   4  -1   66.68    2.41
  -5  -4   1   67.10    2.75
  -5  -4   1   66.50    2.15
   4   4  -1    3.79    0.29
   4   4  -1    4.17    0.45
   4   4  -1    4.38    0.33
   4   4  -1    3.64    0.47
  -4  -4   1    4.32    0.34
   3   4  -1   37.48    1.24
   3   4  -1   37.23    1.42
   3   4  -1   36.94    1.28
   3   4  -1   37.10    1.43
  -3  -4   1   37.06    1.24
   2   4  -1  168.04    5.11
   2   4  -1  173.87    5.72
   2   4  -1  172.99    5.70
  -2  -4   1  170.89    5.12
  -2  -4   1  165.57    5.68
   1   4  -1  612.22   19.76
   1   4  -1  582.42   17.80
   1   4  -1  593.66   19.70
  -1  -4   1  583.82   17.62
  -1  -4   1  572.21   17.65
  -1  -4   1  583.50   19.67
  -1  -4   1  588.28   19.64
   0   4  -1  214.79    6.38
   0   4  -1  209.51    6.97
   0   4  -1  215.11    6.26
   0  -4   1  212.73    7.19
   0  -4   1  206.01    6.97
   0  -4   1  206.05    6.39
   0  -4   1  208.65    6.26
   0  -4   1  208.10    6.97
  -1   4  -1   20.63    0.70
  -1   4  -1   19.20    0.68
  -1   4  -1   20.62    0.84
  -1   4  -1   21.10    0.77
  -1   4  -1   19.30    0.78
   1  -4   1   22.47    0.83
   1  -4   1   20.14    0.71
   1  -4   1   20.33    0.69
   1  -4   1   20.05    0.81
  -2   4  -1   40.55    1.28
  -2   4  -1   38.25    1.25
  -2   4  -1   42.16    1.46
   2  -4   1   38.81    1.28
   2  -4   1   38.29    1.46
   2  -4   1   39.38    1.62
   2  -4   1   40.65    1.24
   2  -4   1   39.42    1.40
  -3   4  -1    0.65    0.16
  -3   4  -1    0.58    0.12
   3  -4   1    0.95    0.29
   3  -4   1    0.67    0.09
   3  -4   1    0.55    0.25
   3  -4   1    0.76    0.19
   3  -4   1    0.81    0.08
  -4   4  -1   46.52    1.46
  -4   4  -1   48.45    1.97
  -4   4  -1   47.92    1.50
   4  -4   1   46.50    1.93
   4  -4   1   47.79    1.68
   4  -4   1   46.12    1.63
  -5   4  -1  224.44    6.58
  -5   4  -1  219.41    6.58
  -5   4  -1  228.44    8.31
  -5   4  -1  225.25    7.14
   5  -4   1  222.41    7.32
   5  -4   1  211.31    7.30
   5  -4   1  214.92    8.28
  -6   4  -1   78.00    2.42
  -6   4  -1   81.28    3.23
  -6   4  -1   79.40    2.42
   6  -4   1   77.73    2.69
   6  -4   1   75.33    2.70
  -7   4  -1   11.49    0.99
  -7   4  -1   11.03    0.54
   7  -4   1   11.13    0.70
   7  -4   1   12.35    0.67
  -8   4  -1   10.56    0.56
   8  -4   1   11.23    0.75
   8  -4   1   10.48    0.70
   7   3  -1   43.12    1.78
   7   3  -1   46.30    1.79
  -7  -3   1   46.03    1.57
   6   3  -1   70.65    2.54
   6   3  -1   68.97    2.51
  -6  -3   1   69.81    2.91
  -6  -3   1   70.33    2.24
   5   3  -1   68.16    2.49
   5   3  -1   72.45    2.53
  -5  -3   1   70.25    2.23
  -5  -3   1   71.83    2.89
   4   3  -1  111.28    3.87
   4   3  -1  116.83    3.47
   4   3  -1  113.53    3.90
  -4  -3   1  114.03    3.48
  -4  -3   1  114.75    3.47
   3   3  -1    6.46    0.52
   3   3  -1    5.40    0.30
   3   3  -1    5.81    0.45
   3   3  -1    5.60    0.34
  -3  -3   1    5.66    0.34
  -3  -3   1    5.33    0.32
   2   3  -1    2.53    0.21
   2   3  -1    3.04    0.24
   2   3  -1    2.68    0.31
   2   3  -1    2.48    0.26
  -2  -3   1    3.22    0.24
  -2  -3   1    3.61    0.26
  -2  -3   1    3.09    0.27
   1   3  -1   91.50    2.81
   1   3  -1   91.66    3.13
   1   3  -1   96.52    2.81
   1   3  -1   90.63    3.15
  -1  -3   1   90.97    3.14
  -1  -3   1   94.05    2.82
  -1  -3   1   95.31    3.14
  -1  -3   1   95.13    2.82
   0   3  -1   67.07    1.97
   0   3  -1   63.66    2.21
   0  -3   1   62.73    2.19
   0  -3   1   64.93    2.20
   0  -3   1   64.86    1.96
   0  -3   1   62.50    1.96
   0  -3   1   62.66    2.21
  -1   3  -1   53.76    1.88
  -1   3  -1   57.33    1.70
  -1   3  -1   55.51    1.68
  -1   3  -1   54.42    1.92
   1  -3   1   55.37    1.67
   1  -3   1   53.40    1.87
   1  -3   1   53.13    1.91
   1  -3   1   54.82    1.70
  -2   3  -1  388.20   11.62
  -2   3  -1  395.40   11.64
  -2   3  -1  385.94   12.83
   2  -3   1  385.41   12.95
   2  -3   1  376.55   14.55
   2  -3   1  390.33   11.58
   2  -3   1  383.57   11.61
   2  -3   1  406.56   13.07
  -3   3  -1  101.88    3.85
  -3   3  -1  100.48    3.02
  -3   3  -1  102.63    3.04
   3  -3   1  100.29    3.36
   3  -3   1  102.07    3.38
   3  -3   1   99.25    3.84
  -4   3  -1    2.29    0.39
  -4   3  -1    3.43    0.25
  -4   3  -1    3.24    0.24
  -4   3  -1    3.09    0.31
   4  -3   1    2.56    0.37
   4  -3   1    2.93    0.26
   4  -3   1    3.67    0.31
  -5   3  -1   94.41    3.19
  -5   3  -1   96.15    3.71
  -5   3  -1   96.46    2.85
  -5   3  -1   91.66    2.86
   5  -3   1   95.45    3.16
   5  -3   1   92.31    3.19
   5  -3   1   92.23    3.68
  -6   3  -1  142.14    4.12
  -6   3  -1  138.91    5.31
  -6   3  -1  134.24    4.13
   6  -3   1  133.29    4.61
   6  -3   1  135.65    4.57
  -7   3  -1   58.61    1.85
  -7   3  -1   60.89    2.55
   7  -3   1   56.66    2.04
   7  -3   1   56.17    2.09
  -8   3  -1   48.41    1.59
   8  -3   1   49.93    1.79
   8  -3   1   47.24    1.84
   8   2  -1    5.25    0.56
   8   2  -1    4.37    0.55
  -8  -2   1    4.81    0.43
   7   2  -1    0.50    0.40
   7   2  -1    0.88    0.38
  -7  -2   1    0.54    0.27
   6   2  -1   15.25    0.77
   6   2  -1   14.58    0.80
  -6  -2   1   15.08    0.96
  -6  -2   1   15.73    0.64
   5   2  -1   28.12    1.14
   5   2  -1   29.15    1.17
  -5  -2   1   28.01    1.36
  -5  -2   1   28.92    0.99
  -5  -2   1   30.27    0.99
   4   2  -1  201.51    6.78
   4   2  -1  205.63    6.05
   4   2  -1  203.08    6.80
  -4  -2   1  202.33    6.09
  -4  -2   1  208.62    6.09
   3   2  -1  123.90    4.10
   3   2  -1  124.44    3.64
   3   2  -1  121.34    3.66
   3   2  -1  119.52    4.08
  -3  -2   1  120.58    3.66
  -3  -2   1  122.38    3.66
   2   2  -1   64.29    2.04
   2   2  -1   64.99    2.20
   2   2  -1   62.47    2.17
   2   2  -1   63.51    1.95
   2   2  -1   65.27    1.94
  -2  -2   1   62.64    1.95
  -2  -2   1   64.97    1.95
   1   2  -1    7.94    0.31
   1   2  -1    8.55    0.47
   1   2  -1    7.70    0.33
   1   2  -1    7.51    0.43
  -1  -2   1    8.66    0.43
  -1  -2   1    8.87    0.34
  -1  -2   1    7.71    0.32
  -1  -2   1    8.37    0.47
   0   2  -1  241.61    7.98
   0   2  -1  249.89    8.13
   0   2  -1  249.04    7.24
   0   2  -1  226.43    7.13
   0  -2   1  237.17    8.01
   0  -2   1  229.49    7.16
  -1   2  -1  380.77   11.29
  -1   2  -1  377.90   12.54
  -1   2  -1  382.71   12.51
  -1   2  -1  384.80   11.28
   1  -2   1  366.04   12.51
   1  -2   1  368.82   11.28
   1  -2   1  380.84   12.57
   1  -2   1  369.90   11.23
  -2   2  -1 1000.00   35.20
  -2   2  -1  960.70   28.06
   2  -2   1  945.78   31.20
   2  -2   1  912.07   35.17
   2  -2   1  912.90   31.16
  -3   2  -1  482.16   17.86
  -3   2  -1  467.14   14.98
  -3   2  -1  450.34   14.08
  -3   2  -1  488.85   14.07
   3  -2   1  467.69   15.64
   3  -2   1  478.54   15.63
  -4   2  -1   33.60    1.18
  -4   2  -1   31.20    1.36
  -4   2  -1   29.85    1.00
  -4   2  -1   31.01    0.97
   4  -2   1   31.40    1.09
   4  -2   1   29.13    1.13
  -5   2  -1    1.69    0.44
  -5   2  -1    2.26    0.19
  -5   2  -1    1.85    0.21
  -5   2  -1    2.24    0.34
   5  -2   1    2.04    0.26
   5  -2   1    2.44    0.34
  -6   2  -1   33.32    1.14
  -6   2  -1   33.84    1.37
  -6   2  -1   34.06    1.12
  -6   2  -1   36.16    1.64
   6  -2   1   33.64    1.25
   6  -2   1   33.35    1.34
  -7   2  -1   26.49    0.94
   7  -2   1   26.48    1.07
   7  -2   1   25.73    1.15
  -8   2  -1   45.07    1.49
   8  -2   1   43.41    1.70
   8  -2   1   45.72    1.69
   8   1  -1   15.50    0.84
   8   1  -1   14.79    0.85
  -8  -1   1   16.11    0.70
   7   1  -1    7.24    0.57
   7   1  -1    7.93    0.60
  -7  -1   1    6.59    0.43
   6   1  -1    1.94    0.33
   6   1  -1    1.73    0.32
  -6  -1   1    1.40    0.47
  -6  -1   1    1.79    0.22
   5   1  -1    7.50    0.52
   5   1  -1    6.76    0.48
  -5  -1   1    6.80    0.41
  -5  -1   1    7.85    0.37
  -5  -1   1    7.45    0.35
  -5  -1   1    6.57    0.62
   4   1  -1  353.74   11.78
   4   1  -1  357.93   11.82
  -4  -1   1  364.34   10.52
  -4  -1   1  352.96   13.08
  -4  -1   1  345.19   11.15
  -4  -1   1  348.17   10.55
   3   1  -1  681.51   22.38
   3   1  -1  687.72   22.45
  -3  -1   1  643.20   21.38
  -3  -1   1  678.97   20.14
  -3  -1   1  690.68   20.13
   2   1  -1   87.10    2.49
   2   1  -1   82.40    2.81
   2   1  -1   84.92    2.79
  -2  -1   1   84.41    2.65
  -2  -1   1   84.65    2.51
  -2  -1   1   78.08    2.77
  -2  -1   1   85.38    2.77
  -2  -1   1   84.42    2.50
   1   1  -1  131.17    3.94
   1   1  -1  130.92    4.37
   1   1  -1  135.90    3.97
  -1  -1   1  132.43    4.40
  -1  -1   1  124.66    4.36
  -1  -1   1  133.68    3.97
  -1  -1   1  133.99    3.96
   0   1  -1   -0.60    0.03
   0   1  -1   -0.58    0.03
   0  -1   1   -0.56    0.03
   0  -1   1   -0.60    0.03
   0  -1   1   -0.58    0.01
   0  -1   1   -0.58    0.03
  -1   1  -1  118.50    3.83
  -1   1  -1  133.34    4.26
  -1   1  -1  125.89    4.23
  -1   1  -1  121.80    4.05
  -1   1  -1  129.47    3.84
   1  -1   1  132.78    4.29
   1  -1   1  124.64    4.21
   1  -1   1  130.15    4.82
   1  -1   1  130.58    3.85
   1  -1   1  128.42    3.83
   1  -1   1  122.06    4.05
  -2   1  -1  471.40   14.46
  -2   1  -1  462.66   15.59
  -2   1  -1  514.79   14.45
   2  -1   1  475.20   14.38
   2  -1   1  483.77   18.11
   2  -1   1  471.93   16.10
   2  -1   1  519.26   16.06
  -3   1  -1  381.55   12.99
  -3   1  -1  418.42   12.11
  -3   1  -1  393.62   12.15
  -3   1  -1  418.38   15.17
   3  -1   1  423.28   13.49
   3  -1   1  402.06   13.46
  -4   1  -1   31.98    1.45
  -4   1  -1   33.64    1.06
  -4   1  -1   34.91    1.25
  -4   1  -1   34.26    1.09
   4  -1   1   34.10    1.20
   4  -1   1   33.79    1.25
  -5   1  -1   63.33    2.54
  -5   1  -1   65.38    2.18
  -5   1  -1   62.01    1.93
  -5   1  -1   62.63    1.91
   5  -1   1   57.22    2.18
   5  -1   1   61.02    2.13
  -6   1  -1    3.99    0.58
  -6   1  -1    3.82    0.31
  -6   1  -1    4.57    0.46
   6  -1   1    3.64    0.38
   6  -1   1    4.94    0.46
  -7   1  -1    0.86    0.24
   7  -1   1    0.94    0.36
   7  -1   1    0.76    0.37
  -8   1  -1    9.65    0.54
   8  -1   1    8.71    0.71
   8  -1   1    8.12    0.67
   8   0  -1   12.15    0.69
   8   0  -1   12.86    0.70
  -8   0   1   12.65    0.57
   7   0  -1   37.67    1.38
   7   0  -1   36.14    1.37
  -7   0   1   37.50    1.22
   6   0  -1   19.31    0.81
   6   0  -1   18.01    0.80
  -6   0   1   18.52    1.07
  -6   0   1   19.65    0.68
  -6   0   1   20.98    0.68
  -6   0   1   19.50    0.84
   5   0  -1    0.83    0.23
   5   0  -1    0.66    0.23
  -5   0   1    0.40    0.21
  -5   0   1    0.25    0.34
  -5   0   1    0.64    0.13
  -5   0   1    0.56    0.13
   4   0  -1   13.43    0.55
   4   0  -1   13.42    0.54
   4   0  -1   12.53    0.52
  -4   0   1   13.45    0.74
  -4   0   1   13.62    0.45
  -4   0   1   13.48    0.56
  -4   0   1   13.65    0.45
  -3   0   1  422.92   14.24
  -3   0   1  462.83   13.26
  -3   0   1  457.27   13.27
  -1   0  -1   47.42    1.60
  -1   0  -1   45.90    1.56
  -1   0  -1   47.23    1.45
  -1   0  -1   48.05    1.81
  -1   0  -1   45.66    1.62
  -1   0  -1   48.24    1.44
   1   0   1   47.07    1.57
   1   0   1   47.68    1.44
   1   0   1   45.31    1.62
   1   0   1   48.05    1.44
   1   0   1   48.87    1.61
  -2   0  -1   12.53    0.53
  -2   0  -1   12.80    0.45
  -2   0  -1   13.20    0.53
  -2   0  -1   12.32    0.62
  -2   0  -1   13.13    0.44
   2   0   1   12.44    0.56
   2   0   1   12.36    0.44
   2   0   1   12.59    0.60
   2   0   1   12.94    0.51
   2   0   1   12.23    0.52
   2   0   1   12.91    0.42
  -3   0  -1   83.65    2.75
  -3   0  -1   86.60    2.52
  -3   0  -1   79.63    2.53
  -3   0  -1   86.77    3.21
   3   0   1   81.98    2.84
   3   0   1   87.39    2.51
   3   0   1   85.23    2.81
   3   0   1   77.29    2.74
  -4   0  -1   74.98    2.23
  -4   0  -1   72.81    2.21
  -4   0  -1   72.13    2.86
  -4   0  -1   68.41    2.43
   4   0   1   70.87    2.47
   4   0   1   75.06    2.51
   4   0   1   71.74    2.51
  -5   0  -1  145.45    5.68
  -5   0  -1  150.43    4.48
  -5   0  -1  146.45    4.85
  -5   0  -1  152.95    4.46
   5   0   1  150.77    4.98
   5   0   1  144.32    5.00
  -6   0  -1   90.77    2.86
  -6   0  -1   98.70    3.75
   6   0   1   89.79    3.21
   6   0   1   91.52    3.19
  -7   0  -1   -0.04    0.25
   7   0   1   -0.21    0.39
   7   0   1    0.43    0.39
  -8   0  -1    3.00    0.36
   8   0   1    2.32    0.49
   8   0   1    2.21    0.49
   8  -1  -1    9.97    0.58
   8  -1  -1    9.29    0.56
  -8   1   1   10.27    0.47
  -8   1   1    9.26    0.73
   7  -1  -1   70.09    2.52
   7  -1  -1   71.51    2.51
  -7   1   1   74.50    2.25
  -7   1   1   77.18    2.57
  -7   1   1   76.72    3.07
   6  -1  -1  212.91    7.05
   6  -1  -1  206.30    7.06
  -6   1   1  214.92    8.08
  -6   1   1  219.29    6.33
  -6   1   1  216.00    6.34
  -6   1   1  213.91    6.89
  -5   1   1  144.74    4.21
  -5   1   1  145.48    4.22
  -5   1   1  138.93    5.41
  -5   1   1  139.28    4.61
  -3   1   1    6.62    0.41
  -2   1   1   70.39    2.46
   1  -1  -1  584.04   18.53
   1  -1  -1  502.27   15.95
  -1   1   1  526.82   17.74
  -1   1   1  540.79   15.97
   0  -1  -1  406.90   11.42
   0  -1  -1  374.93   14.02
   0  -1  -1  327.65   12.63
   0  -1  -1  381.55   11.37
   0   1   1  404.91   11.42
   0   1   1  362.54   12.64
   0   1   1  398.57   14.02
  -1  -1  -1   57.02    1.71
  -1  -1  -1   56.36    1.93
  -1  -1  -1   58.00    1.92
  -1  -1  -1   48.54    1.92
  -1  -1  -1   57.12    1.71
  -1  -1  -1   57.19    2.13
   1   1   1   58.76    1.71
   1   1   1   57.03    2.13
   1   1   1   57.50    1.71
   1   1   1   56.66    1.92
  -2  -1  -1   11.81    0.55
  -2  -1  -1   11.74    0.44
  -2  -1  -1   11.51    0.43
  -2  -1  -1   11.10    0.59
   2   1   1   12.25    0.52
   2   1   1   11.51    0.44
   2   1   1   12.19    0.43
   2   1   1   11.57    0.54
   2   1   1   11.75    0.53
  -3  -1  -1   23.07    0.78
  -3  -1  -1   22.41    1.01
  -3  -1  -1   22.89    0.76
   3   1   1   21.27    0.87
   3   1   1   22.85    0.88
   3   1   1   22.77    0.74
   3   1   1   22.43    0.76
   3   1   1   22.23    0.92
  -4  -1  -1   86.27    2.63
  -4  -1  -1   84.85    3.34
  -4  -1  -1   87.47    2.61
   4   1   1   85.86    2.58
   4   1   1   77.58    2.83
   4   1   1   86.74    2.93
   4   1   1   87.76    2.59
   4   1   1   86.02    2.95
  -5  -1  -1  185.87    5.42
  -5  -1  -1  178.29    5.43
  -5  -1  -1  182.00    6.86
   5   1   1  174.59    6.06
   5   1   1  181.19    6.05
  -6  -1  -1  133.87    4.21
  -6  -1  -1  145.63    5.40
   6   1   1  138.50    4.70
   6   1   1  134.10    4.70
  -7  -1  -1   12.27    0.62
   7   1   1   12.43    0.80
   7   1   1   10.91    0.77
   9  -2  -1    1.64    0.34
   9  -2  -1    1.91    0.35
   8  -2  -1    0.23    0.25
   8  -2  -1    0.05    0.26
  -8   2   1    0.45    0.39
  -8   2   1    0.32    0.17
   7  -2  -1   49.51    1.67
   7  -2  -1   46.88    1.70
  -7   2   1   49.68    2.16
  -7   2   1   51.14    1.85
  -7   2   1   47.39    1.97
  -7   2   1   50.31    1.51
  -6   2   1  219.54    8.27
  -6   2   1  219.23    7.08
  -5   2   1  111.85    4.30
  -4   2   1   97.41    3.48
  -4   2   1   99.51    3.75
  -3   2   1    3.30    0.29
  -3   2   1    3.66    0.31
   2  -2  -1   15.89    0.62
   2  -2  -1   16.76    0.61
   2  -2  -1   17.41    0.67
  -2   2   1   16.15    0.53
  -2   2   1   16.79    0.70
  -2   2   1   16.35    0.68
  -2   2   1   16.61    0.53
   1  -2  -1  177.12    6.22
   1  -2  -1  177.85    5.43
   1  -2  -1  180.73    5.99
   1  -2  -1  184.70    5.46
   1  -2  -1  175.31    6.02
  -1   2   1  185.94    5.37
  -1   2   1  182.43    6.03
  -1   2   1  177.85    5.98
  -1   2   1  178.93    5.39
   0  -2  -1  545.76   16.31
   0  -2  -1  536.35   16.28
   0  -2  -1  533.33   18.16
   0  -2  -1  546.24   20.05
   0   2   1  544.86   16.26
   0   2   1  567.48   18.13
   0   2   1  541.03   16.30
  -1  -2  -1   68.56    2.04
  -1  -2  -1   65.82    2.04
  -1  -2  -1   68.40    2.53
  -1  -2  -1   64.42    2.28
  -1  -2  -1   65.91    2.28
   1   2   1   67.96    2.04
   1   2   1   65.13    2.04
   1   2   1   67.65    2.28
   1   2   1   68.24    2.29
  -2  -2  -1  227.49    7.62
  -2  -2  -1  236.93    6.84
  -2  -2  -1  227.61    6.97
  -2  -2  -1  230.64    8.51
  -2  -2  -1  230.36    7.62
   2   2   1  221.48    7.32
   2   2   1  228.56    7.62
   2   2   1  232.32    6.84
   2   2   1  235.46    7.63
  -3  -2  -1   64.79    2.09
  -3  -2  -1   67.75    2.64
  -3  -2  -1   68.62    2.08
   3   2   1   64.39    2.34
   3   2   1   69.27    2.27
   3   2   1   66.71    2.34
   3   2   1   67.65    2.07
  -4  -2  -1    6.81    0.65
  -4  -2  -1    6.63    0.41
  -4  -2  -1    7.29    0.41
   4   2   1    8.34    0.59
   4   2   1    6.44    0.50
   4   2   1    7.63    0.39
   4   2   1    6.43    0.49
  -5  -2  -1   34.90    1.57
  -5  -2  -1   32.03    1.14
   5   2   1   31.01    1.22
   5   2   1   31.79    1.34
   5   2   1   33.59    1.33
  -6  -2  -1   74.09    2.44
  -6  -2  -1   78.64    3.19
   6   2   1   80.33    2.77
   6   2   1   73.30    2.74
  -7  -2  -1   18.34    0.81
   7   2   1   17.13    1.00
   7   2   1   19.25    1.02
   9  -3  -1   12.06    0.61
   9  -3  -1   13.18    0.62
   8  -3  -1    1.61    0.22
   8  -3  -1    1.58    0.27
  -8   3   1    1.40    0.42
  -7   3   1    0.19    0.34
  -7   3   1    0.17    0.47
  -6   3   1   84.56    3.24
  -6   3   1   92.77    3.53
  -5   3   1   49.60    1.99
  -5   3   1   46.94    1.84
  -4   3   1   57.78    2.30
  -4   3   1   58.95    2.16
  -4   3   1   58.69    1.75
  -4   3   1   59.12    1.76
   3  -3  -1  289.11    9.46
   3  -3  -1  274.80    9.44
  -3   3   1  280.05    8.50
  -3   3   1  294.86    8.50
  -3   3   1  285.97    9.93
  -3   3   1  286.38   10.66
   2  -3  -1   50.47    1.76
   2  -3  -1   49.32    1.50
   2  -3  -1   49.32    1.68
   2  -3  -1   48.67    1.68
   2  -3  -1   48.91    1.85
   2  -3  -1   51.26    1.50
  -2   3   1   49.57    1.50
  -2   3   1   48.22    1.68
  -2   3   1   48.58    1.87
  -2   3   1   48.36    1.50
  -2   3   1   48.79    1.77
   1  -3  -1   21.40    0.84
   1  -3  -1   22.71    0.73
   1  -3  -1   22.13    0.84
   1  -3  -1   21.79    0.73
   1  -3  -1   20.73    0.83
  -1   3   1   22.46    0.84
  -1   3   1   22.31    0.73
  -1   3   1   23.36    0.85
   0  -3  -1  306.58    9.28
   0  -3  -1  294.39   10.32
   0  -3  -1  307.22   10.25
   0  -3  -1  307.04    9.18
   0   3   1  312.80   10.23
   0   3   1  310.57    9.19
   0   3   1  299.31    9.11
  -1  -3  -1  321.01   10.70
  -1  -3  -1  320.93    9.88
  -1  -3  -1  321.55    9.69
  -1  -3  -1  329.71   12.10
  -1  -3  -1  330.54   10.75
   1   3   1  322.48   10.75
   1   3   1  321.78    9.76
   1   3   1  325.10   10.70
  -2  -3  -1  204.91    6.16
  -2  -3  -1  206.67    7.64
  -2  -3  -1  200.80    6.85
   2   3   1  207.40    6.86
   2   3   1  208.68    6.15
   2   3   1  206.62    6.86
  -3  -3  -1  396.02   12.28
  -3  -3  -1  415.41   15.25
   3   3   1  409.06   13.48
   3   3   1  413.03   12.21
   3   3   1  397.46   12.93
   3   3   1  416.52   13.57
  -4  -3  -1   54.70    1.78
  -4  -3  -1   55.47    2.27
   4   3   1   53.70    2.02
   4   3   1   56.01    2.03
   4   3   1   57.16    1.75
   4   3   1   50.95    1.91
  -5  -3  -1    0.41    0.43
  -5  -3  -1   -0.16    0.25
   5   3   1    0.01    0.40
   5   3   1    0.14    0.38
   5   3   1    0.32    0.28
  -6  -3  -1   10.25    0.60
   6   3   1   10.21    0.83
   6   3   1   10.33    0.83
  -7  -3  -1   15.72    0.79
   7   3   1   16.39    1.04
  -8   4   1   16.18    1.00
  -7   4   1    5.79    0.67
  -7   4   1    4.46    0.54
  -6   4   1    0.76    0.46
  -6   4   1    0.25    0.10
  -6   4   1    0.19    0.32
  -6   4   1    0.06    0.14
   5  -4  -1   23.95    0.87
   5  -4  -1   21.82    0.81
  -5   4   1   23.53    0.73
  -5   4   1   24.05    0.76
  -5   4   1   22.01    1.04
  -5   4   1   22.83    1.14
   4  -4  -1  154.01    4.96
   4  -4  -1  148.41    4.93
  -4   4   1  137.22    4.43
  -4   4   1  146.73    5.22
  -4   4   1  153.03    5.60
  -4   4   1  155.90    4.45
   3  -4  -1  698.29   25.99
   3  -4  -1  713.79   23.31
   3  -4  -1  690.51   20.70
   3  -4  -1  671.09   23.22
  -3   4   1  688.26   26.00
  -3   4   1  686.15   24.42
  -3   4   1  748.85   20.88
  -3   4   1  703.48   20.89
   2  -4  -1  563.14   21.12
   2  -4  -1  579.65   19.10
   2  -4  -1  585.28   17.09
   2  -4  -1  565.28   19.11
   2  -4  -1  575.73   17.16
   2  -4  -1  581.81   19.81
  -2   4   1  554.73   17.18
  -2   4   1  567.93   19.77
  -2   4   1  580.17   17.10
   1  -4  -1  131.55    4.46
   1  -4  -1  132.94    4.00
   1  -4  -1  130.17    4.46
   1  -4  -1  135.14    4.60
  -1   4   1  139.29    4.01
  -1   4   1  134.73    4.46
  -1   4   1  131.65    4.45
  -1   4   1  129.76    4.00
   0  -4  -1    5.61    0.38
   0  -4  -1    5.72    0.43
   0  -4  -1    5.95    0.32
   0   4   1    5.46    0.31
   0   4   1    5.15    0.46
  -1  -4  -1  105.30    3.65
  -1  -4  -1  110.76    4.01
  -1  -4  -1  105.82    3.27
  -1  -4  -1  107.53    3.65
   1   4   1  106.10    3.65
   1   4   1  103.93    3.64
   1   4   1  110.61    3.27
  -2  -4  -1  140.15    4.38
  -2  -4  -1  145.48    5.41
   2   4   1  143.88    4.37
   2   4   1  143.87    4.88
   2   4   1  148.83    4.90
  -3  -4  -1  139.62    5.17
  -3  -4  -1  131.99    4.16
   3   4   1  139.15    4.66
   3   4   1  139.11    4.15
   3   4   1  137.10    4.65
   3   4   1  129.73    4.44
  -4  -4  -1   46.20    1.93
  -4  -4  -1   43.17    1.51
   4   4   1   44.91    1.75
   4   4   1   46.00    1.49
   4   4   1   42.22    1.63
   4   4   1   45.47    1.75
  -5  -4  -1    8.26    0.75
  -5  -4  -1    6.36    0.52
   5   4   1    7.35    0.56
   5   4   1    8.92    0.76
   5   4   1    7.26    0.63
  -6  -4  -1    0.40    0.34
   6   4   1    0.57    0.51
   9  -5  -1   29.34    1.14
   8  -5  -1   48.85    1.75
   8  -5  -1   52.10    1.80
  -8   5   1   52.97    2.16
   7  -5  -1   54.56    1.92
   7  -5  -1   51.00    1.85
  -7   5   1   55.37    1.68
  -7   5   1   54.25    2.20
  -7   5   1   60.14    2.43
   6  -5  -1   36.42    1.35
   6  -5  -1   34.30    1.27
  -6   5   1   38.80    1.17
  -6   5   1   37.50    1.71
  -6   5   1   35.85    1.55
  -6   5   1   35.42    1.14
   5  -5  -1   10.30    0.52
   5  -5  -1    9.50    0.62
  -5   5   1   10.61    0.66
  -5   5   1   11.48    0.79
  -5   5   1   10.98    0.42
  -5   5   1   10.33    0.44
   4  -5  -1   22.67    0.91
   4  -5  -1   21.19    0.86
  -4   5   1   22.80    0.76
  -4   5   1   20.97    0.97
  -4   5   1   21.59    0.74
   3  -5  -1  376.67   10.56
   3  -5  -1  353.77   13.19
   3  -5  -1  349.35   10.55
   3  -5  -1  349.12   11.82
   3  -5  -1  348.44   11.81
  -3   5   1  357.84   10.72
  -3   5   1  362.03   10.62
  -3   5   1  346.92   12.28
   2  -5  -1  270.21   10.16
   2  -5  -1  280.91    9.41
   2  -5  -1  268.54    8.23
   2  -5  -1  269.51    9.11
   2  -5  -1  280.16    9.19
  -2   5   1  265.36    8.29
  -2   5   1  291.17    8.19
   1  -5  -1  119.16    4.04
   1  -5  -1  119.03    3.61
   1  -5  -1  120.16    4.03
   1  -5  -1  121.69    4.14
  -1   5   1  120.71    4.03
  -1   5   1  113.64    3.60
  -1   5   1  118.49    4.02
   0  -5  -1   34.81    1.31
   0  -5  -1   33.22    1.15
   0   5   1   35.50    1.34
   0   5   1   34.31    1.16
  -1  -5  -1    0.78    0.21
  -1  -5  -1    1.09    0.35
  -1  -5  -1    0.88    0.33
  -1  -5  -1    1.61    0.26
   1   5   1    1.20    0.36
   1   5   1    0.93    0.22
   1   5   1    1.72    0.34
  -2  -5  -1    2.80    0.43
  -2  -5  -1    2.50    0.36
  -2  -5  -1    2.34    0.29
   2   5   1    1.97    0.41
   2   5   1    2.12    0.29
   2   5   1    2.03    0.40
  -3  -5  -1   63.42    2.57
  -3  -5  -1   61.88    2.08
   3   5   1   65.00    2.07
   3   5   1   64.03    2.36
   3   5   1   65.26    2.37
  -4  -5  -1   37.56    1.64
  -4  -5  -1   33.56    1.29
   4   5   1   36.70    1.52
   4   5   1   34.01    1.38
   4   5   1   35.80    1.52
   4   5   1   36.17    1.27
  -5  -5  -1   22.96    1.00
  -5  -5  -1   24.10    1.31
   5   5   1   23.39    1.23
  -6  -5  -1   29.03    1.22
   6   5   1   32.10    1.52
   8  -6  -1   21.78    0.90
   8  -6  -1   21.88    0.97
  -8   6   1   25.01    0.82
  -8   6   1   22.43    1.23
   7  -6  -1   40.92    1.52
   7  -6  -1   38.09    1.45
  -7   6   1   44.61    1.95
  -7   6   1   40.40    1.75
  -7   6   1   40.79    1.30
   6  -6  -1  121.94    4.18
   6  -6  -1  122.92    4.21
  -6   6   1  125.37    4.53
  -6   6   1  129.43    4.84
  -6   6   1  123.78    3.75
   5  -6  -1   53.13    1.94
   5  -6  -1   55.88    1.98
  -5   6   1   54.22    2.14
  -5   6   1   56.14    1.74
  -5   6   1   54.95    1.72
   4  -6  -1   28.28    0.85
   4  -6  -1   25.37    0.85
   4  -6  -1   26.38    1.09
   4  -6  -1   25.60    1.06
  -4   6   1   24.28    1.13
  -4   6   1   27.47    0.91
  -4   6   1   25.83    0.90
   3  -6  -1   40.88    1.54
   3  -6  -1   39.71    1.53
   3  -6  -1   41.20    1.60
   3  -6  -1   42.55    1.35
   3  -6  -1   42.25    1.56
  -3   6   1   39.95    1.34
  -3   6   1   39.45    1.62
  -3   6   1   44.11    1.36
   2  -6  -1   80.18    3.06
   2  -6  -1   81.64    2.87
   2  -6  -1   84.24    2.88
   2  -6  -1   81.39    2.55
   2  -6  -1   84.51    2.92
  -2   6   1   82.95    2.56
   1  -6  -1   27.10    1.13
   1  -6  -1   26.52    1.07
   1  -6  -1   26.09    1.11
   1  -6  -1   27.23    0.96
  -1   6   1   27.53    1.13
  -1   6   1   26.38    0.95
   0  -6  -1  211.85    7.14
   0  -6  -1  218.45    7.14
   0  -6  -1  213.47    6.41
   0   6   1  207.72    6.40
   0   6   1  211.87    7.13
  -1  -6  -1   78.08    2.88
  -1  -6  -1   71.20    2.39
   1   6   1   74.50    2.39
   1   6   1   76.45    2.70
   1   6   1   75.60    2.71
  -2  -6  -1   13.24    0.65
  -2  -6  -1   13.81    0.79
   2   6   1   14.46    0.91
   2   6   1   13.41    0.67
   2   6   1   13.23    0.90
  -3  -6  -1    2.29    0.34
  -3  -6  -1    2.18    0.45
   3   6   1    2.11    0.48
   3   6   1    3.31    0.38
  -4  -6  -1   51.14    2.16
  -4  -6  -1   47.50    1.75
   4   6   1   53.03    2.05
   4   6   1   54.23    1.76
   4   6   1   44.99    1.84
  -5  -6  -1   38.02    1.46
   8  -7  -1    4.05    0.45
   8  -7  -1    3.14    0.37
  -8   7   1    3.77    0.61
  -8   7   1    3.73    0.31
   7  -7  -1   11.05    0.64
   7  -7  -1   12.35    0.71
  -7   7   1   11.41    0.53
  -7   7   1   12.50    0.90
   6  -7  -1   95.09    3.27
   6  -7  -1   93.75    3.25
  -6   7   1   94.07    3.53
  -6   7   1   95.32    2.91
   5  -7  -1   80.37    2.84
   5  -7  -1   80.24    2.82
  -5   7   1   78.85    2.51
  -5   7   1   85.10    2.53
  -5   7   1   79.82    3.04
   4  -7  -1   31.06    1.03
   4  -7  -1   30.34    1.22
   4  -7  -1   31.07    1.25
  -4   7   1   30.70    1.33
  -4   7   1   28.55    1.05
   3  -7  -1   29.26    1.12
   3  -7  -1   26.42    1.11
   3  -7  -1   25.98    1.15
   3  -7  -1   25.88    0.95
   3  -7  -1   27.05    1.08
  -3   7   1   25.98    0.96
   2  -7  -1   30.19    1.22
   2  -7  -1   31.78    1.11
   2  -7  -1   32.79    1.33
   2  -7  -1   33.31    1.25
   2  -7  -1   31.87    1.29
  -2   7   1   30.67    1.10
   1  -7  -1   64.95    2.39
   1  -7  -1   64.99    2.41
   1  -7  -1   67.67    2.38
   1  -7  -1   65.61    2.13
  -1   7   1   67.01    2.41
   0  -7  -1  185.21    6.00
   0  -7  -1  192.87    6.14
   0  -7  -1  175.01    5.37
   0  -7  -1  180.82    6.00
   0   7   1  171.21    5.37
   0   7   1  153.80    5.97
  -1  -7  -1  202.02    6.52
  -1  -7  -1  224.62    7.99
   1   7   1  211.92    6.53
   1   7   1  223.08    7.30
   1   7   1  213.80    7.26
  -2  -7  -1   49.81    2.04
  -2  -7  -1   49.14    1.71
   2   7   1   49.58    1.72
   2   7   1   51.21    1.97
  -3  -7  -1   13.39    0.84
  -3  -7  -1   11.29    0.68
   3   7   1   14.42    0.75
  -4  -7  -1    0.67    0.50
  -4  -7  -1    0.84    0.37
   8  -8  -1    1.49    0.44
   8  -8  -1    0.93    0.37
  -8   8   1    0.71    0.28
  -8   8   1    1.01    0.53
   7  -8  -1    1.45    0.42
   7  -8  -1    0.71    0.35
  -7   8   1    0.92    0.26
  -7   8   1    1.07    0.48
   6  -8  -1   44.74    1.72
   6  -8  -1   44.81    1.75
  -6   8   1   46.99    1.94
  -6   8   1   47.49    1.53
   5  -8  -1  102.06    3.50
   5  -8  -1  102.12    3.50
  -5   8   1   99.51    3.73
  -5   8   1   98.41    3.11
   4  -8  -1   34.31    1.37
   4  -8  -1   32.47    1.15
   4  -8  -1   31.96    1.35
  -4   8   1   32.70    1.16
  -4   8   1   32.78    1.46
   3  -8  -1   82.09    2.94
   3  -8  -1   86.25    2.99
   3  -8  -1   83.81    3.09
   3  -8  -1   85.11    2.97
   3  -8  -1   80.70    2.61
  -3   8   1   78.44    2.60
   2  -8  -1   77.72    2.79
   2  -8  -1   79.00    2.77
   2  -8  -1   75.41    2.77
   2  -8  -1   75.55    2.85
   2  -8  -1   77.50    2.46
  -2   8   1   76.40    2.46
   1  -8  -1   -0.30    0.38
   1  -8  -1    0.09    0.46
   1  -8  -1    0.31    0.28
   1  -8  -1    0.39    0.28
  -1   8   1    0.21    0.26
   0  -8  -1   68.72    2.39
   0  -8  -1   61.51    2.14
   0  -8  -1   66.55    2.48
   0   8   1   61.50    2.14
  -1  -8  -1   86.00    2.82
  -1  -8  -1   91.74    3.35
   1   8   1   83.53    2.81
  -2  -8  -1   29.32    1.23
  -2  -8  -1   31.19    1.40
   2   8   1   31.13    1.20
  -3  -8  -1   29.63    1.25
   3   8   1   32.77    1.28
  -4  -8  -1    8.68    0.69
   8  -9  -1   14.33    0.86
   8  -9  -1   13.89    0.86
  -8   9   1   13.93    0.68
   7  -9  -1    6.78    0.57
   7  -9  -1    8.81    0.74
  -7   9   1    7.64    0.52
  -7   9   1    8.34    0.82
   6  -9  -1    0.27    0.43
   6  -9  -1   -0.31    0.39
  -6   9   1    0.43    0.49
  -6   9   1    0.37    0.27
   5  -9  -1   25.21    1.17
   5  -9  -1   25.09    1.16
  -5   9   1   24.35    0.96
  -5   9   1   24.53    1.27
   4  -9  -1   44.93    1.50
   4  -9  -1   43.22    1.74
   4  -9  -1   44.17    1.75
  -4   9   1   43.03    1.51
   3  -9  -1  110.57    3.84
   3  -9  -1  107.65    3.83
   3  -9  -1  110.64    3.41
  -3   9   1  106.07    3.40
   2  -9  -1  115.56    3.71
   2  -9  -1  125.38    4.20
   2  -9  -1  122.07    4.18
  -2   9   1  111.68    3.70
   1  -9  -1   51.60    1.91
   1  -9  -1   49.70    1.75
  -1   9   1   50.87    1.76
   0  -9  -1    1.36    0.37
   0   9   1    1.53    0.38
  -1  -9  -1   23.21    1.03
   1   9   1   22.45    0.99
  -2  -9  -1   13.15    0.77
   2   9   1   13.21    0.82
  -3  -9  -1   22.67    1.08
   3   9   1   20.78    1.06
   7 -10  -1   28.66    1.31
   7 -10  -1   27.94    1.31
  -7  10   1   28.32    1.50
  -7  10   1   28.37    1.10
   6 -10  -1   25.35    1.19
   6 -10  -1   24.49    1.24
  -6  10   1   24.76    1.01
  -6  10   1   25.50    1.39
   5 -10  -1    1.07    0.46
   5 -10  -1    0.55    0.49
  -5  10   1    0.39    0.33
   4 -10  -1    4.04    0.58
  -4  10   1    4.66    0.43
   3 -10  -1   46.25    1.63
   3 -10  -1   49.15    1.93
  -3  10   1   44.31    1.63
   2 -10  -1   90.19    2.87
  -2  10   1   86.78    2.87
   1 -10  -1   20.81    0.91
  -1  10   1   18.55    0.89
   0 -10  -1    6.63    0.57
   0  10   1    6.90    0.58
  -1 -10  -1    0.23    0.41
   1  10   1   -0.18    0.37
  -2 -10  -1    3.19    0.54
   2  10   1    3.02    0.54
   6 -11  -1   24.76    1.26
  -6  11   1   22.87    1.01
   5 -11  -1   12.59    0.98
  -5  11   1   11.84    0.71
   4 -11  -1    0.21    0.56
  -4  11   1   -0.06    0.32
  -3  11   1    4.13    0.49
   2 -11  -1   27.61    1.17
  -2  11   1   28.08    1.16
   1 -11  -1   16.55    0.92
  -1  11   1   18.03    0.89
   0 -11  -1   27.25    1.17
   0  11   1   25.61    1.19
  -4  12   1   12.24    0.79
  -3  12   1    5.01    0.57
   2 -12  -1    1.57    0.47
  -2  12   1    1.88    0.46
   0  12  -2   42.97    1.62
   0 -12   2   40.49    1.64
  -1  12  -2   61.49    2.19
   1 -12   2   63.89    2.21
  -2  12  -2    5.96    0.56
   2 -12   2    6.91    0.62
  -3  12  -2   -0.58    0.37
  -4  12  -2    9.13    0.69
  -5  12  -2   20.48    0.99
   5 -12   2   21.60    1.33
   2  11  -2    0.41    0.43
  -2 -11   2    0.23    0.42
   1  11  -2    9.29    0.69
  -1 -11   2    8.60    0.68
   0  11  -2   44.18    1.68
   0 -11   2   46.46    1.70
  -1  11  -2   96.74    3.23
   1 -11   2  103.18    3.26
  -2  11  -2   32.54    1.28
   2 -11   2   33.75    1.29
  -3  11  -2   18.28    0.90
   3 -11   2   21.79    1.24
   3 -11   2   19.15    0.94
  -4  11  -2    9.47    0.80
  -4  11  -2   10.56    0.67
   4 -11   2    9.14    0.85
  -5  11  -2    1.59    0.39
  -5  11  -2    2.32    0.51
   5 -11   2    0.66    0.59
  -6  11  -2    6.65    0.56
  -6  11  -2    7.48    0.75
   6 -11   2    7.02    0.79
   3  10  -2   37.87    1.47
  -3 -10   2   34.29    1.43
   2  10  -2   37.10    1.44
  -2 -10   2   35.71    1.44
   1  10  -2    3.58    0.45
  -1 -10   2    2.46    0.43
   0  10  -2    1.35    0.36
   0 -10   2    1.10    0.38
  -1  10  -2   32.77    1.26
   1 -10   2   33.13    1.26
  -2  10  -2   44.74    1.57
   2 -10   2   41.78    1.82
   2 -10   2   46.83    1.59
  -3  10  -2   49.05    1.71
   3 -10   2   46.57    2.10
   3 -10   2   50.37    2.01
   3 -10   2   51.20    1.73
  -4  10  -2   96.03    3.56
  -4  10  -2   93.70    3.08
   4 -10   2   97.20    3.49
   4 -10   2   96.27    3.83
   4 -10   2  102.35    3.54
  -5  10  -2   12.68    0.85
  -5  10  -2   13.13    0.68
   5 -10   2   11.30    0.86
   5 -10   2   12.12    0.97
   5 -10   2   13.38    0.87
  -6  10  -2    1.72    0.51
  -6  10  -2    1.46    0.36
   6 -10   2    1.87    0.61
   6 -10   2    0.84    0.50
  -7  10  -2    9.44    0.89
  -7  10  -2   12.04    0.70
   7 -10   2   12.47    0.99
   7 -10   2   11.06    0.89
  -4  -9   2    5.82    0.56
   3   9  -2   42.35    1.54
  -3  -9   2   38.60    1.51
   2   9  -2  149.49    4.60
  -2  -9   2  144.95    4.60
   1   9  -2   53.85    1.86
  -1  -9   2   54.52    1.88
   0   9  -2    7.34    0.57
   0  -9   2    8.00    0.54
  -1   9  -2    0.17    0.27
   1  -9   2   -0.48    0.44
   1  -9   2   -0.28    0.49
   1  -9   2    0.16    0.28
  -2   9  -2   20.97    0.86
   2  -9   2   21.39    1.05
   2  -9   2   20.44    0.90
   2  -9   2   21.59    1.17
  -3   9  -2   61.55    2.34
  -3   9  -2   63.74    2.06
   3  -9   2   63.44    2.35
   3  -9   2   63.92    2.09
   3  -9   2   57.95    2.57
   3  -9   2   65.07    2.39
  -4   9  -2  145.51    5.23
  -4   9  -2  143.90    4.53
   4  -9   2  153.24    4.53
   4  -9   2  148.87    5.12
   4  -9   2  149.63    5.07
   4  -9   2  142.78    5.64
  -5   9  -2   49.56    2.04
  -5   9  -2   50.78    1.70
   5  -9   2   52.08    1.94
   5  -9   2   49.97    2.03
   5  -9   2   49.74    2.16
  -6   9  -2    4.98    0.43
  -6   9  -2    4.66    0.59
   6  -9   2    4.25    0.66
   6  -9   2    4.20    0.60
   6  -9   2    4.69    0.55
  -7   9  -2    0.81    0.50
  -7   9  -2    0.97    0.36
   7  -9   2    1.20    0.47
   7  -9   2    1.22    0.59
  -5  -8   2    3.90    0.52
   4   8  -2    2.95    0.46
  -4  -8   2    3.13    0.43
   3   8  -2    3.56    0.60
   3   8  -2    3.13    0.43
  -3  -8   2    2.92    0.40
   2   8  -2   76.73    2.77
   2   8  -2   73.67    2.43
  -2  -8   2   72.31    2.42
   1   8  -2   90.10    3.22
   1   8  -2   87.71    2.85
   1   8  -2   90.58    3.22
  -1  -8   2   89.37    2.86
   0   8  -2   42.95    1.70
   0   8  -2   42.60    1.71
   0   8  -2   40.56    1.43
   0  -8   2   39.09    1.65
   0  -8   2   42.61    1.65
   0  -8   2   41.41    1.46
  -1   8  -2   47.88    1.85
  -1   8  -2   48.17    1.64
   1  -8   2   51.58    1.88
   1  -8   2   48.46    1.66
   1  -8   2   48.43    1.89
  -2   8  -2    3.48    0.36
  -2   8  -2    3.10    0.34
   2  -8   2    2.77    0.48
   2  -8   2    2.55    0.45
   2  -8   2    2.81    0.34
  -3   8  -2   29.25    1.06
  -3   8  -2   29.64    1.23
   3  -8   2   29.34    1.29
   3  -8   2   28.12    1.40
   3  -8   2   32.11    1.11
   3  -8   2   29.01    1.36
  -4   8  -2  136.15    4.82
  -4   8  -2  132.85    4.15
   4  -8   2  139.93    4.72
   4  -8   2  135.78    4.66
   4  -8   2  132.51    4.14
   4  -8   2  136.74    5.22
  -5   8  -2   98.46    3.15
  -5   8  -2   99.62    3.70
   5  -8   2  102.70    3.53
   5  -8   2  106.35    3.61
   5  -8   2   98.84    3.99
  -6   8  -2   30.97    1.44
  -6   8  -2   30.94    1.14
   6  -8   2   32.40    1.55
   6  -8   2   29.75    1.31
   6  -8   2   31.36    1.41
  -7   8  -2   38.50    1.36
  -7   8  -2   34.85    1.67
   7  -8   2   36.51    1.54
   7  -8   2   39.31    1.62
  -8   8  -2    0.12    0.34
   8  -8   2    0.25    0.58
   8  -8   2   -0.05    0.49
   5   7  -2   30.00    1.44
  -5  -7   2   26.25    1.11
   4   7  -2   16.76    0.79
   4   7  -2   16.78    1.06
  -4  -7   2   14.86    0.78
   3   7  -2    0.04    0.39
   3   7  -2    0.16    0.43
   3   7  -2    0.85    0.32
  -3  -7   2    0.51    0.31
   2   7  -2    9.82    0.83
   2   7  -2    9.09    0.59
   2   7  -2    8.98    0.72
  -2  -7   2    9.06    0.78
  -2  -7   2    9.90    0.55
   1   7  -2  136.38    4.38
   1   7  -2  145.43    4.91
   1   7  -2  147.07    4.93
  -1  -7   2  146.56    4.90
  -1  -7   2  139.96    4.39
   0   7  -2  157.49    5.24
   0   7  -2  148.85    4.68
   0  -7   2  152.09    4.69
   0  -7   2  156.72    5.24
   0  -7   2  154.26    5.24
  -1   7  -2  347.78   11.32
  -1   7  -2  336.03   10.17
   1  -7   2  353.09   11.35
   1  -7   2  327.86   10.18
   1  -7   2  341.01   11.34
  -2   7  -2  144.57    4.47
  -2   7  -2  143.80    5.10
   2  -7   2  146.40    4.50
   2  -7   2  151.13    5.01
   2  -7   2  150.17    5.04
  -3   7  -2    1.25    0.23
  -3   7  -2    1.02    0.27
   3  -7   2    0.98    0.26
   3  -7   2    0.31    0.46
   3  -7   2    0.67    0.35
   3  -7   2    0.50    0.40
  -4   7  -2   18.84    0.78
  -4   7  -2   21.62    0.85
  -4   7  -2   19.64    0.96
   4  -7   2   21.58    1.13
   4  -7   2   20.56    1.09
   4  -7   2   20.40    0.95
   4  -7   2   21.48    0.76
  -5   7  -2   81.82    2.61
  -5   7  -2   87.66    2.67
  -5   7  -2   79.50    3.09
   5  -7   2   84.52    3.01
   5  -7   2   83.15    3.35
   5  -7   2   83.57    2.93
  -6   7  -2   43.68    1.86
  -6   7  -2   45.84    1.53
   6  -7   2   48.90    2.06
   6  -7   2   43.32    1.79
   6  -7   2   44.10    1.73
  -7   7  -2   69.89    2.24
  -7   7  -2   67.26    2.73
   7  -7   2   72.02    2.58
   7  -7   2   66.45    2.51
  -8   7  -2   22.20    0.96
   8  -7   2   22.58    1.14
   8  -7   2   23.40    1.20
   6   6  -2   11.43    0.91
  -6  -6   2    8.90    0.64
   5   6  -2   78.38    2.81
  -5  -6   2   71.48    2.44
   4   6  -2  141.21    4.28
   4   6  -2  137.39    4.77
   4   6  -2  143.30    4.83
  -4  -6   2  132.60    4.28
   3   6  -2   53.67    1.81
   3   6  -2   58.30    2.13
   3   6  -2   54.91    2.07
  -3  -6   2   53.10    1.81
   2   6  -2    7.10    0.60
   2   6  -2    5.86    0.53
   2   6  -2    5.69    0.45
  -2  -6   2    6.71    0.51
  -2  -6   2    6.34    0.45
   1   6  -2   47.48    1.51
   1   6  -2   47.39    1.73
   1   6  -2   46.94    1.73
  -1  -6   2   46.82    1.51
  -1  -6   2   38.75    1.68
  -1  -6   2   45.45    1.71
   0   6  -2  281.29    8.29
   0   6  -2  286.69    9.24
   0  -6   2  271.94    8.29
   0  -6   2  268.23    9.23
   0  -6   2  279.64    9.24
  -1   6  -2  438.13   13.12
  -1   6  -2  449.37   14.66
  -1   6  -2  431.53   15.11
   1  -6   2  448.13   13.17
   1  -6   2  444.18   14.63
   1  -6   2  431.59   14.66
  -2   6  -2  221.13    6.62
  -2   6  -2  225.91    7.59
   2  -6   2  219.19    7.41
   2  -6   2  220.11    7.38
   2  -6   2  219.44    6.65
  -3   6  -2   36.04    1.18
  -3   6  -2   31.79    1.31
  -3   6  -2   34.21    1.13
   3  -6   2   33.53    1.38
   3  -6   2   32.81    1.15
   3  -6   2   32.70    1.48
   3  -6   2   33.51    1.29
  -4   6  -2   15.56    0.65
  -4   6  -2   17.48    0.74
   4  -6   2   16.77    0.93
   4  -6   2   17.11    0.56
   4  -6   2   17.47    0.99
   4  -6   2   17.08    0.81
  -5   6  -2    0.66    0.23
  -5   6  -2    1.32    0.28
   5  -6   2    0.55    0.50
   5  -6   2    0.73    0.42
   5  -6   2    0.61    0.36
  -6   6  -2   18.90    0.78
   6  -6   2   19.35    0.93
   6  -6   2   18.48    1.09
   6  -6   2   18.68    0.98
  -7   6  -2   53.27    1.80
   7  -6   2   52.57    2.03
   7  -6   2   56.08    2.06
  -8   6  -2   42.82    1.49
  -8   6  -2   43.09    1.48
   8  -6   2   42.43    1.73
   8  -6   2   41.34    1.73
   7   5  -2    0.01    0.55
  -7  -5   2    0.08    0.34
   6   5  -2    2.81    0.57
   6   5  -2    3.18    0.51
  -6  -5   2    3.25    0.39
   5   5  -2   89.09    3.10
   5   5  -2   85.81    3.06
  -5  -5   2   82.85    2.73
   4   5  -2  197.83    6.06
   4   5  -2  199.02    6.75
   4   5  -2  211.39    6.80
  -4  -5   2  193.59    6.06
   3   5  -2  115.37    3.53
   3   5  -2  111.90    3.93
   3   5  -2  117.29    3.99
  -3  -5   2  114.58    3.53
   2   5  -2   99.53    3.34
   2   5  -2   97.76    3.37
   2   5  -2   94.94    2.98
  -2  -5   2   95.52    3.31
  -2  -5   2   95.50    2.98
   1   5  -2   22.51    0.95
   1   5  -2   21.97    0.80
   1   5  -2   22.73    0.95
  -1  -5   2   21.95    0.96
  -1  -5   2   20.63    0.91
  -1  -5   2   21.75    0.79
   0   5  -2   13.33    0.70
   0   5  -2   13.48    0.54
   0  -5   2   13.81    0.68
   0  -5   2   12.72    0.69
  -1   5  -2  132.43    4.07
  -1   5  -2  136.02    4.57
  -1   5  -2  143.32    4.09
  -1   5  -2  137.37    4.62
  -1   5  -2  132.62    4.53
   1  -5   2  128.29    4.55
   1  -5   2  133.78    4.09
   1  -5   2  134.36    4.54
  -2   5  -2  225.94    6.80
  -2   5  -2  233.49    6.76
   2  -5   2  221.22    6.75
   2  -5   2  221.53    7.49
   2  -5   2  224.66    7.53
  -3   5  -2   23.49    0.88
  -3   5  -2   24.13    0.83
   3  -5   2   24.08    1.08
   3  -5   2   24.05    0.83
   3  -5   2   23.24    0.94
   3  -5   2   23.54    1.14
   3  -5   2   23.59    0.78
  -4   5  -2  141.36    4.21
  -4   5  -2  138.33    4.17
   4  -5   2  136.43    4.64
   4  -5   2  140.19    4.70
   4  -5   2  133.33    5.27
  -5   5  -2   56.87    1.82
  -5   5  -2   55.06    1.79
   5  -5   2   57.01    2.07
   5  -5   2   53.40    2.02
   5  -5   2   57.20    2.35
  -6   5  -2    0.57    0.25
   6  -5   2    0.45    0.42
   6  -5   2    1.52    0.46
   6  -5   2    1.07    0.39
  -7   5  -2   20.77    0.85
  -7   5  -2   22.99    0.87
   7  -5   2   20.19    1.06
   7  -5   2   21.77    1.04
  -8   5  -2   51.71    1.72
   8  -5   2   51.01    1.95
   8  -5   2   49.35    1.96
   7   4  -2   29.10    1.32
   7   4  -2   27.67    1.30
  -7  -4   2   27.50    1.10
   6   4  -2    7.51    0.63
   6   4  -2    8.58    0.73
  -6  -4   2    7.31    0.51
   5   4  -2   -0.14    0.35
   5   4  -2    0.33    0.22
   5   4  -2   -0.03    0.41
  -5  -4   2    0.00    0.23
   4   4  -2   70.46    2.51
   4   4  -2   68.00    2.46
   4   4  -2   70.15    2.20
  -4  -4   2   69.15    2.20
   3   4  -2   32.09    1.28
   3   4  -2   32.78    1.13
   3   4  -2   34.77    1.33
  -3  -4   2   32.84    1.11
   2   4  -2  206.14    7.00
   2   4  -2  219.62    7.05
   2   4  -2  205.38    6.30
  -2  -4   2  206.43    6.30
  -2  -4   2  209.27    6.99
  -2  -4   2  217.05    6.31
   1   4  -2  316.14   10.14
   1   4  -2  306.31   10.28
   1   4  -2  294.46    9.23
  -1  -4   2  302.83   10.12
  -1  -4   2  313.67    9.09
  -1  -4   2  306.42   10.16
  -1  -4   2  301.39    9.09
   0   4  -2   47.67    1.68
   0   4  -2   46.40    1.62
   0  -4   2   47.66    1.69
   0  -4   2   46.88    1.67
   0  -4   2   47.22    1.50
  -1   4  -2   48.19    1.76
  -1   4  -2   52.08    1.59
  -1   4  -2   52.08    1.57
  -1   4  -2   48.87    1.81
   1  -4   2   49.23    1.60
   1  -4   2   51.15    1.57
   1  -4   2   50.42    1.78
   1  -4   2   48.47    1.80
  -2   4  -2  231.35    6.80
  -2   4  -2  229.22    6.83
   2  -4   2  224.16    7.57
   2  -4   2  226.43    7.53
   2  -4   2  232.25    6.84
   2  -4   2  220.42    6.78
  -3   4  -2  265.51    7.82
  -3   4  -2  269.14    8.32
  -3   4  -2  273.58    7.77
   3  -4   2  262.19    9.70
   3  -4   2  261.06    7.72
   3  -4   2  240.57    7.71
   3  -4   2  250.88    8.62
   3  -4   2  261.55    8.64
  -4   4  -2  284.23    8.60
  -4   4  -2  296.57    9.27
  -4   4  -2  296.52    8.61
   4  -4   2  283.31    9.57
   4  -4   2  294.02    9.58
   4  -4   2  280.12   10.77
  -5   4  -2  224.87    7.00
  -5   4  -2  243.95    7.00
   5  -4   2  227.59    7.79
   5  -4   2  238.46    8.81
   5  -4   2  234.58    7.79
  -6   4  -2    6.50    0.41
  -6   4  -2    5.14    0.41
  -6   4  -2    5.95    0.68
   6  -4   2    5.43    0.64
   6  -4   2    5.49    0.48
   6  -4   2    5.01    0.50
  -7   4  -2    1.63    0.29
   7  -4   2    1.68    0.44
   7  -4   2    1.66    0.43
  -8   4  -2   11.57    0.62
   8  -4   2   10.96    0.85
   8  -4   2   11.79    0.80
   8   3  -2   18.69    1.02
   8   3  -2   17.51    1.04
  -8  -3   2   18.70    1.03
  -8  -3   2   19.00    0.83
   7   3  -2   89.30    3.16
   7   3  -2   88.33    3.18
  -7  -3   2   90.38    2.83
   6   3  -2   40.20    1.57
   6   3  -2   39.68    1.55
  -6  -3   2   39.98    1.36
  -6  -3   2   40.36    1.86
   5   3  -2   19.18    0.89
   5   3  -2   19.46    0.94
   5   3  -2   19.81    0.65
  -5  -3   2   21.59    0.79
  -5  -3   2   19.46    0.75
   4   3  -2    0.83    0.35
   4   3  -2    0.18    0.30
   4   3  -2    0.87    0.19
  -4  -3   2    0.74    0.19
  -4  -3   2    1.14    0.20
   3   3  -2   59.59    2.12
   3   3  -2   59.39    1.91
   3   3  -2   63.33    2.17
  -3  -3   2   62.72    1.91
  -3  -3   2   60.22    1.90
   2   3  -2  158.34    4.70
   2   3  -2  163.82    5.29
   2   3  -2  155.29    5.25
   2   3  -2  155.85    4.73
  -2  -3   2  151.62    5.23
  -2  -3   2  162.53    4.73
  -2  -3   2  156.14    4.72
   1   3  -2  638.93   20.34
   1   3  -2  694.31   22.62
   1   3  -2  687.86   20.24
   1   3  -2  689.65   22.50
  -1  -3   2  705.25   22.51
  -1  -3   2  662.28   22.51
  -1  -3   2  665.36   20.22
  -1  -3   2  663.64   20.24
   0   3  -2  286.58    8.11
   0   3  -2  275.73    9.14
   0   3  -2  274.36    8.22
   0  -3   2  270.58    8.26
   0  -3   2  267.85    8.18
   0  -3   2  267.04    8.98
   0  -3   2  259.49    8.97
  -1   3  -2   32.27    1.21
  -1   3  -2   33.38    1.08
  -1   3  -2   32.36    1.27
  -1   3  -2   34.94    1.11
   1  -3   2   32.16    1.10
   1  -3   2   34.42    1.29
   1  -3   2   34.87    1.07
   1  -3   2   34.73    1.24
  -2   3  -2    6.32    0.37
  -2   3  -2    6.98    0.34
  -2   3  -2    7.25    0.36
   2  -3   2    6.92    0.34
   2  -3   2    6.81    0.56
   2  -3   2    6.87    0.31
   2  -3   2    7.42    0.44
   2  -3   2    7.48    0.52
  -3   3  -2  175.59    5.18
  -3   3  -2  174.79    5.18
  -3   3  -2  173.93    5.60
   3  -3   2  170.53    5.77
   3  -3   2  174.87    5.11
   3  -3   2  172.30    6.50
   3  -3   2  168.61    5.76
  -4   3  -2  224.04    8.26
  -4   3  -2  217.89    6.59
  -4   3  -2  223.23    7.12
  -4   3  -2  225.43    6.58
   4  -3   2  210.31    7.33
   4  -3   2  214.95    8.26
   4  -3   2  226.78    7.32
  -5   3  -2  232.80    6.66
  -5   3  -2  219.19    7.24
  -5   3  -2  216.73    6.66
  -5   3  -2  223.52    6.67
  -5   3  -2  232.33    8.41
   5  -3   2  212.59    7.43
   5  -3   2  219.26    8.39
   5  -3   2  225.23    7.40
  -6   3  -2   30.78    1.11
  -6   3  -2   33.40    1.60
   6  -3   2   31.49    1.25
   6  -3   2   31.73    1.30
  -7   3  -2   13.17    0.63
   7  -3   2   13.35    0.76
   7  -3   2   13.67    0.84
  -8   3  -2    4.65    0.40
   8  -3   2    4.85    0.53
   8  -3   2    4.40    0.57
   8   2  -2    6.67    0.60
   8   2  -2    7.64    0.60
  -8  -2   2    7.51    0.66
  -8  -2   2    7.52    0.50
   7   2  -2   64.96    2.37
   7   2  -2   65.86    2.36
  -7  -2   2   66.41    2.10
   6   2  -2   45.14    1.66
   6   2  -2   45.77    1.70
  -6  -2   2   45.73    1.48
  -6  -2   2   45.44    2.00
   5   2  -2   18.16    0.86
   5   2  -2   16.96    0.78
  -5  -2   2   17.13    0.65
  -5  -2   2   17.96    0.67
   4   2  -2   39.23    1.17
   4   2  -2   37.01    1.37
   4   2  -2   38.16    1.16
   4   2  -2   37.85    1.43
  -4  -2   2   37.88    1.22
  -4  -2   2   39.17    1.24
   3   2  -2   16.06    0.66
   3   2  -2   16.35    0.54
   3   2  -2   15.59    0.57
   3   2  -2   15.77    0.74
  -3  -2   2   16.45    0.57
  -3  -2   2   16.40    0.58
   2   2  -2  146.05    4.31
   2   2  -2  144.26    4.34
   2   2  -2  144.98    4.81
   2   2  -2  144.32    4.85
  -2  -2   2  140.19    4.79
  -2  -2   2  145.79    5.00
  -2  -2   2  145.09    4.32
  -2  -2   2  148.36    4.34
   1   2  -2  599.52   16.84
   1   2  -2  531.63   17.80
   1   2  -2  569.19   18.77
   1   2  -2  515.63   16.79
   1   2  -2  621.69   19.17
   1   2  -2  597.11   18.73
  -1  -2   2  602.90   18.70
  -1  -2   2  499.46   16.84
  -1  -2   2  516.88   18.69
  -1  -2   2  564.40   16.84
   0   2  -2  381.20   11.55
   0   2  -2  394.89   12.88
   0   2  -2  380.92   12.34
   0   2  -2  395.75   11.50
   0  -2   2  382.33   11.63
   0  -2   2  367.48   12.36
   0  -2   2  389.96   12.88
   0  -2   2  368.17   11.58
  -1   2  -2  397.55   12.91
  -1   2  -2  415.63   11.66
  -1   2  -2  366.09   11.73
  -1   2  -2  376.04   12.46
  -1   2  -2  379.21   12.90
   1  -2   2  420.53   13.09
   1  -2   2  394.92   11.70
   1  -2   2  386.33   13.00
   1  -2   2  359.58   12.52
   1  -2   2  380.59   11.58
  -2   2  -2  271.03    8.98
  -2   2  -2  275.12    8.11
  -2   2  -2  279.35    8.09
  -2   2  -2  259.61    8.64
   2  -2   2  266.89    8.97
   2  -2   2  266.15   10.04
   2  -2   2  269.22    9.03
   2  -2   2  282.03    8.13
   2  -2   2  274.61    8.14
  -3   2  -2   11.03    0.46
  -3   2  -2   11.85    0.68
  -3   2  -2   10.66    0.55
  -3   2  -2   11.32    0.45
   3  -2   2   10.95    0.61
   3  -2   2   10.45    0.63
   3  -2   2   10.87    0.39
   3  -2   2   11.38    0.56
  -4   2  -2    0.93    0.17
  -4   2  -2    1.28    0.28
  -4   2  -2    1.06    0.20
  -4   2  -2    1.24    0.38
   4  -2   2    0.82    0.33
   4  -2   2    1.43    0.32
   4  -2   2    1.19    0.27
  -5   2  -2   71.94    2.31
  -5   2  -2   77.16    2.29
  -5   2  -2   75.12    3.01
  -5   2  -2   73.27    2.59
   5  -2   2   74.37    2.56
   5  -2   2   72.65    2.62
   5  -2   2   72.56    2.99
  -6   2  -2   56.64    2.31
  -6   2  -2   52.13    1.70
   6  -2   2   50.47    1.88
   6  -2   2   49.74    1.95
  -7   2  -2   34.64    1.21
   7  -2   2   34.27    1.45
   7  -2   2   33.35    1.36
  -8   2  -2   35.58    1.27
   8  -2   2   35.94    1.49
   8  -2   2   34.04    1.45
   8   1  -2    0.67    0.37
   8   1  -2    0.68    0.37
  -8  -1   2    0.83    0.27
  -8  -1   2    0.53    0.39
   7   1  -2   10.05    0.64
   7   1  -2   11.99    0.67
  -7  -1   2   11.52    0.52
  -7  -1   2   11.24    0.75
   6   1  -2   44.41    1.64
   6   1  -2   45.60    1.68
  -6  -1   2   47.10    1.56
  -6  -1   2   44.66    2.00
  -6  -1   2   48.46    1.47
  -6  -1   2   45.72    1.46
   5   1  -2  165.02    5.68
   5   1  -2  169.96    5.72
  -5  -1   2  177.12    5.11
  -5  -1   2  173.42    5.11
  -5  -1   2  170.81    5.44
   4   1  -2  310.72   10.40
   4   1  -2  308.06   10.43
  -4  -1   2  326.41    9.35
  -4  -1   2  308.82    9.89
  -4  -1   2  316.89    9.35
   3   1  -2  206.71    6.94
   3   1  -2  205.98    6.95
  -3  -1   2  208.67    7.21
  -3  -1   2  215.51    6.20
  -3  -1   2  207.40    6.26
   2   1  -2  282.80    8.14
   2   1  -2  263.74    8.13
   2   1  -2  269.18    9.09
   2   1  -2  269.29    8.12
  -2  -1   2  276.90    8.20
  -2  -1   2  273.66    9.01
  -2  -1   2  279.60    8.16
  -2  -1   2  260.28    9.00
  -2  -1   2  280.39    9.49
   1   1  -2  109.41    3.20
   1   1  -2  104.79    3.57
   1   1  -2  105.40    3.20
   1   1  -2  108.86    3.58
   1   1  -2  109.33    3.70
  -1  -1   2  105.44    3.56
  -1  -1   2  107.97    3.20
  -1  -1   2  104.64    3.42
  -1  -1   2  106.17    3.20
  -1  -1   2  103.90    3.55
   0   1  -2  304.02   10.07
   0   1  -2  308.49    9.63
   0   1  -2  314.17    9.03
   0   1  -2  299.85    9.06
   0   1  -2  291.80    9.02
   0  -1   2  285.01   10.01
   0  -1   2  303.88    9.14
   0  -1   2  296.95    9.67
  -1   1  -2  254.02    8.58
  -1   1  -2  250.22    7.72
  -1   1  -2  267.95    7.82
  -1   1  -2  262.99    8.27
  -1   1  -2  261.67    7.75
  -1   1  -2  258.35    8.67
   1  -1   2  245.33    8.27
   1  -1   2  265.43    8.63
   1  -1   2  252.27    7.84
   1  -1   2  253.49    8.58
   1  -1   2  269.74    9.84
   1  -1   2  261.08    7.70
  -2   1  -2  599.11   21.68
  -2   1  -2  581.72   19.09
  -2   1  -2  554.51   17.29
  -2   1  -2  580.34   17.21
  -2   1  -2  554.40   18.39
   2  -1   2  572.04   19.19
   2  -1   2  578.65   17.23
   2  -1   2  569.22   21.60
   2  -1   2  550.88   18.44
   2  -1   2  603.26   17.22
   2  -1   2  591.24   19.19
  -3   1  -2   89.32    2.90
  -3   1  -2   88.05    2.63
  -3   1  -2   87.80    3.35
  -3   1  -2   86.58    2.65
   3  -1   2   90.79    2.63
   3  -1   2   87.71    2.94
   3  -1   2   80.32    2.88
   3  -1   2   83.40    2.97
   3  -1   2   84.54    3.34
   3  -1   2   89.02    2.60
  -4   1  -2    2.18    0.20
  -4   1  -2    2.25    0.40
  -4   1  -2    1.83    0.31
  -4   1  -2    2.16    0.23
   4  -1   2    1.58    0.37
   4  -1   2    2.25    0.37
   4  -1   2    1.81    0.31
  -5   1  -2    1.76    0.26
  -5   1  -2    2.19    0.24
  -5   1  -2    1.86    0.36
  -5   1  -2    1.94    0.51
   5  -1   2    1.64    0.36
   5  -1   2    2.19    0.45
  -6   1  -2   42.06    1.45
  -6   1  -2   44.31    1.98
   6  -1   2   42.53    1.66
   6  -1   2   43.22    1.62
   6  -1   2   43.41    1.68
  -7   1  -2   45.86    1.58
   7  -1   2   47.75    1.79
   7  -1   2   46.84    1.82
  -8   1  -2   45.40    1.54
   8  -1   2   45.34    1.77
   8  -1   2   42.23    1.78
   8   0  -2   20.74    0.91
   8   0  -2   20.82    0.92
  -8   0   2   21.55    1.12
  -8   0   2   22.63    0.80
   7   0  -2    6.55    0.46
   7   0  -2    6.49    0.49
  -7   0   2    6.97    0.37
  -7   0   2    6.62    0.58
  -7   0   2    6.78    0.69
   6   0  -2    2.87    0.27
   6   0  -2    3.57    0.33
  -6   0   2    2.60    0.39
  -6   0   2    2.86    0.50
  -6   0   2    3.32    0.25
  -6   0   2    3.36    0.26
  -6   0   2    3.38    0.32
   5   0  -2   95.66    3.26
   5   0  -2   96.48    3.30
  -5   0   2   96.76    3.50
  -5   0   2   99.49    2.93
  -5   0   2  102.14    2.95
  -5   0   2   98.57    3.20
   4   0  -2  689.91   23.46
  -4   0   2  721.05   24.87
  -4   0   2  696.73   21.15
  -4   0   2  751.74   21.16
  -3   0   2  275.88    8.25
  -3   0   2  287.85    8.28
  -3   0   2  271.88    8.25
  -3   0   2  279.04    9.62
   2   0  -2   10.43    0.41
   2   0  -2   10.46    0.42
   2   0  -2   10.72    0.45
  -2   0   2   10.86    0.46
  -2   0   2   10.57    0.36
  -2   0   2   10.88    0.36
   1   0  -2   71.99    2.45
   1   0  -2   74.80    2.20
   1   0  -2   73.58    2.54
   1   0  -2   72.49    2.19
  -1   0   2   74.42    2.19
  -1   0   2   67.92    2.46
  -1   0   2   74.43    2.44
  -1   0   2   70.89    2.20
   0   0  -2   11.15    0.40
   0   0  -2   10.59    0.53
   0   0  -2    9.89    0.39
   0   0   2   10.46    0.49
   0   0   2   10.56    0.41
  -1   0  -2   63.38    1.88
  -1   0  -2   63.28    2.10
  -1   0  -2   59.66    1.88
  -1   0  -2   58.29    2.11
  -1   0  -2   63.58    2.36
   1   0   2   60.94    2.11
   1   0   2   61.41    2.35
   1   0   2   61.99    2.04
   1   0   2   62.51    1.88
   1   0   2   61.50    1.87
   1   0   2   59.81    2.09
  -2   0  -2  330.49   10.21
  -2   0  -2  329.37   11.24
  -2   0  -2  334.27   10.72
  -2   0  -2  340.47   12.64
  -2   0  -2  344.06   10.19
   2   0   2  323.48   11.24
   2   0   2  341.77   10.17
   2   0   2  335.79   10.82
   2   0   2  348.17   11.35
   2   0   2  353.95   10.20
  -3   0  -2  209.00    6.09
  -3   0  -2  208.35    7.63
  -3   0  -2  204.57    6.12
  -3   0  -2  202.13    6.56
   3   0   2  202.78    6.09
   3   0   2  202.70    6.59
   3   0   2  209.19    6.79
   3   0   2  201.22    6.82
   3   0   2  198.21    7.62
   3   0   2  204.93    6.09
   3   0   2  206.40    6.07
  -4   0  -2   32.24    1.49
  -4   0  -2   32.40    1.13
  -4   0  -2   33.64    1.28
  -4   0  -2   33.01    1.10
   4   0   2   33.41    1.28
   4   0   2   32.45    1.26
   4   0   2   32.70    1.32
   4   0   2   35.45    1.09
   4   0   2   32.44    1.34
  -5   0  -2   11.50    0.57
  -5   0  -2   12.87    0.96
  -5   0  -2   12.18    0.57
   5   0   2   11.58    0.71
   5   0   2   11.25    0.77
  -6   0  -2    0.36    0.28
  -6   0  -2    1.51    0.57
   6   0   2    1.13    0.43
   6   0   2    0.32    0.39
  -7   0  -2   12.03    0.66
   7   0   2   11.25    0.81
   7   0   2   12.18    0.80
   9  -1  -2   27.95    1.12
   9  -1  -2   28.87    1.12
   8  -1  -2   32.99    1.23
   8  -1  -2   32.01    1.21
  -8   1   2   35.07    1.52
  -8   1   2   34.23    1.09
   7  -1  -2   46.15    1.69
   7  -1  -2   48.67    1.71
  -7   1   2   49.89    1.79
  -7   1   2   48.67    1.96
  -7   1   2   51.67    1.52
  -7   1   2   52.49    2.19
  -6   1   2    5.65    0.60
  -6   1   2    7.03    0.27
  -6   1   2    7.34    0.29
  -6   1   2    5.71    0.48
  -6   1   2    6.23    0.53
  -5   1   2    0.78    0.26
  -5   1   2    0.66    0.34
  -4   1   2  119.61    4.15
  -4   1   2  116.79    4.47
  -3   1   2  164.78    5.68
   2  -1  -2   10.52    0.41
   2  -1  -2   13.59    0.55
   2  -1  -2   13.37    0.57
   2  -1  -2   12.73    0.50
   2  -1  -2   13.29    0.42
  -2   1   2   13.06    0.46
  -2   1   2   11.86    0.57
  -2   1   2   13.44    0.44
   1  -1  -2  182.43    5.46
   1  -1  -2  196.16    6.17
   1  -1  -2  175.74    6.05
   1  -1  -2  184.78    5.50
  -1   1   2  190.14    6.13
  -1   1   2  168.52    6.04
  -1   1   2  190.51    5.49
  -1   1   2  175.64    5.49
   0  -1  -2  109.73    3.29
   0  -1  -2  112.62    3.29
   0  -1  -2  108.60    3.68
   0   1   2  108.26    4.06
   0   1   2  109.51    3.29
   0   1   2  110.96    3.29
   0   1   2  109.32    3.67
  -1  -1  -2   12.76    0.44
  -1  -1  -2   11.34    0.45
  -1  -1  -2   10.50    0.58
  -1  -1  -2   11.41    0.52
  -1  -1  -2   10.81    0.56
   1   1   2   11.58    0.54
   1   1   2   11.02    0.54
   1   1   2   11.63    0.43
   1   1   2   10.77    0.44
   1   1   2   10.68    0.52
  -2  -1  -2  170.43    5.12
  -2  -1  -2  170.07    6.36
  -2  -1  -2  165.97    5.69
  -2  -1  -2  174.23    5.10
   2   1   2  175.57    5.69
   2   1   2  173.34    5.11
   2   1   2  172.33    5.50
   2   1   2  170.53    5.09
   2   1   2  165.57    6.35
   2   1   2  169.35    5.70
  -3  -1  -2  292.59   10.86
  -3  -1  -2  297.41    8.70
  -3  -1  -2  291.60    8.72
   3   1   2  296.57    9.70
   3   1   2  300.64    8.73
   3   1   2  284.60    9.35
   3   1   2  286.39    9.71
  -4  -1  -2  160.71    6.10
  -4  -1  -2  164.20    4.87
  -4  -1  -2  163.95    4.84
   4   1   2  155.69    5.42
   4   1   2  150.10    5.24
   4   1   2  163.84    5.41
   4   1   2  164.97    4.80
  -5  -1  -2  174.79    5.23
  -5  -1  -2  178.09    6.58
   5   1   2  177.55    5.82
   5   1   2  172.43    5.83
   5   1   2  157.01    5.60
  -6  -1  -2   21.44    0.90
  -6  -1  -2   23.87    1.31
   6   1   2   21.39    1.08
   6   1   2   21.95    1.07
  -7  -1  -2   -0.14    0.31
   7   1   2    0.05    0.44
   7   1   2    0.26    0.46
   9  -2  -2    8.57    0.48
   9  -2  -2    8.56    0.48
  -8   2   2   12.57    0.86
  -8   2   2   12.93    0.47
  -7   2   2   67.84    2.33
  -7   2   2   69.10    2.76
  -7   2   2   61.58    2.52
  -6   2   2   57.80    2.29
  -6   2   2   63.44    2.51
  -5   2   2   25.18    1.07
  -5   2   2   25.10    1.16
  -4   2   2    2.57    0.28
  -4   2   2    2.31    0.30
   3  -2  -2  131.01    4.22
   3  -2  -2  122.64    4.21
   3  -2  -2  129.92    4.43
  -3   2   2  124.26    4.75
  -3   2   2  127.03    3.79
  -3   2   2  131.71    3.78
  -3   2   2  126.78    4.44
   2  -2  -2   96.78    3.18
   2  -2  -2   96.56    2.84
   2  -2  -2   97.58    2.86
   2  -2  -2   92.25    3.20
  -2   2   2   99.39    2.85
  -2   2   2   96.06    2.86
  -2   2   2   88.41    3.17
  -2   2   2   96.19    3.34
   1  -2  -2  824.54   25.75
   1  -2  -2  740.44   25.72
   1  -2  -2  748.99   23.07
   1  -2  -2  780.16   23.08
  -1   2   2  753.00   25.72
  -1   2   2  800.56   25.67
  -1   2   2  744.78   23.15
  -1   2   2  804.14   23.07
   0  -2  -2  823.01   27.33
   0  -2  -2  790.15   27.33
   0  -2  -2  816.35   24.49
   0  -2  -2  814.28   24.55
   0   2   2  834.18   27.29
   0   2   2  853.33   24.51
   0   2   2  823.30   30.25
   0   2   2  822.32   24.55
  -1  -2  -2  134.80    4.46
  -1  -2  -2  133.01    4.46
  -1  -2  -2  133.34    4.46
  -1  -2  -2  134.99    4.00
  -1  -2  -2  130.82    4.00
  -1  -2  -2  130.37    4.94
   1   2   2  133.54    4.00
   1   2   2  136.28    4.46
   1   2   2  130.07    3.99
   1   2   2  131.26    4.46
  -2  -2  -2    1.25    0.18
  -2  -2  -2    0.67    0.30
  -2  -2  -2    0.77    0.26
  -2  -2  -2    0.73    0.17
   2   2   2    1.00    0.27
   2   2   2    0.48    0.28
   2   2   2    0.46    0.17
   2   2   2    1.21    0.25
  -3  -2  -2  140.16    5.15
  -3  -2  -2  132.81    4.13
   3   2   2  130.70    4.45
   3   2   2  140.36    4.61
   3   2   2  135.84    4.10
   3   2   2  134.41    4.61
  -4  -2  -2   75.04    2.40
  -4  -2  -2   75.52    3.02
   4   2   2   77.51    2.35
   4   2   2   74.41    2.62
   4   2   2   75.33    2.70
   4   2   2   76.14    2.69
  -5  -2  -2  104.37    3.91
  -5  -2  -2   97.41    3.06
   5   2   2   99.61    3.44
   5   2   2   87.08    3.29
   5   2   2   98.95    3.42
  -6  -2  -2   46.03    1.60
   6   2   2   45.77    1.85
   6   2   2   46.22    1.82
  -7  -2  -2    1.44    0.37
   7   2   2    2.29    0.56
  -8   3   2    4.05    0.54
  -7   3   2   78.77    3.06
  -7   3   2   84.33    3.32
  -6   3   2  162.45    6.01
  -6   3   2  152.74    5.57
  -5   3   2   96.37    3.67
  -5   3   2   93.71    3.43
   4  -3  -2  104.28    3.58
   4  -3  -2  110.54    3.57
  -4   3   2  108.70    3.22
  -4   3   2  110.81    3.21
  -4   3   2  108.42    4.08
  -4   3   2  105.50    3.83
   3  -3  -2    0.04    0.20
   3  -3  -2   -0.08    0.16
   3  -3  -2    0.10    0.17
  -3   3   2    0.18    0.18
  -3   3   2    0.47    0.19
  -3   3   2    0.53    0.10
  -3   3   2    0.13    0.12
   2  -3  -2  155.48    4.55
   2  -3  -2  152.08    5.28
   2  -3  -2  159.17    4.57
   2  -3  -2  154.54    5.08
   2  -3  -2  151.27    5.09
  -2   3   2  141.99    4.56
  -2   3   2  148.45    5.08
  -2   3   2  153.71    5.63
  -2   3   2  158.11    4.56
   1  -3  -2  408.36   13.60
   1  -3  -2  405.55   13.59
   1  -3  -2  389.88   12.24
   1  -3  -2  419.02   12.21
  -1   3   2  424.00   12.28
  -1   3   2  404.11   13.60
  -1   3   2  398.81   12.26
  -1   3   2  406.65   13.59
   0  -3  -2  472.78   15.63
   0  -3  -2  470.42   15.68
   0  -3  -2  449.36   17.40
   0  -3  -2  472.34   14.27
   0   3   2  488.61   14.21
   0   3   2  481.71   15.71
   0   3   2  463.26   14.11
  -1  -3  -2  158.47    5.30
  -1  -3  -2  157.24    5.86
  -1  -3  -2  157.90    5.29
  -1  -3  -2  155.99    4.76
   1   3   2  158.93    5.30
   1   3   2  164.09    5.31
   1   3   2  152.53    4.74
  -2  -3  -2   68.22    2.12
  -2  -3  -2   67.01    2.38
  -2  -3  -2   66.70    2.60
   2   3   2   69.05    2.38
   2   3   2   65.23    2.36
   2   3   2   65.95    2.10
  -3  -3  -2    2.64    0.44
  -3  -3  -2    2.95    0.30
   3   3   2    2.45    0.43
   3   3   2    2.41    0.28
   3   3   2    2.34    0.43
   3   3   2    2.48    0.37
  -4  -3  -2    4.33    0.39
  -4  -3  -2    4.74    0.54
   4   3   2    4.51    0.35
   4   3   2    4.48    0.51
   4   3   2    4.13    0.46
   4   3   2    4.70    0.52
  -5  -3  -2   17.04    0.78
  -5  -3  -2   19.18    1.13
   5   3   2   14.85    0.87
   5   3   2   17.65    0.97
   5   3   2   17.90    0.98
  -6  -3  -2   32.55    1.21
   6   3   2   28.85    1.40
  -8   4   2    1.98    0.47
  -7   4   2   12.43    0.82
  -7   4   2   15.23    0.94
  -6   4   2  133.46    3.85
  -6   4   2  132.99    5.00
  -6   4   2  125.82    3.85
  -6   4   2  126.30    4.65
   5  -4  -2  135.99    4.59
   5  -4  -2  142.22    4.59
  -5   4   2  136.89    4.91
  -5   4   2  135.31    4.12
  -5   4   2  142.04    4.12
  -5   4   2  137.79    5.24
   4  -4  -2  245.66    8.16
   4  -4  -2  247.11    8.12
  -4   4   2  247.15    9.07
  -4   4   2  238.55    7.28
  -4   4   2  252.48    7.26
  -4   4   2  237.67    8.46
   3  -4  -2  174.04    5.85
   3  -4  -2  183.09    5.24
   3  -4  -2  174.54    6.09
   3  -4  -2  175.20    5.84
   3  -4  -2  174.93    5.23
  -3   4   2  171.51    5.25
  -3   4   2  173.32    6.12
  -3   4   2  174.31    6.50
  -3   4   2  183.29    5.25
   2  -4  -2   50.27    1.58
   2  -4  -2   50.08    1.85
   2  -4  -2   51.79    1.79
   2  -4  -2   50.34    1.80
  -2   4   2   52.45    1.59
  -2   4   2   49.24    1.59
   1  -4  -2   37.71    1.38
   1  -4  -2   37.01    1.19
   1  -4  -2   36.22    1.35
  -1   4   2   36.44    1.37
  -1   4   2   36.03    1.35
  -1   4   2   36.90    1.20
   0  -4  -2  118.68    3.98
   0  -4  -2  116.88    3.56
   0  -4  -2  117.59    4.33
   0  -4  -2  116.09    3.96
   0   4   2  115.23    3.56
   0   4   2  117.92    3.97
  -1  -4  -2   20.42    0.85
  -1  -4  -2   19.58    0.90
  -1  -4  -2   18.69    0.73
  -1  -4  -2   19.20    0.87
   1   4   2   19.31    0.73
   1   4   2   18.51    0.89
   1   4   2   20.04    0.91
  -2  -4  -2  128.59    4.86
  -2  -4  -2  125.87    4.40
  -2  -4  -2  129.08    3.96
  -2  -4  -2  129.62    4.42
   2   4   2  128.49    4.41
   2   4   2  128.19    4.41
   2   4   2  132.17    3.95
  -3  -4  -2   99.94    3.19
  -3  -4  -2  103.20    3.95
   3   4   2  103.97    3.18
   3   4   2  103.77    3.59
   3   4   2   99.89    3.43
   3   4   2  102.04    3.59
  -4  -4  -2    8.11    0.73
  -4  -4  -2    7.89    0.51
   4   4   2    8.23    0.51
   4   4   2    7.17    0.61
   4   4   2    8.16    0.68
   4   4   2    7.47    0.64
  -5  -4  -2    3.01    0.39
  -5  -4  -2    4.02    0.65
   5   4   2    2.75    0.47
   5   4   2    3.79    0.59
  -6  -4  -2   28.27    1.19
   6   4   2   30.59    1.49
  -8   5   2   29.41    1.45
  -8   5   2   31.31    1.61
   7  -5  -2   16.77    0.70
   7  -5  -2   18.43    0.74
  -7   5   2   20.63    1.14
  -7   5   2   18.20    0.62
  -7   5   2   17.54    1.00
   6  -5  -2   15.69    0.68
   6  -5  -2   14.04    0.64
  -6   5   2   15.45    0.55
  -6   5   2   14.86    0.54
  -6   5   2   15.10    0.86
  -6   5   2   15.07    0.95
   5  -5  -2   30.18    1.13
   5  -5  -2   29.17    1.14
  -5   5   2   30.53    1.30
  -5   5   2   29.77    0.98
  -5   5   2   30.79    1.35
  -5   5   2   30.78    0.99
   4  -5  -2  186.73    6.26
   4  -5  -2  187.30    6.26
  -4   5   2  186.69    6.57
  -4   5   2  182.38    5.61
  -4   5   2  186.71    6.99
  -4   5   2  198.40    5.62
   3  -5  -2  274.09    9.36
   3  -5  -2  272.06    8.09
   3  -5  -2  270.96    9.03
   3  -5  -2  268.24    9.04
  -3   5   2  269.26    9.41
  -3   5   2  287.74    8.12
  -3   5   2  266.39    8.18
   2  -5  -2   34.58    1.30
   2  -5  -2   33.64    1.27
   2  -5  -2   33.31    1.11
   2  -5  -2   33.17    1.29
  -2   5   2   33.00    1.12
   1  -5  -2   23.55    0.99
   1  -5  -2   24.30    1.01
   1  -5  -2   23.70    0.84
   1  -5  -2   23.02    0.99
  -1   5   2   23.27    0.85
  -1   5   2   25.23    1.02
   0  -5  -2   34.54    1.32
   0  -5  -2   34.28    1.31
   0  -5  -2   34.19    1.36
   0  -5  -2   33.16    1.16
   0   5   2   33.15    1.15
   0   5   2   32.79    1.32
  -1  -5  -2   55.25    1.87
  -1  -5  -2   57.31    2.11
  -1  -5  -2   59.53    2.24
  -1  -5  -2   58.65    2.13
   1   5   2   57.49    2.14
   1   5   2   57.46    2.13
   1   5   2   57.60    1.87
  -2  -5  -2  127.16    4.72
  -2  -5  -2  124.07    3.86
  -2  -5  -2  124.39    4.30
   2   5   2  124.62    4.31
   2   5   2  124.22    4.31
   2   5   2  122.96    3.84
  -3  -5  -2  202.72    7.53
  -3  -5  -2  191.16    6.09
   3   5   2  205.61    6.09
   3   5   2  208.40    6.82
   3   5   2  199.14    6.80
   3   5   2  194.81    6.51
  -4  -5  -2   28.24    1.15
  -4  -5  -2   30.95    1.44
   4   5   2   29.02    1.38
   4   5   2   27.64    1.24
   4   5   2   30.18    1.13
  -5  -5  -2    3.28    0.47
   5   5   2    3.87    0.61
   9  -6  -2   40.34    1.39
   9  -6  -2   35.80    1.36
   8  -6  -2   30.51    1.18
   8  -6  -2   29.12    1.15
  -8   6   2   31.27    1.03
  -8   6   2   35.38    1.70
  -8   6   2   33.29    1.55
   7  -6  -2   37.25    1.39
   7  -6  -2   35.33    1.36
  -7   6   2   37.92    1.67
  -7   6   2   40.13    1.81
  -7   6   2   38.68    1.22
   6  -6  -2    4.00    0.38
   6  -6  -2    4.00    0.36
  -6   6   2    4.25    0.57
  -6   6   2    4.28    0.33
  -6   6   2    3.71    0.52
   5  -6  -2   19.97    0.90
   5  -6  -2   20.72    0.89
  -5   6   2   20.39    0.75
  -5   6   2   21.78    0.76
  -5   6   2   20.96    1.03
   4  -6  -2   37.11    1.43
   4  -6  -2   36.91    1.42
  -4   6   2   35.93    1.54
  -4   6   2   35.90    1.22
  -4   6   2   40.12    1.25
   3  -6  -2  190.95    6.56
   3  -6  -2  191.97    6.35
   3  -6  -2  190.33    6.35
   3  -6  -2  189.16    5.67
  -3   6   2  184.26    5.69
   2  -6  -2   90.18    3.16
   2  -6  -2   92.86    3.16
   2  -6  -2   89.76    2.80
   2  -6  -2   94.48    3.24
  -2   6   2   86.45    2.81
   1  -6  -2   53.63    1.76
   1  -6  -2   55.91    2.03
   1  -6  -2   55.83    2.03
   1  -6  -2   56.05    2.03
  -1   6   2   54.43    1.77
  -1   6   2   50.79    1.99
   0  -6  -2   46.18    1.56
   0  -6  -2   48.47    1.79
   0  -6  -2   49.57    1.78
   0  -6  -2   48.20    1.79
   0   6   2   41.70    1.76
   0   6   2   44.95    1.56
   0   6   2   47.32    1.78
  -1  -6  -2    0.75    0.30
  -1  -6  -2    1.00    0.29
  -1  -6  -2    0.95    0.40
   1   6   2    1.11    0.29
   1   6   2    0.47    0.40
   1   6   2    1.41    0.44
  -2  -6  -2   32.17    1.21
  -2  -6  -2   33.46    1.43
   2   6   2   33.33    1.22
   2   6   2   32.15    1.42
  -3  -6  -2  110.12    4.24
  -3  -6  -2  103.88    3.47
   3   6   2  110.34    3.46
   3   6   2  113.24    3.92
  -4  -6  -2   39.35    1.51
  -4  -6  -2   40.48    1.84
   4   6   2   40.37    1.51
  -5  -6  -2   14.15    0.84
   8  -7  -2   19.54    0.88
   8  -7  -2   20.37    0.90
  -8   7   2   21.42    1.24
  -8   7   2   21.43    0.77
   7  -7  -2   14.24    0.74
   7  -7  -2   12.95    0.70
  -7   7   2   14.66    0.60
  -7   7   2   14.95    0.95
   6  -7  -2   44.34    1.67
   6  -7  -2   42.07    1.65
  -6   7   2   45.97    1.47
  -6   7   2   46.87    1.91
   5  -7  -2   25.73    1.10
   5  -7  -2   25.14    1.09
  -5   7   2   26.95    0.94
  -5   7   2   26.00    1.25
   4  -7  -2    4.06    0.30
   4  -7  -2    3.05    0.43
   4  -7  -2    3.55    0.47
  -4   7   2    3.42    0.31
   3  -7  -2   61.85    2.27
   3  -7  -2   65.05    2.32
   3  -7  -2   64.30    2.01
   3  -7  -2   62.47    2.30
  -3   7   2   60.75    2.01
   2  -7  -2   84.58    2.93
   2  -7  -2   79.59    2.55
   2  -7  -2   82.88    2.90
   2  -7  -2   80.13    2.90
  -2   7   2   77.95    2.55
   1  -7  -2  155.66    5.47
   1  -7  -2  168.90    5.60
   1  -7  -2  161.68    5.46
   1  -7  -2  156.51    4.88
  -1   7   2  158.60    5.46
  -1   7   2  158.65    4.89
   0  -7  -2  211.80    6.83
   0  -7  -2  206.83    6.85
   0  -7  -2  205.51    7.43
   0  -7  -2  199.97    6.12
   0   7   2  199.36    6.12
   0   7   2  185.83    6.82
  -1  -7  -2   61.66    2.30
  -1  -7  -2   55.99    1.95
   1   7   2   57.50    1.97
  -2  -7  -2    1.90    0.38
  -2  -7  -2    2.06    0.41
   2   7   2    1.46    0.38
  -3  -7  -2   16.75    0.98
  -3  -7  -2   14.81    0.84
   3   7   2   16.68    0.85
  -4  -7  -2   19.44    0.98
   8  -8  -2    7.07    0.61
   8  -8  -2    5.88    0.50
  -8   8   2    6.42    0.46
   7  -8  -2   19.82    0.97
   7  -8  -2   20.82    0.98
  -7   8   2   22.49    1.26
  -7   8   2   21.52    0.82
   6  -8  -2   69.73    2.47
   6  -8  -2   67.33    2.47
  -6   8   2   68.98    2.19
  -6   8   2   68.72    2.72
   5  -8  -2   96.96    3.41
   5  -8  -2   98.63    3.41
  -5   8   2   95.87    3.03
  -5   8   2   97.43    3.66
   4  -8  -2  109.11    3.32
   4  -8  -2  108.86    3.75
   4  -8  -2  107.84    3.75
  -4   8   2  104.18    3.34
   3  -8  -2   -0.03    0.36
   3  -8  -2    0.53    0.26
   3  -8  -2    0.44    0.42
  -3   8   2    0.08    0.27
   2  -8  -2   38.40    1.51
   2  -8  -2   33.99    1.51
   2  -8  -2   35.01    1.27
   2  -8  -2   36.46    1.44
  -2   8   2   34.54    1.27
   1  -8  -2   50.80    1.91
   1  -8  -2   46.24    1.66
   1  -8  -2   50.71    1.87
  -1   8   2   46.39    1.66
   0  -8  -2  132.79    4.41
   0  -8  -2  120.07    3.86
   0  -8  -2  120.46    4.57
   0   8   2  119.24    3.85
  -1  -8  -2   33.76    1.30
   1   8   2   34.69    1.32
  -2  -8  -2    6.31    0.55
   2   8   2    5.61    0.55
  -3  -8  -2    0.81    0.43
   3   8   2   -0.20    0.40
   7  -9  -2    0.95    0.45
   7  -9  -2    0.33    0.41
  -7   9   2    0.20    0.56
  -7   9   2    0.95    0.30
   6  -9  -2   65.90    2.43
   6  -9  -2   64.32    2.43
  -6   9   2   68.77    2.71
  -6   9   2   64.56    2.14
   5  -9  -2   70.21    2.51
   5  -9  -2   67.61    2.50
  -5   9   2   64.16    2.18
   4  -9  -2   42.70    1.74
   4  -9  -2   44.40    1.75
  -4   9   2   42.54    1.51
   3  -9  -2   41.26    1.68
   3  -9  -2   42.53    1.46
  -3   9   2   41.44    1.47
   2  -9  -2    0.56    0.49
   2  -9  -2    0.02    0.30
  -2   9   2    0.11    0.31
   1  -9  -2    3.51    0.41
  -1   9   2    3.48    0.44
   0  -9  -2   26.73    1.11
   0   9   2   27.37    1.12
  -1  -9  -2   26.23    1.12
   1   9   2   26.56    1.15
  -2  -9  -2   10.41    0.78
   2   9   2   10.12    0.77
   7 -10  -2    2.77    0.55
   7 -10  -2    2.98    0.53
  -7  10   2    1.86    0.65
  -7  10   2    3.10    0.40
   6 -10  -2    3.86    0.57
   6 -10  -2    2.73    0.53
  -6  10   2    3.68    0.42
   5 -10  -2   30.75    1.43
  -5  10   2   30.45    1.19
   4 -10  -2   20.46    1.12
  -4  10   2   17.68    0.86
   3 -10  -2   36.26    1.38
  -3  10   2   37.23    1.39
   2 -10  -2   20.45    0.93
  -2  10   2   18.46    0.88
   1 -10  -2    1.42    0.41
  -1  10   2    2.05    0.43
   0 -10  -2    0.53    0.39
   0  10   2    0.64    0.39
  -1 -10  -2   14.15    0.90
   1  10   2   15.12    0.86
   5 -11  -2    4.49    0.66
  -5  11   2    3.99    0.48
  -4  11   2    5.79    0.54
  -3  11   2   37.09    1.44
   2 -11  -2   55.89    1.96
  -2  11   2   53.94    1.95
   1 -11  -2   24.29    1.11
  -1  11   2   22.26    1.10
  -2  13  -3   23.21    1.16
   2 -13   3   24.74    1.18
  -3  13  -3   48.82    1.84
   1  12  -3   22.85    1.12
  -1 -12   3   20.60    1.11
   0  12  -3   21.08    1.04
   0 -12   3   21.73    1.10
  -1  12  -3    2.56    0.50
   1 -12   3    3.03    0.53
  -2  12  -3    1.26    0.41
   2 -12   3    1.86    0.48
  -3  12  -3   23.60    1.09
  -4  12  -3   39.02    1.49
  -5  12  -3   19.16    0.96
   5 -12   3   19.95    1.30
   2  11  -3   26.52    1.22
  -2 -11   3   26.39    1.21
   1  11  -3   33.38    1.35
  -1 -11   3   30.71    1.31
   0  11  -3   85.40    2.82
   0 -11   3   83.97    2.83
  -1  11  -3   59.34    2.08
   1 -11   3   60.00    2.10
  -2  11  -3    4.54    0.50
   2 -11   3    5.77    0.54
  -3  11  -3    0.93    0.37
   3 -11   3   -0.09    0.59
   3 -11   3    0.64    0.38
  -4  11  -3   16.07    0.84
  -4  11  -3   15.66    0.94
   4 -11   3   17.79    1.17
  -5  11  -3   28.56    1.36
  -5  11  -3   28.41    1.18
   5 -11   3   30.04    1.50
  -6  11  -3   47.69    2.03
  -6  11  -3   46.64    1.72
   6 -11   3   46.28    2.06
   3  10  -3    3.83    0.55
  -3 -10   3    4.71    0.56
   2  10  -3    0.28    0.37
  -2 -10   3    0.89    0.38
   1  10  -3   12.21    0.75
  -1 -10   3   11.56    0.74
   0  10  -3   46.01    1.67
   0 -10   3   48.00    1.70
  -1  10  -3   85.59    2.79
   1 -10   3   85.66    2.80
  -2  10  -3   30.56    1.20
   2 -10   3   33.19    1.52
   2 -10   3   31.76    1.24
  -3  10  -3   19.97    0.91
  -3  10  -3   21.93    1.01
   3 -10   3   20.21    1.20
   3 -10   3   21.72    0.94
  -4  10  -3   -0.16    0.34
  -4  10  -3    0.06    0.31
   4 -10   3    0.48    0.49
   4 -10   3   -0.07    0.46
   4 -10   3    0.04    0.58
  -5  10  -3   11.60    0.69
  -5  10  -3   12.30    0.84
   5 -10   3   12.60    0.95
   5 -10   3   11.46    0.89
   5 -10   3   12.95    1.06
  -6  10  -3   38.17    1.70
  -6  10  -3   37.42    1.41
   6 -10   3   36.37    1.62
   6 -10   3   37.59    1.70
  -7  10  -3   45.08    1.64
  -7  10  -3   43.80    1.97
   7 -10   3   43.06    1.89
   7 -10   3   46.28    1.95
  -4  -9   3   22.67    1.04
   3   9  -3   21.19    1.00
  -3  -9   3   20.57    0.98
   2   9  -3   19.29    0.90
  -2  -9   3   18.20    0.89
   1   9  -3    3.75    0.42
  -1  -9   3    3.35    0.42
   0   9  -3    7.42    0.57
   0  -9   3    6.97    0.54
  -1   9  -3   89.48    2.93
   1  -9   3   99.50    3.34
   1  -9   3   86.42    3.29
   1  -9   3   92.34    2.95
  -2   9  -3   81.69    2.93
  -2   9  -3   80.64    2.63
   2  -9   3   84.10    3.03
   2  -9   3   80.71    2.97
   2  -9   3   83.26    2.67
  -3   9  -3  135.62    4.89
  -3   9  -3  137.50    4.30
   3  -9   3  139.18    4.86
   3  -9   3  142.84    4.83
   3  -9   3  140.42    4.32
  -4   9  -3   64.90    2.17
  -4   9  -3   66.34    2.50
   4  -9   3   67.58    2.47
   4  -9   3   68.30    2.16
   4  -9   3   68.25    2.53
   4  -9   3   60.92    2.75
  -5   9  -3    2.32    0.36
  -5   9  -3    2.46    0.46
   5  -9   3    2.60    0.55
   5  -9   3    3.56    0.52
   5  -9   3    2.90    0.60
  -6   9  -3    7.86    0.70
  -6   9  -3    9.00    0.62
   6  -9   3    8.79    0.82
   6  -9   3    7.82    0.69
  -7   9  -3   31.60    1.25
  -7   9  -3   29.83    1.52
   7  -9   3   33.45    1.50
   7  -9   3   32.14    1.53
  -5  -8   3    1.98    0.44
   4   8  -3   11.69    0.74
  -4  -8   3   12.25    0.69
   3   8  -3   81.16    2.65
   3   8  -3   84.45    3.02
  -3  -8   3   77.16    2.64
   2   8  -3  172.25    5.70
   2   8  -3  163.09    5.06
  -2  -8   3  157.63    5.05
   1   8  -3   37.29    1.55
   1   8  -3   36.15    1.33
   1   8  -3   39.33    1.59
  -1  -8   3   35.32    1.33
  -1  -8   3   37.51    1.60
   0   8  -3    0.24    0.44
   0   8  -3    1.05    0.29
   0   8  -3    0.71    0.48
   0  -8   3    0.45    0.41
   0  -8   3    0.57    0.30
   0  -8   3    0.58    0.37
  -1   8  -3   62.60    2.08
  -1   8  -3   65.25    2.37
   1  -8   3   63.67    2.37
   1  -8   3   64.67    2.39
   1  -8   3   64.13    2.11
  -2   8  -3  130.98    4.08
  -2   8  -3  130.63    4.61
   2  -8   3  134.44    4.11
   2  -8   3  127.40    4.56
   2  -8   3  139.16    4.63
  -3   8  -3  147.63    4.64
  -3   8  -3  147.32    5.30
   3  -8   3  152.19    5.20
   3  -8   3  156.45    5.26
   3  -8   3  154.73    4.67
  -4   8  -3  202.63    6.17
  -4   8  -3  201.94    7.11
   4  -8   3  205.87    6.15
   4  -8   3  193.26    7.73
   4  -8   3  204.78    6.89
   4  -8   3  213.17    6.95
  -5   8  -3   20.37    0.84
  -5   8  -3   18.54    1.00
   5  -8   3   18.11    1.07
   5  -8   3   19.16    1.15
   5  -8   3   20.13    1.02
  -6   8  -3    0.39    0.39
  -6   8  -3    1.03    0.32
   6  -8   3    0.76    0.46
   6  -8   3    0.57    0.58
  -7   8  -3   -0.25    0.45
  -7   8  -3    0.61    0.36
   7  -8   3   -0.09    0.49
   7  -8   3   -0.18    0.57
   6   7  -3    7.80    0.82
  -6  -7   3    6.36    0.57
   5   7  -3   -0.01    0.55
  -5  -7   3    0.35    0.35
   4   7  -3   11.94    0.71
   4   7  -3   12.15    0.96
  -4  -7   3   11.04    0.66
   3   7  -3   93.90    3.34
   3   7  -3   97.83    3.42
   3   7  -3   90.66    2.99
  -3  -7   3   97.89    3.22
  -3  -7   3   89.32    2.99
   2   7  -3  273.16    9.18
   2   7  -3  264.98    8.24
   2   7  -3  290.80    9.24
  -2  -7   3  266.51    8.24
   1   7  -3  126.48    4.05
   1   7  -3  132.51    4.54
   1   7  -3  138.19    4.58
  -1  -7   3  135.86    4.54
  -1  -7   3  124.99    4.05
   0   7  -3   48.44    1.87
   0   7  -3   48.22    1.63
   0  -7   3   51.09    1.87
   0  -7   3   50.76    1.66
   0  -7   3   47.05    1.85
  -1   7  -3   20.35    0.81
  -1   7  -3   21.26    1.00
  -1   7  -3   21.76    0.82
   1  -7   3   21.89    1.03
   1  -7   3   19.72    1.01
   1  -7   3   20.28    0.85
  -2   7  -3    5.10    0.38
  -2   7  -3    5.03    0.38
   2  -7   3    4.72    0.56
   2  -7   3    4.79    0.49
   2  -7   3    4.67    0.38
  -3   7  -3   41.20    1.35
   3  -7   3   39.69    1.37
   3  -7   3   34.82    1.76
   3  -7   3   40.48    1.65
   3  -7   3   39.15    1.55
  -4   7  -3  115.89    3.67
   4  -7   3  115.60    4.66
   4  -7   3  126.33    3.64
   4  -7   3  119.38    4.18
   4  -7   3  116.75    4.11
  -5   7  -3   62.41    2.03
   5  -7   3   62.95    2.37
   5  -7   3   60.46    2.27
   5  -7   3   61.70    2.63
  -6   7  -3   27.95    1.06
   6  -7   3   27.62    1.25
   6  -7   3   26.59    1.35
  -7   7  -3   19.42    0.91
   7  -7   3   21.13    1.12
   7  -7   3   21.15    1.18
  -8   7  -3    0.20    0.35
  -8   7  -3    0.08    0.36
   8  -7   3    0.77    0.60
   8  -7   3    0.07    0.54
   6   6  -3   24.08    1.25
  -6  -6   3   22.07    1.00
   5   6  -3   43.70    1.79
   5   6  -3   44.32    1.84
  -5  -6   3   45.90    1.68
  -5  -6   3   43.96    1.57
   4   6  -3   20.58    1.03
   4   6  -3   19.33    0.86
   4   6  -3   21.11    1.11
  -4  -6   3   21.09    0.83
  -4  -6   3   19.07    0.85
   3   6  -3    0.77    0.49
   3   6  -3    0.84    0.30
   3   6  -3    1.21    0.45
   3   6  -3    1.05    0.15
  -3  -6   3    0.43    0.25
  -3  -6   3    1.13    0.17
   2   6  -3  164.85    5.44
   2   6  -3  163.37    5.39
   2   6  -3  157.80    4.84
  -2  -6   3  157.99    4.84
  -2  -6   3  149.68    5.36
   1   6  -3  108.79    3.71
   1   6  -3  111.78    3.34
   1   6  -3  114.21    3.76
  -1  -6   3  107.39    3.33
  -1  -6   3   97.08    3.69
  -1  -6   3  107.27    3.73
   0   6  -3   89.40    2.80
   0   6  -3   93.36    3.15
   0  -6   3   89.07    2.81
   0  -6   3   88.22    3.13
   0  -6   3   89.03    3.15
  -1   6  -3  259.75    7.79
  -1   6  -3  263.42    8.90
  -1   6  -3  262.86    8.67
   1  -6   3  259.61    8.69
   1  -6   3  261.55    8.71
   1  -6   3  254.92    7.81
  -2   6  -3   92.36    2.89
   2  -6   3   93.35    3.24
   2  -6   3   94.62    3.29
   2  -6   3   92.16    2.91
  -3   6  -3    7.19    0.49
  -3   6  -3    6.89    0.42
   3  -6   3    7.09    0.45
   3  -6   3    5.58    0.49
   3  -6   3    6.92    0.63
   3  -6   3    6.21    0.64
  -4   6  -3   83.09    2.49
  -4   6  -3   77.07    2.44
   4  -6   3   68.79    2.35
   4  -6   3   79.83    2.82
   4  -6   3   77.79    3.13
   4  -6   3   76.60    2.74
  -5   6  -3  111.45    3.45
  -5   6  -3  115.64    3.48
   5  -6   3  106.85    3.85
   5  -6   3  108.86    4.38
   5  -6   3  110.86    3.89
  -6   6  -3   74.93    2.46
   6  -6   3   79.59    2.79
   6  -6   3   75.22    2.77
  -7   6  -3   55.28    1.88
   7  -6   3   57.42    2.16
   7  -6   3   54.44    2.15
  -8   6  -3    3.29    0.41
   8  -6   3    2.99    0.60
   8  -6   3    2.21    0.60
   7   5  -3    9.67    0.80
  -7  -5   3    8.95    0.61
   6   5  -3   38.87    1.60
   6   5  -3   40.51    1.67
  -6  -5   3   37.95    1.52
  -6  -5   3   37.03    1.39
   5   5  -3  175.24    5.86
   5   5  -3  167.23    5.79
  -5  -5   3  164.08    5.21
  -5  -5   3  176.14    5.92
   4   5  -3   97.04    3.07
   4   5  -3   99.61    3.49
   4   5  -3   97.74    3.43
  -4  -5   3  100.06    3.43
  -4  -5   3   96.61    3.06
   3   5  -3   48.27    1.79
   3   5  -3   47.49    1.83
   3   5  -3   45.81    1.58
  -3  -5   3   48.18    1.68
  -3  -5   3   47.84    1.58
   2   5  -3    0.32    0.34
   2   5  -3    0.34    0.32
   2   5  -3    0.62    0.22
  -2  -5   3    0.15    0.29
  -2  -5   3   -0.01    0.18
  -2  -5   3    0.16    0.09
   1   5  -3  128.57    3.94
   1   5  -3  129.66    4.38
   1   5  -3  133.04    4.42
  -1  -5   3  126.27    3.93
  -1  -5   3  127.88    4.41
  -1  -5   3  129.49    4.38
   0   5  -3   94.73    3.26
   0   5  -3   93.54    2.91
   0   5  -3   97.62    3.21
   0  -5   3   93.44    3.27
   0  -5   3   90.33    3.25
   0  -5   3   95.71    2.92
  -1   5  -3  404.11   13.20
  -1   5  -3  397.77   13.16
  -1   5  -3  414.64   11.86
  -1   5  -3  391.77   11.91
   1  -5   3  396.62   12.05
   1  -5   3  404.42   13.40
   1  -5   3  379.61   13.17
  -2   5  -3  177.55    5.18
  -2   5  -3  169.95    5.15
  -2   5  -3  173.92    5.51
   2  -5   3  162.30    5.16
   2  -5   3  173.84    5.78
   2  -5   3  166.47    5.74
  -3   5  -3   17.52    0.79
  -3   5  -3   17.73    0.69
  -3   5  -3   17.13    0.73
   3  -5   3   16.02    1.02
   3  -5   3   16.78    0.67
   3  -5   3   17.17    0.92
   3  -5   3   18.74    0.84
  -4   5  -3    0.44    0.24
  -4   5  -3    0.72    0.23
   4  -5   3    0.93    0.12
   4  -5   3   -0.03    0.38
   4  -5   3    0.95    0.43
   4  -5   3    0.55    0.47
  -5   5  -3   77.79    2.55
  -5   5  -3   83.00    2.56
   5  -5   3   82.71    2.90
   5  -5   3   80.06    2.89
   5  -5   3   78.80    3.27
  -6   5  -3   60.44    1.96
   6  -5   3   60.00    2.23
   6  -5   3   57.86    2.22
  -7   5  -3   86.92    2.74
   7  -5   3   82.40    3.10
   7  -5   3   87.13    3.08
  -8   5  -3   17.01    0.81
   8  -5   3   15.59    1.01
   8  -5   3   17.54    1.08
   7   4  -3    0.67    0.44
   7   4  -3    0.37    0.48
  -7  -4   3    0.69    0.37
  -7  -4   3    1.01    0.31
   6   4  -3   10.31    0.76
   6   4  -3   10.96    0.81
  -6  -4   3   11.16    0.67
  -6  -4   3   10.97    0.58
   5   4  -3   90.97    2.83
   5   4  -3   91.45    3.22
   5   4  -3   93.26    3.26
  -5  -4   3   91.88    3.27
  -5  -4   3   92.93    2.88
   4   4  -3  122.21    4.21
   4   4  -3  125.76    4.27
   4   4  -3  123.58    3.78
  -4  -4   3  125.65    4.30
  -4  -4   3  121.52    3.78
   3   4  -3   17.01    0.81
   3   4  -3   17.55    0.70
   3   4  -3   17.00    0.89
  -3  -4   3   17.89    0.69
  -3  -4   3   17.07    0.67
   2   4  -3   50.81    1.66
   2   4  -3   51.00    1.65
   2   4  -3   49.80    1.83
   2   4  -3   51.33    1.88
  -2  -4   3   52.93    1.65
  -2  -4   3   51.10    1.82
  -2  -4   3   52.21    1.77
  -2  -4   3   49.34    1.62
   1   4  -3    0.42    0.31
   1   4  -3    0.54    0.27
   1   4  -3    0.78    0.20
   1   4  -3    0.92    0.16
  -1  -4   3    0.51    0.16
  -1  -4   3    0.67    0.27
  -1  -4   3    0.56    0.26
  -1  -4   3    0.65    0.17
   0   4  -3  113.16    3.37
   0   4  -3  109.55    3.56
   0   4  -3  109.37    3.76
   0  -4   3  112.87    3.36
   0  -4   3  107.19    3.74
   0  -4   3  111.69    3.76
   0  -4   3  107.07    3.37
  -1   4  -3  343.54   10.30
  -1   4  -3  342.57   10.79
  -1   4  -3  329.86   11.27
  -1   4  -3  347.92   11.25
  -1   4  -3  357.02   10.14
   1  -4   3  329.24   10.12
   1  -4   3  344.12   11.27
   1  -4   3  333.81   10.10
   1  -4   3  334.89   11.28
  -2   4  -3  455.68   13.03
  -2   4  -3  419.02   13.14
  -2   4  -3  435.04   13.90
   2  -4   3  461.81   14.85
   2  -4   3  428.20   13.13
   2  -4   3  432.48   14.48
  -3   4  -3  112.98    3.76
  -3   4  -3  112.37    3.47
  -3   4  -3  115.88    3.48
   3  -4   3  109.00    4.37
   3  -4   3  114.14    3.88
   3  -4   3  114.23    3.88
   3  -4   3  112.40    3.40
   3  -4   3  114.26    3.42
  -4   4  -3  120.60    3.62
  -4   4  -3  115.07    3.63
  -4   4  -3  121.79    3.97
   4  -4   3  116.77    3.49
   4  -4   3  108.14    4.57
   4  -4   3  124.41    3.50
   4  -4   3  118.58    4.05
   4  -4   3  117.60    4.06
  -5   4  -3    9.11    0.54
  -5   4  -3    9.11    0.52
  -5   4  -3    8.34    0.52
   5  -4   3    8.15    0.77
   5  -4   3    8.99    0.78
   5  -4   3   12.99    0.80
  -6   4  -3    7.40    0.48
   6  -4   3    6.70    0.58
   6  -4   3    6.25    0.60
  -7   4  -3   26.09    1.02
   7  -4   3   25.94    1.20
   7  -4   3   23.63    1.24
  -8   4  -3   35.78    1.34
   8  -4   3   36.98    1.61
   8  -4   3   36.77    1.56
   8   3  -3    9.54    0.76
   8   3  -3    9.60    0.78
  -8  -3   3   10.11    0.76
  -8  -3   3   10.21    0.60
   7   3  -3   10.02    0.75
   7   3  -3    9.67    0.74
  -7  -3   3   11.58    0.58
  -7  -3   3    9.44    0.70
   6   3  -3    1.12    0.42
   6   3  -3    0.86    0.36
  -6  -3   3    1.04    0.26
  -6  -3   3    1.91    0.34
   5   3  -3   23.47    1.06
   5   3  -3   24.97    1.15
  -5  -3   3   25.18    0.89
  -5  -3   3   25.34    0.93
  -5  -3   3   25.26    1.04
   4   3  -3   76.04    2.69
   4   3  -3   82.28    2.78
   4   3  -3   78.57    2.40
  -4  -3   3   75.85    2.41
  -4  -3   3   78.85    2.43
  -4  -3   3   75.47    2.75
   3   3  -3  158.93    5.28
   3   3  -3  154.44    5.21
   3   3  -3  151.10    4.70
  -3  -3   3  161.60    4.71
  -3  -3   3  151.45    4.68
  -3  -3   3  158.43    5.36
   2   3  -3  457.77   14.21
   2   3  -3  430.35   13.44
   2   3  -3  451.49   14.99
   2   3  -3  464.28   15.05
   2   3  -3  454.13   13.34
  -2  -3   3  447.48   13.39
  -2  -3   3  451.88   15.38
  -2  -3   3  436.61   14.88
  -2  -3   3  443.81   13.57
   1   3  -3  350.91   10.65
   1   3  -3  362.57   12.20
   1   3  -3  381.40   12.00
   1   3  -3  379.31   10.72
   1   3  -3  351.76   11.35
   1   3  -3  366.06   12.03
  -1  -3   3  305.91   11.94
  -1  -3   3  381.81   10.73
  -1  -3   3  337.03   11.78
  -1  -3   3  351.93   10.83
   0   3  -3   32.74    1.12
   0   3  -3   33.10    1.28
   0   3  -3   31.50    1.17
   0  -3   3   34.81    1.28
   0  -3   3   31.59    1.24
   0  -3   3   35.67    1.12
  -1   3  -3  145.52    4.87
  -1   3  -3  150.89    4.38
  -1   3  -3  141.29    4.67
  -1   3  -3  142.76    4.87
  -1   3  -3  144.61    4.37
   1  -3   3  140.85    4.37
   1  -3   3  145.56    4.88
   1  -3   3  143.09    4.87
   1  -3   3  147.24    4.36
  -2   3  -3  268.60    8.63
  -2   3  -3  254.01    8.92
  -2   3  -3  285.06    8.06
  -2   3  -3  261.61    8.05
   2  -3   3  279.42    8.03
   2  -3   3  261.14   10.05
   2  -3   3  267.71    8.97
   2  -3   3  272.77    8.03
   2  -3   3  280.49    8.97
  -3   3  -3  205.06    5.89
  -3   3  -3  196.79    6.36
  -3   3  -3  194.14    5.89
   3  -3   3  195.53    6.55
   3  -3   3  194.93    5.84
   3  -3   3  189.90    7.37
   3  -3   3  190.16    6.57
   3  -3   3  201.38    5.84
  -4   3  -3  260.40    7.49
  -4   3  -3  241.71    8.08
  -4   3  -3  244.71    7.49
  -4   3  -3  244.13    7.49
   4  -3   3  256.78    8.34
   4  -3   3  239.98    9.39
   4  -3   3  255.10    7.39
   4  -3   3  250.82    8.37
   4  -3   3  258.77    7.39
  -5   3  -3   98.63    3.16
  -5   3  -3  105.92    3.16
   5  -3   3   99.39    3.57
   5  -3   3  105.69    3.54
   5  -3   3   99.92    4.04
  -6   3  -3    3.01    0.60
  -6   3  -3    3.88    0.36
   6  -3   3    3.04    0.51
   6  -3   3    2.71    0.47
  -7   3  -3    2.48    0.35
   7  -3   3    3.03    0.53
   7  -3   3    3.78    0.56
  -8   3  -3   16.66    0.79
   8  -3   3   15.81    1.08
   8  -3   3   15.61    1.00
   8   2  -3   32.79    1.39
   8   2  -3   33.81    1.37
  -8  -2   3   32.73    1.49
  -8  -2   3   35.16    1.21
   7   2  -3   42.81    1.61
   7   2  -3   41.43    1.56
  -7  -2   3   40.98    1.69
  -7  -2   3   40.90    1.39
   6   2  -3   61.48    2.21
   6   2  -3   60.97    2.16
  -6  -2   3   60.47    1.93
  -6  -2   3   62.17    2.29
   5   2  -3   22.43    1.01
   5   2  -3   21.95    0.92
  -5  -2   3   22.28    0.97
  -5  -2   3   22.34    0.79
  -5  -2   3   23.20    0.82
   4   2  -3   94.21    3.22
   4   2  -3   94.09    3.30
  -4  -2   3   95.37    2.90
  -4  -2   3   99.49    2.92
  -4  -2   3   93.93    3.35
   3   2  -3  193.22    5.70
   3   2  -3  187.78    6.35
   3   2  -3  192.59    5.67
   3   2  -3  188.88    6.40
   3   2  -3  191.88    5.70
  -3  -2   3  190.45    5.71
  -3  -2   3  191.99    6.56
  -3  -2   3  195.94    5.74
   2   2  -3  775.67   25.68
   2   2  -3  787.22   25.60
   2   2  -3  784.27   22.98
   2   2  -3  808.43   26.43
   2   2  -3  760.00   23.01
  -2  -2   3  776.50   23.08
  -2  -2   3  756.79   25.52
  -2  -2   3  731.84   24.33
  -2  -2   3  792.60   26.44
  -2  -2   3  729.67   23.02
   1   2  -3  614.01   19.89
   1   2  -3  642.31   19.03
   1   2  -3  622.94   20.00
   1   2  -3  577.82   17.84
   1   2  -3  593.86   17.77
  -1  -2   3  589.91   19.00
  -1  -2   3  575.99   19.90
  -1  -2   3  563.04   17.68
  -1  -2   3  585.81   19.77
  -1  -2   3  581.90   17.86
   0   2  -3   62.62    2.24
   0   2  -3   63.35    1.97
   0   2  -3   62.00    2.10
   0  -2   3   63.69    2.23
   0  -2   3   63.69    1.98
   0  -2   3   62.86    2.10
   0  -2   3   65.66    1.97
  -1   2  -3   13.58    0.70
  -1   2  -3   14.44    0.67
  -1   2  -3   13.95    0.62
  -1   2  -3   15.51    0.58
  -1   2  -3   15.26    0.57
   1  -2   3   15.27    0.55
   1  -2   3   14.46    0.68
   1  -2   3   13.96    0.72
   1  -2   3   14.22    0.55
   1  -2   3   14.98    0.63
  -2   2  -3   23.50    0.94
  -2   2  -3   24.02    0.84
  -2   2  -3   23.55    0.98
  -2   2  -3   24.89    0.84
  -2   2  -3   23.20    0.84
   2  -2   3   24.30    0.84
   2  -2   3   24.30    1.00
   2  -2   3   24.03    1.13
   2  -2   3   24.43    0.82
   2  -2   3   23.95    0.98
   2  -2   3   23.40    0.96
  -3   2  -3   23.56    0.83
  -3   2  -3   21.55    0.95
  -3   2  -3   24.33    0.85
   3  -2   3   22.09    1.10
   3  -2   3   22.80    0.96
   3  -2   3   23.98    0.78
   3  -2   3   24.44    0.97
   3  -2   3   23.70    1.00
   3  -2   3   23.50    0.82
  -4   2  -3  148.46    4.67
  -4   2  -3  155.79    5.08
  -4   2  -3  159.52    4.66
  -4   2  -3  159.77    5.89
   4  -2   3  154.56    4.59
   4  -2   3  159.18    5.19
   4  -2   3  140.98    5.21
  -5   2  -3  122.60    4.72
  -5   2  -3  127.17    3.70
  -5   2  -3  119.09    3.71
   5  -2   3  120.10    4.12
   5  -2   3  113.66    4.17
   5  -2   3  119.83    4.71
  -6   2  -3   10.51    0.96
  -6   2  -3    9.94    0.57
   6  -2   3    9.48    0.82
   6  -2   3   10.10    0.73
  -7   2  -3    7.25    0.55
   7  -2   3    7.39    0.67
   7  -2   3    6.45    0.66
   7  -2   3    7.56    0.65
  -8   2  -3    0.55    0.35
   8  -2   3    1.03    0.51
   8  -2   3    0.50    0.51
   8   1  -3   35.82    1.46
   8   1  -3   38.15    1.44
  -8  -1   3   38.86    1.64
  -8  -1   3   38.33    1.28
   7   1  -3  139.16    4.70
   7   1  -3  136.30    4.66
  -7  -1   3  141.27    4.19
  -7  -1   3  136.82    4.94
  -7  -1   3  139.48    5.41
   6   1  -3   42.21    1.58
   6   1  -3   44.47    1.66
  -6  -1   3   45.76    1.49
  -6  -1   3   45.98    1.44
  -6  -1   3   45.07    1.42
  -6  -1   3   43.33    1.73
  -6  -1   3   44.87    1.95
   5   1  -3  103.59    3.57
   5   1  -3  104.63    3.63
  -5  -1   3  107.98    3.21
  -5  -1   3  108.02    3.41
  -5  -1   3  110.95    3.23
  -5  -1   3  103.85    3.77
   4   1  -3   56.94    1.95
   4   1  -3   55.84    2.01
  -4  -1   3   55.33    2.08
  -4  -1   3   61.08    1.80
  -4  -1   3   57.33    1.76
   3   1  -3   15.05    0.48
   3   1  -3   14.49    0.67
   3   1  -3   14.76    0.60
  -3  -1   3   15.59    0.53
  -3  -1   3   15.61    0.56
  -3  -1   3   15.16    0.65
   2   1  -3  113.54    3.88
   2   1  -3  116.45    4.01
   2   1  -3  114.88    3.48
   2   1  -3  119.28    3.47
   2   1  -3  114.18    3.89
  -2  -1   3  114.60    3.50
  -2  -1   3  117.13    3.85
  -2  -1   3  116.98    4.01
  -2  -1   3  119.00    3.50
   1   1  -3  375.37   11.34
   1   1  -3  383.19   12.46
   1   1  -3  397.53   11.23
   1   1  -3  376.78   12.51
  -1  -1   3  367.02   12.53
  -1  -1   3  370.08   11.29
  -1  -1   3  353.94   12.05
  -1  -1   3  367.13   12.36
  -1  -1   3  370.41   11.37
   0   1  -3   13.45    0.72
   0   1  -3   13.79    0.52
   0   1  -3   12.97    0.52
   0  -1   3   13.48    0.65
   0  -1   3   11.66    0.52
   0  -1   3   13.42    0.51
   0  -1   3   13.01    0.58
  -1   1  -3   62.07    1.97
  -1   1  -3   62.51    2.13
  -1   1  -3   62.33    2.20
  -1   1  -3   64.32    2.22
  -1   1  -3   64.54    1.97
   1  -1   3   64.51    2.14
   1  -1   3   64.24    2.22
   1  -1   3   64.67    1.97
   1  -1   3   63.43    2.22
   1  -1   3   63.35    1.96
  -2   1  -3   96.41    3.26
  -2   1  -3   97.75    3.01
  -2   1  -3   98.62    3.35
  -2   1  -3  101.15    3.00
   2  -1   3  101.15    2.98
   2  -1   3   94.84    3.26
   2  -1   3   94.19    3.37
   2  -1   3   99.97    3.00
   2  -1   3   97.39    3.76
   2  -1   3  101.23    3.35
  -3   1  -3    6.58    0.40
  -3   1  -3    7.03    0.38
  -3   1  -3    6.98    0.59
  -3   1  -3    7.29    0.52
   3  -1   3    6.98    0.35
   3  -1   3    5.43    0.46
   3  -1   3    6.23    0.50
   3  -1   3    6.61    0.53
   3  -1   3    6.08    0.49
  -4   1  -3   36.32    1.67
  -4   1  -3   38.82    1.22
  -4   1  -3   35.68    1.40
  -4   1  -3   36.26    1.25
   4  -1   3   35.42    1.41
   4  -1   3   35.81    1.39
   4  -1   3   37.45    1.14
   4  -1   3   33.28    1.59
   4  -1   3   35.96    1.50
  -5   1  -3  199.30    6.09
  -5   1  -3  208.46    7.66
  -5   1  -3  206.99    6.06
   5  -1   3  196.06    6.75
   5  -1   3  195.35    6.81
  -6   1  -3   60.78    2.58
  -6   1  -3   54.81    1.90
   6  -1   3   57.84    2.13
   6  -1   3   58.07    2.18
   6  -1   3   56.55    2.17
  -7   1  -3   32.78    1.24
   7  -1   3   33.12    1.49
   7  -1   3   35.21    1.46
   8   0  -3    0.25    0.31
   8   0  -3    0.17    0.28
  -8   0   3   -0.09    0.20
  -8   0   3    0.17    0.40
   7   0  -3   39.66    1.47
   7   0  -3   42.84    1.53
  -7   0   3   41.54    1.89
  -7   0   3   41.11    1.69
  -7   0   3   42.80    1.33
   6   0  -3   66.64    2.38
   6   0  -3   66.24    2.31
  -6   0   3   69.49    2.29
  -6   0   3   70.76    2.11
  -6   0   3   68.48    2.80
  -6   0   3   67.27    2.55
  -6   0   3   70.61    2.09
   5   0  -3   60.41    2.07
   5   0  -3   59.64    2.03
  -5   0   3   61.33    1.84
  -5   0   3   61.18    1.86
  -5   0   3   59.92    2.24
   4   0  -3  162.79    5.47
   4   0  -3  161.10    5.45
  -4   0   3  171.57    4.91
  -4   0   3  163.57    5.73
  -4   0   3  168.06    4.92
   3   0  -3  101.54    3.40
   3   0  -3  105.39    3.57
   3   0  -3   99.85    3.39
  -3   0   3  103.80    3.06
  -3   0   3   99.57    3.56
  -3   0   3  102.42    3.07
   2   0  -3    4.75    0.21
   2   0  -3    4.77    0.24
   2   0  -3    3.82    0.29
   2   0  -3    4.95    0.38
   2   0  -3    4.51    0.30
  -2   0   3    5.20    0.27
  -2   0   3    4.50    0.32
  -2   0   3    5.01    0.25
  -2   0   3    5.29    0.33
   1   0  -3  108.97    3.23
   1   0  -3  104.66    3.63
   1   0  -3  112.21    3.25
   1   0  -3  106.51    3.62
  -1   0   3  109.05    3.61
  -1   0   3  104.54    3.60
  -1   0   3  112.28    3.24
  -1   0   3  106.01    3.25
  -1   0   3  104.92    3.63
   0   0  -3  244.11    7.16
   0   0  -3  237.58    7.15
   0   0  -3  230.92    7.96
   0   0   3  250.43    7.14
   0   0   3  226.53    7.95
   0   0   3  241.89    7.15
  -1   0  -3  409.19   13.04
  -1   0  -3  453.98   13.23
  -1   0  -3  433.35   14.60
  -1   0  -3  436.16   14.56
   1   0   3  423.41   14.04
   1   0   3  440.52   13.20
   1   0   3  438.06   16.41
   1   0   3  430.38   14.51
   1   0   3  447.68   13.14
   1   0   3  462.70   14.62
  -2   0  -3  488.46   14.37
  -2   0  -3  483.45   17.92
  -2   0  -3  461.28   15.81
  -2   0  -3  477.67   14.27
   2   0   3  473.88   18.03
   2   0   3  474.62   15.86
   2   0   3  485.99   14.32
   2   0   3  469.54   15.39
   2   0   3  483.19   16.05
  -3   0  -3   45.75    1.44
  -3   0  -3   42.56    1.84
  -3   0  -3   43.08    1.45
   3   0   3   42.59    1.82
   3   0   3   44.05    1.67
   3   0   3   43.99    1.63
   3   0   3   45.67    1.64
   3   0   3   45.89    1.41
   3   0   3   43.51    1.68
  -4   0  -3    0.93    0.25
  -4   0  -3    1.57    0.45
   4   0   3    1.09    0.35
   4   0   3    1.16    0.39
   4   0   3    1.08    0.20
   4   0   3    0.54    0.42
   4   0   3    1.44    0.39
   4   0   3    1.49    0.42
  -5   0  -3   59.47    1.98
  -5   0  -3   63.81    2.63
   5   0   3   58.75    2.19
   5   0   3   59.81    2.25
   5   0   3   62.01    2.23
  -6   0  -3   58.73    1.97
   6   0   3   60.94    2.27
   6   0   3   58.84    2.21
  -7   0  -3   32.58    1.26
   7   0   3   34.55    1.47
   7   0   3   32.35    1.48
   9  -1  -3   21.27    0.86
   9  -1  -3   19.83    0.86
   8  -1  -3    9.00    0.53
   8  -1  -3    8.61    0.49
  -8   1   3    9.19    0.41
  -8   1   3   10.02    0.73
   7  -1  -3    1.84    0.19
   7  -1  -3    1.48    0.28
  -7   1   3    1.68    0.49
  -7   1   3    1.05    0.38
  -7   1   3    1.71    0.16
  -7   1   3    1.37    0.31
  -6   1   3   13.69    0.46
  -6   1   3   13.30    0.76
  -6   1   3   12.81    0.83
  -6   1   3   13.59    0.49
  -5   1   3  113.43    4.11
  -5   1   3  118.07    3.45
  -5   1   3  116.58    3.45
   4  -1  -3  308.72    9.56
   4  -1  -3  270.73    9.53
  -4   1   3  302.82    8.58
  -4   1   3  284.26    8.56
  -4   1   3  281.49    9.94
   3  -1  -3  206.28    7.09
   3  -1  -3  217.88    6.88
   3  -1  -3  194.01    6.81
  -3   1   3  213.36    6.13
  -3   1   3  200.75    6.13
   2  -1  -3   89.84    2.58
   2  -1  -3   88.56    2.86
   2  -1  -3   85.25    2.55
   2  -1  -3   80.67    2.89
   2  -1  -3   86.11    3.00
  -2   1   3   84.05    2.59
  -2   1   3   79.03    2.87
  -2   1   3   88.62    2.57
   1  -1  -3   42.68    1.50
   1  -1  -3   40.80    1.32
   1  -1  -3   43.76    1.34
   1  -1  -3   40.75    1.51
   1  -1  -3   42.69    1.49
  -1   1   3   41.47    1.47
  -1   1   3   41.25    1.53
  -1   1   3   43.12    1.32
  -1   1   3   41.40    1.34
   0  -1  -3  157.88    4.81
   0  -1  -3  157.81    5.38
   0  -1  -3  164.45    4.82
   0   1   3  160.48    5.36
   0   1   3  158.96    5.95
   0   1   3  160.30    4.82
   0   1   3  166.05    4.82
  -1  -1  -3  380.75   12.43
  -1  -1  -3  381.44   12.44
  -1  -1  -3  378.44   11.31
  -1  -1  -3  379.06   11.35
   1   1   3  369.62   14.05
   1   1   3  384.33   12.49
   1   1   3  383.43   11.45
   1   1   3  359.26   12.44
  -2  -1  -3  531.46   19.94
  -2  -1  -3  519.71   16.00
  -2  -1  -3  543.33   16.05
  -2  -1  -3  535.89   17.78
   2   1   3  553.14   16.20
   2   1   3  526.74   17.26
   2   1   3  536.48   19.91
   2   1   3  527.02   17.73
   2   1   3  554.40   17.94
  -3  -1  -3  102.72    3.17
  -3  -1  -3  103.17    3.96
   3   1   3  102.54    3.55
   3   1   3  104.78    3.13
   3   1   3  101.57    3.95
   3   1   3   99.09    3.44
   3   1   3  102.91    3.53
  -4  -1  -3   21.56    0.87
  -4  -1  -3   23.43    1.22
   4   1   3   20.83    1.03
   4   1   3   20.65    1.07
   4   1   3   22.98    0.81
   4   1   3   22.16    1.04
  -5  -1  -3    4.91    0.65
  -5  -1  -3    4.51    0.41
   5   1   3    4.99    0.55
   5   1   3    4.42    0.50
   5   1   3    4.11    0.53
  -6  -1  -3    2.91    0.39
   6   1   3    2.47    0.54
   6   1   3    2.44    0.55
  -7  -1  -3    5.43    0.49
   7   1   3    4.99    0.66
   9  -2  -3   13.57    0.60
   9  -2  -3   14.50    0.61
  -8   2   3   18.10    1.00
  -7   2   3    5.96    0.56
  -7   2   3    6.31    0.65
  -6   2   3    0.44    0.40
  -6   2   3    0.94    0.35
  -5   2   3   19.39    0.66
  -5   2   3   20.15    0.92
  -5   2   3   20.59    0.99
  -5   2   3   20.44    0.63
   4  -2  -3  270.48    9.50
   4  -2  -3  299.51    9.54
  -4   2   3  282.30    8.54
  -4   2   3  300.38    8.57
   3  -2  -3  251.77    8.66
   3  -2  -3  257.22    8.46
   3  -2  -3  243.31    8.41
  -3   2   3  249.75    8.68
  -3   2   3  263.72    7.55
  -3   2   3  248.41    7.49
   2  -2  -3  425.64   12.84
   2  -2  -3  416.83   14.20
   2  -2  -3  463.85   14.30
   2  -2  -3  450.02   12.84
   2  -2  -3  439.66   14.81
  -2   2   3  398.16   14.15
  -2   2   3  375.52   12.76
  -2   2   3  453.02   12.84
   1  -2  -3  342.07   10.22
   1  -2  -3  328.94   11.44
   1  -2  -3  345.28   10.12
   1  -2  -3  354.43   11.44
  -1   2   3  354.71   10.20
  -1   2   3  355.40   11.42
  -1   2   3  301.87   11.37
  -1   2   3  336.30   10.28
   0  -2  -3    1.11    0.18
   0  -2  -3    1.42    0.19
   0  -2  -3    1.27    0.26
   0   2   3    0.95    0.25
   0   2   3    1.01    0.17
   0   2   3    0.93    0.17
   0   2   3    1.55    0.17
  -1  -2  -3    7.41    0.38
  -1  -2  -3    5.86    0.44
  -1  -2  -3    7.41    0.49
  -1  -2  -3    7.11    0.50
  -1  -2  -3    6.79    0.59
   1   2   3    7.16    0.54
   1   2   3    7.68    0.38
   1   2   3    7.50    0.43
   1   2   3    7.31    0.50
  -2  -2  -3  111.99    4.29
  -2  -2  -3  115.47    3.48
  -2  -2  -3  114.47    3.88
   2   2   3  111.05    3.86
   2   2   3  114.48    3.45
   2   2   3  113.82    3.88
   2   2   3  110.29    3.74
  -3  -2  -3   63.86    2.08
  -3  -2  -3   64.58    2.58
   3   2   3   62.41    2.27
   3   2   3   65.64    2.04
   3   2   3   64.28    2.35
   3   2   3   65.63    2.34
  -4  -2  -3   40.13    1.46
  -4  -2  -3   44.29    1.89
   4   2   3   39.37    1.64
   4   2   3   44.15    1.41
   4   2   3   40.70    1.68
   4   2   3   43.40    1.67
  -5  -2  -3   72.53    2.44
  -5  -2  -3   81.50    3.15
   5   2   3   71.56    2.68
   5   2   3   76.07    2.77
   5   2   3   74.58    2.75
  -6  -2  -3    6.78    0.54
   6   2   3    6.81    0.68
   6   2   3    7.46    0.72
  -8   3   3   19.39    1.07
  -7   3   3  101.20    4.00
  -7   3   3  101.03    3.74
  -6   3   3   87.45    3.46
  -6   3   3   84.95    3.24
  -6   3   3   88.19    2.64
  -6   3   3   90.99    2.62
   5  -3  -3   37.73    1.27
   5  -3  -3   34.94    1.31
  -5   3   3   35.77    1.55
  -5   3   3   38.02    1.17
  -5   3   3   38.05    1.14
   4  -3  -3   37.41    1.33
   4  -3  -3   38.46    1.47
   4  -3  -3   37.65    1.38
  -4   3   3   38.04    1.21
  -4   3   3   39.22    1.19
  -4   3   3   37.41    1.53
   3  -3  -3  154.49    4.64
   3  -3  -3  162.56    4.67
   3  -3  -3  158.84    5.20
   3  -3  -3  156.97    5.44
   3  -3  -3  151.46    5.23
  -3   3   3  155.83    5.79
  -3   3   3  148.74    5.46
  -3   3   3  157.00    4.69
  -3   3   3  163.02    4.67
   2  -3  -3  167.79    5.92
   2  -3  -3  164.31    5.09
   2  -3  -3  174.30    5.69
   2  -3  -3  169.14    5.71
  -2   3   3  171.60    5.12
  -2   3   3  178.10    5.11
   1  -3  -3  524.97   18.15
   1  -3  -3  562.54   18.18
   1  -3  -3  541.71   16.40
  -1   3   3  527.58   16.39
  -1   3   3  543.70   18.06
  -1   3   3  563.96   16.40
  -1   3   3  542.88   18.00
   0  -3  -3  165.99    5.70
   0  -3  -3  166.78    5.11
   0  -3  -3  174.58    5.69
   0   3   3  173.09    5.70
   0   3   3  169.43    5.11
  -1  -3  -3    1.63    0.31
  -1  -3  -3    2.42    0.34
  -1  -3  -3    2.35    0.29
  -1  -3  -3    2.21    0.35
  -1  -3  -3    2.09    0.26
   1   3   3    2.40    0.26
   1   3   3    1.85    0.32
   1   3   3    2.41    0.37
  -2  -3  -3   18.05    0.90
  -2  -3  -3   17.88    0.72
  -2  -3  -3   18.07    0.90
   2   3   3   16.62    0.87
   2   3   3   18.08    0.71
   2   3   3   18.01    0.93
  -3  -3  -3   47.36    1.97
  -3  -3  -3   44.90    1.58
   3   3   3   45.66    1.79
   3   3   3   48.38    1.83
   3   3   3   47.64    1.56
   3   3   3   44.05    1.73
  -4  -3  -3   50.43    2.18
  -4  -3  -3   50.08    1.75
   4   3   3   51.47    2.00
   4   3   3   54.86    1.72
   4   3   3   47.66    1.91
   4   3   3   52.57    1.99
  -5  -3  -3   83.32    2.78
  -5  -3  -3   92.71    3.53
   5   3   3   79.59    3.01
   5   3   3   85.87    3.12
  -6  -3  -3   21.02    0.97
   6   3   3   20.24    1.19
  -8   4   3   16.55    1.12
  -8   4   3   16.05    1.01
  -7   4   3  127.99    4.63
  -7   4   3  127.60    4.93
  -7   4   3  125.89    3.78
   6  -4  -3  152.99    5.28
   6  -4  -3  158.95    5.26
  -6   4   3  161.54    4.73
  -6   4   3  162.70    6.04
  -6   4   3  159.66    4.74
   5  -4  -3   78.69    2.64
   5  -4  -3   76.75    2.67
  -5   4   3   76.43    3.02
  -5   4   3   81.26    2.36
  -5   4   3   78.05    2.37
  -5   4   3   75.56    2.88
   4  -4  -3    8.47    0.54
   4  -4  -3    9.08    0.55
   4  -4  -3    8.58    0.52
  -4   4   3    7.89    0.57
  -4   4   3    9.61    0.39
  -4   4   3    8.48    0.52
  -4   4   3    9.17    0.41
   3  -4  -3   31.01    1.24
   3  -4  -3   30.59    1.20
   3  -4  -3   32.90    1.19
   3  -4  -3   30.39    1.00
  -3   4   3   29.99    1.04
  -3   4   3   31.02    1.23
  -3   4   3   32.91    1.04
   2  -4  -3   44.48    1.59
   2  -4  -3   42.33    1.64
   2  -4  -3   42.23    1.59
   2  -4  -3   43.02    1.38
  -2   4   3   42.99    1.40
  -2   4   3   44.96    1.40
   1  -4  -3  186.49    6.21
   1  -4  -3  181.36    5.55
   1  -4  -3  188.16    6.20
  -1   4   3  184.64    5.57
  -1   4   3  184.66    6.20
   0  -4  -3  126.72    3.93
   0  -4  -3  130.23    4.40
   0  -4  -3  127.02    4.37
   0   4   3  129.00    3.93
   0   4   3  131.37    4.38
  -1  -4  -3   41.27    1.43
  -1  -4  -3   42.22    1.69
  -1  -4  -3   42.30    1.64
  -1  -4  -3   43.18    1.65
   1   4   3   42.88    1.63
   1   4   3   41.48    1.42
   1   4   3   41.96    1.64
  -2  -4  -3   16.01    0.98
  -2  -4  -3   14.93    0.70
  -2  -4  -3   16.04    0.86
  -2  -4  -3   12.57    0.88
   2   4   3   17.28    0.72
   2   4   3   15.67    0.93
   2   4   3   14.98    0.91
  -3  -4  -3    7.23    0.68
  -3  -4  -3    7.63    0.54
   3   4   3    6.60    0.56
   3   4   3    7.00    0.52
   3   4   3    7.31    0.64
   3   4   3    5.24    0.57
  -4  -4  -3   17.49    1.08
  -4  -4  -3   17.01    0.83
   4   4   3   18.18    0.80
   4   4   3   16.02    1.04
   4   4   3   17.41    0.95
  -5  -4  -3   58.23    2.05
   5   4   3   60.03    2.34
   8  -5  -3   -0.10    0.22
   8  -5  -3    0.08    0.22
  -8   5   3   -0.21    0.41
  -8   5   3    0.57    0.53
   7  -5  -3   39.16    1.40
   7  -5  -3   37.88    1.41
  -7   5   3   40.21    1.71
  -7   5   3   39.05    1.24
  -7   5   3   41.20    1.81
   6  -5  -3   75.84    2.55
   6  -5  -3   72.93    2.56
  -6   5   3   70.85    2.82
  -6   5   3   73.08    2.27
  -6   5   3   79.21    2.99
   5  -5  -3   30.50    1.24
   5  -5  -3   32.03    1.23
  -5   5   3   32.52    1.39
  -5   5   3   32.65    1.06
  -5   5   3   31.15    1.06
  -5   5   3   33.65    1.42
   4  -5  -3   46.42    1.74
   4  -5  -3   47.46    1.72
   4  -5  -3   49.78    1.49
   4  -5  -3   46.94    1.83
  -4   5   3   49.43    1.88
  -4   5   3   44.47    1.86
  -4   5   3   49.39    1.52
  -4   5   3   45.43    1.52
   3  -5  -3   12.57    0.68
   3  -5  -3   13.00    0.70
   3  -5  -3   12.74    0.72
   3  -5  -3   12.86    0.51
  -3   5   3   13.25    0.54
  -3   5   3   13.39    0.55
   2  -5  -3    1.34    0.35
   2  -5  -3    1.59    0.22
   2  -5  -3    1.81    0.37
   2  -5  -3    1.77    0.30
  -2   5   3    1.55    0.23
   1  -5  -3   62.75    1.95
   1  -5  -3   59.31    2.19
   1  -5  -3   59.45    2.20
  -1   5   3   63.80    1.96
  -1   5   3   58.36    2.19
   0  -5  -3  200.61    6.67
   0  -5  -3  195.44    5.98
   0   5   3  201.82    6.67
   0   5   3  193.60    5.97
  -1  -5  -3  108.96    4.17
  -1  -5  -3  119.86    3.75
  -1  -5  -3  123.13    4.55
   1   5   3  127.18    4.22
   1   5   3  123.63    4.19
   1   5   3  122.82    3.74
  -2  -5  -3  163.16    5.32
  -2  -5  -3  175.94    6.53
   2   5   3  172.64    5.31
   2   5   3  175.17    5.94
   2   5   3  182.40    5.97
  -3  -5  -3   44.62    1.65
  -3  -5  -3   50.20    2.03
   3   5   3   47.23    1.80
   3   5   3   44.85    1.87
   3   5   3   46.73    1.63
  -4  -5  -3   -0.54    0.46
  -4  -5  -3   -0.15    0.35
   4   5   3   -0.81    0.35
   4   5   3   -0.23    0.42
  -5  -5  -3    5.74    0.58
   8  -6  -3    6.09    0.46
   8  -6  -3    4.82    0.38
  -8   6   3    6.50    0.76
  -8   6   3    5.40    0.69
  -8   6   3    6.42    0.37
   7  -6  -3    4.72    0.40
   7  -6  -3    4.85    0.40
  -7   6   3    5.19    0.64
  -7   6   3    6.16    0.66
  -7   6   3    5.42    0.35
   6  -6  -3   26.58    1.10
   6  -6  -3   27.77    1.09
  -6   6   3   27.04    1.31
  -6   6   3   28.87    1.34
  -6   6   3   27.17    0.95
   5  -6  -3   22.81    1.01
   5  -6  -3   21.98    0.99
  -5   6   3   25.45    0.86
  -5   6   3   23.40    1.15
  -5   6   3   22.59    0.84
   4  -6  -3  168.39    5.57
   4  -6  -3  162.13    5.57
   4  -6  -3  168.15    4.95
  -4   6   3  161.99    4.99
   3  -6  -3  230.50    7.84
   3  -6  -3  232.59    7.00
   3  -6  -3  241.16    8.11
   3  -6  -3  235.31    7.83
  -3   6   3  231.47    7.03
   2  -6  -3   84.85    3.02
   2  -6  -3   84.20    2.68
   2  -6  -3   86.02    3.05
   2  -6  -3   90.00    3.13
  -2   6   3   84.96    2.69
   1  -6  -3    1.97    0.44
   1  -6  -3    1.88    0.28
   1  -6  -3    2.35    0.46
   1  -6  -3    2.18    0.40
  -1   6   3    1.61    0.28
  -1   6   3    1.82    0.44
   0  -6  -3   64.83    2.44
   0  -6  -3   65.69    2.13
   0   6   3   67.07    2.43
   0   6   3   62.99    2.13
  -1  -6  -3   89.61    2.93
  -1  -6  -3   91.53    3.50
   1   6   3   93.81    3.31
   1   6   3   92.70    2.93
  -2  -6  -3   99.97    3.31
  -2  -6  -3  106.88    4.00
   2   6   3  104.91    3.30
  -3  -6  -3   57.98    2.32
  -3  -6  -3   52.01    1.91
   3   6   3   53.10    2.06
   3   6   3   55.74    1.91
  -4  -6  -3    5.30    0.53
   8  -7  -3   25.46    1.06
   8  -7  -3   25.53    1.06
  -8   7   3   27.13    1.45
  -8   7   3   26.07    0.93
   7  -7  -3   18.38    0.88
   7  -7  -3   18.48    0.88
  -7   7   3   19.37    0.74
  -7   7   3   19.93    1.14
   6  -7  -3    2.49    0.40
   6  -7  -3    2.23    0.39
  -6   7   3    2.38    0.29
  -6   7   3    2.34    0.53
   5  -7  -3    7.72    0.60
   5  -7  -3    8.40    0.64
  -5   7   3    7.10    0.47
   4  -7  -3   82.62    2.96
   4  -7  -3   84.21    2.59
   4  -7  -3   83.56    2.95
  -4   7   3   83.97    2.63
   3  -7  -3  211.46    6.30
   3  -7  -3  207.94    7.05
   3  -7  -3  214.26    7.07
  -3   7   3  203.66    6.32
   2  -7  -3  119.84    4.04
   2  -7  -3  114.44    4.03
   2  -7  -3  119.48    4.14
   2  -7  -3  113.64    3.58
  -2   7   3  110.55    3.59
   1  -7  -3   48.41    1.94
   1  -7  -3   50.87    1.93
   1  -7  -3   47.13    1.64
  -1   7   3   47.62    1.65
   0  -7  -3   -0.39    0.27
   0   7   3   -0.54    0.29
  -1  -7  -3    3.34    0.43
  -1  -7  -3    3.56    0.39
   1   7   3    3.26    0.44
  -2  -7  -3   21.18    0.95
   2   7   3   21.25    0.97
  -3  -7  -3   21.44    1.01
   3   7   3   21.77    1.14
   3   7   3   23.59    1.05
   8  -8  -3   13.05    0.78
   8  -8  -3   13.86    0.78
  -8   8   3   13.29    0.63
   7  -8  -3   49.74    1.85
   7  -8  -3   47.58    1.85
  -7   8   3   49.00    1.64
  -7   8   3   50.08    2.15
   6  -8  -3   47.58    1.82
   6  -8  -3   48.54    1.84
  -6   8   3   47.83    1.60
   5  -8  -3    4.25    0.51
   5  -8  -3    4.43    0.52
  -5   8   3    3.67    0.37
   4  -8  -3    6.13    0.58
   4  -8  -3    6.11    0.47
   4  -8  -3    5.33    0.55
  -4   8   3    6.52    0.49
   3  -8  -3   64.10    2.36
   3  -8  -3   62.10    2.36
   3  -8  -3   63.58    2.06
  -3   8   3   61.60    2.07
   2  -8  -3   25.18    0.99
   2  -8  -3   26.17    1.23
  -2   8   3   23.15    0.97
   1  -8  -3   39.27    1.41
  -1   8   3   38.64    1.43
   0  -8  -3   32.35    1.26
   0   8   3   32.46    1.25
  -1  -8  -3    3.49    0.46
   1   8   3    2.15    0.41
  -2  -8  -3    0.60    0.41
   2   8   3    0.59    0.43
   7  -9  -3   21.82    1.10
   7  -9  -3   23.10    1.11
  -7   9   3   23.56    0.93
   6  -9  -3   56.73    2.19
   6  -9  -3   58.20    2.18
  -6   9   3   56.29    1.91
   5  -9  -3   21.28    1.12
   5  -9  -3   23.35    1.11
  -5   9   3   20.67    0.91
   4  -9  -3    1.86    0.51
  -4   9   3    1.29    0.35
   3  -9  -3    9.27    0.60
   3  -9  -3    7.84    0.71
  -3   9   3    8.40    0.57
   2  -9  -3   19.88    0.89
  -2   9   3   18.21    0.86
   1  -9  -3   32.57    1.28
  -1   9   3   32.12    1.26
   0  -9  -3   65.11    2.23
   0   9   3   65.52    2.24
  -1  -9  -3   25.58    1.12
   1   9   3   23.55    1.12
   6 -10  -3   33.04    1.48
  -6  10   3   34.00    1.29
   5 -10  -3   26.26    1.28
  -5  10   3   24.63    1.05
   4 -10  -3   10.43    0.91
  -4  10   3   10.61    0.68
   3 -10  -3    3.42    0.45
  -3  10   3    2.43    0.44
   2 -10  -3    0.80    0.39
  -2  10   3    0.78    0.40
   1 -10  -3    7.68    0.62
  -1  10   3    7.17    0.60
   0 -10  -3   50.68    1.87
   0  10   3   49.85    1.87
  -4  11   3   31.68    1.30
  -3  11   3   40.68    1.57
   2 -11  -3   12.27    0.81
  -2  11   3   11.46    0.77
  -2  13  -4   35.42    1.48
   2 -13   4   36.84    1.52
  -3  13  -4   30.83    1.35
   1  12  -4    3.21    0.57
  -1 -12   4    2.81    0.55
   0  12  -4    0.76    0.47
   0 -12   4    1.23    0.48
  -1  12  -4   12.50    0.79
   1 -12   4   13.50    0.88
  -2  12  -4   28.73    1.24
   2 -12   4   30.52    1.29
  -3  12  -4   62.67    2.20
  -4  12  -4   15.42    0.87
  -5  12  -4    6.68    0.62
   5 -12   4    6.48    0.86
   2  11  -4   29.15    1.29
  -2 -11   4   29.17    1.29
   1  11  -4   16.84    0.96
  -1 -11   4   20.05    0.96
   0  11  -4   25.10    1.16
   0 -11   4   28.23    1.18
  -1  11  -4    1.20    0.39
   1 -11   4    1.31    0.43
  -2  11  -4    3.63    0.46
   2 -11   4    3.45    0.50
  -3  11  -4   52.50    2.04
  -3  11  -4   54.27    1.90
   3 -11   4   54.85    1.90
   3 -11   4   51.63    2.23
  -4  11  -4   55.79    2.02
  -4  11  -4   59.92    2.26
   4 -11   4   53.01    2.57
   4 -11   4   63.66    2.43
  -5  11  -4   21.20    1.02
  -5  11  -4   23.96    1.19
   5 -11   4   22.47    1.36
  -6  11  -4   23.83    1.31
  -6  11  -4   23.94    1.13
   6 -11   4   26.39    1.48
   3  10  -4    4.84    0.58
  -3 -10   4    3.76    0.51
   2  10  -4   24.38    1.09
  -2 -10   4   22.54    1.04
   1  10  -4   49.05    1.76
  -1 -10   4   48.98    1.78
   0  10  -4  114.71    3.76
   0 -10   4  122.64    3.80
  -1  10  -4   39.85    1.47
   1 -10   4   39.00    1.47
  -2  10  -4    0.77    0.35
  -2  10  -4    0.46    0.28
   2 -10   4    0.94    0.57
   2 -10   4    0.83    0.38
  -3  10  -4   24.64    1.09
  -3  10  -4   23.28    1.04
   3 -10   4   25.53    1.36
   3 -10   4   26.05    1.09
  -4  10  -4   64.61    2.17
  -4  10  -4   63.34    2.43
   4 -10   4   68.87    2.55
   4 -10   4   65.31    2.47
   4 -10   4   56.90    2.75
  -5  10  -4   51.84    2.13
  -5  10  -4   53.00    1.86
   5 -10   4   52.79    2.15
   5 -10   4   54.76    2.21
  -6  10  -4   53.77    1.93
  -6  10  -4   53.35    2.25
   6 -10   4   53.98    2.21
   6 -10   4   57.98    2.28
  -4  -9   4    7.05    0.59
   3   9  -4   -0.03    0.38
  -3  -9   4    0.06    0.37
   2   9  -4   14.09    0.79
  -2  -9   4   14.69    0.79
   1   9  -4   49.91    1.73
  -1  -9   4   47.43    1.71
   0   9  -4  190.32    5.97
   0  -9   4  199.31    5.99
  -1   9  -4  133.14    4.28
   1  -9   4  139.41    4.81
   1  -9   4  137.59    4.81
   1  -9   4  140.07    4.31
  -2   9  -4   17.85    0.81
  -2   9  -4   17.89    0.80
   2  -9   4   19.94    1.17
   2  -9   4   17.40    1.00
   2  -9   4   17.98    0.86
  -3   9  -4    1.73    0.35
  -3   9  -4    1.39    0.33
   3  -9   4    1.22    0.59
   3  -9   4    1.51    0.35
   3  -9   4    2.42    0.51
  -4   9  -4    5.89    0.52
  -4   9  -4    5.62    0.48
   4  -9   4    6.24    0.71
   4  -9   4    5.20    0.45
   4  -9   4    5.52    0.72
   4  -9   4    5.00    0.60
  -5   9  -4   14.23    0.88
  -5   9  -4   13.78    0.77
   5  -9   4   14.63    0.97
   5  -9   4   16.00    1.12
  -6   9  -4   53.14    1.83
  -6   9  -4   50.31    2.15
   6  -9   4   49.21    2.10
   6  -9   4   55.79    2.19
  -7   9  -4   35.19    1.69
  -7   9  -4   37.84    1.41
   7  -9   4   36.32    1.73
   7  -9   4   36.38    1.66
  -5  -8   4   36.89    1.44
   4   8  -4   20.46    0.94
   4   8  -4   19.53    1.25
  -4  -8   4   18.20    0.91
   3   8  -4   47.29    1.66
   3   8  -4   45.79    1.93
  -3  -8   4   44.94    1.64
   2   8  -4    8.48    0.63
   2   8  -4    9.57    0.51
   2   8  -4   10.01    0.85
  -2  -8   4    9.48    0.62
   1   8  -4    4.57    0.59
   1   8  -4    4.48    0.42
   1   8  -4    3.81    0.55
  -1  -8   4    4.90    0.57
  -1  -8   4    4.24    0.43
   0   8  -4   78.18    2.61
   0   8  -4   82.08    2.98
   0   8  -4   81.88    2.97
   0  -8   4   81.93    2.96
   0  -8   4   80.08    2.63
   0  -8   4   83.75    2.96
  -1   8  -4  174.65    5.40
  -1   8  -4  175.32    6.02
  -1   8  -4  175.04    6.05
   1  -8   4  178.12    6.05
   1  -8   4  177.72    5.43
   1  -8   4  179.57    6.06
  -2   8  -4   84.70    3.03
  -2   8  -4   83.07    2.72
   2  -8   4   85.18    3.09
   2  -8   4   89.52    3.15
   2  -8   4   84.46    2.75
  -3   8  -4  117.69    3.82
   3  -8   4  127.70    4.35
   3  -8   4  121.72    4.29
   3  -8   4  123.79    3.84
  -4   8  -4   40.19    1.45
   4  -8   4   37.97    1.92
   4  -8   4   41.51    1.43
   4  -8   4   40.74    1.67
   4  -8   4   42.25    1.75
  -5   8  -4    0.20    0.29
   5  -8   4   -0.16    0.59
   5  -8   4    0.40    0.48
   5  -8   4    0.80    0.53
  -6   8  -4   19.51    0.89
   6  -8   4   20.34    1.16
   6  -8   4   16.72    1.04
  -7   8  -4   43.21    1.60
   7  -8   4   44.33    1.91
   7  -8   4   42.40    1.85
   6   7  -4   -0.14    0.60
  -6  -7   4    0.12    0.38
   5   7  -4   39.94    1.77
  -5  -7   4   38.17    1.45
   4   7  -4   61.81    2.31
   4   7  -4   57.09    1.95
  -4  -7   4   53.98    1.93
   3   7  -4  156.71    5.50
   3   7  -4  158.84    5.05
   3   7  -4  156.94    4.89
   3   7  -4  160.86    5.44
  -3  -7   4  159.24    4.89
   2   7  -4  203.02    6.40
   2   7  -4  198.99    6.79
   2   7  -4  208.34    6.87
   2   7  -4  196.96    6.11
  -2  -7   4  198.51    6.10
  -2  -7   4  198.45    6.78
   1   7  -4   33.70    1.53
   1   7  -4   35.63    1.31
   1   7  -4   38.47    1.52
   1   7  -4   38.20    1.32
  -1  -7   4   37.62    1.56
  -1  -7   4   37.89    1.33
   0   7  -4    1.95    0.47
   0   7  -4    1.37    0.28
   0   7  -4    1.01    0.44
   0  -7   4    1.68    0.30
   0  -7   4    3.52    0.47
   0  -7   4    2.41    0.45
  -1   7  -4   67.32    2.60
  -1   7  -4   76.58    2.47
  -1   7  -4   72.92    2.54
  -1   7  -4   73.07    2.34
   1  -7   4   72.69    2.65
   1  -7   4   73.39    2.68
   1  -7   4   71.00    2.35
  -2   7  -4   81.97    2.61
   2  -7   4   80.38    2.95
   2  -7   4   83.36    3.00
   2  -7   4   81.32    2.61
  -3   7  -4  177.12    5.46
   3  -7   4  173.99    6.10
   3  -7   4  178.26    5.46
   3  -7   4  187.24    6.16
  -4   7  -4  111.47    3.48
   4  -7   4  104.17    4.42
   4  -7   4  113.47    3.42
   4  -7   4  111.49    3.96
   4  -7   4  112.94    3.92
  -5   7  -4    6.94    0.52
   5  -7   4    7.17    0.71
   5  -7   4    7.58    0.65
   5  -7   4    7.18    0.74
  -6   7  -4    0.16    0.31
   6  -7   4    0.08    0.49
   6  -7   4   -0.31    0.56
  -7   7  -4   25.89    1.10
   7  -7   4   27.45    1.37
   7  -7   4   25.79    1.34
   6   6  -4    9.07    0.80
  -6  -6   4    8.27    0.61
   5   6  -4    3.24    0.52
   5   6  -4    2.61    0.59
  -5  -6   4    3.20    0.33
  -5  -6   4    2.83    0.39
   4   6  -4   34.08    1.49
   4   6  -4   36.90    1.32
   4   6  -4   36.17    1.54
  -4  -6   4   33.11    1.27
  -4  -6   4   38.19    1.33
   3   6  -4  106.44    3.68
   3   6  -4  101.77    3.23
   3   6  -4  104.27    3.60
   3   6  -4  102.49    3.28
  -3  -6   4   98.89    3.22
   2   6  -4  142.50    4.81
   2   6  -4  138.33    4.44
   2   6  -4  138.61    4.27
   2   6  -4  136.91    4.73
  -2  -6   4  134.94    4.25
  -2  -6   4  138.88    4.73
   1   6  -4   50.13    1.67
   1   6  -4   51.25    1.90
   1   6  -4   45.07    1.88
   1   6  -4   49.93    1.69
  -1  -6   4   49.28    1.89
  -1  -6   4   50.06    1.86
  -1  -6   4   50.87    1.66
   0   6  -4   61.10    2.20
   0   6  -4   59.22    2.02
   0   6  -4   58.85    1.94
   0   6  -4   59.33    2.04
   0  -6   4   58.59    1.94
   0  -6   4   59.80    2.21
   0  -6   4   58.13    2.18
  -1   6  -4    0.12    0.20
  -1   6  -4   -0.30    0.32
  -1   6  -4   -0.08    0.19
   1  -6   4    0.05    0.24
   1  -6   4   -0.32    0.38
   1  -6   4   -0.55    0.34
  -2   6  -4   37.30    1.40
  -2   6  -4   38.57    1.32
   2  -6   4   37.24    1.53
   2  -6   4   37.74    1.33
   2  -6   4   36.33    1.54
  -3   6  -4  157.27    4.68
   3  -6   4  139.32    5.89
   3  -6   4  154.91    4.66
   3  -6   4  157.79    5.27
   3  -6   4  153.04    5.23
  -4   6  -4  232.39    7.15
   4  -6   4  244.16    7.08
   4  -6   4  248.37    8.02
   4  -6   4  221.49    8.97
   4  -6   4  236.60    7.98
  -5   6  -4   21.79    0.93
   5  -6   4   21.85    1.14
   5  -6   4   22.55    1.15
  -6   6  -4   24.28    1.00
   6  -6   4   24.87    1.29
   6  -6   4   25.39    1.30
  -7   6  -4    7.02    0.55
   7  -6   4    8.04    0.75
   7  -6   4    7.72    0.77
   7   5  -4   15.29    1.01
   7   5  -4   16.93    1.08
  -7  -5   4   16.68    0.80
   6   5  -4   19.58    1.05
   6   5  -4   19.01    1.12
  -6  -5   4   18.95    0.85
  -6  -5   4   19.97    0.91
   5   5  -4   20.77    1.10
   5   5  -4   21.17    1.06
  -5  -5   4   21.78    0.91
  -5  -5   4   21.16    0.87
   4   5  -4    5.04    0.53
   4   5  -4    5.30    0.41
   4   5  -4    4.40    0.61
  -4  -5   4    5.77    0.39
  -4  -5   4    5.05    0.40
   3   5  -4   13.56    0.91
   3   5  -4   11.65    0.78
   3   5  -4   12.53    0.63
  -3  -5   4   13.14    0.55
  -3  -5   4   12.06    0.57
   2   5  -4  143.51    4.91
   2   5  -4  143.69    4.58
   2   5  -4  141.01    4.38
   2   5  -4  143.18    4.86
  -2  -5   4  144.07    4.37
  -2  -5   4  142.95    4.84
   1   5  -4   85.97    3.08
   1   5  -4   90.36    3.14
   1   5  -4   89.66    2.78
   1   5  -4   90.15    2.90
  -1  -5   4   88.18    3.12
  -1  -5   4   88.10    2.77
  -1  -5   4   87.07    3.08
   0   5  -4  240.89    7.67
   0   5  -4  243.65    8.05
   0   5  -4  242.02    7.23
   0  -5   4  239.10    8.04
   0  -5   4  236.98    8.05
   0  -5   4  239.86    7.23
  -1   5  -4  320.24   10.22
  -1   5  -4  319.88    9.59
  -1   5  -4  317.56   10.66
  -1   5  -4  315.29   10.68
   1  -5   4  310.51    9.59
   1  -5   4  330.32   10.69
   1  -5   4  332.19   10.69
  -2   5  -4    2.57    0.32
  -2   5  -4    3.25    0.32
   2  -5   4    2.81    0.49
   2  -5   4    2.60    0.42
   2  -5   4    2.96    0.31
  -3   5  -4   57.08    1.97
  -3   5  -4   56.74    1.79
  -3   5  -4   52.51    1.77
   3  -5   4   46.91    2.28
   3  -5   4   53.52    2.03
   3  -5   4   55.09    1.75
   3  -5   4   53.45    2.05
  -4   5  -4  199.11    6.21
  -4   5  -4  216.84    6.22
   4  -5   4  198.74    6.92
   4  -5   4  209.18    6.11
   4  -5   4  196.72    7.79
   4  -5   4  206.09    6.93
  -5   5  -4  128.79    3.78
  -5   5  -4  118.89    3.76
   5  -5   4  114.96    4.77
   5  -5   4  121.68    4.21
   5  -5   4  118.45    4.23
  -6   5  -4   45.69    1.61
   6  -5   4   45.73    1.87
   6  -5   4   46.36    1.86
  -7   5  -4   43.70    1.60
   7  -5   4   46.37    1.88
   7  -5   4   44.77    1.86
   7   4  -4    8.58    0.73
   7   4  -4    8.30    0.71
  -7  -4   4    8.50    0.64
  -7  -4   4    8.60    0.57
   6   4  -4   41.06    1.68
   6   4  -4   39.04    1.60
  -6  -4   4   42.29    1.61
  -6  -4   4   39.69    1.40
   5   4  -4  128.12    4.48
   5   4  -4  128.49    4.41
  -5  -4   4  124.65    3.95
  -5  -4   4  133.92    4.52
   4   4  -4   71.78    2.65
   4   4  -4   71.63    2.29
   4   4  -4   71.51    2.56
  -4  -4   4   74.56    2.57
  -4  -4   4   72.57    2.29
   3   4  -4    9.29    0.58
   3   4  -4    9.40    0.74
   3   4  -4    7.94    0.50
  -3  -4   4    8.60    0.44
  -3  -4   4    8.98    0.44
   2   4  -4  109.49    3.65
   2   4  -4  108.70    3.38
   2   4  -4  106.68    3.24
   2   4  -4  108.70    3.60
  -2  -4   4  106.56    3.23
  -2  -4   4   89.13    3.55
   1   4  -4  299.16   10.02
   1   4  -4  303.51    8.99
   1   4  -4  312.34   10.00
   1   4  -4  292.49   10.30
   1   4  -4  300.60    9.53
  -1  -4   4  298.44   10.01
  -1  -4   4  300.79    8.98
  -1  -4   4  299.48    9.98
   0   4  -4  503.61   16.68
   0   4  -4  488.48   15.19
   0   4  -4  497.21   16.00
   0  -4   4  496.40   16.60
   0  -4   4  499.90   14.95
   0  -4   4  497.37   16.59
  -1   4  -4  571.14   17.89
  -1   4  -4  557.83   18.73
  -1   4  -4  592.49   16.95
  -1   4  -4  557.11   17.12
  -1   4  -4  531.48   18.99
   1  -4   4  539.87   17.19
   1  -4   4  598.06   19.06
   1  -4   4  575.39   18.75
  -2   4  -4  131.87    4.19
  -2   4  -4  146.00    4.20
  -2   4  -4  137.82    4.51
   2  -4   4  135.92    4.69
   2  -4   4  136.79    4.18
   2  -4   4  134.11    4.68
  -3   4  -4    0.32    0.28
  -3   4  -4    0.96    0.24
  -3   4  -4    0.54    0.24
   3  -4   4    0.22    0.20
   3  -4   4    0.77    0.42
   3  -4   4    0.67    0.40
   3  -4   4    0.14    0.44
  -4   4  -4   18.27    0.78
  -4   4  -4   17.25    0.76
  -4   4  -4   17.76    0.76
   4  -4   4   17.06    1.03
   4  -4   4   18.95    0.65
   4  -4   4   16.20    1.04
   4  -4   4   17.84    1.06
  -5   4  -4   28.32    1.06
  -5   4  -4   26.26    1.04
   5  -4   4   25.55    1.24
   5  -4   4   26.35    1.42
   5  -4   4   27.36    1.25
  -6   4  -4   43.70    1.55
   6  -4   4   42.66    1.81
   6  -4   4   45.51    1.78
  -7   4  -4   50.11    1.77
   7  -4   4   50.79    2.04
   7  -4   4   52.41    2.09
   8   3  -4   -0.47    0.47
   8   3  -4    0.22    0.44
  -8  -3   4    0.06    0.42
  -8  -3   4   -0.07    0.29
   7   3  -4    8.61    0.74
   7   3  -4    8.69    0.67
  -7  -3   4    9.09    0.66
  -7  -3   4    8.94    0.53
   6   3  -4   46.06    1.82
   6   3  -4   45.26    1.72
  -6  -3   4   48.84    1.80
  -6  -3   4   44.72    1.53
   5   3  -4  236.55    8.08
   5   3  -4  240.35    8.16
  -5  -3   4  240.62    7.27
  -5  -3   4  248.82    8.36
  -5  -3   4  247.06    7.29
   4   3  -4  200.35    5.89
   4   3  -4  202.16    5.89
   4   3  -4  196.79    6.65
   4   3  -4  193.42    6.57
  -4  -3   4  192.42    6.77
  -4  -3   4  198.62    5.94
  -4  -3   4  195.03    5.91
   3   3  -4  102.00    3.59
   3   3  -4  101.16    3.51
   3   3  -4  101.63    3.17
  -3  -3   4  101.92    3.16
  -3  -3   4  110.47    3.20
  -3  -3   4  103.51    3.59
   2   3  -4    5.77    0.32
   2   3  -4    6.03    0.39
   2   3  -4    5.81    0.50
   2   3  -4    5.81    0.46
  -2  -3   4    5.12    0.46
  -2  -3   4    5.95    0.31
  -2  -3   4    5.77    0.34
  -2  -3   4    5.43    0.39
   1   3  -4   15.24    0.78
   1   3  -4   16.09    0.79
   1   3  -4   14.23    0.63
   1   3  -4   14.92    0.65
  -1  -3   4   15.23    0.79
  -1  -3   4   15.57    0.62
  -1  -3   4   16.77    0.65
  -1  -3   4   15.81    0.79
  -1  -3   4   14.81    0.62
   0   3  -4   79.56    2.33
   0   3  -4   69.94    2.59
   0   3  -4   71.46    2.46
   0   3  -4   73.50    2.32
   0  -3   4   73.71    2.59
   0  -3   4   73.63    2.59
   0  -3   4   72.06    2.45
   0  -3   4   77.16    2.32
   0  -3   4   73.23    2.32
  -1   3  -4  374.42   12.27
  -1   3  -4  362.01   11.77
  -1   3  -4  386.44   12.28
  -1   3  -4  404.74   11.04
  -1   3  -4  360.84   11.12
   1  -3   4  372.93   11.03
   1  -3   4  312.72   11.75
   1  -3   4  382.44   12.38
   1  -3   4  378.36   12.29
  -2   3  -4   69.15    2.09
  -2   3  -4   63.09    2.33
  -2   3  -4   61.98    2.08
   2  -3   4   64.16    2.26
   2  -3   4   62.56    2.65
   2  -3   4   68.07    2.36
   2  -3   4   67.36    2.07
   2  -3   4   65.53    2.36
  -3   3  -4   76.21    2.69
  -3   3  -4   77.63    2.46
  -3   3  -4   79.75    2.46
  -3   3  -4   81.82    2.46
   3  -3   4   80.14    2.76
   3  -3   4   74.37    3.12
   3  -3   4   72.95    2.66
   3  -3   4   77.35    2.78
   3  -3   4   78.84    2.41
  -4   3  -4   64.45    2.01
  -4   3  -4   59.90    2.01
   4  -3   4   65.53    1.91
   4  -3   4   57.63    2.56
   4  -3   4   59.89    2.29
   4  -3   4   61.81    2.29
  -5   3  -4    0.13    0.28
   5  -3   4   -0.16    0.45
   5  -3   4    0.42    0.45
   5  -3   4    0.14    0.49
  -6   3  -4    8.05    0.57
   6  -3   4    9.08    0.78
   6  -3   4    8.27    0.72
  -7   3  -4   54.94    1.90
   7  -3   4   53.94    2.21
   7  -3   4   56.48    2.17
   8   2  -4   23.98    1.10
   8   2  -4   23.23    1.06
  -8  -2   4   24.22    1.19
  -8  -2   4   23.06    0.92
   7   2  -4   11.54    0.78
   7   2  -4   12.60    0.70
  -7  -2   4   11.48    0.56
  -7  -2   4   11.76    0.72
   6   2  -4    1.05    0.32
   6   2  -4    2.60    0.46
  -6  -2   4    1.43    0.32
  -6  -2   4    1.50    0.25
   5   2  -4  111.51    3.80
   5   2  -4  110.62    3.88
  -5  -2   4  112.46    3.97
  -5  -2   4  112.42    3.42
  -5  -2   4  114.23    3.45
   4   2  -4  149.71    4.98
   4   2  -4  147.96    5.05
   4   2  -4  145.26    4.40
  -4  -2   4  158.17    4.52
  -4  -2   4  148.40    4.48
  -4  -2   4  143.53    5.16
   3   2  -4  117.46    4.10
   3   2  -4  123.80    3.60
   3   2  -4  117.67    4.05
   3   2  -4  117.30    3.62
  -3  -2   4  121.70    3.65
  -3  -2   4  127.55    3.68
  -3  -2   4  116.84    3.83
  -3  -2   4  120.08    4.18
   2   2  -4  309.18    9.30
   2   2  -4  321.75    9.31
   2   2  -4  313.16   10.31
   2   2  -4  318.99   10.33
   2   2  -4  300.38   10.79
   2   2  -4  318.59    9.31
  -2  -2   4  306.87    9.44
  -2  -2   4  314.46    9.27
  -2  -2   4  304.12   10.28
  -2  -2   4  308.36    9.99
   1   2  -4   82.88    2.58
   1   2  -4   88.57    2.61
   1   2  -4   80.83    2.89
   1   2  -4   81.12    2.91
   1   2  -4   81.06    2.58
  -1  -2   4   82.42    2.90
  -1  -2   4   90.08    2.60
  -1  -2   4   83.34    2.60
  -1  -2   4   82.95    2.89
  -1  -2   4   84.99    2.74
   0   2  -4   84.76    2.64
   0   2  -4   83.63    2.96
   0   2  -4   83.51    2.64
   0   2  -4   90.88    2.66
   0   2  -4   85.52    2.84
   0  -2   4   82.25    2.82
   0  -2   4   83.67    2.95
   0  -2   4   83.51    2.65
   0  -2   4   89.33    2.64
  -1   2  -4   78.23    2.48
  -1   2  -4   79.46    2.77
  -1   2  -4   79.08    2.68
  -1   2  -4   77.99    2.78
  -1   2  -4   83.17    2.49
   1  -2   4   77.26    2.77
   1  -2   4   79.77    2.48
   1  -2   4   82.66    2.69
   1  -2   4   79.51    2.79
  -2   2  -4  287.67    8.51
  -2   2  -4  286.35    9.46
  -2   2  -4  285.95    9.12
  -2   2  -4  296.23    8.50
   2  -2   4  274.89    9.12
   2  -2   4  279.54    9.47
   2  -2   4  282.38    9.46
   2  -2   4  283.89    8.48
   2  -2   4  284.50   10.61
  -3   2  -4  112.12    3.25
  -3   2  -4  105.94    3.54
  -3   2  -4  102.80    3.25
   3  -2   4  108.09    3.20
   3  -2   4   98.58    4.08
   3  -2   4  105.77    3.63
   3  -2   4  102.44    3.65
   3  -2   4  102.47    3.54
  -4   2  -4  255.28    7.39
  -4   2  -4  237.07    7.40
   4  -2   4  245.19    7.99
   4  -2   4  239.83    8.27
   4  -2   4  230.27    9.24
   4  -2   4  259.97    7.32
   4  -2   4  252.73    8.24
  -5   2  -4   29.87    1.13
   5  -2   4   31.49    1.33
   5  -2   4   29.80    1.50
   5  -2   4   29.35    1.41
  -6   2  -4    5.46    0.46
   6  -2   4    5.71    0.65
   6  -2   4    5.83    0.61
  -7   2  -4   21.29    0.95
   7  -2   4   21.25    1.15
   7  -2   4   21.12    1.17
   7  -2   4   21.56    1.25
   8   1  -4   45.23    1.71
   8   1  -4   45.82    1.77
  -8  -1   4   45.87    1.53
  -8  -1   4   49.58    1.94
   7   1  -4   76.82    2.80
   7   1  -4   79.22    2.74
  -7  -1   4   79.29    2.96
  -7  -1   4   83.68    2.47
  -7  -1   4   77.92    3.26
   6   1  -4   49.57    1.89
   6   1  -4   50.27    1.79
  -6  -1   4   51.24    1.62
  -6  -1   4   50.33    1.95
  -6  -1   4   51.49    1.68
  -6  -1   4   52.16    1.65
   5   1  -4    2.62    0.40
   5   1  -4    1.87    0.30
  -5  -1   4    1.91    0.32
  -5  -1   4    2.39    0.22
  -5  -1   4    2.05    0.25
   4   1  -4   86.09    2.91
   4   1  -4   86.04    2.95
  -4  -1   4   86.22    2.64
  -4  -1   4   84.34    3.05
  -4  -1   4   86.23    2.62
   3   1  -4   95.82    3.37
   3   1  -4   98.74    2.97
   3   1  -4  102.36    2.96
   3   1  -4   97.99    3.47
   3   1  -4   95.45    3.36
  -3  -1   4   99.94    3.03
  -3  -1   4  103.86    3.03
  -3  -1   4   98.23    3.48
   2   1  -4  311.59   10.67
   2   1  -4  292.93   10.14
   2   1  -4  308.17    9.22
   2   1  -4  316.24    9.10
   2   1  -4  317.09   10.20
  -2  -1   4  318.22    9.23
  -2  -1   4  278.31   10.10
  -2  -1   4  301.66    9.12
  -2  -1   4  313.36    9.22
   1   1  -4  238.95    7.43
   1   1  -4  250.21    8.30
   1   1  -4  266.45    7.46
   1   1  -4  250.38    8.28
  -1  -1   4  252.54    8.30
  -1  -1   4  252.39    7.54
  -1  -1   4  249.26    7.43
  -1  -1   4  238.55    8.27
  -1  -1   4  257.80    7.44
  -1  -1   4  239.08    8.01
   0   1  -4   11.09    0.49
   0   1  -4   11.70    0.64
   0   1  -4   10.40    0.48
   0  -1   4   11.19    0.51
   0  -1   4   11.44    0.47
   0  -1   4   11.90    0.54
   0  -1   4   11.23    0.47
   0  -1   4   10.68    0.61
  -1   1  -4    1.58    0.20
  -1   1  -4    1.17    0.31
  -1   1  -4    1.16    0.20
  -1   1  -4    1.36    0.30
   1  -1   4    0.94    0.29
   1  -1   4    1.18    0.33
   1  -1   4    0.69    0.23
   1  -1   4    1.56    0.22
  -2   1  -4  166.83    4.84
  -2   1  -4  160.18    5.39
  -2   1  -4  158.16    4.85
  -2   1  -4  158.82    5.22
   2  -1   4  160.33    4.82
   2  -1   4  161.80    5.39
   2  -1   4  154.64    6.04
   2  -1   4  155.70    5.42
   2  -1   4  162.71    5.23
  -3   1  -4  264.74    8.00
  -3   1  -4  264.14    8.59
   3  -1   4  259.66    8.93
   3  -1   4  268.44    8.89
   3  -1   4  272.95    7.95
   3  -1   4  270.63    8.63
  -4   1  -4  218.08    6.66
   4  -1   4  222.41    7.20
   4  -1   4  212.43    8.31
   4  -1   4  221.27    7.39
   4  -1   4  230.36    6.57
   4  -1   4  215.65    7.44
  -5   1  -4   73.85    2.45
  -5   1  -4   77.69    3.15
   5  -1   4   77.29    2.75
   5  -1   4   76.80    2.81
   5  -1   4   76.58    2.81
   5  -1   4   77.50    3.15
   5  -1   4   72.47    2.71
  -6   1  -4    4.69    0.45
   6  -1   4    4.83    0.58
   6  -1   4    4.73    0.61
   6  -1   4    4.22    0.63
  -7   1  -4    0.56    0.36
   7  -1   4    1.12    0.53
   7  -1   4    0.13    0.54
   9   0  -4    4.40    0.45
   9   0  -4    4.18    0.42
  -9   0   4    4.28    0.63
   8   0  -4   48.44    1.75
   8   0  -4   47.27    1.81
  -8   0   4   50.78    2.02
  -8   0   4   50.48    1.58
   7   0  -4   48.44    1.84
   7   0  -4   49.84    1.76
  -7   0   4   50.38    2.00
  -7   0   4   50.83    1.59
  -7   0   4   52.88    2.22
   6   0  -4   27.86    1.06
   6   0  -4   29.78    1.14
  -6   0   4   27.64    1.23
  -6   0   4   29.40    0.99
  -6   0   4   28.82    0.95
   5   0  -4   11.80    0.56
   5   0  -4   11.19    0.63
  -5   0   4   11.74    0.64
  -5   0   4   11.93    0.50
  -5   0   4   12.47    0.49
   4   0  -4    1.45    0.27
   4   0  -4    1.99    0.28
  -4   0   4    1.25    0.26
  -4   0   4    2.17    0.22
  -4   0   4    2.51    0.20
  -4   0   4    2.55    0.20
   3   0  -4   28.08    1.13
   3   0  -4   29.85    0.91
   3   0  -4   28.74    1.10
   3   0  -4   27.90    1.12
  -3   0   4   28.66    0.98
  -3   0   4   29.05    1.15
  -3   0   4   30.47    0.96
   2   0  -4  356.87   10.87
   2   0  -4  375.62   10.83
   2   0  -4  370.19   12.19
   2   0  -4  360.45   12.01
   2   0  -4  358.49   12.70
  -2   0   4  367.84   10.79
  -2   0   4  335.92   11.98
  -2   0   4  382.84   10.77
   1   0  -4  389.12   12.92
   1   0  -4  395.71   11.53
   1   0  -4  393.14   11.69
   1   0  -4  363.18   12.96
  -1   0   4  406.33   11.60
  -1   0   4  386.04   12.75
  -1   0   4  372.57   11.48
  -1   0   4  383.01   12.71
  -1   0   4  371.60   12.79
   0   0  -4  241.55    7.14
   0   0  -4  225.80    7.95
   0   0  -4  247.84    7.15
   0   0   4  237.30    7.95
   0   0   4  235.26    7.95
   0   0   4  240.01    7.15
   0   0   4  245.79    7.14
  -1   0  -4  142.67    4.26
  -1   0  -4  138.49    4.74
  -1   0  -4  141.24    4.74
   1   0   4  138.85    4.25
   1   0   4  138.65    4.75
   1   0   4  138.95    5.28
   1   0   4  143.60    4.75
   1   0   4  139.51    4.58
  -2   0  -4   18.34    0.71
  -2   0  -4   16.46    0.85
   2   0   4   16.82    0.86
   2   0   4   17.36    0.91
   2   0   4   17.31    0.89
   2   0   4   17.47    0.82
   2   0   4   17.31    0.80
   2   0   4   16.83    0.66
  -3   0  -4    6.99    0.47
   3   0   4    7.17    0.42
   3   0   4    7.19    0.57
   3   0   4    7.36    0.64
   3   0   4    6.53    0.58
   3   0   4    7.29    0.61
   3   0   4    6.34    0.58
  -4   0  -4   96.88    3.08
  -4   0  -4  100.34    3.90
   4   0   4   97.21    3.42
   4   0   4   94.61    3.45
   4   0   4   93.54    3.85
   4   0   4  103.02    3.01
   4   0   4   97.77    3.48
   4   0   4   96.90    3.39
  -5   0  -4   72.26    2.93
  -5   0  -4   68.03    2.27
   5   0   4   67.80    2.55
   5   0   4   69.08    2.57
   5   0   4   68.56    2.53
  -6   0  -4   20.66    0.92
   6   0   4   21.32    1.19
   6   0   4   21.19    1.10
  -7   0  -4   23.47    1.08
   7   0   4   26.73    1.33
   9  -1  -4    0.50    0.28
   9  -1  -4    0.62    0.32
  -9   1   4    0.51    0.49
   8  -1  -4   10.09    0.64
   8  -1  -4   10.49    0.54
  -8   1   4   11.63    0.50
  -8   1   4   12.59    0.82
   7  -1  -4   39.28    1.45
   7  -1  -4   37.89    1.40
  -7   1   4   42.55    1.29
  -7   1   4   41.22    1.67
  -7   1   4   40.21    1.81
   6  -1  -4   30.46    1.16
   6  -1  -4   30.34    1.12
  -6   1   4   32.29    1.04
  -6   1   4   31.58    1.35
  -6   1   4   32.76    1.03
   5  -1  -4  191.05    6.47
   5  -1  -4  200.98    6.47
  -5   1   4  193.41    6.81
  -5   1   4  192.47    5.84
  -5   1   4  200.85    5.83
   4  -1  -4  123.15    4.36
   4  -1  -4  132.73    4.34
   4  -1  -4  131.22    4.33
   4  -1  -4  130.13    4.57
  -4   1   4  129.90    4.58
  -4   1   4  135.95    3.90
  -4   1   4  127.70    3.92
   3  -1  -4   46.15    1.61
   3  -1  -4   44.93    1.61
   3  -1  -4   46.51    1.42
   3  -1  -4   45.81    1.71
   3  -1  -4   44.95    1.66
  -3   1   4   48.09    1.44
  -3   1   4   43.81    1.46
   2  -1  -4   41.83    1.32
   2  -1  -4   40.95    1.56
   2  -1  -4   43.99    1.52
   2  -1  -4   42.10    1.52
   2  -1  -4   40.25    1.59
   2  -1  -4   44.97    1.37
  -2   1   4   40.54    1.55
  -2   1   4   41.13    1.36
  -2   1   4   43.86    1.35
   1  -1  -4  380.36   13.27
   1  -1  -4  422.73   13.36
   1  -1  -4  408.54   12.16
  -1   1   4  384.82   12.04
  -1   1   4  429.35   12.16
  -1   1   4  406.12   13.50
  -1   1   4  384.62   13.33
   0  -1  -4  208.07    6.31
   0  -1  -4  209.60    7.04
   0   1   4  210.56    7.82
   0   1   4  212.23    6.32
   0   1   4  213.47    7.03
  -1  -1  -4  434.25   14.39
  -1  -1  -4  431.02   13.20
  -1  -1  -4  449.44   14.41
   1   1   4  459.46   14.41
   1   1   4  426.76   14.39
   1   1   4  424.79   16.21
   1   1   4  424.51   14.21
   1   1   4  434.47   13.29
  -2  -1  -4  174.56    5.29
  -2  -1  -4  175.19    5.89
   2   1   4  170.24    6.54
   2   1   4  175.57    5.70
   2   1   4  174.55    5.89
   2   1   4  177.45    5.27
   2   1   4  173.43    5.88
  -3  -1  -4    8.20    0.52
  -3  -1  -4    8.71    0.79
   3   1   4    8.53    0.66
   3   1   4    8.90    0.49
   3   1   4    9.55    0.66
   3   1   4    8.33    0.69
   3   1   4    9.85    0.73
  -4  -1  -4    5.30    0.62
  -4  -1  -4    4.93    0.42
   4   1   4    5.25    0.56
   4   1   4    5.05    0.56
   4   1   4    4.94    0.37
   4   1   4    4.61    0.57
  -5  -1  -4   42.02    1.92
  -5  -1  -4   37.31    1.42
   5   1   4   36.21    1.63
   5   1   4   40.18    1.63
   5   1   4   39.50    1.62
  -6  -1  -4   15.27    0.79
   6   1   4   14.85    0.96
   6   1   4   13.48    0.93
   9  -2  -4    8.42    0.52
  -8   2   4    3.00    0.52
   7  -2  -4   14.99    0.61
  -7   2   4   15.13    0.58
  -7   2   4   15.74    0.91
  -7   2   4   15.23    0.96
   6  -2  -4   35.68    1.33
   6  -2  -4   37.39    1.28
  -6   2   4   38.30    1.16
  -6   2   4   37.72    1.19
  -6   2   4   35.62    1.52
  -6   2   4   35.15    1.60
   5  -2  -4  239.26    8.27
   5  -2  -4  260.70    8.28
  -5   2   4  243.90    7.43
  -5   2   4  245.85    8.67
  -5   2   4  260.73    7.41
   4  -2  -4  612.36   20.89
   4  -2  -4  620.39   20.09
   4  -2  -4  578.33   20.03
  -4   2   4  599.89   21.09
  -4   2   4  581.00   17.99
  -4   2   4  630.38   18.01
   3  -2  -4  133.83    3.84
   3  -2  -4  123.36    4.31
   3  -2  -4  122.27    4.47
   3  -2  -4  127.05    3.80
   3  -2  -4  128.18    4.27
  -3   2   4  125.53    3.86
  -3   2   4  132.00    3.83
   2  -2  -4    4.72    0.42
   2  -2  -4    5.83    0.45
   2  -2  -4    3.93    0.40
   2  -2  -4    4.72    0.28
  -2   2   4    4.30    0.27
  -2   2   4    4.57    0.34
  -2   2   4    4.24    0.40
   1  -2  -4   48.14    1.73
   1  -2  -4   47.12    1.73
   1  -2  -4   46.30    1.70
   1  -2  -4   46.80    1.51
  -1   2   4   47.68    1.70
  -1   2   4   47.42    1.75
  -1   2   4   47.41    1.54
   0  -2  -4   36.60    1.56
   0  -2  -4   46.57    1.63
   0  -2  -4   41.37    1.58
   0  -2  -4   44.90    1.42
   0   2   4   45.57    1.60
   0   2   4   44.86    1.70
   0   2   4   44.52    1.43
  -1  -2  -4   89.81    3.08
  -1  -2  -4   89.03    3.08
  -1  -2  -4   85.23    2.74
   1   2   4   85.81    3.08
   1   2   4   89.58    3.07
   1   2   4   88.06    3.36
   1   2   4   89.27    2.74
  -2  -2  -4  167.33    5.56
  -2  -2  -4  163.95    4.97
   2   2   4  160.54    5.54
   2   2   4  162.59    5.54
   2   2   4  163.05    6.13
   2   2   4  166.27    4.95
   2   2   4  158.36    5.35
  -3  -2  -4   25.75    1.04
  -3  -2  -4   27.89    1.36
   3   2   4   27.82    1.27
   3   2   4   28.03    1.28
   3   2   4   27.37    1.20
   3   2   4   28.53    1.03
  -4  -2  -4    7.76    0.72
  -4  -2  -4    7.19    0.55
   4   2   4    6.36    0.62
   4   2   4    6.81    0.62
   4   2   4    7.48    0.51
   4   2   4    7.04    0.65
  -5  -2  -4    6.42    0.75
  -5  -2  -4    6.02    0.50
   5   2   4    6.42    0.68
   5   2   4    5.61    0.63
  -6  -2  -4   11.06    0.72
   6   2   4   10.54    0.86
  -8   3   4   29.36    1.39
  -8   3   4   28.69    1.49
   7  -3  -4   10.10    0.45
   7  -3  -4    8.29    0.53
  -7   3   4    9.27    0.42
  -7   3   4   10.23    0.74
  -7   3   4    9.35    0.71
   6  -3  -4    2.17    0.35
   6  -3  -4    2.76    0.26
  -6   3   4    2.53    0.44
  -6   3   4    2.41    0.43
  -6   3   4    2.53    0.19
  -6   3   4    2.58    0.24
   5  -3  -4   53.10    1.99
   5  -3  -4   57.63    1.94
  -5   3   4   58.10    1.73
  -5   3   4   55.40    2.15
  -5   3   4   54.61    2.23
  -5   3   4   56.03    1.76
   4  -3  -4  168.27    5.80
   4  -3  -4  164.61    5.57
   4  -3  -4  168.41    5.53
  -4   3   4  157.86    5.82
  -4   3   4  170.59    4.96
  -4   3   4  165.42    4.99
   3  -3  -4  111.31    3.75
   3  -3  -4  110.04    3.93
   3  -3  -4  110.01    3.33
   3  -3  -4  109.67    3.79
  -3   3   4  115.69    3.37
  -3   3   4  109.18    3.38
   2  -3  -4   39.38    1.50
   2  -3  -4   37.93    1.46
   2  -3  -4   39.26    1.28
   2  -3  -4   39.18    1.56
  -2   3   4   42.30    1.30
  -2   3   4   40.45    1.31
   1  -3  -4    8.26    0.66
   1  -3  -4    8.91    0.61
   1  -3  -4    9.42    0.43
  -1   3   4    9.11    0.42
  -1   3   4    8.99    0.59
  -1   3   4    9.03    0.65
  -1   3   4    9.14    0.48
   0  -3  -4    1.49    0.23
   0  -3  -4    1.91    0.38
   0  -3  -4    1.26    0.23
   0  -3  -4    1.29    0.25
   0   3   4    1.49    0.32
   0   3   4    1.68    0.23
  -1  -3  -4   22.53    0.85
  -1  -3  -4   21.14    1.07
   1   3   4   20.50    0.99
   1   3   4   21.41    1.00
   1   3   4   21.59    0.84
  -2  -3  -4  140.94    4.37
  -2  -3  -4  145.31    5.38
   2   3   4  139.52    4.87
   2   3   4  143.57    4.35
   2   3   4  141.53    4.71
   2   3   4  141.07    4.88
  -3  -3  -4   85.14    3.40
  -3  -3  -4   86.06    2.77
   3   3   4   82.95    3.00
   3   3   4   88.80    2.74
   3   3   4   87.75    3.11
   3   3   4   85.00    3.11
  -4  -3  -4   82.63    3.26
  -4  -3  -4   75.12    2.61
   4   3   4   84.12    2.58
   4   3   4   76.73    2.86
   4   3   4   79.52    2.92
  -5  -3  -4   27.54    1.21
   5   3   4   29.89    1.37
   5   3   4   31.90    1.47
   8  -4  -4   33.52    1.19
   8  -4  -4   30.52    1.22
  -8   4   4   37.07    1.66
  -8   4   4   34.20    1.56
   7  -4  -4   34.29    1.36
   7  -4  -4   38.04    1.32
  -7   4   4   38.19    1.19
  -7   4   4   36.34    1.67
  -7   4   4   38.07    1.66
   6  -4  -4   20.37    0.92
   6  -4  -4   20.47    0.85
  -6   4   4   21.75    0.76
  -6   4   4   20.84    1.07
  -6   4   4   21.99    0.74
  -6   4   4   21.99    1.08
   5  -4  -4    0.05    0.36
   5  -4  -4    0.12    0.29
  -5   4   4    0.64    0.16
  -5   4   4    0.13    0.31
  -5   4   4    0.04    0.18
  -5   4   4    0.46    0.37
   4  -4  -4   73.84    2.18
   4  -4  -4   70.40    2.48
   4  -4  -4   68.79    2.63
   4  -4  -4   71.34    2.53
  -4   4   4   75.74    2.22
  -4   4   4   71.30    2.73
  -4   4   4   69.48    2.24
   3  -4  -4   38.11    1.25
   3  -4  -4   38.47    1.46
   3  -4  -4   40.94    1.56
   3  -4  -4   38.97    1.51
  -3   4   4   40.57    1.29
  -3   4   4   38.64    1.49
  -3   4   4   38.44    1.30
   2  -4  -4  175.01    5.90
   2  -4  -4  170.01    6.11
   2  -4  -4  181.81    5.88
   2  -4  -4  172.23    5.25
  -2   4   4  174.06    5.28
   1  -4  -4  282.27    9.51
   1  -4  -4  292.69    9.50
   1  -4  -4  285.54    8.52
  -1   4   4  278.64    8.53
  -1   4   4  287.51    9.51
   0  -4  -4   60.50    2.25
   0  -4  -4   61.67    2.02
   0  -4  -4   64.97    2.31
   0   4   4   64.79    2.30
   0   4   4   62.88    2.03
  -1  -4  -4    0.27    0.41
  -1  -4  -4    0.68    0.44
  -1  -4  -4    0.26    0.25
   1   4   4    0.51    0.28
   1   4   4    0.10    0.43
   1   4   4    0.08    0.42
  -2  -4  -4   80.86    3.13
  -2  -4  -4   78.47    2.58
   2   4   4   75.66    2.87
   2   4   4   78.53    2.55
   2   4   4   83.44    2.92
  -3  -4  -4   84.76    2.89
  -3  -4  -4   89.45    3.55
   3   4   4   90.05    3.14
   3   4   4   89.63    3.25
   3   4   4   94.60    2.89
  -4  -4  -4   59.88    2.14
  -4  -4  -4   64.08    2.67
   4   4   4   63.63    2.47
   4   4   4   60.20    2.34
   4   4   4   66.75    2.14
  -5  -4  -4   44.27    1.66
   9  -5  -4    1.84    0.30
   9  -5  -4    2.83    0.30
   8  -5  -4   15.38    0.75
   8  -5  -4   16.40    0.72
  -8   5   4   16.67    0.61
  -8   5   4   17.53    1.10
  -8   5   4   19.83    1.18
   7  -5  -4   76.76    2.77
   7  -5  -4   79.98    2.75
  -7   5   4   78.14    3.10
  -7   5   4   86.57    3.26
  -7   5   4   81.22    2.47
   6  -5  -4   34.43    1.35
   6  -5  -4   34.66    1.30
  -6   5   4   34.53    1.53
  -6   5   4   34.96    1.54
  -6   5   4   34.78    1.16
   5  -5  -4   25.17    1.09
   5  -5  -4   24.57    1.04
  -5   5   4   25.47    1.21
  -5   5   4   26.52    0.90
  -5   5   4   25.39    1.14
  -5   5   4   24.54    0.90
   4  -5  -4    0.81    0.35
   4  -5  -4    1.33    0.17
   4  -5  -4    1.63    0.40
  -4   5   4    1.12    0.21
  -4   5   4    1.85    0.27
  -4   5   4    0.88    0.27
   3  -5  -4   52.78    1.96
   3  -5  -4   52.65    1.93
   3  -5  -4   51.91    2.00
   3  -5  -4   52.46    1.67
  -3   5   4   51.54    1.71
   2  -5  -4  129.79    4.04
   2  -5  -4  129.32    4.55
   2  -5  -4  134.01    4.72
   2  -5  -4  137.51    4.54
  -2   5   4  132.57    4.07
   1  -5  -4  373.89   11.85
   1  -5  -4  342.85   10.62
   1  -5  -4  353.00   11.85
  -1   5   4  369.51   11.86
  -1   5   4  342.19   10.63
   0  -5  -4  146.82    4.94
   0  -5  -4  144.87    4.40
   0  -5  -4  146.91    4.91
   0   5   4  139.88    4.40
   0   5   4  144.57    4.92
   0   5   4  135.60    4.91
  -1  -5  -4   31.57    1.19
   1   5   4   34.29    1.46
   1   5   4   31.24    1.20
  -2  -5  -4   -0.45    0.37
  -2  -5  -4    0.08    0.30
   2   5   4    0.57    0.34
   2   5   4    0.51    0.45
  -3  -5  -4    5.01    0.49
  -3  -5  -4    4.64    0.60
   3   5   4    3.93    0.54
   3   5   4    4.78    0.49
  -4  -5  -4    7.39    0.62
   4   5   4    7.43    0.71
   8  -6  -4    1.87    0.35
   8  -6  -4    1.86    0.35
  -8   6   4    3.47    0.61
  -8   6   4    2.08    0.57
  -8   6   4    2.16    0.26
   7  -6  -4   39.69    1.52
  -7   6   4   42.32    1.80
  -7   6   4   39.51    1.79
  -7   6   4   38.84    1.32
   6  -6  -4   84.99    3.02
   6  -6  -4   83.88    2.99
  -6   6   4   84.50    3.28
  -6   6   4   85.53    2.68
  -6   6   4   91.90    3.40
   5  -6  -4   83.90    2.97
   5  -6  -4   83.96    3.00
  -5   6   4   88.79    3.27
  -5   6   4   83.48    2.66
   4  -6  -4   83.33    2.87
   4  -6  -4   81.22    2.90
   4  -6  -4   83.73    2.51
  -4   6   4   76.96    2.56
   3  -6  -4   13.62    0.59
   3  -6  -4   12.05    0.85
   3  -6  -4   13.10    0.84
  -3   6   4   12.56    0.63
   2  -6  -4    6.97    0.63
   2  -6  -4    7.93    0.46
   2  -6  -4    6.63    0.57
  -2   6   4    7.51    0.48
   1  -6  -4   95.76    3.06
   1  -6  -4  101.61    3.46
   1  -6  -4   98.65    3.48
  -1   6   4   93.18    3.07
   0  -6  -4   54.00    1.83
   0   6   4   54.10    1.83
  -1  -6  -4   30.49    1.19
   1   6   4   31.51    1.19
  -2  -6  -4   38.54    1.44
   2   6   4   38.25    1.45
  -3  -6  -4    2.53    0.48
   3   6   4    3.39    0.49
   3   6   4    3.85    0.58
  -4  -6  -4    0.37    0.42
   8  -7  -4    1.60    0.39
   8  -7  -4    1.55    0.39
  -8   7   4    2.10    0.29
   7  -7  -4    4.27    0.47
   7  -7  -4    3.89    0.46
  -7   7   4    4.19    0.35
  -7   7   4    3.84    0.64
   6  -7  -4   20.45    0.99
   6  -7  -4   20.51    0.96
  -6   7   4   20.15    0.82
   5  -7  -4   64.16    2.43
   5  -7  -4   67.56    2.41
  -5   7   4   66.73    2.14
   4  -7  -4  144.99    5.02
   4  -7  -4  149.31    5.00
   4  -7  -4  147.22    4.43
  -4   7   4  142.16    4.48
   3  -7  -4   53.72    1.78
   3  -7  -4   54.68    2.09
   3  -7  -4   55.42    2.07
  -3   7   4   53.38    1.82
   2  -7  -4    7.23    0.52
   2  -7  -4    6.62    0.61
   2  -7  -4    7.78    0.64
  -2   7   4    7.55    0.54
   1  -7  -4   13.26    0.71
  -1   7   4   14.25    0.70
   0  -7  -4   30.87    1.17
   0   7   4   29.28    1.17
  -1  -7  -4   14.06    0.80
   1   7   4   13.56    0.76
  -2  -7  -4   49.70    1.88
   2   7   4   56.02    1.91
  -3  -7  -4   25.93    1.21
   3   7   4   26.96    1.33
   3   7   4   25.19    1.18
   7  -8  -4    1.09    0.43
   7  -8  -4    1.97    0.44
  -7   8   4    1.62    0.32
   6  -8  -4    5.16    0.57
   6  -8  -4    5.47    0.57
  -6   8   4    6.01    0.44
   5  -8  -4   10.04    0.82
   5  -8  -4    9.00    0.73
  -5   8   4    7.94    0.55
   4  -8  -4   56.81    2.18
   4  -8  -4   56.98    2.15
  -4   8   4   54.65    1.88
   3  -8  -4   47.22    1.83
   3  -8  -4   46.09    1.59
  -3   8   4   44.89    1.62
   2  -8  -4   12.08    0.67
  -2   8   4   11.46    0.66
   1  -8  -4    5.06    0.49
  -1   8   4    5.80    0.50
   0  -8  -4    2.29    0.43
   0   8   4    2.71    0.44
  -1  -8  -4   11.13    0.73
   1   8   4   10.86    0.77
  -2  -8  -4   30.07    1.33
   2   8   4   30.42    1.28
   7  -9  -4    8.42    0.71
   7  -9  -4   10.69    0.81
  -7   9   4   10.45    0.63
   6  -9  -4    0.80    0.48
   6  -9  -4    1.40    0.49
  -6   9   4    1.18    0.34
   5  -9  -4    0.16    0.47
  -5   9   4    0.16    0.31
   4  -9  -4   14.32    0.98
  -4   9   4   13.90    0.75
   3  -9  -4   44.32    1.57
  -3   9   4   43.78    1.60
   2  -9  -4   37.75    1.41
  -2   9   4   36.98    1.44
   1  -9  -4   50.75    1.82
  -1   9   4   50.23    1.82
   0  -9  -4   22.86    1.06
   0   9   4   21.72    1.08
  -1  -9  -4    1.26    0.49
   1   9   4    0.87    0.47
   6 -10  -4   18.55    1.09
  -6  10   4   17.96    0.88
   5 -10  -4   13.86    1.00
  -5  10   4   12.90    0.77
  -4  10   4    2.97    0.46
  -3  10   4   12.31    0.79
   2 -10  -4   26.15    1.13
  -2  10   4   23.37    1.13
   1 -10  -4   50.47    1.83
  -1  10   4   46.73    1.80
  -2  13  -5   13.13    0.92
   2 -13   5   14.08    0.93
   1  12  -5    3.29    0.57
  -1 -12   5    3.96    0.56
   0  12  -5   33.70    1.43
   0 -12   5   33.10    1.44
  -1  12  -5   24.71    1.20
   1 -12   5   27.77    1.24
  -2  12  -5   47.75    1.81
   2 -12   5   47.98    1.81
  -3  12  -5   34.84    1.41
  -4  12  -5   -0.13    0.38
  -5  12  -5    7.92    0.68
   3  11  -5   42.73    1.69
  -3 -11   5   40.98    1.68
   2  11  -5   10.29    0.80
  -2 -11   5    9.70    0.76
   1  11  -5   -0.09    0.40
  -1 -11   5   -0.06    0.42
   0  11  -5    7.65    0.65
   0 -11   5    6.74    0.62
  -1  11  -5   37.67    1.48
   1 -11   5   39.00    1.53
  -2  11  -5   73.39    2.52
   2 -11   5   74.92    2.53
  -3  11  -5   65.77    2.35
   3 -11   5   72.15    2.38
  -4  11  -5   12.43    0.81
  -4  11  -5   11.16    0.78
   4 -11   5   12.25    1.00
  -5  11  -5    0.60    0.42
  -5  11  -5    0.84    0.42
   5 -11   5    1.02    0.74
  -4 -10   5   11.94    0.85
   3  10  -5   48.75    1.81
  -3 -10   5   47.09    1.80
   2  10  -5   31.20    1.28
  -2 -10   5   30.85    1.28
   1  10  -5   18.97    0.94
  -1 -10   5   20.23    0.98
   0  10  -5    1.91    0.40
   0 -10   5    1.98    0.42
  -1  10  -5    1.38    0.37
   1 -10   5    1.33    0.38
  -2  10  -5   43.09    1.62
  -2  10  -5   45.11    1.67
   2 -10   5   46.00    1.63
   2 -10   5   44.84    1.92
  -3  10  -5  114.18    3.88
  -3  10  -5  123.02    4.35
   3 -10   5  128.13    4.43
   3 -10   5  125.41    3.90
  -4  10  -5   41.72    1.70
  -4  10  -5   39.55    1.53
   4 -10   5   41.60    1.86
  -5  10  -5   32.00    1.33
  -5  10  -5   31.38    1.48
   5 -10   5   37.90    1.69
  -6  10  -5   14.37    0.99
  -6  10  -5   15.99    0.85
   6 -10   5   14.16    1.14
  -5  -9   5    4.52    0.58
  -4  -9   5   -0.22    0.39
   3   9  -5   47.98    1.72
  -3  -9   5   46.56    1.72
   2   9  -5   78.12    2.57
  -2  -9   5   75.98    2.57
   1   9  -5  122.76    3.91
   1   9  -5  129.67    4.07
  -1  -9   5  117.15    3.90
   0   9  -5  130.42    4.10
   0  -9   5  130.07    4.12
  -1   9  -5    7.88    0.57
  -1   9  -5    8.61    0.43
   1  -9   5    7.12    0.76
   1  -9   5    7.80    0.59
  -2   9  -5    0.57    0.33
  -2   9  -5    0.83    0.25
   2  -9   5    0.15    0.31
   2  -9   5    0.26    0.51
   2  -9   5    0.29    0.48
  -3   9  -5   43.08    1.61
   3  -9   5   43.10    1.85
   3  -9   5   49.34    1.97
   3  -9   5   46.82    1.64
  -4   9  -5   60.21    2.02
   4  -9   5   62.47    2.38
   4  -9   5   51.20    2.62
   4  -9   5   59.84    2.32
  -5   9  -5   48.93    1.80
   5  -9   5   49.91    2.07
   5  -9   5   51.57    2.12
  -6   9  -5   62.73    2.20
   6  -9   5   65.79    2.59
   6  -9   5   61.89    2.52
  -5  -8   5   35.49    1.41
   4   8  -5    4.63    0.75
   4   8  -5    5.19    0.52
  -4  -8   5    5.73    0.53
   3   8  -5    7.20    0.57
   3   8  -5    6.39    0.75
  -3  -8   5    6.39    0.51
   2   8  -5   51.95    1.84
   2   8  -5   53.43    2.16
   2   8  -5   53.07    1.82
  -2  -8   5   51.59    1.83
   1   8  -5   83.16    2.97
   1   8  -5   82.09    2.66
   1   8  -5   77.63    2.57
   1   8  -5   76.05    2.89
  -1  -8   5   73.96    2.57
   0   8  -5  188.03    6.03
   0   8  -5  181.90    5.70
   0   8  -5  191.57    6.39
   0  -8   5  182.81    5.71
   0  -8   5  182.92    6.39
   0  -8   5  187.20    6.36
  -1   8  -5   69.01    2.27
  -1   8  -5   67.46    2.58
  -1   8  -5   68.95    2.42
   1  -8   5   66.48    2.28
   1  -8   5   68.68    2.62
   1  -8   5   72.05    2.65
  -2   8  -5   11.18    0.66
   2  -8   5   11.66    0.94
   2  -8   5   10.28    0.87
   2  -8   5   11.02    0.68
  -3   8  -5    3.60    0.40
   3  -8   5    3.57    0.63
   3  -8   5    2.84    0.53
   3  -8   5    2.91    0.40
  -4   8  -5   21.42    0.93
   4  -8   5   23.14    1.19
   4  -8   5   23.50    1.29
   4  -8   5   22.57    0.93
   4  -8   5   18.93    1.32
  -5   8  -5   35.78    1.37
   5  -8   5   35.80    1.68
   5  -8   5   36.35    1.60
  -6   8  -5   68.30    2.35
   6  -8   5   68.06    2.67
   6  -8   5   69.28    2.70
  -7   8  -5   24.00    1.13
   7  -8   5   26.20    1.45
   7  -8   5   26.14    1.42
   6   7  -5   35.51    1.69
  -6  -7   5   32.92    1.35
   5   7  -5   42.93    1.86
  -5  -7   5   39.97    1.52
   4   7  -5   36.60    1.36
   4   7  -5   36.76    1.67
  -4  -7   5   34.95    1.33
   3   7  -5   27.10    1.01
   3   7  -5   28.16    1.41
   3   7  -5   28.47    1.26
   3   7  -5   29.04    1.13
  -3  -7   5   27.65    1.11
   2   7  -5    4.07    0.62
   2   7  -5    3.44    0.33
   2   7  -5    4.87    0.43
   2   7  -5    4.04    0.54
  -2  -7   5    4.52    0.54
  -2  -7   5    3.54    0.39
   1   7  -5    5.80    0.59
   1   7  -5    5.99    0.66
   1   7  -5    5.49    0.46
   1   7  -5    5.39    0.45
  -1  -7   5    4.47    0.57
  -1  -7   5    5.49    0.46
   0   7  -5  106.07    3.71
   0   7  -5   87.10    3.67
   0   7  -5  108.06    3.47
   0  -7   5  109.62    3.69
   0  -7   5  106.56    3.32
   0  -7   5  108.38    3.71
  -1   7  -5  116.77    3.82
  -1   7  -5  113.43    4.03
   1  -7   5  116.34    4.06
   1  -7   5  116.54    4.07
   1  -7   5  111.37    3.61
  -2   7  -5   80.18    2.62
   2  -7   5   79.34    2.96
   2  -7   5   79.84    2.63
   2  -7   5   85.92    3.03
  -3   7  -5  116.75    3.76
   3  -7   5  122.92    4.28
   3  -7   5  121.42    3.75
   3  -7   5  118.21    4.23
  -4   7  -5    7.01    0.55
   4  -7   5    6.05    0.74
   4  -7   5    6.53    0.47
   4  -7   5    6.69    0.74
   4  -7   5    7.22    0.67
  -5   7  -5   33.14    1.31
   5  -7   5   35.36    1.62
   5  -7   5   32.74    1.52
  -6   7  -5   64.58    2.27
   6  -7   5   69.38    2.62
   6  -7   5   68.07    2.63
  -7   7  -5   33.97    1.38
  -7   7  -5   33.71    1.38
   7  -7   5   35.64    1.67
   7  -7   5   36.02    1.68
   6   6  -5   11.11    0.95
  -6  -6   5   10.04    0.66
   5   6  -5   19.31    1.15
   5   6  -5   18.32    1.04
  -5  -6   5   20.89    0.86
  -5  -6   5   17.45    0.85
   4   6  -5   32.48    1.47
   4   6  -5   30.22    1.30
   4   6  -5   30.80    1.16
  -4  -6   5   29.50    1.14
   3   6  -5  193.33    6.42
   3   6  -5  187.41    5.69
   3   6  -5  187.57    6.33
  -3  -6   5  177.45    5.68
   2   6  -5  111.96    3.47
   2   6  -5  116.71    3.96
   2   6  -5  112.62    3.60
   2   6  -5  109.96    3.87
  -2  -6   5  105.14    3.45
  -2  -6   5  107.97    3.85
   1   6  -5    7.77    0.46
   1   6  -5    6.39    0.59
   1   6  -5    6.72    0.60
   1   6  -5    8.82    0.52
  -1  -6   5    9.20    0.72
  -1  -6   5    7.36    0.49
  -1  -6   5    6.25    0.55
   0   6  -5   97.15    3.09
   0   6  -5   99.75    3.26
   0   6  -5  101.03    3.47
   0  -6   5   97.94    3.10
   0  -6   5   93.44    3.43
   0  -6   5   97.47    3.46
  -1   6  -5  278.58    9.61
  -1   6  -5  286.82    8.65
  -1   6  -5  297.99    9.23
   1  -6   5  289.03    9.65
   1  -6   5  278.81    8.65
   1  -6   5  293.92    9.65
  -2   6  -5  181.55    5.56
   2  -6   5  178.60    5.56
   2  -6   5  182.18    6.23
   2  -6   5  185.79    6.21
  -3   6  -5  212.41    6.46
   3  -6   5  185.15    8.08
   3  -6   5  223.16    7.23
   3  -6   5  222.40    6.44
   3  -6   5  217.68    7.23
  -4   6  -5   74.42    2.50
   4  -6   5   80.39    2.43
   4  -6   5   78.03    2.86
   4  -6   5   78.85    2.86
   4  -6   5   69.03    3.19
  -5   6  -5    2.24    0.38
   5  -6   5    2.40    0.56
   5  -6   5    1.78    0.61
  -6   6  -5   12.62    0.73
  -6   6  -5   13.31    0.73
   6  -6   5   13.41    1.04
   6  -6   5   11.83    1.03
  -7   6  -5   24.71    1.09
   7  -6   5   22.85    1.33
   7  -6   5   25.83    1.35
   7   5  -5    8.41    0.79
   7   5  -5    8.04    0.69
  -7  -5   5    9.62    0.61
   6   5  -5    0.48    0.46
   6   5  -5    0.14    0.52
  -6  -5   5    0.31    0.31
  -6  -5   5    0.08    0.30
   5   5  -5   27.31    1.39
   5   5  -5   27.81    1.25
  -5  -5   5   27.96    1.08
  -5  -5   5   30.20    1.17
   4   5  -5   48.95    1.68
   4   5  -5   52.60    2.01
   4   5  -5   46.21    1.88
  -4  -5   5   51.23    1.81
  -4  -5   5   47.26    1.66
   3   5  -5  234.17    7.89
   3   5  -5  246.57    7.98
   3   5  -5  233.23    7.10
  -3  -5   5  226.74    7.09
   2   5  -5  302.10    9.00
   2   5  -5  297.07    9.52
   2   5  -5  305.01   10.01
   2   5  -5  307.49   10.05
  -2  -5   5  290.06    9.97
  -2  -5   5  297.70    8.99
   1   5  -5   57.16    1.96
   1   5  -5   54.28    2.01
   1   5  -5   57.43    1.88
   1   5  -5   58.15    2.15
   1   5  -5   60.41    2.18
  -1  -5   5   57.97    2.13
  -1  -5   5   55.33    2.11
  -1  -5   5   57.86    1.89
   0   5  -5    2.41    0.45
   0  -5   5    2.31    0.31
   0  -5   5    1.83    0.39
   0  -5   5    1.83    0.36
  -1   5  -5   47.86    1.99
  -1   5  -5   55.87    1.93
   1  -5   5   54.80    2.03
   1  -5   5   54.30    1.80
   1  -5   5   56.07    2.09
  -2   5  -5   77.30    2.49
  -2   5  -5   75.54    2.68
   2  -5   5   79.71    2.85
   2  -5   5   77.40    2.83
   2  -5   5   77.43    2.48
  -3   5  -5  163.07    5.13
   3  -5   5  170.18    5.75
   3  -5   5  149.88    6.43
   3  -5   5  175.61    5.76
   3  -5   5  176.74    5.10
  -4   5  -5   93.45    3.05
   4  -5   5   99.80    2.96
   4  -5   5   89.96    3.89
   4  -5   5   93.85    3.46
   4  -5   5  100.47    3.47
  -5   5  -5   23.56    1.01
  -5   5  -5   24.42    1.00
   5  -5   5   24.54    1.25
   5  -5   5   25.63    1.24
  -6   5  -5   29.44    1.19
   6  -5   5   28.74    1.41
   6  -5   5   30.59    1.45
  -7   5  -5    0.12    0.38
   7  -5   5    0.18    0.60
   7  -5   5    0.70    0.61
   7   4  -5   15.54    0.90
   7   4  -5   13.64    0.96
  -7  -4   5   15.08    0.86
  -7  -4   5   14.80    0.72
   6   4  -5   19.35    0.99
   6   4  -5   18.33    1.09
  -6  -4   5   21.56    0.94
  -6  -4   5   19.21    0.82
   5   4  -5   10.67    0.85
   5   4  -5   10.86    0.49
   5   4  -5   10.78    0.76
  -5  -4   5   10.32    0.56
  -5  -4   5   11.85    0.64
   4   4  -5    2.18    0.43
   4   4  -5    2.28    0.54
   4   4  -5    3.28    0.32
   4   4  -5    3.26    0.32
  -4  -4   5    3.08    0.32
  -4  -4   5    3.10    0.32
   3   4  -5  124.92    4.36
   3   4  -5  127.17    3.93
   3   4  -5  132.48    4.46
  -3  -4   5  127.26    3.93
   2   4  -5  288.80    8.90
   2   4  -5  293.08   10.18
   2   4  -5  310.63    9.96
   2   4  -5  302.36    9.91
  -2  -4   5  298.59    8.91
  -2  -4   5  290.64    9.87
   1   4  -5  181.15    5.51
   1   4  -5  178.77    5.83
   1   4  -5  182.13    6.14
   1   4  -5  186.69    6.16
  -1  -4   5  172.47    6.12
  -1  -4   5  179.38    6.12
  -1  -4   5  182.89    5.82
  -1  -4   5  185.70    5.51
   0   4  -5  243.35    8.24
   0   4  -5  242.70    7.40
   0   4  -5  254.96    7.89
   0  -4   5  239.91    7.40
   0  -4   5  244.00    8.24
   0  -4   5  242.29    7.87
   0  -4   5  254.02    8.25
  -1   4  -5   91.52    3.18
  -1   4  -5   90.53    3.03
  -1   4  -5   90.87    3.18
  -1   4  -5   86.90    2.83
   1  -4   5   89.43    3.19
   1  -4   5   88.60    2.83
   1  -4   5   90.99    3.19
  -2   4  -5    7.59    0.49
  -2   4  -5    6.59    0.52
   2  -4   5    7.51    0.51
   2  -4   5    6.08    0.59
   2  -4   5    5.89    0.56
   2  -4   5    6.82    0.48
  -3   4  -5   27.46    1.06
  -3   4  -5   28.57    1.06
   3  -4   5   28.05    1.01
   3  -4   5   26.20    1.31
   3  -4   5   26.65    1.31
   3  -4   5   27.39    1.45
  -4   4  -5  132.55    4.21
   4  -4   5  127.05    5.31
   4  -4   5  142.02    4.12
   4  -4   5  139.29    4.72
   4  -4   5  136.36    4.75
  -5   4  -5   55.55    1.90
   5  -4   5   56.91    2.22
   5  -4   5   54.90    2.15
  -6   4  -5   66.36    2.23
   6  -4   5   65.85    2.57
   6  -4   5   66.05    2.53
  -7   4  -5   13.72    0.81
   7  -4   5   14.97    1.05
   7  -4   5   15.44    1.16
   8   3  -5   11.71    0.83
   8   3  -5   12.41    0.87
  -8  -3   5   12.85    0.84
  -8  -3   5   12.41    0.67
   7   3  -5   28.37    1.22
   7   3  -5   27.35    1.29
  -7  -3   5   27.36    1.05
  -7  -3   5   29.26    1.26
   6   3  -5  122.01    4.21
   6   3  -5  125.36    4.30
  -6  -3   5  126.32    4.37
  -6  -3   5  118.33    3.78
   5   3  -5  153.71    5.45
   5   3  -5  159.83    5.54
   5   3  -5  158.63    4.77
  -5  -3   5  159.13    4.91
  -5  -3   5  171.21    4.95
  -5  -3   5  167.55    5.64
   4   3  -5   74.90    2.77
   4   3  -5   76.88    2.35
   4   3  -5   73.64    2.66
  -4  -3   5   72.40    2.39
  -4  -3   5   76.45    2.71
  -4  -3   5   80.17    2.43
   3   3  -5    0.12    0.40
   3   3  -5    0.07    0.19
   3   3  -5    0.23    0.20
   3   3  -5    0.94    0.35
  -3  -3   5    0.50    0.20
  -3  -3   5    0.25    0.15
   2   3  -5  161.40    4.87
   2   3  -5  163.43    4.87
   2   3  -5  161.07    5.43
   2   3  -5  158.11    5.53
   2   3  -5  161.30    5.45
  -2  -3   5  167.75    4.88
  -2  -3   5  160.81    4.89
  -2  -3   5  157.67    5.14
  -2  -3   5  152.87    5.39
   1   3  -5  113.59    3.48
   1   3  -5  118.87    3.71
   1   3  -5  111.45    3.90
   1   3  -5  112.71    3.48
   1   3  -5  111.41    3.90
  -1  -3   5  110.84    3.90
  -1  -3   5  110.87    3.89
  -1  -3   5  113.46    3.50
  -1  -3   5  112.46    3.69
   0   3  -5  237.00    6.88
   0   3  -5  226.89    6.87
   0   3  -5  228.94    7.67
   0   3  -5  225.63    7.34
   0  -3   5  224.04    7.66
   0  -3   5  234.03    7.34
   0  -3   5  223.81    7.65
   0  -3   5  225.91    6.88
  -1   3  -5  322.63   10.19
  -1   3  -5  319.28   10.60
  -1   3  -5  323.47   10.60
  -1   3  -5  314.30    9.52
  -1   3  -5  308.68    9.51
   1  -3   5  320.83    9.52
   1  -3   5  316.49   10.60
   1  -3   5  328.83   10.61
   1  -3   5  310.05   10.18
  -2   3  -5   19.69    0.77
  -2   3  -5   19.09    0.90
   2  -3   5   18.47    0.99
   2  -3   5   16.41    1.07
   2  -3   5   19.55    1.02
   2  -3   5   18.07    0.76
  -3   3  -5    3.93    0.38
   3  -3   5    4.07    0.55
   3  -3   5    3.02    0.55
   3  -3   5    4.79    0.57
   3  -3   5    4.00    0.45
   3  -3   5    3.50    0.32
  -4   3  -5   74.01    2.46
   4  -3   5   78.57    2.37
   4  -3   5   76.00    2.86
   4  -3   5   76.22    2.78
   4  -3   5   74.60    2.71
  -5   3  -5   65.86    2.23
   5  -3   5   67.38    2.52
   5  -3   5   67.61    2.59
  -6   3  -5   62.15    2.14
   6  -3   5   62.45    2.48
   6  -3   5   64.69    2.44
  -7   3  -5   42.36    1.61
   7  -3   5   45.54    1.98
   7  -3   5   44.10    1.85
   8   2  -5    3.02    0.46
   8   2  -5    3.31    0.54
  -8  -2   5    4.07    0.54
  -8  -2   5    3.98    0.38
   7   2  -5   12.75    0.75
   7   2  -5   13.25    0.87
  -7  -2   5   13.63    0.62
  -7  -2   5   13.63    0.78
   6   2  -5   72.20    2.54
   6   2  -5   69.90    2.62
  -6  -2   5   72.35    2.29
  -6  -2   5   74.37    2.68
   5   2  -5  168.92    5.94
   5   2  -5  174.01    6.02
  -5  -2   5  176.86    5.36
  -5  -2   5  178.23    6.18
  -5  -2   5  189.35    5.40
   4   2  -5   43.60    1.33
   4   2  -5   44.56    1.69
   4   2  -5   41.99    1.61
  -4  -2   5   42.98    1.63
  -4  -2   5   41.62    1.43
  -4  -2   5   44.02    1.45
  -4  -2   5   42.95    1.44
   3   2  -5   22.07    0.92
   3   2  -5   22.43    0.81
   3   2  -5   22.49    1.04
  -3  -2   5   22.46    0.83
  -3  -2   5   24.09    0.85
  -3  -2   5   22.97    0.86
   2   2  -5    0.77    0.37
   2   2  -5    0.52    0.33
   2   2  -5    1.34    0.24
   2   2  -5    0.80    0.20
  -2  -2   5    0.54    0.31
  -2  -2   5    1.10    0.20
  -2  -2   5    0.71    0.22
  -2  -2   5    0.44    0.18
   1   2  -5   61.86    2.24
   1   2  -5   63.00    2.25
   1   2  -5   61.72    1.97
  -1  -2   5   59.70    1.99
  -1  -2   5   67.56    1.99
  -1  -2   5   60.72    2.26
  -1  -2   5   58.64    2.20
  -1  -2   5   61.90    2.09
   0   2  -5  195.93    6.57
   0   2  -5  194.12    5.89
   0  -2   5  192.34    6.29
   0  -2   5  195.98    6.57
   0  -2   5  198.26    5.90
  -1   2  -5  263.73    9.60
  -1   2  -5  302.19    9.26
  -1   2  -5  285.63    9.62
  -1   2  -5  287.18    8.64
   1  -2   5  291.74    9.25
   1  -2   5  296.90    9.63
   1  -2   5  285.23    9.63
   1  -2   5  295.27    8.64
  -2   2  -5  123.42    3.83
  -2   2  -5  126.65    4.15
  -2   2  -5  122.39    4.27
   2  -2   5  124.11    3.80
   2  -2   5  122.38    4.29
   2  -2   5  118.37    4.80
   2  -2   5  126.39    4.15
   2  -2   5  128.62    4.28
  -3   2  -5   48.76    1.69
   3  -2   5   50.38    1.98
   3  -2   5   52.37    1.94
   3  -2   5   47.77    2.15
   3  -2   5   50.64    1.64
   3  -2   5   48.33    1.88
  -4   2  -5    3.53    0.40
   4  -2   5    2.99    0.56
   4  -2   5    2.76    0.30
   4  -2   5    3.16    0.59
   4  -2   5    2.44    0.54
   4  -2   5    2.55    0.49
  -5   2  -5   11.34    0.66
   5  -2   5   12.69    0.92
   5  -2   5   11.97    0.82
   5  -2   5   11.44    0.98
  -6   2  -5   24.40    1.06
   6  -2   5   25.57    1.44
   6  -2   5   26.38    1.28
  -7   2  -5   38.82    1.48
   7  -2   5   42.29    1.77
   7  -2   5   36.66    1.72
   8   1  -5    8.82    0.73
   8   1  -5   10.06    0.64
  -8  -1   5    9.60    0.54
  -8  -1   5    7.84    0.71
   7   1  -5    0.27    0.43
   7   1  -5    0.26    0.33
  -7  -1   5   -0.54    0.36
  -7  -1   5    0.51    0.24
   6   1  -5    8.72    0.68
   6   1  -5    8.80    0.59
  -6  -1   5    8.82    0.60
  -6  -1   5    8.73    0.48
   5   1  -5   78.12    2.79
   5   1  -5   76.62    2.74
  -5  -1   5   78.30    2.87
  -5  -1   5   82.02    2.48
  -5  -1   5   79.88    2.47
   4   1  -5   59.81    1.81
   4   1  -5   62.05    2.18
   4   1  -5   55.64    2.15
   4   1  -5   61.05    2.22
   4   1  -5   61.00    1.81
  -4  -1   5   60.97    2.23
  -4  -1   5   60.56    1.94
  -4  -1   5   62.45    1.93
   3   1  -5  104.16    3.75
   3   1  -5  107.84    3.22
   3   1  -5  103.26    3.65
   3   1  -5  106.86    3.64
  -3  -1   5  114.73    3.27
  -3  -1   5  101.05    3.27
   2   1  -5  199.04    6.69
   2   1  -5  196.23    6.67
   2   1  -5  192.07    6.89
   2   1  -5  199.20    5.96
  -2  -1   5  208.95    5.98
  -2  -1   5  207.26    5.99
  -2  -1   5  190.86    6.67
  -2  -1   5  199.91    6.00
   1   1  -5   94.13    3.29
   1   1  -5   93.96    2.91
   1   1  -5   91.95    3.26
  -1  -1   5   92.79    2.93
  -1  -1   5   92.47    3.25
  -1  -1   5   96.59    2.91
  -1  -1   5   97.92    2.92
  -1  -1   5   92.55    3.11
  -1  -1   5   97.13    3.30
   0   1  -5   81.40    2.86
   0   1  -5   80.88    2.53
   0  -1   5   81.24    2.71
   0  -1   5   78.74    2.82
  -1   1  -5  438.04   14.78
  -1   1  -5  446.23   13.51
  -1   1  -5  454.33   14.79
   1  -1   5  451.57   13.58
   1  -1   5  463.48   14.80
   1  -1   5  438.97   14.80
   1  -1   5  436.70   14.37
  -2   1  -5  203.79    7.00
  -2   1  -5  206.09    6.29
   2  -1   5  205.68    6.77
   2  -1   5  204.31    7.03
   2  -1   5  217.99    7.02
   2  -1   5  207.39    7.84
   2  -1   5  210.55    6.27
  -3   1  -5  176.95    5.37
   3  -1   5  169.54    6.68
   3  -1   5  175.10    6.01
   3  -1   5  176.30    5.97
   3  -1   5  173.12    5.81
   3  -1   5  182.07    5.32
  -4   1  -5  106.54    3.48
   4  -1   5  115.99    3.41
   4  -1   5  110.82    3.89
   4  -1   5  109.31    3.94
   4  -1   5  112.43    3.85
   4  -1   5  108.79    4.37
  -5   1  -5    5.80    0.50
   5  -1   5    6.51    0.68
   5  -1   5    5.79    0.63
   5  -1   5    6.66    0.67
   5  -1   5    6.09    0.67
  -6   1  -5    1.17    0.37
   6  -1   5    1.98    0.56
   6  -1   5    1.06    0.54
   8   0  -5   34.06    1.30
   8   0  -5   32.43    1.39
  -8   0   5   35.05    1.19
  -8   0   5   33.93    1.53
   7   0  -5   26.19    1.08
   7   0  -5   26.24    1.15
  -7   0   5   27.46    1.26
  -7   0   5   28.73    0.99
   6   0  -5    5.43    0.49
   6   0  -5    6.18    0.52
  -6   0   5    5.92    0.54
  -6   0   5    5.84    0.40
  -6   0   5    5.45    0.41
   5   0  -5   40.60    1.52
   5   0  -5   39.33    1.53
  -5   0   5   40.48    1.60
  -5   0   5   42.70    1.34
  -5   0   5   39.31    1.35
   4   0  -5  133.84    4.63
   4   0  -5  133.64    4.65
   4   0  -5  141.28    4.82
  -4   0   5  136.11    4.17
  -4   0   5  142.65    4.15
  -4   0   5  135.33    4.82
   3   0  -5  362.63   12.22
   3   0  -5  362.02   12.63
   3   0  -5  377.10   10.94
   3   0  -5  370.11   11.02
   3   0  -5  374.73   12.28
  -3   0   5  379.40   11.02
  -3   0   5  357.17   11.06
   2   0  -5  671.18   21.40
   2   0  -5  644.95   19.21
   2   0  -5  632.30   21.43
  -2   0   5  667.95   19.13
  -2   0   5  619.84   19.32
  -2   0   5  609.39   21.25
   1   0  -5  176.26    6.01
   1   0  -5  176.94    5.99
   1   0  -5  182.08    5.37
  -1   0   5  177.24    5.98
  -1   0   5  178.35    5.40
  -1   0   5  183.65    5.98
  -1   0   5  174.49    6.01
   0   0  -5   26.83    0.95
   0   0  -5   26.70    1.12
   0   0   5   25.69    1.10
   0   0   5   26.37    0.97
   0   0   5   26.61    1.10
   0   0   5   26.77    1.04
  -1   0  -5   83.94    2.60
  -1   0  -5   85.89    2.91
  -1   0  -5   81.00    2.92
   1   0   5   80.74    3.23
   1   0   5   80.18    2.58
   1   0   5   81.11    2.93
   1   0   5   86.15    2.93
   1   0   5   82.89    2.92
   1   0   5   79.90    2.81
  -2   0  -5   87.84    2.73
  -2   0  -5   83.48    3.05
   2   0   5   87.24    2.70
   2   0   5   82.58    3.37
   2   0   5   86.46    3.09
   2   0   5   82.71    2.96
   2   0   5   92.50    3.08
   2   0   5   85.88    3.07
  -3   0  -5   44.58    1.58
   3   0   5   47.97    1.83
   3   0   5   43.89    1.83
   3   0   5   44.25    1.97
   3   0   5   47.68    1.54
   3   0   5   46.21    1.88
   3   0   5   45.76    1.78
  -4   0  -5  126.71    3.92
   4   0   5  121.47    4.37
   4   0   5  123.45    4.87
   4   0   5  131.99    3.85
   4   0   5  122.24    4.28
   4   0   5  122.61    4.34
  -5   0  -5   15.60    0.79
   5   0   5   14.93    1.02
   5   0   5   16.04    1.01
   5   0   5   15.77    0.98
  -6   0  -5    1.48    0.40
   6   0   5    1.74    0.58
   6   0   5    1.52    0.53
   9  -1  -5    6.80    0.55
   9  -1  -5    7.43    0.58
   8  -1  -5   66.64    2.38
   8  -1  -5   64.75    2.34
  -8   1   5   66.05    2.12
  -8   1   5   71.59    2.64
   7  -1  -5   82.39    2.89
   7  -1  -5   82.23    2.89
  -7   1   5   85.45    3.15
  -7   1   5   84.70    2.61
  -7   1   5   85.50    3.40
   6  -1  -5   45.86    1.78
   6  -1  -5   45.97    1.76
  -6   1   5   50.25    1.95
  -6   1   5   50.70    1.56
  -6   1   5   48.60    1.58
  -6   1   5   50.45    1.56
   5  -1  -5    5.60    0.51
   5  -1  -5    5.46    0.44
  -5   1   5    5.36    0.39
  -5   1   5    6.52    0.58
  -5   1   5    5.74    0.37
   4  -1  -5   14.84    0.75
   4  -1  -5   14.72    0.81
   4  -1  -5   15.52    0.78
  -4   1   5   15.48    0.64
  -4   1   5   16.03    0.61
   3  -1  -5   59.12    2.31
   3  -1  -5   61.88    2.26
   3  -1  -5   64.16    2.23
   3  -1  -5   62.91    1.92
  -3   1   5   66.31    1.97
  -3   1   5   61.97    2.00
   2  -1  -5  340.31   11.64
   2  -1  -5  357.75   11.61
   2  -1  -5  350.18   10.57
  -2   1   5  345.55   10.45
  -2   1   5  337.93   11.62
  -2   1   5  373.27   10.43
   1  -1  -5  194.92    6.21
   1  -1  -5  179.29    6.20
   1  -1  -5  183.91    5.54
  -1   1   5  180.79    6.20
  -1   1   5  188.13    6.17
  -1   1   5  178.49    5.57
   0  -1  -5   28.92    1.26
   0  -1  -5   29.65    1.04
   0   1   5   30.25    1.06
   0   1   5   30.05    1.30
   0   1   5   30.11    1.20
  -1  -1  -5   38.30    1.53
  -1  -1  -5   41.73    1.59
  -1  -1  -5   39.58    1.35
   1   1   5   38.97    1.53
   1   1   5   36.99    1.63
   1   1   5   39.11    1.34
   1   1   5   37.41    1.46
   1   1   5   40.59    1.58
  -2  -1  -5    1.02    0.27
   2   1   5    0.95    0.45
   2   1   5    0.27    0.40
   2   1   5    0.90    0.37
   2   1   5    1.22    0.37
   2   1   5    0.84    0.25
  -3  -1  -5    3.77    0.40
   3   1   5    3.64    0.52
   3   1   5    4.12    0.58
   3   1   5    4.25    0.54
   3   1   5    4.06    0.49
   3   1   5    3.38    0.36
  -4  -1  -5   55.27    1.89
   4   1   5   54.19    2.14
   4   1   5   53.20    2.11
   4   1   5   58.65    1.85
   4   1   5   54.26    2.17
  -5  -1  -5   70.20    2.43
   5   1   5   76.36    2.76
   5   1   5   71.80    2.72
  -6  -1  -5   15.91    0.90
   6   1   5   18.66    1.20
   6   1   5   18.76    1.13
   9  -2  -5    0.31    0.36
   9  -2  -5   -0.32    0.35
   8  -2  -5   20.01    0.86
   8  -2  -5   18.19    0.89
  -8   2   5   22.31    1.16
  -8   2   5   20.28    0.76
   7  -2  -5   60.13    2.23
   7  -2  -5   64.04    2.20
  -7   2   5   65.53    1.99
  -7   2   5   63.07    2.47
  -7   2   5   63.22    2.62
   6  -2  -5   95.24    3.28
   6  -2  -5   93.92    3.33
   6  -2  -5  100.38    3.29
  -6   2   5   93.63    2.97
  -6   2   5  101.97    2.96
  -6   2   5   95.82    3.56
   5  -2  -5   98.28    3.28
   5  -2  -5   93.43    3.33
  -5   2   5   94.26    2.96
  -5   2   5  101.70    2.94
  -5   2   5   93.39    3.51
   4  -2  -5   31.04    0.96
   4  -2  -5   31.22    1.20
   4  -2  -5   30.01    1.28
   4  -2  -5   30.76    0.95
   4  -2  -5   31.35    1.28
  -4   2   5   30.05    1.07
  -4   2   5   32.51    1.04
   3  -2  -5    4.46    0.39
   3  -2  -5    3.75    0.45
   3  -2  -5    4.03    0.27
   3  -2  -5    4.61    0.40
   3  -2  -5    4.61    0.41
  -3   2   5    5.00    0.37
  -3   2   5    4.15    0.32
   2  -2  -5   27.10    1.18
   2  -2  -5   28.08    0.94
   2  -2  -5   27.50    1.14
   2  -2  -5   27.00    1.10
  -2   2   5   28.22    1.00
   1  -2  -5  101.82    3.50
   1  -2  -5   97.58    3.52
   1  -2  -5  103.90    3.52
   1  -2  -5  101.64    3.12
  -1   2   5   97.99    3.14
  -1   2   5  104.42    3.53
   0  -2  -5  117.32    3.62
   0  -2  -5  117.72    4.05
   0   2   5  116.21    4.42
   0   2   5  119.22    3.63
   0   2   5  116.93    4.04
  -1  -2  -5  201.27    6.26
  -1  -2  -5  210.28    7.00
   1   2   5  203.83    7.71
   1   2   5  207.00    6.98
   1   2   5  205.04    6.25
   1   2   5  214.18    6.99
  -2  -2  -5   60.12    2.01
   2   2   5   59.35    2.19
   2   2   5   58.85    2.27
   2   2   5   61.53    2.00
   2   2   5   60.12    2.45
   2   2   5   64.14    2.31
  -3  -2  -5    7.49    0.56
   3   2   5    5.97    0.61
   3   2   5    6.37    0.47
   3   2   5    5.78    0.60
   3   2   5    5.99    0.60
  -4  -2  -5   36.52    1.44
   4   2   5   42.62    1.43
   4   2   5   40.18    1.67
   4   2   5   38.63    1.66
  -5  -2  -5   39.70    1.54
   5   2   5   39.52    1.75
   5   2   5   42.28    1.80
   9  -3  -5    9.57    0.64
   9  -3  -5   11.15    0.60
   8  -3  -5    0.65    0.30
   8  -3  -5    0.46    0.35
  -8   3   5    0.54    0.46
  -8   3   5    1.04    0.22
  -8   3   5    0.69    0.46
   7  -3  -5   15.31    0.68
   7  -3  -5   13.70    0.75
  -7   3   5   15.34    0.92
  -7   3   5   14.96    0.92
  -7   3   5   14.12    0.62
   6  -3  -5   29.56    1.27
   6  -3  -5   32.69    1.21
  -6   3   5   30.81    1.40
  -6   3   5   32.38    1.43
  -6   3   5   32.96    1.10
   5  -3  -5  144.84    5.03
   5  -3  -5  150.55    4.97
  -5   3   5  154.69    4.47
  -5   3   5  152.12    4.50
  -5   3   5  137.91    5.27
   4  -3  -5   84.86    2.98
   4  -3  -5   84.06    3.05
  -4   3   5   91.19    2.68
  -4   3   5   86.68    2.71
   3  -3  -5   19.62    0.96
   3  -3  -5   21.16    0.94
   3  -3  -5   22.20    1.01
   3  -3  -5   20.87    0.74
  -3   3   5   21.80    0.82
   2  -3  -5    6.53    0.40
   2  -3  -5    7.38    0.61
   2  -3  -5    6.90    0.55
  -2   3   5    6.44    0.46
   1  -3  -5   71.57    2.22
   1  -3  -5   69.25    2.54
   1  -3  -5   71.16    2.51
   1  -3  -5   73.17    2.51
  -1   3   5   70.90    2.64
  -1   3   5   72.87    2.24
  -1   3   5   58.66    2.49
   0  -3  -5  100.57    3.98
   0  -3  -5  119.52    3.60
   0  -3  -5   99.96    3.98
   0  -3  -5  124.54    4.05
   0   3   5  121.26    3.61
   0   3   5  123.89    4.04
   0   3   5  123.61    4.36
  -1  -3  -5  293.83    8.87
  -1  -3  -5  300.62    9.88
   1   3   5  289.03    9.86
   1   3   5  296.79    9.88
   1   3   5  289.53    8.85
   1   3   5  300.20   10.92
  -2  -3  -5  139.87    4.41
   2   3   5  145.68    4.93
   2   3   5  142.67    4.38
   2   3   5  140.29    4.92
   2   3   5  140.95    4.75
  -3  -3  -5   18.39    0.85
   3   3   5   18.26    0.96
   3   3   5   18.61    0.83
   3   3   5   18.13    1.03
  -4  -3  -5    0.95    0.40
   4   3   5    0.84    0.57
   4   3   5    0.47    0.47
   4   3   5    1.19    0.39
  -5  -3  -5    7.60    0.63
   5   3   5    6.32    0.71
   9  -4  -5   10.30    0.59
   9  -4  -5    9.38    0.61
   8  -4  -5    4.98    0.39
   8  -4  -5    3.85    0.43
  -8   4   5    4.71    0.65
  -8   4   5    5.38    0.37
  -8   4   5    4.60    0.62
   7  -4  -5    3.39    0.44
   7  -4  -5    3.34    0.37
  -7   4   5    4.09    0.55
  -7   4   5    3.76    0.30
  -7   4   5    4.15    0.53
   6  -4  -5    4.92    0.49
   6  -4  -5    6.42    0.49
  -6   4   5    5.36    0.40
  -6   4   5    5.45    0.51
  -6   4   5    5.04    0.57
   5  -4  -5   81.55    2.80
   5  -4  -5   80.16    2.86
  -5   4   5   79.95    3.11
  -5   4   5   79.42    2.53
  -5   4   5   82.19    2.50
   4  -4  -5  165.61    5.66
   4  -4  -5  168.14    5.02
   4  -4  -5  166.47    5.71
  -4   4   5  165.97    6.24
  -4   4   5  165.23    5.10
  -4   4   5  178.70    5.09
   3  -4  -5   99.75    3.39
   3  -4  -5   98.19    2.99
   3  -4  -5   98.24    3.43
  -3   4   5   97.93    3.61
  -3   4   5   93.80    3.03
   2  -4  -5   99.90    3.52
   2  -4  -5  103.25    3.13
   2  -4  -5  101.06    3.70
   2  -4  -5  101.97    3.56
  -2   4   5  100.40    3.16
   1  -4  -5    2.41    0.30
   1  -4  -5    2.35    0.47
   1  -4  -5    2.73    0.48
  -1   4   5    2.58    0.52
  -1   4   5    2.28    0.32
   0  -4  -5    5.42    0.46
   0  -4  -5    7.61    0.52
   0  -4  -5    7.28    0.61
   0  -4  -5    5.97    0.48
   0   4   5    7.24    0.49
   0   4   5    4.01    0.51
  -1  -4  -5   82.80    2.71
   1   4   5   86.07    3.07
   1   4   5   84.19    2.71
  -2  -4  -5  103.28    3.38
   2   4   5  106.62    3.37
   2   4   5  109.53    3.81
   2   4   5  105.31    3.65
  -3  -4  -5   22.23    1.00
   3   4   5   22.70    1.00
   3   4   5   23.40    1.15
  -4  -4  -5   25.05    1.14
   4   4   5   25.95    1.29
   8  -5  -5   19.13    0.85
   8  -5  -5   17.89    0.89
  -8   5   5   20.43    1.16
  -8   5   5   19.48    0.72
  -8   5   5   18.50    1.15
   7  -5  -5   23.50    1.03
   7  -5  -5   22.84    0.97
  -7   5   5   22.74    1.23
  -7   5   5   21.59    0.83
  -7   5   5   22.30    1.15
   6  -5  -5    6.88    0.59
   6  -5  -5    8.03    0.57
  -6   5   5    7.51    0.47
  -6   5   5    9.33    0.65
   5  -5  -5    6.41    0.50
   5  -5  -5    5.69    0.55
  -5   5   5    5.64    0.43
  -5   5   5    5.81    0.51
   4  -5  -5  117.21    3.57
   4  -5  -5  116.25    4.10
   4  -5  -5  122.30    4.07
  -4   5   5  119.87    4.38
  -4   5   5  114.11    3.64
   3  -5  -5  131.03    4.01
   3  -5  -5  131.67    4.56
   3  -5  -5  133.27    4.52
  -3   5   5  130.22    4.06
   2  -5  -5  198.31    6.58
   2  -5  -5  196.58    6.54
   2  -5  -5  191.03    5.84
  -2   5   5  186.77    5.87
   1  -5  -5  124.64    4.30
   1  -5  -5  123.50    3.84
   1  -5  -5  123.40    4.32
  -1   5   5  123.66    3.86
   0  -5  -5    6.17    0.49
   0   5   5    6.75    0.52
  -1  -5  -5    2.78    0.41
   1   5   5    2.27    0.38
  -2  -5  -5   30.13    1.23
   2   5   5   31.53    1.22
  -3  -5  -5   20.06    1.01
   3   5   5   21.87    1.02
   3   5   5   20.62    1.12
  -4  -5  -5   24.08    1.13
   4   5   5   21.96    1.23
   8  -6  -5   39.06    1.53
   8  -6  -5   40.03    1.51
  -8   6   5   39.57    1.33
   7  -6  -5   81.33    2.86
   7  -6  -5   80.76    2.83
  -7   6   5   79.52    2.53
   6  -6  -5   61.69    2.24
   6  -6  -5   59.25    2.19
  -6   6   5   58.95    1.96
  -6   6   5   61.42    2.42
   5  -6  -5    8.12    0.65
   5  -6  -5    9.59    0.70
  -5   6   5    8.56    0.52
   4  -6  -5   14.97    0.63
   4  -6  -5   14.62    0.85
   4  -6  -5   16.34    0.92
  -4   6   5   14.19    0.70
   3  -6  -5   28.34    1.27
   3  -6  -5   28.93    1.32
   3  -6  -5   28.84    1.04
  -3   6   5   27.18    1.08
   2  -6  -5   46.86    1.93
   2  -6  -5   53.34    1.70
   2  -6  -5   47.70    1.97
  -2   6   5   54.12    1.74
   1  -6  -5   70.57    2.31
   1  -6  -5   73.65    2.65
  -1   6   5   67.92    2.32
   0  -6  -5   19.14    0.90
   0   6   5   19.58    0.87
  -1  -6  -5    0.67    0.37
   1   6   5    0.98    0.36
  -2  -6  -5    2.21    0.44
   2   6   5    2.84    0.46
  -3  -6  -5    5.95    0.63
   3   6   5    6.75    0.64
   3   6   5    7.26    0.72
   8  -7  -5    7.69    0.66
   8  -7  -5    5.50    0.56
  -8   7   5    6.29    0.48
   7  -7  -5   52.08    1.97
   7  -7  -5   51.68    2.00
  -7   7   5   52.67    1.74
   6  -7  -5   34.30    1.44
   6  -7  -5   35.84    1.50
  -6   7   5   35.10    1.26
   5  -7  -5   22.07    1.08
   5  -7  -5   20.50    1.09
  -5   7   5   22.55    0.90
   4  -7  -5    1.26    0.46
   4  -7  -5    0.56    0.26
   4  -7  -5    0.05    0.46
  -4   7   5    0.88    0.32
   3  -7  -5    0.82    0.47
   3  -7  -5    0.62    0.29
  -3   7   5    1.18    0.35
   2  -7  -5    7.21    0.54
   2  -7  -5    7.62    0.68
  -2   7   5    6.83    0.53
   1  -7  -5   42.18    1.54
  -1   7   5   44.21    1.57
   0  -7  -5   41.30    1.49
   0   7   5   37.94    1.47
  -1  -7  -5   47.75    1.77
   1   7   5   49.52    1.78
  -2  -7  -5   13.41    0.87
   2   7   5   13.31    0.87
   7  -8  -5   15.70    0.90
   7  -8  -5   13.87    0.92
  -7   8   5   13.99    0.72
   6  -8  -5   18.22    0.96
   6  -8  -5   16.09    0.99
  -6   8   5   17.18    0.81
   5  -8  -5   20.71    1.14
   5  -8  -5   20.52    1.08
  -5   8   5   21.37    0.93
   4  -8  -5   45.09    1.78
  -4   8   5   41.24    1.54
   3  -8  -5   18.22    0.83
   3  -8  -5   16.98    1.01
  -3   8   5   17.79    0.87
   2  -8  -5    0.64    0.36
  -2   8   5    1.27    0.40
   1  -8  -5   21.54    1.00
  -1   8   5   22.16    1.00
   0  -8  -5   38.19    1.50
   0   8   5   37.79    1.48
  -1  -8  -5   44.32    1.75
   1   8   5   47.27    1.76
   6  -9  -5    5.86    0.67
  -6   9   5    6.13    0.53
   5  -9  -5   23.54    1.18
  -5   9   5   19.17    0.94
  -4   9   5   58.14    2.03
  -3   9   5   49.23    1.78
   2  -9  -5   22.44    1.04
  -2   9   5   21.80    1.05
   1  -9  -5    0.59    0.41
  -1   9   5    0.90    0.44
  -4  10   5   26.91    1.16
   1  12  -6   37.85    1.59
  -1 -12   6   38.09    1.60
   0  12  -6   29.14    1.31
   0 -12   6   30.96    1.34
  -1  12  -6   13.39    0.84
   1 -12   6   12.71    0.89
  -2  12  -6    2.46    0.50
   2 -12   6    2.82    0.53
  -3  12  -6    3.29    0.53
  -4  12  -6   17.76    0.99
   3  11  -6    5.23    0.66
  -3 -11   6    4.95    0.64
   2  11  -6    0.20    0.42
  -2 -11   6    0.55    0.44
   1  11  -6   37.93    1.54
  -1 -11   6   40.35    1.59
   0  11  -6   69.75    2.46
   0 -11   6   71.77    2.48
  -1  11  -6   49.03    1.83
   1 -11   6   49.03    1.84
  -2  11  -6   60.06    2.19
   2 -11   6   63.68    2.18
  -3  11  -6    8.22    0.66
   3 -11   6   10.50    0.80
  -4  11  -6    2.16    0.48
  -5  11  -6   23.45    1.21
  -5  11  -6   22.72    1.11
   5 -11   6   23.15    1.47
  -4 -10   6   52.34    1.96
   3  10  -6   33.81    1.40
  -3 -10   6   32.31    1.40
   2  10  -6    2.99    0.51
  -2 -10   6    3.07    0.48
   1  10  -6    3.32    0.48
  -1 -10   6    3.86    0.53
   0  10  -6   55.54    1.98
   0 -10   6   54.87    1.97
  -1  10  -6   54.70    1.95
   1 -10   6   55.91    1.98
  -2  10  -6  103.80    3.57
  -2  10  -6   96.17    3.27
   2 -10   6  102.49    3.30
  -3  10  -6   61.64    2.34
  -3  10  -6   59.46    2.16
   3 -10   6   65.19    2.17
   3 -10   6   62.92    2.54
  -4  10  -6    4.75    0.53
   4 -10   6    4.55    0.79
  -5  10  -6    0.37    0.41
   5 -10   6    0.60    0.69
  -6  10  -6   11.23    0.84
   6 -10   6   11.21    1.05
  -5  -9   6    8.38    0.71
  -4  -9   6   46.99    1.77
   3   9  -6   83.09    2.74
  -3  -9   6   79.64    2.74
   2   9  -6   21.69    1.01
  -2  -9   6   19.93    0.96
   1   9  -6   19.21    0.89
   1   9  -6   19.27    0.94
  -1  -9   6   17.92    0.92
   0   9  -6    5.72    0.54
   0  -9   6    5.64    0.54
  -1   9  -6    5.00    0.51
  -1   9  -6    5.57    0.36
   1  -9   6    5.07    0.65
   1  -9   6    4.92    0.49
  -2   9  -6   49.61    1.78
   2  -9   6   51.72    2.12
   2  -9   6   49.17    1.79
  -3   9  -6  110.72    3.72
   3  -9   6  117.48    3.71
   3  -9   6  121.31    4.24
  -4   9  -6   41.17    1.56
   4  -9   6   42.26    1.89
  -5   9  -6   19.59    0.98
   5  -9   6   20.65    1.33
  -6   9  -6    2.83    0.50
   6  -9   6    1.07    0.77
  -5  -8   6    1.47    0.44
   4   8  -6    7.93    0.62
   4   8  -6    7.33    0.85
  -4  -8   6    6.31    0.58
   3   8  -6   49.36    2.06
   3   8  -6   47.13    1.70
  -3  -8   6   45.28    1.70
   2   8  -6   54.67    2.26
   2   8  -6   57.67    1.98
   2   8  -6   59.23    1.98
  -2  -8   6   54.32    1.95
   1   8  -6  106.15    3.57
   1   8  -6  107.57    3.43
   1   8  -6  109.60    3.87
  -1  -8   6  104.81    3.44
   0   8  -6  106.39    3.50
   0   8  -6  113.38    3.95
   0  -8   6  114.08    3.93
   0  -8   6  111.58    3.53
   0  -8   6  105.05    3.93
  -1   8  -6    9.67    0.61
   1  -8   6   10.87    0.84
   1  -8   6    9.83    0.86
   1  -8   6    8.50    0.62
  -2   8  -6   50.41    1.80
   2  -8   6   52.60    1.83
   2  -8   6   54.27    2.17
   2  -8   6   50.29    2.08
  -3   8  -6  108.79    3.60
   3  -8   6  117.49    4.11
   3  -8   6  114.81    4.07
   3  -8   6  111.78    3.60
  -4   8  -6   72.39    2.47
   4  -8   6   70.13    2.80
   4  -8   6   78.22    2.89
   4  -8   6   74.08    2.42
  -5   8  -6   76.28    2.60
   5  -8   6   78.14    3.00
   5  -8   6   77.08    2.95
  -6   8  -6   24.73    1.15
   6  -8   6   27.17    1.48
   6  -8   6   26.30    1.49
   6   7  -6   51.91    2.20
  -6  -7   6   49.79    1.84
   5   7  -6   21.39    1.29
  -5  -7   6   19.76    0.95
   4   7  -6   -0.03    0.35
   4   7  -6    0.21    0.59
  -4  -7   6   -0.12    0.32
   3   7  -6   32.37    1.48
   3   7  -6   33.09    1.27
   3   7  -6   35.23    1.60
  -3  -7   6   31.38    1.24
   2   7  -6   46.13    1.91
   2   7  -6   48.00    1.94
   2   7  -6   47.94    1.65
   2   7  -6   44.32    1.63
  -2  -7   6   42.81    1.61
   1   7  -6  139.35    5.02
   1   7  -6  148.02    5.03
   1   7  -6  147.11    4.47
   1   7  -6  153.18    4.71
  -1  -7   6  134.09    4.97
  -1  -7   6  139.44    4.47
   0   7  -6  167.61    6.40
   0   7  -6  198.96    6.11
   0   7  -6  188.54    5.75
   0   7  -6  202.11    6.46
   0  -7   6  190.56    6.43
   0  -7   6  187.56    5.76
   0  -7   6  176.92    6.40
  -1   7  -6   52.89    2.10
  -1   7  -6   55.34    1.86
   1  -7   6   56.65    2.20
   1  -7   6   52.56    2.12
   1  -7   6   52.37    1.86
  -2   7  -6    3.21    0.41
   2  -7   6    2.24    0.37
   2  -7   6    2.35    0.54
   2  -7   6    2.69    0.69
  -3   7  -6   71.84    2.44
   3  -7   6   74.73    2.44
   3  -7   6   76.79    2.87
   3  -7   6   72.16    2.80
  -4   7  -6   36.83    1.40
   4  -7   6   37.00    1.67
   4  -7   6   37.54    1.36
   4  -7   6   37.73    1.73
  -5   7  -6   35.28    1.44
   5  -7   6   40.19    1.79
   5  -7   6   38.31    1.76
  -6   7  -6   67.79    2.38
  -6   7  -6   66.74    2.39
   6  -7   6   70.09    2.75
   6  -7   6   75.06    2.80
   7   6  -6    7.64    0.83
  -7  -6   6    7.00    0.61
   6   6  -6   40.02    1.78
  -6  -6   6   37.77    1.45
   5   6  -6   30.34    1.48
   5   6  -6   29.90    1.37
  -5  -6   6   28.60    1.16
   4   6  -6   23.06    1.18
   4   6  -6   25.57    1.33
   4   6  -6   26.11    1.04
  -4  -6   6   23.64    1.01
   3   6  -6    4.03    0.63
   3   6  -6    3.79    0.43
   3   6  -6    4.00    0.54
  -3  -6   6    3.96    0.41
   2   6  -6   13.60    0.71
   2   6  -6   12.76    0.88
   2   6  -6   12.97    1.02
   2   6  -6   13.32    0.65
  -2  -6   6   12.00    0.66
  -2  -6   6   10.48    0.83
   1   6  -6   73.61    2.68
   1   6  -6   78.75    2.82
   1   6  -6   78.68    2.61
   1   6  -6   78.10    2.50
   1   6  -6   79.39    2.87
  -1  -6   6   73.54    2.79
  -1  -6   6   73.93    2.49
   0   6  -6  291.66    8.86
   0   6  -6  314.34    9.90
   0   6  -6  308.55    9.42
   0  -6   6  255.78    9.83
   0  -6   6  291.51    8.86
   0  -6   6  300.58    9.88
  -1   6  -6  114.52    3.59
  -1   6  -6  118.26    4.02
  -1   6  -6  112.92    3.81
   1  -6   6  110.46    3.58
   1  -6   6  110.58    4.00
   1  -6   6  114.16    4.04
  -2   6  -6  120.91    3.78
   2  -6   6  119.93    4.22
   2  -6   6  115.55    3.75
   2  -6   6  121.74    4.28
  -3   6  -6   88.26    2.89
   3  -6   6   78.49    3.71
   3  -6   6   92.49    2.87
   3  -6   6   93.46    3.32
   3  -6   6   92.15    3.30
  -4   6  -6    3.79    0.46
   4  -6   6    4.84    0.42
   4  -6   6    3.30    0.61
   4  -6   6    3.49    0.68
  -5   6  -6   14.83    0.80
  -5   6  -6   14.39    0.80
   5  -6   6   14.95    1.15
   5  -6   6   13.94    1.07
  -6   6  -6   48.38    1.75
   6  -6   6   46.19    2.03
   6  -6   6   45.60    2.05
  -7   6  -6   27.94    1.27
   7  -6   6   31.28    1.54
   7   5  -6    0.08    0.51
   7   5  -6   -0.02    0.59
  -7  -5   6   -0.01    0.36
   6   5  -6   27.36    1.34
   6   5  -6   30.09    1.46
  -6  -5   6   28.39    1.14
  -6  -5   6   29.25    1.23
   5   5  -6   74.08    2.70
   5   5  -6   70.08    2.61
  -5  -5   6   68.92    2.33
   4   5  -6  131.97    4.59
   4   5  -6  138.30    4.69
   4   5  -6  131.17    4.11
  -4  -5   6  129.90    4.13
   3   5  -6  235.51    7.69
   3   5  -6  224.66    7.62
   3   5  -6  219.52    6.84
  -3  -5   6  223.66    6.85
   2   5  -6   57.65    2.11
   2   5  -6   58.63    2.05
   2   5  -6   66.74    2.31
   2   5  -6   59.56    2.25
   2   5  -6   60.19    2.00
  -2  -5   6   55.62    2.22
  -2  -5   6   59.84    1.99
   1   5  -6    4.69    0.43
   1   5  -6    4.90    0.56
   1   5  -6    5.74    0.57
   1   5  -6    4.34    0.40
  -1  -5   6    4.12    0.56
  -1  -5   6    4.85    0.42
  -1  -5   6    4.19    0.51
   0   5  -6  111.86    3.53
   0   5  -6  113.25    3.74
   0   5  -6  113.30    3.95
   0  -5   6  109.15    3.52
   0  -5   6  114.82    3.93
   0  -5   6  109.86    3.94
  -1   5  -6  175.34    5.67
  -1   5  -6  178.51    5.92
  -1   5  -6  176.31    5.32
   1  -5   6  167.39    5.93
   1  -5   6  167.59    5.30
   1  -5   6  171.32    5.92
  -2   5  -6  110.14    3.57
   2  -5   6  119.05    4.06
   2  -5   6  114.60    4.05
   2  -5   6  110.50    3.57
  -3   5  -6  169.84    5.37
  -3   5  -6  172.28    5.38
   3  -5   6  180.70    6.05
   3  -5   6  160.59    6.75
   3  -5   6  183.48    5.35
   3  -5   6  179.86    6.03
  -4   5  -6   37.05    1.37
  -4   5  -6   35.23    1.35
   4  -5   6   36.85    1.27
   4  -5   6   32.88    1.84
   4  -5   6   35.74    1.63
   4  -5   6   34.89    1.60
  -5   5  -6    3.48    0.45
   5  -5   6    4.42    0.68
   5  -5   6    3.54    0.66
  -6   5  -6   23.11    1.08
   6  -5   6   27.35    1.49
   6  -5   6   24.38    1.34
  -7   5  -6   21.54    1.08
   7  -5   6   23.31    1.37
   7   4  -6    8.93    0.79
   7   4  -6    8.58    0.80
  -7  -4   6    9.81    0.61
  -7  -4   6   11.55    0.78
   6   4  -6    7.44    0.73
   6   4  -6    6.27    0.58
  -6  -4   6    7.40    0.62
  -6  -4   6    7.04    0.54
   5   4  -6   48.58    1.89
   5   4  -6   48.87    1.98
  -5  -4   6   48.02    1.68
  -5  -4   6   51.30    1.88
   4   4  -6  117.92    4.29
   4   4  -6  130.31    3.83
   4   4  -6  127.50    4.39
  -4  -4   6  121.74    3.87
   3   4  -6  247.96    7.51
   3   4  -6  248.58    8.55
   3   4  -6  258.79    8.46
   3   4  -6  245.74    7.51
   3   4  -6  246.61    8.39
  -3  -4   6  246.80    7.55
  -3  -4   6  253.54    7.93
   2   4  -6  120.95    4.44
   2   4  -6  129.67    4.43
   2   4  -6  132.72    4.47
   2   4  -6  127.38    3.95
   2   4  -6  126.64    3.95
  -2  -4   6  125.61    4.40
  -2  -4   6  132.14    3.98
  -2  -4   6  128.11    4.16
   1   4  -6   17.71    0.77
   1   4  -6   17.73    1.00
   1   4  -6   17.84    0.95
   1   4  -6   17.75    0.80
  -1  -4   6   16.39    0.74
  -1  -4   6   16.55    0.92
  -1  -4   6   15.74    0.97
  -1  -4   6   16.49    0.77
   0   4  -6    4.29    0.42
   0   4  -6    4.38    0.39
   0   4  -6    5.99    0.60
   0   4  -6    4.61    0.39
   0  -4   6    4.04    0.40
   0  -4   6    4.04    0.39
   0  -4   6    3.89    0.41
   0  -4   6    4.26    0.53
  -1   4  -6   11.17    0.60
  -1   4  -6   12.75    0.88
  -1   4  -6   10.29    0.67
  -1   4  -6   12.02    0.63
   1  -4   6   11.90    0.92
   1  -4   6   11.67    0.83
   1  -4   6   10.94    0.64
   1  -4   6   11.70    0.65
  -2   4  -6   63.71    2.12
  -2   4  -6   65.31    2.12
   2  -4   6   60.87    2.10
   2  -4   6   63.50    2.29
   2  -4   6   63.01    2.44
   2  -4   6   64.68    2.40
  -3   4  -6  195.73    6.03
   3  -4   6  202.99    5.98
   3  -4   6  184.75    7.55
   3  -4   6  199.55    6.74
   3  -4   6  196.49    6.48
   3  -4   6  200.08    6.75
  -4   4  -6   73.36    2.45
   4  -4   6   73.86    2.36
   4  -4   6   73.97    2.82
   4  -4   6   74.20    2.78
  -5   4  -6    9.38    0.66
   5  -4   6    9.15    0.80
   5  -4   6    9.91    0.84
  -6   4  -6    0.55    0.40
   6  -4   6    0.76    0.61
   6  -4   6   -0.05    0.58
   8   3  -6   28.22    1.32
   8   3  -6   28.62    1.41
  -8  -3   6   28.29    1.15
  -8  -3   6   33.12    1.42
   7   3  -6   23.47    1.23
   7   3  -6   23.72    1.12
  -7  -3   6   24.20    0.99
  -7  -3   6   25.74    1.20
   6   3  -6   15.44    0.88
   6   3  -6   15.16    0.99
  -6  -3   6   15.87    0.72
  -6  -3   6   16.71    0.86
   5   3  -6    0.32    0.13
   5   3  -6    1.01    0.53
   5   3  -6    0.17    0.40
  -5  -3   6    0.61    0.28
  -5  -3   6    0.21    0.32
   4   3  -6    3.17    0.56
   4   3  -6    3.60    0.31
   4   3  -6    3.24    0.52
  -4  -3   6    3.15    0.36
  -4  -3   6    3.58    0.29
   3   3  -6  108.73    3.34
   3   3  -6  109.09    3.78
   3   3  -6  108.28    3.80
   3   3  -6  107.96    3.81
  -3  -3   6  106.84    3.51
  -3  -3   6  108.08    3.39
   2   3  -6   71.88    2.63
   2   3  -6   67.80    2.61
   2   3  -6   73.45    2.31
   2   3  -6   72.20    2.62
  -2  -3   6   75.26    2.34
  -2  -3   6   72.07    2.42
  -2  -3   6   73.04    2.60
   1   3  -6  101.33    3.16
   1   3  -6  101.48    3.55
   1   3  -6   99.77    3.56
  -1  -3   6  101.32    3.57
  -1  -3   6  101.39    3.35
  -1  -3   6  101.15    3.53
   0   3  -6  169.82    5.17
   0   3  -6  170.63    5.78
   0   3  -6  174.60    5.54
   0  -3   6  171.67    5.53
   0  -3   6  166.67    5.18
   0  -3   6  162.81    5.76
  -1   3  -6    6.61    0.47
  -1   3  -6    6.09    0.51
  -1   3  -6    5.98    0.57
   1  -3   6    7.16    0.61
   1  -3   6    5.70    0.46
   1  -3   6    6.16    0.62
   1  -3   6    6.46    0.53
  -2   3  -6   13.91    0.70
   2  -3   6   12.78    1.04
   2  -3   6   14.25    0.81
   2  -3   6   14.70    0.95
   2  -3   6   13.95    0.70
   2  -3   6   14.48    0.91
  -3   3  -6  168.32    5.38
   3  -3   6  179.26    6.06
   3  -3   6  166.80    6.76
   3  -3   6  180.48    5.84
   3  -3   6  181.88    5.34
   3  -3   6  175.08    6.01
  -4   3  -6  174.06    5.42
   4  -3   6  181.45    6.09
   4  -3   6  155.98    6.77
   4  -3   6  180.72    5.89
   4  -3   6  183.27    5.33
   4  -3   6  177.00    6.03
  -5   3  -6   54.69    1.97
   5  -3   6   58.33    2.25
   5  -3   6   57.89    2.32
  -6   3  -6   31.11    1.33
   6  -3   6   32.84    1.53
   6  -3   6   34.72    1.66
   8   2  -6   13.68    0.94
   8   2  -6   12.76    0.85
  -8  -2   6   13.72    0.71
  -8  -2   6   15.65    0.96
   7   2  -6   17.45    0.91
   7   2  -6   15.78    1.02
  -7  -2   6   18.65    0.97
  -7  -2   6   17.13    0.79
   6   2  -6   66.01    2.46
   6   2  -6   62.06    2.34
  -6  -2   6   64.96    2.13
  -6  -2   6   67.87    2.47
   5   2  -6   68.70    2.62
   5   2  -6   69.26    2.57
  -5  -2   6   72.65    2.31
  -5  -2   6   71.69    2.33
  -5  -2   6   72.79    2.64
  -5  -2   6   71.33    2.30
   4   2  -6   17.98    0.84
   4   2  -6   18.52    0.68
   4   2  -6   17.92    0.98
   4   2  -6   17.88    0.97
  -4  -2   6   18.12    0.73
  -4  -2   6   19.64    0.78
  -4  -2   6   17.73    0.77
   3   2  -6   58.34    2.16
   3   2  -6   59.16    1.87
   3   2  -6   60.26    2.20
   3   2  -6   57.89    2.19
  -3  -2   6   62.14    1.93
  -3  -2   6   56.56    1.93
  -3  -2   6   56.65    1.98
   2   2  -6  281.00    9.70
   2   2  -6  292.66    8.68
   2   2  -6  308.64    9.70
  -2  -2   6  289.03    9.68
  -2  -2   6  291.46    8.72
  -2  -2   6  278.40    9.24
   1   2  -6  197.08    6.63
   1   2  -6  197.11    5.94
   1   2  -6  203.49    6.65
  -1  -2   6  195.96    5.96
  -1  -2   6  190.06    6.61
  -1  -2   6  202.39    6.65
  -1  -2   6  187.69    6.32
   0   2  -6  445.59   13.29
   0   2  -6  449.66   14.65
   0  -2   6  433.82   14.03
   0  -2   6  433.87   14.64
   0  -2   6  444.65   13.30
  -1   2  -6  204.76    6.28
  -1   2  -6  198.57    6.98
   1  -2   6  210.66    6.28
   1  -2   6  206.58    7.01
   1  -2   6  214.66    7.02
  -2   2  -6    1.69    0.30
   2  -2   6    0.88    0.29
   2  -2   6    0.75    0.34
   2  -2   6    0.41    0.51
   2  -2   6    0.35    0.45
   2  -2   6    0.87    0.46
  -3   2  -6   36.25    1.33
   3  -2   6   36.20    1.60
   3  -2   6   37.06    1.53
   3  -2   6   37.43    1.30
   3  -2   6   36.18    1.55
   3  -2   6   34.91    1.77
  -4   2  -6   71.49    2.41
   4  -2   6   71.15    2.77
   4  -2   6   75.07    2.69
   4  -2   6   75.22    2.33
   4  -2   6   67.98    3.03
   4  -2   6   73.44    2.71
  -5   2  -6   29.35    1.23
   5  -2   6   32.12    1.48
   5  -2   6   30.11    1.56
   5  -2   6   32.93    1.48
  -6   2  -6   43.31    1.69
   6  -2   6   49.41    2.00
   8   1  -6    6.14    0.56
   8   1  -6    6.80    0.65
  -8  -1   6    7.61    0.70
  -8  -1   6    6.53    0.52
   7   1  -6   20.59    0.96
   7   1  -6   21.07    1.08
  -7  -1   6   20.44    0.85
  -7  -1   6   18.84    1.06
   6   1  -6   98.71    3.52
   6   1  -6   97.99    3.49
  -6  -1   6  102.39    3.15
  -6  -1   6  102.24    3.66
   5   1  -6  152.69    5.34
   5   1  -6  153.32    5.36
  -5  -1   6  155.87    4.80
  -5  -1   6  158.82    5.54
  -5  -1   6  165.17    4.80
   4   1  -6   79.32    2.87
   4   1  -6   80.12    2.44
   4   1  -6   79.12    2.89
   4   1  -6   80.25    2.92
  -4  -1   6   78.18    2.56
  -4  -1   6   85.73    2.55
   3   1  -6    5.77    0.57
   3   1  -6    6.51    0.40
   3   1  -6    6.30    0.52
   3   1  -6    6.59    0.54
  -3  -1   6    8.83    0.45
  -3  -1   6    5.51    0.45
  -3  -1   6    7.11    0.46
   2   1  -6   87.31    2.99
   2   1  -6   84.10    2.60
   2   1  -6   87.63    2.96
  -2  -1   6   84.48    2.65
  -2  -1   6   73.46    2.94
   1   1  -6  147.18    5.03
   1   1  -6  151.36    4.50
   1   1  -6  147.32    5.06
  -1  -1   6  146.94    4.52
  -1  -1   6  145.06    5.01
  -1  -1   6  143.16    4.80
  -1  -1   6  150.86    5.05
   0   1  -6  230.00    7.79
   0   1  -6  235.04    6.99
   0  -1   6  232.67    7.00
   0  -1   6  229.54    7.78
   0  -1   6  230.41    7.47
  -1   1  -6  201.57    6.08
  -1   1  -6  206.78    6.77
   1  -1   6  205.27    6.77
   1  -1   6  193.62    7.56
   1  -1   6  199.15    6.06
   1  -1   6  197.94    6.78
   1  -1   6  195.62    6.52
  -2   1  -6   38.67    1.38
   2  -1   6   37.66    1.51
   2  -1   6   36.20    1.61
   2  -1   6   37.12    1.77
   2  -1   6   39.27    1.36
   2  -1   6   40.38    1.63
  -3   1  -6   24.21    1.02
   3  -1   6   25.91    1.35
   3  -1   6   24.85    1.20
   3  -1   6   24.82    0.97
   3  -1   6   25.22    1.27
   3  -1   6   22.68    1.26
  -4   1  -6   -0.11    0.32
   4  -1   6    0.64    0.30
   4  -1   6    0.38    0.52
   4  -1   6    1.51    0.53
   4  -1   6    0.37    0.52
   4  -1   6    0.56    0.51
   4  -1   6    0.43    0.45
  -5   1  -6    3.53    0.46
   5  -1   6    4.04    0.61
   5  -1   6    3.31    0.64
  -6   1  -6   23.79    1.07
   6  -1   6   22.23    1.26
   6  -1   6   22.73    1.32
   8   0  -6    0.98    0.42
   8   0  -6    0.61    0.45
  -8   0   6   -0.13    0.43
  -8   0   6    1.18    0.32
   7   0  -6    0.56    0.42
   7   0  -6    0.27    0.42
  -7   0   6    0.42    0.42
  -7   0   6    0.06    0.27
   6   0  -6   55.53    2.03
   6   0  -6   55.34    2.03
  -6   0   6   54.50    2.13
  -6   0   6   52.79    1.80
   5   0  -6  182.89    6.43
   5   0  -6  183.56    6.45
  -5   0   6  200.97    5.77
  -5   0   6  190.90    5.80
  -5   0   6  197.09    5.77
   4   0  -6  146.24    4.39
   4   0  -6  148.55    5.05
   4   0  -6  147.07    5.01
   4   0  -6  145.35    5.20
  -4   0   6  146.14    4.51
  -4   0   6  151.65    4.49
   3   0  -6  174.20    5.84
   3   0  -6  173.34    5.18
   3   0  -6  172.12    5.86
   3   0  -6  164.43    6.03
  -3   0   6  169.45    5.25
  -3   0   6  182.17    5.23
   2   0  -6   61.32    1.95
   2   0  -6   63.99    2.27
   2   0  -6   61.23    2.27
  -2   0   6   59.76    2.28
  -2   0   6   62.47    2.02
   1   0  -6    4.11    0.44
   1   0  -6    3.53    0.49
   1   0  -6    3.62    0.31
  -1   0   6    3.50    0.45
  -1   0   6    3.97    0.35
  -1   0   6    4.04    0.41
   0   0  -6   15.15    0.85
   0   0  -6   14.68    0.66
   0   0   6   14.71    0.67
   0   0   6   14.31    0.83
   0   0   6   14.74    0.74
   0   0   6   15.12    0.81
  -1   0  -6  125.58    3.89
  -1   0  -6  125.40    4.35
   1   0   6  123.51    4.83
   1   0   6  122.73    4.34
   1   0   6  123.63    4.19
   1   0   6  125.72    4.34
   1   0   6  125.00    3.88
   1   0   6  130.56    4.37
  -2   0  -6   84.94    2.77
   2   0   6   85.81    3.02
   2   0   6   83.90    3.44
   2   0   6   87.85    3.14
   2   0   6   85.81    2.75
   2   0   6   86.98    3.16
   2   0   6   90.42    3.15
  -3   0  -6   84.09    2.74
   3   0   6   83.73    3.40
   3   0   6   81.22    3.05
   3   0   6   85.49    3.09
   3   0   6   85.66    3.02
   3   0   6   84.96    2.69
  -4   0  -6   31.15    1.29
   4   0   6   33.71    1.25
   4   0   6   33.75    1.52
   4   0   6   32.78    1.52
   4   0   6   35.52    1.55
  -5   0  -6    0.23    0.37
   5   0   6    0.08    0.50
   5   0   6    0.88    0.60
  -6   0  -6   12.83    0.81
   6   0   6   12.43    0.99
   6   0   6   12.49    1.09
   9  -1  -6   26.34    1.21
   9  -1  -6   26.78    1.20
   8  -1  -6   37.39    1.51
   8  -1  -6   36.08    1.51
  -8   1   6   41.11    1.76
  -8   1   6   38.66    1.34
   7  -1  -6   23.39    1.11
   7  -1  -6   24.71    1.09
  -7   1   6   25.99    1.25
  -7   1   6   25.72    0.95
   6  -1  -6    2.06    0.46
   6  -1  -6    1.84    0.40
  -6   1   6    1.77    0.45
  -6   1   6    1.53    0.29
   5  -1  -6   62.06    2.30
   5  -1  -6   62.42    2.26
  -5   1   6   63.67    1.99
  -5   1   6   61.34    2.02
   4  -1  -6   88.75    3.12
   4  -1  -6   88.95    3.17
   4  -1  -6   89.46    2.69
   4  -1  -6   88.94    3.26
  -4   1   6   94.43    2.78
  -4   1   6   85.69    2.81
   3  -1  -6  163.62    5.58
   3  -1  -6  157.02    5.76
   3  -1  -6  166.10    5.55
   3  -1  -6  167.17    4.92
  -3   1   6  165.36    5.00
   2  -1  -6  181.50    6.19
   2  -1  -6  176.15    5.48
   2  -1  -6  191.14    6.17
  -2   1   6  180.14    5.54
   1  -1  -6   23.19    1.09
   1  -1  -6   21.06    0.82
   1  -1  -6   21.09    1.09
  -1   1   6   21.76    1.10
  -1   1   6   21.66    0.88
   0  -1  -6    7.47    0.61
   0  -1  -6    6.62    0.45
   0   1   6    7.72    0.59
   0   1   6    7.10    0.69
   0   1   6    7.86    0.53
  -1  -1  -6   45.93    1.82
  -1  -1  -6   44.48    1.53
   1   1   6   42.96    1.86
   1   1   6   42.97    1.51
   1   1   6   44.53    1.79
   1   1   6   42.11    1.81
   1   1   6   45.96    1.69
  -2  -1  -6   72.04    2.41
   2   1   6   76.06    2.65
   2   1   6   72.09    2.96
   2   1   6   72.94    2.72
   2   1   6   72.83    2.39
   2   1   6   77.45    2.74
  -3  -1  -6  154.50    4.97
   3   1   6  166.02    5.56
   3   1   6  165.07    5.56
   3   1   6  156.07    6.14
   3   1   6  164.86    4.93
   3   1   6  154.67    5.37
  -4  -1  -6   76.72    2.68
   4   1   6   83.18    2.63
   4   1   6   83.20    3.04
   4   1   6   80.57    2.98
  -5  -1  -6    1.92    0.46
   5   1   6    2.74    0.67
   5   1   6    2.13    0.59
   9  -2  -6   17.60    0.91
   9  -2  -6   17.01    0.94
   8  -2  -6   60.66    2.26
   8  -2  -6   62.59    2.29
  -8   2   6   62.75    2.02
  -8   2   6   66.72    2.56
   7  -2  -6   31.55    1.32
   7  -2  -6   30.75    1.29
  -7   2   6   34.20    1.51
  -7   2   6   32.36    1.13
  -7   2   6   30.80    1.51
   6  -2  -6    5.00    0.53
   6  -2  -6    6.08    0.48
  -6   2   6    4.69    0.38
  -6   2   6    4.36    0.54
   5  -2  -6    2.80    0.51
   5  -2  -6    1.96    0.41
  -5   2   6    2.48    0.27
  -5   2   6    2.47    0.32
   4  -2  -6    9.38    0.39
   4  -2  -6    8.78    0.69
   4  -2  -6    9.65    0.67
   4  -2  -6    9.03    0.70
  -4   2   6    9.54    0.55
  -4   2   6   10.39    0.50
   3  -2  -6   76.63    2.71
   3  -2  -6   75.48    2.31
   3  -2  -6   75.25    2.66
   3  -2  -6   70.64    2.77
  -3   2   6   74.23    2.39
   2  -2  -6  202.29    6.11
   2  -2  -6  195.65    6.85
   2  -2  -6  214.52    6.86
  -2   2   6  199.48    6.15
   1  -2  -6  122.68    4.11
   1  -2  -6  112.71    4.11
   1  -2  -6  115.44    3.65
  -1   2   6  118.94    3.68
  -1   2   6  121.68    4.13
   0  -2  -6   45.75    1.57
   0  -2  -6   46.23    1.85
   0   2   6   45.57    1.87
   0   2   6   46.49    1.57
   0   2   6   44.59    1.77
  -1  -2  -6    3.20    0.38
  -1  -2  -6    4.31    0.59
   1   2   6    3.78    0.44
   1   2   6    4.27    0.47
   1   2   6    3.77    0.59
   1   2   6    3.02    0.40
   1   2   6    2.44    0.50
  -2  -2  -6    5.74    0.48
   2   2   6    7.05    0.65
   2   2   6    6.53    0.59
   2   2   6    5.23    0.60
   2   2   6    5.04    0.54
   2   2   6    6.42    0.50
  -3  -2  -6   25.21    1.16
   3   2   6   31.80    1.16
   3   2   6   28.65    1.41
   3   2   6   28.44    1.33
  -4  -2  -6   98.03    3.21
   4   2   6   97.46    3.49
  -5  -2  -6   23.14    1.09
   5   2   6   24.78    1.32
   8  -3  -6   24.44    1.07
   8  -3  -6   23.38    1.11
  -8   3   6   26.04    1.33
  -8   3   6   26.23    1.35
  -8   3   6   25.68    0.94
   7  -3  -6   25.46    1.08
   7  -3  -6   24.83    1.14
  -7   3   6   25.90    1.29
  -7   3   6   26.17    0.95
  -7   3   6   24.89    1.26
   6  -3  -6   30.87    1.21
   6  -3  -6   28.01    1.27
   6  -3  -6   29.46    1.18
  -6   3   6   28.75    1.06
  -6   3   6   29.25    1.34
   5  -3  -6   26.05    1.14
   5  -3  -6   26.24    1.12
   5  -3  -6   23.94    1.21
  -5   3   6   28.52    0.98
  -5   3   6   26.85    1.01
   4  -3  -6   10.18    0.87
   4  -3  -6   11.20    0.75
   4  -3  -6    9.85    0.44
   4  -3  -6   10.78    0.75
  -4   3   6    9.79    0.57
   3  -3  -6    3.14    0.28
   3  -3  -6    3.36    0.47
   3  -3  -6    4.00    0.48
   3  -3  -6    2.99    0.51
  -3   3   6    3.53    0.36
   2  -3  -6  215.76    7.38
   2  -3  -6  213.16    6.55
   2  -3  -6  224.43    7.34
   2  -3  -6  229.06    7.35
  -2   3   6  207.00    6.59
   1  -3  -6  186.55    6.53
   1  -3  -6  212.02    6.56
   1  -3  -6  195.04    5.83
  -1   3   6  195.77    7.12
  -1   3   6  197.28    5.86
  -1   3   6  166.69    6.50
   0  -3  -6  173.87    5.43
   0  -3  -6  178.30    6.10
   0   3   6  180.60    6.63
   0   3   6  185.13    6.07
   0   3   6  170.54    5.43
  -1  -3  -6  121.26    3.93
   1   3   6  128.12    4.78
   1   3   6  121.78    3.93
   1   3   6  132.00    4.44
  -2  -3  -6    1.32    0.36
   2   3   6    0.72    0.34
   2   3   6    1.87    0.45
  -3  -3  -6    0.58    0.35
   3   3   6    1.09    0.39
   3   3   6    0.74    0.46
  -4  -3  -6   14.97    0.88
   4   3   6   16.09    1.03
   8  -4  -6    8.22    0.62
   8  -4  -6    7.54    0.67
   8  -4  -6    7.31    0.61
  -8   4   6    8.61    0.78
  -8   4   6    8.29    0.79
  -8   4   6    7.36    0.47
   7  -4  -6   22.54    1.01
   7  -4  -6   23.36    1.09
  -7   4   6   23.98    0.90
  -7   4   6   23.83    1.21
   6  -4  -6   65.06    2.30
   6  -4  -6   64.56    2.37
  -6   4   6   62.31    2.06
  -6   4   6   63.90    2.56
   5  -4  -6  194.04    6.43
   5  -4  -6  188.82    6.47
  -5   4   6  194.03    7.12
  -5   4   6  186.43    5.78
   4  -4  -6  114.48    3.97
   4  -4  -6  111.81    3.42
   4  -4  -6  113.69    3.90
  -4   4   6  111.22    3.51
   3  -4  -6   13.66    0.82
   3  -4  -6   14.97    0.66
   3  -4  -6   15.81    0.98
  -3   4   6   14.27    0.68
   2  -4  -6   21.16    1.08
   2  -4  -6   19.26    1.14
   2  -4  -6   19.08    0.82
   2  -4  -6   20.06    1.13
  -2   4   6   20.11    0.87
  -2   4   6   20.16    0.80
   1  -4  -6   93.24    3.16
   1  -4  -6   83.79    2.74
   1  -4  -6   79.66    3.08
   1  -4  -6   86.53    3.15
  -1   4   6   90.91    3.22
  -1   4   6   81.75    2.75
   0  -4  -6   50.79    1.75
   0   4   6   51.66    1.76
  -1  -4  -6   63.04    2.20
   1   4   6   68.61    2.23
  -2  -4  -6   22.51    1.02
   2   4   6   24.01    1.04
   2   4   6   23.13    1.16
  -3  -4  -6    0.04    0.38
   3   4   6    1.06    0.51
   3   4   6    1.02    0.42
  -4  -4  -6    0.00    0.41
   4   4   6    0.64    0.53
   8  -5  -6    2.56    0.42
   8  -5  -6    1.40    0.45
  -8   5   6    1.80    0.31
   7  -5  -6    1.16    0.45
   7  -5  -6    1.59    0.42
  -7   5   6    1.23    0.31
   6  -5  -6   19.54    0.96
   6  -5  -6   20.32    1.05
  -6   5   6   18.26    0.82
  -6   5   6   21.52    1.00
   5  -5  -6  101.29    3.50
   5  -5  -6   97.87    3.53
  -5   5   6  100.66    3.78
  -5   5   6   99.59    3.15
   4  -5  -6  109.70    3.87
   4  -5  -6  111.01    3.36
   4  -5  -6  108.59    3.82
  -4   5   6  108.79    3.44
   3  -5  -6   34.89    1.25
   3  -5  -6   36.80    1.51
   3  -5  -6   38.06    1.58
  -3   5   6   34.29    1.31
   2  -5  -6    2.24    0.33
   2  -5  -6    1.44    0.49
   2  -5  -6    1.55    0.52
  -2   5   6    1.16    0.32
   1  -5  -6   -0.91    0.43
   1  -5  -6    0.61    0.47
   1  -5  -6   -0.50    0.29
  -1   5   6   -0.04    0.30
   0  -5  -6    3.37    0.42
   0   5   6    4.44    0.45
  -1  -5  -6   38.90    1.50
   1   5   6   40.45    1.48
  -2  -5  -6   31.24    1.35
   2   5   6   34.04    1.49
   2   5   6   33.40    1.31
  -3  -5  -6   17.95    1.01
   3   5   6   19.83    1.01
   3   5   6   17.69    1.11
   8  -6  -6   16.35    0.99
  -8   6   6   20.05    0.80
   7  -6  -6    6.61    0.58
   7  -6  -6    6.03    0.62
  -7   6   6    7.07    0.53
   6  -6  -6    0.82    0.44
   6  -6  -6   -0.07    0.47
  -6   6   6    0.15    0.30
   5  -6  -6   20.51    1.01
   5  -6  -6   19.05    1.07
  -5   6   6   20.52    0.87
   4  -6  -6   26.81    1.02
   4  -6  -6   29.06    1.34
   4  -6  -6   29.26    1.27
  -4   6   6   27.18    1.09
   3  -6  -6   35.05    1.49
   3  -6  -6   33.64    1.23
  -3   6   6   34.03    1.29
   2  -6  -6   59.41    2.20
   2  -6  -6   55.48    1.89
  -2   6   6   53.05    1.91
   1  -6  -6    8.68    0.58
  -1   6   6    7.61    0.59
   0  -6  -6    1.22    0.39
   0   6   6    1.51    0.39
  -1  -6  -6   18.91    0.97
   1   6   6   18.60    0.93
  -2  -6  -6   49.03    1.89
   2   6   6   50.10    2.03
   2   6   6   52.17    1.88
   7  -7  -6   16.41    1.00
   7  -7  -6   17.45    0.95
  -7   7   6   17.07    0.79
   6  -7  -6    4.92    0.58
   6  -7  -6    4.74    0.62
  -6   7   6    4.05    0.42
   5  -7  -6    0.69    0.46
   5  -7  -6    0.39    0.51
  -5   7   6    0.90    0.34
   4  -7  -6   19.77    1.08
  -4   7   6   18.85    0.89
   3  -7  -6   20.27    1.13
   3  -7  -6   18.78    0.86
  -3   7   6   18.47    0.88
   2  -7  -6   91.00    2.86
  -2   7   6   84.98    2.88
   1  -7  -6   83.74    2.76
  -1   7   6   84.22    2.78
   0  -7  -6   11.58    0.74
   0   7   6   12.61    0.77
  -1  -7  -6    0.19    0.42
   1   7   6    0.04    0.45
   6  -8  -6   21.98    1.14
  -6   8   6   18.91    0.91
   5  -8  -6   17.90    1.06
  -5   8   6   17.19    0.87
   4  -8  -6    1.98    0.59
  -4   8   6    1.39    0.42
   3  -8  -6    2.42    0.43
  -3   8   6    1.92    0.45
   2  -8  -6   28.97    1.20
  -2   8   6   27.86    1.23
   1  -8  -6   57.20    2.07
  -1   8   6   59.37    2.08
   0  -8  -6   21.97    1.09
   0   8   6   20.63    1.10
  -5   9   6   38.10    1.48
  -4   9   6   26.75    1.19
  -3   9   6    6.09    0.61
   2  -9  -6    0.92    0.45
  -2   9   6    0.14    0.46
   1  12  -7   38.41    1.62
  -1 -12   7   38.72    1.61
   0  12  -7    2.15    0.51
   0 -12   7    1.16    0.53
  -1  12  -7    6.70    0.65
   1 -12   7    6.14    0.66
  -2  12  -7   29.73    1.33
   2 -12   7   31.04    1.36
  -3  12  -7   26.42    1.24
   2  11  -7   38.18    1.56
  -2 -11   7   36.98    1.54
   1  11  -7   62.11    2.19
  -1 -11   7   58.00    2.17
   0  11  -7   27.06    1.20
   0 -11   7   26.30    1.24
  -1  11  -7    8.26    0.69
   1 -11   7    7.29    0.64
  -2  11  -7    0.17    0.39
   2 -11   7    0.71    0.44
  -3  11  -7    5.46    0.59
  -4  11  -7   17.27    0.97
  -4 -10   7   10.31    0.78
   3  10  -7    3.21    0.54
  -3 -10   7    2.80    0.51
   2  10  -7    6.35    0.62
  -2 -10   7    5.89    0.62
   1  10  -7   68.73    2.36
  -1 -10   7   65.93    2.35
   0  10  -7   59.53    2.16
   0 -10   7   63.07    2.19
  -1  10  -7   56.12    2.02
   1 -10   7   56.22    2.02
  -2  10  -7   53.45    1.97
   2 -10   7   55.54    1.98
   3 -10   7    3.73    0.51
  -4  10  -7   10.01    0.76
   4 -10   7    9.70    0.96
  -5  10  -7   44.44    1.71
   5 -10   7   41.90    2.03
  -4  -9   7   55.54    2.04
   3   9  -7   32.61    1.31
  -3  -9   7   28.79    1.27
   2   9  -7    1.50    0.43
  -2  -9   7    2.03    0.43
   1   9  -7   24.43    1.05
  -1  -9   7   22.33    1.05
   0   9  -7   49.92    1.81
   0  -9   7   50.09    1.81
   1  -9   7   70.26    2.41
  -2   9  -7  115.57    3.79
   2  -9   7  120.88    3.80
   2  -9   7  118.09    4.28
  -3   9  -7   22.24    1.04
   3  -9   7   21.67    1.31
   3  -9   7   22.80    1.05
  -4   9  -7    0.40    0.41
   4  -9   7    0.37    0.65
  -5   9  -7   10.00    0.77
   5  -9   7    9.19    0.97
  -6   9  -7   18.19    0.99
  -6   9  -7   17.74    1.00
   6  -9   7   19.24    1.47
  -5  -8   7   10.08    0.76
   4   8  -7   52.15    1.82
  -4  -8   7   46.88    1.81
   3   8  -7   48.99    2.06
   3   8  -7   45.09    1.65
  -3  -8   7   43.10    1.68
   2   8  -7   25.31    1.13
   2   8  -7   28.48    1.12
  -2  -8   7   26.01    1.15
   1   8  -7    2.05    0.37
   1   8  -7    2.00    0.40
  -1  -8   7    2.15    0.41
   0   8  -7   19.60    0.92
   0  -8   7   20.20    0.94
  -1   8  -7   23.49    1.05
   1  -8   7   26.16    1.41
   1  -8   7   25.47    1.08
  -2   8  -7  139.46    4.34
   2  -8   7  136.93    4.33
   2  -8   7  134.40    4.85
  -3   8  -7  110.13    3.72
   3  -8   7  116.62    3.72
   3  -8   7  121.86    4.26
  -4   8  -7   24.91    1.14
   4  -8   7   26.79    1.53
  -5   8  -7   13.20    0.84
   5  -8   7   14.52    1.23
  -6   8  -7    0.34    0.43
  -6   8  -7   -0.40    0.42
   6  -8   7    0.17    0.78
   6   7  -7    2.77    0.75
  -6  -7   7    2.08    0.46
   5   7  -7   -0.09    0.64
  -5  -7   7   -0.30    0.37
   4   7  -7   32.78    1.29
   4   7  -7   34.68    1.65
  -4  -7   7   30.85    1.30
   3   7  -7   99.62    3.60
   3   7  -7   99.29    3.16
  -3  -7   7   93.79    3.17
   2   7  -7   96.93    3.49
   2   7  -7   97.29    3.17
   2   7  -7   95.70    3.45
   2   7  -7   89.09    3.03
  -2  -7   7   90.11    3.05
   1   7  -7  192.50    6.84
   1   7  -7  197.99    6.13
   1   7  -7  210.68    6.50
   1   7  -7  196.38    6.87
   1   7  -7  202.15    6.84
  -1  -7   7  192.76    6.14
  -1  -7   7  203.66    6.85
   0   7  -7   34.41    1.59
   0   7  -7   35.09    1.34
   0   7  -7   31.15    1.54
   0  -7   7   34.36    1.32
   0  -7   7   35.92    1.58
   0  -7   7   33.81    1.46
  -1   7  -7   23.87    1.09
   1  -7   7   27.95    1.45
   1  -7   7   26.07    1.10
   1  -7   7   24.18    1.38
  -2   7  -7   58.27    2.03
   2  -7   7   55.89    2.01
   2  -7   7   58.95    2.39
   2  -7   7   58.09    2.35
  -3   7  -7  100.14    3.35
   3  -7   7   97.23    3.75
   3  -7   7  110.34    3.84
   3  -7   7  105.88    3.33
  -4   7  -7   60.06    2.22
   4  -7   7   63.88    2.59
   4  -7   7   67.16    2.19
   4  -7   7   68.06    2.64
  -5   7  -7   62.00    2.23
  -5   7  -7   61.96    2.22
   5  -7   7   66.99    2.61
  -6   7  -7   13.32    0.89
   6  -7   7   12.62    1.07
   6   6  -7   44.14    1.93
  -6  -6   7   41.63    1.59
   5   6  -7    6.50    0.67
   5   6  -7    6.45    0.79
  -5  -6   7    6.54    0.55
   4   6  -7    9.47    0.78
   4   6  -7   11.90    0.71
   4   6  -7   10.85    0.89
  -4  -6   7    9.88    0.63
   3   6  -7  109.97    3.84
   3   6  -7  106.60    3.35
   3   6  -7  102.80    3.76
  -3  -6   7  100.35    3.35
   2   6  -7  127.72    4.17
   2   6  -7  136.15    4.53
   2   6  -7  128.00    3.98
   2   6  -7  124.83    4.37
   2   6  -7  127.38    4.45
  -2  -6   7  124.57    3.98
  -2  -6   7  115.43    4.41
   1   6  -7  182.51    6.26
   1   6  -7  179.17    6.23
   1   6  -7  179.24    5.59
   1   6  -7  183.48    5.92
  -1  -6   7  179.93    5.59
  -1  -6   7  182.69    6.23
   0   6  -7  207.96    6.58
   0   6  -7  203.73    6.93
   0   6  -7  195.88    6.19
   0  -6   7  204.69    6.91
   0  -6   7  195.68    6.87
   0  -6   7  201.69    6.20
  -1   6  -7   20.08    0.90
  -1   6  -7   18.73    1.13
   1  -6   7   19.56    0.93
   1  -6   7   19.17    1.18
   1  -6   7   19.44    1.15
  -2   6  -7   10.68    0.70
   2  -6   7    9.99    0.91
   2  -6   7   12.64    1.09
   2  -6   7    9.24    0.70
  -3   6  -7   16.08    0.84
  -3   6  -7   16.74    0.88
   3  -6   7   20.35    1.22
   3  -6   7   19.71    0.89
   3  -6   7   18.40    1.13
   3  -6   7   15.37    1.26
  -4   6  -7   19.59    0.95
  -4   6  -7   19.29    0.94
   4  -6   7   22.66    0.93
   4  -6   7   19.99    1.30
   4  -6   7   21.07    1.29
  -5   6  -7   56.46    2.10
   5  -6   7   64.66    2.47
   5  -6   7   57.23    2.44
  -6   6  -7   41.18    1.63
   6  -6   7   42.13    1.98
   7   5  -7   32.70    1.52
   7   5  -7   35.47    1.66
  -7  -5   7   32.50    1.33
   6   5  -7   67.43    2.63
   6   5  -7   72.94    2.73
  -6  -5   7   69.14    2.35
   5   5  -7   45.78    1.93
   5   5  -7   45.07    1.84
  -5  -5   7   45.18    1.63
   4   5  -7   11.95    1.01
   4   5  -7   11.39    0.90
   4   5  -7   11.99    0.67
   4   5  -7   11.65    0.64
  -4  -5   7   10.58    0.67
   3   5  -7    0.33    0.21
   3   5  -7    0.90    0.51
   3   5  -7    1.01    0.61
   3   5  -7    0.30    0.31
   3   5  -7    0.15    0.31
  -3  -5   7    0.17    0.31
   2   5  -7    3.04    0.39
   2   5  -7    2.69    0.36
   2   5  -7    2.23    0.30
   2   5  -7    2.41    0.60
   2   5  -7    4.03    0.61
  -2  -5   7    1.68    0.48
  -2  -5   7    2.71    0.36
  -2  -5   7    2.35    0.30
   1   5  -7   83.85    3.11
   1   5  -7   83.94    2.75
   1   5  -7   83.50    2.91
   1   5  -7   85.38    3.11
  -1  -5   7   84.89    2.88
  -1  -5   7   85.67    2.76
  -1  -5   7   86.35    3.12
   0   5  -7  125.79    4.17
   0   5  -7  125.11    4.41
   0   5  -7  125.96    3.92
   0  -5   7  127.02    4.15
   0  -5   7  124.02    4.38
   0  -5   7  126.90    3.92
   0  -5   7  115.19    4.33
  -1   5  -7   88.19    2.91
  -1   5  -7   91.91    3.27
  -1   5  -7   87.98    2.90
   1  -5   7   92.27    3.33
   1  -5   7   90.29    2.91
   1  -5   7   87.72    3.29
   1  -5   7   90.08    3.10
  -2   5  -7   70.01    2.38
  -2   5  -7   69.98    2.37
   2  -5   7   72.66    2.75
   2  -5   7   71.14    2.75
   2  -5   7   70.71    2.54
   2  -5   7   70.70    2.35
  -3   5  -7    2.00    0.42
   3  -5   7    2.75    0.63
   3  -5   7    2.72    0.69
   3  -5   7    1.93    0.66
   3  -5   7    2.74    0.42
  -4   5  -7    6.58    0.55
   4  -5   7    5.55    0.72
   4  -5   7    4.78    0.74
   4  -5   7    5.67    0.47
  -5   5  -7   48.99    1.86
   5  -5   7   52.88    2.19
   5  -5   7   52.19    2.23
  -6   5  -7   67.95    2.43
   6  -5   7   72.00    2.81
   7   4  -7    3.77    0.59
   7   4  -7    5.58    0.73
  -7  -4   7    4.72    0.49
  -7  -4   7    4.51    0.57
   6   4  -7   38.11    1.65
   6   4  -7   42.94    1.77
  -6  -4   7   39.50    1.48
   5   4  -7   35.94    1.56
   5   4  -7   38.21    1.66
  -5  -4   7   37.37    1.38
   4   4  -7  111.07    3.98
   4   4  -7  115.72    3.51
   4   4  -7  111.32    4.03
  -4  -4   7  114.98    3.64
  -4  -4   7  108.70    3.56
   3   4  -7   81.20    2.98
   3   4  -7   82.45    3.05
   3   4  -7   84.23    2.63
   3   4  -7   78.29    2.93
  -3  -4   7   81.94    2.73
  -3  -4   7   82.20    2.66
   2   4  -7   20.27    0.88
   2   4  -7   21.92    1.19
   2   4  -7   18.95    0.95
   2   4  -7   20.61    1.12
  -2  -4   7   19.35    1.13
  -2  -4   7   21.54    0.89
  -2  -4   7   22.13    0.89
   1   4  -7    7.73    0.53
   1   4  -7    8.09    0.53
   1   4  -7    7.11    0.72
   1   4  -7    8.17    0.67
  -1  -4   7    7.39    0.53
  -1  -4   7    7.12    0.53
  -1  -4   7    6.75    0.66
   0   4  -7  255.57    8.68
   0   4  -7  255.83    7.77
   0   4  -7  264.27    8.31
   0  -4   7  257.49    8.66
   0  -4   7  254.50    8.28
   0  -4   7  251.01    7.77
  -1   4  -7  170.40    5.36
  -1   4  -7  174.11    5.98
   1  -4   7  180.81    6.02
   1  -4   7  174.56    6.01
   1  -4   7  169.63    5.74
   1  -4   7  174.59    5.37
  -2   4  -7  189.88    5.99
   2  -4   7  196.07    6.72
   2  -4   7  193.26    6.43
   2  -4   7  194.83    6.68
   2  -4   7  200.22    5.98
  -3   4  -7   75.67    2.63
   3  -4   7   82.01    3.02
   3  -4   7   77.13    3.41
   3  -4   7   78.61    2.88
   3  -4   7   81.45    2.60
   3  -4   7   83.92    3.07
  -4   4  -7    0.72    0.37
   4  -4   7    0.53    0.44
   4  -4   7    0.84    0.59
   4  -4   7    0.32    0.31
   4  -4   7    0.30    0.57
  -5   4  -7    7.94    0.63
   5  -4   7    7.38    0.81
  -6   4  -7   35.28    1.43
   6  -4   7   34.71    1.70
   8   3  -7   14.23    1.08
   8   3  -7   13.57    0.97
  -8  -3   7   14.40    0.80
  -8  -3   7   15.70    0.99
   7   3  -7    0.86    0.49
   7   3  -7    0.53    0.57
  -7  -3   7    0.37    0.35
  -7  -3   7    1.38    0.47
   6   3  -7   23.00    1.21
   6   3  -7   22.40    1.13
  -6  -3   7   23.59    0.97
   5   3  -7   37.34    1.63
   5   3  -7   36.58    1.57
  -5  -3   7   39.25    1.31
  -5  -3   7   37.17    1.38
   4   3  -7   70.35    2.72
   4   3  -7   76.36    2.34
   4   3  -7   73.84    2.68
   4   3  -7   72.02    2.71
  -4  -3   7   73.76    2.44
  -4  -3   7   71.47    2.39
   3   3  -7  265.04    8.67
   3   3  -7  256.72    8.66
   3   3  -7  265.54    7.73
   3   3  -7  235.16    8.85
  -3  -3   7  258.66    7.79
  -3  -3   7  260.90    8.21
   2   3  -7   63.91    2.06
   2   3  -7   62.06    2.40
   2   3  -7   63.67    2.39
  -2  -3   7   58.77    2.34
  -2  -3   7   62.71    2.10
  -2  -3   7   63.30    2.16
   1   3  -7    0.60    0.28
   1   3  -7    1.05    0.48
   1   3  -7    0.52    0.47
  -1  -3   7    0.85    0.28
  -1  -3   7    0.88    0.29
  -1  -3   7    0.43    0.46
   0   3  -7   68.35    2.53
   0   3  -7   67.82    2.21
   0  -3   7   64.52    2.54
   0  -3   7   67.37    2.37
   0  -3   7   65.98    2.23
  -1   3  -7  141.06    4.85
  -1   3  -7  135.94    4.34
   1  -3   7  138.42    4.35
   1  -3   7  136.50    4.66
   1  -3   7  141.93    4.90
   1  -3   7  142.90    4.88
  -2   3  -7  121.98    3.92
   2  -3   7  123.92    4.40
   2  -3   7  122.27    4.98
   2  -3   7  125.47    3.90
   2  -3   7  130.15    4.47
  -3   3  -7  162.18    5.07
   3  -3   7  160.87    6.37
   3  -3   7  163.75    5.70
   3  -3   7  166.11    5.01
   3  -3   7  162.72    5.49
   3  -3   7  160.03    5.63
  -4   3  -7   19.32    0.96
   4  -3   7   21.98    1.23
   4  -3   7   22.39    1.24
   4  -3   7   20.28    0.88
   4  -3   7   20.37    1.12
  -5   3  -7    2.32    0.45
   5  -3   7    2.09    0.58
   5  -3   7    2.89    0.65
  -6   3  -7    1.11    0.44
   6  -3   7    0.65    0.67
   8   2  -7   16.09    1.06
   8   2  -7   15.63    0.99
  -8  -2   7   16.62    0.83
  -8  -2   7   16.25    1.03
   7   2  -7    6.97    0.73
   7   2  -7    7.51    0.66
  -7  -2   7    8.85    0.75
  -7  -2   7    8.51    0.59
   6   2  -7    0.76    0.48
   6   2  -7    0.76    0.51
  -6  -2   7    0.99    0.24
  -6  -2   7    0.91    0.33
   5   2  -7   10.50    0.90
   5   2  -7    9.84    0.81
  -5  -2   7    9.11    0.62
  -5  -2   7   10.57    0.53
   4   2  -7   69.38    2.14
   4   2  -7   65.42    2.52
   4   2  -7   71.69    2.58
   4   2  -7   67.70    2.54
  -4  -2   7   67.67    2.30
  -4  -2   7   65.54    2.23
   3   2  -7  195.19    6.34
   3   2  -7  191.40    5.62
   3   2  -7  178.57    6.47
   3   2  -7  182.36    6.34
  -3  -2   7  181.00    5.68
  -3  -2   7  184.55    5.99
   2   2  -7  250.10    7.48
   2   2  -7  253.23    8.36
   2   2  -7  248.64    8.38
  -2  -2   7  250.48    7.53
  -2  -2   7  246.20    8.36
  -2  -2   7  241.25    7.97
   1   2  -7  136.90    4.68
   1   2  -7  140.25    4.19
   1   2  -7  132.98    4.70
  -1  -2   7  130.62    4.69
  -1  -2   7  132.29    4.46
  -1  -2   7  138.62    4.22
   0   2  -7   49.16    1.99
   0   2  -7   50.45    1.71
   0  -2   7   49.49    1.83
   0  -2   7   49.00    1.72
   0  -2   7   51.35    1.97
  -1   2  -7    1.43    0.32
  -1   2  -7    1.65    0.52
   1  -2   7    1.09    0.36
   1  -2   7    1.51    0.53
   1  -2   7    1.18    0.34
   1  -2   7    0.48    0.46
  -2   2  -7   19.92    0.91
   2  -2   7   22.11    1.36
   2  -2   7   21.81    1.22
   2  -2   7   22.48    1.23
   2  -2   7   20.96    1.07
   2  -2   7   20.26    0.91
  -3   2  -7   88.32    2.96
   3  -2   7   93.43    3.40
   3  -2   7   95.06    3.34
   3  -2   7   92.27    2.91
   3  -2   7   85.90    3.71
   3  -2   7   91.41    3.26
  -4   2  -7   63.48    2.27
   4  -2   7   68.24    2.58
   4  -2   7   68.99    2.21
   4  -2   7   64.70    2.55
  -5   2  -7   28.06    1.25
   5  -2   7   31.97    1.53
   5  -2   7   30.20    1.52
  -6   2  -7   13.85    0.85
   6  -2   7   11.22    1.01
   8   1  -7   21.39    1.17
   8   1  -7   21.05    1.14
  -8  -1   7   22.25    1.22
  -8  -1   7   22.09    0.95
   7   1  -7   46.50    1.92
   7   1  -7   49.30    1.97
  -7  -1   7   49.09    1.72
  -7  -1   7   52.62    2.05
   6   1  -7   86.62    3.08
   6   1  -7   85.44    3.06
  -6  -1   7   82.57    2.73
   5   1  -7   54.69    2.20
   5   1  -7   57.57    2.17
  -5  -1   7   61.39    1.93
  -5  -1   7   54.54    1.92
   4   1  -7    0.00    0.27
   4   1  -7   -0.03    0.18
   4   1  -7    1.24    0.51
   4   1  -7    0.36    0.51
  -4  -1   7    0.40    0.29
   3   1  -7  139.14    4.72
   3   1  -7  136.29    4.68
   3   1  -7  125.93    4.80
   3   1  -7  137.89    4.13
  -3  -1   7  137.50    4.21
   2   1  -7  138.84    4.67
   2   1  -7  131.09    4.69
   2   1  -7  136.01    4.15
  -2  -1   7  135.76    4.20
  -2  -1   7  134.54    4.69
  -2  -1   7  135.27    4.45
   1   1  -7  175.55    6.16
   1   1  -7  184.84    6.15
   1   1  -7  180.80    5.49
  -1  -1   7  175.80    5.87
  -1  -1   7  184.89    6.17
  -1  -1   7  179.15    5.52
   0   1  -7  169.03    5.30
   0   1  -7  182.26    5.97
   0  -1   7  170.97    5.92
   0  -1   7  170.36    5.32
   0  -1   7  174.56    5.70
  -1   1  -7   40.98    1.72
  -1   1  -7   38.80    1.43
   1  -1   7   40.47    1.70
   1  -1   7   40.09    1.43
   1  -1   7   39.53    1.89
   1  -1   7   39.53    1.57
   1  -1   7   41.75    1.69
  -2   1  -7    0.37    0.32
   2  -1   7   -0.03    0.32
   2  -1   7   -0.07    0.55
   2  -1   7    0.70    0.48
   2  -1   7    0.28    0.51
   2  -1   7    0.40    0.37
   2  -1   7    0.15    0.53
  -3   1  -7   47.10    1.72
   3  -1   7   49.97    1.93
   3  -1   7   47.43    1.99
   3  -1   7   47.26    1.98
   3  -1   7   45.87    2.14
   3  -1   7   46.63    1.66
   3  -1   7   49.90    1.99
  -4   1  -7   50.69    1.86
   4  -1   7   52.95    2.16
   4  -1   7   53.95    1.81
   4  -1   7   51.91    2.11
  -5   1  -7   32.48    1.37
   5  -1   7   34.57    1.64
   5  -1   7   33.93    1.59
   8   0  -7   16.30    0.98
   8   0  -7   15.36    0.97
  -8   0   7   17.15    1.08
  -8   0   7   15.17    0.78
   7   0  -7   43.79    1.83
   7   0  -7   45.87    1.82
  -7   0   7   48.67    1.97
  -7   0   7   46.50    1.61
   6   0  -7  140.71    4.90
   6   0  -7  141.91    4.87
  -6   0   7  142.25    4.38
   5   0  -7   82.87    3.06
   5   0  -7   81.16    3.01
  -5   0   7   87.90    2.67
  -5   0   7   80.07    2.69
  -5   0   7   88.75    2.68
   4   0  -7   18.98    1.12
   4   0  -7   18.08    1.03
   4   0  -7   19.04    0.70
  -4   0   7   19.83    0.85
   3   0  -7    3.34    0.43
   3   0  -7    5.35    0.61
   3   0  -7    4.63    0.33
   3   0  -7    3.80    0.53
  -3   0   7    4.24    0.41
   2   0  -7   20.75    1.17
   2   0  -7   20.30    1.05
   2   0  -7   20.38    0.82
  -2   0   7   21.09    0.87
   1   0  -7   32.17    1.46
   1   0  -7   30.41    1.38
   1   0  -7   31.43    1.14
  -1   0   7   31.93    1.18
  -1   0   7   30.34    1.44
   0   0  -7  198.51    6.01
   0   0  -7  199.49    6.72
   0   0   7  192.96    6.44
   0   0   7  191.89    6.01
   0   0   7  203.98    6.70
  -1   0  -7   73.74    2.66
  -1   0  -7   68.92    2.32
   1   0   7   68.30    2.86
   1   0   7   69.17    2.52
   1   0   7   73.66    2.64
   1   0   7   68.40    2.63
   1   0   7   69.84    2.32
   1   0   7   71.19    2.62
  -2   0  -7   10.50    0.67
   2   0   7   12.09    0.81
   2   0   7   11.13    0.81
   2   0   7   10.69    0.85
   2   0   7   10.18    0.66
   2   0   7   11.46    0.88
  -3   0  -7    0.71    0.35
   3   0   7    1.00    0.50
   3   0   7    0.60    0.36
   3   0   7    0.75    0.57
   3   0   7    1.46    0.46
  -4   0  -7   12.40    0.81
   4   0   7   14.92    1.12
   4   0   7   15.38    0.98
  -5   0  -7   16.78    0.95
   5   0   7   19.70    1.19
   8  -1  -7    0.87    0.50
   8  -1  -7    0.50    0.46
  -8   1   7    0.56    0.32
  -8   1   7   -0.21    0.47
   7  -1  -7    2.68    0.48
   7  -1  -7    1.91    0.54
  -7   1   7    2.92    0.37
   6  -1  -7   45.12    1.75
   6  -1  -7   44.04    1.72
  -6   1   7   41.44    1.50
   5  -1  -7   65.34    2.51
   5  -1  -7   67.18    2.49
  -5   1   7   65.77    2.22
  -5   1   7   72.88    2.20
   4  -1  -7   32.53    1.41
   4  -1  -7   29.13    1.44
   4  -1  -7   32.12    1.03
  -4   1   7   28.78    1.15
   3  -1  -7   27.77    1.28
   3  -1  -7   30.50    1.34
   3  -1  -7   29.59    1.03
  -3   1   7   29.30    1.14
   2  -1  -7    4.09    0.54
   2  -1  -7    4.32    0.58
   2  -1  -7    5.52    0.39
  -2   1   7    4.33    0.43
   1  -1  -7    0.90    0.51
   1  -1  -7    1.87    0.51
  -1   1   7    1.15    0.31
  -1   1   7    0.84    0.51
   0  -1  -7  123.83    3.90
   0   1   7  125.37    4.82
   0   1   7  125.13    4.36
   0   1   7  124.93    4.21
   0   1   7  126.93    3.92
  -1  -1  -7  281.46    8.49
   1   1   7  288.37    9.46
   1   1   7  284.74    9.11
   1   1   7  275.02    8.47
   1   1   7  279.55    9.46
   1   1   7  275.39   10.48
  -2  -1  -7   84.41    2.87
   2   1   7   87.12    3.53
   2   1   7   87.63    2.87
   2   1   7   92.59    3.28
   2   1   7   91.71    3.15
  -3  -1  -7   36.71    1.47
   3   1   7   38.35    1.78
   3   1   7   39.08    1.45
   3   1   7   40.30    1.69
   3   1   7   39.38    1.77
  -4  -1  -7    3.57    0.52
   4   1   7    5.28    0.70
  -5  -1  -7    0.62    0.45
   5   1   7    1.36    0.61
   8  -2  -7    8.10    0.68
   8  -2  -7    8.37    0.72
  -8   2   7    7.97    0.80
  -8   2   7    8.74    0.57
   7  -2  -7    5.20    0.56
   7  -2  -7    5.79    0.60
  -7   2   7    4.92    0.42
   6  -2  -7    9.35    0.73
   6  -2  -7    9.32    0.79
  -6   2   7    9.36    0.60
   5  -2  -7   68.16    2.45
   5  -2  -7   65.58    2.49
  -5   2   7   65.84    2.18
   4  -2  -7  109.41    3.83
   4  -2  -7  109.32    3.32
   4  -2  -7  109.18    3.87
  -4   2   7  109.14    3.43
   3  -2  -7  239.08    7.91
   3  -2  -7  234.04    7.04
   3  -2  -7  233.03    7.94
  -3   2   7  232.48    7.12
   2  -2  -7  117.61    3.74
   2  -2  -7  124.71    4.27
   2  -2  -7  123.58    4.24
  -2   2   7  119.01    3.79
   1  -2  -7    2.81    0.35
   1  -2  -7    3.81    0.59
   1  -2  -7    3.38    0.57
  -1   2   7    2.89    0.59
  -1   2   7    4.41    0.51
  -1   2   7    3.27    0.40
   0  -2  -7   15.35    1.02
   0  -2  -7   15.20    0.76
   0   2   7   15.62    1.01
   0   2   7   14.85    0.75
   0   2   7   14.83    0.88
  -1  -2  -7   76.08    2.56
   1   2   7   78.65    3.10
   1   2   7   76.39    2.78
   1   2   7   81.31    2.58
  -2  -2  -7   74.50    2.62
   2   2   7   79.22    3.18
   2   2   7   81.68    2.87
   2   2   7   80.64    2.61
  -3  -2  -7   53.30    1.99
   3   2   7   60.89    2.00
   3   2   7   55.90    2.21
  -4  -2  -7   13.31    0.82
   4   2   7   15.23    1.05
   8  -3  -7   28.87    1.34
   8  -3  -7   30.80    1.31
  -8   3   7   29.87    1.12
  -8   3   7   31.01    1.52
   7  -3  -7   21.36    1.09
   7  -3  -7   20.37    1.03
  -7   3   7   19.90    0.86
  -7   3   7   20.55    1.11
   6  -3  -7    3.60    0.49
   6  -3  -7    2.79    0.54
  -6   3   7    3.07    0.37
   5  -3  -7   18.03    0.98
   5  -3  -7   15.49    1.01
  -5   3   7   16.40    0.77
   4  -3  -7   55.63    2.05
   4  -3  -7   53.51    2.10
   4  -3  -7   53.80    2.06
   4  -3  -7   52.60    1.71
  -4   3   7   51.92    1.81
   3  -3  -7  164.96    5.58
   3  -3  -7  160.25    4.90
   3  -3  -7  166.88    5.54
  -3   3   7  153.15    4.95
   2  -3  -7  177.76    5.58
   2  -3  -7  191.53    6.30
   2  -3  -7  186.84    6.32
  -2   3   7  178.89    5.63
   1  -3  -7   45.95    1.86
   1  -3  -7   45.00    1.91
   1  -3  -7   43.34    1.56
  -1   3   7   44.97    1.59
  -1   3   7   45.78    1.82
   0  -3  -7    4.13    0.44
   0   3   7    3.98    0.42
   0   3   7    3.11    0.41
  -1  -3  -7   -0.13    0.31
   1   3   7    0.17    0.35
   1   3   7    0.18    0.36
   1   3   7    0.14    0.36
  -2  -3  -7    1.06    0.42
   2   3   7    1.54    0.43
   2   3   7    1.73    0.50
  -3  -3  -7   20.38    1.04
   3   3   7   21.93    1.20
   3   3   7   20.71    1.03
   8  -4  -7   38.07    1.54
   8  -4  -7   36.22    1.55
  -8   4   7   37.79    1.32
   7  -4  -7   48.81    1.86
   7  -4  -7   47.44    1.89
   7  -4  -7   50.26    1.86
  -7   4   7   47.10    1.64
  -7   4   7   47.94    2.06
   6  -4  -7   48.93    1.84
   6  -4  -7   46.67    1.90
   6  -4  -7   47.99    1.86
  -6   4   7   47.72    1.64
  -6   4   7   46.39    1.97
   5  -4  -7   16.23    0.94
   5  -4  -7   17.16    1.05
   5  -4  -7   17.57    1.01
  -5   4   7   16.64    0.78
   4  -4  -7    1.21    0.51
   4  -4  -7    1.08    0.46
   4  -4  -7    1.15    0.43
   4  -4  -7    1.21    0.25
  -4   4   7    0.99    0.31
   3  -4  -7   19.39    1.11
   3  -4  -7   19.07    0.80
   3  -4  -7   19.97    1.05
   3  -4  -7   21.30    1.13
  -3   4   7   17.50    0.86
   2  -4  -7   62.86    2.13
   2  -4  -7   61.82    2.47
   2  -4  -7   69.94    2.49
   2  -4  -7   68.23    2.48
  -2   4   7   65.64    2.46
  -2   4   7   62.20    2.18
   1  -4  -7   30.53    1.20
  -1   4   7   33.19    1.30
  -1   4   7   31.17    1.25
   0  -4  -7   38.57    1.45
   0   4   7   38.63    1.46
  -1  -4  -7   18.43    0.95
   1   4   7   19.59    0.92
  -2  -4  -7    0.52    0.42
   2   4   7    0.86    0.46
   2   4   7    0.07    0.41
  -3  -4  -7   11.55    0.85
   3   4   7   11.26    0.84
   3   4   7   11.79    0.95
   8  -5  -7    8.79    0.78
   8  -5  -7    8.09    0.69
   8  -5  -7   10.53    0.76
  -8   5   7    8.68    0.57
   7  -5  -7   22.60    1.12
   7  -5  -7   21.77    1.05
   7  -5  -7   22.06    1.16
  -7   5   7   20.90    0.90
   6  -5  -7   52.70    2.03
   6  -5  -7   50.88    1.95
  -6   5   7   49.55    1.75
   5  -5  -7   41.02    1.69
   5  -5  -7   39.48    1.64
  -5   5   7   38.05    1.42
   4  -5  -7    8.14    0.69
   4  -5  -7    7.33    0.49
   4  -5  -7    7.61    0.73
   4  -5  -7    7.10    0.67
  -4   5   7    8.10    0.59
   3  -5  -7   -0.01    0.27
   3  -5  -7    0.48    0.44
   3  -5  -7   -0.09    0.49
  -3   5   7   -0.03    0.32
   2  -5  -7   29.13    1.35
   2  -5  -7   27.55    1.35
   2  -5  -7   27.10    1.09
  -2   5   7   25.82    1.12
   1  -5  -7   33.36    1.29
  -1   5   7   34.79    1.32
   0  -5  -7   57.22    2.00
   0   5   7   55.73    1.98
  -1  -5  -7   55.61    1.99
   1   5   7   53.98    1.97
  -2  -5  -7    9.36    0.75
   2   5   7   10.68    0.87
   2   5   7    9.88    0.75
   7  -6  -7    3.72    0.54
   7  -6  -7    2.55    0.59
  -7   6   7    3.34    0.41
   6  -6  -7   11.86    0.92
   6  -6  -7   12.83    0.88
  -6   6   7   11.55    0.67
   5  -6  -7   54.20    2.17
   5  -6  -7   55.70    2.11
  -5   6   7   52.05    1.86
   4  -6  -7   29.61    1.36
  -4   6   7   26.89    1.14
   3  -6  -7    9.79    0.80
   3  -6  -7   10.82    0.64
   3  -6  -7   11.95    0.93
  -3   6   7    9.87    0.65
   2  -6  -7    0.09    0.35
  -2   6   7    0.46    0.35
   1  -6  -7    5.38    0.54
  -1   6   7    5.81    0.58
   0  -6  -7   26.76    1.16
   0   6   7   23.98    1.15
  -1  -6  -7   62.08    2.25
   1   6   7   63.61    2.25
   6  -7  -7    0.81    0.51
  -6   7   7    0.84    0.38
   5  -7  -7   27.23    1.31
  -5   7   7   24.87    1.10
   4  -7  -7   62.20    2.38
  -4   7   7   60.36    2.13
   3  -7  -7   62.06    2.08
  -3   7   7   59.80    2.11
   2  -7  -7   34.82    1.36
  -2   7   7   33.96    1.38
   1  -7  -7    5.44    0.58
  -1   7   7    4.28    0.57
   0  -7  -7    1.02    0.45
   0   7   7    1.13    0.50
  -5   8   7    2.59    0.48
  -4   8   7   17.77    0.95
  -3   8   7   30.08    1.30
   2  -8  -7   24.28    1.13
  -2   8   7   25.40    1.18
   0  12  -8    3.73    0.58
   0 -12   8    4.17    0.62
  -1  12  -8   34.13    1.46
   1 -12   8   31.91    1.45
  -2  12  -8   48.30    1.91
   2 -12   8   51.19    1.93
   2  11  -8   49.55    1.89
  -2 -11   8   48.01    1.88
   1  11  -8   25.89    1.18
  -1 -11   8   24.75    1.23
   0  11  -8    0.45    0.43
   0 -11   8    1.25    0.46
  -1  11  -8   10.69    0.78
   1 -11   8   11.85    0.86
  -2  11  -8   37.38    1.56
   2 -11   8   39.28    1.57
  -3  11  -8   29.76    1.30
  -4  11  -8   47.02    1.85
   3  10  -8   14.56    0.93
  -3 -10   8   13.98    0.95
   2  10  -8   36.51    1.47
  -2 -10   8   35.80    1.51
   1  10  -8   57.12    2.05
  -1 -10   8   54.66    2.04
   0  10  -8   11.81    0.79
   0 -10   8   12.63    0.85
  -1  10  -8    3.15    0.52
   1 -10   8    3.51    0.54
  -2  10  -8    6.02    0.61
   2 -10   8    6.00    0.61
  -3  10  -8   18.83    0.99
   3 -10   8   19.84    1.03
  -4  10  -8   40.43    1.61
  -4  -9   8    6.01    0.65
   3   9  -8    0.99    0.46
  -3  -9   8    0.14    0.43
   2   9  -8   15.75    0.87
  -2  -9   8   15.35    0.88
   1   9  -8   92.13    3.06
  -1  -9   8   92.59    3.07
   0   9  -8   83.71    2.82
   0  -9   8   84.08    2.82
  -1   9  -8   45.84    1.73
   1  -9   8   45.71    1.72
  -2   9  -8   18.00    0.98
   2  -9   8   18.38    0.98
  -3   9  -8    2.31    0.46
   3  -9   8    2.75    0.49
  -4   9  -8   28.97    1.30
   4  -9   8   30.68    1.63
  -5   9  -8   55.36    2.07
  -5   9  -8   55.29    2.07
   5  -9   8   56.76    2.48
  -5  -8   8   36.64    1.50
   4   8  -8   60.59    2.08
  -4  -8   8   55.14    2.07
   3   8  -8    7.59    0.62
  -3  -8   8    6.12    0.58
   2   8  -8   18.97    0.97
  -2  -8   8   18.29    0.95
   1   8  -8   75.39    2.45
  -1  -8   8   66.27    2.40
   0   8  -8   86.83    2.93
   0  -8   8   89.94    2.94
  -1   8  -8  130.08    4.16
   1  -8   8  129.64    4.15
  -2   8  -8   85.96    2.93
   2  -8   8   87.75    2.93
   2  -8   8   90.55    3.35
  -3   8  -8    7.01    0.61
   3  -8   8    7.12    0.89
   3  -8   8    7.31    0.63
  -4   8  -8    0.68    0.41
  -4   8  -8    0.25    0.42
   4  -8   8    0.43    0.75
  -5   8  -8   17.69    0.96
  -5   8  -8   13.31    0.91
   5  -8   8   13.78    1.16
   6   7  -8   11.20    1.05
  -6  -7   8   12.00    0.81
   5   7  -8   39.66    1.85
  -5  -7   8   34.19    1.46
   4   7  -8   98.42    3.18
   4   7  -8   99.66    3.19
   4   7  -8  105.56    3.72
  -4  -7   8   89.83    3.20
   3   7  -8   72.46    2.71
   3   7  -8   67.21    2.28
  -3  -7   8   61.96    2.29
   2   7  -8    7.52    0.58
   2   7  -8    8.95    0.63
   2   7  -8    7.36    0.75
   2   7  -8    7.16    0.43
  -2  -7   8    7.08    0.59
   1   7  -8    8.57    0.78
   1   7  -8    8.62    0.65
  -1  -7   8   10.04    0.70
   0   7  -8    4.34    0.48
   0  -7   8    4.35    0.51
  -1   7  -8   21.08    0.99
   1  -7   8   22.40    1.35
   1  -7   8   23.06    1.05
  -2   7  -8  138.73    4.38
   2  -7   8  138.64    4.38
   2  -7   8  135.90    4.92
  -3   7  -8   68.39    2.43
  -3   7  -8   65.70    2.42
   3  -7   8   73.98    2.43
   3  -7   8   74.94    2.82
  -4   7  -8   16.96    0.95
  -4   7  -8   15.98    0.93
   4  -7   8   20.02    1.36
  -5   7  -8    2.12    0.51
   5  -7   8    2.16    0.79
   6   6  -8    0.28    0.64
  -6  -6   8    0.99    0.42
   5   6  -8    4.69    0.77
  -5  -6   8    4.02    0.51
   4   6  -8   66.36    2.60
   4   6  -8   68.59    2.30
   4   6  -8   71.44    2.30
   4   6  -8   70.34    2.72
  -4  -6   8   64.01    2.31
   3   6  -8   82.13    2.93
   3   6  -8   86.08    3.16
   3   6  -8   82.17    2.72
   3   6  -8   83.51    3.09
   3   6  -8   83.79    2.72
  -3  -6   8   78.42    2.73
   2   6  -8  103.04    3.83
   2   6  -8  105.40    3.41
   2   6  -8  112.54    3.91
   2   6  -8  106.59    3.76
   2   6  -8  104.00    3.41
  -2  -6   8  106.25    3.42
   1   6  -8   98.55    3.45
   1   6  -8   91.26    3.00
   1   6  -8   92.47    3.40
   1   6  -8   86.51    2.98
  -1  -6   8   91.35    3.02
   0   6  -8    5.13    0.68
   0   6  -8    6.28    0.54
   0   6  -8    6.46    0.54
   0  -6   8    8.16    0.79
   0  -6   8    5.81    0.51
   0  -6   8    6.43    0.54
  -1   6  -8    3.21    0.44
  -1   6  -8    3.94    0.46
   1  -6   8    4.18    0.68
   1  -6   8    3.78    0.47
   1  -6   8    2.82    0.72
  -2   6  -8   93.59    3.19
  -2   6  -8   96.02    3.19
   2  -6   8  101.52    3.62
   2  -6   8   98.69    3.19
  -3   6  -8  112.85    3.72
   3  -6   8  115.03    4.19
   3  -6   8  117.18    3.70
  -4   6  -8   57.92    2.12
   4  -6   8   60.57    2.49
  -5   6  -8   30.35    1.34
   5  -6   8   30.52    1.66
   7   5  -8   44.45    2.00
  -7  -5   8   43.44    1.66
   6   5  -8   28.18    1.42
   6   5  -8   29.99    1.51
  -6  -5   8   27.97    1.20
   5   5  -8    4.49    0.73
   5   5  -8    5.02    0.66
  -5  -5   8    4.26    0.47
   4   5  -8   20.09    0.90
   4   5  -8   18.99    1.16
   4   5  -8   23.88    1.28
  -4  -5   8   19.65    0.92
   3   5  -8   72.29    2.39
   3   5  -8   69.75    2.62
   3   5  -8   72.71    2.78
   3   5  -8   75.09    2.77
  -3  -5   8   70.02    2.42
  -3  -5   8   72.87    2.45
   2   5  -8   78.09    2.88
   2   5  -8   78.89    2.95
   2   5  -8   84.87    3.02
   2   5  -8   77.37    2.59
   2   5  -8   74.18    2.57
  -2  -5   8   82.10    2.70
  -2  -5   8   74.72    2.60
   1   5  -8  171.12    5.38
   1   5  -8  174.70    6.03
   1   5  -8  178.68    6.06
   1   5  -8  171.05    5.37
  -1  -5   8  179.45    6.03
  -1  -5   8  167.66    5.38
  -1  -5   8  172.67    5.69
   0   5  -8   46.89    2.10
   0   5  -8   50.73    1.75
   0   5  -8   49.77    1.75
   0  -5   8   47.46    1.73
   0  -5   8   46.97    1.81
   0  -5   8   47.47    2.06
  -1   5  -8   -0.25    0.31
   1  -5   8    0.30    0.37
   1  -5   8    1.27    0.55
   1  -5   8    0.48    0.34
   1  -5   8   -0.45    0.65
  -2   5  -8   32.64    1.34
   2  -5   8   31.65    1.41
   2  -5   8   31.75    1.32
   2  -5   8   35.72    1.66
   2  -5   8   34.86    1.60
  -3   5  -8   77.57    2.72
   3  -5   8   85.72    3.14
   3  -5   8   78.97    2.95
   3  -5   8   84.00    2.71
  -4   5  -8   43.16    1.67
   4  -5   8   44.17    1.93
  -5   5  -8   54.25    2.07
   5  -5   8   59.32    2.42
   7   4  -8   30.66    1.43
   7   4  -8   29.32    1.54
  -7  -4   8   28.86    1.24
   6   4  -8   39.49    1.75
   6   4  -8   39.62    1.80
  -6  -4   8   39.84    1.51
   5   4  -8    8.66    0.85
   5   4  -8    9.44    0.80
  -5  -4   8   11.03    0.50
  -5  -4   8   10.53    0.68
   4   4  -8    0.35    0.57
   4   4  -8    0.92    0.55
   4   4  -8    0.12    0.29
   4   4  -8    0.92    0.31
  -4  -4   8    0.29    0.25
  -4  -4   8    0.21    0.33
   3   4  -8    9.35    0.61
   3   4  -8    9.97    0.82
   3   4  -8    7.46    0.78
   3   4  -8    7.32    0.57
  -3  -4   8    9.11    0.56
  -3  -4   8    7.39    0.58
   2   4  -8   44.18    1.85
   2   4  -8   43.39    1.56
   2   4  -8   44.24    1.90
  -2  -4   8   43.78    1.62
  -2  -4   8   42.87    1.60
   1   4  -8  200.50    6.74
   1   4  -8  193.86    6.74
   1   4  -8  194.73    6.01
  -1  -4   8  187.92    6.03
  -1  -4   8  193.40    6.40
  -1  -4   8  206.20    6.76
   0   4  -8  190.08    5.99
   0   4  -8  196.56    6.71
   0  -4   8  197.62    6.02
   0  -4   8  196.05    6.40
   0  -4   8  193.79    6.70
  -1   4  -8   40.87    1.54
  -1   4  -8   43.24    1.85
   1  -4   8   42.64    1.90
   1  -4   8   41.11    1.66
   1  -4   8   41.35    1.55
   1  -4   8   37.33    1.79
  -2   4  -8   23.58    1.06
   2  -4   8   25.33    1.39
   2  -4   8   24.08    1.04
   2  -4   8   25.31    1.37
  -3   4  -8    0.39    0.36
   3  -4   8    0.29    0.35
   3  -4   8    1.30    0.60
   3  -4   8    0.45    0.43
  -4   4  -8   12.41    0.83
   4  -4   8   14.95    0.98
   4  -4   8   16.97    1.19
  -5   4  -8   45.81    1.78
   5  -4   8   47.81    2.09
   7   3  -8    9.30    0.86
   7   3  -8   10.75    0.93
  -7  -3   8   10.36    0.70
   6   3  -8   39.36    1.74
   6   3  -8   42.61    1.82
  -6  -3   8   41.91    1.53
   5   3  -8   82.21    3.06
   5   3  -8   79.79    3.02
  -5  -3   8   80.79    2.70
  -5  -3   8   84.39    2.73
   4   3  -8  101.28    3.68
   4   3  -8   94.29    3.67
   4   3  -8  105.50    3.71
   4   3  -8  105.37    3.20
  -4  -3   8   99.88    3.28
  -4  -3   8  105.09    3.39
   3   3  -8   40.53    1.73
   3   3  -8   38.15    1.39
   3   3  -8   36.24    1.58
   3   3  -8   39.65    1.74
  -3  -3   8   38.09    1.44
  -3  -3   8   39.37    1.46
   2   3  -8    0.79    0.29
   2   3  -8    1.03    0.52
   2   3  -8    0.62    0.58
  -2  -3   8    0.43    0.30
  -2  -3   8    0.48    0.32
   1   3  -8  114.73    4.00
   1   3  -8  112.67    3.99
   1   3  -8  109.95    3.52
  -1  -3   8  110.92    3.55
  -1  -3   8  113.11    3.99
  -1  -3   8  107.53    3.74
   0   3  -8  210.73    7.15
   0   3  -8  206.15    6.39
   0  -3   8  211.55    7.15
   0  -3   8  202.84    6.81
   0  -3   8  211.95    6.41
  -1   3  -8  132.23    4.30
  -1   3  -8  144.60    4.84
   1  -3   8  141.09    4.85
   1  -3   8  132.92    4.61
   1  -3   8  133.84    4.29
   1  -3   8  135.89    4.84
  -2   3  -8   84.79    2.84
   2  -3   8   88.30    3.21
   2  -3   8   90.93    3.29
   2  -3   8   87.82    2.82
   2  -3   8   79.85    3.62
  -3   3  -8   28.87    1.28
   3  -3   8   34.12    1.61
   3  -3   8   32.78    1.51
   3  -3   8   35.07    1.29
  -4   3  -8    1.57    0.41
   4  -3   8    0.70    0.64
   4  -3   8    0.93    0.51
  -5   3  -8   15.51    0.93
   5  -3   8   16.22    1.14
   5  -3   8   15.57    1.22
   8   2  -8    8.77    0.83
   8   2  -8    7.45    0.75
  -8  -2   8    7.02    0.59
   7   2  -8    4.65    0.72
   7   2  -8    4.42    0.64
  -7  -2   8    4.83    0.50
   6   2  -8   48.15    2.00
   6   2  -8   47.06    1.96
  -6  -2   8   45.76    1.71
  -6  -2   8   52.29    1.72
   5   2  -8   79.00    2.94
   5   2  -8   83.24    2.95
  -5  -2   8   73.15    2.60
  -5  -2   8   80.99    2.68
   4   2  -8  206.57    7.47
   4   2  -8  222.16    6.44
   4   2  -8  210.30    7.29
   4   2  -8  221.63    7.30
  -4  -2   8  207.28    6.54
  -4  -2   8  213.40    6.89
   3   2  -8  131.67    5.20
   3   2  -8  152.90    5.13
   3   2  -8  144.59    5.12
   3   2  -8  152.14    4.52
  -3  -2   8  146.85    4.59
  -3  -2   8  153.04    4.83
   2   2  -8   30.63    1.42
   2   2  -8   32.59    1.19
   2   2  -8   31.33    1.51
  -2  -2   8   30.12    1.21
  -2  -2   8   31.29    1.26
   1   2  -8    6.14    0.64
   1   2  -8    5.59    0.46
   1   2  -8    5.91    0.68
  -1  -2   8    4.71    0.46
  -1  -2   8    4.57    0.46
  -1  -2   8    6.32    0.72
   0   2  -8   44.57    1.60
   0   2  -8   45.78    1.91
   0  -2   8   45.72    1.95
   0  -2   8   44.35    1.72
   0  -2   8   44.97    1.63
  -1   2  -8   23.35    0.99
   1  -2   8   22.56    0.99
   1  -2   8   23.41    1.29
   1  -2   8   21.45    1.05
   1  -2   8   21.40    1.24
  -2   2  -8   85.38    2.79
   2  -2   8   81.51    3.49
   2  -2   8   80.65    2.73
   2  -2   8   84.10    3.03
   2  -2   8   89.77    3.17
  -3   2  -8   57.65    2.09
   3  -2   8   58.92    2.04
   3  -2   8   58.93    2.32
   3  -2   8   61.95    2.41
  -4   2  -8    5.87    0.59
   4  -2   8    7.10    0.80
   4  -2   8    7.27    0.74
  -5   2  -8   -0.28    0.39
   5  -2   8    0.66    0.57
   8   1  -8   21.34    1.21
   8   1  -8   21.70    1.20
  -8  -1   8   21.55    1.00
   7   1  -8   12.57    0.92
   7   1  -8   10.90    0.91
  -7  -1   8   10.51    0.69
   6   1  -8    1.03    0.55
   6   1  -8    1.31    0.55
  -6  -1   8    1.41    0.38
   5   1  -8    3.90    0.64
   5   1  -8    4.08    0.59
  -5  -1   8    4.95    0.47
   4   1  -8   47.95    1.92
   4   1  -8   46.36    1.54
   4   1  -8   45.27    1.94
  -4  -1   8   47.86    1.67
   3   1  -8  127.76    4.53
   3   1  -8  128.58    3.95
   3   1  -8  129.68    4.50
  -3  -1   8  126.32    4.03
   2   1  -8   31.28    1.48
   2   1  -8   30.64    1.53
   2   1  -8   31.66    1.15
  -2  -1   8   31.31    1.21
  -2  -1   8   31.56    1.27
   1   1  -8   53.51    2.11
   1   1  -8   52.66    2.11
   1   1  -8   51.40    1.78
  -1  -1   8   53.00    2.14
  -1  -1   8   50.96    1.93
  -1  -1   8   52.40    1.84
   0   1  -8    7.24    0.54
   0   1  -8    6.93    0.75
   0  -1   8    8.19    0.72
   0  -1   8    6.04    0.66
   0  -1   8    7.16    0.57
  -1   1  -8    4.75    0.47
   1  -1   8    5.56    0.55
   1  -1   8    5.12    0.68
   1  -1   8    5.40    0.65
   1  -1   8    5.41    0.51
   1  -1   8    5.39    0.71
   1  -1   8    6.35    0.68
  -2   1  -8   48.05    1.76
   2  -1   8   48.38    1.73
   2  -1   8   50.17    1.93
   2  -1   8   49.10    2.00
   2  -1   8   48.23    2.22
  -3   1  -8  124.57    4.15
   3  -1   8  134.74    4.12
   3  -1   8  133.12    4.66
   3  -1   8  129.10    4.53
  -4   1  -8   40.13    1.59
   4  -1   8   43.77    1.88
  -5   1  -8   13.92    0.90
   5  -1   8   15.97    1.15
   8   0  -8   18.73    1.10
   8   0  -8   17.78    1.16
  -8   0   8   19.98    0.91
   7   0  -8   26.14    1.26
   7   0  -8   24.65    1.28
  -7   0   8   25.52    1.06
   6   0  -8   25.33    1.30
   6   0  -8   25.84    1.26
  -6   0   8   25.34    1.07
   5   0  -8    7.66    0.75
   5   0  -8    8.41    0.70
  -5   0   8    8.51    0.59
   4   0  -8    0.28    0.51
   4   0  -8    0.73    0.55
   4   0  -8    0.85    0.24
  -4   0   8    0.52    0.31
   3   0  -8  108.14    3.85
   3   0  -8  109.86    3.38
   3   0  -8  109.71    3.89
  -3   0   8  107.00    3.46
   2   0  -8  174.32    5.33
   2   0  -8  181.14    6.01
   2   0  -8  173.54    6.03
  -2   0   8  168.10    5.38
   1   0  -8   98.90    3.10
   1   0  -8  107.68    3.56
   1   0  -8   99.51    3.57
  -1   0   8   98.70    3.34
  -1   0   8   81.33    3.48
  -1   0   8   99.18    3.14
   0   0  -8   92.27    3.41
   0   0  -8   92.85    3.00
   0   0   8   93.44    3.37
   0   0   8   91.30    3.01
   0   0   8   96.75    3.26
  -1   0  -8    5.30    0.50
   1   0   8    8.09    0.64
   1   0   8    6.43    0.68
   1   0   8    6.23    0.55
   1   0   8    5.63    0.69
  -2   0  -8   20.11    1.00
   2   0   8   22.55    1.15
   2   0   8   22.22    1.00
   2   0   8   22.02    1.23
  -3   0  -8   69.14    2.49
   3   0   8   76.20    2.78
   3   0   8   74.23    2.46
  -4   0  -8   40.74    1.64
   4   0   8   44.06    1.90
   8  -1  -8   11.74    0.97
   8  -1  -8   13.67    0.92
  -8   1   8   11.90    0.71
   7  -1  -8   28.32    1.35
   7  -1  -8   29.74    1.39
  -7   1   8   29.44    1.16
   6  -1  -8   56.60    2.19
   6  -1  -8   56.51    2.17
  -6   1   8   53.85    1.90
   5  -1  -8   28.64    1.33
   5  -1  -8   28.53    1.36
  -5   1   8   28.40    1.13
   4  -1  -8    0.81    0.56
   4  -1  -8    0.83    0.24
   4  -1  -8    0.82    0.50
  -4   1   8    0.10    0.33
   3  -1  -8   15.56    1.08
   3  -1  -8   16.20    0.72
   3  -1  -8   17.13    1.12
  -3   1   8   15.01    0.81
   2  -1  -8   97.25    3.53
   2  -1  -8   95.01    3.07
   2  -1  -8  100.80    3.55
  -2   1   8   96.78    3.14
   1  -1  -8  215.53    6.77
   1  -1  -8  225.57    7.62
   1  -1  -8  234.52    7.59
  -1   1   8  215.53    6.80
   0  -1  -8  123.82    4.02
   0   1   8  126.99    4.04
   0   1   8  128.15    4.96
   0   1   8  133.94    4.36
  -1  -1  -8   27.64    1.13
   1   1   8   25.81    1.22
   1   1   8   25.54    1.09
   1   1   8   27.76    1.36
  -2  -1  -8    6.70    0.58
   2   1   8    6.89    0.69
   2   1   8    7.32    0.58
   2   1   8    7.89    0.72
  -3  -1  -8    0.03    0.41
   3   1   8    0.20    0.47
   3   1   8   -0.02    0.41
  -4  -1  -8    3.37    0.51
   4   1   8    2.09    0.64
   8  -2  -8    1.29    0.52
   8  -2  -8   -0.06    0.53
  -8   2   8    1.80    0.38
   7  -2  -8   14.33    0.94
   7  -2  -8   13.84    0.98
  -7   2   8   15.65    0.77
   6  -2  -8   81.11    3.00
   6  -2  -8   84.10    2.96
  -6   2   8   77.22    2.63
   5  -2  -8   88.91    3.29
   5  -2  -8   93.41    3.23
  -5   2   8   86.33    2.89
   4  -2  -8   73.83    2.78
   4  -2  -8   75.19    2.74
   4  -2  -8   74.19    2.32
  -4   2   8   71.84    2.43
   3  -2  -8    9.92    0.86
   3  -2  -8   10.68    0.60
   3  -2  -8   11.04    0.96
  -3   2   8   10.67    0.64
   2  -2  -8    1.44    0.31
   2  -2  -8    1.93    0.52
   2  -2  -8    0.97    0.57
  -2   2   8    1.77    0.38
   1  -2  -8    7.71    0.54
   1  -2  -8    7.89    0.70
  -1   2   8    7.71    0.74
  -1   2   8    7.82    0.58
   0  -2  -8  107.57    3.56
   0   2   8  118.82    3.88
   0   2   8  111.79    3.58
   0   2   8  111.32    4.34
  -1  -2  -8   44.91    1.65
   1   2   8   44.12    1.91
   1   2   8   44.02    1.64
   1   2   8   44.33    1.80
  -2  -2  -8   20.51    1.02
   2   2   8   20.60    1.16
   2   2   8   20.07    1.00
   2   2   8   21.30    1.12
  -3  -2  -8   14.42    0.87
   3   2   8   15.11    1.06
   3   2   8   17.35    0.93
   8  -3  -8    7.86    0.69
   8  -3  -8    7.47    0.73
  -8   3   8    7.77    0.60
   7  -3  -8    0.87    0.53
   7  -3  -8    1.27    0.49
  -7   3   8    0.58    0.45
  -7   3   8    1.18    0.35
   6  -3  -8   30.40    1.48
   6  -3  -8   32.66    1.46
  -6   3   8   31.71    1.24
   5  -3  -8   74.54    2.70
   5  -3  -8   71.41    2.73
  -5   3   8   71.45    2.39
   4  -3  -8   71.53    2.29
   4  -3  -8   69.52    2.72
   4  -3  -8   76.16    2.72
  -4   3   8   71.83    2.40
   3  -3  -8   89.08    3.15
   3  -3  -8   85.85    2.74
   3  -3  -8   86.55    3.16
  -3   3   8   83.09    2.80
   2  -3  -8   13.22    0.68
   2  -3  -8   14.27    0.98
  -2   3   8   13.91    0.81
  -2   3   8   13.85    0.73
   1  -3  -8    0.49    0.33
  -1   3   8    0.71    0.34
  -1   3   8    1.47    0.35
   0  -3  -8   15.44    0.85
   0   3   8   16.16    0.87
   0   3   8   17.62    0.92
  -1  -3  -8   42.31    1.60
   1   3   8   44.23    1.79
   1   3   8   41.56    1.59
  -2  -3  -8   26.38    1.18
   2   3   8   25.42    1.19
   2   3   8   28.21    1.34
  -3  -3  -8   33.09    1.39
   3   3   8   31.39    1.38
   3   3   8   32.37    1.58
   8  -4  -8   26.72    1.30
   8  -4  -8   24.53    1.30
  -8   4   8   26.81    1.06
   7  -4  -8    8.20    0.76
   7  -4  -8   10.93    0.87
  -7   4   8    8.54    0.61
   6  -4  -8    0.00    0.53
   6  -4  -8   -0.02    0.48
  -6   4   8    0.16    0.33
   5  -4  -8   15.45    1.03
  -5   4   8   15.39    0.81
   4  -4  -8   18.71    1.15
   4  -4  -8   19.71    1.14
   4  -4  -8   18.04    0.78
  -4   4   8   17.41    0.84
   3  -4  -8   40.71    1.74
   3  -4  -8   40.65    1.44
  -3   4   8   39.98    1.51
   2  -4  -8   37.86    1.36
  -2   4   8   35.00    1.40
   1  -4  -8   12.67    0.75
  -1   4   8   12.21    0.74
   0  -4  -8    0.12    0.39
   0   4   8    0.61    0.42
  -1  -4  -8   13.15    0.81
   1   4   8   12.41    0.79
   1   4   8   13.10    0.91
  -2  -4  -8   18.91    1.06
   2   4   8   19.54    1.19
   2   4   8   19.80    1.04
   7  -5  -8    9.52    0.81
   7  -5  -8    9.59    0.78
  -7   5   8   10.42    0.65
   6  -5  -8    2.42    0.59
   6  -5  -8    2.48    0.54
   6  -5  -8    2.62    0.59
  -6   5   8    2.43    0.40
   5  -5  -8    0.83    0.51
   5  -5  -8    1.28    0.58
  -5   5   8    0.26    0.35
   4  -5  -8    0.92    0.55
   4  -5  -8    0.22    0.56
  -4   5   8    0.32    0.37
   3  -5  -8   42.26    1.50
  -3   5   8   40.23    1.53
   2  -5  -8   75.25    2.49
  -2   5   8   74.49    2.54
   1  -5  -8   55.14    1.94
  -1   5   8   54.85    1.97
   0  -5  -8   36.50    1.49
   0   5   8   38.03    1.51
  -1  -5  -8    3.37    0.57
   1   5   8    3.80    0.63
   1   5   8    3.04    0.53
   6  -6  -8   33.44    1.50
   6  -6  -8   31.13    1.51
  -6   6   8   30.05    1.25
   5  -6  -8   22.10    1.20
   5  -6  -8   21.60    1.28
  -5   6   8   19.55    0.98
   4  -6  -8    9.06    0.83
   4  -6  -8    8.94    0.81
  -4   6   8    7.55    0.63
   3  -6  -8    2.82    0.45
  -3   6   8    2.59    0.49
   2  -6  -8   44.17    1.66
  -2   6   8   45.04    1.71
   1  -6  -8   40.16    1.51
  -1   6   8   37.37    1.53
   0  -6  -8   29.77    1.30
   0   6   8   31.12    1.33
  -5   7   8   44.87    1.69
  -4   7   8   21.99    1.07
  -3   7   8    3.66    0.55
   2  -7  -8    1.93    0.48
  -2   7   8    1.63    0.52
   2  11  -9    5.81    0.68
  -2 -11   9    5.11    0.65
   1  11  -9    1.11    0.49
  -1 -11   9    0.67    0.50
   0  11  -9    7.92    0.73
   0 -11   9    8.24    0.74
  -1  11  -9   62.41    2.29
   1 -11   9   62.19    2.26
  -2  11  -9   56.00    2.12
   2 -11   9   56.01    2.09
  -3  11  -9   13.68    0.94
   3  10  -9   34.15    1.45
  -3 -10   9   32.22    1.45
   2  10  -9   36.50    1.54
  -2 -10   9   36.80    1.55
   1  10  -9   11.92    0.87
  -1 -10   9   10.97    0.80
   0  10  -9    5.12    0.62
   0 -10   9    5.38    0.62
  -1  10  -9   48.05    1.87
   1 -10   9   51.07    1.90
  -2  10  -9   63.07    2.35
   2 -10   9   67.63    2.35
  -3  10  -9   40.14    1.64
  -4  10  -9   28.60    1.34
  -4  -9   9   12.71    0.91
   3   9  -9   38.72    1.52
  -3  -9   9   34.63    1.50
   2   9  -9   83.55    2.81
  -2  -9   9   81.71    2.83
   1   9  -9   34.78    1.41
  -1  -9   9   32.81    1.40
   0   9  -9    7.91    0.68
   0  -9   9    6.59    0.66
  -1   9  -9    2.19    0.51
   1  -9   9    2.18    0.47
  -2   9  -9   14.68    0.91
   2  -9   9   15.00    0.88
  -3   9  -9   20.95    1.05
   3  -9   9   20.33    1.08
  -4   9  -9   50.27    1.93
  -4   9  -9   49.73    1.92
  -5  -8   9    2.39    0.51
  -4  -8   9   -0.15    0.42
   3   8  -9    0.54    0.40
  -3  -8   9    1.67    0.47
   2   8  -9   61.16    2.15
  -2  -8   9   61.04    2.17
   1   8  -9  138.50    4.37
  -1  -8   9  134.77    4.37
   0   8  -9   54.55    1.96
   0  -8   9   53.85    1.99
  -1   8  -9   43.20    1.69
   1  -8   9   44.78    1.68
  -2   8  -9    4.73    0.55
  -2   8  -9    5.93    0.60
   2  -8   9    5.30    0.60
  -3   8  -9    3.42    0.52
  -3   8  -9    2.87    0.50
   3  -8   9    4.24    0.58
  -4   8  -9   36.76    1.53
  -4   8  -9   35.25    1.52
  -5  -7   9   62.02    2.24
   4   7  -9   32.95    1.74
   4   7  -9   34.83    1.37
   4   7  -9   34.90    1.37
  -4  -7   9   32.03    1.39
   3   7  -9    0.12    0.40
   3   7  -9    0.70    0.40
  -3  -7   9   -0.05    0.39
   2   7  -9    5.88    0.58
   2   7  -9    5.78    0.57
  -2  -7   9    6.97    0.61
   1   7  -9   70.87    2.39
   1   7  -9   69.81    2.40
  -1  -7   9   68.50    2.41
   0   7  -9   89.60    2.95
   0   7  -9   88.76    2.95
   0  -7   9   87.55    2.95
  -1   7  -9   87.07    2.95
  -1   7  -9   86.79    2.95
   1  -7   9   91.55    2.98
  -2   7  -9   40.63    1.60
  -2   7  -9   41.31    1.60
   2  -7   9   39.59    1.56
  -3   7  -9    0.76    0.41
   3  -7   9   -0.13    0.42
  -4   7  -9   11.93    0.86
  -5   7  -9   26.41    1.28
   6   6  -9   17.03    1.29
  -6  -6   9   16.61    0.94
   5   6  -9   37.20    1.79
  -5  -6   9   34.36    1.42
   4   6  -9   64.50    2.58
   4   6  -9   65.36    2.21
  -4  -6   9   62.37    2.23
   3   6  -9   21.55    1.37
   3   6  -9   21.30    1.00
   3   6  -9   21.53    0.97
  -3  -6   9   21.56    1.00
   2   6  -9   -0.33    0.34
   2   6  -9    0.22    0.34
   2   6  -9    1.07    0.58
   2   6  -9    0.26    0.33
  -2  -6   9    0.32    0.36
  -2  -6   9   -0.17    0.31
   1   6  -9    4.65    0.51
   1   6  -9    5.52    0.53
  -1  -6   9    5.98    0.53
  -1  -6   9    5.23    0.55
   0   6  -9   22.82    1.06
   0   6  -9   24.62    1.08
   0  -6   9   24.29    1.10
   0  -6   9   24.57    1.12
  -1   6  -9   91.64    3.08
   1  -6   9   96.15    3.28
   1  -6   9   91.66    3.09
  -2   6  -9  107.63    3.61
   2  -6   9  114.25    3.60
   2  -6   9  109.69    3.85
  -3   6  -9   25.83    1.21
   3  -6   9   27.12    1.20
  -4   6  -9    4.76    0.61
  -5   6  -9    1.60    0.52
   6   5  -9    0.50    0.67
  -6  -5   9    0.69    0.41
   5   5  -9   12.62    1.03
  -5  -5   9   12.66    0.79
   4   5  -9   73.08    2.37
   4   5  -9   73.04    2.81
   4   5  -9   69.56    2.60
  -4  -5   9   64.44    2.39
  -4  -5   9   71.16    2.40
   3   5  -9   69.70    2.78
   3   5  -9   71.67    2.44
   3   5  -9   76.86    2.88
   3   5  -9   71.13    2.70
  -3  -5   9   73.54    2.53
  -3  -5   9   74.85    2.50
   2   5  -9   65.45    2.77
   2   5  -9   74.84    2.44
  -2  -5   9   76.47    2.55
  -2  -5   9   71.09    2.46
   1   5  -9   25.53    1.35
   1   5  -9   24.19    1.08
  -1  -5   9   26.06    1.15
  -1  -5   9   26.21    1.15
   0   5  -9    0.46    0.36
   0  -5   9    0.58    0.38
   0  -5   9    0.34    0.36
  -1   5  -9   65.63    2.29
   1  -5   9   65.13    2.29
   1  -5   9   68.91    2.47
  -2   5  -9  154.44    5.09
   2  -5   9  169.88    5.74
   2  -5   9  155.99    5.06
   2  -5   9  166.79    5.49
  -3   5  -9   64.99    2.34
   3  -5   9   66.93    2.56
   3  -5   9   68.03    2.31
  -4   5  -9   35.20    1.47
  -5   5  -9   14.73    0.97
   7   4  -9   19.90    1.32
  -7  -4   9   24.00    1.10
   6   4  -9    8.25    0.86
   6   4  -9    7.68    0.80
  -6  -4   9    7.61    0.63
   5   4  -9    2.22    0.68
   5   4  -9    1.02    0.59
  -5  -4   9    1.31    0.42
  -5  -4   9    1.40    0.31
   4   4  -9   91.09    3.46
   4   4  -9  100.55    3.56
   4   4  -9   96.14    3.04
   4   4  -9   96.58    3.51
  -4  -4   9   95.98    3.20
  -4  -4   9   89.61    3.11
   3   4  -9  143.52    5.08
   3   4  -9  135.97    5.11
   3   4  -9  153.72    5.12
   3   4  -9  148.94    4.50
  -3  -4   9  138.28    4.53
  -3  -4   9  142.28    4.75
   2   4  -9  157.33    5.35
   2   4  -9  150.11    5.33
   2   4  -9  152.64    4.72
  -2  -4   9  151.36    5.01
  -2  -4   9  144.50    4.76
   1   4  -9  117.63    4.29
   1   4  -9  124.43    4.31
   1   4  -9  119.22    3.81
  -1  -4   9  118.17    4.04
  -1  -4   9  116.47    3.82
   0   4  -9   24.55    1.09
   0  -4   9   24.07    1.11
   0  -4   9   23.92    1.12
  -1   4  -9    0.67    0.40
   1  -4   9    0.28    0.37
   1  -4   9    0.19    0.40
   1  -4   9    0.14    0.57
  -2   4  -9   45.33    1.76
   2  -4   9   47.89    1.75
   2  -4   9   46.92    2.02
  -3   4  -9   37.69    1.54
   3  -4   9   40.55    1.73
   3  -4   9   39.75    1.52
  -4   4  -9   27.10    1.26
   4  -4   9   27.32    1.42
  -5   4  -9   28.25    1.32
   7   3  -9   59.27    2.42
   7   3  -9   58.17    2.36
  -7  -3   9   56.33    2.05
   6   3  -9   39.70    1.80
   6   3  -9   42.96    1.86
  -6  -3   9   40.40    1.57
   5   3  -9    7.48    0.80
   5   3  -9    7.53    0.77
  -5  -3   9    7.27    0.62
  -5  -3   9    7.08    0.53
   4   3  -9    4.46    0.43
   4   3  -9    3.24    0.66
   4   3  -9    2.75    0.65
  -4  -3   9    4.38    0.44
  -4  -3   9    3.25    0.47
   3   3  -9   20.79    0.91
   3   3  -9   19.93    1.24
   3   3  -9   19.06    1.16
   3   3  -9   17.64    1.04
  -3  -3   9   21.09    0.93
  -3  -3   9   19.29    0.93
   2   3  -9   44.53    1.91
   2   3  -9   43.44    1.87
   2   3  -9   42.28    1.56
  -2  -3   9   41.37    1.59
  -2  -3   9   42.09    1.64
   1   3  -9  121.49    4.32
   1   3  -9  119.58    3.81
   1   3  -9  121.38    4.36
  -1  -3   9  118.56    4.06
  -1  -3   9  118.78    3.85
   0   3  -9   60.13    2.06
   0  -3   9   57.72    2.06
   0  -3   9   58.05    2.19
  -1   3  -9   36.13    1.41
   1  -3   9   35.24    1.52
   1  -3   9   34.23    1.38
  -2   3  -9    7.16    0.61
   2  -3   9    6.88    0.68
   2  -3   9    7.39    0.59
  -3   3  -9    4.38    0.55
   3  -3   9    4.74    0.67
   3  -3   9    5.13    0.55
  -4   3  -9   22.37    1.14
   4  -3   9   24.45    1.36
   7   2  -9   30.69    1.55
   7   2  -9   31.65    1.56
  -7  -2   9   31.18    1.28
   6   2  -9   63.54    2.50
   6   2  -9   62.60    2.49
  -6  -2   9   65.14    2.19
  -6  -2   9   57.80    2.16
   5   2  -9   60.36    2.28
   5   2  -9   54.32    2.25
  -5  -2   9   51.36    1.96
  -5  -2   9   57.27    2.00
   4   2  -9   47.74    1.62
   4   2  -9   44.88    1.99
   4   2  -9   49.27    2.01
  -4  -2   9   46.44    1.73
  -4  -2   9   48.01    1.75
   3   2  -9   13.40    0.70
   3   2  -9   11.04    0.93
   3   2  -9   12.60    1.05
  -3  -2   9   12.32    0.77
  -3  -2   9   12.90    0.74
   2   2  -9    1.39    0.56
   2   2  -9    0.21    0.62
   2   2  -9    1.34    0.35
  -2  -2   9    0.25    0.37
  -2  -2   9    0.48    0.33
   1   2  -9   70.40    2.44
   1   2  -9   77.59    2.86
   1   2  -9   73.95    2.80
  -1  -2   9   71.26    2.48
  -1  -2   9   75.68    2.64
   0   2  -9  119.23    3.80
   0  -2   9  118.46    4.07
   0  -2   9  119.46    3.81
  -1   2  -9   71.35    2.45
   1  -2   9   74.51    2.65
   1  -2   9   71.57    3.11
   1  -2   9   71.92    2.45
  -2   2  -9   53.08    1.94
   2  -2   9   53.81    1.93
   2  -2   9   55.09    2.16
  -3   2  -9    0.80    0.45
   3  -2   9    1.25    0.43
   3  -2   9    2.04    0.55
  -4   2  -9    8.07    0.71
   4  -2   9    8.34    0.84
   8   1  -9    2.68    0.70
   8   1  -9    3.17    0.69
  -8  -1   9    3.30    0.48
   7   1  -9    5.82    0.74
   7   1  -9    5.64    0.72
  -7  -1   9    5.37    0.55
   6   1  -9   36.04    1.68
   6   1  -9   37.09    1.71
  -6  -1   9   36.50    1.41
   5   1  -9   41.87    1.88
   5   1  -9   43.77    1.87
  -5  -1   9   45.54    1.63
   4   1  -9   62.19    2.44
   4   1  -9   62.29    2.00
   4   1  -9   61.44    2.40
  -4  -1   9   60.70    2.19
  -4  -1   9   59.35    2.12
   3   1  -9   47.32    1.64
   3   1  -9   48.67    1.96
   3   1  -9   48.14    2.00
  -3  -1   9   46.90    1.77
  -3  -1   9   47.51    1.74
   2   1  -9    2.52    0.61
   2   1  -9    2.64    0.67
   2   1  -9    3.22    0.39
  -2  -1   9    2.98    0.42
  -2  -1   9    3.07    0.44
   1   1  -9   35.30    1.35
   1   1  -9   38.64    1.68
  -1  -1   9   35.33    1.49
  -1  -1   9   36.30    1.42
   0   1  -9   95.85    3.17
   0  -1   9  100.49    3.19
   0  -1   9   97.39    3.41
  -1   1  -9   78.61    2.68
   1  -1   9   79.71    2.68
   1  -1   9   82.25    2.92
   1  -1   9   81.51    3.39
  -2   1  -9   82.58    2.81
   2  -1   9   84.23    3.06
   2  -1   9   84.82    2.80
  -3   1  -9   27.20    1.22
   3  -1   9   27.72    1.23
   3  -1   9   30.14    1.47
  -4   1  -9    0.87    0.47
   4  -1   9    1.09    0.57
   8   0  -9    5.37    0.74
   8   0  -9    5.16    0.71
  -8   0   9    5.65    0.56
   7   0  -9    0.52    0.60
   7   0  -9   -0.31    0.57
  -7   0   9   -0.13    0.37
   6   0  -9    2.30    0.66
   6   0  -9    2.42    0.61
  -6   0   9    1.36    0.42
   5   0  -9   27.67    1.34
   5   0  -9   26.58    1.39
  -5   0   9   26.41    1.14
   4   0  -9  113.41    3.95
   4   0  -9  108.22    4.00
   4   0  -9  112.61    3.43
  -4   0   9  106.98    3.54
   3   0  -9   81.51    2.98
   3   0  -9   76.96    3.02
   3   0  -9   81.17    2.59
  -3   0   9   82.27    2.70
   2   0  -9   58.00    2.18
   2   0  -9   54.22    1.87
   2   0  -9   53.70    2.21
  -2   0   9   55.02    2.05
  -2   0   9   52.76    1.93
   1   0  -9   21.31    1.16
   1   0  -9   20.11    0.90
  -1   0   9   19.56    0.99
  -1   0   9   20.34    0.95
   0   0  -9    1.72    0.41
   0   0   9    1.51    0.41
   0   0   9    2.35    0.46
   0   0   9    0.68    0.54
  -1   0  -9   16.81    0.86
   1   0   9   15.11    0.84
   1   0   9   18.04    1.13
   1   0   9   17.14    0.97
  -2   0  -9   50.90    1.96
   2   0   9   55.11    2.43
   2   0   9   58.25    2.22
   2   0   9   55.93    1.97
  -3   0  -9   50.79    1.88
   3   0   9   53.22    2.15
   3   0   9   47.89    1.85
   8  -1  -9   15.80    1.11
   8  -1  -9   15.80    1.10
  -8   1   9   16.65    0.86
   7  -1  -9   16.89    1.13
   7  -1  -9   16.42    1.07
  -7   1   9   18.34    0.89
   6  -1  -9    8.41    0.76
   6  -1  -9   10.39    0.84
  -6   1   9    8.89    0.66
   5  -1  -9    5.35    0.66
   5  -1  -9    4.35    0.70
  -5   1   9    4.66    0.50
   4  -1  -9   61.33    2.37
   4  -1  -9   58.06    2.33
   4  -1  -9   59.96    1.93
  -4   1   9   55.56    2.04
   3  -1  -9  189.66    6.58
   3  -1  -9  190.64    5.80
   3  -1  -9  194.67    6.54
  -3   1   9  185.30    5.88
   2  -1  -9   77.16    2.53
   2  -1  -9   80.97    2.95
  -2   1   9   74.91    2.59
   1  -1  -9   65.89    2.22
  -1   1   9   63.66    2.23
  -1   1   9   66.94    2.42
   0  -1  -9   27.18    1.15
   0   1   9   28.34    1.41
   0   1   9   26.61    1.15
   0   1   9   27.40    1.25
  -1  -1  -9    2.29    0.45
   1   1   9    1.98    0.49
   1   1   9    1.93    0.52
   1   1   9    2.18    0.47
  -2  -1  -9    9.61    0.73
   2   1   9   10.44    0.85
   2   1   9   10.44    0.73
   2   1   9   10.99    0.94
  -3  -1  -9   31.74    1.43
   3   1   9   38.01    1.68
   3   1   9   35.20    1.44
   7  -2  -9   60.65    2.30
   7  -2  -9   53.53    2.31
  -7   2   9   58.65    2.02
   6  -2  -9   56.77    2.27
   6  -2  -9   58.92    2.34
  -6   2   9   56.96    2.00
   5  -2  -9   14.41    1.06
   5  -2  -9   17.74    1.09
  -5   2   9   14.07    0.81
   4  -2  -9    0.63    0.28
   4  -2  -9    0.18    0.52
   4  -2  -9    1.04    0.51
  -4   2   9    0.81    0.37
   3  -2  -9   29.36    1.14
   3  -2  -9   31.66    1.52
  -3   2   9   28.54    1.19
   2  -2  -9   37.16    1.35
   2  -2  -9   37.97    1.72
  -2   2   9   34.74    1.40
   1  -2  -9   31.74    1.24
  -1   2   9   31.21    1.27
  -1   2   9   32.18    1.51
   0  -2  -9   33.68    1.38
   0   2   9   34.59    1.50
   0   2   9   35.50    1.41
   0   2   9   35.14    1.59
  -1  -2  -9    6.95    0.61
   1   2   9    6.61    0.60
   1   2   9    7.41    0.71
  -2  -2  -9    0.12    0.44
   2   2   9   -0.11    0.45
   2   2   9    0.56    0.53
   7  -3  -9   16.52    1.09
   7  -3  -9   15.01    1.08
  -7   3   9   15.22    0.84
   6  -3  -9   37.25    1.70
   6  -3  -9   40.24    1.69
  -6   3   9   35.93    1.42
   5  -3  -9   24.96    1.39
   5  -3  -9   27.77    1.39
  -5   3   9   27.31    1.14
   4  -3  -9    6.17    0.68
  -4   3   9    6.72    0.55
   3  -3  -9    0.53    0.58
   3  -3  -9    1.02    0.34
  -3   3   9    0.97    0.39
   2  -3  -9    1.69    0.36
  -2   3   9    1.23    0.42
   1  -3  -9   20.49    0.99
  -1   3   9   21.76    1.04
   0  -3  -9   57.90    2.06
   0   3   9   59.34    2.10
   0   3   9   58.44    2.27
  -1  -3  -9   46.76    1.79
   1   3   9   46.67    1.79
   1   3   9   50.78    1.99
  -2  -3  -9   16.83    0.98
   2   3   9   17.96    0.97
   2   3   9   17.79    1.11
   7  -4  -9    1.17    0.62
   7  -4  -9    2.17    0.61
  -7   4   9    1.49    0.40
   6  -4  -9   20.90    1.22
  -6   4   9   19.47    0.94
   5  -4  -9   25.92    1.39
  -5   4   9   24.75    1.10
   4  -4  -9   42.05    1.89
  -4   4   9   41.13    1.57
   3  -4  -9   30.53    1.20
  -3   4   9   29.65    1.27
   2  -4  -9    5.20    0.51
  -2   4   9    4.81    0.56
   1  -4  -9    8.56    0.67
  -1   4   9    9.68    0.72
   0  -4  -9   51.27    1.90
   0   4   9   51.00    2.07
   0   4   9   50.57    1.91
  -1  -4  -9   33.09    1.43
   1   4   9   31.04    1.41
   1   4   9   34.13    1.59
   6  -5  -9    6.75    0.79
  -6   5   9    5.40    0.54
   5  -5  -9   27.28    1.45
  -5   5   9   24.22    1.13
  -4   5   9   42.44    1.63
   3  -5  -9   68.75    2.32
  -3   5   9   68.46    2.39
   2  -5  -9   26.89    1.20
  -2   5   9   29.51    1.27
   1  -5  -9    5.43    0.58
  -1   5   9    6.35    0.63
   0  -5  -9    2.58    0.55
   0   5   9    3.42    0.58
  -5   6   9    0.49    0.44
  -4   6   9    6.33    0.61
  -3   6   9   30.88    1.35
   2  -6  -9   25.88    1.17
  -2   6   9   24.14    1.17
   0  11 -10   35.81    1.57
   0 -11  10   39.36    1.64
  -1  11 -10   22.29    1.20
   1 -11  10   27.16    1.24
   2  10 -10    0.37    0.48
  -2 -10  10    0.57    0.46
   1  10 -10    6.35    0.65
  -1 -10  10    6.24    0.67
   0  10 -10   35.16    1.46
   0 -10  10   33.10    1.45
  -1  10 -10   68.12    2.44
   1 -10  10   68.89    2.47
  -2  10 -10   35.44    1.57
   2 -10  10   38.82    1.59
  -4  -9  10   43.97    1.78
   3   9 -10   38.69    1.56
   3   9 -10   39.23    1.56
  -3  -9  10   35.65    1.58
   2   9 -10   27.92    1.27
  -2  -9  10   25.68    1.23
   1   9 -10    1.76    0.49
  -1  -9  10    1.60    0.49
   0   9 -10   10.05    0.78
   0  -9  10    8.36    0.72
  -1   9 -10   62.57    2.28
  -1   9 -10   60.95    2.27
   1  -9  10   63.62    2.28
  -2   9 -10   49.44    1.93
  -2   9 -10   47.15    1.91
   2  -9  10   53.45    1.95
  -3   9 -10   37.45    1.55
  -3   9 -10   36.60    1.54
  -4  -8  10   31.11    1.36
   3   8 -10   50.44    1.89
   3   8 -10   53.11    1.90
  -3  -8  10   47.73    1.91
   2   8 -10   56.76    1.97
   2   8 -10   51.51    1.94
  -2  -8  10   52.31    2.00
   1   8 -10   19.14    1.05
   1   8 -10   19.29    1.05
  -1  -8  10   21.06    1.08
   0   8 -10    1.10    0.44
   0   8 -10    0.58    0.43
   0  -8  10    2.01    0.51
  -1   8 -10    6.57    0.65
  -1   8 -10    4.55    0.60
   1  -8  10    4.69    0.61
  -2   8 -10   19.44    1.03
  -2   8 -10   18.83    1.02
   2  -8  10   20.38    1.04
  -3   8 -10   25.69    1.25
  -4   8 -10   51.90    2.00
  -5  -7  10    0.32    0.46
  -4  -7  10    2.11    0.50
   3   7 -10    7.81    0.65
  -3  -7  10    6.65    0.63
   2   7 -10   75.03    2.56
  -2  -7  10   73.55    2.58
   1   7 -10   82.26    2.77
   1   7 -10   79.87    2.76
  -1  -7  10   80.46    2.78
   0   7 -10   36.93    1.48
   0  -7  10   36.86    1.50
  -1   7 -10    7.00    0.65
   1  -7  10    7.57    0.70
  -2   7 -10    1.56    0.49
   2  -7  10    0.42    0.48
  -3   7 -10   19.20    1.09
   3  -7  10   21.72    1.09
  -4   7 -10   48.62    1.91
   6   6 -10   24.82    1.58
  -6  -6  10   26.59    1.24
   5   6 -10   33.20    1.72
  -5  -6  10   30.15    1.35
   4   6 -10   10.54    0.99
   4   6 -10    9.58    0.71
  -4  -6  10    9.74    0.73
   3   6 -10    0.26    0.39
  -3  -6  10   -0.28    0.32
  -3  -6  10    0.39    0.39
   2   6 -10   84.72    3.13
   2   6 -10   82.15    2.80
  -2  -6  10   83.28    2.84
  -2  -6  10   82.85    2.92
   1   6 -10  129.56    4.09
  -1  -6  10  123.32    4.09
  -1  -6  10  127.07    4.31
   0   6 -10   81.55    2.82
   0  -6  10   84.05    2.98
   0  -6  10   84.05    2.83
  -1   6 -10   64.98    2.35
   1  -6  10   65.91    2.35
   1  -6  10   67.42    2.50
  -2   6 -10    8.24    0.70
   2  -6  10    8.65    0.74
   2  -6  10    8.21    0.70
  -3   6 -10    0.55    0.47
   3  -6  10    1.21    0.48
  -4   6 -10   19.92    1.13
   6   5 -10   19.47    1.44
  -6  -5  10   20.41    1.05
   5   5 -10   58.60    2.45
  -5  -5  10   55.37    2.08
   4   5 -10   44.18    1.68
   4   5 -10   44.47    2.01
  -4  -5  10   46.37    1.68
  -4  -5  10   43.82    1.71
   3   5 -10    9.68    0.71
   3   5 -10    8.63    0.69
   3   5 -10   10.26    0.95
  -3  -5  10    7.90    0.67
  -3  -5  10    9.06    0.65
   2   5 -10    3.26    0.50
  -2  -5  10    3.70    0.53
  -2  -5  10    3.52    0.48
   1   5 -10   50.56    1.88
  -1  -5  10   53.06    1.99
  -1  -5  10   51.72    1.93
   0   5 -10   34.61    1.39
   0  -5  10   31.70    1.38
   0  -5  10   35.01    1.49
  -1   5 -10   65.32    2.31
   1  -5  10   66.90    2.47
   1  -5  10   63.53    2.32
  -2   5 -10   59.91    2.19
   2  -5  10   61.17    2.37
   2  -5  10   58.03    2.13
  -3   5 -10   16.78    1.02
   3  -5  10   18.30    0.98
   3  -5  10   16.71    1.13
  -4   5 -10    2.78    0.58
   6   4 -10    4.68    0.81
  -6  -4  10    4.75    0.57
   5   4 -10   48.23    2.10
  -5  -4  10   44.08    1.75
   4   4 -10  101.59    3.27
   4   4 -10  105.20    3.81
  -4  -4  10   98.28    3.36
  -4  -4  10  101.75    3.46
   3   4 -10   59.98    2.11
   3   4 -10   63.49    2.52
  -3  -4  10   59.24    2.17
  -3  -4  10   61.37    2.23
   2   4 -10   48.29    2.11
   2   4 -10   50.65    1.82
  -2  -4  10   50.31    1.86
  -2  -4  10   52.23    1.93
   1   4 -10   14.05    0.87
  -1  -4  10   14.41    0.85
  -1  -4  10   14.58    0.84
   0   4 -10    5.22    0.58
   0  -4  10    4.11    0.56
   0  -4  10    4.60    0.57
  -1   4 -10   45.47    1.77
   1  -4  10   46.07    1.74
   1  -4  10   46.81    1.89
  -2   4 -10   76.53    2.71
   2  -4  10   81.01    2.70
   2  -4  10   77.87    2.94
  -3   4 -10   38.00    1.58
   3  -4  10   36.73    1.51
   3  -4  10   38.23    1.73
  -4   4 -10   21.69    1.13
   7   3 -10   21.23    1.39
  -7  -3  10   18.02    1.00
   6   3 -10    5.14    0.79
  -6  -3  10    5.98    0.60
   5   3 -10    9.89    0.91
  -5  -3  10    8.55    0.67
  -5  -3  10    9.39    0.66
   4   3 -10   57.00    2.38
   4   3 -10   59.50    1.98
  -4  -3  10   56.46    2.07
  -4  -3  10   56.03    2.09
   3   3 -10   72.30    2.77
   3   3 -10   70.67    2.35
  -3  -3  10   68.69    2.49
  -3  -3  10   67.55    2.41
   2   3 -10   66.43    2.69
   2   3 -10   71.56    2.37
  -2  -3  10   68.76    2.42
  -2  -3  10   69.67    2.51
   1   3 -10   44.29    1.66
  -1  -3  10   44.55    1.72
  -1  -3  10   44.72    1.75
   0   3 -10    4.32    0.55
   0  -3  10    4.53    0.57
   0  -3  10    3.82    0.52
  -1   3 -10   20.58    1.01
   1  -3  10   18.75    1.00
   1  -3  10   20.87    1.10
  -2   3 -10   68.58    2.43
   2  -3  10   68.13    2.65
   2  -3  10   68.24    2.38
  -3   3 -10   33.95    1.47
   3  -3  10   35.75    1.45
   3  -3  10   35.68    1.66
   7   2 -10   23.47    1.37
   7   2 -10   25.92    1.39
  -7  -2  10   20.94    1.08
   6   2 -10   15.40    1.14
   6   2 -10   14.16    1.14
  -6  -2  10   15.71    0.89
   5   2 -10    0.67    0.64
   5   2 -10    1.51    0.67
  -5  -2  10    1.18    0.39
  -5  -2  10    1.18    0.44
   4   2 -10   12.50    1.10
   4   2 -10   11.59    0.97
   4   2 -10   12.09    0.68
  -4  -2  10   12.00    0.76
  -4  -2  10   12.08    0.75
   3   2 -10   15.01    0.79
   3   2 -10   15.13    1.14
  -3  -2  10   13.97    0.80
  -3  -2  10   13.67    0.82
   2   2 -10   61.50    2.17
   2   2 -10   66.44    2.55
  -2  -2  10   62.82    2.22
  -2  -2  10   62.58    2.33
   1   2 -10   98.64    3.25
  -1  -2  10   98.16    3.47
  -1  -2  10  102.04    3.31
   0   2 -10   36.46    1.42
   0  -2  10   35.89    1.53
   0  -2  10   34.99    1.46
  -1   2 -10    4.58    0.54
   1  -2  10    4.98    0.58
   1  -2  10    5.88    0.66
  -2   2 -10    3.09    0.52
   2  -2  10    4.34    0.57
   2  -2  10    4.07    0.63
  -3   2 -10   12.68    0.90
   3  -2  10   12.89    0.88
   3  -2  10   14.56    1.04
   7   1 -10   23.83    1.39
   7   1 -10   20.94    1.37
  -7  -1  10   23.04    1.11
   6   1 -10   14.85    1.19
   6   1 -10   18.31    1.18
  -6  -1  10   18.13    0.98
  -6  -1  10   18.22    0.92
   5   1 -10   32.12    1.63
   5   1 -10   31.86    1.61
  -5  -1  10   35.71    1.40
  -5  -1  10   32.82    1.38
   4   1 -10   17.61    1.19
   4   1 -10   17.36    0.82
  -4  -1  10   15.92    0.89
  -4  -1  10   17.03    0.94
   3   1 -10    1.63    0.37
   3   1 -10    1.90    0.58
  -3  -1  10    0.80    0.43
  -3  -1  10    1.27    0.41
   2   1 -10   40.04    1.52
   2   1 -10   42.45    1.87
  -2  -1  10   41.11    1.65
  -2  -1  10   41.98    1.62
   1   1 -10  141.27    4.46
  -1  -1  10  138.60    4.48
  -1  -1  10  143.21    4.79
   0   1 -10   98.25    3.32
   0  -1  10  100.39    3.32
   0  -1  10  105.74    3.60
  -1   1 -10   46.88    1.75
   1  -1  10   46.88    1.77
   1  -1  10   46.68    1.91
  -2   1 -10   13.86    0.91
   2  -1  10   14.16    0.90
   2  -1  10   16.09    1.06
  -3   1 -10   -0.13    0.46
   3  -1  10    0.33    0.46
   3  -1  10    0.96    0.56
   7   0 -10   29.97    1.55
   7   0 -10   26.24    1.49
  -7   0  10   28.96    1.26
   6   0 -10   63.59    2.46
   6   0 -10   63.47    2.51
  -6   0  10   57.86    2.16
   5   0 -10   53.37    2.26
   5   0 -10   55.99    2.21
  -5   0  10   50.32    1.92
   4   0 -10   77.60    2.51
   4   0 -10   80.02    2.96
  -4   0  10   74.43    2.63
   3   0 -10   34.69    1.60
   3   0 -10   35.01    1.32
  -3   0  10   35.29    1.45
  -3   0  10   34.97    1.40
   2   0 -10    0.61    0.36
  -2   0  10    0.31    0.40
  -2   0  10    0.82    0.42
   1   0 -10   44.64    1.60
  -1   0  10   43.18    1.74
  -1   0  10   41.11    1.62
   0   0 -10   38.03    1.53
   0   0  10   38.21    1.91
   0   0  10   39.49    1.56
   0   0  10   42.68    1.71
  -1   0 -10   28.68    1.27
   1   0  10   30.58    1.42
   1   0  10   30.78    1.63
   1   0  10   31.20    1.29
  -2   0 -10   25.56    1.20
   2   0  10   27.25    1.40
   2   0  10   26.87    1.23
   7  -1 -10   -0.15    0.60
   7  -1 -10    0.00    0.66
  -7   1  10    0.02    0.39
   6  -1 -10   15.36    1.18
   6  -1 -10   16.28    1.10
  -6   1  10   15.80    0.90
   5  -1 -10   42.15    1.83
  -5   1  10   37.79    1.54
   4  -1 -10   50.94    2.09
  -4   1  10   45.37    1.77
   3  -1 -10   32.85    1.26
   3  -1 -10   33.18    1.65
  -3   1  10   30.81    1.31
   2  -1 -10   20.79    0.95
  -2   1  10   23.59    1.14
  -2   1  10   21.07    1.01
   1  -1 -10    2.23    0.43
  -1   1  10    2.69    0.47
  -1   1  10    2.49    0.60
  -1   1  10    2.68    0.52
   0  -1 -10    2.50    0.46
   0   1  10    2.82    0.56
   0   1  10    2.85    0.48
   0   1  10    2.58    0.58
  -1  -1 -10    9.55    0.75
   1   1  10    9.32    0.84
   1   1  10   13.07    0.85
  -2  -1 -10   39.21    1.66
   2   1  10   42.76    1.68
   2   1  10   45.19    1.87
   7  -2 -10    8.83    0.86
   7  -2 -10    9.00    0.91
  -7   2  10    8.43    0.66
   6  -2 -10    3.00    0.65
  -6   2  10    4.39    0.52
   5  -2 -10    1.32    0.61
  -5   2  10    0.72    0.41
   4  -2 -10   29.20    1.50
  -4   2  10   25.93    1.16
   3  -2 -10   38.63    1.41
  -3   2  10   35.78    1.45
   2  -2 -10   34.81    1.33
  -2   2  10   33.59    1.40
   1  -2 -10   24.24    1.13
  -1   2  10   24.37    1.16
  -1   2  10   26.37    1.28
   0  -2 -10    1.75    0.49
   0   2  10    1.67    0.50
   0   2  10    2.89    0.56
  -1  -2 -10    4.37    0.57
   1   2  10    4.04    0.65
   1   2  10    4.12    0.60
   6  -3 -10    9.55    0.88
  -6   3  10    8.87    0.68
   5  -3 -10    1.73    0.65
  -5   3  10    1.19    0.43
  -4   3  10    7.64    0.65
   3  -3 -10   32.28    1.27
  -3   3  10   30.49    1.34
   2  -3 -10   45.55    1.63
  -2   3  10   40.31    1.64
   1  -3 -10   66.68    2.34
  -1   3  10   64.93    2.36
  -1   3  10   69.14    2.56
   0  -3 -10   22.82    1.11
   0   3  10   22.14    1.16
   0   3  10   25.23    1.30
   6  -4 -10   25.10    1.45
  -6   4  10   24.11    1.12
   5  -4 -10   24.66    1.43
  -5   4  10   22.63    1.11
  -4   4  10    5.14    0.59
   3  -4 -10    4.64    0.53
  -3   4  10    3.33    0.55
   2  -4 -10    7.40    0.64
  -2   4  10    7.52    0.67
   1  -4 -10   27.01    1.23
  -1   4  10   29.03    1.31
  -4   5  10   27.39    1.25
  -3   5  10    9.75    0.77
   1  10 -11   29.01    1.32
   1  10 -11   28.52    1.31
  -1 -10  11   27.61    1.33
   0  10 -11   36.86    1.60
   0  10 -11   37.42    1.57
   0 -10  11   37.89    1.59
  -1  10 -11   16.10    1.00
  -1  10 -11   16.14    1.00
   1 -10  11   17.35    1.08
   3   9 -11    2.60    0.55
   3   9 -11    2.27    0.57
  -3  -9  11    2.59    0.56
   2   9 -11    1.37    0.52
   2   9 -11    0.66    0.51
   1   9 -11    6.52    0.68
   1   9 -11    6.17    0.68
  -1  -9  11    6.72    0.71
   0   9 -11   39.14    1.61
   0   9 -11   39.52    1.61
   0  -9  11   38.49    1.65
  -1   9 -11   67.26    2.47
  -1   9 -11   68.83    2.49
   1  -9  11   70.77    2.49
  -2   9 -11   17.90    1.05
   2  -9  11   20.75    1.14
  -4  -8  11   27.54    1.33
   3   8 -11   27.87    1.30
  -3  -8  11   28.16    1.34
   2   8 -11   12.27    0.83
  -2  -8  11   12.08    0.90
   1   8 -11   -0.02    0.42
  -1  -8  11    0.44    0.48
   0   8 -11   31.47    1.43
   0  -8  11   33.45    1.46
  -1   8 -11   76.21    2.75
   1  -8  11   80.96    2.78
  -2   8 -11   54.52    2.12
   2  -8  11   58.77    2.15
  -4  -7  11   34.72    1.51
   3   7 -11   44.57    1.72
  -3  -7  11   44.04    1.78
   2   7 -11   32.67    1.42
  -2  -7  11   33.49    1.43
   1   7 -11    4.83    0.61
  -1  -7  11    4.55    0.59
   0   7 -11    3.60    0.57
   0  -7  11    3.34    0.57
   0  -7  11    2.56    0.51
  -1   7 -11   28.18    1.30
   1  -7  11   28.60    1.34
  -2   7 -11   22.09    1.19
   2  -7  11   23.07    1.21
  -3   7 -11   37.75    1.62
  -5  -6  11    1.17    0.50
  -4  -6  11    8.79    0.72
   3   6 -11   34.07    1.43
  -3  -6  11   36.85    1.45
  -3  -6  11   31.76    1.46
   2   6 -11   87.79    3.07
  -2  -6  11   94.99    3.24
  -2  -6  11   91.08    3.12
   1   6 -11   58.09    2.13
  -1  -6  11   60.16    2.23
  -1  -6  11   54.89    2.12
   0   6 -11   28.35    1.35
   0  -6  11   30.01    1.40
   0  -6  11   30.54    1.38
  -1   6 -11    2.51    0.54
   1  -6  11    2.98    0.58
   1  -6  11    2.40    0.54
  -2   6 -11    3.75    0.62
   2  -6  11    3.20    0.64
   2  -6  11    3.06    0.58
  -3   6 -11   17.72    1.05
   6   5 -11   29.24    1.70
  -6  -5  11   27.24    1.31
  -5  -5  11   25.90    1.24
  -4  -5  11    3.23    0.48
  -4  -5  11    3.41    0.53
   3   5 -11   15.10    0.91
  -3  -5  11   16.10    0.89
  -3  -5  11   14.30    0.89
   2   5 -11   63.79    2.33
  -2  -5  11   67.69    2.45
  -2  -5  11   65.87    2.38
   1   5 -11   66.80    2.38
  -1  -5  11   69.82    2.52
  -1  -5  11   62.99    2.39
   0   5 -11   50.25    1.96
   0  -5  11   52.90    2.09
   0  -5  11   52.31    1.99
  -1   5 -11   39.03    1.64
   1  -5  11   39.91    1.66
   1  -5  11   41.67    1.77
  -2   5 -11    2.79    0.55
   2  -5  11    3.27    0.63
   2  -5  11    2.17    0.56
  -3   5 -11    6.91    0.72
   6   4 -11   34.13    1.79
  -6  -4  11   31.59    1.42
   5   4 -11   39.12    1.92
  -5  -4  11   36.51    1.56
   4   4 -11   28.62    1.63
  -4  -4  11   26.73    1.30
  -4  -4  11   30.87    1.30
   3   4 -11    2.98    0.47
  -3  -4  11    2.54    0.54
  -3  -4  11    2.50    0.48
   2   4 -11   15.58    0.92
  -2  -4  11   14.36    0.91
  -2  -4  11   15.95    0.94
   1   4 -11   20.82    1.02
  -1  -4  11   20.50    1.11
  -1  -4  11   19.25    1.04
   0   4 -11   29.86    1.31
   0  -4  11   30.87    1.38
   0  -4  11   29.61    1.42
  -1   4 -11   51.23    1.99
   1  -4  11   51.42    1.95
   1  -4  11   53.03    2.12
  -2   4 -11   23.65    1.26
   2  -4  11   27.36    1.22
   2  -4  11   26.46    1.40
  -3   4 -11    2.71    0.58
   6   3 -11    4.60    0.81
  -6  -3  11    3.19    0.57
   5   3 -11   34.27    1.73
  -5  -3  11   33.79    1.40
  -5  -3  11   30.93    1.41
   4   3 -11   39.48    1.81
  -4  -3  11   38.11    1.56
  -4  -3  11   35.21    1.55
   3   3 -11   36.13    1.42
  -3  -3  11   35.97    1.50
  -3  -3  11   34.30    1.47
   2   3 -11   10.72    0.78
  -2  -3  11    9.57    0.76
  -2  -3  11   10.00    0.79
   1   3 -11    1.65    0.47
  -1  -3  11    2.50    0.50
  -1  -3  11    2.46    0.51
   0   3 -11   20.94    1.06
   0  -3  11   22.56    1.15
   0  -3  11   21.16    1.08
  -1   3 -11   80.38    2.82
   1  -3  11   84.55    3.07
   1  -3  11   80.82    2.80
  -2   3 -11   60.23    2.29
   2  -3  11   64.02    2.29
   2  -3  11   65.08    2.53
   6   2 -11   -0.59    0.66
  -6  -2  11    0.27    0.45
   5   2 -11   25.15    1.48
  -5  -2  11   21.64    1.16
  -5  -2  11   25.25    1.17
   4   2 -11   88.68    3.31
  -4  -2  11   82.56    2.90
  -4  -2  11   83.62    3.01
   3   2 -11   79.05    2.57
  -3  -2  11   73.59    2.65
  -3  -2  11   75.57    2.76
   2   2 -11   64.63    2.23
  -2  -2  11   63.48    2.29
  -2  -2  11   62.32    2.37
   1   2 -11   12.51    0.83
  -1  -2  11   11.60    0.81
  -1  -2  11   11.71    0.82
   0   2 -11    2.09    0.48
   0  -2  11    0.84    0.49
   0  -2  11    1.44    0.51
  -1   2 -11   26.97    1.23
   1  -2  11   26.78    1.26
   1  -2  11   27.78    1.36
  -2   2 -11   38.02    1.62
   2  -2  11   40.05    1.62
   2  -2  11   41.32    1.81
   6   1 -11    9.00    0.91
  -6  -1  11    7.80    0.72
  -6  -1  11    8.08    0.67
   5   1 -11    4.81    0.73
  -5  -1  11    4.21    0.54
  -5  -1  11    3.84    0.58
   4   1 -11   32.01    1.66
  -4  -1  11   30.47    1.37
  -4  -1  11   31.53    1.38
   3   1 -11   41.37    1.56
  -3  -1  11   41.40    1.71
  -3  -1  11   42.68    1.68
   2   1 -11   58.73    2.08
  -2  -1  11   60.19    2.15
  -2  -1  11   56.60    2.22
   1   1 -11   45.05    1.67
  -1  -1  11   39.90    1.66
  -1  -1  11   44.37    1.79
   0   1 -11   15.73    0.94
   0  -1  11   17.03    1.04
   0  -1  11   14.85    0.89
  -1   1 -11    3.31    0.54
   1  -1  11    3.39    0.57
   1  -1  11    1.78    0.57
  -2   1 -11    2.38    0.57
   2  -1  11    1.90    0.54
   6   0 -11   39.72    1.82
  -6   0  11   36.79    1.56
   5   0 -11   27.69    1.49
  -5   0  11   25.96    1.25
   4   0 -11    1.86    0.67
  -4   0  11    1.03    0.46
  -4   0  11    0.98    0.47
   3   0 -11    1.33    0.41
  -3   0  11    0.44    0.44
  -3   0  11    1.97    0.49
   2   0 -11   22.99    1.07
  -2   0  11   24.15    1.16
  -2   0  11   21.53    1.09
   1   0 -11   47.54    1.78
  -1   0  11   47.22    1.93
  -1   0  11   47.48    1.80
   0   0 -11   28.54    1.27
   0   0  11   28.53    1.36
   0   0  11   26.39    1.27
  -1   0 -11   15.61    0.95
   1   0  11   18.31    1.03
   1   0  11   17.44    1.08
   6  -1 -11   19.41    1.26
  -6   1  11   18.54    1.04
   5  -1 -11   29.08    1.51
  -5   1  11   26.79    1.26
  -4   1  11   20.07    1.07
   3  -1 -11    2.65    0.46
  -3   1  11    2.50    0.54
  -3   1  11    2.75    0.53
   2  -1 -11    3.50    0.52
  -2   1  11    4.29    0.59
  -2   1  11    4.05    0.57
   1  -1 -11   38.57    1.53
  -1   1  11   39.76    1.58
  -1   1  11   38.97    1.72
   0  -1 -11   36.40    1.53
   0   1  11   37.77    1.67
   0   1  11   36.59    1.52
   6  -2 -11    7.23    0.86
  -6   2  11    6.48    0.66
   5  -2 -11   16.12    1.28
  -5   2  11   14.60    0.91
  -4   2  11   32.46    1.40
   3  -2 -11   20.81    0.99
  -3   2  11   18.47    1.05
   2  -2 -11    2.06    0.49
  -2   2  11    2.67    0.53
  -2   2  11    2.96    0.56
   1  -2 -11    2.02    0.52
  -1   2  11    2.24    0.57
  -1   2  11    3.07    0.58
  -5   3  11    7.16    0.65
  -4   3  11   45.40    1.77
  -3   3  11   59.43    2.18
   2  -3 -11   32.58    1.38
  -2   3  11   32.83    1.44
   2   8 -12    7.40    0.72
  -2  -8  12    6.19    0.70
   1   8 -12   20.80    1.17
  -1  -8  12   23.51    1.24
   0   8 -12   61.97    2.30
   0  -8  12   60.31    2.29
  -1   8 -12   35.13    1.56
   1  -8  12   32.90    1.54
   3   7 -12   16.80    1.00
  -3  -7  12   15.55    0.98
   2   7 -12    0.23    0.46
  -2  -7  12    0.61    0.53
  -2  -7  12    0.87    0.45
   1   7 -12    8.10    0.72
  -1  -7  12    7.45    0.71
  -1  -7  12    5.32    0.67
   0   7 -12   47.97    1.93
   0  -7  12   49.97    1.98
   0  -7  12   50.78    2.04
  -1   7 -12   67.51    2.50
   1  -7  12   67.46    2.46
   1  -7  12   67.17    2.61
  -4  -6  12   33.47    1.47
   3   6 -12   47.11    1.82
  -3  -6  12   48.57    1.86
  -3  -6  12   42.45    1.84
   2   6 -12   23.37    1.21
  -2  -6  12   22.90    1.20
  -2  -6  12   24.85    1.24
   1   6 -12    1.36    0.53
  -1  -6  12    0.86    0.50
  -1  -6  12    0.99    0.47
   0   6 -12    6.03    0.71
   0  -6  12    6.80    0.73
   0  -6  12    4.86    0.66
  -1   6 -12   22.54    1.19
   1  -6  12   22.47    1.28
   1  -6  12   21.38    1.17
  -5  -5  12    3.02    0.57
  -4  -5  12    4.40    0.61
  -4  -5  12    5.15    0.60
   3   5 -12   23.99    1.16
  -3  -5  12   23.42    1.17
  -3  -5  12   22.02    1.21
   2   5 -12   52.07    1.91
  -2  -5  12   47.44    1.94
  -2  -5  12   50.91    2.02
   1   5 -12   36.84    1.52
  -1  -5  12   35.15    1.57
  -1  -5  12   35.69    1.61
   0   5 -12    6.03    0.71
   0  -5  12    6.91    0.72
   0  -5  12    7.24    0.75
  -1   5 -12    1.82    0.55
   1  -5  12    1.30    0.57
   1  -5  12    2.10    0.60
  -5  -4  12    6.89    0.73
  -4  -4  12    0.10    0.45
  -4  -4  12   -0.43    0.48
   3   4 -12   20.64    1.07
  -3  -4  12   21.16    1.11
  -3  -4  12   17.72    1.11
   2   4 -12   68.04    2.43
  -2  -4  12   68.19    2.51
  -2  -4  12   71.15    2.62
   1   4 -12   58.62    2.18
  -1  -4  12   59.32    2.33
  -1  -4  12   59.31    2.24
   0   4 -12   39.83    1.67
   0  -4  12   40.73    1.75
   0  -4  12   38.94    1.64
  -1   4 -12    4.28    0.63
   1  -4  12    4.42    0.67
   1  -4  12    4.30    0.66
  -5  -3  12   21.69    1.18
  -5  -3  12   20.94    1.09
  -4  -3  12    5.06    0.60
  -4  -3  12    5.54    0.68
   3   3 -12    3.20    0.53
  -3  -3  12    2.76    0.55
  -3  -3  12    3.35    0.59
   2   3 -12   37.55    1.54
  -2  -3  12   35.91    1.57
  -2  -3  12   38.22    1.61
   1   3 -12   37.96    1.58
  -1  -3  12   39.58    1.69
  -1  -3  12   40.33    1.67
   0   3 -12   36.03    1.57
   0  -3  12   37.51    1.70
   0  -3  12   37.55    1.61
  -1   3 -12   35.50    1.58
   1  -3  12   35.50    1.56
   1  -3  12   42.62    1.80
  -5  -2  12   45.72    1.81
  -5  -2  12   43.62    1.79
  -4  -2  12   43.77    1.77
  -4  -2  12   41.22    1.75
   3   2 -12   17.55    0.97
  -3  -2  12   17.81    1.06
  -3  -2  12   19.75    1.10
   2   2 -12    2.21    0.50
  -2  -2  12    0.99    0.53
  -2  -2  12    1.06    0.51
   1   2 -12    2.82    0.56
  -1  -2  12    3.23    0.56
  -1  -2  12    2.65    0.59
   0   2 -12   16.22    0.97
   0  -2  12   15.14    1.01
   0  -2  12   17.63    1.05
  -1   2 -12   33.98    1.48
   1  -2  12   33.65    1.50
  -5  -1  12   30.91    1.44
  -5  -1  12   32.34    1.44
  -4  -1  12   41.23    1.75
  -4  -1  12   44.27    1.80
   3   1 -12   37.06    1.47
  -3  -1  12   35.90    1.56
  -3  -1  12   36.59    1.59
   2   1 -12   19.07    0.97
  -2  -1  12   17.11    1.03
  -2  -1  12   20.40    1.13
   1   1 -12    4.44    0.60
  -1  -1  12    6.60    0.73
  -1  -1  12    5.11    0.65
   0   1 -12    2.39    0.56
   0  -1  12    3.67    0.64
   0  -1  12    2.89    0.57
  -5   0  12    4.49    0.62
  -5   0  12    4.98    0.62
  -4   0  12   13.53    0.93
  -4   0  12   13.09    0.94
   3   0 -12   14.44    0.87
  -3   0  12   13.12    0.95
  -3   0  12   12.80    0.96
   2   0 -12   26.00    1.17
  -2   0  12   25.65    1.27
  -2   0  12   26.38    1.31
   1   0 -12   15.74    0.92
  -1   0  12   14.27    0.94
  -1   0  12   17.53    1.10
  -4   1  12    0.77    0.47
  -4   1  12   -0.63    0.48
  -3   1  12   11.03    0.92
  -3   1  12   10.59    0.83
   2  -1 -12   42.59    1.67
  -2   1  12   42.49    1.85
  -2   1  12   41.55    1.73
   2   6 -13   -0.03    0.48
  -2  -6  13    0.32    0.56
  -2  -6  13    0.32    0.49
   1   6 -13   11.94    0.91
  -1  -6  13   11.63    0.97
  -1  -6  13   10.89    0.90
   3   5 -13   21.21    1.16
  -3  -5  13   21.51    1.20
  -3  -5  13   22.93    1.20
   2   5 -13    3.18    0.62
  -2  -5  13    3.29    0.62
  -2  -5  13    3.23    0.61
   1   5 -13    1.90    0.59
  -1  -5  13    1.90    0.56
  -1  -5  13    2.55    0.64
   3   4 -13   40.52    1.65
  -3  -4  13   39.80    1.75
  -3  -4  13   40.24    1.74
   2   4 -13   38.46    1.60
  -2  -4  13   37.05    1.66
  -2  -4  13   40.44    1.75
   1   4 -13   12.32    0.90
  -1  -4  13   11.68    0.99
  -1  -4  13   11.64    0.93
   3   3 -13   33.83    1.46
  -3  -3  13   33.98    1.58
  -3  -3  13   33.96    1.56
   2   3 -13   54.06    2.03
  -2  -3  13   52.12    2.08
  -2  -3  13   53.93    2.16
   1   3 -13   36.80    1.62
  -1  -3  13   39.91    1.73
  -1  -3  13   37.37    1.67
  -3  -2  13    6.42    0.75
  -3  -2  13    4.92    0.66
   2   2 -13   15.17    1.00
  -2  -2  13   17.05    1.11
  -2  -2  13   17.62    1.12
   0   0   0    0.00    0.00
;
_shelx_hkl_checksum              50936
loop_
_space_group_symop_operation_xyz
'x, y, z'
'-x, -y, -z'
loop_
_atom_site_label
_atom_site_type_symbol
_atom_site_fract_x
_atom_site_fract_y
_atom_site_fract_z
_atom_site_U_iso_or_equiv
_atom_site_adp_type
_atom_site_occupancy
_atom_site_site_symmetry_order
_atom_site_calc_flag
_atom_site_refinement_flags_posn
_atom_site_refinement_flags_adp
_atom_site_refinement_flags_occupancy
_atom_site_disorder_assembly
_atom_site_disorder_group
C1 C 0.3133(4) 0.2452(3) 1.2020(3) 0.0344(6) Uani 1 1 d . . . . .
H1 H 0.3345 0.3268 1.2786 0.041 Uiso 1 1 calc R U . . .
C2 C 0.2498(4) 0.2389(3) 1.0673(3) 0.0335(6) Uani 1 1 d . . . . .
C3 C 0.2158(4) 0.1186(3) 0.9523(3) 0.0389(6) Uani 1 1 d . . . . .
H3 H 0.1722 0.1166 0.8619 0.047 Uiso 1 1 calc R U . . .
C4 C 0.2474(5) 0.0017(3) 0.9733(3) 0.0433(7) Uani 1 1 d . . . . .
H4 H 0.2247 -0.0801 0.8965 0.052 Uiso 1 1 calc R U . . .
C5 C 0.3127(4) 0.0043(3) 1.1079(3) 0.0398(7) Uani 1 1 d . . . . .
H5 H 0.3344 -0.0749 1.1221 0.048 Uiso 1 1 calc R U . . .
C6 C 0.3448(4) 0.1261(3) 1.2200(3) 0.0330(6) Uani 1 1 d . . . . .
N1 N 0.2149(4) 0.3650(3) 1.0468(3) 0.0449(6) Uani 1 1 d . . . . .
H1A H 0.3186 0.4419 1.1020 0.067 Uiso 1 1 calc R U . . .
H1B H 0.1090 0.3753 1.0685 0.067 Uiso 1 1 calc R U . . .
H1C H 0.1960 0.3538 0.9576 0.067 Uiso 1 1 calc R U . . .
N2 N 0.4105(4) 0.1308(3) 1.3631(2) 0.0424(6) Uani 1 1 d . . . . .
H2A H 0.3087 0.1184 1.3942 0.064 Uiso 1 1 calc R U . . .
H2B H 0.5012 0.2148 1.4189 0.064 Uiso 1 1 calc R U . . .
H2C H 0.4614 0.0619 1.3633 0.064 Uiso 1 1 calc R U . . .
Cl1 Cl -0.25993(10) 0.44444(8) 1.51834(9) 0.04344(17) Uani 1 1 d . . . . .
Cl2 Cl -0.12439(12) 0.24298(9) 1.73194(9) 0.0515(2) Uani 1 1 d . . . . .
Cl3 Cl 0.01370(13) 0.16607(9) 1.41569(9) 0.0537(2) Uani 1 1 d . . . . .
Cl4 Cl 0.40323(11) 0.36227(9) 1.77452(10) 0.0518(2) Uani 1 1 d . . . . .
Cl5 Cl 0.17238(14) 0.61768(9) 1.88425(10) 0.0608(2) Uani 1 1 d . . . . .
Bi1 Bi 0.08109(2) 0.39995(2) 1.64157(2) 0.03019(6) Uani 1 1 d . . . . .
O1' O 0.6178(4) -0.0496(3) 1.3931(3) 0.0546(6) Uani 1 1 d D . . . .
H1'' H 0.745(3) -0.002(4) 1.411(4) 0.077(13) Uiso 1 1 d D . . . .
H1' H 0.598(7) -0.130(3) 1.321(3) 0.090(15) Uiso 1 1 d D . . . .
loop_
_atom_site_aniso_label
_atom_site_aniso_U_11
_atom_site_aniso_U_22
_atom_site_aniso_U_33
_atom_site_aniso_U_23
_atom_site_aniso_U_13
_atom_site_aniso_U_12
C1 0.0372(14) 0.0303(14) 0.0316(14) 0.0093(12) 0.0094(12) 0.0093(11)
C2 0.0327(13) 0.0313(14) 0.0358(15) 0.0151(12) 0.0099(11) 0.0079(11)
C3 0.0419(15) 0.0428(17) 0.0290(14) 0.0134(13) 0.0113(12) 0.0098(13)
C4 0.0529(17) 0.0375(16) 0.0340(15) 0.0063(13) 0.0161(14) 0.0135(14)
C5 0.0445(16) 0.0328(15) 0.0447(17) 0.0162(13) 0.0166(14) 0.0139(12)
C6 0.0331(13) 0.0359(15) 0.0303(14) 0.0146(12) 0.0111(11) 0.0091(11)
N1 0.0537(15) 0.0369(14) 0.0371(14) 0.0156(11) 0.0036(12) 0.0123(12)
N2 0.0511(15) 0.0404(14) 0.0370(14) 0.0192(12) 0.0114(12) 0.0149(12)
Cl1 0.0365(3) 0.0433(4) 0.0526(4) 0.0242(4) 0.0111(3) 0.0128(3)
Cl2 0.0452(4) 0.0589(5) 0.0479(4) 0.0306(4) 0.0122(3) 0.0023(4)
Cl3 0.0569(5) 0.0482(5) 0.0431(4) 0.0034(4) 0.0210(4) 0.0094(4)
Cl4 0.0368(4) 0.0413(4) 0.0667(5) 0.0161(4) 0.0025(4) 0.0150(3)
Cl5 0.0623(5) 0.0446(5) 0.0550(5) -0.0029(4) 0.0126(4) 0.0181(4)
Bi1 0.03364(7) 0.03018(8) 0.02811(7) 0.01379(5) 0.00874(4) 0.01098(5)
O1' 0.0526(14) 0.0443(14) 0.0621(16) 0.0156(12) 0.0161(12) 0.0173(11)
loop_
_atom_type_symbol
_atom_type_description
_atom_type_scat_dispersion_real
_atom_type_scat_dispersion_imag
_atom_type_scat_source
C C 0.0033 0.0016 'International Tables Vol C Tables 4.2.6.8 and 6.1.1.4'
H H 0.0000 0.0000 'International Tables Vol C Tables 4.2.6.8 and 6.1.1.4'
N N 0.0061 0.0033 'International Tables Vol C Tables 4.2.6.8 and 6.1.1.4'
Cl Cl 0.1484 0.1585 'International Tables Vol C Tables 4.2.6.8 and 6.1.1.4'
Bi Bi -4.1077 10.2566 'International Tables Vol C Tables 4.2.6.8 and 6.1.1.4'
O O 0.0106 0.0060 'International Tables Vol C Tables 4.2.6.8 and 6.1.1.4'
loop_
_geom_angle_atom_site_label_1
_geom_angle_atom_site_label_2
_geom_angle_atom_site_label_3
_geom_angle
_geom_angle_site_symmetry_1
_geom_angle_site_symmetry_3
C2 C1 C6 117.7(3) . .
C2 C1 H1 121.1 . .
C6 C1 H1 121.1 . .
C1 C2 C3 122.1(3) . .
C1 C2 N1 118.2(2) . .
C3 C2 N1 119.7(3) . .
C4 C3 C2 118.9(3) . .
C4 C3 H3 120.5 . .
C2 C3 H3 120.5 . .
C3 C4 C5 120.7(3) . .
C3 C4 H4 119.7 . .
C5 C4 H4 119.7 . .
C6 C5 C4 118.8(3) . .
C6 C5 H5 120.6 . .
C4 C5 H5 120.6 . .
C5 C6 C1 121.8(3) . .
C5 C6 N2 119.8(3) . .
C1 C6 N2 118.3(2) . .
C2 N1 H1A 109.5 . .
C2 N1 H1B 109.5 . .
H1A N1 H1B 109.5 . .
C2 N1 H1C 109.5 . .
H1A N1 H1C 109.5 . .
H1B N1 H1C 109.5 . .
C6 N2 H2A 109.5 . .
C6 N2 H2B 109.5 . .
H2A N2 H2B 109.5 . .
C6 N2 H2C 109.5 . .
H2A N2 H2C 109.5 . .
H2B N2 H2C 109.5 . .
Bi1 Cl1 Bi1 95.11(2) . 2_568
Cl2 Bi1 Cl4 90.56(3) . .
Cl2 Bi1 Cl5 88.61(3) . .
Cl4 Bi1 Cl5 83.59(3) . .
Cl2 Bi1 Cl3 88.44(3) . .
Cl4 Bi1 Cl3 90.01(3) . .
Cl5 Bi1 Cl3 172.93(3) . .
Cl2 Bi1 Cl1 87.30(3) . .
Cl4 Bi1 Cl1 176.46(2) . .
Cl5 Bi1 Cl1 93.53(3) . .
Cl3 Bi1 Cl1 92.75(3) . .
Cl2 Bi1 Cl1 168.88(2) . 2_568
Cl4 Bi1 Cl1 97.62(3) . 2_568
Cl5 Bi1 Cl1 99.74(3) . 2_568
Cl3 Bi1 Cl1 84.05(3) . 2_568
Cl1 Bi1 Cl1 84.89(2) . 2_568
H1'' O1' H1' 101(4) . .
loop_
_geom_bond_atom_site_label_1
_geom_bond_atom_site_label_2
_geom_bond_distance
_geom_bond_site_symmetry_2
C1 C2 1.372(4) .
C1 C6 1.382(4) .
C1 H1 0.9300 .
C2 C3 1.379(4) .
C2 N1 1.473(4) .
C3 C4 1.372(4) .
C3 H3 0.9300 .
C4 C5 1.386(4) .
C4 H4 0.9300 .
C5 C6 1.375(4) .
C5 H5 0.9300 .
C6 N2 1.464(3) .
N1 H1A 0.8900 .
N1 H1B 0.8900 .
N1 H1C 0.8900 .
N2 H2A 0.8900 .
N2 H2B 0.8900 .
N2 H2C 0.8900 .
Cl1 Bi1 2.7800(7) .
Cl1 Bi1 3.0041(8) 2_568
Cl2 Bi1 2.5328(8) .
Cl3 Bi1 2.6909(8) .
Cl4 Bi1 2.6614(7) .
Cl5 Bi1 2.6702(8) .
Bi1 Cl1 3.0041(8) 2_568
O1' H1'' 0.904(15) .
O1' H1' 0.898(15) .
loop_
_geom_hbond_atom_site_label_D
_geom_hbond_atom_site_label_H
_geom_hbond_atom_site_label_A
_geom_hbond_distance_DH
_geom_hbond_distance_HA
_geom_hbond_distance_DA
_geom_hbond_angle_DHA
_geom_hbond_site_symmetry_A
C1 H1 Cl1 0.93 2.95 3.839(3) 161.1 2_568
N1 H1A Cl4 0.89 2.30 3.183(3) 174.3 2_668
N1 H1B Cl5 0.89 2.27 3.160(3) 175.4 2_568
N1 H1C Cl2 0.89 2.66 3.327(3) 132.7 1_554
N1 H1C Cl4 0.89 2.75 3.486(3) 140.5 1_554
N2 H2A Cl3 0.89 2.40 3.206(3) 150.1 .
N2 H2A O1' 0.89 2.55 2.996(4) 111.5 2_658
N2 H2B Cl1 0.89 2.36 3.238(3) 167.0 1_655
N2 H2C O1' 0.89 1.87 2.748(4) 167.3 .
O1' H1'' Cl3 0.904(15) 2.30(2) 3.163(3) 159(4) 1_655
O1' H1' Cl4 0.898(15) 2.32(2) 3.154(3) 154(4) 2_658
C1 H1 Cl1 0.93 2.95 3.839(3) 161.1 2_568
N1 H1A Cl4 0.89 2.30 3.183(3) 174.3 2_668
N1 H1B Cl5 0.89 2.27 3.160(3) 175.4 2_568
N1 H1C Cl2 0.89 2.66 3.327(3) 132.7 1_554
N1 H1C Cl4 0.89 2.75 3.486(3) 140.5 1_554
N2 H2A Cl3 0.89 2.40 3.206(3) 150.1 .
N2 H2A O1' 0.89 2.55 2.996(4) 111.5 2_658
N2 H2B Cl1 0.89 2.36 3.238(3) 167.0 1_655
N2 H2C O1' 0.89 1.87 2.748(4) 167.3 .
O1' H1'' Cl3 0.904(15) 2.30(2) 3.163(3) 159(4) 1_655
O1' H1' Cl4 0.898(15) 2.32(2) 3.154(3) 154(4) 2_658
loop_
_geom_torsion_atom_site_label_1
_geom_torsion_atom_site_label_2
_geom_torsion_atom_site_label_3
_geom_torsion_atom_site_label_4
_geom_torsion
_geom_torsion_site_symmetry_1
_geom_torsion_site_symmetry_2
_geom_torsion_site_symmetry_3
_geom_torsion_site_symmetry_4
C6 C1 C2 C3 0.6(4) . . . .
C6 C1 C2 N1 179.7(3) . . . .
C1 C2 C3 C4 -0.3(4) . . . .
N1 C2 C3 C4 -179.4(3) . . . .
C2 C3 C4 C5 -0.1(5) . . . .
C3 C4 C5 C6 0.2(5) . . . .
C4 C5 C6 C1 0.2(4) . . . .
C4 C5 C6 N2 178.9(3) . . . .
C2 C1 C6 C5 -0.5(4) . . . .
C2 C1 C6 N2 -179.3(2) . . . .
