#------------------------------------------------------------------------------
#$Date: 2022-01-01 07:13:54 +0200 (Sat, 01 Jan 2022) $
#$Revision: 271676 $
#$URL: file:///home/coder/svn-repositories/cod/cif/1/56/58/1565886.cif $
#------------------------------------------------------------------------------
#
# This file is available in the Crystallography Open Database (COD),
# http://www.crystallography.net/. The original data for this entry
# were provided by IUCr Journals, http://journals.iucr.org/.
#
# The file may be used within the scientific community so long as
# proper attribution is given to the journal article from which the
# data were obtained.
#
data_1565886
loop_
_publ_author_name
'Olejniczak, Anna'
'Katrusiak, Anna'
'Podsiad\/lo, Marcin'
'Katrusiak, Andrzej'
_publ_section_title
;
 Stochastic hydration of a high-nitrogen-content molecular compound
 recrystallized under pressure
;
_journal_issue                   1
_journal_name_full               IUCrJ
_journal_page_first              49
_journal_page_last               54
_journal_paper_doi               10.1107/S2052252521010381
_journal_volume                  9
_journal_year                    2022
_chemical_formula_moiety         'C4 H2 Cl N5'
_chemical_formula_sum            'C4 H2 Cl N5'
_chemical_formula_weight         155.56
_chemical_name_systematic        6-chloro-1,2,3,4-tetrazolo[1,5-b]pyridazine
_space_group_crystal_system      monoclinic
_space_group_IT_number           14
_space_group_name_Hall           '-P 2ybc'
_space_group_name_H-M_alt        'P 1 21/c 1'
_atom_sites_solution_hydrogens   geom
_atom_sites_solution_primary     direct
_audit_creation_date             2020-07-14
_audit_creation_method
;
Olex2 1.3
(compiled 2020.06.28 svn.raecde09e for OlexSys, GUI svn.r6132)
;
_cell_angle_alpha                90
_cell_angle_beta                 101.20(2)
_cell_angle_gamma                90
_cell_formula_units_Z            4
_cell_length_a                   7.885(6)
_cell_length_b                   13.2116(6)
_cell_length_c                   5.6949(3)
_cell_measurement_reflns_used    1648
_cell_measurement_temperature    296(2)
_cell_measurement_theta_max      26.5970
_cell_measurement_theta_min      4.7330
_cell_volume                     582.0(4)
_computing_cell_refinement       'CrysAlisPro 1.171.40.67a (Rigaku OD, 2019)'
_computing_data_collection       'CrysAlisPro 1.171.40.67a (Rigaku OD, 2019)'
_computing_data_reduction        'CrysAlisPro 1.171.40.67a (Rigaku OD, 2019)'
_computing_molecular_graphics    'Olex2 1.3 (Dolomanov et al., 2009)'
_computing_publication_material  'Olex2 1.3 (Dolomanov et al., 2009)'
_computing_structure_refinement  'SHELXL 2018/3 (Sheldrick, 2015)'
_computing_structure_solution    'SHELXT 2018/2 (Sheldrick, 2018)'
_diffrn_ambient_environment      'diamond-anvil cell'
_diffrn_ambient_pressure         200000
_diffrn_ambient_temperature      296
_diffrn_detector                 'CCD plate'
_diffrn_detector_area_resol_mean 16.2413
_diffrn_detector_type            Eos
_diffrn_measured_fraction_theta_full 0.304
_diffrn_measured_fraction_theta_max 0.273
_diffrn_measurement_details
;
List of Runs (angles in degrees, time in seconds):

  # Type    Start    End  Width  t~exp~   \w     \q     \k     \f   Frames
--------------------------------------------------------------------------
  1  \f    -35.00  19.75   0.75   20.00   0.00 -30.00   0.00    --    73
  2  \f    140.00 200.00   0.75   20.00   0.00 -30.00   0.00    --    80
  3  \f    160.00 217.00   0.75   20.00   0.00  30.00   0.00    --    76
  4  \f    -20.00  34.75   0.75   20.00   0.00  30.00   0.00    --    73
  5  \w    -24.00  24.00   0.75   20.00    --   30.00  39.46 -12.90   64
  6  \w    -24.00  24.00   0.75   20.00    --   30.00  39.46 167.10   64
  7  \w    -50.00  10.00   0.75   20.00    --  -30.00  39.46 167.10   80
  8  \w    -50.00  10.00   0.75   20.00    --  -30.00  39.46 -12.90   80
  9  \w    -64.00  -8.50   0.75   20.00    --  -30.00  81.40 -28.90   74
 10  \w    -64.00  -8.50   0.75   20.00    --  -30.00  81.40 151.10   74
 11  \w    -19.00   8.00   0.75   20.00    --   30.00  81.40 151.10   36
 12  \w    -19.00   8.00   0.75   20.00    --   30.00  81.40 -28.90   36
 13  \w    -43.00 -21.25   0.75   20.00    --   30.00 134.60 -56.90   29
 14  \w    -43.00 -21.25   0.75   20.00    --   30.00 134.60 123.10   29
 15  \w    -90.00 -36.00   0.75   20.00    --  -30.00 134.60 123.10   72
 16  \w    -90.00 -36.00   0.75   20.00    --  -30.00 134.60 -56.90   72
;
_diffrn_measurement_device       'four-circle diffractometer'
_diffrn_measurement_device_type  'KM-4 CCD'
_diffrn_measurement_method
;
HP omega scans - for more details see:
A. Budzianowski, A. Katrusiak in High-Pressure Crystallography
(Eds.: A. Katrusiak, P. F. McMillan),
Dordrecht: Kluwer Acad. Publ., 2004 pp.157-168
;
_diffrn_orient_matrix_type
'CrysAlisPro convention (1999,Acta A55,543-557)'
_diffrn_orient_matrix_UB_11      0.0913621000
_diffrn_orient_matrix_UB_12      0.0006492000
_diffrn_orient_matrix_UB_13      0.0115607000
_diffrn_orient_matrix_UB_21      -0.0092788000
_diffrn_orient_matrix_UB_22      0.0205736000
_diffrn_orient_matrix_UB_23      -0.1167207000
_diffrn_orient_matrix_UB_31      0.0026243000
_diffrn_orient_matrix_UB_32      0.0495326000
_diffrn_orient_matrix_UB_33      0.0483012000
_diffrn_radiation_monochromator  graphite
_diffrn_radiation_probe          x-ray
_diffrn_radiation_type           'Mo K\a'
_diffrn_radiation_wavelength     0.71073
_diffrn_reflns_av_R_equivalents  0.0222
_diffrn_reflns_av_unetI/netI     0.0116
_diffrn_reflns_Laue_measured_fraction_full 0.304
_diffrn_reflns_Laue_measured_fraction_max 0.273
_diffrn_reflns_limit_h_max       2
_diffrn_reflns_limit_h_min       -2
_diffrn_reflns_limit_k_max       17
_diffrn_reflns_limit_k_min       -16
_diffrn_reflns_limit_l_max       7
_diffrn_reflns_limit_l_min       -7
_diffrn_reflns_number            3466
_diffrn_reflns_point_group_measured_fraction_full 0.304
_diffrn_reflns_point_group_measured_fraction_max 0.273
_diffrn_reflns_theta_full        25.242
_diffrn_reflns_theta_max         27.359
_diffrn_reflns_theta_min         3.960
_diffrn_source                   'fine-focus sealed X-ray tube'
_diffrn_source_type              'Enhance (Mo) X-ray Source'
_exptl_absorpt_coefficient_mu    0.566
_exptl_absorpt_correction_T_max  1.00000
_exptl_absorpt_correction_T_min  0.39414
_exptl_absorpt_correction_type   multi-scan
_exptl_absorpt_process_details
;
CrysAlisPro 1.171.39.46 (Rigaku Oxford Diffraction, 2018)
Empirical absorption correction using spherical harmonics,
 implemented in SCALE3 ABSPACK scaling algorithm.
;
_exptl_crystal_colour            colorless
_exptl_crystal_density_diffrn    1.775
_exptl_crystal_description       plate
_exptl_crystal_F_000             312
_exptl_crystal_size_max          0.28
_exptl_crystal_size_mid          0.26
_exptl_crystal_size_min          0.23
_refine_diff_density_max         0.072
_refine_diff_density_min         -0.064
_refine_diff_density_rms         0.016
_refine_ls_extinction_method     none
_refine_ls_goodness_of_fit_ref   1.100
_refine_ls_hydrogen_treatment    constr
_refine_ls_matrix_type           full
_refine_ls_number_parameters     91
_refine_ls_number_reflns         361
_refine_ls_number_restraints     0
_refine_ls_restrained_S_all      1.100
_refine_ls_R_factor_all          0.0288
_refine_ls_R_factor_gt           0.0207
_refine_ls_shift/su_max          0.000
_refine_ls_shift/su_mean         0.000
_refine_ls_structure_factor_coef Fsqd
_refine_ls_weighting_details
'w=1/[\s^2^(Fo^2^)+(0.0299P)^2^+0.0432P] where P=(Fo^2^+2Fc^2^)/3'
_refine_ls_weighting_scheme      calc
_refine_ls_wR_factor_gt          0.0477
_refine_ls_wR_factor_ref         0.0509
_reflns_Friedel_coverage         0.000
_reflns_number_gt                310
_reflns_number_total             361
_reflns_threshold_expression     'I > 2\s(I)'
_cod_data_source_file            lt5042.cif
_cod_data_source_block           C4H2N5Cl1@0_20GPa_phase_beta
_cod_database_code               1565886
_shelx_shelxl_version_number     2018/3
_chemical_oxdiff_formula         C4H2N5Cl1
_shelx_space_group_comment
;
The symmetry employed for this shelxl refinement is uniquely defined
by the following loop, which should always be used as a source of
symmetry information in preference to the above space-group names.
They are only intended as comments.
;
_reflns_odcompleteness_completeness 27.29
_reflns_odcompleteness_iscentric 1
_reflns_odcompleteness_theta     27.30
_olex2_refinement_description
;
1. Fixed Uiso
 At 1.2 times of:
  All C(H) groups
2.a Aromatic/amide H refined with riding coordinates:
 C8(H8), C7(H7)
;
_shelx_res_file
;
TITL 1a in P21/c #14
    1a.res
    created by SHELXL-2018/3 at 13:41:36 on 14-Jul-2020
REM reset to P21/c #14
CELL 0.71073 7.885392 13.211638 5.694928 90 101.1971 90
ZERR 4 0.005859 0.000562 0.000322 0 0.0228 0
LATT 1
SYMM -X,0.5+Y,0.5-Z
SFAC C H Cl N
UNIT 16 8 4 20

L.S. 44
PLAN  1
CONF
BOND
fmap 2 53
acta
MORE -1
BOND $H
REM <olex2.extras>
REM <HklSrc "%.\\1a.hkl">
REM </olex2.extras>

WGHT    0.029900    0.043200
FVAR      12.55764
CL1   3    1.028801    0.338976    0.840218    11.00000    0.07389    0.06317 =
         0.04411    0.00819    0.00033    0.00344
N4    4    0.555707    0.353374    0.536319    11.00000    0.05460    0.03299 =
         0.03578   -0.00062    0.01305   -0.00321
N5    4    0.703348    0.331604    0.700186    11.00000    0.02329    0.03796 =
         0.02920    0.00216   -0.01374    0.00329
N1    4    0.388224    0.414671    0.227375    11.00000    0.04900    0.04210 =
         0.04563   -0.00106   -0.00132    0.00214
N3    4    0.398445    0.337248    0.573643    11.00000    0.05359    0.04902 =
         0.05528   -0.00200    0.01951   -0.00389
N2    4    0.296640    0.375087    0.383201    11.00000    0.08984    0.04871 =
         0.05764   -0.00563    0.00645    0.01094
C8    1    0.703766    0.424531    0.254880    11.00000    0.05035    0.03652 =
         0.02469    0.00347   -0.00492    0.00445
AFIX  43
H8    2    0.701587    0.455311    0.107460    11.00000   -1.20000
AFIX   0
C6    1    0.843082    0.357971    0.632527    11.00000    0.11047    0.03009 =
         0.03850   -0.00086    0.02585   -0.00847
C9    1    0.560505    0.400842    0.325365    11.00000    0.14270    0.03122 =
         0.02703    0.00263    0.01915   -0.00362
C7    1    0.862356    0.401799    0.410296    11.00000    0.07452    0.03841 =
         0.03494   -0.00329    0.00109   -0.00468
AFIX  43
H7    2    0.969486    0.414336    0.370922    11.00000   -1.20000
AFIX   0
HKLF 4




REM  1a in P21/c #14
REM wR2 = 0.0509, GooF = S = 1.100, Restrained GooF = 1.100 for all data
REM R1 = 0.0207 for 310 Fo > 4sig(Fo) and 0.0288 for all 361 data
REM 91 parameters refined using 0 restraints

END

WGHT      0.0299      0.0432

REM Highest difference peak  0.072,  deepest hole -0.064,  1-sigma level  0.016
Q1    1   1.0492  0.4024  0.8616  11.00000  0.05    0.07
;
_shelx_res_checksum              39872
_shelx_hkl_file
;
   1   3   0 36166.6 681.206  10
  -1  -4   0 8140.09 364.021  13
  -1   4   0 7845.34 428.840  16
  -1   4   0 8524.08 393.840  15
  -1   4   0 8246.24 367.949  10
  -1   4   0 8278.32 345.515   7
   1  -4   0 8043.98 339.465  11
   1   4   0 8077.79 337.013  15
   1  -4   0 8518.58 378.407  14
   1   4   0 8044.11 355.582  16
   1   4   0 8459.38 355.375  10
   0   5   0 8.65001 91.9171  10
   0   5   0-37.6984 77.6241  15
   0   5   0 12.4833 78.6476   7
   0   5   0 133.598 104.748  16
   0  -5   0 35.6339 83.7486   6
   0  -5   0 3.96879 68.1642  12
   1  -5   0 1972.45 180.242   6
  -1  -5   0 1901.14 206.916  13
   1  -5   0 1877.03 198.556  14
   1   5   0 2134.98 221.143   7
  -1   5   0 2286.77 222.203  10
  -1   5   0 2007.73 257.649  16
   1   5   0 1851.54 192.657  10
  -1   5   0 2418.41 242.809  15
   1  -5   0 1703.59 183.915  11
   1   5   0 1977.92 189.407  15
   1   5   0 1791.00 195.626  16
  -1   5   0 2149.41 208.578   7
   1   5   0 1955.71 176.707   9
   0   6   0 175097. 1224.97   4
   0  -6   0 177477. 1702.30   6
   0  -6   0 175630. 1837.26  11
   0   6   0 175550. 1945.42  16
   0   6   0 174501. 1711.85   7
   0   6   0 176321. 1862.92  10
   0  -6   0 178742. 1503.02  12
   0   6   0 175674. 1625.32   9
   0   6   0 179332. 1835.57  15
  -1   6   0 104838. 1433.13   7
   1  -6   0 108024. 1511.55  14
  -1  -6   0 106127. 1580.19  13
   1   6   0 106982. 1551.19  16
  -1  -6   0 109190. 1420.15   6
   1   6   0 109255. 1067.24   4
   1   6   0 111476. 1507.15  15
  -1   6   0 112588. 1827.88  16
   1   6   0 108938. 1537.19   7
   1   6   0 109772. 1491.43  10
  -1   6   0 111005. 1602.74  15
   1  -6   0 105039. 1451.56  11
   1  -6   0 108311. 1404.66   6
  -1  -6   0 107603. 1177.06   3
  -1   6   0 111632. 1602.14  10
   1   6   0 111516. 1287.73   9
   0   7   0 66.6910 110.050   9
   0   7   0-122.467 169.729  16
   0   7   0 181.769 127.400   7
   0  -7   0-0.93848 103.334  12
   0   7   0-321.418 168.094  10
   0   7   0 11.7205 119.618  15
   0  -7   0-220.340 135.165   6
   1   7   0 2056.37 209.572   9
  -1   7   0 1552.66 256.708  10
   1   7   0 1566.52 243.111  16
   1  -7   0 1730.92 242.611  14
   1   7   0 1715.34 221.495  10
  -1  -7   0 2146.11 287.660  13
   1   7   0 1832.64 233.658  15
  -1   7   0 1849.69 257.200  15
   1   7   0 2175.78 256.308   7
   1  -7   0 1848.06 150.964   1
  -1  -7   0 1992.80 227.577   6
   1  -7   0 1901.82 235.208  11
  -1   7   0 1597.59 218.484   7
   1  -7   0 1816.93 223.093   6
  -1   7   0 1733.65 289.109  16
   0  -8   0 1008.04 178.332  12
   0  -8   0 940.428 241.199  13
   0  -8   0 701.385 206.317  14
   0   8   0 771.836 187.137   7
   0  -8   0 929.534 234.541  11
   0  -8   0 723.052 169.348   6
   0   8   0 857.619 223.312  16
   0   8   0 853.665 210.988  10
   0   8   0 777.757 189.220  15
   0   8   0 745.905 181.841   9
   1  -8   0 260.191 151.019   6
  -1   8   0 831.013 245.706  10
  -1   8   0 666.332 199.020  15
   1   8   0 612.166 188.164  15
   1   8   0 388.607 170.699  16
  -1   8   0 820.526 199.303   7
  -1  -8   0 272.886 192.718  13
   1   8   0 713.983 160.393   9
  -1  -8   0 799.090 208.620   6
  -1   8   0 942.476 270.333  16
   1  -8   0 796.830 213.404  11
   1   8   0 818.318 213.159   7
   1   8   0 663.985 205.153  10
   1  -8   0 773.663 216.588  14
  -2   8   0 508.000 257.593  10
  -2   8   0 370.301 273.567  15
  -2   8   0 394.983 221.679   7
   0  -9   0-288.782 233.248  13
   0   9   0 176.728 216.384  16
   0  -9   0 363.153 195.461  14
   0  -9   0 114.803 203.494  11
   0   9   0-143.855 204.520  10
   0   9   0-50.0965 167.127  15
   0  -9   0-33.8586 182.718   6
   0   9   0 69.4233 181.322   7
   1   9   0 3594.57 376.159  10
   1   9   0 3599.42 363.251  15
   1  -9   0 3684.35 386.239  14
  -1  -9   0 3818.00 399.167  13
   1  -9   0 3117.33 357.412  11
  -1   9   0 4018.75 429.171  10
   1  -9   0 3992.96 365.026   6
  -1  -9   0 3548.87 343.966   6
   1   9   0 3392.01 380.981  16
   1   9   0 3627.11 391.483   7
  -1   9   0 3312.60 344.762   7
  -1   9   0 3871.75 483.868  16
  -1   9   0 3622.63 389.741  15
  -2   9   0 1564.55 371.763  10
   2   9   0 1866.07 323.896  16
  -2   9   0 1104.90 311.858  15
  -2   9   0 1044.24 290.899   7
  -2  -9   0 1240.26 303.125   6
   0 -10   0 45396.7 1122.00   6
   0  10   0 45060.1 1206.16   7
   0  10   0 42927.5 1192.33  15
   0 -10   0 44563.4 1204.95  14
   0  10   0 45589.4 1289.23  10
   0 -10   0 38830.0 1220.65  13
   0 -10   0 44606.0 1227.73  11
   0  10   0 45459.9 1348.43  16
   1  10   0 14312.4 749.802   7
  -1  10   0 14601.1 789.629  10
  -1 -10   0 13950.3 642.411   6
   1  10   0 13711.0 688.612  15
   1 -10   0 14362.7 683.286   6
   1  10   0 13782.2 747.730  16
   1  10   0 14356.1 710.598  10
  -1  10   0 14796.8 879.630  16
  -1  10   0 12687.6 668.657   7
  -1 -10   0 12989.4 714.658  13
  -1  10   0 16983.6 803.932  15
   1 -10   0 15014.6 744.480  14
   1 -10   0 15277.7 741.191  11
  -2  10   0 11985.5 816.971  10
  -2 -10   0 10911.4 641.984   6
  -2  10   0 10382.4 759.657  15
  -2  10   0 11619.5 701.428   7
   2  10   0 12135.1 714.786  16
   2  10   0 10927.0 659.680  10
   0 -11   0-395.862 299.631  11
   0 -11   0-115.827 244.193  14
   0  11   0 0.33888 237.354  10
   0  11   0 214.874 261.854  16
   0  11   0 172.328 207.767  15
   0 -11   0 277.454 290.270  13
   1  11   0 3213.38 402.421  15
  -1 -11   0 4345.81 498.603  13
  -1  11   0 4978.37 622.170  16
   1  11   0 3861.55 433.575  10
   1 -11   0 3790.88 447.085  11
  -1  11   0 4244.51 510.477  10
   1 -11   0 4420.73 488.059  14
   1  11   0 3633.93 475.136  16
  -1  11   0 3565.29 451.047  15
   2  11   0 5242.18 527.720  16
  -2  11   0 5816.27 645.361  10
   2  11   0 5060.74 496.144  10
  -2  11   0 4990.90 561.414  15
   0  12   0 96525.0 2026.29  15
   0 -12   0 95670.7 2081.20  13
   0 -12   0 96287.0 2045.22  14
   0  12   0 96988.4 2288.44  16
   0 -12   0 96507.6 2014.71  11
   0  12   0 93925.5 2132.16  10
   1  12   0 802.430 289.097  15
   1  12   0 339.619 309.563  10
   1 -12   0 816.656 324.424  11
  -1  12   0 438.895 300.355  15
  -1 -12   0 790.356 330.190  11
   1 -12   0 803.912 316.530  14
  -1 -12   0 603.179 347.477  13
  -1  12   0 580.019 368.259  16
   1  12   0 1493.75 454.276  16
  -1  12   0 753.732 363.312  10
  -2  12   0 12269.9 883.473  15
   2  12   0 11274.6 774.729  16
  -2  12   0 13689.1 973.085  10
   2  12   0 12404.2 789.248  10
   0 -13   0-167.341 347.030  13
   0  13   0 257.733 355.380  16
   0 -13   0-245.029 315.399  11
   0  13   0-121.848 299.229  15
   0 -13   0 68.2742 309.835  14
   0  13   0-156.611 333.639  10
  -1  13   0 21.8608 404.792  16
  -1  13   0 1009.59 408.992  10
  -1  13   0 237.261 305.128  15
   1  13   0 423.387 256.121  15
   1 -13   0 344.299 316.501  11
   1 -13   0 1148.48 412.230  13
   1 -13   0-228.301 367.470  14
  -1 -13   0 1078.60 392.235  14
  -1 -13   0 167.810 322.905  13
  -1 -13   0 466.446 345.172  11
   1  13   0 1088.70 379.240  10
   1  13   0 234.252 350.016  16
  -2  13   0-121.093 378.810  15
  -2  13   0 27.9925 413.312  10
   2  13   0 31.2913 340.557  16
   0 -14   0 1281.42 455.409  13
   0  14   0 2110.05 479.068  10
   0 -14   0 1226.94 416.615  11
   0 -14   0 1438.54 454.498  14
   0  14   0 842.536 475.213  16
   0  14   0 1477.26 403.101  15
  -1 -14   0 214.509 368.585  11
  -1  14   0 124.356 414.331  10
  -1 -14   0 84.7882 409.241  14
  -1 -14   0 915.609 451.850  13
  -1  14   0 201.886 365.794  15
   1 -14   0 308.248 368.959  11
   1 -14   0-178.382 370.814  14
   1  14   0 502.800 357.883  10
  -1  14   0 10.2792 472.226  16
   1  14   0-92.9878 404.635  16
   1  14   0 259.325 279.600  15
   1 -14   0-348.544 379.094  13
  -2  14   0-326.363 442.825  10
  -2  14   0 67.0837 452.757  15
   0 -15   0-239.737 415.534  14
   0  15   0-200.393 358.101  15
   0 -15   0 590.367 427.280  11
   0 -15   0-423.078 464.579  13
   0  15   0-562.268 446.786  10
   0  15   0 804.580 568.096  16
  -1 -15   0 970.798 489.626  14
   1 -15   0 948.509 406.135  11
   1 -15   0 1881.24 523.443  13
   1  15   0 965.737 430.362  15
  -1  15   0 1533.39 571.153  10
  -1 -15   0 1405.04 496.093  11
   1  15   0 1621.71 504.252  16
  -1  15   0 893.606 542.746  16
  -1  15   0 1216.45 432.910  15
   1  15   0 1312.72 451.874  10
  -2  15   0-245.833 437.696  15
   2 -15   0 144.663 438.063  13
  -2  15   0 601.731 573.473  10
   0  16   0 18859.9 1253.09  10
   0 -16   0 17613.0 1187.47  14
   0 -16   0 19755.9 1253.89  13
   0  16   0 19511.2 1212.95  15
  -1  16   0 449.000 535.149  10
   1  16   0-304.617 341.247  15
  -1  16   0-241.525 417.205  15
   1  16   0-426.095 431.692  10
  -1 -16   0 648.348 501.693  14
   1  16   0 210.767 527.249  16
   0  17   0 204.346 407.681  15
  -1  17   0-65.3570 461.033  15
   0  -1   1 406594. 2197.06   3
   0  -2   1 17003.0 416.759   3
   0   2  -1 17031.7 396.526   4
   0  -2  -1 17964.1 376.755   5
   0  -2  -1 16670.9 403.369  12
   0  -2   1 17265.4 402.086   6
  -1  -3   1 999999. 5244.01   1
   0  -3   1 306635. 1959.55  11
   0   3   1 301511. 2038.31  15
   0   3   1 310774. 2115.73   9
   0  -3   1 307450. 1963.75   1
   0  -3  -1 304373. 1801.72   5
   0  -3   1 308469. 2083.96   6
   0   3  -1 310390. 1963.24   4
   0   3  -1 314315. 2077.69   7
   0   3  -1 301937. 2003.97   2
   0   3   1 306131. 2161.31  16
   0  -3  -1 304109. 2067.95  12
   0   3  -1 304921. 1955.32  10
   0  -3   1 299185. 2041.92   3
   1  -3   1 135793. 1490.32   6
  -1   3  -1 134452. 1545.86   7
  -1  -3  -1 135113. 1491.33  12
  -1   4   1-73.9514 128.367   9
   1  -4  -1 135.496 96.6686  14
   1   4  -1 156.739 77.3463  10
  -1  -4   1 151.078 108.971   3
   1   4  -1 80.8412 89.6739   7
   1  -4  -1 166.477 84.5791  11
  -1   4   1 104.360 119.815  16
   1   4  -1 6.08775 89.0964   2
  -1  -4   1-9.30874 121.650   1
  -1  -4   1-27.6573 100.416   6
  -1   4   1 107.746 97.3613  15
   1   4  -1 217.550 81.7131   4
  -1   4   1 94.0303 87.3802  10
   1   4   1 1236.53 189.608  16
   1  -4   1 1242.22 171.642  11
  -1  -4  -1 1095.36 177.859  13
   1   4   1 1142.54 160.009  15
   1  -4   1 1055.51 160.024   6
  -1  -4  -1 1400.85 187.644  12
   1   4   1 1150.12 170.040   9
  -1   4  -1 1355.36 177.260  10
   1  -4   1 1203.56 150.116   1
  -1   4  -1 1188.68 145.965   2
  -1   4  -1 1103.61 166.985   7
   1  -5  -1 39906.3 828.775  14
   1   5  -1 38502.2 729.057   4
  -1   5   1 38682.1 933.789  15
   1   5  -1 39553.7 758.107  15
  -1  -5   1 39283.1 977.147   1
   1  -5  -1 39126.2 780.145  11
  -1   5   1 37391.1 981.904  16
   1  -5  -1 38591.8 632.792   5
  -1   5   1 40284.0 1025.62   9
  -1   5   1 39459.2 854.341  10
   1   5  -1 38762.5 840.743   7
   1   5  -1 38517.3 816.367  10
   1   5  -1 40674.3 897.370   2
   1   5  -1 37634.6 749.123  16
  -1  -5   1 38528.8 827.116   3
  -1  -5   1 39348.3 901.896   6
   0   5   1 108091. 1392.64  15
   0  -5  -1 102926. 1002.13   5
   0   5  -1 103755. 1236.05   2
   0   5   1 106218. 1339.84   9
   0   5  -1 98790.7 1312.23   7
   0  -5   1 104617. 1168.91  14
   0  -5   1 102211. 1347.96   6
   0  -5   1 102422. 1312.99  11
   0   5  -1 106154. 1347.33  10
   0   5  -1 106933. 1279.24  16
   0  -5   1 104251. 1206.74   1
   0  -5  -1 103895. 1314.78  12
   0   5  -1 105158. 1138.02  15
   0   5   1 105162. 1279.99  10
   0  -5   1 104200. 1266.32   3
   0   5  -1 98049.3 1156.62   4
   0   5   1 101862. 1433.20  16
  -1   5  -1 8922.04 443.707   7
   1   5   1 9020.88 429.199  15
  -1   5  -1 8837.27 388.127   2
   1   5   1 9227.90 470.859  16
   1   5   1 9641.67 451.413   9
   1  -5   1 8572.15 383.127   1
  -1   5  -1 8947.53 437.464  10
   1   5   1 8840.31 348.099   8
   1  -5   1 9217.65 438.991   6
  -1  -5  -1 8776.53 454.576  13
  -1   5  -1 8036.89 377.462  15
   1   5   1 9558.64 430.541  10
  -1  -5  -1 8559.57 427.584  12
   1  -5   1 8733.96 423.450  11
  -1   6   1 36263.1 696.405   7
   1   6  -1 36375.3 805.083  16
  -1  -6   1 36430.0 814.887   3
   1  -6  -1 35557.8 811.968  11
   1   6  -1 37442.5 925.053   2
   1   6  -1 34590.2 786.503  15
  -1   6   1 36284.2 895.539  10
   1   6  -1 36096.2 872.241   7
   1   6  -1 36048.5 861.866  10
  -1   6   1 35378.3 1020.54   9
  -1   6   1 36197.7 987.283  15
  -1  -6   1 37925.3 1029.91   1
  -1  -6   1 34757.0 836.518  13
  -1  -6   1 33947.1 895.671   6
  -1   6   1 34705.6 1025.43  16
   1   6  -1 37130.9 730.418   4
   1  -6  -1 36147.4 851.471  14
   1  -6  -1 35665.9 598.499   5
   1   6   1 7587.10 324.681   8
   1  -6   1 7151.04 405.270  11
  -1   6  -1 8200.51 407.029  15
   1   6   1 7095.53 443.395  10
   1  -6   1 7383.55 368.070   1
  -1   6  -1 7439.93 440.814   7
  -1  -6  -1 7161.55 416.883  12
  -1  -6  -1 7223.70 445.188  13
  -1   6  -1 7605.16 434.971  10
   1   6   1 7339.76 425.351  15
   1   6   1 7090.18 446.730  16
  -1   6  -1 7338.10 378.265   2
   1  -6   1 7749.56 429.550   6
   1   6   1 6904.09 406.131   9
  -2   7   1 10554.9 675.470  15
   2   7  -1 10530.1 544.323  10
  -2   7   1 10499.4 629.286  10
   1   7  -1 270104. 2785.79   2
  -1  -7   1 262900. 3043.71   1
  -1   7   1 264315. 3051.15   9
  -1   7   1 264625. 2709.43  10
   1   7  -1 270418. 2611.18  10
   1   7  -1 265494. 2461.15  15
  -1  -7   1 268725. 2692.63   6
  -1   7   1 266625. 2207.23   7
  -1   7   1 267562. 3095.73  16
   1   7  -1 263466. 2598.42   7
   1   7  -1 267970. 2156.21   4
   1  -7  -1 266659. 2586.86  14
   1  -7  -1 274147. 2542.05  11
  -1  -7   1 269916. 2621.95  13
  -1  -7   1 270793. 2360.70   3
   1   7  -1 270150. 2476.49  16
  -1   7   1 267411. 2870.16  15
   0   7   1 37988.4 936.080  10
   0  -7  -1 36866.5 1002.30  13
   0  -7  -1 40368.4 723.580   6
   0  -7   1 38985.4 957.718  11
   0   7  -1 38058.5 769.052   4
   0   7   1 40083.6 844.752   7
   0  -7   1 38355.4 817.896   1
   0  -7  -1 40332.4 917.058  11
   0   7  -1 38306.0 949.551  10
   0  -7   1 37943.5 943.478   6
   0   7   1 39198.8 1042.90  16
   0   7  -1 35758.7 915.476  16
   0   7  -1 37139.1 843.005   2
   0  -7   1 40316.2 856.274   3
   0   7  -1 39036.1 848.482  15
   0  -7   1 34068.5 842.742  13
   0   7  -1 37377.9 933.394   7
   0  -7  -1 38656.5 887.916  12
   0  -7   1 37233.9 860.520  14
   0   7   1 39049.2 947.784   9
   0   7   1 38829.4 975.188  15
  -1   7  -1 14430.8 634.861   7
   1  -7   1 14264.9 613.962  11
  -1  -7  -1 14617.9 662.355  13
  -1   7  -1 15367.8 566.322   2
   1   7   1 14020.2 601.425  10
  -1   7  -1 14847.4 576.298  15
   1   7   1 14382.2 664.098  16
  -1   7  -1 14946.7 654.289  10
   1  -7   1 15374.9 642.722   6
  -1  -7  -1 14941.9 598.195  12
   1  -7   1 14995.8 528.740   1
   1   7   1 13766.9 587.996   9
  -1  -7  -1 14482.2 463.940   6
   1   7   1 14310.3 614.070  15
  -2   8   1 51954.2 1688.61  16
   2   8  -1 51595.3 1259.75  10
  -2   8   1 51346.1 1428.99  10
  -2   8   1 50099.8 1530.86  15
  -2  -8   1 52461.5 1401.05   6
   2   8  -1 52832.5 1248.20  16
  -1   8   1 1063.24 296.540  16
   1   8  -1 933.358 178.494   4
  -1   8   1 815.541 248.880   9
   1  -8  -1 919.876 227.344  11
   1  -8  -1 962.403 233.394  14
   1   8  -1 926.923 204.000   7
   1   8  -1 1125.14 231.847  10
  -1  -8   1 777.114 239.093   6
   1   8  -1 981.661 218.573  16
  -1   8   1 1016.69 267.843  15
  -1  -8   1 1168.72 240.584  13
  -1   8   1 866.869 216.361  10
   1   8  -1 916.466 192.427  15
   0   8  -1 528389. 3688.98  15
   0  -8  -1 536501. 4289.11  13
   0   8  -1 541857. 3389.04   4
   0   8   1 530202. 4435.64  16
   0  -8   1 540415. 4100.41  11
   0   8   1 535612. 4014.12   9
   0  -8  -1 527062. 3911.01  11
   0  -8   1 531126. 3822.92  14
   0   8  -1 537952. 4124.66  16
   0   8   1 544775. 4148.29  15
   0   8  -1 546181. 4077.97   7
   0  -8  -1 534187. 3793.56  12
   0   8  -1 532174. 4112.12  10
   0  -8   1 535798. 4023.31   6
   0  -8   1 536789. 3857.86  13
   0  -8   1 538887. 3607.73   1
   0   8   1 526811. 4050.61  10
  -1   8  -1 3723.73 372.643   7
   1  -8   1 3677.91 295.920   1
  -1   8  -1 3791.48 432.925  16
  -1   8  -1 3904.19 345.402  15
   1  -8   1 3901.83 369.649   6
  -1   8  -1 3390.86 314.752   2
  -1  -8  -1 3667.21 334.377  12
   1   8   1 3379.74 346.932  10
   1   8   1 3586.76 334.845   9
   1   8   1 3454.02 393.239  16
   1   8   1 3859.53 364.417  15
   1  -8   1 3599.49 347.141  11
  -1   8  -1 3578.54 382.464  10
  -1  -8  -1 3856.35 406.295  13
  -2   8  -1 9552.75 606.747   7
  -2   8  -1 9843.94 629.985  10
  -2   9   1 1221.69 382.862  16
   2   9  -1 1104.09 277.650  16
  -2   9   1 466.511 321.106  15
  -2   9   1 457.545 291.906  10
   2   9  -1 574.003 196.244  10
  -2  -9   1 499.221 267.577   6
  -1   9   1 44850.2 1394.36   9
  -1   9   1 44714.5 1289.47  15
   1  -9  -1 44774.5 1167.27  14
  -1  -9   1 45709.7 1201.20   6
   1   9  -1 44634.2 1111.22  15
   1  -9  -1 42207.1 1114.50  11
  -1  -9   1 43215.0 1166.33  13
  -1   9   1 40059.6 1206.64  10
   1   9  -1 43885.2 1129.93  16
  -1   9   1 46005.7 1424.14  16
   1   9  -1 43531.5 1161.55  10
   1   9  -1 42347.6 1149.76   7
   0   9  -1 8051.57 525.415   7
   0  -9   1 8780.08 519.188  14
   0  -9  -1 8673.06 492.839  12
   0  -9   1 7925.87 510.779  13
   0   9  -1 8785.42 554.551  10
   0   9  -1 8448.46 480.462  15
   0   9   1 7952.51 542.895  10
   0   9   1 7731.92 515.203   9
   0   9   1 8014.05 529.080  15
   0  -9   1 8682.10 543.909  11
   0  -9  -1 7951.56 573.897  13
   0  -9  -1 8455.36 541.114  14
   0  -9   1 8189.80 512.739   6
   0   9  -1 7677.79 530.682  16
   0  -9  -1 7921.21 496.718  11
   0   9   1 8980.29 611.306  16
  -1   9  -1 42449.5 1241.83  10
  -1  -9  -1 40721.0 1116.72  12
   1   9   1 38090.0 1034.38   9
  -1   9  -1 37295.5 1369.71  16
   1  -9   1 43352.3 1175.28  11
  -1  -9  -1 48304.7 1381.07  13
   1   9   1 39008.3 1130.65  15
  -1   9  -1 41680.1 1106.79  15
   1   9   1 37552.8 1104.95  10
  -1   9  -1 39753.4 1176.66   7
   1  -9   1 41060.8 1166.62   6
   1   9   1 36501.9 1158.28  16
  -2   9  -1 8073.05 600.785  15
  -2   9  -1 8372.58 604.986   7
  -2   9  -1 7716.21 626.348  10
  -2 -10   1 4063.52 506.259   6
   2  10  -1 4231.63 437.933  16
  -2  10   1 4477.86 642.273  16
  -2  10   1 5059.47 588.243  15
   2  10  -1 4839.79 462.670  10
  -2  10   1 3936.80 529.871  10
  -1 -10   1 21451.2 882.360   6
   1 -10  -1 22962.2 900.911  11
  -1 -10   1 20998.1 886.666  13
   1  10  -1 23618.7 922.626   7
  -1  10   1 21187.9 957.533  15
   1  10  -1 24250.8 870.684  15
   1 -10  -1 22226.7 886.076  14
  -1  10   1 22880.1 977.020  10
  -1  10   1 24519.6 1139.47  16
   1  10  -1 22472.0 901.851  10
   1  10  -1 21237.6 873.705  16
   0  10   1 8433.57 636.169  16
   0 -10  -1 7326.68 548.522  14
   0  10  -1 6759.49 473.312  15
   0 -10   1 7091.99 511.119   6
   0  10   1 7732.41 578.722  10
   0  10  -1 8024.89 595.666  16
   0 -10   1 7348.31 525.419  14
   0 -10   1 8039.95 584.701  11
   0  10  -1 7588.85 548.575   7
   0  10  -1 8064.52 568.312  10
   0 -10  -1 7110.15 590.743  13
   0  10   1 7779.01 573.588  15
   0 -10   1 8018.48 524.356  13
   0 -10  -1 8026.32 550.725  11
   0 -10  -1 7313.86 486.768  12
   1  10   1 3634.20 458.690  16
  -1 -10  -1 4071.44 483.780  13
   1  10   1 3484.91 394.139  15
  -1  10  -1 3601.54 423.959   7
  -1  10  -1 3450.42 417.091  10
   1  10   1 3981.60 406.861   9
   1 -10   1 3915.82 442.259  11
  -1  10  -1 4610.14 441.213  15
  -1  10  -1 3780.63 530.398  16
   1  10   1 4161.13 446.676  10
   1 -10   1 4213.60 444.809   6
  -2  10  -1 2664.12 401.510  15
  -2  10  -1 2557.78 446.802  10
  -2  10  -1 2438.55 428.163   7
   2  11  -1 3759.85 432.674  10
  -2  11   1 3827.52 572.673  15
   2  11  -1 4416.54 471.008  16
  -2  11   1 4253.80 573.114  10
  -2 -11   1 4286.03 519.086   6
  -2  11   1 5697.35 722.671  16
  -1  11   1 7558.74 651.972  15
   1  11  -1 6817.56 555.772   7
  -1  11   1 6440.44 662.404  16
  -1 -11   1 6948.94 561.133   6
  -1 -11   1 5605.58 527.136  13
   1  11  -1 7302.68 527.391  15
  -1 -11   1 6922.91 554.556  14
  -1 -11   1 6665.05 621.079  11
  -1  11   1 7258.16 626.666  10
   1 -11  -1 6155.11 545.355  14
   1 -11  -1 6262.25 544.311  11
   1  11  -1 7004.17 564.601  16
   1  11  -1 7251.57 577.603  10
   0  11  -1 1644.99 302.271  15
   0  11   1 1295.75 385.549  16
   0  11  -1 1720.41 374.230  16
   0 -11  -1 2032.41 386.597  13
   0 -11   1 1524.09 349.040  13
   0  11  -1 1269.55 347.700   7
   0  11   1 2118.71 379.473  10
   0 -11  -1 1621.02 347.922  11
   0  11   1 1498.56 318.893  15
   0 -11   1 1635.29 385.206  11
   0 -11   1 1592.07 337.005   6
   0  11  -1 1200.94 323.632  10
   0 -11  -1 1836.32 348.401  14
   0 -11   1 2027.10 368.964  14
   1  11   1 543.161 269.793  15
  -1  11  -1 800.869 375.120  16
   1 -11   1 807.704 306.242   6
  -1 -11  -1 751.236 349.355  13
   1  11   1 587.971 304.641  16
   1 -11   1 424.746 287.439  11
  -1  11  -1 1038.23 365.377   7
  -1  11  -1-149.139 273.391  15
  -1  11  -1 869.816 365.709  10
   1  11   1 168.001 247.710  10
  -2  11  -1 6266.13 657.929  10
  -2  11  -1 5912.77 557.670  15
  -2  11  -1 5290.26 581.642   7
  -2  12   1 8253.20 811.052  10
  -2 -12   1 6645.44 640.497   6
  -2  12   1 7454.03 752.813  15
   2  12  -1 6690.79 592.570  10
  -1  12   1 1084.22 435.438  16
  -1 -12   1 960.925 336.766  14
  -1 -12   1 1345.65 425.307  11
   1 -12  -1 482.304 352.410  13
   1  12  -1 1065.55 316.973  10
   1  12  -1 1421.84 323.531  15
  -1 -12   1 1391.80 366.591   6
  -1  12   1 824.832 356.868  15
  -1  12   1 989.432 395.537  10
   1 -12  -1 790.164 317.055  14
   1 -12  -1 1059.70 337.885  11
   1  12  -1 1247.36 348.911   7
   0 -12  -1 19117.9 922.383  11
   0 -12   1 19799.2 962.989  14
   0 -12   1 19477.5 970.059  11
   0 -12  -1 19199.1 941.825  14
   0  12  -1 17257.7 840.280  15
   0  12  -1 18602.6 959.687  10
   0  12  -1 18115.7 950.726   7
   0 -12  -1 18219.7 978.321  13
   0  12   1 18912.6 1060.17  16
   0  12   1 18539.2 940.592  15
   0 -12   1 19235.7 910.592   6
   0  12   1 19228.0 984.721  10
  -1  12  -1 151.627 282.813  15
   1  12   1 167.885 332.898  16
   1 -12   1-225.099 324.651  11
  -1 -12  -1 489.930 380.068  13
  -1 -12  -1 58.1401 293.940  11
   1 -12   1 178.148 292.767   6
   1  12   1 292.220 266.255  15
  -1  12  -1 533.737 342.931   7
  -1  12  -1-88.7960 337.263  10
   1  12   1 669.608 321.863  10
  -2  12  -1 6892.98 709.174  10
  -2  12  -1 6953.32 713.428   7
  -2 -13   1 275.557 387.070   6
   2  13  -1-177.882 270.191  10
  -2  13   1-405.157 448.680  15
  -2  13   1-38.5259 433.599  10
  -1 -13   1 5228.94 555.027   6
  -1  13   1 5401.95 639.239  15
   1 -13  -1 6256.11 619.033  14
  -1  13   1 5370.30 688.308  10
   1 -13  -1 5368.95 579.781  11
   1 -13  -1 5055.09 640.499  13
  -1 -13   1 5250.12 626.597  11
   1  13  -1 5074.87 589.751  10
  -1  13   1 5063.10 718.012  16
   1  13  -1 5982.26 622.055   7
   0  13  -1-300.449 313.217   7
   0 -13   1-7.17705 289.393   6
   0  13  -1-280.845 313.011  10
   0  13   1-282.738 364.732  10
   0 -13  -1 644.953 425.404  13
   0 -13  -1 437.449 304.051  11
   0 -13  -1-402.199 326.990  14
   0 -13   1 715.554 376.153  11
   0  13   1 163.867 423.145  16
   0  13   1 475.279 313.873  15
  -1 -13  -1 15410.2 1046.30  13
  -1  13  -1 9156.94 750.960   7
   1  13   1 12829.0 887.077  15
  -1  13  -1 10579.5 838.130  10
   1 -13   1 10314.3 766.941   6
  -1 -13  -1 15007.8 923.199  11
  -1 -13  -1 11843.5 839.422  14
   1 -13   1 11635.4 838.743  11
   1  13   1 13162.8 931.486  10
  -2  13  -1 861.037 490.915   7
  -2  13  -1 771.901 431.354  10
  -2  14   1 2519.76 627.917  15
  -2 -14   1 2130.36 576.267  11
  -2  14   1 1608.53 588.839  10
   2  14  -1 2341.26 455.185  10
  -1  14   1 14558.9 1003.97  15
  -1  14   1 18430.3 1290.19  16
   1 -14  -1 16148.2 1055.08  13
   1 -14  -1 17049.8 1018.89  14
  -1  14   1 17246.6 1142.89  10
   1  14  -1 16595.9 1009.68  10
  -1 -14   1 17821.5 1087.35  11
   1 -14  -1 18352.8 1018.43  11
   0 -14  -1 3540.26 584.236  13
   0  14   1 3968.89 571.307  15
   0  14   1 2623.40 530.117  10
   0 -14  -1 4472.70 588.486  14
   0  14   1 3345.22 608.722  16
   0 -14  -1 3466.64 529.495  11
   0 -14   1 4067.81 583.825  11
   0  14  -1 3580.86 564.268  10
   1  14   1 1589.66 469.845  15
  -1 -14  -1 1015.16 398.725  11
   1 -14   1 1291.52 412.133  11
  -1  14  -1 1861.49 514.406  10
   1  14   1 675.879 331.184  10
   1  14   1 1279.83 437.624  16
  -1 -14  -1 1479.85 464.379  13
  -1 -14  -1 1371.09 449.571  14
  -2  14  -1-571.558 486.619  10
   2 -15  -1 535.992 482.516  13
  -2  15   1 1727.90 704.051  10
  -2  15   1 1082.40 576.611  15
   1  15  -1 1186.38 412.159  10
  -1  15   1 1000.51 573.446  16
  -1 -15   1 1024.37 497.244  11
   1 -15  -1 1051.95 397.593  11
  -1  15   1 297.744 409.883  15
   1 -15  -1 1005.08 456.307  14
  -1  15   1 757.245 497.686  10
   1 -15  -1 555.537 463.175  13
   0  15   1 379.495 381.590  15
   0  15   1 659.886 440.510  10
   0  15   1 51.7629 481.197  16
   0 -15  -1 564.910 448.733  14
   0 -15   1 75.9636 394.374  11
   0 -15  -1-554.217 407.671  11
   0  15  -1-114.621 382.127  10
   0 -15  -1 348.975 423.639  13
   1  15   1 2124.37 480.965  15
   1  15   1 3336.82 671.064  16
  -1  15  -1 1598.12 524.641  10
  -1 -15  -1 2811.48 593.770  14
  -1 -15  -1 2215.53 516.887  11
   1 -15   1 2524.11 524.910  11
   1  15   1 3642.11 589.102  10
  -2  16   1-286.408 570.559  15
  -1  16   1 31.2831 432.625  15
   1  16  -1 277.711 401.835  10
  -1  16   1 226.817 499.628  10
  -1  16   1 124.007 603.464  16
   0  16   1 2925.49 664.026  16
   0 -16  -1 1610.91 494.634  11
   0  16   1 2474.44 581.971  15
   0  16  -1 2454.72 582.783  10
   0  16   1 1722.58 577.214  10
   1  16   1-639.981 451.761  15
   1  16   1 647.147 581.306  16
  -1  16  -1 86.3385 461.839  10
   1  16   1 641.904 410.865  10
   1   0  -2 185858. 1681.89   4
   1   0  -2 174974. 1703.31   2
  -1   0   2 179637. 1962.90   8
  -1   0   2 179470. 1952.67   3
  -1   0   2 181022. 1867.75   1
  -1   0   2 180819. 1971.23   9
   1   0  -2 176030. 1708.57   5
   0   0  -2 269333. 2042.47   4
   0   0  -2 272863. 1979.38  12
   0   0  -2 265779. 2117.03   2
   0   0   2 272698. 1831.39   6
   0   0  -2 270545. 2131.73   5
   0   0   2 273524. 2185.75   8
   0   0   2 268584. 2019.68   9
   0   0   2 267434. 2064.95   1
   0   0   2 278625. 2195.84   3
   1   0   2 21197.0 664.157   8
   1   0   2 19713.4 614.199   3
  -1   0  -2 20438.2 602.623   2
  -1   0  -2 21201.4 627.682   5
   1   0   2 21176.7 613.954   1
   1   1  -2 477012. 2980.01   4
  -1   1   2 468188. 3363.98   8
  -1  -1   2 471025. 3387.97   8
   1  -1  -2 460405. 2775.58   4
   1   1  -2 474112. 2798.62   7
   1  -1  -2 470978. 2997.74   5
  -1  -1   2 469113. 3013.54   6
  -1  -1   2 480340. 3274.59   1
  -1  -1   2 470054. 3410.17   3
  -1   1   2 459226. 3197.97   3
  -1   1   2 466727. 3169.00   1
  -1   1   2 477194. 3429.95   9
   1  -1  -2 481496. 2949.88   2
   1   1  -2 461574. 3053.04   2
   1   1  -2 469766. 2961.49   5
  -1  -1   2 466359. 3409.80   9
   0  -1   2 70814.0 950.319   6
   0   1  -2 73272.0 1088.20   2
   0   1   2 72867.7 1082.80   8
   0  -1   2 69602.9 1035.69   8
   0   1   2 69261.9 1001.35   3
   0   1  -2 72388.7 1027.88   5
   0  -1   2 71827.6 1050.11   1
   0  -1   2 66283.2 1070.07   3
   0  -1  -2 73209.5 1005.68   2
   0  -1  -2 70618.7 863.489  13
   0   1  -2 70440.2 1035.43   4
   0   1  -2 70156.8 925.755   7
   0  -1  -2 70221.6 1012.18  12
   0  -1  -2 71500.0 1050.34   5
   0  -1  -2 70947.7 953.127   4
   0   1   2 70089.4 1046.80   9
   0  -1   2 70297.6 896.580   9
   0   1   2 72089.2 967.642   1
   0   1  -2 70682.1 880.393  12
   1   1   2 142518. 1746.15   8
   1  -1   2 138976. 1709.96   8
   1  -1   2 141548. 1703.48   3
  -1   1  -2 139942. 1521.12   7
   1  -1   2 140271. 1656.25   1
  -1   1  -2 129814. 1594.78   5
   1   1   2 138148. 1690.57   9
  -1  -1  -2 143066. 1654.65   5
  -1   1  -2 140212. 1641.85   2
  -1   2   2 216096. 2152.02  16
  -1   2   2 218588. 2220.20   8
  -1  -2   2 218313. 2234.09   8
   1   2  -2 222735. 2052.01   2
  -1   2   2 215357. 1910.07  15
   1  -2  -2 206438. 1811.63   2
   1  -2  -2 211113. 1751.54  14
   1  -2  -2 217104. 1931.01   5
   1   2  -2 216190. 1886.78   7
  -1  -2   2 214567. 2047.33   6
  -1   2   2 216978. 1985.59   3
   1  -2  -2 225310. 1718.93   4
   1   2  -2 214432. 1847.57   5
  -1  -2   2 221861. 2288.23   3
  -1  -2   2 212243. 2138.69   1
   1   2  -2 221056. 1967.95   4
  -1   2   2 217951. 2101.89   1
  -1   2   2 214335. 2271.67   9
   0  -2   2 10559.7 401.214   8
   0  -2  -2 10905.9 354.790   4
   0   2   2 10845.7 354.095   1
   0   2   2 10716.4 360.460  15
   0   2  -2 10335.5 393.289   7
   0   2  -2 10459.5 305.611  12
   0  -2  -2 10569.9 412.881   5
   0  -2   2 10568.1 333.442  11
   0  -2  -2 11124.9 384.809  13
   0   2   2 10645.3 380.589   3
   0   2   2 10108.4 379.701  16
   0   2  -2 10712.4 423.323   4
   0  -2   2 10222.3 391.668   6
   0  -2   2 10172.0 440.377   3
   0   2   2 10976.3 426.235   8
   0  -2  -2 10629.4 362.161   2
   0   2   2 10099.9 424.119   9
   0   2  -2 10439.7 426.966   2
   0  -2   2 11067.6 428.089   1
   0   2  -2 11058.3 397.901   5
   0  -2  -2 10327.1 418.356  12
   1  -2   2 20955.4 639.056   8
   1   2   2 21086.4 662.413   8
  -1   2  -2 19712.1 625.262   4
  -1   2  -2 20478.9 630.681   2
  -1  -2  -2 19086.5 636.011  12
  -1  -2  -2 19273.0 617.410   5
   1  -2   2 20542.6 668.362   3
   1   2   2 20341.6 673.701   9
  -1   2  -2 19209.3 591.102   7
   1  -2   2 19806.5 626.400   1
   1   3  -2 2647.47 231.394   4
  -1  -3   2 2578.60 261.170   8
  -1   3   2 2762.25 269.960   8
   1   3  -2 3007.65 251.331   2
   1  -3  -2 3049.62 226.684  14
   1  -3  -2 3255.56 192.881   4
  -1   3   2 2752.63 237.187  15
  -1   3   2 2794.98 278.687   9
  -1  -3   2 2800.91 260.439   1
  -1   3   2 2679.20 267.062  16
   1   3  -2 2641.96 208.704   5
  -1  -3   2 2697.56 287.767   3
  -1   3   2 2883.69 221.656   3
   1   3  -2 2442.56 220.405   7
  -1  -3   2 2167.29 238.321   6
   1   3  -2 2567.43 187.758  10
   1  -3  -2 2554.66 215.346   5
   0   3   2 90095.2 1235.03   8
   0  -3   2 86848.3 1142.74   8
   0  -3  -2 86293.5 992.999   2
   0   3   2 84780.5 1044.78   3
   0   3  -2 93915.7 1276.00   4
   0   3   2 88492.4 1242.22  16
   0  -3  -2 86939.6 1209.94  13
   0   3  -2 85543.5 1204.31   7
   0   3   2 86145.7 1145.67  15
   0  -3   2 86161.5 1078.31  11
   0  -3   2 85872.5 1233.87   6
   0  -3  -2 86266.5 965.876   4
   0  -3   2 84610.7 1242.80   1
   0   3  -2 87310.9 1273.80   2
   0  -3  -2 83657.4 1251.22  12
   0  -3   2 90101.1 1335.82   3
   0   3  -2 85214.9 1104.89   5
   0  -3  -2 86564.8 1197.62   5
   0   3   2 88558.8 1325.05   9
   0   3  -2 87234.3 1024.10  10
   1   3   2 2727.21 274.877  16
   1   3   2 2777.19 258.836   8
  -1   3  -2 2282.48 250.756   4
   1  -3   2 2233.42 214.092   8
  -1   3  -2 2813.35 220.857  10
  -1   3  -2 2489.67 245.414   2
  -1   3  -2 2438.88 245.073   7
   1  -3   2 2678.66 249.870   1
  -1  -3  -2 2773.27 275.073  12
   1  -3   2 2408.47 240.305   6
   1  -3   2 2736.93 268.294   3
  -1  -3  -2 2283.43 233.939   5
   1   3   2 2939.20 286.870   9
  -2   4   2 4137.59 437.879  15
  -2   4   2 4841.71 536.544   9
   1  -4  -2 89346.5 905.632   4
  -1  -4   2 86503.4 1454.92   3
  -1   4   2 86366.0 1463.88   8
  -1  -4   2 85535.3 1472.12   8
  -1   4   2 86851.0 1496.23  16
   1   4  -2 87983.8 1272.02   4
   1   4  -2 85950.5 1354.16   2
   1   4  -2 87788.7 1101.61   5
   1  -4  -2 84185.4 1211.50  14
  -1   4   2 85459.1 1084.46  10
  -1  -4   2 87072.0 1423.86   6
   1  -4  -2 85669.7 1187.19   5
  -1  -4   2 86822.3 1452.44   1
  -1   4   2 84520.6 1049.13   3
  -1   4   2 85270.1 1384.45  15
   1   4  -2 86112.8 1308.23   7
   1   4  -2 86728.4 1184.13  10
  -1   4   2 85894.9 1532.73   9
   0   4  -2 14526.0 547.309   2
   0   4   2 16596.3 440.221   3
   0  -4   2 16374.5 496.870   8
   0   4  -2 15609.5 538.988   4
   0  -4   2 16552.9 565.743   1
   0   4   2 16749.7 602.649  16
   0   4  -2 15888.9 550.704   7
   0  -4  -2 16739.9 416.079  11
   0  -4   2 15735.4 582.433   6
   0  -4   2 16788.2 603.295   3
   0  -4  -2 15611.5 387.926   4
   0  -4  -2 16066.3 585.101  12
   0  -4   2 14198.8 487.350  11
   0   4  -2 17583.9 506.513  10
   0   4   2 15592.1 461.282  10
   0   4  -2 16187.3 468.193   5
   0   4   2 16599.4 609.853   9
   0  -4  -2 16639.8 574.187  13
   0   4   2 16657.1 538.264   8
   0  -4  -2 16756.4 527.230   5
   0   4   2 16005.6 542.914  15
   1  -4   2 7219.45 420.474   6
   1   4   2 7341.23 398.796   8
  -1   4  -2 6412.70 388.950   4
   1   4   2 7509.37 411.939  15
   1  -4   2 7029.62 367.259   8
   1  -4   2 6852.83 397.970   1
  -1   4  -2 7852.08 432.967   7
   1  -4   2 7678.55 450.550   3
  -1   4  -2 7306.69 386.128  10
   1   4   2 7744.56 451.863  16
  -1  -4  -2 7295.58 423.603  12
   1   4   2 7695.68 463.349   9
  -1   4  -2 7537.45 422.396   2
  -2   5   2 12971.0 749.610  15
   2   5  -2 13576.3 594.466   4
  -2  -5   2 15452.1 899.483   3
  -2   5   2 13603.4 874.819   9
   2   5  -2 13458.7 605.783   7
   1  -5  -2 188456. 1994.40  14
  -1   5   2 189731. 1859.80  10
   1   5  -2 186311. 1950.02   4
   1   5  -2 188033. 1952.28  10
   1   5  -2 189953. 2134.35   2
  -1   5   2 178866. 2253.16   8
  -1  -5   2 184142. 2247.56   1
  -1   5   2 190554. 2252.89  15
  -1  -5   2 192738. 2262.45   6
   1  -5  -2 186302. 1807.74   5
   1  -5  -2 186694. 1732.95  11
   1   5  -2 184317. 2065.25   7
  -1  -5   2 187714. 2213.38   3
   1   5  -2 186471. 1642.47   5
  -1  -5   2 187336. 2476.10   8
  -1   5   2 183997. 2396.85   9
  -1   5   2 184934. 2380.33  16
   0   5   2 7180.47 374.607   8
   0  -5   2 6949.36 332.560   8
   0  -5  -2 7481.80 433.430  13
   0  -5  -2 7586.64 321.064  11
   0   5  -2 7479.50 393.878   4
   0  -5   2 7574.16 410.278   1
   0   5   2 7002.11 402.236  15
   0   5   2 8386.53 466.477  16
   0   5   2 7029.43 421.916   9
   0  -5   2 6602.03 266.844  13
   0   5   2 6558.60 340.870  10
   0  -5   2 7059.00 414.935   6
   0  -5   2 9060.07 431.763  11
   0  -5   2 7627.14 431.484   3
   0   5  -2 7121.00 402.129   7
   0   5  -2 7204.87 369.663  10
   0   5  -2 7108.58 313.207   5
   0  -5  -2 7337.51 367.497   5
   0   5  -2 7942.46 431.071   2
   0  -5  -2 7341.31 421.870  12
  -1   5  -2 98059.8 1553.95   2
   1  -5   2 95452.4 1505.56   1
  -1   5  -2 97185.2 1507.47   4
  -1  -5  -2 98432.6 1638.00  13
  -1  -5  -2 94079.3 1586.56  12
  -1   5  -2 98679.2 1627.74   7
  -1   5  -2 96793.4 1192.22  15
   1   5   2 96813.8 1557.99  15
   1  -5   2 98809.3 1620.55   3
   1   5   2 97769.4 1680.82  16
   1  -5   2 97359.8 1577.26   6
   1   5   2 99256.3 1479.04   8
   1   5   2 96817.9 1659.73   9
  -1   5  -2 95698.8 1466.18  10
   1  -5   2 98490.1 1323.12   8
  -1  -5  -2 99625.0 1098.52   2
   2   6  -2 22421.4 748.602   4
  -2   6   2 21464.5 1029.57  16
   2   6  -2 22483.1 800.662   7
  -2  -6   2 25469.9 1072.79   3
  -2   6   2 22206.4 1002.84  15
  -2  -6   2 22323.7 974.833   6
  -2   6   2 23114.7 850.661  10
  -2   6   2 23648.3 1167.03   9
   1   6  -2 495099. 2921.94  16
   1   6  -2 486664. 3720.75   7
  -1   6   2 498953. 4071.27   8
  -1  -6   2 489795. 3850.70   3
   1   6  -2 493426. 3490.56   4
   1   6  -2 497079. 3795.30   2
  -1   6   2 490198. 4035.17  15
  -1   6   2 494605. 4284.63   9
  -1  -6   2 489227. 3969.72   6
  -1  -6   2 483319. 3997.44   1
  -1   6   2 492447. 3515.44  10
  -1   6   2 489977. 4281.53  16
   1   6  -2 493612. 3575.50  10
   1  -6  -2 492305. 3625.00  14
   1  -6  -2 496085. 3234.05  11
   1  -6  -2 491246. 3194.03   5
   0   6   2 20185.5 645.892  10
   0  -6   2 18223.7 690.612   6
   0   6   2 19737.3 739.716   9
   0  -6  -2 19054.7 580.817   5
   0   6   2 20238.7 620.328   8
   0  -6   2 20182.8 566.529   8
   0   6  -2 21481.1 726.707   2
   0   6  -2 20017.1 652.719   4
   0   6  -2 19451.0 656.965  10
   0  -6   2 19794.2 671.643   1
   0  -6  -2 20977.2 595.773  11
   0   6   2 20224.1 712.018  15
   0  -6  -2 19736.7 740.952  13
   0  -6   2 19712.1 703.003   3
   0  -6  -2 20419.0 717.170  12
   0  -6   2 20032.1 686.769  11
   0   6  -2 19595.7 697.677   7
   0   6   2 19359.8 748.559  16
  -1  -6  -2 31404.4 951.130  12
   1   6   2 29475.6 800.363   8
  -1   6  -2 30868.3 870.431   4
  -1   6  -2 30884.3 965.289   7
  -1  -6  -2 31631.3 981.776  13
   1   6   2 31274.8 999.001  16
  -1   6  -2 33566.3 952.041   2
   1   6   2 30850.6 918.500  15
   1  -6   2 29988.3 717.710   8
   1  -6   2 30584.2 922.072  11
   1  -6   2 31880.0 945.432   6
  -1   6  -2 32309.6 905.878  10
   1   6   2 30885.6 977.687   9
   1  -6   2 32283.7 912.300   1
   1  -6   2 32485.4 956.055   3
  -2   7   2 13020.6 818.287  15
   2  -7  -2 13403.3 546.054   5
   2   7  -2 13331.9 584.682   4
   2   7  -2 12180.9 625.740   7
  -2   7   2 13228.0 854.392  16
  -2  -7   2 12884.7 747.801   3
  -2   7   2 12008.8 674.101  10
   2   7  -2 12692.6 612.934  10
  -2   7   2 14048.0 957.588   9
  -2  -7   2 11816.3 761.036   6
  -1  -7   2 153488. 2235.24   6
  -1   7   2 145996. 2314.92   8
   1   7  -2 147751. 1857.86   4
   1   7  -2 149125. 2059.36   2
  -1   7   2 148653. 2261.52  15
   1  -7  -2 144441. 1775.40  11
  -1  -7   2 148478. 2074.44   3
  -1   7   2 150121. 1999.51  10
   1   7  -2 153672. 2023.94  10
  -1  -7   2 153626. 2270.61   1
   1  -7  -2 150393. 2016.68  14
   1   7  -2 150415. 2084.19   7
  -1   7   2 151301. 2437.43  16
   1  -7  -2 150908. 1648.39   5
  -1   7   2 142829. 2337.18   9
   0   7   2 25998.0 732.744   8
   0   7  -2 24282.7 800.080  10
   0  -7  -2 24991.7 894.698  13
   0   7  -2 25843.8 773.101   4
   0   7  -2 26482.6 836.296   2
   0  -7   2 24480.4 788.138   1
   0   7   2 24375.2 844.011  15
   0   7  -2 25792.3 855.460   7
   0  -7   2 23820.0 849.978   6
   0  -7   2 26344.7 843.056   3
   0  -7  -2 25545.1 840.298  12
   0  -7  -2 26501.3 737.958  11
   0   7   2 25251.5 795.346  10
   0  -7  -2 25386.4 676.261   5
   0   7   2 23714.0 899.328  16
   0   7   2 25723.8 874.469   9
   0  -7   2 24115.3 804.042  11
   1   7   2 27521.5 784.898   8
  -1   7  -2 27714.9 907.135  10
   1   7   2 27036.9 914.248  15
  -1   7  -2 28542.2 967.745   7
  -1   7  -2 26019.7 869.611   2
   1   7   2 24763.6 942.892  16
  -1  -7  -2 26276.7 965.787  13
   1  -7   2 28360.5 926.003   3
   1  -7   2 26019.1 897.209  11
   1  -7   2 27369.7 931.585   6
   1  -7   2 26921.4 858.515   1
   1   7   2 27067.9 938.401   9
  -1  -7  -2 27503.0 927.109  12
   2   8  -2 424.029 222.245   7
  -2   8   2 77.3063 336.290   9
   2  -8  -2-391.854 246.412  14
   2   8  -2 107.997 186.267   4
  -2   8   2 375.835 334.459  16
  -2  -8   2-209.487 276.378   6
  -2   8   2 98.9136 260.277  10
   2   8  -2 383.850 196.488  10
  -2   8   2-302.495 326.360  15
  -2  -8   2 210.430 301.312   3
   1   8  -2 17120.3 647.798   4
   1   8  -2 18173.5 756.682   2
  -1  -8   2 18018.6 819.078   6
  -1   8   2 17010.3 851.916   9
   1  -8  -2 17510.0 747.286  14
   1   8  -2 16332.9 728.714   7
  -1   8   2 16677.3 818.225  15
  -1   8   2 16914.8 734.017  10
  -1  -8   2 17406.8 730.533   3
   1   8  -2 16668.5 722.039  10
  -1  -8   2 17130.4 811.560   1
  -1   8   2 17616.0 897.444  16
   1  -8  -2 16763.1 657.439  11
   0   8   2 43391.6 1286.81  16
   0   8  -2 44598.1 1044.99   4
   0   8  -2 44450.6 1195.40   7
   0  -8   2 46414.3 1129.39   1
   0  -8  -2 44810.9 1263.44  13
   0  -8  -2 43426.9 1146.62  12
   0  -8   2 43299.7 1186.75   6
   0   8  -2 42796.9 1137.66  10
   0   8  -2 45863.2 1155.60   2
   0  -8   2 45791.2 1138.94   3
   0  -8   2 44368.7 1162.82  11
   0  -8  -2 44360.9 1032.05  11
   0   8   2 43442.2 1197.73  15
   0   8   2 43680.2 1142.62  10
   0   8   2 44458.1 1230.00   9
   1  -8   2 3119.76 339.208   1
   1   8   2 2918.42 394.419  16
  -1   8  -2 3273.76 384.844   7
  -1  -8  -2 3584.10 437.521  13
  -1   8  -2 3393.76 365.494   2
  -1  -8  -2 3054.81 370.222  12
   1   8   2 3860.68 410.595   9
   1  -8   2 3426.27 385.371  11
   1  -8   2 3100.75 372.349   6
  -1   8  -2 3334.38 385.489  10
   1  -8   2 3781.55 388.670   3
   1   8   2 2825.26 356.866  15
   2   9  -2 706.325 255.571   7
  -2   9   2 1366.93 510.295   9
  -2   9   2 397.811 336.769  16
   2  -9  -2 927.100 297.178  14
  -2   9   2 796.546 358.763  15
   2   9  -2 808.226 247.848   4
  -2  -9   2 970.993 350.346   6
  -2   9   2 393.468 306.220  10
   2   9  -2 620.283 249.354  10
  -1   9   2 395.015 334.851   9
  -1  -9   2 464.365 271.982   6
   1   9  -2 387.900 223.291  10
  -1  -9   2 659.728 304.158   1
   1  -9  -2 422.222 242.458  14
   1  -9  -2 575.388 257.759  12
  -1   9   2 230.373 253.604  15
   1   9  -2 307.273 197.258   4
   1   9  -2 269.052 228.899   7
   1  -9  -2 414.362 213.637  11
  -1  -9   2 441.290 286.305  11
  -1   9   2 108.672 224.628  10
  -1   9   2 155.216 269.154  16
   0  -9   2 3307.42 360.395   1
   0  -9  -2 3277.88 412.771  14
   0  -9  -2 3599.03 354.055  11
   0   9  -2 3162.52 391.730   7
   0   9   2 3382.76 403.307  10
   0  -9  -2 2945.68 423.536  13
   0  -9   2 3257.76 397.102  11
   0   9   2 3333.22 408.064  15
   0   9  -2 3096.08 316.056   4
   0   9   2 3315.62 439.986  16
   0  -9   2 3785.81 439.186   6
   0  -9   2 3835.40 392.893   3
   0   9  -2 3653.51 395.800  10
   0  -9  -2 3147.06 379.603  12
   0   9   2 3558.94 427.997   9
  -1   9  -2 3861.84 443.857   7
   1   9   2 3707.30 468.239  16
   1  -9   2 3741.35 437.507  11
   1   9   2 3901.86 421.539  15
   1  -9   2 4873.50 506.108   6
  -1  -9  -2 3414.81 420.428  12
   1   9   2 4332.10 460.774  10
  -1   9  -2 4196.59 450.876  10
  -1  -9  -2 3536.58 452.356  13
   1  -9   2 4286.10 388.854   1
   1   9   2 3744.07 448.899   9
  -2   9  -2 473.658 311.371   7
  -2   9  -2 111.189 247.545  10
  -2  10   2 2027.32 525.813  16
   2 -10  -2 2022.15 409.779  14
  -2  10   2 1406.91 432.031  15
   2  10  -2 2262.56 374.005   7
  -2 -10   2 1511.63 423.059   6
  -2  10   2 1666.27 379.739  10
   2  10  -2 1731.20 336.721  10
  -1  10   2 107517. 2456.78  16
   1 -10  -2 123576. 2090.12  12
   1 -10  -2 122101. 2171.41  14
  -1 -10   2 115139. 2239.66   6
   1 -10  -2 114751. 1964.70  11
  -1 -10   2 122627. 2274.04  11
   1  10  -2 115537. 2158.22   7
  -1  10   2 116404. 2250.80  10
  -1  10   2 119951. 2427.47  15
   1  10  -2 119066. 2100.39  10
  -1  10   2 120736. 2578.88   9
   0  10   2 3633.83 481.848   9
   0  10   2 4303.54 537.429  16
   0  10   2 3567.10 444.214  15
   0  10  -2 4261.15 479.918   7
   0 -10  -2 3818.16 469.276  13
   0 -10  -2 4120.76 436.687  12
   0 -10   2 3487.92 446.174  11
   0 -10  -2 4119.05 398.933  11
   0 -10   2 4237.34 487.365   6
   0  10  -2 3996.43 436.417  10
   0  10   2 4349.46 486.819  10
   0 -10  -2 4045.40 457.545  14
   1  10   2 3582.80 503.488  16
  -1  10  -2 3622.25 474.800   7
  -1 -10  -2 3964.40 507.194  13
   1  10   2 3390.10 445.260  15
  -1 -10  -2 3601.48 436.131  12
   1 -10   2 3523.66 466.432   6
   1 -10   2 3318.93 428.023  11
  -1  10  -2 3185.40 437.156  10
   1  10   2 3690.61 445.893  10
   1  10   2 2798.56 402.869   9
  -2  10  -2 17882.7 948.563   7
  -2  10  -2 19626.7 973.988  10
   2  11  -2 10830.3 742.266   7
  -2 -11   2 10776.9 811.653   6
  -2  11   2 9873.60 942.706  16
   2  11  -2 10633.6 712.842  10
  -2  11   2 5597.51 665.087  10
  -1  11   2 68552.7 2090.83  16
  -1  11   2 65089.2 1811.84  10
   1  11  -2 64394.8 1688.14   7
   1 -11  -2 66197.6 1677.41  14
   1 -11  -2 69048.3 1635.26  12
  -1 -11   2 64741.0 1756.09   6
   1 -11  -2 67889.4 1608.60  11
  -1 -11   2 65508.1 1791.85  11
  -1  11   2 65656.8 1913.37  15
   1  11  -2 64148.7 1636.79  10
   1 -11  -2 65536.8 1771.00  13
  -1  11   2 71540.1 2097.93   9
   0  11   2 2375.69 468.455  16
   0  11   2 2080.64 409.913  15
   0 -11  -2 2065.75 402.563  14
   0  11  -2 2799.15 426.907   7
   0 -11  -2 2008.65 367.113  12
   0 -11   2 1889.33 388.441  11
   0 -11   2 2398.80 426.196   6
   0  11   2 2142.27 393.065   9
   0 -11  -2 2168.22 352.947  11
   0  11  -2 1787.10 330.448  10
   0  11   2 2631.17 456.641  10
   0 -11  -2 2379.53 476.263  13
   1  11   2 16485.1 908.577  15
  -1  11  -2 16438.4 925.982   7
  -1 -11  -2 16192.9 963.152  13
   1 -11   2 16984.3 921.580   6
   1  11   2 16649.0 890.891   9
   1 -11   2 16058.5 875.101  11
  -1 -11  -2 18171.2 846.211  11
  -1  11  -2 15648.3 898.688  10
   1  11   2 15971.4 926.367  10
   1  11   2 16608.0 994.046  16
  -2  11  -2 19838.6 1036.89   7
  -2  11  -2 18376.9 1003.15  10
   2  12  -2 2460.04 426.502   7
  -2  12   2 1802.13 597.620  16
  -2  12   2 2517.87 653.045  15
  -2 -12   2 2350.46 548.144   6
  -2  12   2 2466.57 557.941  10
   2  12  -2 2281.53 403.336  10
   1 -12  -2 2686.44 538.786  13
   1  12  -2 2388.95 450.116   7
  -1  12   2 1820.31 523.099  16
  -1  12   2 2471.16 506.668  15
   1 -12  -2 2289.33 402.590  11
  -1  12   2 1550.18 429.077  10
  -1 -12   2 1918.11 452.863   6
   1 -12  -2 1937.19 378.207  14
   1  12  -2 1894.70 410.059  10
  -1 -12   2 1487.98 384.472  11
   0 -12  -2 24230.4 1177.20  13
   0  12  -2 23189.6 1113.26   7
   0  12   2 23202.1 1129.81  15
   0 -12  -2 23423.4 1051.69  14
   0 -12   2 22951.3 1084.11   6
   0  12   2 22294.9 1214.68  16
   0 -12   2 22339.1 1102.69  11
   0 -12  -2 24550.5 1016.99  11
   0  12  -2 25100.0 1134.33  10
   0  12   2 22094.0 1112.51  10
   1  12   2 1962.40 479.173  16
   1  12   2 1927.26 431.280  15
  -1  12  -2 1578.61 446.720   7
  -1 -12  -2 1576.38 441.571  13
   1 -12   2 1706.52 398.438   6
   1 -12   2 1941.93 431.128  11
  -1  12  -2 2255.15 472.842  10
  -1 -12  -2 2725.64 433.647  11
  -2  13   2 317.034 463.811  15
  -2  13   2 1121.72 603.082  16
  -2 -13   2-326.109 448.372  11
  -2 -13   2 1285.63 530.701   6
  -2  13   2 491.994 550.714  10
   2  13  -2 846.918 342.061  10
  -1  13   2 7147.87 764.057  15
  -1  13   2 6951.11 773.152  16
   1 -13  -2 7211.14 753.107  13
   1 -13  -2 6664.24 606.414  11
  -1 -13   2 7297.57 732.241  11
  -1 -13   2 7139.97 695.542   6
   1 -13  -2 7614.21 689.053  14
   1  13  -2 6097.18 629.070  10
   1  13  -2 7196.87 690.466   7
   0 -13  -2 7663.00 749.326  13
   0  13   2 7393.22 789.115  16
   0  13  -2 7720.26 723.333  10
   0 -13   2 7730.48 729.322  11
   0 -13  -2 8298.09 734.339  14
   0 -13  -2 7318.09 639.647  11
   0 -13   2 7786.11 708.472   6
   0  13   2 7555.15 730.357  15
   0  13  -2 6882.39 690.594   7
   1  13   2 4769.53 680.951  16
  -1 -13  -2 3972.20 555.954  14
  -1 -13  -2 4160.16 600.954  13
   1 -13   2 4718.89 582.534   6
   1 -13   2 4065.76 554.944  11
  -1  13  -2 3497.19 552.649  10
  -1  13  -2 4496.27 640.777   7
   1  13   2 4422.33 587.993  15
  -2 -14   2 248.080 476.643  11
  -2  14   2-1036.00 617.550  16
   2 -14  -2-364.270 425.901  13
  -2  14   2 458.867 518.599  15
  -2 -14   2 73.4613 462.070   6
   2  14  -2 176.339 299.293  10
   1 -14  -2 7611.98 729.442  14
  -1  14   2 6351.65 865.390  16
   1  14  -2 5997.62 676.809   7
  -1 -14   2 5173.61 694.587  11
  -1 -14   2 5557.21 682.508   6
  -1  14   2 5392.40 715.377  15
   1 -14  -2 5119.69 697.697  13
   1  14  -2 6086.84 655.417  10
   0  14   2 715.277 524.100  16
   0 -14  -2 189.930 385.975  14
   0  14   2 424.259 418.055  15
   0  14  -2 811.808 437.706   7
   0 -14  -2 534.967 457.739  13
   0  14  -2 811.995 401.446  10
   0 -14   2-93.1136 377.476   6
   0 -14   2 420.176 435.213  11
   1  14   2-512.694 466.134  16
  -1 -14  -2 486.665 380.138  14
   1  14   2-209.405 326.673  15
  -1  14  -2 245.621 397.813   7
  -1 -14  -2 390.372 426.994  13
   1 -14   2 251.638 371.367   6
   1 -14   2 702.154 440.532  11
  -1  14  -2-1182.80 511.790  10
  -2  15   2 3337.67 774.251  15
   1  15  -2 1079.09 502.823   7
  -1  15   2 778.962 533.485  16
   1 -15  -2 550.807 443.583  14
  -1  15   2 773.815 456.276  15
   1 -15  -2 1080.73 525.089  13
  -1 -15   2 802.162 445.455   6
  -1 -15   2 1021.23 536.111  11
   1  15  -2 519.173 395.858  10
   0  15   2 437.005 493.497  16
   0  15   2 386.973 432.340  15
   0 -15  -2 599.888 436.898  14
   0  15  -2-80.1946 430.814   7
   0 -15  -2 968.779 520.494  13
   0 -15   2 770.447 463.595   6
   0 -15   2 603.368 472.612  11
   0  15  -2 34.9509 359.709  10
  -1  15  -2 3306.52 687.897   7
   1  15   2 2972.18 540.468  15
   1  15   2 2973.77 666.439  16
  -1  15  -2 1713.80 560.239  10
   2   0  -3 194.167 192.505   5
  -2   0   3 587.022 347.318   3
   2   0  -3 312.075 168.587   4
  -2   0   3-346.757 274.363   8
  -2   0   3-55.5120 235.517   1
   2   0  -3 200.622 148.788   2
  -1   0   3-51.7740 167.790   9
   1   0  -3 18.8212 148.922   5
   1   0  -3 33.1134 91.4495   7
   1   0  -3-89.8863 145.816   4
   1   0  -3-74.6507 152.318   2
  -1   0   3 7.40475 134.296   6
  -1   0   3-198.414 192.206   3
  -1   0   3-96.3357 182.030   8
  -1   0   3 45.2733 144.254   1
   0   0  -3 99.9436 153.311   5
   0   0   3 78.0957 143.446   8
   0   0  -3 39.8099 130.243  12
   0   0  -3-29.4318 150.955   4
   0   0  -3-37.8330 142.302   2
   0   0  -3-51.4277 101.711   7
   0   0   3 34.1515 118.083   6
   0   0   3 11.0517 136.574   1
   0   0   3-158.953 159.689   3
   0   0   3-84.5083 146.524   9
   1   0   3 212.166 149.020   1
   1   0   3-84.2395 167.111   8
  -1   0  -3-66.1202 113.807   7
  -1   0  -3-39.7824 147.924   2
   1   0   3 20.7968 159.395   3
  -1   0  -3-83.8779 158.877   5
   1   0   3-161.508 156.972   9
  -2  -1   3 77066.3 1838.30   1
  -2   1   3 75570.0 1887.78   8
  -2  -1   3 76794.1 1946.38   8
   2   1  -3 77764.5 1385.23   4
   2  -1  -3 78895.0 1360.16   4
  -2   1   3 77282.7 1533.81  15
   2   1  -3 76670.2 1420.11   2
  -2  -1   3 79743.2 1939.59   3
  -2   1   3 78634.0 1866.60   3
   2  -1  -3 78146.7 1460.87   5
   2   1  -3 79062.1 1441.72   5
  -2   1   3 79479.5 2054.11   9
   1   1  -3 29522.0 800.103   4
  -1   1   3 29826.2 931.230   8
  -1  -1   3 27960.7 904.563   8
   1   1  -3 28390.6 831.015   2
  -1   1   3 30000.5 646.291  15
  -1   1   3 28903.6 851.883  16
   1  -1  -3 31063.9 813.974   2
  -1  -1   3 29486.2 886.852   1
  -1   1   3 29340.5 656.745   6
  -1  -1   3 28434.6 783.609   6
  -1   1   3 29836.3 867.801   1
  -1   1   3 29026.3 890.720   3
  -1  -1   3 29499.2 892.795   9
  -1  -1   3 29300.2 936.168   3
   1   1  -3 30476.0 723.986   7
   1  -1  -3 30066.1 768.132   4
   1  -1  -3 29871.1 827.604   5
   1   1  -3 29869.4 810.297   5
  -1   1   3 29195.9 915.578   9
   1  -1  -3 29350.1 651.984   7
   0   1  -3 2558.71 291.764   5
   0  -1  -3 2771.55 286.272   2
   0  -1  -3 2727.65 261.573   4
   0   1   3 2370.57 291.364   8
   0  -1   3 2502.36 289.119   8
   0  -1   3 2716.75 283.691   1
   0  -1  -3 2933.79 201.542   7
   0   1  -3 2757.07 239.534   7
   0   1  -3 2572.32 274.712   4
   0   1  -3 2662.20 289.241   2
   0   1   3 2898.73 272.721   1
   0   1   3 2732.61 302.580   3
   0   1  -3 2337.93 222.745  12
   0  -1  -3 2772.68 270.082  12
   0   1   3 2670.35 223.076  16
   0  -1   3 2620.27 252.726   6
   0  -1  -3 2987.23 300.930   5
   0  -1   3 2852.93 325.769   3
   0   1   3 2640.24 286.152   9
   0   1   3 4114.09 267.103   6
   0  -1   3 2667.50 263.945   9
  -1  -1  -3 22760.4 755.149   2
  -1   1  -3 21185.5 751.386   2
   1  -1   3 22145.6 769.337   1
   1  -1   3 21613.0 792.828   8
   1   1   3 22279.5 814.433   8
  -1   1  -3 21522.3 747.013   4
   1   1   3 21532.4 647.136  16
  -1  -1  -3 21044.7 721.460  12
  -1  -1  -3 22600.7 588.565   7
  -1   1  -3 21380.7 656.028   7
   1  -1   3 21873.2 793.027   3
   1   1   3 22132.5 740.748   1
  -1   1  -3 22098.5 751.486   5
  -1  -1  -3 21062.7 744.757   5
   1  -1   3 21141.0 715.711   9
   1   1   3 20795.4 766.944   9
  -2  -2   3 7846.82 610.867   1
  -2   2   3 8300.62 664.510   8
  -2  -2   3 9086.80 718.110   8
   2   2  -3 8465.16 479.651   4
   2  -2  -3 8605.09 448.633   4
  -2   2   3 8943.18 546.094  15
   2   2  -3 7982.13 485.326   2
  -2  -2   3 7983.79 574.230   6
  -2  -2   3 8646.10 690.856   3
  -2   2   3 8451.60 652.394   3
   2  -2  -3 8414.89 506.198   5
   2   2  -3 8466.37 476.343   5
  -2   2   3 8088.94 666.681   9
  -1   2   3 207901. 2539.76   8
  -1  -2   3 208939. 2510.34   8
   1   2  -3 206245. 2335.99   2
   1  -2  -3 212289. 2023.68   4
   1   2  -3 213042. 2246.59   4
   1  -2  -3 210047. 2142.31   2
   1   2  -3 209149. 2110.55   7
  -1   2   3 212007. 2012.11  15
   1  -2  -3 215308. 1919.36  14
   1   2  -3 207791. 2175.09   5
  -1  -2   3 209061. 2453.76   1
  -1  -2   3 203447. 2282.32   6
  -1   2   3 211971. 2371.29   3
  -1  -2   3 216438. 2616.92   3
  -1   2   3 211818. 2347.73   1
  -1   2   3 212421. 2393.86  16
   1  -2  -3 206809. 2248.94   5
  -1   2   3 210728. 2590.15   9
  -1  -2   3 210837. 2460.55   9
   0   2   3 54147.5 1183.90   8
   0   2  -3 53950.0 1184.62   2
   0  -2   3 52630.8 1123.67   8
   0  -2  -3 53263.9 1053.20   2
   0  -2  -3 54848.6 1018.13   4
   0   2  -3 53051.7 1126.17   4
   0   2   3 53864.8 1001.41  16
   0   2  -3 53221.0 1026.37   7
   0   2  -3 52433.2 919.130  12
   0   2   3 54052.4 1112.39   3
   0  -2   3 50410.8 1062.94   6
   0  -2   3 53585.3 1217.84   3
   0   2   3 55055.7 1045.69   1
   0   2  -3 54235.9 1096.20   5
   0  -2  -3 54452.6 1131.25   5
   0   2   3 54527.1 1193.66   9
   0  -2  -3 52827.2 1110.14  12
   0  -2   3 53218.8 959.925   9
   0  -2  -3 55140.5 996.266  13
   0  -2   3 54946.3 1159.10   1
   0   2   3 53695.6 995.012  15
   1   2   3-66.7179 151.661   1
   1  -2   3 210.538 173.845   1
   1  -2   3-64.9194 154.717   8
   1   2   3 47.7095 188.600   8
  -1   2  -3-2.42121 169.579   4
  -1   2  -3-94.6056 130.303   7
  -1  -2  -3 120.065 145.346   2
  -1  -2  -3-130.900 187.565  12
   1  -2   3-10.5151 179.697   3
  -1   2  -3 217.239 180.141   2
  -1   2  -3 18.8787 146.142   5
  -1  -2  -3 173.234 187.493   5
   1  -2   3 75.4559 141.420   9
   1   2   3 17.3141 166.581   9
   1   2   3 273.863 167.965  16
  -2   3   3 175970. 2999.79   8
   2   3  -3 181396. 2206.03   4
   2  -3  -3 192885. 2049.30   4
   2   3  -3 179528. 2285.62   2
  -2   3   3 180798. 2527.77  15
   2   3  -3 179590. 2194.13   7
  -2  -3   3 182934. 2729.25   6
  -2  -3   3 179915. 2973.14   3
  -2   3   3 180017. 2653.87   3
   2  -3  -3 180865. 2236.39   5
   2   3  -3 182212. 2134.43   5
  -2   3   3 177831. 3018.99   9
  -2  -3   3 182257. 2886.51   1
   1   3  -3 91234.7 1573.18   2
   1  -3  -3 90747.4 1345.73   2
  -1   3   3 92859.2 1694.85   8
  -1  -3   3 95465.3 1695.86   8
  -1  -3   3 94443.9 1676.81   1
  -1  -3   3 95739.9 1612.07   6
  -1   3   3 92527.9 1435.50  15
   1   3  -3 93442.7 1466.72   7
   1  -3  -3 94176.4 1296.21  14
   1   3  -3 88704.1 1469.12   4
  -1   3   3 90626.2 1470.10   3
  -1  -3   3 92072.6 1729.91   3
   1   3  -3 91879.4 1187.38  10
  -1   3   3 91633.9 1528.10   1
  -1   3   3 90830.0 1599.37  16
   1  -3  -3 89430.0 1243.29   4
   1   3  -3 90507.9 1397.11   5
   1  -3  -3 91430.4 1474.13   5
  -1   3   3 90283.3 1746.87   9
   0   3   3 43040.9 892.585   1
   0   3   3 44500.1 1089.13   8
   0  -3   3 44831.4 1030.10   8
   0   3  -3 43771.9 1094.87   2
   0  -3  -3 41596.3 860.248   4
   0  -3  -3 44211.5 921.119   2
   0   3  -3 44900.5 1057.11   4
   0  -3   3 42724.3 1049.13   1
   0   3  -3 43610.7 989.904   7
   0   3   3 43393.9 950.964  15
   0   3   3 44656.1 999.217  16
   0  -3  -3 42203.1 950.141  13
   0   3   3 44530.6 993.492   3
   0  -3   3 43999.7 1132.59   3
   0  -3  -3 43257.3 1051.85  12
   0  -3   3 43605.1 1030.60   6
   0   3  -3 45031.7 773.459  10
   0   3  -3 45222.0 997.712   5
   0  -3  -3 44326.7 1039.33   5
   0   3   3 43208.2 1111.49   9
  -1  -3  -3 46365.9 1004.77   2
  -1   3  -3 45105.5 1147.12   2
   1   3   3 47891.8 1022.04   1
   1  -3   3 45976.1 1153.50   1
   1  -3   3 44411.9 1085.12   8
   1   3   3 45356.0 1150.61   8
  -1   3  -3 44563.3 1124.64   4
   1   3   3 46083.5 1105.64  16
  -1   3  -3 47514.3 1086.01   7
   1  -3   3 45287.6 1142.69   6
   1  -3   3 46077.3 1208.86   3
  -1  -3  -3 45653.8 1163.29  12
  -1   3  -3 45745.2 1085.93   5
  -1  -3  -3 45874.6 1115.29   5
   1   3   3 46612.8 1206.44   9
  -2   4   3 330.744 263.722   9
   2  -4  -3 1.58914 189.274   5
  -2  -4   3 378.198 244.278   1
  -2   4   3 330.484 326.217   8
  -2   4   3 283.515 251.941  15
   2   4  -3 176.135 174.840   4
   2   4  -3 81.5957 151.399   7
   2  -4  -3 260.826 137.016   4
  -2  -4   3 435.804 291.441   6
   2   4  -3 520.388 219.091   2
  -2  -4   3 42.8097 321.705   3
  -2   4   3-63.3859 271.432   3
  -1   4   3 96.2487 206.282   9
   1   4  -3-30.1441 145.577   5
   1  -4  -3-287.570 190.163   5
  -1  -4   3-16.4073 188.021   8
  -1   4   3-31.5044 213.479   8
  -1   4   3 155.286 187.798  16
   1   4  -3-28.5704 153.708   7
  -1   4   3 111.772 168.288  15
   1  -4  -3 238.144 133.670   4
   1  -4  -3 129.520 146.423  14
  -1   4   3 145.862 187.487   1
   1   4  -3 97.4455 179.409   2
  -1  -4   3 253.588 229.710   6
   1  -4  -3 882.263 173.620   2
   1   4  -3 245.703 118.401  10
  -1   4   3-117.103 172.966   3
  -1  -4   3-111.429 176.894   1
  -1  -4   3 74.0567 233.788   3
   1   4  -3 118.648 181.053   4
   0   4  -3 28.8270 145.742   5
   0  -4  -3 153.154 165.091   5
   0   4   3 444.362 195.141   8
   0  -4   3 51.2262 152.605   8
   0   4   3 39.2367 172.060  16
   0  -4   3 121.839 159.926   1
   0  -4  -3 76.3872 109.302   4
   0   4  -3 289.890 193.076   4
   0   4   3 134.554 135.772  15
   0   4   3 303.608 142.835   1
   0   4  -3 8.24890 178.116   2
   0  -4  -3 124.613 146.746  13
   0  -4  -3 102.730 144.823   2
   0  -4  -3-107.114 222.025  12
   0   4  -3 201.506 158.830   7
   0  -4   3 186.160 145.377  11
   0  -4   3-114.418 199.888   6
   0   4   3 192.588 143.254   3
   0   4  -3 234.747 119.779  10
   0  -4   3 296.382 199.059   3
   0   4   3 388.028 194.278   9
  -1  -4  -3 32177.4 811.968   2
  -1   4  -3 32513.3 997.674   2
   1   4   3 32418.0 809.328   1
   1  -4   3 28958.9 942.019   1
   1  -4   3 31068.0 902.971   8
   1   4   3 30546.5 951.474   8
  -1   4  -3 30059.3 950.603   4
  -1   4  -3 31355.4 942.881   7
   1  -4   3 31576.2 1025.76   3
  -1  -4  -3 32486.8 1019.49  12
   1  -4   3 32818.1 1001.98   6
  -1   4  -3 31391.5 776.337  10
  -1  -4  -3 34021.1 962.125   5
   1   4   3 32511.8 980.768  16
   1   4   3 30670.9 1022.23   9
  -2   5   3 348.129 305.702   9
   2  -5  -3-118.264 186.568   5
   2   5  -3-49.0631 174.566   5
  -2   5   3 184.332 367.467   8
  -2  -5   3 530.329 302.166   1
  -2   5   3 80.3618 261.326  15
   2   5  -3-12.4489 186.961   4
   2   5  -3 3.88887 156.716   7
  -2  -5   3 514.340 328.922   6
   2   5  -3 29.8175 196.413   2
  -2  -5   3-9.53057 337.201   3
  -1   5   3 17946.5 750.411  15
  -1   5   3 17555.3 783.841   8
  -1  -5   3 17087.5 776.846   8
   1  -5  -3 18557.1 668.244  14
   1   5  -3 18994.8 727.137   4
  -1   5   3 17413.1 794.691  16
   1   5  -3 18727.4 765.512   2
   1   5  -3 18118.8 718.796   7
  -1  -5   3 17923.2 787.908   6
  -1  -5   3 18272.3 797.882   1
  -1  -5   3 17561.4 811.779   3
  -1  -5   3 17639.9 664.083  11
   1   5  -3 18449.1 628.145  10
   1   5  -3 17683.5 620.031   5
   1  -5  -3 18283.7 690.471   5
  -1   5   3 18608.8 871.537   9
   0   5   3 33021.0 966.258   8
   0  -5   3 32893.3 908.839   8
   0  -5  -3 33287.3 969.247  13
   0   5  -3 32668.7 996.726   2
   0   5  -3 32804.5 967.742   4
   0   5  -3 33138.3 953.318   7
   0  -5   3 31189.7 976.103   1
   0   5   3 32228.7 942.502  15
   0   5   3 33262.1 1021.55  16
   0  -5   3 32650.6 1035.04   3
   0  -5  -3 32608.6 1002.35  12
   0  -5   3 33601.9 1017.13   6
   0  -5   3 33482.4 940.043  11
   0   5  -3 33937.9 829.461  10
   0   5  -3 33233.8 846.421   5
   0  -5  -3 32279.5 911.244   5
   0   5   3 33740.6 1074.01   9
  -1  -5  -3 104.017 220.146  12
   1  -5   3-58.1814 189.523   1
   1   5   3 321.260 192.462   8
   1  -5   3 113.452 187.356   8
   1   5   3 176.065 202.425  16
  -1   5  -3 401.070 202.649   4
  -1   5  -3 149.193 200.087   7
  -1   5  -3 412.375 242.502   2
   1  -5   3 603.323 273.307   6
   1  -5   3 86.8528 241.924   3
  -1   5  -3 37.3499 152.971  10
  -1  -5  -3 660.379 230.220   5
   1   5   3-93.1622 195.177   9
  -2   6   3 186.671 334.979   9
   2  -6  -3 284.557 187.474   5
  -2   6   3 564.533 316.754  16
  -2   6   3 42.7835 277.036  15
   2   6  -3 549.761 239.143   4
   2   6  -3 926.457 247.143   7
  -2  -6   3 536.241 348.789   6
  -2  -6   3 1085.73 354.664   1
   2   6  -3 769.389 247.575   2
  -2  -6   3 415.535 344.061   3
  -1   6   3 283.044 248.955   9
   1  -6  -3 861.443 222.414   5
  -1  -6   3 1382.62 307.633   1
  -1   6   3 881.396 300.873   8
  -1   6   3 656.403 246.687  15
   1   6  -3 395.272 207.324   4
   1  -6  -3 912.073 250.324  14
   1   6  -3 657.083 228.724   7
   1  -6  -3 806.123 265.207  12
   1   6  -3 1426.92 300.441   2
  -1  -6   3 1505.90 282.198  11
  -1  -6   3 339.837 283.466   6
  -1   6   3 853.645 283.425  16
   1   6  -3 520.355 179.390  10
  -1  -6   3 219.042 279.813   3
  -1  -6   3 895.245 303.193   8
   0   6   3 453.905 217.719   8
   0  -6  -3 180.780 211.920  13
   0   6   3 218.601 234.912  16
   0   6  -3 510.762 232.324   4
   0   6   3 302.993 194.693  15
   0   6  -3 252.276 210.358   7
   0   6  -3 4.73828 213.076   2
   0  -6  -3 311.296 264.054  12
   0  -6   3 331.061 194.636  11
   0  -6   3 104.505 224.946   6
   0   6  -3 90.8674 164.889  10
   0  -6   3 244.527 251.655   3
   0  -6   3 208.082 205.198   8
   0  -6   3 56.5484 194.675   1
   0   6   3 24.4937 208.718   9
   0  -6  -3 264.860 203.777   5
  -1   6  -3 242.481 203.426   4
   1   6   3 417.174 230.222   8
   1  -6   3 278.637 180.927   8
   1  -6   3 236.148 197.989   1
  -1   6  -3 75.8836 208.700   7
   1   6   3 159.364 199.176  15
  -1   6  -3 359.921 219.987   2
   1   6   3 292.844 261.361  16
  -1  -6  -3-9.33325 241.721  12
   1  -6   3 36.6894 221.707   6
   1  -6   3-104.599 234.650   3
  -1   6  -3-55.9459 173.896  10
   1   6   3 425.055 273.425   9
  -2  -7   3 55164.1 1847.02   1
   2   7  -3 52517.1 1366.51   7
   2   7  -3 55241.8 1308.39   4
   2   7  -3 53449.8 1431.27   2
  -2  -7   3 55311.5 1694.97   6
  -2  -7   3 55198.0 1685.35   3
  -2   7   3 52508.9 1657.63  15
   2  -7  -3 58106.3 1260.14   5
  -2   7   3 50921.2 1796.85   9
  -2   7   3 55829.7 1821.50  16
  -1   7   3 1600.12 362.828   9
   1   7  -3 1321.49 298.909   4
   1  -7  -3 1474.08 275.174   5
  -1   7   3 1285.64 349.586   8
   1  -7  -3 1003.46 304.274  12
  -1   7   3 1320.84 358.327  16
   1  -7  -3 1430.14 312.572  14
   1   7  -3 1699.88 311.158   7
  -1  -7   3 931.530 292.484   1
   1   7  -3 1163.52 299.241   2
  -1  -7   3 1329.63 297.125  11
  -1   7   3 1465.29 349.569  15
  -1  -7   3 1281.36 351.579   6
   1   7  -3 1040.72 232.846  10
  -1  -7   3 1386.10 363.788   3
   0   7   3 19560.3 787.997   8
   0   7  -3 20632.4 808.282   4
   0   7  -3 20078.8 861.744   2
   0   7  -3 19832.8 831.196   7
   0  -7   3 20049.9 845.487   1
   0  -7   3 20231.3 833.409  11
   0  -7  -3 19623.8 887.341  13
   0  -7   3 19477.0 865.778   3
   0  -7  -3 19590.6 857.031  12
   0  -7   3 19362.0 857.739   6
   0   7   3 18375.5 874.032  16
   0   7  -3 20006.4 734.326  10
   0  -7  -3 18842.2 715.980   5
   0   7   3 18473.2 887.654   9
  -1   7  -3 10478.6 686.680   2
  -1   7  -3 10867.1 628.879   4
   1   7   3 10428.1 596.336   8
   1  -7   3 9460.23 608.019   1
  -1   7  -3 9887.23 640.258   7
   1   7   3 9748.85 633.367  15
   1  -7   3 10398.7 668.860   3
   1  -7   3 9538.08 642.603   6
  -1  -7  -3 9057.68 633.560  12
  -1   7  -3 9840.17 573.756  10
   1   7   3 9540.53 669.085  16
  -1  -7  -3 10098.3 675.529  13
   1   7   3 9816.18 684.336   9
  -2   8   3 2275.01 526.618   9
  -2  -8   3 2361.13 500.937   1
  -2   8   3 1209.91 399.118  16
  -2   8   3 1247.50 397.988  15
   2   8  -3 2011.76 328.939   4
   2   8  -3 1727.58 317.787   7
   2  -8  -3 2234.61 351.678  14
  -2  -8   3 2489.81 515.848   6
  -2  -8   3 1853.50 453.476   3
   2   8  -3 1817.24 346.430   2
  -1   8   3 416.735 342.210   9
  -1   8   3 284.520 334.269  16
  -1   8   3 76.8633 262.972  15
   1   8  -3 1218.63 283.481   4
   1  -8  -3 502.488 264.316  14
   1   8  -3 282.162 245.821   7
   1  -8  -3 316.930 286.182  13
  -1  -8   3 296.195 281.431   1
   1  -8  -3 319.011 275.032  12
  -1  -8   3-47.2593 271.765  11
  -1  -8   3 24.2778 320.325   6
   1   8  -3 331.973 291.345   2
   1   8  -3 328.796 209.285  10
   0   8  -3 4776.83 445.324   4
   0   8   3 4499.30 524.589  16
   0   8   3 4364.35 473.928  15
   0   8  -3 4388.91 454.125   7
   0  -8  -3 5123.52 480.985  14
   0  -8  -3 5213.09 510.848  13
   0   8  -3 4678.95 475.785   2
   0  -8   3 4931.70 469.349   1
   0  -8  -3 4527.02 475.700  12
   0  -8   3 4720.71 470.447  11
   0  -8   3 4544.38 500.064   6
   0   8  -3 4547.72 420.255  10
   0  -8   3 4857.36 501.931   3
   0   8   3 4149.50 491.282   9
  -1   8  -3 17011.6 864.562   2
   1  -8   3 17702.5 844.790   1
   1   8   3 17432.7 936.693  16
  -1   8  -3 18630.1 900.867   7
   1   8   3 18304.6 886.219  15
  -1  -8  -3 17917.9 893.082  12
   1  -8   3 17586.8 881.414   3
   1  -8   3 17892.5 889.728   6
  -1   8  -3 17192.3 785.772  10
   1   8   3 18545.5 950.489   9
  -1  -8  -3 17026.7 891.917  13
  -2   9   3 15567.0 1102.83  16
   2   9  -3 13965.1 727.634   4
  -2   9   3 16397.8 1073.46  15
   2  -9  -3 15732.9 832.781  14
   2   9  -3 14428.2 792.916   7
  -2  -9   3 13251.9 950.096   6
  -2  -9   3 14373.9 920.851   3
   2   9  -3 14746.3 774.720  10
  -2   9   3 14080.6 1065.23   9
   1   9  -3 16734.4 775.585   4
  -1   9   3 17876.0 960.393  15
   1   9  -3 16028.1 833.500   7
   1  -9  -3 16578.6 826.924  14
   1  -9  -3 16576.1 901.078  13
   1  -9  -3 16673.1 851.441  12
  -1  -9   3 16420.5 878.939   3
  -1  -9   3 15930.9 922.903   6
  -1  -9   3 16012.2 854.749  11
   1   9  -3 15256.2 754.372  10
  -1  -9   3 16541.7 937.821   1
   1   9  -3 17366.8 863.640   2
  -1   9   3 16393.3 1001.34   9
  -1   9   3 15733.8 980.617  16
   0   9   3 41215.2 1376.30  15
   0   9  -3 39201.0 1177.69   4
   0  -9   3 41037.3 1302.43   1
   0  -9  -3 44216.3 1310.58  14
   0  -9  -3 40202.8 1304.82  12
   0  -9   3 42610.6 1346.54   3
   0  -9   3 43074.6 1379.87   6
   0   9   3 41006.2 1454.79  16
   0  -9   3 42211.4 1352.83  11
   0   9  -3 42591.7 1343.11   7
   0   9  -3 41470.5 1204.82  10
   0   9  -3 43284.8 1361.71   2
   0  -9  -3 43466.5 1402.08  13
   0   9   3 41505.2 1437.44   9
   1   9   3 6631.45 679.390  16
   1  -9   3 5632.47 535.518   1
   1   9   3 5749.90 551.964  15
  -1   9  -3 4673.69 534.127   7
   1  -9   3 6419.62 577.960   3
  -1   9  -3 5705.91 550.356   2
  -1  -9  -3 5709.94 593.238  13
   1  -9   3 5765.62 591.290   6
  -1  -9  -3 5118.24 560.008  12
  -1   9  -3 4734.72 468.900  10
   1   9   3 5305.63 573.540   9
  -2  10   3 845.419 528.767   9
  -2  10   3-234.886 411.031  16
  -2  10   3 426.984 439.345  15
   2  10  -3 707.466 312.079   4
   2 -10  -3 808.486 344.322  14
   2  10  -3 358.022 270.249   7
  -2 -10   3 637.326 437.912   6
   2  10  -3 633.647 286.297  10
   1  10  -3 27329.6 1019.73   4
  -1  10   3 25932.5 1328.11  16
  -1  10   3 28661.0 1289.65  15
   1  10  -3 25576.7 1098.33   7
   1 -10  -3 28334.9 1118.57  14
   1 -10  -3 26204.7 1171.27  13
   1 -10  -3 26065.4 1112.36  12
  -1 -10   3 27654.4 1225.90   6
  -1 -10   3 25538.6 1146.58  11
   1  10  -3 25708.3 1024.02  10
  -1 -10   3 26534.6 1245.92   1
  -1  10   3 25275.4 1292.16   9
   0  10  -3 7555.27 635.444   7
   0  10  -3 7594.04 568.637   4
   0  10   3 7513.47 673.153  15
   0 -10  -3 7902.57 692.355  13
   0 -10   3 9524.47 699.364   1
   0 -10  -3 8068.83 653.203  12
   0 -10   3 8517.64 672.080  11
   0 -10   3 9433.28 731.298   6
   0  10  -3 7846.41 594.506  10
   0  10   3 8631.73 761.541  16
   0  10   3 8350.89 747.467   9
   0 -10  -3 7824.48 628.083  14
   1 -10   3 375.709 277.978   1
   1  10   3 91.6124 267.170  15
  -1  10  -3 189.224 335.318   7
  -1 -10  -3 326.232 347.974  13
  -1 -10  -3 856.934 324.526  12
   1 -10   3 647.209 386.555   6
   1 -10   3 229.966 327.266  11
   1  10   3 756.656 391.613  16
  -1  10  -3 620.634 317.032  10
   1  10   3 1169.93 421.175   9
  -2  11   3 1106.26 564.946   9
  -2  11   3 2274.79 617.542  16
  -2  11   3 2767.83 632.406  15
   2 -11  -3 2699.76 475.959  14
   2  11  -3 2278.12 433.204   7
   2 -11  -3 1983.75 430.922  12
  -2 -11   3 2784.55 566.552  11
  -2 -11   3 1307.63 516.043   6
   2  11  -3 2187.75 383.217  10
  -1  11   3 37574.4 1672.19  16
  -1  11   3 35940.6 1519.68  15
   1  11  -3 36906.8 1374.43   7
   1 -11  -3 37225.2 1343.03  14
   1 -11  -3 34207.9 1386.89  13
   1 -11  -3 34977.2 1293.42  12
  -1 -11   3 36580.8 1466.42   6
  -1 -11   3 33820.2 1399.77  11
   1  11  -3 35309.7 1255.82  10
  -1  11   3 34686.4 1604.58   9
   0  11   3 316.061 381.844   9
   0  11  -3-265.058 334.861   7
   0  11   3 753.157 421.870  16
   0  11   3 510.594 327.760  15
   0 -11  -3 508.018 335.696  13
   0 -11  -3 835.640 371.815  12
   0 -11   3 239.943 343.814  11
   0 -11   3-82.0547 330.778   6
   0  11  -3 299.934 289.882  10
   0 -11  -3-845.849 384.927  14
   1  11   3 69.4635 271.689  15
  -1  11  -3-42.7139 364.390   7
  -1 -11  -3-256.544 419.154  13
  -1 -11  -3 2.77642 315.583  12
   1  11   3-153.494 379.841  16
   1 -11   3-186.299 326.080   6
   1 -11   3-182.660 342.010  11
  -1  11  -3-67.0656 306.342  10
   1  11   3 217.210 336.524   9
  -2  12   3 6801.74 891.219  15
  -2  12   3 6082.90 976.352   9
  -2  12   3 6165.30 826.004  16
   2  12  -3 7301.64 685.507   7
   2 -12  -3 6952.97 683.858  12
  -2 -12   3 5281.79 749.513  11
  -2 -12   3 5801.29 779.734   6
   2  12  -3 6076.53 594.716  10
  -1  12   3 25.8033 443.354   9
  -1  12   3-607.944 522.065  16
   1 -12  -3-10.4153 375.059  13
  -1  12   3 413.485 429.839  15
   1 -12  -3 101.150 330.090  14
   1  12  -3-778.797 374.934   7
   1 -12  -3 60.6270 342.011  12
  -1 -12   3 1142.68 445.376  11
  -1 -12   3 196.323 388.021   6
   1  12  -3-128.949 270.753  10
   0  12   3 15580.9 1133.62  16
   0  12   3 14485.0 1006.70  15
   0  12  -3 14707.6 972.263   7
   0 -12  -3 15331.8 942.293  14
   0 -12  -3 14338.3 968.653  13
   0 -12   3 14276.6 963.493   6
   0 -12  -3 14431.4 897.887  12
   0 -12   3 14253.1 967.579  11
   0  12  -3 15320.1 938.371  10
   0  12   3 14708.5 1050.31   9
   1  12   3 377.889 468.038  16
   1  12   3 152.442 314.220  15
  -1  12  -3 1591.91 486.528   7
  -1 -12  -3 833.049 419.779  14
   1 -12   3 812.400 394.109   6
  -1  12  -3 351.704 337.298  10
   1  12   3 467.705 365.902   9
  -2  13   3 2497.19 720.941  16
  -2  13   3 2381.94 714.258  15
   2  13  -3 3336.83 527.215   7
   2 -13  -3 2042.93 513.824  13
  -2 -13   3 2406.79 679.574  11
  -2 -13   3 1902.47 626.304   6
   2  13  -3 3027.25 504.144  10
  -1  13   3 543.365 514.646  16
  -1  13   3 196.718 418.924  15
   1 -13  -3-282.072 396.868  14
   1  13  -3 247.919 333.082   7
   1 -13  -3-156.324 405.924  13
   1 -13  -3 42.4171 351.700  12
  -1 -13   3 387.637 465.516  11
  -1 -13   3 467.856 451.383   6
   1  13  -3 217.332 290.035  10
   0  13   3 9844.46 909.729  15
   0  13  -3 10016.4 882.128   7
   0 -13  -3 10203.7 832.142  14
   0 -13  -3 10179.3 889.934  13
   0 -13  -3 10359.3 835.232  12
   0 -13   3 10417.7 910.847   6
   0 -13   3 8744.02 829.235  11
   0  13  -3 10603.3 839.700  10
   0  13   3 9845.28 970.360  16
   0  13   3 11189.8 1005.24   9
   1  13   3 1402.16 562.885  16
   1  13   3 1472.48 503.957  15
  -1  13  -3 786.031 431.452   7
  -1 -13  -3 648.725 434.011  14
   1 -13   3 388.119 407.701   6
  -1  13  -3 912.354 441.868  10
   1  13   3-279.316 400.635   9
  -2  14   3 1418.29 672.627  16
   2  14  -3 694.785 418.475   7
  -2 -14   3 153.532 558.665  11
  -2 -14   3 1927.37 642.743   6
  -2  14   3 915.708 636.294  15
  -1  14   3 10050.4 1117.64  16
  -1  14   3 11205.3 1076.54  15
   1  14  -3 9100.97 818.856   7
   1 -14  -3 10936.5 904.073  14
   1 -14  -3 10136.7 952.124  13
  -1 -14   3 11312.5 1044.56  11
  -1 -14   3 8466.27 890.146   6
   1  14  -3 8548.06 773.624  10
   0  14   3 2989.34 721.189  16
   0  14   3 2227.16 594.327  15
   0 -14  -3 2557.57 555.216  14
   0  14  -3 1946.92 570.095   7
   0 -14  -3 2849.29 629.833  13
   0 -14   3 2582.55 607.392  11
   0 -14   3 2621.66 596.431   6
   0  14  -3 2156.61 480.298  10
   1  14   3 248.976 514.693  16
   1  14   3 478.266 414.160  15
  -1  14  -3 23.6164 495.231   7
   1 -14   3-183.961 447.917   6
  -1  14  -3-112.128 396.390  10
   1  15  -3 28209.0 1509.85   7
   1  15  -3 32968.4 1586.84  10
   0  15  -3 818.642 494.668   7
   0  15  -3 271.101 404.664  10
  -2   0   4 2573.89 508.701   9
   2   0  -4 2646.51 341.655   5
  -2   0   4 2616.00 462.873   8
   2   0  -4 2608.05 334.491   4
   2   0  -4 3182.00 366.682   2
  -2   0   4 3134.05 469.964   1
  -2   0   4 3021.65 475.957   3
  -1   0   4 48319.1 1409.47   8
   1   0  -4 47795.6 1166.82   4
   1   0  -4 51621.0 1289.53   2
  -1   0   4 45571.2 1283.60   1
   1   0  -4 48728.9 1125.86  12
  -1   0   4 48636.6 1420.16   3
   1   0  -4 49352.3 1238.10   5
  -1   0   4 47349.2 1347.71   9
   0   0   4 38915.3 1191.50   8
   0   0  -4 36447.6 1047.01   4
   0   0  -4 37384.0 1104.03   2
   0   0   4 36151.1 1091.70   1
   0   0   4 36470.7 1163.41   3
   0   0  -4 36040.2 1005.78  12
   0   0  -4 35622.1 1069.51   5
   0   0   4 37451.1 1075.17   9
  -1   0  -4 194793. 2673.97   2
   1   0   4 187870. 2732.41   8
   1   0   4 191422. 2616.37   1
   1   0   4 189318. 2705.96   3
  -1   0  -4 189402. 2576.70   5
   1   0   4 186128. 2537.07   9
  -2   1   4 56212.9 1724.26   1
  -2   1   4 53712.5 1729.01   8
  -2  -1   4 52691.6 1712.95   8
   2  -1  -4 52381.6 1213.49   4
   2   1  -4 53962.3 1276.24   4
   2   1  -4 53303.9 1321.12   2
   2  -1  -4 53720.7 1303.93   2
  -2  -1   4 52894.0 1417.54   6
  -2   1   4 53912.0 1666.01   3
  -2  -1   4 55052.0 1752.77   3
  -2  -1   4 53465.8 1664.43   1
   2  -1  -4 52436.7 1311.99   5
   2   1  -4 54176.2 1307.57   5
  -2   1   4 54769.1 1813.64   9
  -1   1   4 11067.8 702.697   8
  -1  -1   4 9102.30 642.719   8
   1  -1  -4 11220.4 573.365   4
   1   1  -4 9744.47 570.032   4
   1   1  -4 10395.0 610.292   2
   1  -1  -4 10712.0 599.186   2
   1  -1  -4 10126.3 554.717  12
   1   1  -4 10041.7 493.723   7
  -1  -1   4 9935.21 617.583   1
   1   1  -4 10366.3 508.737  12
  -1   1   4 9973.36 661.884   3
  -1   1   4 9622.22 604.728   1
  -1  -1   4 10882.6 725.407   3
   1   1  -4 10354.5 581.015   5
   1  -1  -4 9934.28 585.946   5
  -1   1   4 9202.34 636.772   9
  -1  -1   4 9411.09 625.289   9
   0   1   4 37393.9 1183.43   8
   0  -1   4 38078.6 1161.77   8
   0  -1  -4 39712.3 1054.23   4
   0   1  -4 38384.6 1097.54   4
   0   1  -4 36856.8 1119.67   2
   0  -1  -4 38721.6 1098.04   2
   0  -1   4 38696.4 1135.56   1
   0   1  -4 38378.5 948.084   7
   0   1   4 39230.8 1098.69   1
   0   1   4 40021.8 1187.80   3
   0  -1   4 37585.8 1192.15   3
   0   1  -4 39108.0 1003.07  12
   0  -1  -4 39123.4 1081.44  12
   0   1  -4 38814.0 1111.36   5
   0  -1  -4 37034.1 1096.22   5
   0   1   4 38684.0 1145.78   9
   0  -1   4 36848.4 1035.42   9
   1   1   4-310.808 230.361   1
   1   1   4 128.957 258.465   8
   1  -1   4 165.443 233.896   8
   1  -1   4-36.3865 213.958   1
  -1  -1  -4-309.730 249.569   2
  -1   1  -4 58.7987 231.675   2
  -1   1  -4 37.2954 211.744   4
   1  -1   4-54.5731 263.764   3
  -1   1  -4 14.8914 210.089   5
  -1  -1  -4 156.493 244.404   5
   1  -1   4 195.218 201.141   9
   1   1   4 66.6053 229.508   9
  -2   2   4 7262.36 663.397   1
   2  -2  -4 8153.44 519.943   2
  -2   2   4 8389.07 734.438   8
  -2  -2   4 7661.92 726.174   8
   2  -2  -4 8398.71 498.395   4
   2   2  -4 8234.36 533.333   4
   2   2  -4 8052.84 546.184   2
  -2  -2   4 9336.29 726.848   6
  -2   2   4 7609.50 664.475   3
   2  -2  -4 8404.71 558.177   5
   2   2  -4 7796.94 522.568   5
  -2   2   4 7793.57 708.477   9
  -1   2   4 1794.92 362.294   9
   1   2  -4 1968.93 327.498   5
   1  -2  -4 2350.21 349.542   5
  -1  -2   4 2025.00 354.578   8
  -1   2   4 1877.85 331.967   1
   1  -2  -4 1831.27 273.517   4
   1   2  -4 2132.75 325.417   4
   1   2  -4 2059.90 266.947   7
  -1   2   4 2414.61 400.507   8
   1  -2  -4 3549.31 380.088  12
   1   2  -4 2129.45 318.571   2
   1  -2  -4 2551.09 319.381   2
  -1  -2   4 2470.90 346.734   6
  -1  -2   4 1834.49 338.177   1
  -1   2   4 2464.26 368.523   3
  -1  -2   4 1743.27 388.089   3
   0   2   4 11929.7 692.808   8
   0  -2  -4 11415.9 569.157   4
   0  -2   4 11494.0 649.998   8
   0   2  -4 11917.1 653.020   4
   0   2  -4 11052.8 648.427   2
   0  -2  -4 11997.8 622.317   2
   0   2  -4 11720.4 564.897   7
   0  -2   4 11208.8 641.115   1
   0   2   4 11877.9 609.148   1
   0   2   4 11051.6 638.047   3
   0  -2   4 11521.2 700.468   3
   0  -2   4 11741.8 631.320   6
   0  -2  -4 11083.4 611.620  12
   0   2  -4 12150.8 637.404   5
   0  -2  -4 11930.9 651.589   5
   0   2   4 11151.4 670.248   9
  -1  -2  -4 19454.5 807.817   2
  -1   2  -4 17779.8 844.807   2
   1   2   4 17214.7 853.261   8
   1  -2   4 17421.1 825.304   8
  -1   2  -4 17378.6 796.830   4
   1   2   4 18617.2 778.381   1
   1  -2   4 16740.5 802.970   1
  -1   2  -4 17707.6 718.745   7
   1  -2   4 18277.9 873.960   3
  -1  -2  -4 17315.9 785.872  12
  -1   2  -4 17923.0 790.434   5
  -1  -2  -4 17776.5 810.906   5
   1   2   4 16915.0 824.492   9
  -2   3   4 501.221 376.980   9
   2  -3  -4 634.519 262.930   5
   2   3  -4 734.060 262.181   5
  -2  -3   4 49.6786 291.305   1
   2  -3  -4 740.247 211.973   4
  -2  -3   4 2691.84 478.443   8
  -2   3   4 167.107 321.520   8
   2   3  -4 272.832 214.175   4
   2   3  -4 271.652 183.515   7
  -2  -3   4 2005.92 443.576   6
   2   3  -4 469.408 246.506   2
  -2   3   4-34.2676 322.155   3
  -2  -3   4 810.703 496.663   3
  -1   3   4 5488.31 552.378   8
  -1  -3   4 5251.07 516.412   8
   1  -3  -4 5244.54 379.995   4
   1   3  -4 5242.78 443.606   4
   1   3  -4 5630.05 488.397   2
   1  -3  -4 5426.02 412.436   2
   1   3  -4 5168.37 405.948   7
  -1  -3   4 5618.31 509.945   1
   1  -3  -4 5765.18 482.481  12
  -1   3   4 5535.62 497.158   3
  -1  -3   4 5055.12 482.472   6
  -1  -3   4 6128.34 596.287   3
  -1   3   4 5555.44 481.387   1
   1   3  -4 4988.94 435.341   5
   1  -3  -4 5564.34 468.791   5
  -1   3   4 5852.87 560.529   9
   0  -3  -4 843.245 279.736   5
   0   3   4 357.144 250.385   8
   0  -3   4 132.954 209.891   8
   0  -3  -4 458.493 190.432   4
   0  -3   4 327.570 213.990   1
   0   3  -4 190.675 240.924   4
   0   3  -4 469.862 207.846   7
   0   3   4 582.416 225.251   1
   0   3  -4-63.7343 233.411   2
   0  -3  -4 630.331 219.862   2
   0  -3  -4 322.014 223.219  12
   0  -3   4 676.557 250.293   6
   0   3   4 273.069 207.928   3
   0  -3   4 292.662 274.785   3
   0   3   4 577.568 248.045   9
   0   3  -4 411.047 220.084   5
  -1  -3  -4 8774.03 557.126   2
  -1   3  -4 8133.71 604.859   2
   1   3   4 8643.14 628.966   8
   1  -3   4 7849.97 572.791   8
  -1   3  -4 9424.91 622.696   4
   1   3   4 8497.17 525.252   1
   1  -3   4 9028.64 629.633   1
  -1   3  -4 8717.89 537.937   7
   1  -3   4 9766.38 665.887   3
  -1  -3  -4 9099.08 603.897  12
  -1   3  -4 8217.41 562.044   5
  -1  -3  -4 8678.65 593.852   5
   1   3   4 8095.87 601.167   9
  -2   4   4 9625.71 800.435   8
  -2  -4   4 10118.4 887.394   8
   2   4  -4 10087.9 617.867   4
   2   4  -4 9355.07 621.052   2
   2   4  -4 9770.77 589.150   7
  -2  -4   4 9209.08 755.167   6
  -2  -4   4 10127.5 847.479   3
  -2  -4   4 9931.64 794.084   1
   2  -4  -4 10239.5 619.344   5
   2   4  -4 10045.0 574.246   5
  -2   4   4 10692.1 872.565   9
  -1   4   4 20601.1 978.278   8
  -1  -4   4 19931.7 950.593   8
   1   4  -4 21331.9 864.290   4
   1   4  -4 20161.7 907.844   2
   1   4  -4 21638.5 840.129   7
  -1  -4   4 20020.7 941.628   1
   1  -4  -4 21576.1 890.908  12
  -1  -4   4 20370.2 930.581   6
  -1  -4   4 22176.6 1065.47   3
   1   4  -4 20061.5 788.861   5
   1  -4  -4 21040.4 856.475   5
  -1   4   4 22552.3 1067.18   9
   0   4   4 28466.0 1073.13   8
   0  -4   4 28766.4 1028.14   8
   0   4  -4 29586.9 1018.20   4
   0   4  -4 28996.2 1060.73   2
   0   4  -4 28763.5 943.968   7
   0  -4   4 28552.7 1048.64   1
   0  -4   4 29068.7 1115.01   3
   0  -4   4 26795.9 1023.61   6
   0  -4  -4 27857.3 1011.29  12
   0   4  -4 28580.0 944.117   5
   0  -4  -4 29319.3 1008.78   5
   0   4   4 29344.4 1135.72   9
  -1   4  -4 58310.2 1536.28   2
   1   4   4 56380.6 1519.43   8
  -1   4  -4 59539.2 1490.19   4
   1  -4   4 56221.4 1435.26   8
   1  -4   4 55473.2 1500.77   1
  -1   4  -4 57414.5 1382.06   7
   1  -4   4 56073.1 1544.79   3
  -1  -4  -4 58906.1 1515.58  12
  -1  -4  -4 57543.1 1471.61   5
   1   4   4 53881.1 1535.47   9
  -2   5   4 32278.5 1467.03   8
  -2  -5   4 33744.5 1624.56   8
   2   5  -4 31852.2 1064.94   4
  -2   5   4 29903.5 1187.59  15
   2   5  -4 32033.2 1116.90   2
   2   5  -4 31195.7 1065.58   7
  -2  -5   4 29713.3 1320.49   6
  -2  -5   4 33787.5 1477.57   3
  -2  -5   4 30602.7 1362.14   1
   2   5  -4 30627.8 966.364   5
   2  -5  -4 32318.3 1066.88   5
  -2   5   4 32995.9 1490.73   9
  -1   5   4 8859.28 680.969   8
  -1  -5   4 9359.98 682.412   8
   1   5  -4 8970.76 598.677   4
  -1   5   4 9414.64 662.166  16
   1   5  -4 8578.94 616.811   2
   1   5  -4 9549.00 603.827   7
   1  -5  -4 9186.66 566.791  13
   1  -5  -4 9112.23 645.587  12
  -1  -5   4 8850.23 670.138   1
  -1  -5   4 8353.22 666.547   6
  -1  -5   4 9603.33 737.091   3
   1   5  -4 8710.67 535.026   5
   1  -5  -4 9214.99 599.313   5
  -1   5   4 9603.79 758.326   9
   0   5   4 39151.0 1264.96   8
   0  -5   4 36283.6 1173.46   8
   0   5  -4 37202.9 1170.93   4
   0   5  -4 36122.1 1212.68   2
   0   5  -4 36693.5 1133.83   7
   0  -5   4 35711.0 1200.45   1
   0   5   4 36674.1 1193.79  16
   0  -5  -4 36650.4 1109.43  13
   0  -5   4 37899.8 1304.52   3
   0  -5   4 36297.7 1220.74   6
   0  -5  -4 37575.6 1209.32  12
   0   5  -4 36169.5 1044.35   5
   0  -5  -4 37653.9 1147.25   5
   0   5   4 36594.5 1306.67   9
   1   5   4 1101.16 307.900   8
   1  -5   4 644.414 255.606   8
   1  -5   4 544.559 300.940   1
  -1   5  -4 920.631 300.667   4
  -1   5  -4 600.234 258.322   7
  -1   5  -4 551.852 310.711   2
  -1  -5  -4 826.554 313.168  12
   1  -5   4 834.591 343.421   6
   1  -5   4 551.899 326.533   3
  -1  -5  -4 877.070 312.859   5
   1   5   4 537.527 290.916   9
  -2   6   4 20638.3 1258.16   8
   2   6  -4 19366.6 872.427   4
  -2   6   4 19752.7 1044.19  15
   2   6  -4 17174.6 866.883   2
   2   6  -4 20872.6 907.185   7
  -2  -6   4 20789.2 1156.92   6
  -2  -6   4 18903.4 1156.59   3
  -2  -6   4 18293.1 1110.06   1
   2  -6  -4 19309.3 862.105   5
  -2   6   4 21047.4 1251.35   9
  -1   6   4 998.333 358.710   9
   1  -6  -4 439.632 274.812   5
  -1  -6   4 926.780 360.661   1
  -1   6   4 692.535 305.525   8
  -1   6   4 806.637 312.965  15
   1   6  -4 834.082 307.579   4
   1  -6  -4 867.888 249.184  14
   1   6  -4 552.332 260.487   7
   1  -6  -4 1031.33 303.184  13
   1  -6  -4 636.732 320.721  12
   1   6  -4 406.033 289.024   2
  -1  -6   4 717.290 356.842   6
  -1   6   4 850.257 348.090  16
  -1  -6   4 717.077 421.269   3
   0   6   4 32250.3 1189.04   8
   0   6  -4 30361.0 1088.18   4
   0   6  -4 31139.2 1160.32   2
   0   6   4 31410.8 1178.58  16
   0   6  -4 28756.0 1049.46   7
   0   6   4 31674.0 1163.15  15
   0  -6   4 29793.6 1150.80   1
   0  -6  -4 32420.9 1011.46  14
   0  -6  -4 30141.1 1083.36  13
   0  -6   4 29241.6 1191.18   3
   0  -6   4 32024.1 1206.77   6
   0  -6  -4 31434.7 1165.42  12
   0  -6  -4 30488.4 1041.14   5
   0   6   4 31498.4 1280.53   9
  -1   6  -4 49300.1 1424.32   4
  -1   6  -4 47936.5 1492.44   2
   1   6   4 50490.2 1486.70   8
   1  -6   4 46247.6 1435.38   1
   1   6   4 48599.9 1447.56  16
  -1   6  -4 47625.0 1382.64   7
   1  -6   4 49181.4 1529.10   3
   1  -6   4 50625.9 1533.79   6
  -1  -6  -4 49163.5 1504.27  12
   1   6   4 45837.8 1509.82   9
  -2   7   4 15676.5 1183.17   8
   2   7  -4 14623.3 772.042   4
  -2   7   4 16046.9 1093.59  16
  -2   7   4 13791.7 947.895  15
   2   7  -4 15330.0 830.696   7
   2   7  -4 14426.5 808.768   2
  -2  -7   4 13076.4 974.357   6
  -2  -7   4 14918.9 1065.54   3
   2  -7  -4 15859.5 791.761   5
  -2  -7   4 14754.4 1055.86   1
  -2   7   4 15731.5 1127.20   9
  -1   7   4 33689.4 1354.03   8
   1   7  -4 31871.8 1139.15   4
  -1   7   4 34482.5 1418.15  16
   1   7  -4 33121.3 1226.36   2
  -1   7   4 32096.5 1265.70  15
   1   7  -4 32943.6 1163.96   7
   1  -7  -4 33114.4 1076.36  14
   1  -7  -4 31241.1 1153.14  13
   1  -7  -4 33754.6 1239.56  12
  -1  -7   4 33016.0 1366.64   3
  -1  -7   4 30907.9 1295.37   6
  -1  -7   4 28070.8 1223.61   1
   1  -7  -4 32444.1 1084.33   5
  -1   7   4 33536.5 1445.47   9
   0   7  -4 10228.4 695.695   4
   0   7   4 10912.3 741.449   8
   0   7  -4 11047.8 741.668   2
   0   7   4 10099.0 756.583  16
   0   7  -4 10024.1 662.282   7
   0   7   4 10603.3 734.317  15
   0  -7  -4 10853.0 637.209  14
   0  -7   4 10081.9 733.235   1
   0  -7  -4 10027.1 682.396  13
   0  -7   4 11068.3 778.996   3
   0  -7   4 10915.0 775.674   6
   0  -7  -4 10035.1 701.016  12
   0  -7  -4 10478.1 656.005   5
   0   7   4 9919.49 770.095   9
  -1   7  -4 10291.7 711.624   4
   1   7   4 9765.25 711.748   8
  -1   7  -4 9550.06 725.393   2
   1   7   4 8542.81 673.809  16
   1  -7   4 9081.45 672.646   1
  -1   7  -4 8629.71 673.306   7
   1  -7   4 9528.80 753.306   3
   1  -7   4 10676.9 756.698   6
  -1  -7  -4 10327.2 750.234  12
   1   7   4 10501.4 802.292   9
   2   8  -4 20730.7 946.160   4
  -2   8   4 19372.6 1267.34  16
  -2   8   4 19606.9 1181.96  15
   2   8  -4 20714.0 985.625   7
   2   8  -4 20620.4 1004.26   2
  -2  -8   4 20528.9 1222.65   6
  -2  -8   4 22299.2 1284.17   3
  -2   8   4 20453.8 1345.55   9
  -2  -8   4 19775.4 1274.01   1
  -1   8   4 364.287 369.431   9
  -1   8   4 824.706 431.576  16
  -1   8   4 755.269 400.528  15
   1   8  -4 1204.42 347.229   4
  -1  -8   4 1027.30 423.562   1
   1  -8  -4 1629.92 349.012  14
   1   8  -4 627.278 273.530   7
   1  -8  -4 1172.09 367.580  13
   1  -8  -4 646.783 368.562  12
  -1  -8   4 958.892 442.059   6
   1   8  -4 1004.93 310.913   2
  -1  -8   4 1412.81 427.644   3
   0   8  -4 12297.0 743.159   4
   0   8  -4 12534.0 814.412   2
   0   8   4 12210.6 870.085  16
   0   8  -4 12134.9 763.664   7
   0   8   4 10744.8 792.120  15
   0  -8  -4 12040.7 722.290  14
   0  -8   4 12165.9 835.996   1
   0  -8  -4 12552.1 802.958  13
   0  -8   4 13507.1 883.175   3
   0  -8   4 11704.3 835.873   6
   0  -8  -4 13235.5 831.017  12
   0   8   4 12412.1 900.550   9
   1   8   4 999.220 376.602  16
   1  -8   4 2113.02 414.969   1
  -1   8  -4 2139.13 415.890   7
  -1   8  -4 2606.91 470.713   2
  -1  -8  -4 2170.09 437.425  12
   1  -8   4 2620.13 475.732   6
   1  -8   4 2478.98 459.376   3
   1   8   4 1932.48 477.345   9
  -2   9   4 201.483 436.345   9
  -2   9   4 1602.63 588.294  16
  -2   9   4 1003.58 515.594  15
   2   9  -4 539.409 310.844   4
   2   9  -4-1132.13 449.030   7
   2  -9  -4 362.317 358.251  12
  -2  -9   4 813.843 497.311   1
  -2  -9   4-62.6443 556.857   6
  -2  -9   4 539.949 480.039   3
   2   9  -4-516.336 400.632   2
  -1   9   4 521.596 437.696   9
  -1   9   4 542.281 411.890  16
   1   9  -4-95.2100 285.105   4
  -1   9   4-386.013 385.967  15
   1  -9  -4 201.890 314.982  14
   1   9  -4 328.905 300.099   7
   1  -9  -4 95.7955 318.397  13
   1  -9  -4 28.1786 343.197  12
  -1  -9   4 349.744 390.542   1
  -1  -9   4 70.3901 415.646   6
   1   9  -4-192.969 297.203   2
  -1  -9   4-159.646 382.527   3
   0   9   4 3938.19 599.017  16
   0   9  -4 3456.21 471.722   4
   0   9   4 4538.34 591.319  15
   0   9  -4 3788.95 510.439   7
   0  -9  -4 4856.68 551.640  14
   0  -9  -4 3670.25 526.987  13
   0  -9  -4 4833.82 569.600  12
   0   9  -4 4628.13 593.438   2
   0  -9   4 4259.66 579.913   6
   0  -9   4 4183.33 558.759   1
   0  -9   4 4588.37 598.616   3
   0   9   4 4387.55 642.128   9
   1   9   4-230.667 368.385  16
   1  -9   4-221.008 353.513   1
  -1   9  -4 57.7104 309.937   7
  -1   9  -4-181.507 387.922   2
  -1  -9  -4 556.234 547.395  12
   1  -9   4 348.958 381.920   6
   1  -9   4-313.391 349.864   3
  -2  10   4 4338.73 814.914   9
  -2 -10   4 5369.22 1016.81   1
  -2  10   4 4270.37 767.519  16
  -2  10   4 3494.08 682.732  15
   2  10  -4 3753.21 483.184   4
   2  10  -4 3520.33 501.967   7
   2 -10  -4 3736.66 542.782  13
   2 -10  -4 4432.53 603.111  12
  -2 -10   4 3842.97 753.979   6
  -2 -10   4 2928.01 572.833   3
   2  10  -4 3896.42 535.675   2
  -1  10   4 3782.26 645.092   9
  -1  10   4 4228.52 726.308  16
   1  10  -4 3315.03 490.247   4
  -1  10   4 4276.48 646.024  15
   1 -10  -4 3941.20 520.727  14
   1  10  -4 4603.26 549.436   7
   1 -10  -4 4152.12 567.315  13
   1 -10  -4 3631.57 556.686  12
  -1 -10   4 4182.45 642.100   6
   1  10  -4 4395.60 539.449   2
  -1 -10   4 3512.73 585.490   3
  -1 -10   4 3406.84 585.993   1
   0  10   4 2852.42 587.895   9
   0  10   4 2725.77 562.091  16
   0  10  -4 3371.34 488.516   4
   0  10   4 3151.50 570.734  15
   0  10  -4 2321.10 485.399   7
   0 -10  -4 2640.20 459.183  14
   0 -10  -4 3165.18 535.117  13
   0 -10  -4 2263.25 482.787  12
   0  10  -4 2874.49 529.389   2
   0 -10   4 3099.33 557.459   6
   0 -10   4 3505.49 560.599   3
   0 -10   4 3183.52 528.155   1
  -1  10  -4 11893.8 929.225   2
   1  10   4 13094.4 1017.79  16
  -1  10  -4 12388.0 899.919   7
   1 -10   4 12594.8 889.230   1
   1 -10   4 12132.0 907.307   6
  -1 -10  -4 12016.8 903.176  12
   1  10   4 12952.5 1034.38   9
  -2  11   4 5797.12 932.137   9
   2  11  -4 6724.50 658.065   4
  -2  11   4 6130.29 923.105  16
  -2  11   4 6406.20 887.356  15
   2  11  -4 6577.26 668.786   7
   2 -11  -4 6690.27 757.751  13
   2 -11  -4 6371.06 719.177  12
  -2 -11   4 5690.14 849.580   6
   1  11  -4 9417.37 723.758   4
  -1  11   4 9996.58 1012.26  16
  -1  11   4 12342.9 1041.43  15
   1  11  -4 10639.6 823.850   7
   1 -11  -4 10603.3 792.409  14
   1 -11  -4 10669.4 874.312  13
   1 -11  -4 10951.4 859.252  12
  -1 -11   4 10302.3 931.880   6
  -1 -11   4 11381.5 982.229   1
  -1  11   4 11425.9 1084.50   9
   0  11   4 7592.85 878.861   9
   0  11  -4 6403.32 614.823   4
   0 -11   4 6869.69 736.253   1
   0  11   4 5958.88 778.485  16
   0  11   4 6872.71 765.804  15
   0  11  -4 6334.29 714.843   7
   0 -11  -4 6024.65 639.031  14
   0 -11  -4 6082.52 701.471  13
   0 -11  -4 5808.77 682.660  12
   0 -11   4 6480.52 765.283   6
   1  11   4 1668.40 578.096  16
  -1  11  -4 106.122 380.265   7
  -1 -11  -4 805.137 429.354  14
   1 -11   4 622.563 398.851   6
   1 -11   4 1541.39 462.561   1
   1  11   4 642.675 497.426   9
  -2  12   4 7025.51 1069.52   9
  -2  12   4 5348.41 920.798  16
  -2  12   4 6303.33 949.182  15
   2  12  -4 6013.81 679.375   7
   2 -12  -4 5549.29 741.809  13
   2 -12  -4 5555.27 701.365  12
  -2 -12   4 5675.72 921.265   6
  -1  12   4 440.510 493.439   9
  -1  12   4 655.206 538.651  16
  -1  12   4 860.622 492.104  15
   1 -12  -4-316.827 412.228  14
   1  12  -4 215.271 360.350   7
   1 -12  -4 57.8472 386.525  13
   1 -12  -4 226.634 387.311  12
  -1 -12   4 1129.98 566.267   6
   0  12   4 835.531 611.045   9
   0  12   4 1006.08 576.757  16
   0  12   4 1144.42 506.263  15
   0 -12  -4 631.290 421.381  14
   0  12  -4 808.472 449.592   7
   0 -12  -4 456.572 392.358  13
   0 -12  -4 1027.82 457.179  12
   0 -12   4 1838.46 601.306   6
  -1  12  -4 13436.1 1039.28   7
  -1 -12  -4 14100.0 969.877  14
   1 -12   4 14303.8 1075.11   6
   1  12   4 14102.6 1190.97  16
   1  12   4 14139.6 1155.12   9
  -2  13   4 11366.7 1436.28   9
  -2  13   4 11363.4 1332.78  16
  -2  13   4 9650.88 1183.96  15
   2  13  -4 9629.16 913.799   7
   2 -13  -4 9366.38 934.264  12
  -1  13   4 472.321 603.547   9
  -1  13   4-591.629 637.932  16
  -1  13   4 436.328 517.982  15
   1 -13  -4 673.778 453.432  14
   1  13  -4 493.624 406.099   7
   1 -13  -4 756.225 466.520  12
   0  13   4 706.965 621.792   9
   0  13   4 802.914 626.510  16
   0  13   4 457.176 481.720  15
   0  13  -4 760.438 501.806   7
   0 -13  -4 0.18195 408.314  12
   1  13   4 129.614 568.012   9
   1  13   4 916.383 626.894  16
  -1  13  -4 1327.58 522.015   7
  -1  14   4 5547.51 1043.75   9
   0  14   4-382.504 679.034   9
   2   0  -5-345.960 278.581   5
  -2   0   5 14.6961 414.381   9
  -2   0   5 250.561 402.443   8
   2   0  -5 192.043 266.189   4
  -2   0   5-79.7397 338.945   1
   2   0  -5 301.523 255.810   2
  -2   0   5-385.136 514.479   3
   1   0  -5 373.475 297.888   5
  -1   0   5 45.2739 294.949   1
  -1   0   5-128.321 341.601   8
   1   0  -5 324.965 254.779   4
   1   0  -5-188.266 255.672   2
  -1   0   5 58.4733 376.235   3
   0   0   5-139.520 303.105   8
   0   0  -5-383.882 288.223   4
   0   0   5-83.4948 290.444   1
   0   0  -5 162.312 276.533   2
   0   0   5-44.7492 340.306   3
   0   0  -5-156.565 272.685   5
   1   0   5 149.656 323.835   8
   1   0   5 819.986 354.996   1
  -1   0  -5 535.461 368.337   2
  -1   0  -5 87.5561 293.751   5
   2   1  -5 507.273 310.630   5
   2  -1  -5 1894.55 403.614   5
  -2   1   5 1252.35 521.047   9
  -2   1   5 1539.37 484.096   8
  -2  -1   5 1098.55 460.018   8
  -2  -1   5 809.310 408.619   1
   2  -1  -5 1313.18 298.675   4
   2   1  -5 1532.43 368.888   4
  -2   1   5 973.882 451.081   1
   2  -1  -5 1091.40 329.687  12
   2   1  -5 733.432 277.152   2
   2  -1  -5 1197.60 298.560   2
  -2   1   5 381.812 472.080   3
  -2  -1   5 999.263 567.132   3
  -1   1   5 1607.48 431.685   9
   1   1  -5 1232.62 336.557   5
   1  -1  -5 1111.51 388.821   5
  -1  -1   5 1295.30 349.722   1
  -1   1   5 1528.22 453.138   8
  -1  -1   5 1906.05 480.780   8
  -1   1   5 767.954 327.922   1
   1  -1  -5 1340.14 299.439   4
   1   1  -5 1144.26 311.635   4
   1  -1  -5 1025.08 300.651  12
   1   1  -5 1316.00 358.151   2
   1  -1  -5 972.056 296.273   2
  -1   1   5 1574.27 457.969   3
  -1  -1   5 1565.77 484.566   3
   0   1   5 4475.92 538.660   8
   0  -1   5 4539.69 538.451   8
   0  -1  -5 3910.37 437.840   4
   0   1  -5 3545.32 450.329   4
   0  -1   5 4058.57 507.753   1
   0   1  -5 4230.75 504.591   2
   0  -1  -5 4127.02 473.035   2
   0   1   5 3152.19 453.945   1
   0  -1  -5 3071.72 408.933  12
   0   1   5 4689.64 580.536   3
   0  -1   5 3689.51 537.357   3
   0   1  -5 3749.40 469.612   5
   0  -1  -5 4142.48 482.890   5
   0   1   5 4243.09 537.506   9
  -1   1  -5 11546.9 804.146   2
   1   1   5 12350.1 870.585   8
   1  -1   5 12340.5 853.532   8
  -1  -1  -5 12945.5 809.873   2
   1  -1   5 12793.3 817.761   1
   1   1   5 12261.2 797.858   1
   1  -1   5 12042.5 835.701   3
  -1   1  -5 12957.2 791.628   5
  -1  -1  -5 12350.7 794.212   5
   1   1   5 12944.4 816.472   9
  -2   2   5 51941.1 1938.80   1
  -2   2   5 52758.4 1999.29   8
  -2  -2   5 50729.7 1941.08   8
   2  -2  -5 52317.2 1355.57   4
   2   2  -5 48936.6 1427.70   4
   2   2  -5 51298.7 1518.38   2
   2  -2  -5 51498.8 1429.71   2
   2  -2  -5 46894.4 1373.10  12
  -2   2   5 52725.5 1842.66   3
  -2  -2   5 50975.2 2001.81   3
  -2  -2   5 46846.3 1815.77   1
   2   2  -5 47940.3 1416.55   5
   2  -2  -5 52782.2 1508.62   5
  -2   2   5 51063.0 1986.32   9
  -1   2   5 31942.0 1386.30   8
  -1  -2   5 29401.2 1334.00   8
   1  -2  -5 29444.2 1024.96   4
   1   2  -5 26787.7 1062.50   4
   1   2  -5 28570.8 1157.60   2
   1  -2  -5 28699.4 1069.08   2
  -1   2   5 30114.7 1283.75   3
   1  -2  -5 26920.9 1049.77  12
  -1  -2   5 28864.5 1364.97   3
  -1  -2   5 28016.1 1246.57   1
  -1   2   5 27018.6 1178.37   1
   1   2  -5 27904.1 1079.29   5
   1  -2  -5 28053.4 1098.47   5
  -1   2   5 29132.0 1312.16   9
   0  -2  -5 25170.0 972.100   4
   0   2  -5 24046.6 1026.23   4
   0   2   5 26982.7 1214.93   8
   0  -2   5 24798.5 1137.23   8
   0   2  -5 23182.9 1057.02   2
   0  -2  -5 24300.1 997.042   2
   0  -2   5 25508.4 1126.48   1
   0   2   5 24996.7 1061.46   1
   0   2   5 25996.1 1164.42   3
   0  -2   5 26225.3 1218.95   3
   0  -2  -5 25240.2 1016.55  12
   0   2  -5 25226.5 1027.42   5
   0  -2  -5 25194.1 1055.77   5
   0   2   5 27005.2 1208.22   9
   1   2   5 125652. 2623.18   8
   1  -2   5 119640. 2465.87   8
  -1   2  -5 132284. 2571.92   2
  -1  -2  -5 131049. 2396.37   2
   1  -2   5 123700. 2500.39   1
   1  -2   5 125379. 2592.75   3
  -1   2  -5 126463. 2424.56   5
  -1  -2  -5 123143. 2391.99   5
   1   2   5 124621. 2544.87   9
  -2   3   5 3353.19 662.777   9
   2   3  -5 2328.28 396.411   5
   2  -3  -5 3032.21 461.822   5
  -2  -3   5 2310.19 526.772   1
  -2   3   5 2077.72 564.147   8
  -2  -3   5 2881.13 600.907   8
   2   3  -5 2516.49 406.423   4
   2  -3  -5 2027.56 410.585  12
   2   3  -5 2764.70 442.205   2
  -2  -3   5 4130.05 765.541   3
   1   3  -5 7001.02 596.222   4
  -1   3   5 6249.55 703.757   8
  -1  -3   5 6991.15 695.120   8
   1  -3  -5 6308.53 579.363  12
  -1  -3   5 6927.36 692.068   1
   1   3  -5 5945.13 584.610   2
   1   3  -5 6641.15 564.482   5
   1  -3  -5 6491.17 575.405   5
  -1  -3   5 7014.35 756.142   3
  -1   3   5 6577.87 727.868   9
   0   3   5 2867.46 507.637   8
   0  -3   5 1987.15 417.076   8
   0   3  -5 2533.21 414.281   4
   0  -3   5 2616.09 457.103   1
   0   3  -5 2245.40 427.357   2
   0  -3  -5 2514.80 419.640  12
   0  -3   5 2300.01 493.494   3
   0   3  -5 2201.76 384.852   5
   0  -3  -5 2442.80 430.126   5
   0   3   5 2974.30 481.177   9
   1   3   5 7950.98 719.937   8
   1  -3   5 7992.05 679.866   8
  -1   3  -5 8450.21 725.331   2
   1  -3   5 6972.87 641.985   1
   1  -3   5 7836.24 705.018   3
  -1  -3  -5 7960.56 680.398   5
   1   3   5 8492.16 736.634   9
  -2   4   5 12142.7 1049.99   8
  -2  -4   5 12802.7 1071.55   8
   2   4  -5 11632.2 739.462   4
   2   4  -5 11610.8 772.551   2
   2   4  -5 11607.0 706.168   7
   2  -4  -5 11328.8 762.315  12
  -2  -4   5 11153.9 917.094   6
  -2  -4   5 10964.5 957.323   1
   2   4  -5 11275.3 704.294   5
   2  -4  -5 11193.7 746.222   5
  -2  -4   5 10829.0 1038.70   3
  -2   4   5 12059.5 1043.39   9
  -1   4   5 18353.6 1109.03   8
  -1  -4   5 17858.2 1078.43   8
   1   4  -5 16766.3 889.126   4
   1   4  -5 16759.1 928.710   2
   1   4  -5 17626.3 843.969   7
  -1  -4   5 18198.0 1041.79   6
   1  -4  -5 16384.8 889.280  12
  -1  -4   5 16029.5 1072.06   3
  -1  -4   5 17891.9 1045.25   1
   1   4  -5 16398.7 837.123   5
   1  -4  -5 16941.8 894.245   5
  -1   4   5 16294.6 1081.22   9
   0   4   5 1003.71 409.169   8
   0  -4   5 756.483 379.180   8
   0   4  -5 1096.96 320.373   4
   0   4  -5 1277.60 320.273   7
   0  -4   5 827.766 369.622   1
   0   4  -5 188.993 325.536   2
   0  -4  -5 1230.04 361.090  12
   0  -4   5 1578.21 442.261   6
   0  -4   5 877.229 377.204   3
   0   4  -5 999.025 311.269   5
   0  -4  -5 1316.44 355.580   5
   0   4   5 1326.99 454.103   9
   1   4   5 53208.6 1706.88   8
   1  -4   5 51880.2 1623.34   8
  -1   4  -5 52926.7 1689.22   2
   1  -4   5 56882.0 1738.35   1
  -1   4  -5 58277.4 1569.40   7
   1  -4   5 54573.3 1761.81   3
  -1  -4  -5 58231.3 1721.89   5
   1   4   5 54814.1 1787.66   9
  -2   5   5 27329.5 1522.23   8
  -2  -5   5 31301.0 1703.63   8
   2   5  -5 30390.4 1185.18   4
   2   5  -5 30629.9 1246.19   2
   2   5  -5 31199.6 1179.86   7
   2  -5  -5 31104.9 1236.05  12
  -2  -5   5 27739.9 1418.40   6
  -2  -5   5 30576.0 1639.80   3
  -2  -5   5 25271.7 1408.37   1
   2   5  -5 30293.8 1116.83   5
   2  -5  -5 30863.5 1186.00   5
  -2   5   5 31886.9 1665.07   9
   1   5  -5 572.158 296.813   5
  -1   5   5-196.925 406.322   9
   1  -5  -5 934.871 367.401   5
  -1  -5   5 379.460 351.805   1
  -1   5   5 364.017 365.429   8
  -1  -5   5 963.542 432.739   8
   1   5  -5 530.457 355.866   4
   1   5  -5 723.208 300.985   7
   1  -5  -5-257.838 320.294  12
   1   5  -5 273.663 309.628   2
  -1  -5   5 92.4848 408.999   6
  -1  -5   5 1181.25 549.253   3
   0   5   5 2602.50 523.440   8
   0  -5   5 1870.29 447.679   8
   0   5  -5 1932.52 415.238   4
   0   5  -5 2032.04 379.177   7
   0   5  -5 1756.34 438.835   2
   0  -5  -5 1732.65 418.247  12
   0  -5   5 820.974 364.629   1
   0  -5   5 1610.24 459.895   6
   0  -5   5 1228.55 449.638   3
   0   5  -5 1433.40 353.362   5
   0  -5  -5 1830.85 394.389   5
   0   5   5 1609.14 413.348   9
   1   5   5 1542.06 440.409   8
   1  -5   5 2117.00 441.227   8
   1  -5   5 2059.86 438.580   1
  -1   5  -5 1523.88 357.682   7
  -1   5  -5 1221.72 397.826   2
   1  -5   5 1500.90 451.397   3
   1   5   5 1419.32 444.903   9
  -2   6   5 7585.88 938.750   9
   2   6  -5 6085.66 596.061   4
  -2  -6   5 5518.14 749.596   1
  -2   6   5 5065.99 765.397   8
   2   6  -5 5382.07 604.919   2
   2   6  -5 6258.83 586.316   7
   2  -6  -5 5938.72 638.671  12
  -2  -6   5 5399.99 792.459   6
   2  -6  -5 6231.94 601.775   5
  -2  -6   5 5175.08 795.748   3
  -1   6   5 13543.3 1011.46   8
   1   6  -5 11822.5 774.153   4
   1   6  -5 13029.5 866.629   2
   1   6  -5 11532.6 747.756   7
  -1  -6   5 12538.2 999.206   3
   1  -6  -5 12425.3 840.225  12
  -1  -6   5 11407.6 905.209   6
  -1  -6   5 11758.6 914.497   1
   1  -6  -5 12179.4 781.634   5
  -1   6   5 10579.8 954.434   9
   0   6   5-55.3360 378.840   8
   0   6  -5 553.043 370.591   4
   0   6  -5-271.128 287.551   7
   0   6  -5 62.3988 349.611   2
   0  -6  -5 402.487 365.441  12
   0  -6   5 221.655 400.318   6
   0  -6   5-402.465 342.685   1
   0  -6   5 209.451 378.841   3
   0  -6  -5-168.928 304.987   5
   0   6   5-57.3113 412.229   9
   1   6   5 10230.6 821.817   8
  -1   6  -5 9904.53 793.346   2
   1  -6   5 10213.0 796.055   1
  -1   6  -5 11548.4 788.461   7
   1  -6   5 10727.6 876.889   3
   1   6   5 11732.5 932.672   9
  -2   7   5 544.608 518.196   9
   2  -7  -5 376.095 355.560   5
  -2   7   5-1206.74 631.483   8
   2   7  -5 398.656 336.029   4
   2   7  -5 40.5073 269.175   7
  -2  -7   5 1210.19 559.102   1
   2  -7  -5 333.717 364.744  12
  -2  -7   5 229.564 520.549   6
   2   7  -5-456.151 338.081   2
  -2  -7   5 1002.72 578.931   3
   1  -7  -5 1240.43 363.077   5
  -1   7   5 2833.04 641.111   9
  -1   7   5 1037.47 461.977   8
  -1  -7   5 635.022 414.855   1
   1   7  -5 1224.17 374.271   4
   1   7  -5 1387.23 377.914   7
   1  -7  -5 1513.96 441.528  12
  -1  -7   5 1629.11 557.246   6
   1   7  -5 1419.76 420.121   2
  -1  -7   5 1708.90 570.452   3
   0   7   5 385.451 427.614   9
   0   7   5 335.732 446.329   8
   0   7  -5 129.293 325.378   4
   0   7  -5 619.896 345.737   7
   0  -7  -5-181.099 369.251  12
   0   7  -5-414.419 392.770   2
   0  -7   5 171.383 379.571   6
   0  -7   5-376.290 400.640   1
   0  -7   5 66.6015 404.396   3
   0  -7  -5-126.912 319.836   5
   1   7   5 538.564 434.200   8
   1  -7   5-362.941 371.478   1
  -1   7  -5-7.48075 340.305   7
  -1   7  -5-124.571 362.895   2
   1  -7   5-1106.91 477.110   3
   1   7   5 341.929 411.031   9
  -2  -8   5 5857.58 806.687   1
  -2   8   5 4732.54 835.282   9
   2   8  -5 5092.44 589.826   4
   2   8  -5 5180.30 584.635   7
   2  -8  -5 4941.61 644.968  12
  -2  -8   5 4672.57 809.454   6
   2   8  -5 5123.04 627.231   2
  -2  -8   5 5541.96 879.203   3
   1   8  -5 11730.7 811.520   4
   1   8  -5 11582.3 875.150   2
   1   8  -5 12103.7 829.975   7
  -1  -8   5 11920.2 1002.58   3
   1  -8  -5 11980.2 879.481  12
  -1  -8   5 11733.2 1029.75   6
  -1  -8   5 12838.1 1034.53   1
  -1   8   5 13225.9 1142.66   9
   0   8   5 3275.83 658.511   9
   0   8  -5 2574.43 490.617   4
   0   8  -5 1872.79 450.966   7
   0  -8  -5 2454.03 522.289  12
   0   8  -5 2771.90 546.001   2
   0  -8   5 3576.31 651.628   6
   0  -8   5 2043.52 533.172   3
   0  -8   5 3091.68 566.774   1
  -1   8  -5 40199.4 1622.88   2
  -1   8  -5 41401.3 1520.25   7
   1  -8   5 37831.9 1607.45   1
   1   8   5 41347.1 1792.03   9
  -2  -9   5 21838.5 1547.86   1
   2   9  -5 19798.9 1073.79   4
   2   9  -5 21091.9 1128.69   7
   2   9  -5 20182.9 1144.98   2
   2  -9  -5 21903.5 1217.40  12
  -2  -9   5 22921.9 1560.35   3
  -2  -9   5 20569.1 1476.90   6
  -2   9   5 19985.0 1559.63   9
  -1   9   5 128.993 515.220   9
   1   9  -5-182.174 333.658   4
   1   9  -5 338.241 323.733   7
   1  -9  -5-356.080 439.001  12
  -1  -9   5 1091.42 592.189   6
  -1  -9   5 131.158 475.646   1
   1   9  -5-17.9336 366.510   2
  -1  -9   5 199.097 494.051   3
   0   9   5 758.777 610.490   9
   0   9  -5-575.362 432.527   4
   0   9  -5-118.170 316.008   7
   0  -9  -5 723.675 386.417  12
   0   9  -5 593.822 406.412   2
   0  -9   5 212.517 459.749   6
   0  -9   5-78.7357 444.208   3
   0  -9   5 54.5483 408.154   1
  -1   9  -5 185.304 350.791   7
   1  -9   5 750.507 478.275   1
  -1   9  -5 499.050 447.753   2
   1   9   5 702.809 468.657   9
  -2  10   5 191.439 661.581   9
   2  10  -5 443.657 394.257   4
   2  10  -5 830.010 398.168   7
   2 -10  -5 1434.92 498.294  13
   2 -10  -5 1470.30 524.336  12
  -2 -10   5 972.152 657.413   6
  -2 -10   5 893.072 603.522   1
  -2 -10   5 413.549 607.804   3
   2  10  -5 2124.65 564.409   2
  -1  10   5-460.493 626.769   9
   1  10  -5 655.012 378.223   4
   1  10  -5 530.032 349.741   7
   1 -10  -5 595.494 442.960  12
  -1 -10   5 365.052 541.186   6
   1  10  -5 446.177 418.445   2
  -1 -10   5-775.491 581.499   3
  -1 -10   5 134.277 493.137   1
   0  10   5 8269.71 1012.80   9
   0 -10   5 8213.98 888.577   1
   0  10  -5 7253.98 731.153   4
   0  10  -5 8370.25 859.550   2
   0  10  -5 7642.31 771.750   7
   0 -10  -5 6928.48 761.498  12
   0 -10   5 7573.00 901.569   6
   0 -10   5 8114.01 889.509   3
  -1  10  -5 4087.41 641.243   7
  -1  10  -5 4310.65 692.214   2
   1 -10   5 3629.39 659.358   1
   1  10   5 4323.43 796.320   9
  -2  11   5 1406.38 794.853   9
   2  11  -5 2572.13 549.366   4
   2  11  -5 2628.13 542.119   7
   2 -11  -5 2848.98 634.898  13
  -2 -11   5 4134.98 899.322   3
   2  11  -5 3013.88 592.496   2
  -1 -11   5 1109.20 584.085   1
  -1  11   5 2345.77 809.110   9
  -1  11   5 1156.92 649.149  16
   1  11  -5 1871.66 565.550   4
   1  11  -5 1113.97 422.210   7
   1 -11  -5 929.864 456.462  13
  -1 -11   5 2345.63 748.550   3
   1  11  -5 1827.57 547.723   2
   0  11   5 391.355 643.163   9
   0 -11   5 524.185 538.370   1
   0  11   5-643.617 600.812  16
   0  11  -5-416.877 427.133   4
   0  11  -5 698.145 412.430   7
   0  11  -5-62.3724 509.884   2
   0 -11   5 318.312 505.230   3
  -1  11  -5 990.170 459.813   7
  -1  11  -5 1064.36 574.971   2
   1 -11   5 485.085 455.778   1
   1  11   5-65.4177 602.882   9
  -1  12   5 242.544 609.149  16
  -1 -12   5 1037.96 628.316   1
   0  12   5 1468.64 718.343  16
   0 -12   5 1247.14 572.623   1
  -2   0   6 41317.1 2028.80   8
   2   0  -6 38704.1 1398.91   4
   2   0  -6 42483.5 1512.14   2
  -2   0   6 38994.5 1978.84   3
   2   0  -6 40160.0 1489.42   5
  -2   0   6 42303.7 1996.01   1
   1   0  -6 17723.6 949.905   4
  -1   0   6 20957.8 1386.21   8
   1   0  -6 16992.3 1002.46   2
  -1   0   6 21083.3 1381.98   3
  -1   0   6 19459.1 1256.48   1
   1   0  -6 18701.3 1028.62   5
   0   0   6 5345.20 717.605   8
   0   0  -6 4139.72 544.797   4
   0   0  -6 4320.83 604.376   2
   0   0   6 4307.00 722.597   3
   0   0   6 5411.46 663.911   1
   0   0  -6 4237.33 563.423   5
   1   0   6 6852.74 793.689   8
   1   0   6 7734.45 814.589   1
  -1   0  -6 7589.75 795.260   2
   2   1  -6 6338.04 664.632   5
  -2   1   6 6578.35 965.661   8
  -2  -1   6 7118.74 958.899   8
   2  -1  -6 4820.43 540.748   4
   2   1  -6 5420.25 612.084   4
  -2  -1   6 6400.78 846.117   1
   2   1  -6 6111.73 640.455   2
   2  -1  -6 6648.52 688.015   5
  -2   1   6 5557.81 883.990   3
  -2  -1   6 6103.99 1004.71   3
   2  -1  -6 5757.30 587.270   2
   1   1  -6 1445.93 418.105   5
   1  -1  -6 1642.06 430.094   5
  -1   1   6 457.094 486.207   8
  -1  -1   6 1605.04 489.018   8
   1  -1  -6 1285.28 389.665   4
   1   1  -6 1437.87 440.047   4
  -1  -1   6 1764.83 546.252   1
   1   1  -6 1962.65 487.293   2
   1  -1  -6 1709.37 394.492   2
  -1   1   6 1466.60 521.628   3
  -1  -1   6 1500.64 608.347   3
   0   1  -6 9561.81 763.735   4
   0   1   6 11747.5 1020.45   8
   0  -1   6 9827.35 915.035   8
   0   1  -6 10230.0 835.530   2
   0  -1  -6 10065.0 799.063   2
   0   1   6 10632.0 933.066   3
   0  -1   6 11114.0 902.743   1
   0  -1   6 11873.0 1025.56   3
   0   1  -6 10957.6 806.288   5
   0  -1  -6 9584.42 781.398   5
   1   1   6 617.710 483.252   8
   1  -1   6-361.017 514.215   8
   1  -1   6 76.1498 404.403   1
  -1   1  -6 1061.13 430.929   2
  -1  -1  -6 958.209 419.801   2
   2   2  -6 2310.26 491.841   5
   2  -2  -6 2121.32 491.560   5
  -2   2   6 3177.36 794.688   9
  -2   2   6 3116.74 757.462   8
  -2  -2   6 3958.32 831.461   8
   2   2  -6 1990.50 442.072   4
  -2  -2   6 4528.92 879.276   1
   2  -2  -6 2930.55 490.769  12
   2   2  -6 2642.17 472.144   2
  -2  -2   6 3135.00 914.344   3
   1   2  -6 709.562 364.615   5
   1  -2  -6 1833.04 434.671   5
  -1   2   6 1582.16 558.386   9
  -1   2   6 1694.65 639.395   8
  -1  -2   6 1378.47 504.011   8
   1   2  -6 871.594 383.523   4
  -1  -2   6 1547.16 572.105   1
   1  -2  -6 1642.94 423.426  12
   1   2  -6 1673.18 463.236   2
  -1  -2   6 2458.74 724.427   3
   0   2   6 6501.61 755.187   9
   0   2  -6 7745.26 704.317   4
   0  -2   6 8096.56 887.921   8
   0   2   6 6987.36 842.631   8
   0   2  -6 7567.31 739.062   2
   0  -2   6 8583.11 862.311   1
   0  -2  -6 7074.92 662.619  12
   0  -2   6 9118.87 928.029   3
   0   2  -6 7647.28 690.709   5
   0  -2  -6 7864.29 728.629   5
  -1   2  -6 8800.53 854.503   2
   1   2   6 7919.76 863.862   8
   1  -2   6 7804.70 813.436   8
   1  -2   6 7028.35 775.766   1
   2   3  -6 1246.52 358.030   5
   2  -3  -6 2138.62 501.305   5
  -2   3   6 1352.35 594.256   9
  -2   3   6 2805.52 778.395   8
  -2  -3   6 2563.74 751.629   8
  -2  -3   6 1977.30 653.962   1
   2   3  -6 1900.86 462.777   4
   2  -3  -6 1750.38 447.044  12
   2   3  -6 2407.76 485.876   2
  -2  -3   6 2272.84 762.044   3
   1   3  -6 1622.94 410.918   5
   1  -3  -6 2032.68 478.015   5
  -1   3   6 2594.46 662.882   9
  -1   3   6 2464.96 655.177   8
  -1  -3   6 1446.28 504.185   8
   1   3  -6 1822.63 464.720   4
  -1  -3   6 1890.62 527.427   1
   1  -3  -6 1365.01 420.594  12
   1   3  -6 2489.58 506.809   2
  -1  -3   6 1103.66 612.733   3
   0   3   6 2492.20 653.798   9
   0   3   6 2020.20 578.013   8
   0  -3   6 2319.00 589.627   8
   0   3  -6 1498.15 435.125   4
   0  -3  -6 1163.08 375.537  12
   0   3  -6 2066.35 494.113   2
   0  -3   6 1844.34 589.844   3
   0  -3   6 2313.24 571.649   1
   0   3  -6 2701.15 491.856   5
   0  -3  -6 1746.07 460.309   5
   1   3   6 1368.19 587.301   8
   1  -3   6 15.3728 422.228   8
   1  -3   6 820.738 482.597   1
  -1   3  -6 919.660 487.937   2
   1   3   6 1332.37 558.739   9
  -2   4   6 14853.0 1330.68   8
  -2  -4   6 14916.9 1337.38   8
   2   4  -6 13625.7 917.969   4
   2   4  -6 14469.2 972.355   2
   2  -4  -6 15505.3 991.551  12
  -2  -4   6 14549.0 1398.64   3
   2   4  -6 15107.6 909.810   5
   2  -4  -6 13654.9 927.666   5
  -2  -4   6 14781.2 1285.40   1
  -2   4   6 15116.1 1391.52   9
   1  -4  -6 6363.59 682.700   5
  -1   4   6 5572.26 792.193   9
  -1   4   6 6014.98 892.846   8
  -1  -4   6 5322.83 809.598   8
   1   4  -6 5531.35 633.568   4
  -1  -4   6 6422.02 846.788   1
   1  -4  -6 5197.48 625.321  12
   1   4  -6 5929.21 687.488   2
  -1  -4   6 6080.86 929.107   3
   1   4  -6 5646.40 597.926   5
   0   4   6 2453.35 630.166   9
   0   4   6 2592.83 652.008   8
   0  -4   6 1921.12 573.355   8
   0   4  -6 1729.53 434.217   4
   0  -4  -6 1001.29 377.172  12
   0   4  -6 1790.89 503.047   2
   0  -4   6 2344.76 615.266   3
   0  -4   6 1328.82 488.608   1
   0   4  -6 2273.17 462.571   5
   0  -4  -6 1520.08 417.680   5
   1   4   6 967.355 539.595   8
   1  -4   6 517.832 398.001   8
   1  -4   6 771.547 492.051   1
  -1   4  -6 986.917 461.919   2
   1   4   6 572.720 525.520   9
   2   5  -6 786.305 379.873   5
   2  -5  -6 2930.77 596.017   5
  -2   5   6 1667.92 678.239   9
  -2   5   6 544.385 614.414   8
  -2  -5   6 682.590 641.794   8
   2   5  -6 706.749 387.381   4
  -2  -5   6-27.2458 531.801   1
   2  -5  -6 3160.19 590.849  12
   2   5  -6-61.8173 338.359   2
  -2  -5   6 455.075 720.733   3
  -1   5   6 257.477 561.995   9
  -1   5   6 464.064 525.830   8
  -1  -5   6-459.033 541.019   8
   1   5  -6 96.9077 355.537   4
  -1  -5   6 265.143 494.326   1
   1  -5  -6-299.674 393.294  12
   1   5  -6-99.9960 392.523   2
  -1  -5   6-339.911 565.563   3
   1   5  -6-127.464 297.509   5
   1  -5  -6 224.653 358.933   5
   0   5   6 8446.85 958.428   9
   0   5   6 7092.56 877.432   8
   0  -5   6 7815.78 876.285   8
   0   5  -6 5790.50 652.787   4
   0  -5  -6 7704.07 777.533  12
   0   5  -6 6252.42 733.334   2
   0  -5   6 8424.94 923.636   3
   0   5  -6 6949.07 649.477   5
   0  -5   6 6735.13 786.037   1
   0  -5  -6 6900.78 691.249   5
   1   5   6 4544.33 727.139   8
   1  -5   6 3591.65 629.665   8
   1  -5   6 4567.67 694.532   1
  -1   5  -6 3902.66 656.686   2
   1   5   6 4034.84 698.909   9
   2   6  -6 10552.7 827.315   4
  -2   6   6 11070.9 1215.48   8
   2   6  -6 11272.5 888.402   2
   2  -6  -6 11628.1 929.700  12
   2  -6  -6 11536.1 919.055   5
  -2  -6   6 10857.1 1277.93   3
  -2  -6   6 11390.0 1206.10   1
  -2   6   6 12315.1 1348.46   9
  -1   6   6 10060.6 1106.33   9
   1   6  -6 9143.68 817.154   4
  -1   6   6 8867.70 1034.27   8
   1   6  -6 8168.10 777.764   2
   1  -6  -6 9685.65 856.551  12
  -1  -6   6 9011.01 932.960   1
  -1  -6   6 8296.07 1042.26   3
   1  -6  -6 8747.74 760.125   5
   0   6  -6 19209.4 1120.66   4
   0   6   6 21996.9 1424.30   8
   0   6  -6 20503.0 1228.63   2
   0  -6   6 21194.7 1427.19   3
   0  -6   6 22585.5 1353.55   1
   0  -6  -6 21125.0 1198.04  12
   0  -6  -6 18969.2 1092.46   5
   0   6   6 22665.0 1502.38   9
   1   6   6 21410.2 1318.92   8
  -1   6  -6 23632.9 1319.75   2
   1  -6   6 23476.4 1348.89   1
   1   6   6 23264.7 1484.97   9
   2  -7  -6 1369.30 479.413   5
  -2   7   6-576.268 702.724   9
  -2  -7   6 327.925 599.751   1
  -2   7   6-78.0393 677.053   8
   2   7  -6 73.0931 368.692   4
   2   7  -6 212.831 328.673   7
   2  -7  -6 680.128 498.360  12
  -2  -7   6 259.929 675.098   6
  -2  -7   6-567.045 755.617   3
   2   7  -6 29.9994 345.094   2
  -1   7   6 692.274 615.328   9
  -1   7   6-755.168 649.643   8
   1   7  -6-376.614 381.622   4
   1   7  -6 634.109 413.956   7
   1  -7  -6 311.585 420.784  12
  -1  -7   6 344.745 658.881   6
  -1  -7   6-116.838 481.444   1
   1   7  -6-855.161 474.716   2
  -1  -7   6-315.493 618.828   3
   1  -7  -6 801.094 430.183   5
   0   7   6-138.135 533.769   9
   0   7   6 83.2426 540.885   8
   0   7  -6 153.522 365.521   7
   0  -7  -6 907.145 457.809  12
   0  -7   6 954.324 602.788   6
   0   7  -6 545.688 454.585   2
   0  -7  -6 64.1080 362.138   5
   0  -7   6 1241.12 538.064   1
  -1   7  -6-114.140 464.801   2
   1  -7   6 1135.61 493.054   1
   1   7   6 526.726 549.209   9
  -2   8   6-339.932 752.094   9
   2   8  -6 853.583 416.677   7
  -2  -8   6 860.824 668.147   1
  -2  -8   6 5.46195 770.331   6
   2   8  -6-9.33938 437.052   2
  -1   8   6 152.997 585.711   9
   1   8  -6 618.669 398.307   7
  -1  -8   6 1337.75 727.598   6
   1   8  -6-590.828 501.103   2
  -1  -8   6 2374.04 773.493   1
   0   8   6-497.177 579.904   9
   0  -8   6-1015.70 564.517   1
   0   8  -6-883.706 451.997   7
   0  -8   6 479.002 614.382   6
   0   8  -6-289.837 490.381   2
   2   9  -6 4105.92 623.773   7
   2   9  -6 3581.65 640.532   2
   1   9  -6 938.027 415.946   7
   1   9  -6-145.476 436.854   2
   0   9  -6 184.900 382.214   7
  -2   0   7-216.115 702.501   8
  -2   0   7 46.1422 910.331   3
   2   0  -7-203.704 350.821   2
  -1   0   7-678.823 633.848   8
  -1   0   7-818.503 800.961   3
   1   0  -7 491.368 383.333   2
   0   0  -7-215.252 444.511   2
  -2   1   7 1611.64 880.417   8
  -2  -1   7 669.843 777.289   8
  -2  -1   7 445.529 701.758   1
   2   1  -7 57.5339 414.740   4
   2   1  -7 48.7871 400.375   2
  -1   1   7 3498.31 906.252   8
  -1  -1   7 2940.04 781.619   8
   1   1  -7 2240.32 497.544   4
   1   1  -7 3501.72 619.128   2
  -1  -1   7 2856.67 794.097   1
   0  -1   7 2258.61 654.241   1
   0   1  -7 1335.55 546.445   2
  -2  -2   7 2085.72 776.968   1
  -2   2   7 1450.77 750.659   8
  -2  -2   7 1261.35 729.362   8
   2   2  -7 2809.19 588.378   2
  -1  -2   7 622.003 680.205   8
   1   2  -7 654.800 446.096   2
  -1  -2   7 1374.52 732.187   1
   0  -2   7 13160.9 1217.07   1
   0   2  -7 10584.5 950.382   2
  -2  -3   7 299.659 758.216   8
  -2  -3   7-569.770 786.197   1
   2   3  -7 631.064 397.797   2
  -1  -3   7 64.3275 671.350   8
  -1  -3   7 332.406 597.697   1
  -2   4   7 10282.0 1404.96   9
  -2  -4   7 9779.38 1404.55   8
  -1   4   7 1420.23 768.829   9
  -1  -4   7 833.451 711.110   8
   0   0   0    0.00    0.00   0

TITL 1a in P2(1)/c
REM P2(1)/c (#14 in standard setting)
CELL 0.71073   7.885392  13.211638   5.694928  90.0000 101.1971  90.0000
ZERR    4.00   0.005859   0.000562   0.000322   0.0000   0.0228   0.0000
LATT  1
SYMM -x, y+1/2,-z+1/2
SFAC C H N Cl
UNIT 16.00 8.00 20.00 4.00
TREF
HKLF 4
END
;
_shelx_hkl_checksum              1374
_olex2_submission_special_instructions 'No special instructions were received'
_oxdiff_exptl_absorpt_empirical_details
;
Empirical correction (ABSPACK) includes:
- Absorption correction using spherical harmonics
- Frame scaling
;
_oxdiff_exptl_absorpt_empirical_full_max 2.092
_oxdiff_exptl_absorpt_empirical_full_min 0.767
loop_
_space_group_symop_operation_xyz
'x, y, z'
'-x, y+1/2, -z+1/2'
'-x, -y, -z'
'x, -y-1/2, z-1/2'
loop_
_atom_site_label
_atom_site_type_symbol
_atom_site_fract_x
_atom_site_fract_y
_atom_site_fract_z
_atom_site_U_iso_or_equiv
_atom_site_adp_type
_atom_site_occupancy
_atom_site_site_symmetry_order
_atom_site_calc_flag
_atom_site_refinement_flags_posn
_atom_site_refinement_flags_adp
_atom_site_refinement_flags_occupancy
_atom_site_disorder_assembly
_atom_site_disorder_group
Cl1 Cl 1.0288(3) 0.33898(4) 0.84022(13) 0.062(2) Uani 1 1 d . . . . .
N4 N 0.556(4) 0.3534(3) 0.5363(13) 0.041(14) Uani 1 1 d . . . . .
N5 N 0.703(2) 0.3316(2) 0.7002(5) 0.033(8) Uani 1 1 d . . . . .
N1 N 0.388(2) 0.4147(3) 0.2274(8) 0.047(9) Uani 1 1 d . . . . .
N3 N 0.398(3) 0.3372(4) 0.5736(17) 0.051(14) Uani 1 1 d . . . . .
N2 N 0.2966(14) 0.3751(2) 0.3832(8) 0.066(9) Uani 1 1 d . . . . .
C8 C 0.704(2) 0.4245(2) 0.2549(10) 0.039(10) Uani 1 1 d . . . . .
H8 H 0.701587 0.455311 0.107460 0.047 Uiso 1 1 calc R U . . .
C6 C 0.843(2) 0.3580(2) 0.6325(15) 0.058(10) Uani 1 1 d . . . . .
C9 C 0.561(4) 0.4008(3) 0.3254(8) 0.067(17) Uani 1 1 d . . . . .
C7 C 0.8624(18) 0.40180(18) 0.4103(5) 0.051(11) Uani 1 1 d . . . . .
H7 H 0.969486 0.414336 0.370922 0.061 Uiso 1 1 calc R U . . .
loop_
_atom_site_aniso_label
_atom_site_aniso_U_11
_atom_site_aniso_U_22
_atom_site_aniso_U_33
_atom_site_aniso_U_23
_atom_site_aniso_U_13
_atom_site_aniso_U_12
Cl1 0.074(6) 0.0632(4) 0.0441(4) 0.0082(2) 0.0003(11) 0.0034(6)
N4 0.05(4) 0.0330(13) 0.036(3) -0.0006(14) 0.013(9) -0.003(4)
N5 0.02(3) 0.0380(12) 0.0292(15) 0.0022(10) -0.014(7) 0.003(3)
N1 0.05(3) 0.0421(13) 0.046(2) -0.0011(14) -0.001(5) 0.002(3)
N3 0.05(4) 0.0490(17) 0.055(4) -0.0020(15) 0.020(10) -0.004(5)
N2 0.09(3) 0.0487(13) 0.0576(19) -0.0056(13) 0.006(6) 0.011(4)
C8 0.05(3) 0.0365(12) 0.0247(15) 0.0035(10) -0.005(6) 0.004(3)
C6 0.11(3) 0.0301(13) 0.038(2) -0.0009(12) 0.026(7) -0.008(4)
C9 0.14(5) 0.0312(14) 0.027(3) 0.0026(18) 0.019(11) -0.004(6)
C7 0.07(3) 0.0384(11) 0.0349(16) -0.0033(11) 0.001(4) -0.005(4)
loop_
_atom_type_symbol
_atom_type_description
_atom_type_scat_dispersion_real
_atom_type_scat_dispersion_imag
_atom_type_scat_source
C C 0.0033 0.0016 'International Tables Vol C Tables 4.2.6.8 and 6.1.1.4'
H H 0.0000 0.0000 'International Tables Vol C Tables 4.2.6.8 and 6.1.1.4'
Cl Cl 0.1484 0.1585 'International Tables Vol C Tables 4.2.6.8 and 6.1.1.4'
N N 0.0061 0.0033 'International Tables Vol C Tables 4.2.6.8 and 6.1.1.4'
loop_
_geom_angle_atom_site_label_1
_geom_angle_atom_site_label_2
_geom_angle_atom_site_label_3
_geom_angle
_geom_angle_site_symmetry_1
_geom_angle_site_symmetry_3
_geom_angle_publ_flag
N3 N4 N5 123.9(9) . . ?
N3 N4 C9 114(3) . . ?
C9 N4 N5 122(3) . . ?
C6 N5 N4 113.8(7) . . ?
N2 N1 C9 107.0(8) . . ?
N4 N3 N2 104.4(9) . . ?
N3 N2 N1 111.7(11) . . ?
C9 C8 H8 121.1 . . ?
C9 C8 C7 117.9(8) . . ?
C7 C8 H8 121.1 . . ?
N5 C6 Cl1 114.9(8) . . ?
N5 C6 C7 128.5(16) . . ?
C7 C6 Cl1 116.6(11) . . ?
N4 C9 N1 103(3) . . ?
C8 C9 N4 124(3) . . ?
C8 C9 N1 133.4(5) . . ?
C8 C7 C6 114.0(13) . . ?
C8 C7 H7 123.0 . . ?
C6 C7 H7 123.0 . . ?
loop_
_geom_bond_atom_site_label_1
_geom_bond_atom_site_label_2
_geom_bond_distance
_geom_bond_site_symmetry_2
_geom_bond_publ_flag
Cl1 C6 1.713(15) . ?
N4 N5 1.37(4) . ?
N4 N3 1.32(4) . ?
N4 C9 1.362(8) . ?
N5 C6 1.28(3) . ?
N1 N2 1.353(15) . ?
N1 C9 1.38(4) . ?
N3 N2 1.316(18) . ?
C8 H8 0.9300 . ?
C8 C9 1.31(4) . ?
C8 C7 1.417(18) . ?
C6 C7 1.426(8) . ?
C7 H7 0.9300 . ?
loop_
_geom_torsion_atom_site_label_1
_geom_torsion_atom_site_label_2
_geom_torsion_atom_site_label_3
_geom_torsion_atom_site_label_4
_geom_torsion
_geom_torsion_site_symmetry_1
_geom_torsion_site_symmetry_2
_geom_torsion_site_symmetry_3
_geom_torsion_site_symmetry_4
_geom_torsion_publ_flag
Cl1 C6 C7 C8 -174.3(2) . . . . ?
N4 N5 C6 Cl1 176.2(3) . . . . ?
N4 N5 C6 C7 -2.9(5) . . . . ?
N4 N3 N2 N1 0.0(5) . . . . ?
N5 N4 N3 N2 175.4(2) . . . . ?
N5 N4 C9 N1 -175.4(4) . . . . ?
N5 N4 C9 C8 3.9(6) . . . . ?
N5 C6 C7 C8 4.7(5) . . . . ?
N3 N4 N5 C6 -176.7(6) . . . . ?
N3 N4 C9 N1 0.2(6) . . . . ?
N3 N4 C9 C8 179.5(4) . . . . ?
N2 N1 C9 N4 -0.2(3) . . . . ?
N2 N1 C9 C8 -179.4(3) . . . . ?
C9 N4 N5 C6 -1.5(5) . . . . ?
C9 N4 N3 N2 -0.1(6) . . . . ?
C9 N1 N2 N3 0.1(4) . . . . ?
C9 C8 C7 C6 -2.1(3) . . . . ?
C7 C8 C9 N4 -1.8(5) . . . . ?
C7 C8 C9 N1 177.3(3) . . . . ?
