#------------------------------------------------------------------------------
#$Date: 2022-01-01 07:13:54 +0200 (Sat, 01 Jan 2022) $
#$Revision: 271676 $
#$URL: file:///home/coder/svn-repositories/cod/cif/1/56/58/1565882.cif $
#------------------------------------------------------------------------------
#
# This file is available in the Crystallography Open Database (COD),
# http://www.crystallography.net/. The original data for this entry
# were provided by IUCr Journals, http://journals.iucr.org/.
#
# The file may be used within the scientific community so long as
# proper attribution is given to the journal article from which the
# data were obtained.
#
data_1565882
loop_
_publ_author_name
'Olejniczak, Anna'
'Katrusiak, Anna'
'Podsiad\/lo, Marcin'
'Katrusiak, Andrzej'
_publ_section_title
;
 Stochastic hydration of a high-nitrogen-content molecular compound
 recrystallized under pressure
;
_journal_issue                   1
_journal_name_full               IUCrJ
_journal_page_first              49
_journal_page_last               54
_journal_paper_doi               10.1107/S2052252521010381
_journal_volume                  9
_journal_year                    2022
_chemical_formula_moiety         'C4 H2 Cl N5'
_chemical_formula_sum            'C4 H2 Cl N5'
_chemical_formula_weight         155.56
_chemical_name_systematic        6-chloro-1,2,3,4-tetrazolo[1,5-b]pyridazine
_space_group_crystal_system      orthorhombic
_space_group_IT_number           19
_space_group_name_Hall           'P 2ac 2ab'
_space_group_name_H-M_alt        'P 21 21 21'
_atom_sites_solution_hydrogens   geom
_atom_sites_solution_primary     direct
_audit_creation_date             2020-07-14
_audit_creation_method
;
Olex2 1.3
(compiled 2020.06.28 svn.raecde09e for OlexSys, GUI svn.r6132)
;
_cell_angle_alpha                90
_cell_angle_beta                 90
_cell_angle_gamma                90
_cell_formula_units_Z            4
_cell_length_a                   7.0156(18)
_cell_length_b                   8.7539(8)
_cell_length_c                   10.0529(13)
_cell_measurement_reflns_used    802
_cell_measurement_temperature    296(2)
_cell_measurement_theta_max      19.7580
_cell_measurement_theta_min      3.0700
_cell_volume                     617.39(19)
_computing_cell_refinement       'CrysAlisPro 1.171.40.67a (Rigaku OD, 2019)'
_computing_data_collection       'CrysAlisPro 1.171.40.67a (Rigaku OD, 2019)'
_computing_data_reduction        'CrysAlisPro 1.171.40.67a (Rigaku OD, 2019)'
_computing_molecular_graphics    'Olex2 1.3 (Dolomanov et al., 2009)'
_computing_publication_material  'Olex2 1.3 (Dolomanov et al., 2009)'
_computing_structure_refinement  'SHELXL 2018/3 (Sheldrick, 2015)'
_computing_structure_solution    'SHELXT 2018/2 (Sheldrick, 2018)'
_diffrn_ambient_environment      'diamond-anvil cell'
_diffrn_ambient_pressure         200000
_diffrn_ambient_temperature      296
_diffrn_detector                 'CCD plate'
_diffrn_detector_area_resol_mean 16.1544
_diffrn_detector_type            Eos
_diffrn_measured_fraction_theta_full 0.663
_diffrn_measured_fraction_theta_max 0.583
_diffrn_measurement_details
;
List of Runs (angles in degrees, time in seconds):

  # Type    Start    End  Width  t~exp~   \w     \q     \k     \f   Frames
--------------------------------------------------------------------------
  1  \f    -35.00  19.75   0.75   25.00   0.00 -30.00   0.00    --    73
  2  \f    140.00 200.00   0.75   25.00   0.00 -30.00   0.00    --    80
  3  \f    160.00 217.00   0.75   25.00   0.00  30.00   0.00    --    76
  4  \f    -20.00  34.75   0.75   25.00   0.00  30.00   0.00    --    73
  5  \w    -24.00  24.00   0.75   25.00    --   30.00  39.46 -12.90   64
  6  \w    -24.00  24.00   0.75   25.00    --   30.00  39.46 167.10   64
  7  \w    -50.00  10.00   0.75   25.00    --  -30.00  39.46 167.10   80
  8  \w    -50.00  10.00   0.75   25.00    --  -30.00  39.46 -12.90   80
  9  \w    -64.00  -8.50   0.75   25.00    --  -30.00  81.40 -28.90   74
 10  \w    -64.00  -8.50   0.75   25.00    --  -30.00  81.40 151.10   74
 11  \w    -19.00   8.00   0.75   25.00    --   30.00  81.40 151.10   36
 12  \w    -19.00   8.00   0.75   25.00    --   30.00  81.40 -28.90   36
 13  \w    -43.00 -21.25   0.75   25.00    --   30.00 134.60 -56.90   29
 14  \w    -43.00 -21.25   0.75   25.00    --   30.00 134.60 123.10   29
 15  \w    -90.00 -36.00   0.75   25.00    --  -30.00 134.60 123.10   72
 16  \w    -90.00 -36.00   0.75   25.00    --  -30.00 134.60 -56.90   72
;
_diffrn_measurement_device       'four-circle diffractometer'
_diffrn_measurement_device_type  'KM-4 CCD'
_diffrn_measurement_method
;
HP omega scans - for more details see:
A. Budzianowski, A. Katrusiak in High-Pressure Crystallography
(Eds.: A. Katrusiak, P. F. McMillan),
Dordrecht: Kluwer Acad. Publ., 2004 pp.157-168
;
_diffrn_orient_matrix_type
'CrysAlisPro convention (1999,Acta A55,543-557)'
_diffrn_orient_matrix_UB_11      0.0826115000
_diffrn_orient_matrix_UB_12      0.0179823000
_diffrn_orient_matrix_UB_13      0.0376146000
_diffrn_orient_matrix_UB_21      0.0386668000
_diffrn_orient_matrix_UB_22      -0.0728282000
_diffrn_orient_matrix_UB_23      -0.0149338000
_diffrn_orient_matrix_UB_31      0.0437658000
_diffrn_orient_matrix_UB_32      0.0305392000
_diffrn_orient_matrix_UB_33      -0.0577749000
_diffrn_radiation_monochromator  graphite
_diffrn_radiation_probe          x-ray
_diffrn_radiation_type           'Mo K\a'
_diffrn_radiation_wavelength     0.71073
_diffrn_reflns_av_R_equivalents  0.1883
_diffrn_reflns_av_unetI/netI     0.1547
_diffrn_reflns_Laue_measured_fraction_full 0.663
_diffrn_reflns_Laue_measured_fraction_max 0.583
_diffrn_reflns_limit_h_max       6
_diffrn_reflns_limit_h_min       -6
_diffrn_reflns_limit_k_max       11
_diffrn_reflns_limit_k_min       -11
_diffrn_reflns_limit_l_max       12
_diffrn_reflns_limit_l_min       -11
_diffrn_reflns_number            4557
_diffrn_reflns_point_group_measured_fraction_full 0.680
_diffrn_reflns_point_group_measured_fraction_max 0.586
_diffrn_reflns_theta_full        25.242
_diffrn_reflns_theta_max         28.562
_diffrn_reflns_theta_min         3.086
_diffrn_source                   'fine-focus sealed X-ray tube'
_diffrn_source_type              'Enhance (Mo) X-ray Source'
_exptl_absorpt_coefficient_mu    0.533
_exptl_absorpt_correction_T_max  1.00000
_exptl_absorpt_correction_T_min  0.49116
_exptl_absorpt_correction_type   multi-scan
_exptl_absorpt_process_details
;
CrysAlisPro 1.171.39.46 (Rigaku Oxford Diffraction, 2018)
Empirical absorption correction using spherical harmonics,
 implemented in SCALE3 ABSPACK scaling algorithm.
;
_exptl_crystal_colour            colorless
_exptl_crystal_density_diffrn    1.674
_exptl_crystal_description       plate
_exptl_crystal_F_000             312
_exptl_crystal_size_max          0.28
_exptl_crystal_size_mid          0.22
_exptl_crystal_size_min          0.10
_refine_diff_density_max         0.232
_refine_diff_density_min         -0.178
_refine_diff_density_rms         0.051
_refine_ls_abs_structure_details
;
 Flack x determined using 119 quotients [(I+)-(I-)]/[(I+)+(I-)]
 (Parsons, Flack and Wagner, Acta Cryst. B69 (2013) 249-259).
;
_refine_ls_abs_structure_Flack   -0.1(3)
_refine_ls_extinction_method     none
_refine_ls_goodness_of_fit_ref   1.002
_refine_ls_hydrogen_treatment    constr
_refine_ls_matrix_type           full
_refine_ls_number_parameters     91
_refine_ls_number_reflns         923
_refine_ls_number_restraints     0
_refine_ls_restrained_S_all      1.002
_refine_ls_R_factor_all          0.1692
_refine_ls_R_factor_gt           0.0617
_refine_ls_shift/su_max          0.000
_refine_ls_shift/su_mean         0.000
_refine_ls_structure_factor_coef Fsqd
_refine_ls_weighting_details
'w=1/[\s^2^(Fo^2^)+(0.0207P)^2^] where P=(Fo^2^+2Fc^2^)/3'
_refine_ls_weighting_scheme      calc
_refine_ls_wR_factor_gt          0.0957
_refine_ls_wR_factor_ref         0.1228
_reflns_Friedel_coverage         0.694
_reflns_Friedel_fraction_full    0.707
_reflns_Friedel_fraction_max     0.591
_reflns_number_gt                431
_reflns_number_total             923
_reflns_threshold_expression     'I > 2\s(I)'
_cod_data_source_file            lt5042.cif
_cod_data_source_block           C4H2N5Cl1@0_20GPa_phase_alpha_xH2O
_cod_database_code               1565882
_shelx_shelxl_version_number     2018/3
_chemical_oxdiff_formula         C4H2N5Cl1
_shelx_space_group_comment
;
The symmetry employed for this shelxl refinement is uniquely defined
by the following loop, which should always be used as a source of
symmetry information in preference to the above space-group names.
They are only intended as comments.
;
_reflns_odcompleteness_completeness 57.61
_reflns_odcompleteness_iscentric 1
_reflns_odcompleteness_theta     28.50
_olex2_refinement_description
;
1. Fixed Uiso
 At 1.2 times of:
  All C(H) groups
2.a Aromatic/amide H refined with riding coordinates:
 C7(H7), C8(H8)
;
_shelx_res_file
;
TITL 1a_a.res in P2(1)2(1)2(1)
    1a.res
    created by SHELXL-2018/3 at 13:32:18 on 27-Apr-2021
REM Old TITL 1a in P2(1)2(1)2(1)
REM SHELXT solution in P2(1)2(1)2(1)
REM R1 0.210, Rweak 0.232, Alpha 0.011, Orientation as input
REM Flack x = 0.051 ( 0.201 ) from Parsons' quotients
REM Formula found by SHELXT: H7 N Cl
CELL 0.71073 7.0156 8.7539 10.0529 90 90 90
ZERR 4 0.0018 0.0008 0.0013 0 0 0
LATT -1
SYMM 0.5-X,-Y,0.5+Z
SYMM -X,0.5+Y,0.5-Z
SYMM 0.5+X,0.5-Y,-Z
SFAC C H Cl N
UNIT 16 8 4 20

L.S. 44
PLAN  5
CONF
BOND $H
list 4
MORE -1
fmap 2 53
acta
REM <olex2.extras>
REM <HklSrc "%.\\1a.hkl">
REM </olex2.extras>

WGHT    0.020700
FVAR       0.98557
CL1   3    0.291262    0.334672    0.321452    11.00000    0.08653    0.04697 =
         0.10134    0.00082    0.02578   -0.00135
N4    4    0.354258    0.747990    0.412679    11.00000    0.05142    0.05047 =
         0.04839    0.00118   -0.00124   -0.00164
N5    4    0.367209    0.596210    0.419049    11.00000    0.05531    0.04718 =
         0.05260    0.00532    0.00096   -0.00007
N3    4    0.428489    0.841720    0.506404    11.00000    0.08084    0.07721 =
         0.05309   -0.01948   -0.01292   -0.00282
N2    4    0.387643    0.980393    0.463143    11.00000    0.08917    0.05265 =
         0.09584   -0.01937    0.00331   -0.01074
N1    4    0.292245    0.982689    0.348666    11.00000    0.06838    0.05657 =
         0.06911   -0.00527   -0.00064   -0.00143
C9    1    0.275541    0.833167    0.317675    11.00000    0.04035    0.04345 =
         0.04630    0.00036   -0.00094    0.00410
C7    1    0.201466    0.602917    0.208767    11.00000    0.09194    0.05920 =
         0.03708   -0.00641   -0.00500   -0.00487
AFIX  43
H7    2    0.149029    0.545775    0.139895    11.00000   -1.20000
AFIX   0
C6    1    0.288943    0.530503    0.318273    11.00000    0.05620    0.03885 =
         0.06235    0.00060    0.01501    0.00297
C8    1    0.195645    0.755810    0.206234    11.00000    0.06757    0.07277 =
         0.03962    0.00943   -0.00012    0.00234
AFIX  43
H8    2    0.142124    0.808787    0.135276    11.00000   -1.20000
AFIX   0
HKLF 4




REM  1a_a.res in P2(1)2(1)2(1)
REM wR2 = 0.1228, GooF = S = 1.002, Restrained GooF = 1.002 for all data
REM R1 = 0.0617 for 431 Fo > 4sig(Fo) and 0.1692 for all 923 data
REM 91 parameters refined using 0 restraints

END

WGHT      0.0315      0.0000

REM Highest difference peak  0.232,  deepest hole -0.178,  1-sigma level  0.051
Q1    1   0.4794  0.3386  0.4230  11.00000  0.05    0.23
Q2    1  -0.0264  0.6689  0.3023  11.00000  0.05    0.18
Q3    1   0.1552  0.2572  0.2080  11.00000  0.05    0.18
Q4    1   0.1834  0.1580  0.2933  11.00000  0.05    0.17
Q5    1   0.3736  1.0643  0.2174  11.00000  0.05    0.17
;
_shelx_res_checksum              19436
_shelx_hkl_file
;
   0   1  -1 1130.79   67.19
   0  -1   2   15.15    4.20
   0   1  -2   28.48    5.18
   0  -1   2   31.38    6.39
   0   1  -2   33.26   14.99
   0   1  -2   34.32   11.74
   0   1  -2   32.31   11.73
   0   1  -3 2791.39  149.17
   0   1  -3 2511.94   60.67
   0   1  -4    6.60    2.86
   0  -2   0  145.82   22.68
   0   2   0  131.55   28.83
   0   2   0   96.85   21.76
   0  -2   0  126.29   35.48
   0   2   0  115.13   27.16
   0   2   0  144.37   20.93
   0  -2   0  137.51   13.38
   0  -2   0   78.92   21.04
   0  -2   0  131.24   25.85
   0   2   1  575.35   72.31
   0   2  -1  894.68   26.26
   0  -2  -1  843.90   80.79
   0   2  -1  902.08   77.80
   0  -2   1  926.47   62.46
   0   2  -1  929.83   61.75
   0   2  -1  851.10   71.62
   0  -2   1  962.56   53.31
   0   2  -1  876.52   59.55
   0  -2   1  764.68   63.80
   0   2   1  998.32   64.37
   0   2   1  659.97   41.90
   0   2  -1  896.74   47.47
   0   2  -2  275.77   17.89
   0  -2   2  198.69   24.02
   0   2  -2  290.07   31.02
   0  -2   2  278.94   32.38
   0  -2   2  277.40   20.21
   0   2  -2  240.74   23.67
   0   2  -2  290.31   47.94
   0   2  -2  265.76   14.79
   0   2  -2  265.54   39.96
   0  -2   2  221.83   35.60
   0   2  -2  293.62   43.11
   0   2  -3  240.49   19.36
   0   2  -3  270.08   51.04
   0   2  -3  252.64   42.67
   0  -2   3  241.46   22.64
   0   2  -3  236.40   18.32
   0   2  -3  220.61   43.33
   0   2  -4   19.90    6.05
   0   2  -4   -7.24   11.69
   0  -2   4    1.64    1.92
   0   2  -4   11.07    9.13
   0   2  -4    4.55    3.06
   0   2  -5  564.62   38.07
   0   2  -5  572.90   39.46
   0   3   0    3.31    3.06
   0  -3   0   -7.73    5.91
   0   3   0   14.04   15.28
   0   3   0    1.15    3.17
   0  -3   0    1.85    8.01
   0  -3   0    6.52    5.74
   0   3   0   -1.36    5.35
   0   3   0    2.58    3.52
   0  -3   0    2.32    9.12
   0   3   0  -12.94   16.51
   0  -3   0   -0.84    3.69
   0   3  -1  178.86   39.83
   0  -3  -1  168.43   41.69
   0  -3  -1   91.38   32.95
   0  -3  -1  243.00   40.49
   0   3  -1  172.44   14.03
   0  -3   1  129.74   32.23
   0   3   1  176.11   46.72
   0  -3   1  216.36   17.09
   0   3  -1  212.29   37.06
   0   3   1  195.32   43.11
   0   3  -1  218.85   29.25
   0  -3   1  225.76   33.25
   0  -3  -1  215.95   24.45
   0   3   1  230.04   35.90
   0   3  -1  203.03   45.29
   0  -3   1  180.05   49.88
   0  -3   1  164.93   33.43
   0   3  -1  245.39   36.47
   0   3   1  144.53   22.16
   0  -3   1  198.82   36.56
   0  -3   2 1595.99   84.68
   0   3  -2 1614.68   76.98
   0   3  -2 1743.99  138.36
   0   3  -2 1564.57   93.86
   0   3  -2 1752.12  126.58
   0   3   2 1568.33  105.09
   0  -3  -2 1457.17   72.49
   0  -3   2 1264.74  102.75
   0  -3   2 1915.94   58.04
   0  -3   2 1564.40   97.55
   0   3  -2 1621.96  109.50
   0  -3   3    0.05    2.07
   0   3  -3    1.20    5.61
   0   3  -3    3.44    1.45
   0   3  -3    8.39    3.81
   0   3  -3   20.60   14.15
   0   3  -3    9.79    6.56
   0  -3   3    0.76    5.43
   0   3  -3   17.74    9.90
   0  -3   3    5.71    3.67
   0  -3   3    9.09    8.06
   0   3  -4    1.82    9.26
   0   3  -4   -0.67    9.83
   0   3  -4    7.62    8.39
   0  -3   4   13.00    5.30
   0   3  -4   21.60   12.70
   0  -3   4    3.11    2.55
   0  -3   4    7.77    8.41
   0   3  -4    4.13    3.90
   0   3  -4   13.09    4.96
   0   3  -5   56.80   11.55
   0  -3   5   74.00   22.21
   0   3  -5   65.84   35.51
   0  -3   5   39.16   12.03
   0   3  -5   67.70   16.54
   0  -3   5   48.41   21.74
   0   3  -5   74.09   14.31
   0   3  -5   88.36   40.59
   0  -3   6   13.57   16.37
   0   3  -6    9.34    5.54
   0   3  -6    7.34    6.16
   0  -4   0   -1.31    5.92
   0   4   0   12.43   11.24
   0   4   0   15.00   14.28
   0   4   0    6.09    3.59
   0   4   0   11.51    5.72
   0  -4   0    3.23    5.51
   0  -4   0   -7.13   12.45
   0  -4   0   15.91   11.99
   0  -4   0   -7.24   16.27
   0   4   0   -4.74   13.75
   0   4   0    4.68    3.52
   0   4   1 2123.93  182.40
   0  -4   1 1586.33  134.08
   0   4  -1 2559.39  119.70
   0  -4  -1 2037.16  163.74
   0   4   1 2617.10  136.90
   0   4  -1 1749.26   65.57
   0   4   1 2222.92  172.00
   0  -4   1 2572.49   73.38
   0   4  -1 2651.59  136.91
   0  -4   1 1742.22  122.63
   0  -4  -1 2953.95  159.47
   0  -4   1 2027.86  143.56
   0   4   1 2184.56  179.91
   0   4  -1 2438.56  180.38
   0   4  -1 2481.88  181.81
   0  -4  -1 2610.89   97.38
   0   4  -1 2488.28  154.84
   0  -4   1 2623.67  133.10
   0  -4   1 2360.88  209.28
   0  -4   2   68.37   20.79
   0   4   2   -1.00   22.74
   0   4  -2   72.83   25.07
   0   4  -2   48.74   25.79
   0   4  -2   43.27    8.83
   0   4  -2   51.62   21.89
   0  -4   2   62.79   23.59
   0  -4   2   63.13   23.26
   0   4   2   57.65   22.15
   0  -4   2   61.79   11.38
   0   4   2   34.96   22.67
   0   4  -2   68.65   32.48
   0  -4   2   58.55   37.80
   0  -4   2   39.20   19.80
   0  -4  -2   57.93   16.20
   0   4  -2   49.76   15.50
   0  -4  -2   64.39   23.72
   0  -4   3  126.19   18.55
   0   4  -3  118.23   15.16
   0   4  -3  120.35   29.21
   0  -4   3   96.48   25.25
   0  -4   3  118.48   31.62
   0  -4   3   93.04   31.40
   0   4  -3  126.86   12.24
   0   4  -3  101.63   33.24
   0   4  -3  122.94   44.74
   0   4  -3  114.46   23.18
   0   4  -3  103.79   37.17
   0   4  -4   70.81   30.43
   0   4  -4   73.67   32.76
   0  -4   4   80.75   25.63
   0   4  -4   70.20   10.59
   0   4  -4   56.73   11.47
   0   4  -4   68.28   30.28
   0   4  -4   59.01   15.79
   0  -4   4   61.57   15.64
   0  -4   4   14.81   14.39
   0   4  -5  130.95   45.59
   0   4  -5  186.40   23.30
   0  -4   5  109.42   20.82
   0   4  -5  188.29   52.82
   0   4  -5  160.92   56.77
   0  -4   5  147.60   45.84
   0  -4   6  -22.09   22.14
   0   4  -6   60.15   39.50
   0   4  -6   38.19   12.08
   0  -4   7   52.84   33.77
   0   4  -7  101.27   19.98
   0  -5   0   20.26   12.05
   0  -5   0    9.87   17.68
   0  -5   0    2.42    5.30
   0  -5   0    4.38    7.13
   0   5   0   -4.73    8.64
   0   5   0    1.82    3.77
   0   5   0   -7.51   13.59
   0   5   0    7.10   18.41
   0   5   0   16.33   22.45
   0  -5   0  -12.93   10.96
   0   5  -1  386.49   79.52
   0  -5   1  196.03   53.08
   0  -5   1  432.91   60.85
   0   5  -1  374.72   68.94
   0  -5   1  285.82   61.23
   0   5   1  365.19   76.42
   0   5   1  417.54   59.86
   0   5   1  366.48   77.69
   0  -5  -1  427.95   69.39
   0   5  -1  422.22   58.15
   0  -5  -1  354.73   73.59
   0   5   1  333.83   77.71
   0  -5   1  391.29   33.49
   0   5  -1  445.34   86.29
   0  -5   1  259.82   79.28
   0  -5  -1  457.34   45.45
   0  -5  -1  177.93   57.85
   0   5  -1  400.08   54.21
   0  -5  -2   29.35   18.99
   0   5  -2   14.32    9.82
   0   5   2   21.03   11.55
   0  -5   2    3.05    3.59
   0   5  -2    2.77    1.59
   0  -5   2   -2.72   12.46
   0   5  -2    0.74    4.94
   0   5   2   23.33   15.04
   0  -5   2   16.96   15.14
   0  -5   2   -0.91   11.63
   0   5  -2    3.52    8.61
   0   5   2   15.73   25.28
   0   5  -2   21.20   11.13
   0  -5  -2    4.97    7.53
   0   5  -2   18.99   12.35
   0  -5   2    4.62    3.55
   0  -5   2  -15.99   23.87
   0   5  -3  611.70   87.05
   0   5  -3  496.65   35.06
   0  -5   3  579.32   42.32
   0  -5   3  460.63   77.71
   0   5  -3  534.71   58.11
   0   5  -3  664.13   81.73
   0   5  -3  574.54  103.01
   0  -5   3  387.62   77.40
   0  -5   3  580.67  122.33
   0  -5   3  506.95   77.59
   0  -5   3  494.79   64.60
   0   5  -3  517.04   93.52
   0   5  -4  459.12   96.25
   0  -5   4  378.21   64.24
   0   5  -4  454.24   86.65
   0  -5   4  313.79   68.16
   0  -5   4  396.20   38.98
   0   5  -4  393.14   76.73
   0   5  -4  541.03   71.64
   0   5  -4  429.39   52.48
   0   5  -4  395.13   32.76
   0  -5   4  274.37   47.63
   0  -5   5    4.52    5.79
   0   5  -5   45.00   31.71
   0   5  -5    7.92    6.55
   0   5  -5  -10.40   26.50
   0  -5   5   22.16   22.95
   0   5  -5   51.49   29.85
   0   5  -6   29.00   10.40
   0   5  -6   55.48   29.57
   0  -5   6   59.78   41.43
   0   5  -6   96.21   43.51
   0  -5   6   26.87   11.33
   0   5  -7   30.86   41.26
   0  -5   7    3.88   11.50
   0   5  -7   -3.39    5.18
   0  -6   0  288.46   72.81
   0  -6   0  548.49   97.54
   0   6   0  718.97  126.58
   0  -6   0  777.42   60.59
   0  -6   0  296.45   98.23
   0   6   0  755.10  119.28
   0   6   0  710.02  121.99
   0   6   0  604.12   76.69
   0  -6   0  773.35   99.07
   0  -6  -1   10.25   10.27
   0  -6  -1   10.92   18.57
   0  -6  -1   12.62   10.43
   0   6  -1   18.10   25.13
   0   6  -1  -21.32   21.92
   0  -6   1   -2.94   14.24
   0  -6   1   12.84   14.99
   0   6   1   21.06   20.16
   0  -6   1  -31.57   27.94
   0   6   1   21.72   30.31
   0   6   1  -38.61   41.48
   0   6  -1   20.68   13.55
   0  -6   1   46.59   24.43
   0   6  -1   24.43   16.17
   0   6   1   46.28   24.09
   0  -6  -1   23.60   24.82
   0  -6  -2  117.62   42.79
   0  -6   2  157.16   48.37
   0  -6  -2  128.32   28.31
   0   6   2   47.45   31.08
   0  -6   2   42.64   22.97
   0  -6   2  174.69   77.48
   0   6   2   75.72   30.35
   0   6  -2  126.54   41.53
   0   6  -2  102.48   28.74
   0   6   2  132.93   63.41
   0  -6   2  131.71   37.72
   0   6   2   88.95   47.09
   0   6  -2  137.73   55.42
   0   6  -2  189.28   70.34
   0  -6   3   -4.41   25.23
   0  -6   3   37.93   30.00
   0   6  -3   14.99    6.31
   0  -6   3   38.01   22.37
   0  -6   3   21.57    8.85
   0  -6   3   -3.28   16.30
   0   6  -3   47.40   31.50
   0   6  -3   -5.25    9.72
   0  -6   3   21.66   13.51
   0   6  -3   40.87   22.18
   0   6  -3   26.80   25.86
   0   6  -3    6.25    3.44
   0   6  -4   -6.26    5.55
   0  -6   4   -0.21   15.71
   0  -6   4    1.72    5.80
   0  -6   4   23.94   31.23
   0   6  -4    0.74   21.63
   0   6  -4  -43.09   38.15
   0  -6   4   37.19   24.85
   0   6  -4    6.02   10.85
   0   6  -5   -6.51   60.83
   0  -6   5   14.43   11.19
   0  -6   5    1.93   14.47
   0   6  -5   69.30   20.82
   0   6  -5   -0.40   23.27
   0   6  -5   13.02   32.81
   0   6  -6  685.17   53.02
   0   6  -6  929.12  165.10
   0   6  -6  876.59  139.45
   0   6  -7    0.56    4.74
   0  -6   7  -40.23   43.19
   0   6  -7  -11.92   30.57
   0   7   0    2.35   11.20
   0  -7   0   -8.21   17.57
   0   7   0   12.83   26.39
   0   7   0  -29.41   30.26
   0  -7   0  -13.05   14.38
   0  -7   0   11.64   18.80
   0   7   0    8.87   34.75
   0  -7  -1   20.89    9.58
   0   7   1   23.20   14.91
   0   7   1  -37.83   42.35
   0  -7   1  -19.38   38.07
   0   7  -1  -11.68   14.83
   0  -7   1   -7.11   27.02
   0   7  -1   21.68   29.31
   0  -7   1  -13.03   19.60
   0   7   1  -19.35   13.87
   0   7  -1  -20.24   20.53
   0  -7  -1    7.35   31.29
   0   7   1   14.60   18.24
   0  -7   1   44.03   30.59
   0   7  -1    1.16   10.52
   0  -7  -1   -0.55    5.38
   0  -7   2    4.73   18.89
   0  -7   2   -8.50    6.86
   0   7  -2   18.62   29.10
   0  -7   2  -12.12   13.68
   0   7  -2    0.88    8.66
   0   7  -2   41.11   32.60
   0   7  -2   -3.01   19.49
   0  -7   2   10.78   13.72
   0  -7   3   20.31   15.94
   0   7  -3   49.40   21.39
   0  -7   3  -17.32   33.98
   0   7  -3   48.06   39.57
   0  -7   3  -26.44   27.58
   0   7  -3   20.80   23.02
   0  -7   4   15.24   25.72
   0   7  -4   95.03   56.34
   0  -7   4   63.41   54.23
   0   7  -4  101.80   62.89
   0  -7   5  115.17   46.30
   0   7  -5  174.00   63.59
   0   7  -5  103.52   56.94
   0  -7   5   94.78   43.26
   0  -7   6  -20.81   14.30
   0   7  -6   16.37   33.17
   0   7  -6   -6.09   25.64
   0  -7   6   48.85   37.57
   0   7  -7   -3.14   41.53
   0  -7   7  -43.90   45.19
   0   7  -7   -1.24   14.75
   0  -7   7  -10.22   36.92
   0  -7   8  -26.56   34.53
   0  -7   8  -81.58   80.97
   0  -8   0    0.94   19.06
   0   8   0    7.39   16.48
   0  -8   0  -57.38   40.53
   0   8   0  -20.20   23.47
   0   8   0  -16.57   34.46
   0   8   0  -14.94   34.70
   0  -8  -1  404.70   87.95
   0   8  -1  378.88  111.53
   0  -8   1  319.01   73.79
   0   8  -1  399.15  100.86
   0   8  -1  405.64  107.92
   0   8   1  285.33   89.07
   0   8   1  316.56  101.14
   0  -8   1   71.05   43.79
   0  -8   1  238.80   71.04
   0  -8   1   47.53   61.10
   0   8  -1  292.03   62.45
   0  -8  -1   69.23   42.82
   0  -8   2   22.43   24.50
   0   8  -2   42.50   29.10
   0   8  -2   12.39   14.25
   0  -8   2  -41.87   66.39
   0   8  -2   36.23   42.87
   0   8  -2   32.79   16.82
   0  -8   2   14.49    8.68
   0  -8   2    6.80   20.47
   0  -8   3  -19.95   29.23
   0   8  -3   41.13   25.69
   0   8  -3   56.32   50.56
   0  -8   3   -1.58   21.93
   0   8  -4   11.49   28.78
   0  -8   4  -68.45   54.84
   0  -8   4   -4.07   32.70
   0   8  -4   39.92   56.44
   0  -8   5    7.97   18.12
   0   8  -5   37.53   39.21
   0  -8   5  -56.61   56.06
   0   8  -5  -12.42   34.10
   0  -8   6  100.29   60.63
   0   8  -6   88.78   60.31
   0  -8   6  -25.84   72.07
   0   8  -6  107.36   73.11
   0   8  -7  123.27   85.49
   0   8  -7   56.95   45.11
   0  -8   7   40.87   33.06
   0  -8   7    3.26   17.70
   0  -8   8  -20.44   46.68
   0  -8   8   29.45   41.56
   0  -9   0  -11.58   35.07
   0   9   0   -8.28   18.22
   0  -9   0   38.38   38.34
   0   9   0  -78.46   67.33
   0   9  -1   71.12   46.33
   0   9  -1   40.74   26.35
   0   9  -1   -0.37   26.76
   0   9  -1  -35.71   62.80
   0  -9   1   48.89   31.55
   0  -9   1  -14.08   24.75
   0   9  -2   59.07   41.53
   0   9  -2   -2.12   40.05
   0   9  -2  109.75   41.36
   0  -9   2  -29.50   31.24
   0  -9   2  -18.93   41.17
   0  -9   2   90.70   62.32
   0   9  -2   70.20   62.79
   0  -9   2   77.90   43.78
   0  -9   3   -5.67   11.19
   0   9  -3  -33.88   19.29
   0   9  -3   26.05   51.25
   0  -9   3   50.32   58.39
   0  -9   4   20.26   19.42
   0  -9   4   74.74   87.98
   0   9  -4  -27.22   42.51
   0   9  -4   77.39   61.89
   0   9  -5   32.92   30.74
   0  -9   5  -52.92   75.43
   0   9  -5   -1.76   35.71
   0  -9   5  -18.90   39.99
   0   9  -6  -24.36   44.31
   0   9  -6   66.15   48.07
   0  -9   6   43.77   30.66
   0  -9   6   19.99   30.46
   0  -9   7   41.94   49.47
   0   9  -7    3.61   52.08
   0  -9   7  -10.37   46.79
   0   9  -7   19.75   55.18
   0  10   0   80.67   56.62
   0 -10   1   31.57   42.43
   0 -10   1   55.08   38.84
   0  10  -1   31.12   33.93
   0  10  -1   66.69   48.94
   0 -10   2   -9.46   38.34
   0  10  -2  -30.80   28.65
   0  10  -3   48.02   59.99
   0 -10   3  -19.45   41.15
   0  10  -3  -19.03   21.75
   0 -10   3   38.06   57.03
   0 -10   4  -24.79   73.40
   0  10  -4  -30.52   44.06
   0  10  -4   23.98   63.53
   0 -10   4  -16.33   24.92
   0 -10   5  -23.35   98.85
   0  10  -5  -29.93   19.46
   0  10  -5  100.93   83.77
   0 -10   5   62.94   55.72
   0 -10   6    5.07   25.23
   0  10  -6  176.29  111.36
   0  10  -6 -109.66   82.87
   0 -10   6  -98.88  127.69
   0 -11   2  -52.20   68.57
   0  11  -4    0.43   26.41
   0 -11   4   -7.17   84.48
   1   0  -1  991.50   39.69
   1   0  -1  815.52   65.72
   1   0  -1  767.26   33.86
   1   0  -1  801.95   29.43
   1   0  -2 9508.11  101.93
   1   0  -2 9385.42  194.96
   1   0  -2 9731.28  236.47
   1   0  -2 9999.00  123.15
  -1   0   2 9840.43  140.82
   1   0  -2 9080.87  123.24
   1   0  -3 1154.76   94.72
   1   0  -3 1229.77   48.92
  -1   0   3 1358.30   57.71
   1   0  -3 1215.47   81.38
  -1   0   3 1359.17   48.94
  -1   0   3 1459.86   63.97
   1   0  -3 1198.35   41.05
   1   0  -3 1206.06   51.68
  -1   0   4  294.77   30.79
  -1   0   4  182.57   27.18
   1   0  -4  327.02   28.08
  -1   0   4  273.62   24.92
   1   0  -4  329.70   51.39
   1   0  -4  305.49   27.81
  -1   0   4  286.14   34.16
   1   0  -4  254.98   49.73
   1   0  -4  278.97   22.56
   1   0  -4  290.64   28.66
  -1   0   5   -1.70    8.72
   1   0  -5    2.18    2.31
   1   0  -5    0.27    3.24
  -1   0   5   -0.58    3.39
  -1   0   5    3.92    4.84
  -1   0   5    2.62    2.69
   1   0  -5   -1.93    4.56
   1   0  -5   -5.15    9.79
   1   0  -5    1.39    1.81
   1   0  -6   -1.40    3.63
   1   0  -6   -2.30    5.23
   1   0  -6   -6.16    6.14
  -1   0   6    0.07    5.01
  -1   0   6    1.22    1.14
   1   0  -7    5.44    6.79
   1   0  -7    5.08    8.96
   1   0  -7    3.64    3.56
   1   1  -7  128.75   22.76
   1   1  -7  120.24   22.23
   1   1  -7  130.88   21.41
   1   1  -6   12.03    5.60
   1   1  -6   26.51    9.94
   1   1  -6   25.86   18.79
   1   1  -6   22.82    8.39
  -1   1   6    3.06    4.10
  -1   1   5  143.59   33.69
   1   1  -5  306.67   64.60
   1   1  -5  288.26   28.21
   1   1  -5  285.91   26.78
   1   1  -5  317.25   60.62
  -1   1   5  204.02   36.18
   1   1  -5  304.87   29.90
  -1   1   5  201.57   28.95
   1   1  -4  110.94   16.03
  -1   1   4   68.24   21.05
  -1   1   4   96.55   17.46
   1   1  -4  107.72   31.44
   1   1  -4   92.47   13.94
   1   1  -4  103.59   34.16
  -1   1   4   90.07   14.24
   1   1  -4  104.50   14.53
  -1   1   4   84.09   20.77
  -1   1   3  694.19   49.11
   1   1  -3  648.85   32.70
  -1   1   3  705.84   41.63
   1   1  -3  713.51   50.74
  -1   1   3  705.76   53.74
  -1   1   3  588.36   30.07
   1   1  -3  682.79   74.94
   1   1  -3  602.79   30.88
  -1   1   3  499.54   51.55
   1   1  -3  577.55   72.77
   1   1  -3  680.06   35.77
   1   1  -2 1509.31   49.79
   1   1  -2 1282.86   98.95
   1   1  -2 1414.55   44.40
  -1   1   2 1508.54   67.41
   1   1  -2 1238.39   69.30
  -1   1   2 1526.73   63.87
   1   1  -2 1405.66  103.50
  -1   1   2 1129.86   69.62
  -1   1   1  620.17   47.28
  -1   1   1  611.60   35.46
  -1   1   1  555.92   37.78
   1   1  -1  572.34   28.52
   1  -1   0  447.70   36.79
   1  -1   0  416.32   27.12
  -1   1   0  597.05   46.76
   1  -1  -1  671.97   52.25
  -1  -1   1  502.26   61.24
   1  -1  -1  603.09   32.72
   1  -1  -1  602.79   40.72
   1  -1  -1  735.16   31.21
  -1  -1   1  402.96   72.31
   1  -1  -2 1306.59   75.84
   1  -1  -2 1269.89   61.84
   1  -1  -2 1348.78   55.34
  -1  -1   2 1360.62  117.14
   1  -1  -2 1336.14   82.56
   1  -1  -2 1507.61   35.69
   1  -1  -2 1534.55   49.29
  -1  -1   3  456.67   40.48
  -1  -1   3  775.53   42.74
   1  -1  -3  567.49   60.47
   1  -1  -3  652.77   70.31
   1  -1  -3  609.90   41.85
   1  -1  -3  620.33   27.79
  -1  -1   3  739.52   39.48
   1  -1  -3  635.97   36.47
   1  -1  -3  635.68   47.31
   1  -1  -4   91.16   15.35
  -1  -1   4  103.23   18.01
   1  -1  -4  108.60   19.73
   1  -1  -4  100.73   12.96
  -1  -1   4   91.52   17.86
   1  -1  -4  103.80   20.73
  -1  -1   4  109.15   16.86
  -1  -1   4  117.61   18.86
   1  -1  -4   99.21   29.56
  -1  -1   5  266.73   32.49
   1  -1  -5  334.13   41.69
   1  -1  -5  264.76   33.21
  -1  -1   5  249.58   33.92
   1  -1  -5  242.47   22.53
   1  -1  -5  270.02   29.67
  -1  -1   5  267.38   29.09
  -1  -1   6   19.33    8.85
   1  -1  -6   13.40    5.89
   1  -1  -6   12.48    4.21
   1  -1  -6   27.60   11.76
  -1  -1   6   15.98    8.81
  -1  -1   7   75.99   18.96
  -1  -1   7   73.04   21.08
   1   2  -8   28.22   11.93
   1   2  -8   36.22   13.80
   1   2  -7   25.82   18.02
   1   2  -7   52.21   14.60
   1   2  -7   48.39   13.32
   1   2  -6  340.27   75.08
   1   2  -6  257.97   28.46
   1   2  -6  258.07   67.10
   1   2  -6  277.86   30.74
   1   2  -5 1286.86   52.45
   1   2  -5 1487.43  143.47
  -1   2   5  762.88   88.64
   1   2  -5 1268.09  135.92
  -1   2   5  837.98   61.16
  -1   2   5  994.46   82.25
   1   2  -5 1320.28   62.18
   1   2  -5 1326.32   59.96
   1   2  -4  189.98   20.93
   1   2  -4  176.34   48.72
   1   2  -4  198.61   50.41
   1   2  -4  179.01   19.90
  -1   2   4  172.82   36.19
   1   2  -4  188.88   36.32
   1   2  -4  177.47   15.78
  -1   2   4  148.23   22.46
  -1   2   4  125.90   36.25
  -1   2   4   63.02   21.08
  -1   2   4  167.56   30.91
  -1   2   3 1716.54   98.69
  -1   2   3 1508.69   64.54
  -1   2   3 1635.75   83.12
   1   2  -3 1611.74  129.52
   1   2  -3 1511.80   52.60
   1   2  -3 1485.26  129.44
   1   2  -3 1691.10  105.77
  -1   2   3 1228.97  100.56
  -1   2   3 1241.62   83.37
  -1   2   2   41.68   11.88
   1   2  -2   37.10   18.40
  -1   2   2   14.82    7.84
   1   2  -2   53.01   24.27
   1   2  -2   34.27    7.53
   1   2  -2   24.42   15.20
  -1   2   2   38.40   13.32
   1   2  -2   43.17    9.21
  -1   2   2   31.22    7.61
  -1   2   2   32.41   12.38
   1   2  -1  471.60   77.88
  -1   2   1  637.62   49.92
  -1   2   1  729.31   43.83
   1   2  -1  661.89   80.02
  -1   2   1  650.87   57.04
   1   2  -1  420.94   67.13
   1  -2   1  499.21   47.50
  -1   2   1  629.32   61.47
   1   2  -1  574.87   31.91
   1  -2   0  554.25   49.03
  -1   2   0  646.18   57.87
  -1   2   0  627.96   57.99
   1  -2   0  616.76   55.95
   1  -2   0  599.40   60.07
  -1   2   0  625.07   52.09
  -1   2   0  539.24   45.09
   1  -2   0  601.57   35.76
  -1   2   0  605.83   36.58
  -1   2  -1  753.06   69.91
  -1  -2   1  431.32   86.61
   1  -2  -1  571.49   52.19
  -1   2  -1  752.08   63.44
   1  -2  -1  702.32   68.53
  -1  -2   1  446.14   65.04
   1  -2  -1  665.79   40.34
   1  -2  -1  729.08   30.22
   1  -2  -1  659.38   54.50
   1  -2  -2   36.37   13.23
  -1  -2   2   14.97    9.94
   1  -2  -2   42.57    5.23
   1  -2  -2   29.56   11.80
   1  -2  -2   42.15   11.05
   1  -2  -2   31.29   16.05
  -1  -2   2   26.42   16.13
   1  -2  -2   46.09    9.09
   1  -2  -2   41.03   17.70
  -1  -2   2   67.67   39.51
   1  -2  -3 1396.70  120.20
   1  -2  -3 1530.21   58.64
  -1  -2   3 1037.40   81.42
   1  -2  -3 1510.99   40.34
   1  -2  -3 1509.53   73.75
   1  -2  -3 1515.86   89.57
  -1  -2   4  205.34   24.79
   1  -2  -4  188.41   33.98
  -1  -2   4  127.88   28.97
  -1  -2   4  204.74   24.87
   1  -2  -4  176.54   27.67
   1  -2  -4  187.38   23.20
   1  -2  -4  179.65   16.68
  -1  -2   5 1344.97   68.96
   1  -2  -5 1366.76   98.43
  -1  -2   5 1290.90   71.80
   1  -2  -5 1262.58   65.90
  -1  -2   5 1040.55   86.73
   1  -2  -5 1197.84   49.27
   1  -2  -5 1186.44   77.37
  -1  -2   6  195.07   30.38
  -1  -2   6  249.01   32.72
   1  -2  -6  217.70   30.07
   1  -2  -6  223.85   36.26
  -1  -2   6  185.19   37.49
   1  -2  -6  230.14   24.11
  -1  -2   7   27.30   10.44
  -1  -2   7   19.54   11.49
   1   3  -8   23.94   11.93
   1   3  -8   15.49    8.98
   1   3  -7   37.13   13.48
   1   3  -7   43.87   37.41
   1   3  -7   32.95   12.39
   1   3  -7   74.36   45.11
   1   3  -6   49.60   12.59
   1   3  -6   51.26   34.42
   1   3  -6   57.04   14.16
   1   3  -6   86.52   41.32
   1   3  -5   51.92   27.91
   1   3  -5   54.79   29.30
   1   3  -5   17.62    7.38
  -1   3   5   16.15   11.21
   1   3  -5   21.55    7.17
   1   3  -5   26.33    8.44
  -1   3   5   23.84   25.69
   1   3  -4  110.23   16.42
   1   3  -4  101.78   36.96
  -1   3   4  111.50   33.75
   1   3  -4  129.70   35.21
  -1   3   4  101.48   38.63
  -1   3   4   88.05   23.94
   1   3  -4  111.96   16.71
   1   3  -4  120.59   44.95
  -1   3   4   51.38   21.43
  -1   3   4   74.48   16.67
  -1   3   3  111.62   32.91
   1   3  -3  141.25   17.68
  -1   3   3  127.73   34.49
  -1   3   3   86.12   16.17
   1   3  -3  115.77   17.79
   1   3  -3  133.21   39.49
   1   3  -3  160.86   41.79
   1   3  -3  133.79   47.32
   1   3  -3  139.74   22.33
  -1   3   3  156.02   33.85
   1   3  -3  119.61   15.32
  -1   3   3  140.44   27.54
  -1   3   2  153.81   18.05
  -1   3   2  168.18   26.52
   1  -3   2  165.63   38.37
   1  -3   2  101.59   25.19
  -1   3   2  147.45   40.86
   1   3  -2  151.47   30.90
   1   3  -2  158.32   45.34
   1   3  -2  135.37   17.62
   1   3  -2  180.15   44.58
   1   3  -2  142.58   37.85
  -1   3   2  135.23   32.39
  -1   3   2  163.58   29.87
  -1   3   1  102.55   20.57
   1  -3   1   67.54   18.74
  -1   3   1  103.54   29.33
   1  -3   1   80.67   14.86
  -1   3   1   83.14   24.32
  -1   3   1  106.73   12.21
  -1   3   1  107.55   23.56
   1  -3   1  103.27   30.31
   1   3  -1   92.94   34.59
  -1   3   1  109.92   19.40
   1   3  -1  100.48   45.04
   1   3  -1   85.80   32.06
   1  -3   1   85.49   26.24
   1  -3   0 1585.74   67.48
   1  -3   0 1621.07  116.27
   1  -3   0 1449.77   91.26
  -1   3   0 1548.13   90.22
  -1   3   0 1595.13  114.42
  -1   3   0 1690.14   68.08
  -1   3   0 1652.62  101.71
  -1   3   0 1506.49  108.37
   1  -3   0 1254.64   97.97
  -1   3  -1   84.59    8.12
  -1  -3   1   13.08   22.20
   1  -3  -1   65.47   23.71
   1  -3  -1  108.86   31.58
  -1   3  -1   99.04   27.18
   1  -3  -1   99.57   17.87
  -1   3  -1   84.76   20.18
  -1   3  -1   88.42   14.10
   1  -3  -1   78.73   23.06
  -1   3  -1  112.75   28.14
  -1   3  -1   85.43   27.22
   1  -3  -1  109.17   12.06
  -1  -3   1   54.33   26.89
   1  -3  -1   96.39   24.22
   1  -3  -2  182.65   18.53
  -1  -3   2  129.03   48.03
   1  -3  -2  162.16   33.13
  -1   3  -2  151.59   27.20
  -1  -3   2   97.62   30.46
  -1   3  -2  195.54   37.90
  -1   3  -2  183.24   41.41
  -1   3  -2  131.59   13.01
  -1   3  -2  185.03   44.78
  -1  -3   2  203.97   28.72
  -1  -3   2  116.13   34.68
   1  -3  -2  187.11   26.70
   1  -3  -2   79.05   26.81
   1  -3  -2  142.27   36.35
   1  -3  -3  133.20   18.19
  -1  -3   3  141.93   52.07
  -1  -3   3   87.44   29.68
  -1  -3   3  143.92   20.28
   1  -3  -3  107.16   22.15
   1  -3  -3   99.74   33.63
  -1  -3   3   96.80   33.93
  -1   3  -3  164.63   41.99
   1  -3  -3  120.47   10.78
   1  -3  -3  124.49   30.11
  -1  -3   4  134.50   19.60
   1  -3  -4  111.51   18.35
   1  -3  -4   96.24   11.64
   1  -3  -4  119.99   30.87
  -1  -3   4   70.27   25.49
   1  -3  -4   89.44   40.18
   1  -3  -4   98.59   22.27
  -1  -3   5   26.23   15.46
   1  -3  -5   16.31    8.09
  -1  -3   5   19.41    8.35
   1  -3  -5   32.64   19.16
   1  -3  -5    1.65    4.60
   1  -3  -5   17.59    6.09
  -1  -3   5   20.23    9.16
  -1  -3   6   47.36   14.92
  -1  -3   6   44.18   15.16
  -1  -3   6   22.21   16.87
  -1  -3   7   23.20   11.08
  -1  -3   8   20.19   13.42
   1   4  -9   45.00   15.88
   1   4  -8    4.64    6.97
   1   4  -8    7.07   12.93
   1   4  -8    3.24   19.61
   1   4  -7  -35.68   37.47
   1   4  -7  -32.33   41.05
   1   4  -7   14.50    8.56
   1   4  -6   31.51   10.19
   1   4  -6   15.82   21.23
   1   4  -6   19.60    7.31
   1   4  -6   14.61   17.81
   1   4  -6   52.28   28.08
  -1   4   5  173.24   56.33
   1   4  -5  243.77   64.94
   1   4  -5  213.60   26.26
  -1   4   5  128.58   33.35
   1   4  -5  160.55   57.10
   1   4  -5  245.08   27.60
  -1   4   5  162.20   45.75
   1   4  -5  219.46   55.28
   1   4  -4  111.53   16.55
  -1   4   4  140.68   46.04
  -1   4   4  101.20   36.18
  -1   4   4   97.65   24.84
   1   4  -4  147.83   48.23
   1  -4   4   73.74   33.32
   1   4  -4  132.78   49.95
   1   4  -4  141.97   44.00
   1   4  -4  117.71   18.74
  -1   4   4  126.93   38.14
   1  -4   4   68.87   25.36
  -1   4   3  582.40   60.03
   1   4  -3  606.31   53.04
  -1   4   3  557.71   88.12
   1   4  -3  677.54   96.37
   1  -4   3  612.47   87.92
   1   4  -3  669.84  113.07
  -1   4   3  609.02   84.87
   1  -4   3  602.40   78.57
   1   4  -3  676.57   66.90
   1   4  -3  754.54  103.22
   1   4  -3  586.35   39.22
  -1   4   3  654.45   76.08
   1  -4   2   21.76   13.90
  -1   4   2   14.67   12.77
   1   4  -2  -11.73   21.92
   1   4  -2   20.33   15.35
  -1   4   2    9.24    4.85
   1   4  -2   -2.59    7.86
   1   4  -2   -3.17   10.81
   1   4  -2   15.01    5.83
  -1   4   2   10.71    7.24
   1  -4   2    4.34   10.61
  -1   4   2   28.55   21.31
  -1   4   2   22.31   10.06
   1  -4   2   12.36    8.02
  -1   4   2    7.14    5.44
   1  -4   1  282.67   55.50
   1  -4   1  320.09   32.78
   1   4  -1  350.73   79.23
  -1   4   1  336.00   61.90
  -1   4   1  232.34   19.93
  -1   4   1  363.37   38.89
  -1   4   1  334.67   49.90
   1   4  -1  377.15   85.06
   1   4  -1  326.13   65.11
  -1   4   1  308.95   59.33
   1  -4   1  318.99   49.64
   1   4  -1  342.99   68.60
   1  -4   1  291.17   55.79
  -1   4   1  315.60   46.79
   1  -4   0  191.21   50.87
  -1   4   0  273.86   56.84
  -1   4   0  209.57   35.62
   1  -4   0  210.03   50.71
   1  -4   0  120.24   33.53
  -1   4   0  264.00   49.77
   1  -4   0  234.09   43.91
   1   4   0  123.65   55.79
  -1   4   0  238.73   28.85
  -1   4   0  250.89   52.51
   1  -4   0  250.90   30.89
   1  -4  -1  351.38   23.39
   1  -4  -1  303.74   49.97
  -1  -4   1  122.75   42.95
   1  -4  -1  355.60   37.53
  -1   4  -1  300.14   56.75
  -1   4  -1  265.63   15.30
  -1   4  -1  278.97   41.31
   1  -4  -1  302.78   61.00
  -1  -4   1  433.90   59.36
  -1   4  -1  375.31   32.47
  -1   4  -1  353.43   59.87
   1  -4  -1  303.72   67.63
   1  -4  -1  208.57   47.53
  -1   4  -1  310.03   54.73
  -1  -4   1  155.26   60.18
  -1   4  -2   13.83   10.63
  -1  -4   2   16.56   12.10
  -1   4  -2    5.05    2.78
  -1  -4   2   16.33    4.22
   1  -4  -2   -8.25    7.42
   1  -4  -2   14.57    4.38
   1  -4  -2    6.40    9.14
   1  -4  -2   12.43    6.50
  -1   4  -2   21.79   11.40
  -1   4  -2   18.62   15.63
  -1   4  -2   15.64    4.43
  -1  -4   2   -5.45   11.61
  -1  -4   2    8.68   12.55
  -1   4  -2   25.93   19.03
   1  -4  -2   10.15   13.40
  -1   4  -3  693.56  100.80
   1  -4  -3  232.40   63.40
   1  -4  -3  694.18   42.78
  -1  -4   3  436.10   74.61
  -1  -4   3  516.47  111.34
   1  -4  -3  676.33   60.20
  -1   4  -3  756.08   99.00
  -1  -4   3  455.94   60.85
   1  -4  -3  604.02   99.61
   1  -4  -3  685.54   80.01
  -1  -4   3  717.53   60.40
  -1  -4   3  860.47   44.27
  -1   4  -3  631.68   34.92
  -1   4  -3  547.47   58.72
  -1  -4   3  459.53   80.95
  -1  -4   4   86.30   37.31
   1  -4  -4  116.94   44.03
   1  -4  -4  136.59   21.06
  -1   4  -4   69.38   26.94
  -1   4  -4   93.63   22.92
  -1   4  -4  119.01   16.86
  -1   4  -4  148.18   50.16
  -1  -4   4   80.54   34.81
  -1  -4   4  103.46   55.66
   1  -4  -4   98.03   31.73
   1  -4  -4  132.48   28.30
  -1  -4   4  155.75   21.56
   1  -4  -5  246.66   41.68
   1  -4  -5  191.53   27.39
  -1  -4   5  152.90   44.69
  -1  -4   5  204.99   80.24
  -1  -4   5  186.91   26.89
   1  -4  -5  222.52   49.76
  -1  -4   5  236.63   32.14
  -1  -4   6   49.45   29.76
  -1  -4   6   20.06   10.06
  -1  -4   6   31.73   12.57
  -1  -4   7    3.59    5.72
  -1  -4   8   -1.49    3.21
   1   5  -9   16.83    8.67
   1   5  -8    5.24    7.06
   1   5  -8  -15.13   28.25
   1   5  -8   -7.77   31.09
   1   5  -7   35.75   34.42
   1   5  -7   49.55   26.65
   1   5  -7   51.57   15.36
   1   5  -6   59.17   39.16
   1   5  -6   32.28   37.50
   1   5  -6   18.58   26.56
   1   5  -6   41.86   13.08
   1  -5   5   15.55   21.50
   1   5  -5    9.34   10.01
   1   5  -5   43.63   12.21
   1   5  -5   42.38   16.15
  -1   5   5  -18.53   30.31
   1  -5   5   -2.69   20.45
   1  -5   4   42.56   24.67
   1   5  -4    8.67    4.81
   1   5  -4   36.64   29.73
  -1   5   4    2.62    6.37
  -1   5   4  -23.29   27.16
   1   5  -4    8.14   13.31
   1  -5   4    8.65   21.28
  -1   5   4  -15.48   11.34
   1   5  -4  -18.12   25.98
  -1   5   4   -0.43    3.03
   1   5  -3   25.68    8.51
   1  -5   3   41.24   23.40
  -1   5   3    7.72    4.18
   1   5  -3   35.95   18.85
   1  -5   3   17.17   16.53
   1   5  -3   24.33   15.21
  -1   5   3    6.77   13.88
   1   5  -3   37.72   35.92
  -1   5   3   61.16   33.08
   1   5  -3   29.99   22.96
   1   5  -3   21.91   10.72
   1  -5   3   21.69   16.16
  -1   5   3   18.10   11.86
  -1   5   2  299.09   54.42
  -1   5   2  294.60   68.88
  -1   5   2  219.14   45.59
   1  -5   2  221.47   47.06
   1  -5   2  193.25   52.08
  -1   5   2  235.54   38.03
   1   5  -2  295.73   65.97
   1   5  -2  287.73   59.00
  -1   5   2  259.08   61.24
   1  -5   2  183.17   51.82
   1   5  -2  241.90   62.63
   1   5  -2  296.69   83.69
  -1   5   1 1548.82   90.65
   1  -5   1 1005.10  117.33
   1  -5   1 1275.11  167.70
   1   5  -1 1408.57  184.65
   1  -5   1 1447.19   78.02
  -1   5   1 1359.14  140.21
  -1   5   1 1486.18  123.60
   1  -5   1 1294.24  110.87
  -1   5   1 1306.79  106.15
   1   5  -1 1482.53  179.54
  -1   5   1 1331.85  139.96
   1  -5   1 1212.66  128.41
   1   5  -1 1471.64  149.76
   1   5  -1 1454.11  154.38
   1  -5   0  175.27   58.91
  -1   5   0  243.56   31.90
  -1   5   0  217.40   49.91
   1  -5   0  152.08   42.20
   1  -5   0  183.34   53.35
  -1   5   0  200.85   50.28
  -1   5   0  208.95   40.70
   1  -5   0  216.90   31.40
   1   5   0  213.50   73.83
  -1   5   0  178.56   49.25
   1  -5   0  233.62   49.61
  -1  -5   1  730.79  156.92
  -1   5  -1 1322.49  103.18
  -1   5  -1 1494.82  137.81
  -1   5  -1 1651.97   77.06
  -1  -5   1 1506.87   66.77
  -1  -5   1  574.44  102.35
   1  -5  -1  775.47  107.04
  -1   5  -1 1317.23  132.16
   1  -5  -1 1407.43  121.70
  -1   5  -1 1459.42  148.20
  -1  -5   1 1774.56  133.01
   1  -5  -1 1140.98  134.08
   1  -5  -1 1589.61   89.39
  -1   5  -2  226.18   40.30
  -1   5  -2  288.71   68.99
   1  -5  -2  115.90   46.61
  -1  -5   2  296.70   51.66
   1  -5  -2  342.05   27.99
   1  -5  -2  251.63   50.42
  -1  -5   2  101.43   42.70
   1  -5  -2  199.38   58.48
  -1   5  -2  235.93   60.10
   1  -5  -2  276.47   38.75
  -1   5  -2  289.28   57.43
  -1   5  -2  217.69   18.08
  -1  -5   2  145.83   69.98
  -1   5  -2  293.62   30.30
   1  -5  -3   50.04   18.21
  -1  -5   3   15.64   10.30
  -1  -5   3   25.77   14.85
  -1   5  -3   27.53    7.46
   1  -5  -3   45.28   19.85
   1  -5  -3   33.97   15.30
   1  -5  -3   36.00   10.47
  -1  -5   3   23.58   11.19
  -1   5  -3   66.08   32.97
  -1   5  -3   40.42   18.17
   1  -5  -3   37.41   30.03
  -1   5  -3   50.51   30.09
  -1  -5   3   25.58   14.38
  -1   5  -3   32.51   19.08
  -1  -5   4  -24.52   20.16
  -1  -5   4  -15.36   25.62
  -1   5  -4  -24.12   24.74
   1  -5  -4    4.53   13.26
  -1  -5   4   -0.46    5.46
   1  -5  -4   13.48    8.71
  -1  -5   4   23.80   23.62
  -1   5  -4    9.84    3.65
  -1   5  -4   -7.93    8.40
   1  -5  -4   19.96   28.18
   1  -5  -4   11.92   12.60
  -1   5  -4    2.31    2.60
  -1  -5   5   56.73   16.30
  -1   5  -5   39.60   11.17
  -1   5  -5   27.57   14.85
  -1  -5   5   33.72   27.27
  -1  -5   5   28.94   39.95
   1  -5  -5   99.26   38.53
  -1  -5   5   15.62   13.15
   1  -5  -5   31.42   15.18
  -1  -5   6   60.44   18.59
  -1  -5   6  -12.95   51.99
  -1  -5   6   21.53   22.27
  -1  -5   7   49.39   17.84
  -1  -5   7   24.41   31.25
  -1  -5   8   -3.87    7.46
  -1  -5   8    3.71   50.63
  -1  -5   9  -15.88   52.53
   1   6  -9    4.69    3.58
   1   6  -9  -22.39   56.10
   1   6  -8   28.99   12.76
   1   6  -8   -3.17   24.51
   1   6  -7   43.63   50.45
   1   6  -7   31.81   34.11
   1   6  -7    2.33   19.08
   1   6  -7   59.85   18.81
   1   6  -6  263.82  100.37
   1  -6   6   62.36   44.24
   1   6  -6  209.85   66.67
   1   6  -6  147.91   25.58
   1   6  -6  145.25   60.20
   1   6  -5   79.44   46.70
   1   6  -5   73.19   17.58
   1   6  -5   52.13   46.99
   1  -6   5   47.16   29.77
   1   6  -5   42.64   34.23
   1   6  -4 1273.54  158.60
   1   6  -4 1079.23   64.80
  -1   6   4 1121.97  124.63
   1   6  -4 1356.05  196.73
   1  -6   4  930.85  137.14
   1  -6   4 1042.41  128.82
  -1   6   4  895.18  143.01
  -1   6   4  910.58  133.28
   1   6  -4 1305.87  168.58
  -1   6   3   51.36   36.98
   1   6  -3   84.41   17.55
  -1   6   3   38.12   26.98
   1  -6   3   69.43   26.36
  -1   6   3   99.53   36.70
   1  -6   3   32.92   28.32
   1   6  -3  133.80   50.39
   1   6  -3  101.09   51.09
   1   6  -3   86.36   38.79
  -1   6   3   65.44   23.25
   1  -6   3   47.06   25.95
  -1   6   2  349.06   50.25
   1  -6   2  295.49   71.68
   1  -6   2  402.33  109.85
   1   6  -2  580.87  101.22
  -1   6   2  407.55   89.05
   1   6  -2  459.16  111.46
  -1   6   2  396.43   65.82
   1  -6   2  444.49   86.41
   1   6  -2  514.90  109.30
  -1   6   2  445.17   92.44
   1   6  -2  520.59   90.07
   1  -6   2  423.06   70.97
   1   6  -1    3.32   27.14
  -1   6   1   54.72   19.53
  -1   6   1   61.00   41.26
  -1   6   1   38.31   19.87
  -1   6   1   44.58   29.34
   1   6  -1   79.12   42.87
   1  -6   1   99.38   42.86
   1  -6   1   39.90   37.05
   1   6  -1   40.92   23.64
   1   6  -1   52.91   41.19
  -1   6   1   72.61   39.14
   1  -6   1   78.28   25.71
   1  -6   1   84.93   44.28
   1  -6   0    2.93    2.68
  -1   6   0   11.55    8.79
   1  -6   0    2.19   14.72
   1  -6   0   60.40   37.19
   1  -6   0   -9.80   12.12
  -1   6   0    7.45   16.06
  -1   6   0    8.33   28.01
  -1   6   0   18.81   20.86
  -1   6   0   19.61   10.15
   1  -6   0   15.95   14.91
  -1   6  -1   40.77   29.73
  -1  -6   1  -12.42   25.92
  -1  -6   1    1.44   13.43
   1  -6  -1    1.68    7.51
   1  -6  -1   14.20    9.59
  -1   6  -1   49.17   20.33
   1  -6  -1   22.57   24.43
  -1   6  -1   -1.38   12.74
  -1   6  -1   30.16   15.89
  -1  -6   1   66.67   29.38
   1  -6  -1   43.81   15.97
   1  -6  -1   77.94   34.92
   1  -6  -2  521.01   59.45
  -1  -6   2  279.94   98.84
  -1   6  -2  458.63   65.69
   1  -6  -2  509.58   80.90
  -1  -6   2  180.57   55.06
   1  -6  -2  192.66   58.78
  -1   6  -2  686.43  113.13
  -1   6  -2  561.08  102.10
  -1  -6   2  611.93   82.54
   1  -6  -2  356.71   87.64
  -1   6  -2  515.46   88.09
  -1  -6   3   63.90   32.11
  -1  -6   3   31.29   14.22
   1  -6  -3   84.84   26.63
  -1   6  -3   81.53   28.85
  -1   6  -3   81.36   35.25
  -1   6  -3  132.40   56.61
   1  -6  -3   49.50   38.48
  -1   6  -3  136.53   54.74
   1  -6  -3  141.69   48.41
  -1  -6   3   19.65   14.01
  -1  -6   4 1397.28   84.25
  -1  -6   4  728.13  122.08
  -1   6  -4 1231.58  105.79
   1  -6  -4 1305.12  103.24
  -1  -6   4  584.54  102.11
  -1   6  -4 1301.87  174.42
  -1   6  -4 1407.17  170.43
   1  -6  -4 1250.49  139.66
  -1  -6   4  931.28  191.62
  -1   6  -5   64.86   13.95
  -1  -6   5  111.28   55.20
  -1  -6   5    9.23    9.73
  -1   6  -5  116.54   60.44
  -1   6  -5   56.60   43.64
  -1  -6   5    7.42   21.25
  -1  -6   5   74.18   19.54
  -1  -6   6   37.99   49.95
  -1  -6   6   59.45   36.15
  -1  -6   6  172.75   33.10
  -1  -6   6  114.95   49.72
  -1  -6   7   16.51   26.82
  -1  -6   7   18.23   45.90
  -1  -6   7   51.23   19.81
  -1  -6   8   -7.88   46.48
  -1  -6   8    8.57    4.55
  -1  -6   8   -5.80   26.40
  -1  -6   9   -3.08   36.65
  -1  -6   9   14.79   44.20
   1   7  -9   20.35   12.53
   1   7  -9    4.19   52.81
   1   7  -8   11.17    9.19
   1   7  -8  -32.08   53.55
   1   7  -7  -11.33   21.50
   1   7  -7    9.22   10.00
   1   7  -7   25.90   45.51
   1   7  -7    5.40   18.54
   1   7  -6    0.79    4.77
   1   7  -6   19.97   43.80
   1  -7   6  -24.22   34.45
   1   7  -6  -32.04   27.43
   1   7  -6  -37.25   33.63
   1   7  -5  -15.44   22.97
   1   7  -5   28.66   20.77
   1   7  -5    0.63    2.45
   1   7  -5  -16.83   43.57
   1  -7   5  -16.04   30.73
  -1   7   4    8.05   29.81
   1  -7   4  -18.22   26.11
   1  -7   4    0.38   26.28
   1   7  -4   43.55   52.35
   1  -7   4  -28.35   29.37
  -1   7   4   39.77   34.03
   1   7  -4    0.82   30.81
   1  -7   3    5.04   10.12
   1  -7   3   -8.13   26.41
   1   7  -3   24.99   32.08
   1   7  -3   -6.24   44.92
   1  -7   3   46.79   34.56
  -1   7   3   -5.71   14.49
  -1   7   3   16.38   30.84
  -1   7   3   -8.34   19.33
   1  -7   3   12.16   11.10
   1   7  -2   61.27   22.84
  -1   7   2   62.24   22.43
   1  -7   2   11.04   33.88
  -1   7   2   80.71   48.59
  -1   7   2   99.47   36.56
   1  -7   2   87.58   48.04
   1   7  -2  139.91   78.04
   1   7  -2  106.24   58.56
  -1   7   2   94.75   52.93
   1  -7   2  117.18   47.50
   1  -7   2  121.78   44.51
   1  -7   1   95.48   43.92
   1   7  -1  270.92   83.67
  -1   7   1  189.30   48.65
   1  -7   1  256.94   60.96
  -1   7   1  226.60   74.89
   1  -7   1  164.58   68.65
  -1   7   1  133.95   30.85
   1   7  -1  164.22   59.34
   1  -7   1  149.41   57.20
   1   7  -1  352.79  105.00
  -1   7   1  230.41   75.97
  -1   7   0  -13.71   15.24
  -1   7   0   -0.34   11.87
  -1   7   0  -17.13   29.45
   1  -7   0   -9.71   18.92
   1  -7   0   -3.99   16.98
  -1   7   0   31.22   34.04
   1  -7   0   -2.26   13.62
   1  -7   0  -19.75   27.12
  -1  -7   1   57.99   40.94
  -1  -7   1  271.87   67.61
   1  -7  -1  224.75   39.38
  -1   7  -1  132.25   51.66
  -1   7  -1  153.84   42.66
   1  -7  -1  222.88   58.35
  -1   7  -1  146.33   51.14
   1  -7  -1  101.46   45.61
  -1   7  -1  182.59   64.70
   1  -7  -1  138.65   54.59
  -1  -7   2    9.56   38.81
   1  -7  -2   34.77   32.07
  -1   7  -2  151.68   55.93
   1  -7  -2   55.57   40.72
  -1   7  -2  116.88   34.62
  -1  -7   2   83.70   33.15
  -1   7  -2  138.53   60.17
  -1  -7   2  -22.51   36.17
  -1   7  -2  147.19   56.32
   1  -7  -2  135.09   49.90
   1  -7  -2  104.97   26.77
   1  -7  -3   53.27   24.94
  -1  -7   3   24.03   24.16
   1  -7  -3  -17.62   21.21
  -1   7  -3  -20.88   22.36
  -1   7  -3  -20.63   37.68
   1  -7  -3   32.41   32.67
  -1   7  -3    9.30   27.82
  -1   7  -3   24.56   21.70
  -1  -7   3    8.14   34.79
   1  -7  -4  -19.01   27.55
  -1  -7   4  -12.45   28.02
  -1   7  -4  -18.31   19.85
  -1   7  -4   23.29   23.13
  -1   7  -4   33.08   32.87
  -1  -7   4   23.78   32.44
   1  -7  -4  -16.47   18.00
  -1  -7   5    2.41    2.64
  -1  -7   5   15.23   26.65
  -1  -7   5  -35.81   38.83
  -1   7  -5  -14.94   16.40
  -1  -7   5    6.75   11.74
  -1   7  -5  -53.00   42.38
  -1  -7   6    1.44   23.70
  -1  -7   6    2.08    7.10
  -1  -7   6   45.06   44.35
  -1  -7   6   -0.24   24.32
  -1  -7   7   -0.43   10.72
  -1  -7   7  -24.93   41.33
  -1  -7   7  -15.02   34.32
  -1  -7   7  -29.99   52.48
  -1  -7   8    8.53   24.78
  -1  -7   8  -28.20   34.36
  -1  -7   8   -0.95    5.16
  -1  -7   9   95.73   78.07
  -1  -7   9   -4.87   34.98
   1   8  -8   32.79   16.90
   1   8  -7    9.05   29.57
   1   8  -7  -43.18   49.73
   1  -8   6  -27.77   48.91
   1  -8   6   -4.73   39.77
   1   8  -6   70.59   61.38
   1   8  -6  -20.54   29.82
   1   8  -5  -36.66   69.59
   1  -8   5  -38.52   50.29
   1   8  -5    1.26   29.17
   1  -8   5  -10.56   23.36
   1  -8   4   70.38   44.35
   1   8  -4  155.90   69.95
   1   8  -4  235.01   97.01
   1  -8   4   69.51   41.99
   1  -8   3   64.64   33.92
  -1   8   3  107.79   45.16
   1  -8   3   47.50   22.95
   1   8  -3   47.75   35.57
   1  -8   3   62.13   31.58
  -1   8   3   49.81   31.02
   1   8  -3  153.48   67.36
   1  -8   3  108.81   78.26
  -1   8   3   73.52   46.26
   1  -8   2  -20.29   27.25
   1  -8   2   44.16   40.23
   1   8  -2    9.40   32.45
  -1   8   2   -7.00   16.00
   1  -8   2  -29.92   33.01
   1  -8   2   40.13   39.67
  -1   8   2   32.59   20.15
   1   8  -2  -60.05   56.64
  -1   8   2   16.30   32.20
   1  -8   1  112.21   69.29
  -1   8   1  118.04   53.80
   1  -8   1  178.11   58.25
   1   8  -1  186.35   86.12
  -1   8   1  133.37   47.94
   1   8  -1  244.73   69.21
   1  -8   1   55.57   24.84
   1   8  -1   63.68   24.65
   1  -8   1   98.62   47.35
  -1   8   1  103.73   50.56
   1  -8   0  103.97   44.18
   1  -8   0   60.08   42.20
  -1   8   0  123.69   58.51
  -1   8   0  212.77   80.44
   1  -8   0   55.08   41.21
  -1   8   0  142.28   45.10
  -1   8  -1  207.47   73.31
  -1  -8   1  222.76   60.88
  -1   8  -1  219.43   80.31
   1  -8  -1   89.26   41.66
   1  -8  -1   19.48   22.16
  -1   8  -1  183.46   63.96
  -1   8  -1  173.33   48.62
   1  -8  -1  137.88   60.49
   1  -8  -2   13.04   13.55
  -1   8  -2   46.74   39.46
   1  -8  -2  -14.71   17.23
  -1  -8   2  -17.35   26.36
  -1   8  -2   22.21   22.08
  -1  -8   2   -2.90   35.67
  -1   8  -2  108.91   59.08
  -1   8  -2   67.43   52.69
   1  -8  -2  -38.01   27.92
   1  -8  -2    8.10   34.33
  -1   8  -3   92.16   33.86
  -1   8  -3  182.16   61.16
   1  -8  -3  151.65   58.11
  -1  -8   3   32.60   35.32
  -1   8  -3   79.97   46.93
  -1   8  -3  172.56   62.16
   1  -8  -3  123.63   33.76
  -1  -8   3    3.19   57.19
  -1  -8   4   24.98   27.44
  -1  -8   4   47.34   49.94
  -1   8  -4   68.05   37.22
  -1   8  -4  172.72   78.68
  -1  -8   5  -78.82   62.34
  -1  -8   5   56.97   41.32
  -1   8  -5   86.92   57.91
  -1   8  -5   76.11   59.94
  -1  -8   6   93.93   89.54
  -1  -8   6  -41.60   39.81
  -1   8  -6   54.82   60.39
  -1  -8   7   58.49   67.13
  -1  -8   7  -72.74   65.84
  -1  -8   8   73.87   87.47
   1   9  -7  -83.56   75.28
   1   9  -7   66.47   71.61
   1  -9   6  -80.87   64.12
   1   9  -6   40.40   46.73
   1   9  -6   18.64   53.14
   1  -9   6    3.86   37.36
   1  -9   5   19.82   28.17
   1   9  -5   91.93   74.06
   1   9  -5   47.20   65.43
   1  -9   5  -18.23   58.19
   1  -9   4  -19.05   40.68
   1   9  -4   98.34   47.67
   1   9  -4  -13.85   31.85
   1  -9   4   23.27   27.46
   1  -9   3   38.00   78.88
   1  -9   3   46.67   36.60
   1   9  -3   29.21   53.94
   1   9  -3   40.59   27.39
   1  -9   2   28.04   23.25
   1  -9   2  -15.19   26.91
   1   9  -2   13.74   40.72
   1   9  -2  167.92   71.50
  -1   9   2   69.94   42.93
   1  -9   2   32.66   17.08
  -1   9   2   98.98   46.49
  -1   9   2   75.38   64.83
  -1   9   1   -8.65    8.05
   1  -9   1   51.42   37.03
   1  -9   1   10.34   37.52
  -1   9   1   -1.62   41.70
  -1   9   1   94.46   72.32
   1  -9   1  -11.30   17.26
  -1   9   0   39.89   20.91
   1  -9   0   30.45   28.18
   1  -9   0   60.22   39.60
  -1   9   0   29.84   23.77
  -1   9   0  108.87   52.84
   1  -9   0   56.85   42.28
  -1   9  -1   48.57   35.88
   1  -9  -1   45.43   34.00
   1  -9  -1  -41.82   51.34
  -1   9  -1   32.87   25.65
   1  -9  -1   27.23   32.99
  -1   9  -1   46.08   41.74
  -1   9  -2    5.19    8.32
  -1  -9   2   26.73   34.53
   1  -9  -2   24.06   31.25
  -1   9  -2   24.47   18.86
  -1   9  -2  -18.67   54.78
  -1  -9   3  -32.97   47.42
  -1   9  -3   22.42   31.89
  -1   9  -3   73.69   57.62
  -1  -9   3   96.43   78.73
  -1  -9   4  -11.81   47.71
  -1  -9   4  -36.03   21.12
  -1   9  -4  -11.78   33.54
  -1  -9   5  -23.33   38.82
  -1  -9   5   33.63   47.14
  -1   9  -5  -41.43   60.73
  -1   9  -5   96.96   67.04
  -1  -9   6    1.51   27.12
  -1  -9   6  -74.63   98.55
  -1   9  -6   53.19   63.68
  -1  -9   7   52.61   54.57
  -1  -9   7  -16.64   50.20
   1 -10   6  -11.53   29.68
   1 -10   6   65.22   66.02
   1  10  -6   35.08   71.08
   1 -10   5  122.78  109.92
   1 -10   5  -28.77   65.50
   1  10  -5   47.72   26.34
   1  10  -5   48.79   69.92
   1 -10   4   36.22   39.09
   1 -10   4  -35.88   55.18
   1  10  -4  -77.91   69.07
   1 -10   3   11.31   35.10
   1  10  -3  168.84  108.98
   1  10  -3  151.31   90.97
   1 -10   2  -58.37   30.80
   1 -10   2   -5.41   27.86
  -1  10   2    1.11   44.66
   1 -10   2   38.08   50.95
  -1  10   2  -82.05   69.18
   1 -10   1   23.44   35.29
   1 -10   1  -12.48   28.12
  -1  10   1   26.46   33.00
  -1  10   1  -42.19   36.40
   1 -10   1  -27.20   43.34
  -1  10   1  -61.03   61.50
  -1  10   0  -11.93   10.61
   1 -10   0   -8.90   24.40
   1 -10   0  -31.70   32.47
   1 -10   0   80.23   61.82
  -1  10   0  -13.54   38.15
  -1  10   0  -82.76   57.84
  -1  10  -1   54.79   49.60
   1 -10  -1  -53.50   69.63
   1 -10  -1   32.95   23.36
  -1  10  -1   18.76   30.76
  -1  10  -1    5.28   25.14
   1 -10  -2   94.27   65.04
  -1  10  -2   44.81   55.20
  -1  10  -2   31.57   22.42
  -1  10  -2   20.67   24.06
  -1 -10   3   35.80   22.56
  -1  10  -3   63.23   39.96
  -1 -10   4   39.52   59.52
  -1  10  -4   53.44   40.54
  -1  10  -4   -7.30   24.45
  -1 -10   4   71.99   59.56
  -1 -10   5    8.15   63.55
  -1 -10   5   38.95   56.24
  -1  10  -5    1.22   57.41
  -1  10  -5   25.09   37.62
  -1 -10   6  -51.59   68.58
  -1 -10   7  -14.91   16.88
   1 -11   2  -14.52   16.15
   1 -11   1  104.99   70.75
  -1  11   1   82.10   67.20
   1 -11   1  -10.24   40.78
  -1  11   1   30.53   66.30
   1 -11   0  -34.02   63.76
  -1  11   0  -28.84   60.93
  -1  11   0   18.61   26.42
   1 -11   0   74.53   57.15
  -1  11  -1   40.91   40.68
   1 -11  -1   39.28   46.33
  -1  11  -1   94.63   73.19
  -1  11  -1   41.79   33.92
   2   0  -2 5378.56  237.92
  -2   0   2 4007.27  220.20
   2   0  -2 5817.88  115.52
   2   0  -2 6855.16  150.07
   2   0  -2 4982.30  123.33
  -2   0   3  578.33   39.47
  -2   0   3  509.18   79.24
  -2   0   3  329.74   75.43
   2   0  -3  699.55   46.10
  -2   0   3  587.72   46.33
   2   0  -3  587.56   79.74
   2   0  -3  676.36   38.35
   2   0  -3  604.74   68.04
   2   0  -3  663.93   52.89
   2   0  -3  583.37   43.06
  -2   0   4  354.07   33.00
  -2   0   4  271.57   65.52
   2   0  -4  313.41   59.92
   2   0  -4  328.50   31.75
  -2   0   4  353.74   38.85
   2   0  -4  306.61   50.41
   2   0  -4  325.78   42.70
   2   0  -4  224.88   27.06
  -2   0   4  328.69   34.66
   2   0  -4  310.29   33.51
   2   0  -4  314.38   27.02
  -2   0   5  156.14   22.68
  -2   0   5  219.68   33.53
  -2   0   5  124.96   46.37
   2   0  -5  227.15   56.52
   2   0  -5  187.37   41.29
   2   0  -5  145.40   21.10
  -2   0   5  194.22   29.48
   2   0  -5  171.38   25.86
   2   0  -5  178.73   21.58
   2   0  -5  203.24   26.96
  -2   0   6  314.59   34.14
   2   0  -6  314.66   30.97
   2   0  -6  293.83   66.90
   2   0  -6  357.89   38.63
   2   0  -6  334.90   39.19
   2   0  -6  420.87   69.83
  -2   0   6  356.62   44.21
  -2   0   6  369.78   50.58
  -2   0   7   22.28    9.41
  -2   0   7   23.11   12.27
   2   0  -7   41.35   11.79
  -2   0   7   23.66   12.49
   2   0  -7   44.18   14.08
   2   0  -7   45.70   35.24
   2   0  -7   20.68    8.83
   2   0  -8  316.74   83.81
  -2   0   8  232.35   35.84
  -2   0   8  290.79   46.76
   2   0  -8  337.81   44.44
   2   0  -8  396.97   47.94
   2   0  -8  411.88   41.38
   2   0  -9   17.00   12.77
  -2   0   9    6.83    5.46
   2   0  -9  -10.19    8.86
   2   1 -10   18.54   11.50
   2   1 -10   14.54   10.92
   2   1  -9   35.42   16.79
   2   1  -9   45.77   15.22
  -2   1   8    2.34    4.63
   2   1  -8   -9.41   24.00
   2   1  -8   11.84    8.74
   2   1  -8   16.69   11.72
  -2   1   7    4.05    4.25
  -2   1   7    2.80    4.99
  -2   1   7   -5.31    8.37
   2   1  -7    3.17    4.80
   2   1  -7   22.19   26.25
   2   1  -7   27.27   31.83
   2   1  -7   14.18    6.94
   2   1  -7    1.50    4.51
  -2   1   6  131.70   21.66
   2   1  -6  179.12   26.58
   2   1  -6  159.73   23.15
  -2   1   6  158.70   29.04
  -2   1   6  223.24   42.18
   2   1  -6  187.07   27.74
   2   1  -6  172.05   47.27
   2   1  -6  158.01   53.77
  -2   1   5  565.44   40.72
  -2   1   5  656.73   67.17
  -2   1   5  499.63   77.68
  -2   1   5  649.35   56.20
   2   1  -5  594.64   45.92
   2   1  -5  513.86   78.85
  -2   1   5  483.31   56.15
   2   1  -5  576.88   94.13
  -2   1   5  572.92   59.04
   2   1  -5  578.07   41.50
   2   1  -5  572.01   44.99
  -2   1   4  -16.28   22.81
  -2   1   4    0.01    5.70
  -2   1   4    9.05    5.21
  -2   1   4   -3.96   10.61
   2   1  -4    9.15    5.52
   2   1  -4    8.70    4.22
   2   1  -4   12.84   10.00
   2   1  -4    3.76   11.78
   2   1  -4    7.81    6.22
  -2   1   4  -21.26   16.15
   2   1  -4    8.45    2.19
  -2   1   3  255.79   36.41
   2   1  -3  256.19   56.69
  -2   1   3  237.63   30.81
  -2   1   3  249.00   32.44
   2   1  -3  266.97   28.15
   2   1  -3  284.87   58.69
   2   1  -3  195.22   32.85
   2   1  -3  278.41   26.30
  -2   1   3  179.70   44.98
   2   1  -3  229.23   25.66
   2   1  -2 1795.70   68.00
  -2   1   2 1468.63   76.31
   2   1  -2 2001.83   80.93
  -2   1   2 1635.14   77.76
   2   1  -2 1653.62  147.07
  -2   1   2 1274.86  122.16
  -2   1   2 1946.14  102.94
   2  -1  -1  254.85   28.87
  -2  -1   2 1202.14  126.73
   2  -1  -2 1682.17   75.24
   2  -1  -2 1782.07  104.38
   2  -1  -2 1493.99   83.81
   2  -1  -2 1696.54  116.83
  -2  -1   3  259.84   27.66
   2  -1  -3  323.48   52.07
   2  -1  -3  258.83   31.47
   2  -1  -3  324.28   31.31
   2  -1  -3  238.38   30.48
  -2  -1   3  152.34   44.48
   2  -1  -3  313.84   24.40
   2  -1  -3  255.17   41.17
   2  -1  -3  213.08   30.67
  -2  -1   3  162.67   54.96
   2  -1  -4   -6.16   13.77
  -2  -1   4   -5.66   14.95
  -2  -1   4   25.67   20.42
   2  -1  -4    7.90    4.46
  -2  -1   4   13.40    7.35
   2  -1  -4    3.94    2.36
   2  -1  -4    5.29    2.90
   2  -1  -4    5.77    2.87
   2  -1  -4   31.01   16.81
   2  -1  -4    1.10    1.84
  -2  -1   5  587.14   51.29
  -2  -1   5  611.40   53.36
  -2  -1   5  512.09   99.55
   2  -1  -5  615.40   48.46
   2  -1  -5  692.40   94.94
   2  -1  -5  525.58   51.82
   2  -1  -5  552.99   82.49
   2  -1  -5  505.22   49.07
   2  -1  -5  725.09   43.93
  -2  -1   6  169.54   31.13
   2  -1  -6  147.20   45.14
  -2  -1   6  138.56   24.32
  -2  -1   6  197.28   32.45
   2  -1  -6  174.88   27.40
  -2  -1   6  113.76   49.18
   2  -1  -6  176.27   21.96
   2  -1  -6  147.17   27.92
  -2  -1   7    3.76    3.32
   2  -1  -7   26.00   21.35
   2  -1  -7    2.99    2.79
   2  -1  -7   29.97   13.69
   2  -1  -7   12.01    7.99
  -2  -1   7    1.08    3.42
  -2  -1   8    1.20    6.50
   2  -1  -8    4.69    2.54
  -2  -1   8   -1.00    6.37
   2  -1  -8   -1.00    2.84
   2  -1  -8   18.41   10.49
  -2  -1   9   19.23   12.80
  -2  -1   9    5.56    8.04
   2  -1  -9   41.78   16.54
   2  -1  -9   38.88   19.40
   2  -1  -9   30.80    9.28
   2   2 -10   10.85   10.32
   2   2 -10   -9.76    9.01
   2   2  -9    6.43    4.13
   2   2  -9   27.48   21.52
   2   2  -9    8.36    3.89
   2   2  -8   85.18   19.21
   2   2  -8  101.15   23.33
  -2   2   8   32.83   14.68
   2   2  -8  122.25   50.13
   2   2  -8  100.27   40.00
  -2   2   7  100.94   32.00
  -2   2   7   99.29   24.94
   2   2  -7  125.17   52.09
   2   2  -7  134.04   25.76
   2   2  -7  105.53   48.26
   2   2  -7  117.01   22.50
  -2   2   6    7.22    6.58
  -2   2   6   16.01    9.62
   2   2  -6  -13.60   10.25
  -2   2   6    0.75    6.33
   2   2  -6   12.21    6.71
  -2   2   6   21.36   11.83
   2   2  -6   19.98   14.15
   2   2  -6   18.31    9.99
  -2   2   5  172.51   34.43
  -2   2   5  141.47   20.03
  -2   2   5  135.46   38.96
  -2   2   5  191.15   29.82
   2   2  -5  208.12   28.60
  -2   2   5  197.19   39.98
   2   2  -5  153.27   50.39
   2   2  -5  198.79   56.91
   2   2  -5  236.90   39.48
   2   2  -5  163.39   22.70
   2   2  -5  176.49   24.02
  -2   2   4  318.97   44.83
  -2   2   4  298.54   40.74
  -2   2   4  316.45   34.68
   2   2  -4  324.07   30.43
  -2   2   4  283.44   24.32
   2   2  -4  296.72   65.80
   2   2  -4  317.57   47.34
  -2   2   4  287.11   29.73
  -2   2   4  239.05   45.57
   2   2  -4  298.15   64.39
   2   2  -4  354.55   34.55
   2   2  -3   78.79   15.26
  -2   2   3   56.77   27.19
  -2   2   3   93.12   21.15
   2   2  -3   91.91   17.57
   2   2  -3   72.59   28.27
  -2   2   3   80.60   21.26
  -2   2   3   87.78   18.73
   2   2  -3   32.52   23.02
   2   2  -3   66.67   23.80
  -2   2   3   68.51   21.18
  -2   2   2   69.82   18.39
  -2   2   2   68.06   21.05
  -2   2   2   77.06   18.29
   2   2  -2   52.14   31.35
   2   2  -2   88.82   34.59
  -2   2   2   51.21   17.55
  -2   2   1  484.67   50.19
  -2   2   1  739.79   71.52
   2  -2  -1  712.44   76.26
   2  -2  -1  661.07   51.15
   2  -2  -1  588.56   59.98
  -2  -2   2   50.96   28.05
   2  -2  -2   81.62   27.44
   2  -2  -2   76.14   19.66
   2  -2  -2   82.65   18.40
   2  -2  -2   66.95   19.36
   2  -2  -2   75.99   18.63
  -2  -2   2   50.29   41.38
   2  -2  -2   97.49   16.14
  -2  -2   3   52.91   29.09
   2  -2  -3   90.91   12.59
   2  -2  -3   72.36   21.89
   2  -2  -3   78.57   17.30
   2  -2  -3   61.44   16.09
   2  -2  -3   65.19   17.53
   2  -2  -3   96.99   17.60
  -2  -2   3   31.47   25.11
   2  -2  -3   92.61   29.87
   2  -2  -4  311.27   38.34
  -2  -2   4  340.16   31.64
  -2  -2   4  261.30   76.68
  -2  -2   4  213.96   58.84
   2  -2  -4  302.41   32.07
  -2  -2   4   78.25   27.49
   2  -2  -4  272.35   41.75
   2  -2  -4  292.93   51.42
   2  -2  -4  305.77   59.54
   2  -2  -4  358.34   26.60
  -2  -2   5   76.81   37.46
  -2  -2   5  169.04   61.08
  -2  -2   5  192.40   29.63
  -2  -2   5   52.51   21.14
   2  -2  -5  157.89   24.77
  -2  -2   5  210.21   28.39
   2  -2  -5  161.30   50.66
   2  -2  -5  187.50   31.73
   2  -2  -5  166.12   42.84
   2  -2  -5  177.05   19.61
   2  -2  -5  149.56   31.01
  -2  -2   6    1.83    3.29
  -2  -2   6  -13.58   33.92
  -2  -2   6    7.21    6.47
   2  -2  -6    8.06    5.33
   2  -2  -6   11.65    9.94
   2  -2  -6   -1.77    9.47
   2  -2  -6    8.94    4.05
  -2  -2   7  108.70   23.81
   2  -2  -7   98.50   26.43
  -2  -2   7  132.88   29.92
  -2  -2   7  134.55   58.63
   2  -2  -7  125.03   20.36
   2  -2  -7  118.87   25.55
  -2  -2   8   51.18   17.67
  -2  -2   8    3.68   38.27
  -2  -2   8   77.76   25.07
   2  -2  -8   92.04   23.26
   2  -2  -8  104.78   29.02
   2  -2  -8   93.03   19.44
  -2  -2   9    7.47    8.10
  -2  -2   9   -0.44   42.73
  -2  -2   9    2.36    8.54
   2   3 -10   -6.75    9.29
   2   3 -10   15.01   11.94
   2   3  -9   18.26    9.34
   2   3  -9   60.32   38.89
   2   3  -9   16.17   10.04
   2   3  -9  -12.63   35.36
   2   3  -8   21.63   11.83
   2   3  -8  -23.06   37.02
   2   3  -8   22.18   35.34
   2   3  -8   15.38   10.48
  -2   3   7   75.99   34.14
  -2   3   7   16.01    8.85
   2   3  -7   50.40   17.37
   2   3  -7   40.90   13.13
   2   3  -7    6.74   13.50
  -2   3   7   12.06   11.63
   2   3  -7   10.48   23.21
  -2   3   6   27.96   12.45
  -2   3   6   18.03   22.40
  -2   3   6   20.90   10.46
   2   3  -6   10.12   19.78
   2   3  -6   -2.92   10.87
   2   3  -6   38.78   13.13
   2   3  -6   31.45   11.66
  -2   3   5    6.39   14.63
  -2   3   5   -7.85    7.49
  -2   3   5  -17.78   15.49
  -2   3   5    5.99    5.28
   2   3  -5   10.76   13.82
   2   3  -5    7.54    6.22
   2   3  -5    5.21    1.77
   2   3  -5    2.63   16.75
   2   3  -5  -11.68   14.31
  -2   3   4  111.44   20.84
  -2   3   4  142.95   30.04
  -2   3   4   85.57   12.88
  -2   3   4  129.77   37.73
  -2   3   4   96.21   26.89
   2   3  -4  155.35   25.26
   2   3  -4  121.40   45.91
   2   3  -4  184.98   61.22
   2   3  -4  196.77   47.15
  -2   3   4  133.23   28.40
   2   3  -4  131.93   21.01
  -2   3   3  201.77   16.55
  -2   3   3  218.90   43.53
  -2   3   3  266.03   38.43
  -2   3   3  196.51   43.52
  -2   3   3  230.85   40.38
   2   3  -3  168.18   55.93
   2   3  -3  167.35   52.89
   2   3  -3  202.23   54.34
   2   3  -3  241.28   38.72
  -2   3   3  228.91   37.89
  -2   3   3  242.18   28.35
   2   3  -3  226.75   27.05
  -2   3   2  227.53   37.67
  -2   3   2  271.09   35.97
   2   3  -2  316.13   85.96
   2   3  -2  226.33   62.05
  -2   3   2  220.37   46.49
  -2   3   2  267.25   44.62
   2   3  -2  219.76   65.58
  -2   3   1  305.28   35.80
  -2   3   1  375.67   59.39
  -2   3   1  397.18   56.55
  -2   3   1  268.76   41.40
  -2   3   0  172.92   37.94
   2  -3   0  117.17   29.12
  -2   3   0  111.43   25.82
  -2   3   0  145.12   37.36
   2  -3   0  134.20   36.00
   2  -3   0  122.56   23.14
   2  -3  -1  342.93   38.01
   2  -3  -1  278.95   46.25
   2  -3  -1  413.85   37.43
   2  -3  -1  326.18   59.57
   2  -3  -1  288.45   46.28
  -2   3  -1  259.91   41.78
  -2  -3   2  133.92   65.03
   2  -3  -2  200.67   39.04
   2  -3  -2  258.95   30.13
   2  -3  -2  262.50   42.53
   2  -3  -2  363.93   33.66
   2  -3  -2  311.83   39.13
   2  -3  -2  243.70   54.82
   2  -3  -3  249.21   35.72
  -2  -3   3  162.58   50.79
  -2  -3   3  185.35   73.50
   2  -3  -3  261.03   28.11
   2  -3  -3  187.74   38.58
  -2  -3   3  322.28   35.73
   2  -3  -3  238.26   42.56
   2  -3  -3  209.95   33.78
   2  -3  -3  267.71   21.01
   2  -3  -3  246.59   55.48
  -2  -3   4   93.73   39.09
  -2  -3   4   65.59   46.60
   2  -3  -4  131.34   21.57
  -2  -3   4   42.03   24.70
   2  -3  -4  157.04   50.45
   2  -3  -4  122.59   30.44
   2  -3  -4  172.03   17.76
   2  -3  -4  148.39   34.38
   2  -3  -4  124.42   26.12
  -2  -3   5  -19.30   33.56
  -2  -3   5   15.61    9.02
   2  -3  -5   15.42    9.28
  -2  -3   5   -5.46   11.33
  -2  -3   5   -6.86   23.04
   2  -3  -5   16.19   22.87
   2  -3  -5   10.48   13.56
   2  -3  -5    9.90    8.47
   2  -3  -5    6.18    1.83
  -2  -3   6   18.98   10.78
  -2  -3   6   27.32   29.07
  -2  -3   6   -8.60   17.04
  -2  -3   6   33.21   13.69
   2  -3  -6   30.47   11.12
   2  -3  -6   33.37   17.92
   2  -3  -6   24.72   10.06
   2  -3  -6   29.89    8.48
  -2  -3   7   32.72   34.47
   2  -3  -7   28.67   13.08
  -2  -3   7   48.75   15.93
   2  -3  -7   34.97   20.00
   2  -3  -7   20.24    4.42
  -2  -3   7   46.82   15.69
  -2  -3   8  -18.97   38.09
  -2  -3   8   18.38   15.82
   2  -3  -8    6.38    4.54
  -2  -3   8    8.10    5.96
   2  -3  -8   34.84   19.54
  -2  -3   9    3.13    3.88
  -2  -3   9  -34.35   47.95
  -2  -3   9   10.74   10.82
  -2  -3  10   -4.84   11.68
  -2  -3  10  -34.77   57.90
   2   4 -10   17.79   14.07
   2   4  -9   89.96   54.03
   2   4  -9  119.31   69.89
   2   4  -9   22.91   12.65
   2   4  -8    3.03   22.43
   2   4  -8   72.61   52.77
   2   4  -8   37.34   15.14
  -2   4   7   85.42   29.67
  -2   4   7   74.94   43.79
   2   4  -7  187.75   30.77
   2   4  -7  219.30   78.67
   2   4  -7  185.95   70.38
   2   4  -7  162.36   28.14
  -2   4   6   14.58   21.10
  -2   4   6   46.72   32.53
  -2   4   6   -5.80    3.39
   2   4  -6   -2.32    6.06
   2   4  -6   -2.38    1.74
   2   4  -6  -20.30   27.70
   2   4  -6   33.04   28.14
  -2   4   6    5.31    9.33
  -2   4   5   44.93   19.10
  -2   4   5   46.93   20.95
  -2   4   5   39.75   13.71
   2   4  -5   55.93   15.00
   2   4  -5   66.31   16.36
   2   4  -5   39.42   33.68
  -2   4   5   35.74   20.97
   2   4  -5   66.83   26.88
   2   4  -5   54.39   39.86
  -2   4   4  142.01   33.27
  -2   4   4  115.93   41.13
  -2   4   4  109.14   20.97
  -2   4   4  133.56   36.75
   2   4  -4  147.20   56.28
   2   4  -4  160.62   48.05
  -2   4   4  131.18   32.01
   2   4  -4  158.70   53.65
   2   4  -4  138.72   23.26
  -2   4   3   76.28   27.64
  -2   4   3   88.77   17.08
  -2   4   3  106.84   25.38
  -2   4   3   73.32   28.00
  -2   4   3   73.28   23.33
   2  -4   2  308.95   63.51
  -2   4   2  293.51   48.65
  -2   4   2  370.50   45.09
  -2   4   2  327.49   29.60
   2   4  -2  393.31   92.79
   2   4  -2  294.34   89.39
  -2   4   2  357.24   64.68
   2   4  -2  267.17   76.98
  -2   4   2  334.68   57.78
  -2   4   1 1079.07   90.14
   2  -4   1 1034.72  111.06
  -2   4   1 1140.84  109.62
   2  -4   1 1173.28  120.67
   2  -4   1  856.21   91.54
  -2   4   1 1064.76   71.79
  -2   4   1 1061.66  110.28
   2  -4   0    7.15    7.67
   2  -4   0    8.41    8.47
  -2   4   0   -7.55    5.37
   2  -4   0    2.76   12.83
  -2   4   0   -3.74    8.39
   2  -4   0  -13.90    9.17
  -2   4   0    4.74   13.88
  -2   4   0   21.69   12.67
   2  -4  -1 1133.12   76.77
  -2   4  -1  978.69   88.45
   2  -4  -1  942.41   98.33
   2  -4  -1 1339.29   70.18
  -2   4  -1 1308.80  128.23
   2  -4  -1 1062.77  119.39
   2  -4  -1 1066.91   98.48
  -2   4  -1 1291.84  120.17
  -2  -4   2  208.45   91.44
   2  -4  -2  446.02   38.26
   2  -4  -2  412.12   47.57
   2  -4  -2  239.77   49.33
  -2   4  -2  235.80   43.03
  -2   4  -2  355.09   71.72
   2  -4  -2  313.99   66.63
   2  -4  -2  362.10   58.45
  -2  -4   3   22.69   34.20
   2  -4  -3  139.87   23.98
  -2  -4   3   45.54   19.13
   2  -4  -3   99.53   32.88
   2  -4  -3   64.80   28.11
   2  -4  -3   71.18   34.27
  -2  -4   3   32.31   36.65
   2  -4  -3  115.02   26.19
  -2  -4   4   90.37   44.52
   2  -4  -4  146.26   23.94
   2  -4  -4   42.68   24.74
  -2  -4   4   24.16   17.30
   2  -4  -4  129.05   51.35
  -2  -4   4   86.84   44.04
   2  -4  -4  116.92   35.01
   2  -4  -4  134.64   28.71
  -2  -4   5   46.17   13.57
  -2  -4   5   17.95   13.27
  -2  -4   5   58.57   30.95
   2  -4  -5   75.84   19.65
  -2  -4   5   42.81   26.69
   2  -4  -5   68.67   40.47
   2  -4  -5   65.70   30.87
   2  -4  -5   62.95   20.77
  -2  -4   6  -23.56   35.41
  -2  -4   6    0.48    9.07
   2  -4  -6   14.65   16.38
   2  -4  -6   -7.41    7.14
  -2  -4   6    0.39   14.97
   2  -4  -6   -2.73    3.42
  -2  -4   6    4.10    3.68
  -2  -4   7   85.09   72.42
  -2  -4   7  113.96   27.80
  -2  -4   7  144.84   32.06
  -2  -4   7  139.75   59.70
   2  -4  -7  124.39   34.89
   2  -4  -7  141.36   28.56
   2  -4  -7  111.63   29.55
  -2  -4   8    6.47   24.39
  -2  -4   8  -11.70   29.24
  -2  -4   8   11.73   10.61
  -2  -4   9   15.51   19.62
  -2  -4   9   46.70   63.98
  -2  -4   9   22.87   14.82
  -2  -4  10   28.18   18.63
  -2  -4  10  -35.75   20.25
   2   5 -10   14.15   10.21
   2   5  -9   15.19   12.73
   2   5  -9   58.86   51.32
   2   5  -8   29.27   40.32
   2   5  -8   52.99   60.13
   2   5  -8   -3.80    5.90
   2   5  -7   15.89    8.48
   2   5  -7   53.47   47.23
   2   5  -7   39.71   27.00
  -2   5   6   46.15   39.23
  -2   5   6   34.67   18.82
   2   5  -6    9.71   20.50
  -2   5   6   32.53   27.87
   2   5  -6   49.15   14.78
   2   5  -6   26.97   31.26
  -2   5   5   84.12   28.08
  -2   5   5   77.63   23.73
  -2   5   5   80.87   44.16
  -2   5   5   37.57   14.93
   2   5  -5  140.67   70.04
   2   5  -5   85.53   55.06
   2   5  -5   68.23   37.41
   2   5  -5   69.81   17.30
   2   5  -4  226.76   74.68
  -2   5   4  184.20   39.23
  -2   5   4  136.88   25.11
  -2   5   4  152.73   46.87
   2   5  -4  129.05   54.52
   2   5  -4  193.44   55.59
  -2   5   4  195.60   49.36
  -2   5   4  196.73   47.91
   2   5  -4  187.55   28.09
  -2   5   3  350.22   50.31
   2   5  -3  304.47   86.41
  -2   5   3  248.15   30.53
  -2   5   3  301.15   56.11
  -2   5   3  337.02   73.09
   2   5  -3  217.67   75.34
   2  -5   3  218.76   64.81
   2   5  -3  343.01   87.28
  -2   5   3  303.68   63.00
   2  -5   2   46.13   31.66
   2   5  -2   -2.25    9.91
  -2   5   2   15.72   10.02
  -2   5   2   27.62    9.82
  -2   5   2   17.06   14.44
   2   5  -2   35.64   36.78
  -2   5   2   31.10   18.01
   2  -5   2   31.82   15.33
   2  -5   2    6.80   13.59
   2   5  -2  -21.17   42.93
  -2   5   2   38.94   28.04
   2  -5   1  151.14   47.55
   2  -5   1  119.55   35.43
  -2   5   1  174.27   31.87
  -2   5   1  144.90   36.60
   2  -5   1  142.03   47.39
  -2   5   1  189.60   51.48
  -2   5   1  204.07   55.53
  -2   5   0  361.42   72.18
  -2   5   0  303.71   51.14
   2  -5   0  291.46   62.76
   2  -5   0  372.64   63.97
  -2   5   0  332.81   70.55
   2  -5   0  247.67   63.79
   2  -5   0  368.30   46.76
  -2   5   0  386.25   44.33
  -2   5  -1  165.55   27.99
   2  -5  -1  166.65   43.51
   2  -5  -1  174.56   32.50
   2  -5  -1  145.00   45.22
  -2   5  -1  172.14   48.11
   2  -5  -1  131.76   40.17
  -2   5  -1  152.13   38.21
  -2   5  -1  152.20   47.01
   2  -5  -1  125.35   43.21
   2  -5  -2    9.00    4.78
  -2   5  -2   34.33    8.63
  -2   5  -2   21.06    9.94
   2  -5  -2   33.19   11.58
   2  -5  -2    2.01    6.29
   2  -5  -2   22.93   12.70
  -2   5  -2    9.19    4.56
   2  -5  -2   19.28   11.86
  -2  -5   3  106.02   50.56
  -2   5  -3  350.48   82.13
   2  -5  -3  417.28   41.28
  -2  -5   3  115.60   53.30
   2  -5  -3  177.53   52.13
  -2   5  -3  228.06   46.52
   2  -5  -3  356.79   65.52
   2  -5  -3  257.16   66.44
   2  -5  -3  305.96   46.36
  -2  -5   4  123.00   54.58
  -2  -5   4  137.49   79.84
   2  -5  -4  210.35   29.36
  -2  -5   4   70.55   36.33
   2  -5  -4  230.99   65.84
   2  -5  -4  194.43   51.57
   2  -5  -4  239.03   41.58
   2  -5  -4   66.53   43.40
  -2  -5   5   84.86   43.08
  -2  -5   5   79.32   60.51
   2  -5  -5  102.45   22.51
  -2  -5   5   29.46   23.31
   2  -5  -5   95.98   50.94
   2  -5  -5   54.18   26.00
   2  -5  -5   47.91   15.52
  -2  -5   6   35.73   15.30
  -2  -5   6   18.96   22.93
  -2  -5   6   34.83   55.49
   2  -5  -6   54.16   31.32
   2  -5  -6   36.88   13.28
   2  -5  -6   25.36   14.80
  -2  -5   7   23.03   14.18
   2  -5  -7   21.66   20.54
  -2  -5   7    7.29    9.82
  -2  -5   7   40.27   50.62
   2  -5  -7    4.31    6.94
   2  -5  -7   21.68   14.76
  -2  -5   8   10.92    7.78
  -2  -5   8  -26.38   38.96
  -2  -5   8   34.68   48.45
  -2  -5   9   -6.40    9.81
  -2  -5   9   15.95   43.13
  -2  -5   9   87.17   76.67
  -2  -5  10   -8.09   12.88
  -2  -5  10   24.69   15.14
  -2  -5  10  -14.59   49.74
  -2  -5  11   46.04   39.47
   2   6 -10   24.66   16.61
   2   6 -10   40.91   60.25
   2   6  -9   22.69   11.92
   2   6  -9  -14.51   15.35
   2   6  -8  -34.09   54.54
   2   6  -8   49.06   17.92
   2   6  -8   70.20   58.65
   2   6  -7  116.99   25.97
   2   6  -7   82.38   46.95
   2   6  -7   70.39   45.23
  -2   6   6   96.59   30.98
  -2   6   6   72.34   28.95
   2   6  -6   71.02   43.25
   2   6  -6  134.30   50.92
   2   6  -6  154.08   66.93
   2   6  -6  114.32   25.04
   2   6  -5  133.63   65.07
  -2   6   5   97.22   33.21
  -2   6   5  148.03   47.53
  -2   6   5   57.02   29.23
   2   6  -5  137.72   26.06
   2   6  -5  129.52   61.86
   2   6  -5  129.49   57.72
  -2   6   4   75.39   28.13
  -2   6   4  108.78   33.92
  -2   6   4   50.25   43.67
   2   6  -4  140.86   63.17
   2   6  -4   69.52   49.01
   2   6  -4  126.71   56.84
   2   6  -3   22.94   24.97
  -2   6   3   22.33   17.23
  -2   6   3   -9.83   20.44
  -2   6   3   12.84    7.19
   2   6  -3   32.97   35.44
   2  -6   3   39.70   30.57
   2   6  -3  -50.89   48.37
  -2   6   3    4.10   22.55
   2  -6   3    9.20   24.68
   2  -6   2  171.03   58.21
  -2   6   2  241.52   42.06
  -2   6   2  234.07   52.58
   2  -6   2  171.31   48.02
  -2   6   2  242.64   67.99
   2  -6   2  201.81   62.06
  -2   6   2  215.59   55.89
   2  -6   1   33.60   28.99
  -2   6   1   11.46   25.63
  -2   6   1    2.98    7.81
   2  -6   1   19.63   19.22
  -2   6   1   52.67   25.77
   2  -6   1   20.41   27.75
  -2   6   1    6.52   12.22
  -2   6   0  309.60   59.17
  -2   6   0  317.55   42.44
   2  -6   0  210.50   55.84
   2  -6   0  315.67   86.27
  -2   6   0  293.77   68.63
   2  -6   0  209.32   58.88
  -2   6   0  256.34   67.10
   2  -6   0  322.41   47.38
   2  -6   0  243.85   62.27
   2  -6  -1   -2.23   12.17
   2  -6  -1   25.85   12.02
  -2   6  -1    9.39    9.45
   2  -6  -1   37.52   24.85
  -2   6  -1    3.71    6.46
  -2   6  -1   21.06   14.21
  -2   6  -1   39.58   33.66
   2  -6  -1   12.11   17.18
  -2   6  -1    9.98    8.79
   2  -6  -2  174.65   47.76
   2  -6  -2   69.12   31.99
  -2   6  -2  268.95   54.76
  -2   6  -2  302.04   67.66
  -2   6  -2  278.60   68.88
   2  -6  -2  320.74   49.92
   2  -6  -2  193.32   61.31
  -2  -6   3    8.52   10.10
  -2   6  -3   67.41   38.30
  -2  -6   3   20.22   28.65
   2  -6  -3    3.12   14.00
   2  -6  -3  -16.90   21.62
  -2   6  -3   17.75   18.48
   2  -6  -3    4.39   19.47
   2  -6  -3    8.76   15.61
  -2  -6   4   36.41   36.56
  -2  -6   4   53.22   52.55
  -2  -6   4   43.43   35.52
   2  -6  -4   -1.95   32.04
   2  -6  -4  101.74   38.14
   2  -6  -4   64.09   20.50
  -2  -6   5   86.20   52.47
  -2  -6   5   61.98   36.14
  -2  -6   5   55.24   42.69
   2  -6  -5  116.91   50.58
   2  -6  -5  177.45   53.55
   2  -6  -5  167.19   40.53
  -2  -6   6  130.26   30.72
  -2  -6   6   89.33   51.40
  -2  -6   6  154.58   83.81
   2  -6  -6  145.98   30.58
  -2  -6   6   24.58   18.35
   2  -6  -6  148.13   49.82
   2  -6  -6  113.36   34.32
  -2  -6   7    8.17   24.09
  -2  -6   7   71.63   37.71
  -2  -6   7   77.19   23.25
  -2  -6   8   55.12   56.80
  -2  -6   8  107.33   58.04
  -2  -6   8    0.83   12.58
  -2  -6   9  -33.25   35.28
  -2  -6   9   32.08   18.71
  -2  -6   9   27.43   22.95
  -2  -6  10  -19.86   13.93
  -2  -6  10  -25.57   45.21
  -2  -6  10   64.36   65.07
   2   7  -9   -9.66   10.13
   2   7  -9   59.44   61.01
   2   7  -9  -64.22   67.64
   2   7  -8   19.52   16.36
   2   7  -8  -60.85   79.48
   2   7  -8  -13.22   24.32
   2   7  -7    1.13    2.80
   2   7  -7   22.80   25.01
   2   7  -7   59.50   56.35
   2   7  -6   51.24   17.46
  -2   7   6  -32.30   37.39
   2   7  -6  113.13   62.29
   2   7  -6   18.41   35.91
   2   7  -6  117.75   58.71
  -2   7   5   20.52   18.61
  -2   7   5   22.35   19.68
  -2   7   5  -35.03   36.39
   2   7  -5  -49.72   51.50
   2   7  -5   47.19   37.62
   2   7  -5   10.70   33.10
   2  -7   4  103.73   50.45
   2   7  -4   39.55   33.88
  -2   7   4   91.84   41.20
  -2   7   4   50.04   43.21
   2   7  -4  180.24   90.66
   2  -7   4   59.73   37.88
   2   7  -4   70.48   41.82
  -2   7   4   63.67   26.20
   2  -7   3    2.95   19.32
  -2   7   3   16.81   13.13
  -2   7   3   26.98   18.64
  -2   7   3   76.12   48.90
   2   7  -3   -4.17   36.31
   2  -7   3   49.95   33.70
   2   7  -3   28.48   29.32
   2  -7   3  -18.97   28.74
  -2   7   3   51.92   35.24
   2   7  -3   -6.65   38.99
  -2   7   2   -9.65   12.24
  -2   7   2    6.47    9.67
   2  -7   2    3.35   15.11
   2  -7   2    5.56   13.07
  -2   7   2   29.78   30.74
  -2   7   2  -34.09   28.11
   2  -7   2  -27.80   14.69
  -2   7   1   -6.53   13.62
   2  -7   1    6.05   18.88
  -2   7   1   13.39    6.02
   2  -7   1    5.80   40.68
  -2   7   1   14.85   12.75
  -2   7   1  -17.41   19.10
   2  -7   1   -3.14   21.22
   2  -7   0  -28.61   27.29
  -2   7   0   58.25   38.78
  -2   7   0    2.11    7.37
   2  -7   0   -4.93   23.82
  -2   7   0   16.64   29.37
   2  -7   0   15.78   39.20
   2  -7  -1   41.25   31.35
   2  -7  -1   21.75   22.24
   2  -7  -1    3.06    8.49
  -2   7  -1   18.40   16.59
   2  -7  -1   -9.21   12.57
  -2   7  -1   74.35   46.55
  -2   7  -1  -36.52   23.64
   2  -7  -2   33.62   23.93
   2  -7  -2   -4.75    8.79
   2  -7  -2    2.17   15.67
  -2   7  -2   -9.69   17.91
  -2   7  -2   -2.72   14.29
  -2   7  -2   -8.53   17.78
   2  -7  -2   26.69   26.11
   2  -7  -3   51.29   37.11
   2  -7  -3   56.04   26.87
  -2   7  -3   46.24   19.53
   2  -7  -3   46.32   27.41
  -2   7  -3   68.59   43.37
  -2  -7   3   64.65   76.97
   2  -7  -3    3.71   10.31
  -2  -7   4    4.80   18.53
  -2   7  -4   54.92   31.19
  -2  -7   4   57.29   26.88
   2  -7  -4   87.03   55.25
  -2   7  -4   92.19   47.58
   2  -7  -4   88.05   30.52
   2  -7  -4   98.40   42.44
  -2  -7   5   33.29   30.21
  -2  -7   5   62.90   48.35
   2  -7  -5   55.75   43.80
  -2  -7   5  105.56   97.41
   2  -7  -5   23.37   27.14
   2  -7  -5    7.88   11.45
  -2  -7   6   45.99   18.73
  -2  -7   6   -7.65   30.66
  -2  -7   6  -31.45   82.68
  -2  -7   6  -23.68   44.23
   2  -7  -6   24.30   21.46
   2  -7  -6   49.92   21.51
  -2  -7   7   14.20   12.85
  -2  -7   7    2.72   10.75
  -2  -7   7   -2.93   62.25
  -2  -7   8   12.68   15.76
  -2  -7   8  -29.05   10.47
  -2  -7   8  -30.09   42.62
  -2  -7   9    8.71   13.33
  -2  -7   9   17.77   40.68
  -2  -7   9  -81.61  100.85
  -2  -7  10    5.75   10.17
  -2  -7  10   -7.05   18.06
   2   8  -9  -19.45   17.02
   2   8  -9    7.67   17.16
   2   8  -8    2.23    6.37
   2   8  -8   48.07   43.19
   2   8  -7   25.66   40.43
   2   8  -6  -64.01   75.62
   2   8  -6   16.58   21.40
  -2   8   5   21.85   16.50
  -2   8   5   26.48   37.69
   2   8  -5   26.09   26.62
   2   8  -5  -29.12   41.43
  -2   8   4   -6.35   13.75
  -2   8   4   68.20   39.18
  -2   8   4   -9.69   41.60
   2  -8   4   55.72   55.50
   2   8  -4   29.06   26.57
   2  -8   4   58.96   47.23
  -2   8   3   -2.27    7.27
   2  -8   3  -45.62   61.51
  -2   8   3  -18.54   27.96
  -2   8   3   58.18   28.80
   2   8  -3  -54.29   63.17
   2  -8   3  -34.14   28.86
   2  -8   3   35.90   33.80
  -2   8   3   11.94   25.36
   2  -8   3   27.54   38.81
  -2   8   2   75.60   30.83
   2  -8   2  141.90   57.75
   2  -8   2   76.53   47.97
  -2   8   2  130.43   51.08
  -2   8   2   59.44   32.27
  -2   8   2  122.69   51.52
   2  -8   2   74.72   53.73
  -2   8   1  154.37   66.83
   2  -8   1  164.79   58.82
  -2   8   1  143.27   48.43
   2  -8   1   80.82   42.18
  -2   8   1  297.15   86.62
   2  -8   1  103.34   56.55
   2  -8   0  -18.77   33.94
  -2   8   0  -29.47   40.04
  -2   8   0  -14.95   16.76
   2  -8   0  -40.62   37.84
  -2   8   0   30.07   46.72
   2  -8   0   40.89   51.26
   2  -8  -1  141.47   51.44
  -2   8  -1  150.48   47.01
   2  -8  -1  101.67   54.58
   2  -8  -1   44.52   30.94
  -2   8  -1  169.58   72.38
  -2   8  -1  159.25   61.55
   2  -8  -2   72.92   32.97
   2  -8  -2  108.41   30.94
   2  -8  -2   66.02   42.45
  -2   8  -2   93.16   35.12
  -2   8  -2  116.18   56.13
   2  -8  -2   65.52   38.12
  -2   8  -2   85.19   41.29
   2  -8  -3    0.04   26.21
   2  -8  -3  -22.84   42.98
  -2   8  -3   44.89   33.46
   2  -8  -3   -1.50   30.70
  -2   8  -3  -13.62   41.04
   2  -8  -3   -4.53   13.24
  -2  -8   4  -31.91   69.77
   2  -8  -4    4.49   16.30
  -2   8  -4    1.77   11.63
   2  -8  -4    5.04    9.58
  -2   8  -4   57.42   53.76
   2  -8  -4   11.03   14.62
  -2  -8   5  -20.90   59.65
  -2  -8   5    0.68   23.91
   2  -8  -5   11.55   22.92
   2  -8  -5   45.66   21.75
  -2  -8   6  -83.34  107.43
  -2  -8   6   -2.40   24.41
  -2  -8   7  275.70  172.29
  -2  -8   8   12.28  103.50
  -2  -8   9   16.19   18.57
  -2  -8   9  -28.61   21.11
   2   9  -6  161.96  119.91
   2   9  -6   89.89  102.68
   2   9  -5   47.27   66.67
   2   9  -5   -8.75   23.01
  -2   9   4    4.50   14.61
   2  -9   4   -5.71   37.57
  -2   9   4   23.11   33.34
   2  -9   4  -34.77   51.07
   2   9  -4   86.85   69.06
  -2   9   3   11.09   16.53
   2  -9   3   23.16   35.67
  -2   9   3   55.00   43.03
   2  -9   3  -49.70   38.54
  -2   9   3   -3.01   17.04
   2  -9   3   86.71   68.52
  -2   9   2   33.74   28.46
   2  -9   2   -4.93   15.39
   2  -9   2   28.26   35.33
  -2   9   2   94.90   59.22
  -2   9   2   60.29   47.77
   2  -9   2   29.64   40.17
  -2   9   1   78.34   42.41
   2  -9   1   76.92   39.92
  -2   9   1   29.70   17.62
   2  -9   1   32.31   16.76
   2  -9   1    6.78   30.27
  -2   9   1   -5.66   49.22
   2  -9   0   10.85    9.73
  -2   9   0   60.05   30.77
  -2   9   0  -60.71   57.91
   2  -9   0   10.82   36.05
  -2   9   0   42.88   45.42
   2  -9   0   18.29   21.67
   2  -9  -1  -54.03   50.55
  -2   9  -1   -5.10   13.99
  -2   9  -1    7.93   32.14
   2  -9  -1   42.90   54.19
  -2   9  -1   36.71   39.18
   2  -9  -1   92.96   58.55
   2  -9  -2   31.41   17.74
  -2   9  -2   30.61   20.90
   2  -9  -2   28.55   31.41
   2  -9  -2   -8.50   16.96
  -2   9  -2    2.15   19.36
   2  -9  -3   46.26   38.08
   2  -9  -3  -38.99   38.84
  -2   9  -3    6.63   14.70
   2  -9  -3  -14.04   46.52
  -2   9  -3   23.89   52.53
   2  -9  -4   86.75   53.84
  -2   9  -4  125.66   79.67
   2  -9  -4   60.30   29.61
  -2  -9   5   22.27   78.63
  -2  -9   6   32.78   74.14
  -2  -9   6  -59.58   72.28
  -2  -9   7  -40.32   75.90
   2  10  -6   80.70   58.16
   2 -10   4  -21.79   35.13
  -2  10   3  -31.65   31.58
   2 -10   3   87.88   79.23
   2 -10   3   43.79   45.84
  -2  10   3   36.37   43.40
  -2  10   3  -17.14   26.16
  -2  10   2  107.50   77.81
  -2  10   2   39.71   33.58
   2 -10   2  -14.36   60.19
   2 -10   2   19.18   13.14
  -2  10   2  100.60   63.40
   2 -10   2  -28.03   31.62
  -2  10   1   61.24   53.97
  -2  10   1   69.45   36.98
   2 -10   1   61.38  115.38
   2 -10   1   65.67  102.93
  -2  10   1   52.54   51.47
   2 -10   1   49.25   62.28
  -2  10   0   53.54   12.27
   2 -10   0   82.31   51.74
   2 -10   0  -24.24   44.76
  -2  10   0   33.30   44.33
   2 -10   0   25.89   35.37
  -2  10   0  -27.90   22.90
   2 -10  -1   39.45   29.90
  -2  10  -1   21.68   33.29
  -2  10  -1   82.54   43.96
   2 -10  -1   34.76   38.67
   2 -10  -1    8.44   18.42
   2 -10  -2   26.97   38.62
  -2  10  -2   70.24   46.00
   2 -10  -2    8.61   32.38
  -2  10  -2    5.09   35.66
   2 -10  -2   56.26   47.07
  -2  10  -2  -16.92   42.91
   2 -10  -3   21.82   26.55
  -2  10  -3  -24.74   33.06
   2 -10  -4   -0.53   25.29
  -2  10  -4   42.07   49.25
   2 -11   2   73.03   64.35
  -2  11   2   -9.18   19.71
   2 -11   2    4.34   32.08
  -2  11   1    4.28   14.48
   2 -11   1   73.26   55.16
   2 -11   1  133.25  107.13
   2 -11   1   28.24   56.69
  -2  11   1  -13.40   64.68
  -2  11   0  -22.56   34.60
   2 -11   0   18.40   16.09
   2 -11   0   33.44   41.68
   2 -11   0   57.64   56.78
  -2  11   0   88.97   69.47
  -2  11   0  -56.23   61.65
  -2  11  -1   -7.21   23.87
   2 -11  -1  -38.46   42.48
  -2  11  -1  -32.88   34.40
   2 -11  -1  -23.84   20.38
  -2  11  -2  -51.05   39.13
  -2  11  -2  -58.08   52.41
   3   0  -3  640.12   96.99
   3   0  -3  747.61  107.33
  -3   0   4  821.62  125.81
  -3   0   4 1181.34   70.33
  -3   0   4 1192.48   80.59
   3   0  -4 1888.90  101.33
   3   0  -4 1268.00  119.56
   3   0  -4 1413.02   97.61
   3   0  -4 1387.81  146.48
   3   0  -4 1269.29   79.78
   3   0  -4 1638.83   76.87
   3   0  -5  117.14   23.90
  -3   0   5   60.06   38.84
  -3   0   5  107.68   26.01
   3   0  -5  156.82   27.83
   3   0  -5  148.99   49.07
  -3   0   5   65.11   36.43
   3   0  -5   99.15   31.86
   3   0  -5  132.92   21.48
   3   0  -6   -1.51    7.12
  -3   0   6   -0.66    9.09
  -3   0   6   -3.19    5.08
   3   0  -6    8.70    6.17
  -3   0   6   -7.97   17.05
   3   0  -6   23.70   25.94
   3   0  -6    2.04    1.57
   3   0  -7   56.81   16.13
  -3   0   7   47.71   15.46
  -3   0   7   41.25   34.11
  -3   0   7   39.51   16.85
  -3   0   7   27.23   12.15
   3   0  -7   50.22   18.27
   3   0  -7   61.99   19.27
   3   0  -7   67.88   46.22
  -3   0   8   69.58   20.37
   3   0  -8   95.59   25.60
   3   0  -8  110.54   22.90
  -3   0   8   79.43   49.66
  -3   0   8   83.15   27.45
  -3   0   8   84.54   26.12
   3   0  -8   92.33   25.67
   3   0  -8   84.01   47.88
  -3   0   9   18.66   18.57
  -3   0   9   14.67    9.95
  -3   0   9    1.18    6.67
   3   0  -9   29.76   16.29
   3   0  -9   65.10   43.68
   3   0  -9   10.57    6.95
  -3   0  10    9.35    7.65
  -3   0  10    5.65   23.62
  -3   0  10    7.85    8.73
   3   0 -10   24.24   17.51
   3   0 -10   22.86   11.64
  -3   0  11  -15.83   43.71
   3   0 -11   65.06   27.49
   3   0 -11   32.20   13.31
   3   1 -11   -6.42   12.44
   3   1 -11   25.84   16.80
  -3   1  10    0.28    5.83
   3   1 -10    7.28   12.45
   3   1 -10    6.72    9.54
  -3   1   9   -9.74    7.54
  -3   1   9    9.38   14.98
  -3   1   9    0.20    4.92
   3   1  -9    5.03    7.62
   3   1  -9    4.59    2.34
  -3   1   8   77.65   21.21
  -3   1   8  118.14   53.50
  -3   1   8  139.17   41.03
  -3   1   8   98.69   27.65
   3   1  -8  133.33   31.89
   3   1  -8  140.99   26.85
   3   1  -8  111.78   55.08
  -3   1   7   16.72    7.44
  -3   1   7   62.47   41.14
  -3   1   7   39.64   18.14
  -3   1   7   34.60   14.82
   3   1  -7   24.27   27.17
   3   1  -7   34.02   14.86
   3   1  -7   26.20    9.49
   3   1  -6  106.76   23.94
  -3   1   6   74.21   16.74
  -3   1   6   74.24   22.13
  -3   1   6   74.94   20.30
   3   1  -6  113.97   24.61
   3   1  -6   97.34   40.73
   3   1  -6   63.42   24.75
  -3   1   6   81.42   44.25
   3   1  -6  100.26   20.42
   3   1  -5   16.77   11.00
   3   1  -5   18.49    6.80
  -3   1   5   24.30   24.40
  -3   1   5   21.54   12.53
  -3   1   5   13.41    8.47
   3   1  -5   31.11   12.83
   3   1  -5   -1.01   15.15
   3   1  -5   24.44   22.41
  -3   1   4  200.25   61.98
  -3   1   4  295.94   39.66
   3   1  -4  444.68   48.73
   3   1  -4  408.05   81.02
  -3   1   4  302.62   41.49
   3   1  -4  301.44   75.19
   3   1  -4  430.85   40.34
  -3   1   3  198.02   33.14
   3   1  -3  152.44   52.93
  -3   1   3  157.03   29.92
   3   1  -3  190.16   58.57
   3  -1  -3  215.42   42.52
   3  -1  -3  236.21   34.69
   3  -1  -3  161.40   38.38
   3  -1  -3  178.03   46.79
   3  -1  -3  217.88   33.26
  -3  -1   4  212.59   65.11
  -3  -1   4  268.78   36.77
   3  -1  -4  374.64   41.50
   3  -1  -4  318.27   46.34
   3  -1  -4  342.97   56.69
   3  -1  -4  335.98   66.93
   3  -1  -4  327.45   41.66
   3  -1  -4  429.85   38.26
   3  -1  -5   24.53    9.49
  -3  -1   5  -12.11   18.81
  -3  -1   5   56.55   42.25
  -3  -1   5   12.88    8.76
   3  -1  -5   21.84   10.56
   3  -1  -5    9.45    4.39
   3  -1  -5   11.21   12.73
   3  -1  -5   28.73   24.05
   3  -1  -5   25.57    9.02
  -3  -1   6   32.97   29.02
  -3  -1   6   65.05   42.47
  -3  -1   6   97.36   24.91
  -3  -1   6   94.21   24.69
   3  -1  -6  106.87   24.49
   3  -1  -6   94.05   37.75
   3  -1  -6  100.23   19.01
   3  -1  -6  110.23   26.09
  -3  -1   7   40.05   14.86
   3  -1  -7   56.31   36.60
  -3  -1   7   23.62   13.31
  -3  -1   7   44.24   19.32
   3  -1  -7   31.50   13.78
   3  -1  -7   51.77   14.87
   3  -1  -7   26.63   13.91
  -3  -1   8  123.23   26.75
  -3  -1   8   92.19   48.83
  -3  -1   8  140.59   33.49
   3  -1  -8  125.73   27.61
   3  -1  -8   79.54   39.58
   3  -1  -8  153.33   26.38
   3  -1  -8   95.75   25.75
  -3  -1   9    4.04    3.17
  -3  -1   9    0.70   13.93
  -3  -1   9   10.75   13.78
   3  -1  -9    0.57    3.96
   3  -1  -9   -3.14    6.66
   3  -1  -9   12.61    9.85
  -3  -1  10    6.04    7.53
  -3  -1  10   35.59   51.56
  -3  -1  10   37.78   17.71
   3  -1 -10  -10.49   13.04
   3  -1 -10   -5.63    7.64
  -3  -1  11   77.68   48.74
   3   2 -11  -17.56   13.55
   3   2 -11   -2.80    5.92
  -3   2  10   -4.29   10.32
   3   2 -10    3.18    8.80
   3   2 -10   -3.58   21.99
   3   2 -10   -4.22    3.19
  -3   2   9   26.99   26.86
  -3   2   9   16.38   13.80
   3   2  -9    4.73    6.84
   3   2  -9   10.36   17.73
   3   2  -9   26.11   13.39
  -3   2   8   13.48    8.66
  -3   2   8   49.92   37.84
  -3   2   8   28.19   19.72
  -3   2   8   19.34   13.00
   3   2  -8   36.28   17.40
   3   2  -8   23.33   37.92
   3   2  -8   10.66    6.07
  -3   2   7   64.04   16.61
  -3   2   7   58.76   42.97
  -3   2   7   93.44   30.67
  -3   2   7   88.54   24.69
   3   2  -7  117.74   24.80
   3   2  -7  134.10   28.17
   3   2  -7   60.89   36.56
   3   2  -7   70.08   46.78
  -3   2   6  158.71   23.72
  -3   2   6  188.27   57.25
  -3   2   6  203.12   41.31
  -3   2   6  176.22   32.72
   3   2  -6  228.42   34.96
   3   2  -6  250.18   74.83
   3   2  -6  206.99   68.34
   3   2  -6  206.18   30.54
  -3   2   5   19.90    7.95
  -3   2   5   30.48   27.95
  -3   2   5   35.74   16.94
  -3   2   5   19.02   10.27
  -3   2   5   35.83   19.09
   3   2  -5   51.61   18.55
   3   2  -5   17.42   23.00
  -3   2   5   16.47    5.19
   3   2  -5   -4.31   14.63
   3   2  -5   31.84   12.10
   3   2  -4   16.53    8.46
   3   2  -4   44.61   28.67
  -3   2   4   19.79   22.59
  -3   2   4    8.86    7.47
  -3   2   4   33.69   15.16
   3   2  -4   21.10   11.16
   3   2  -4   16.20    9.75
  -3   2   4   29.26   16.13
   3   2  -4    5.57    6.92
  -3   2   3  878.86   77.19
  -3   2   3  877.01   72.33
  -3   2   3 1042.04   97.83
   3   2  -3  956.15  144.34
  -3   2   2  325.65   41.45
  -3   2   2  347.89   47.09
   3  -2  -2  411.94   63.75
   3  -2  -2  351.20   60.61
   3  -2  -2  419.26   47.91
   3  -2  -3  868.24   65.26
   3  -2  -3  871.31   68.74
   3  -2  -3  988.39  103.17
   3  -2  -3  826.71   81.37
   3  -2  -3  917.03   96.99
   3  -2  -4   20.80    8.70
   3  -2  -4    2.12    5.30
  -3  -2   4   -2.80   10.33
   3  -2  -4   11.54   11.00
  -3  -2   4    0.87   33.69
  -3  -2   4   16.34    9.62
   3  -2  -4   22.16   14.23
   3  -2  -4   18.44    9.54
   3  -2  -4   14.73   15.73
  -3  -2   5   32.15   34.59
  -3  -2   5   36.78   48.05
   3  -2  -5   27.21   11.76
   3  -2  -5   17.34    3.84
  -3  -2   5   14.82    9.16
   3  -2  -5   33.85    9.76
   3  -2  -5    1.83    4.62
   3  -2  -5   20.99   17.25
   3  -2  -5   45.00   21.73
  -3  -2   6   74.94   44.41
  -3  -2   6  174.47   82.55
  -3  -2   6  179.81   33.92
   3  -2  -6  237.89   38.10
   3  -2  -6  168.43   49.69
   3  -2  -6  205.53   38.88
   3  -2  -6  249.23   30.22
  -3  -2   7   79.78   22.30
  -3  -2   7   31.45   17.37
  -3  -2   7   41.17   28.73
  -3  -2   7   70.76   22.45
   3  -2  -7   83.26   22.20
   3  -2  -7   62.61   23.88
   3  -2  -7  115.61   21.35
   3  -2  -7   61.42   20.64
  -3  -2   8   67.51   55.15
  -3  -2   8   45.15   20.45
   3  -2  -8   24.85   12.41
   3  -2  -8   28.23   11.97
   3  -2  -8   46.16   21.18
  -3  -2   9   25.87   15.46
  -3  -2   9   -0.74   33.76
  -3  -2   9   38.49   17.99
   3  -2  -9   26.34   15.28
   3  -2  -9   38.06   13.83
   3  -2  -9   14.32   11.80
  -3  -2  10   10.38   12.25
  -3  -2  10   -0.46   13.59
   3  -2 -10   26.50   17.68
   3  -2 -10   -9.33    7.36
  -3  -2  11    6.80    4.43
  -3  -2  11    5.49   47.36
   3   3 -11   -7.58    7.53
   3   3 -11   18.22   13.80
   3   3 -10   11.20   15.72
   3   3 -10    4.92    7.17
  -3   3   9  -19.44   20.40
  -3   3   9    4.23    7.40
   3   3  -9    4.20    8.66
   3   3  -9  -35.69   28.78
   3   3  -9   -3.61   27.30
   3   3  -9   -4.25    6.57
  -3   3   8    0.33    9.42
  -3   3   8    8.98   10.70
   3   3  -8   10.45    7.51
   3   3  -8   21.88   32.95
   3   3  -8   60.39   34.25
   3   3  -8   14.70    7.67
  -3   3   7   36.77   19.82
   3   3  -7  -13.87   34.79
  -3   3   7   -4.70   10.51
   3   3  -7  -10.67   15.10
   3   3  -7   22.04   18.10
   3   3  -7    8.05    4.05
  -3   3   6   66.03   23.53
  -3   3   6   50.25   21.64
  -3   3   6   62.01   19.82
   3   3  -6  101.54   25.92
   3   3  -6   36.13   34.94
   3   3  -6   88.32   54.02
  -3   3   6   47.71   24.60
   3   3  -6   72.01   18.18
   3   3  -5   48.33   14.82
  -3   3   5   69.93   29.67
  -3   3   5   51.68   20.57
  -3   3   5   44.50   14.72
  -3   3   5   59.87   27.30
   3   3  -5   37.69   13.40
   3   3  -5   59.97   42.13
   3   3  -5   41.74   28.59
   3   3  -4    3.89    3.83
  -3   3   4  -11.78    5.24
  -3   3   4    1.36    6.81
  -3   3   4   38.70   24.96
  -3   3   4   26.00   14.89
   3   3  -4   43.77   32.59
   3   3  -4   38.44   29.93
   3   3  -4  -19.51   31.92
  -3   3   3   88.56   24.39
  -3   3   3  100.02   28.18
  -3   3   3  108.74   36.25
  -3   3   2   21.41   12.73
  -3   3   2    8.92   10.25
  -3   3   2   27.54   16.21
  -3   3   1  204.40   41.16
   3  -3  -1  271.04   57.98
   3  -3  -1  277.14   53.13
   3  -3  -1  275.66   40.17
   3  -3  -2   31.30   19.88
   3  -3  -2   28.74   13.24
   3  -3  -2   32.15   28.54
   3  -3  -2   42.05   18.41
   3  -3  -2   37.40   19.52
   3  -3  -3   89.66   35.59
   3  -3  -3   64.52   19.22
   3  -3  -3   67.51   25.03
   3  -3  -3  143.14   28.50
   3  -3  -3  113.67   29.51
   3  -3  -3   62.23   20.14
  -3  -3   4   14.76   19.89
  -3  -3   4  -24.32   31.65
   3  -3  -4  -11.13    9.69
   3  -3  -4    9.05    3.03
   3  -3  -4    3.75    9.04
   3  -3  -4  -19.34   22.95
   3  -3  -4   17.96   13.50
  -3  -3   5   48.79   47.80
  -3  -3   5   42.77   46.98
   3  -3  -5   32.23   17.29
   3  -3  -5   67.74   19.37
   3  -3  -5   30.90   19.73
   3  -3  -5   37.59   16.01
  -3  -3   6   49.85   36.13
   3  -3  -6   47.80   22.87
  -3  -3   6   92.75   63.47
  -3  -3   6   75.97   23.01
   3  -3  -6   89.83   24.11
   3  -3  -6   58.99   33.80
   3  -3  -6   64.19   21.33
  -3  -3   7    4.99    3.09
  -3  -3   7  -21.39   35.12
  -3  -3   7  -10.19   33.67
  -3  -3   7    0.54    2.69
   3  -3  -7    7.38    9.62
   3  -3  -7    3.91    6.65
  -3  -3   8    0.85    5.51
  -3  -3   8   25.24   32.68
  -3  -3   8   22.56   43.26
  -3  -3   8    4.28    8.45
   3  -3  -8    6.76    7.91
   3  -3  -8    1.03    5.62
  -3  -3   9   -4.74    5.56
  -3  -3   9  -18.92   17.34
  -3  -3   9   -9.61   13.58
   3  -3  -9   25.98   15.47
   3  -3  -9   -7.77   10.55
  -3  -3  10   -3.67    7.57
  -3  -3  10   10.36   43.43
  -3  -3  10  -31.60   19.09
   3  -3 -10    0.94    8.41
  -3  -3  11   15.91    6.39
  -3  -3  11    8.55   46.90
   3   4 -11   67.53   68.90
   3   4 -11   11.60    8.80
   3   4 -10   -9.40   24.98
   3   4 -10  -17.09   17.44
  -3   4   9   23.53    6.75
   3   4  -9   63.70   49.72
   3   4  -9   90.11   62.98
   3   4  -9   23.54   10.05
  -3   4   8   17.32   15.30
  -3   4   8    5.30    9.97
   3   4  -8   75.08   45.64
   3   4  -8   88.95   59.06
   3   4  -8   34.46   16.11
  -3   4   7   12.06    7.91
  -3   4   7    3.98    9.12
   3   4  -7    1.37    7.47
   3   4  -7  -29.29   38.37
   3   4  -7   13.21   14.77
   3   4  -7   14.46   10.35
  -3   4   6   39.36   20.81
  -3   4   6   36.09   17.01
  -3   4   6   43.73   15.70
   3   4  -6   66.14   20.29
   3   4  -6   20.25   23.57
  -3   4   6    2.70   11.72
   3   4  -6   38.33   36.61
   3   4  -6   78.87   19.39
  -3   4   5  109.32   31.72
  -3   4   5  101.55   23.03
  -3   4   5  137.19   40.34
   3   4  -5    3.64   43.06
   3   4  -5  106.46   62.09
  -3   4   5   61.37   34.90
   3   4  -5  149.78   29.00
  -3   4   4   59.71   28.92
  -3   4   4   53.62   20.48
  -3   4   4   46.60   15.46
  -3   4   4   34.19   14.28
   3   4  -4    1.46   21.98
   3   4  -4   55.36   39.34
   3   4  -4   59.19   44.26
  -3   4   3  315.21   48.18
  -3   4   3  284.58   63.42
  -3   4   3  304.69   54.38
  -3   4   3  326.95   58.73
  -3   4   2   70.26   36.87
  -3   4   2   47.55   19.42
  -3   4   2   69.54   26.82
  -3   4   2   65.52   25.30
  -3   4   1   23.09   14.34
  -3   4   1    8.23    5.95
  -3   4   1   17.18   12.91
   3  -4   0  166.94   48.26
  -3   4   0  188.58   42.33
   3  -4   0  162.67   43.81
   3  -4  -1   17.57   16.97
   3  -4  -1    0.90    2.95
   3  -4  -1   16.13   14.98
   3  -4  -1  -14.97   10.84
   3  -4  -2   52.26   29.25
   3  -4  -2   88.56   25.04
   3  -4  -2   80.46   28.81
   3  -4  -2   51.53   23.51
   3  -4  -3  306.18   71.07
   3  -4  -3  270.10   53.77
   3  -4  -3  484.13   54.83
   3  -4  -3  235.34   49.20
   3  -4  -3  366.02   50.69
  -3  -4   4   26.03   44.30
   3  -4  -4   59.81   28.98
   3  -4  -4   69.64   17.32
   3  -4  -4   31.35    9.80
   3  -4  -4   32.28   21.94
  -3  -4   5   26.06   14.69
   3  -4  -5   67.09   27.14
  -3  -4   5  101.29   73.48
   3  -4  -5  167.65   31.30
   3  -4  -5  154.92   56.06
   3  -4  -5  119.62   32.39
   3  -4  -6   25.61   21.88
  -3  -4   6   80.86   37.60
  -3  -4   6   52.61   57.07
  -3  -4   6   26.20   13.18
   3  -4  -6   61.65   19.21
   3  -4  -6  113.71   59.08
   3  -4  -6   37.84   21.44
  -3  -4   7   16.53   12.02
  -3  -4   7    9.88   22.99
  -3  -4   7   23.75   14.43
   3  -4  -7    6.63    6.37
   3  -4  -7   -6.43   10.61
  -3  -4   8   18.04    8.97
  -3  -4   8   98.56   65.42
  -3  -4   8   35.10   61.72
   3  -4  -8   16.84   12.80
   3  -4  -8   31.43   14.97
  -3  -4   9   18.11   12.89
  -3  -4   9  -10.70   24.35
  -3  -4   9  -27.17   69.74
   3  -4  -9   15.14   10.38
   3  -4  -9   -0.90   19.73
  -3  -4  10   -1.93   13.16
  -3  -4  10   31.98   45.41
  -3  -4  11   13.46   11.81
  -3  -4  11   46.54   57.28
   3   5 -10    0.56    3.01
   3   5 -10   16.23   22.66
   3   5 -10  -12.00   65.82
   3   5  -9  -39.80   61.45
   3   5  -9   43.13   41.68
   3   5  -9   11.24    8.43
  -3   5   8   27.70   23.09
   3   5  -8  -14.49   46.79
   3   5  -8   70.62   53.46
   3   5  -8   31.37   15.34
  -3   5   7  -17.89   29.12
  -3   5   7   24.77   19.63
  -3   5   7   22.35   14.91
   3   5  -7   49.81   45.46
  -3   5   7   12.28   29.99
   3   5  -7   33.89   13.93
   3   5  -7   64.40   43.92
  -3   5   6   10.90    8.45
  -3   5   6  -14.37   18.87
  -3   5   6   -6.59    8.38
   3   5  -6  -26.19   45.89
  -3   5   6   13.16   22.14
   3   5  -6    7.72    8.83
   3   5  -6  -21.82   34.05
  -3   5   5   36.18   20.13
  -3   5   5   39.69   15.40
  -3   5   5   24.69   16.57
   3   5  -5   44.57   42.10
   3   5  -5   50.40   51.39
  -3   5   5   80.45   35.07
  -3   5   4  -34.14   39.81
   3   5  -4   39.88   38.80
  -3   5   4   75.45   25.92
  -3   5   4   34.80   12.41
  -3   5   4   19.10   13.33
   3   5  -4   55.21   36.90
   3   5  -4   72.68   54.86
  -3   5   3   34.75   13.71
  -3   5   3  113.10   31.70
  -3   5   3   66.02   16.06
  -3   5   3   74.43   28.27
  -3   5   3   79.53   31.32
  -3   5   2  371.01   53.58
  -3   5   2  294.31   56.72
  -3   5   2  476.59   86.36
  -3   5   2  429.68   76.19
  -3   5   1  172.08   52.86
  -3   5   1  136.21   32.01
  -3   5   1  166.79   43.22
  -3   5   1  141.21   51.90
  -3   5   0   67.93   33.42
   3  -5   0   77.38   39.43
  -3   5   0   45.07   17.31
   3  -5   0   63.50   32.38
  -3   5   0   31.89   17.59
   3  -5   0   31.95   18.27
  -3   5   0   73.30   35.51
   3  -5  -1  201.03   61.75
   3  -5  -1  153.42   35.28
   3  -5  -1  197.25   47.88
   3  -5  -1  136.50   44.53
   3  -5  -2  357.31   68.28
   3  -5  -2  305.77   63.96
   3  -5  -2  485.61   96.81
   3  -5  -2  474.35   60.62
   3  -5  -3   92.97   27.98
   3  -5  -3   54.77   12.36
   3  -5  -3  139.60   30.73
   3  -5  -3   21.82    9.06
   3  -5  -3   44.75   31.61
   3  -5  -4   21.09    6.62
   3  -5  -4   53.52    8.31
   3  -5  -4   17.51   19.36
   3  -5  -4   39.75   12.43
  -3  -5   5   32.42   44.01
   3  -5  -5   45.78   28.35
  -3  -5   5   -8.59   62.55
   3  -5  -5   54.82   18.31
   3  -5  -5    2.98   29.87
   3  -5  -5   45.13   19.98
   3  -5  -6   -6.37    7.65
  -3  -5   6  -31.79   44.68
  -3  -5   6  -16.36   51.78
   3  -5  -6    9.93   11.87
   3  -5  -6   63.37   50.83
   3  -5  -6  -16.74   14.27
   3  -5  -7   40.74   19.08
  -3  -5   7   24.89   13.35
  -3  -5   7   38.23   43.83
  -3  -5   7   43.01   59.35
   3  -5  -7   55.59   22.76
   3  -5  -7   28.92   19.01
  -3  -5   8   -5.25    4.75
  -3  -5   8    4.78   22.68
  -3  -5   8    9.11   41.80
   3  -5  -8    8.10   12.37
   3  -5  -8    9.94    9.89
  -3  -5   9    5.60    6.30
  -3  -5   9  -22.57   26.38
  -3  -5   9  -51.24   79.23
   3  -5  -9    2.11    8.51
  -3  -5  10  -13.58   17.50
  -3  -5  10   17.47   41.08
  -3  -5  10  -71.91   95.64
   3   6 -10   21.56   30.86
   3   6 -10   98.65   82.17
   3   6  -9  -13.89   42.88
   3   6  -9   58.21   53.91
   3   6  -9    4.06    3.06
   3   6  -8    9.59    5.54
  -3   6   8   -4.50   19.91
   3   6  -8   -2.63   48.42
   3   6  -8   14.59   23.89
   3   6  -7  133.96   77.60
  -3   6   7  125.25   52.98
  -3   6   7   90.90   33.64
   3   6  -7  196.26   89.67
   3   6  -7  146.86   31.88
  -3   6   7  131.62   56.10
  -3   6   6   59.65   29.14
  -3   6   6   65.23   34.54
   3   6  -6   59.27   57.32
  -3   6   6   79.03   44.60
   3   6  -6   74.30   59.92
  -3   6   5   83.78   31.22
  -3   6   5   96.92   36.89
   3   6  -5   34.49   52.91
   3   6  -5  129.64   66.84
  -3   6   5   73.08   36.79
   3   6  -5   88.77   56.60
  -3   6   4  195.38   42.73
  -3   6   4  175.52   48.50
  -3   6   4  172.79   63.23
  -3   6   3   66.96   35.44
  -3   6   3  118.03   33.83
  -3   6   3  110.98   38.56
  -3   6   2  348.84   53.91
  -3   6   2  404.62   90.29
  -3   6   2  338.76   64.49
  -3   6   2  402.46   80.07
   3  -6   1  218.13   66.88
  -3   6   1  286.02   70.27
  -3   6   1  292.76   47.66
  -3   6   1  227.99   54.85
   3  -6   1  210.25   58.87
   3  -6   1  206.70   61.69
  -3   6   1  292.16   71.29
   3  -6   0   -5.57    8.89
  -3   6   0   52.38   36.95
  -3   6   0    4.48   11.67
   3  -6   0  -28.10   22.31
  -3   6   0   -5.04   14.49
   3  -6   0  -32.82   30.52
  -3   6   0   27.82   23.72
  -3   6  -1  245.41   41.05
   3  -6  -1  267.75   61.66
  -3   6  -1  187.78   48.83
   3  -6  -1  155.65   50.38
  -3   6  -1  239.53   69.24
   3  -6  -1  262.62   48.30
   3  -6  -1  269.84   80.43
   3  -6  -2  365.97   76.14
   3  -6  -2  259.76   65.54
   3  -6  -2  344.35   55.85
   3  -6  -2  314.44   82.85
   3  -6  -3  146.92   35.86
   3  -6  -3   89.41   31.29
   3  -6  -3   65.28   41.85
   3  -6  -4  198.81   55.09
   3  -6  -4  251.90   82.98
   3  -6  -4  238.02   48.10
   3  -6  -5   93.50   35.91
  -3  -6   5   20.44   16.89
   3  -6  -5   74.18   44.37
   3  -6  -5   94.69   31.89
   3  -6  -6   24.08    9.12
  -3  -6   6    9.79   16.23
  -3  -6   6    0.93   23.67
   3  -6  -6    2.38   38.35
   3  -6  -6   53.39   21.86
   3  -6  -7   77.86   41.45
  -3  -6   7  135.48   34.17
  -3  -6   7   44.93   34.54
  -3  -6   7  116.76   82.16
   3  -6  -7  144.64   34.03
   3  -6  -7  125.56   37.80
  -3  -6   8   13.29   15.49
  -3  -6   8    7.46   24.56
   3  -6  -8    6.83   13.83
   3  -6  -8   -9.28   18.91
  -3  -6   9   -1.92    7.31
  -3  -6   9   28.60   38.72
  -3  -6   9    8.69   49.65
  -3  -6  10   16.75   18.82
  -3  -6  10    4.16   37.02
  -3  -6  10  -14.64   60.98
   3   7  -9   16.43   15.71
   3   7  -9    3.81   69.43
   3   7  -9  -59.99   71.35
   3   7  -8   24.29   16.22
   3   7  -8   -7.78   26.75
   3   7  -8  -33.09   34.45
  -3   7   7   48.88   33.13
   3   7  -7  -90.82   60.27
  -3   7   7  -48.48   47.84
   3   7  -7  -43.67   60.93
  -3   7   6    4.19   15.00
  -3   7   6  -17.46   13.77
   3   7  -6  -22.94   54.56
  -3   7   6    6.22   15.51
   3   7  -6   38.22   49.03
   3   7  -5   69.51   49.54
  -3   7   5  -27.93   19.88
  -3   7   5   -9.10   22.96
   3   7  -5  -13.64   16.53
   3   7  -5   15.13   37.98
  -3   7   5   12.49   12.13
  -3   7   4  -13.68   22.37
  -3   7   4   22.70   30.24
  -3   7   4  -20.14   15.93
  -3   7   3   33.42   33.23
  -3   7   3    8.57    7.70
  -3   7   3   42.46   30.29
   3  -7   2    6.76   11.82
  -3   7   2   87.52   30.16
  -3   7   2   92.34   41.59
  -3   7   2   60.34   29.78
   3  -7   2   24.10   15.72
  -3   7   2   44.97   25.74
   3  -7   1   -8.39   35.80
  -3   7   1    1.12    5.23
  -3   7   1  -19.55   20.94
   3  -7   1   26.17   20.74
   3  -7   1   -8.17   24.30
  -3   7   1  -14.39   27.72
  -3   7   1  -39.33   28.47
  -3   7   0   38.68   16.85
   3  -7   0   36.61   21.38
  -3   7   0   65.82   32.46
   3  -7   0   95.86   43.16
  -3   7   0   45.89   32.24
  -3   7   0   69.49   40.48
   3  -7   0   24.14   25.04
   3  -7  -1   42.94   26.54
  -3   7  -1  -24.73   39.16
   3  -7  -1  -24.59   21.65
  -3   7  -1  -15.87   11.81
   3  -7  -1    0.93   17.65
  -3   7  -1   12.44   28.33
   3  -7  -1   28.98   19.84
   3  -7  -2  101.34   33.55
   3  -7  -2   90.97   42.00
   3  -7  -2   59.45   36.31
  -3   7  -2   72.77   37.31
   3  -7  -2   47.95   36.58
   3  -7  -3   39.22   18.21
   3  -7  -3   76.81   44.11
   3  -7  -3   44.03   39.05
   3  -7  -4  -27.37   30.39
   3  -7  -4   20.40   22.85
   3  -7  -5  -16.43   23.03
   3  -7  -5   19.04   49.10
   3  -7  -5   20.49   10.63
   3  -7  -6   15.31    8.68
  -3  -7   6   26.03   82.26
   3  -7  -6   -4.26   28.06
   3  -7  -6   18.23    6.76
   3  -7  -7  -53.45   44.56
  -3  -7   7   37.04   22.64
  -3  -7   7  -33.00   14.21
  -3  -7   7  -46.26   87.00
   3  -7  -7  -24.05   18.87
  -3  -7   8   16.90   17.96
  -3  -7   8  -61.22   69.15
  -3  -7   8  -20.85   63.38
  -3  -7   9    0.20    4.33
  -3  -7   9  -78.72   82.22
  -3  -7   9  -27.03   53.60
   3   8  -8    1.68   38.68
   3   8  -7   72.16   47.05
  -3   8   7  -85.23   65.42
   3   8  -7   91.34   84.02
  -3   8   6    4.35    6.32
  -3   8   6   13.46   18.70
   3   8  -6   39.33   49.00
  -3   8   6  -30.71   45.02
   3   8  -6   71.42   54.73
  -3   8   5    5.87    8.47
  -3   8   5  -10.38   30.13
  -3   8   4  -22.04   37.45
  -3   8   4   21.52    5.91
  -3   8   4   -7.92   16.77
  -3   8   3   90.88   56.59
  -3   8   3  161.24   44.40
  -3   8   3  102.54   43.82
  -3   8   2   50.69   23.10
  -3   8   2   41.02   21.52
  -3   8   2   42.65   37.23
   3  -8   2   30.49   19.34
  -3   8   2   50.11   34.03
   3  -8   2  -10.35   32.84
  -3   8   1   41.26   38.76
   3  -8   1  -10.55   21.47
   3  -8   1  -24.62   27.19
  -3   8   1    6.90   13.86
  -3   8   1   27.06   49.13
   3  -8   1   55.41   33.26
   3  -8   0   95.31   45.62
  -3   8   0  128.85   46.82
   3  -8   0   45.81   47.00
  -3   8   0   95.25   54.42
  -3   8   0    7.63   25.34
   3  -8   0  174.30   76.10
  -3   8  -1    8.40   11.98
   3  -8  -1   20.46   23.26
  -3   8  -1   61.58   33.27
   3  -8  -1    8.16   15.01
  -3   8  -1   -8.24   23.76
   3  -8  -1   24.02   33.41
   3  -8  -2   14.51   12.88
   3  -8  -2   95.99   48.42
   3  -8  -2  -13.49   25.01
  -3   8  -2   53.57   35.70
  -3   8  -2   22.88   31.72
   3  -8  -2   -2.50   18.01
   3  -8  -3  137.72   44.44
   3  -8  -3   55.18   43.05
   3  -8  -3  170.44   77.44
   3  -8  -4   43.61   22.66
   3  -8  -4   -8.84   27.05
   3  -8  -4   27.13   41.96
   3  -8  -5   13.03   21.69
   3  -8  -5  -14.37   26.59
   3  -8  -5   26.48   28.25
  -3  -8   6   19.61    6.99
   3  -8  -6   11.73   22.13
   3  -8  -6   23.39   23.73
  -3  -8   7   -6.93   19.75
   3  -8  -7   18.51   25.40
  -3  -8   7  -44.62   82.48
   3  -8  -7   -1.54   20.25
  -3  -8   8  -25.12   23.43
  -3  -8   8  -16.14  105.46
  -3   9   6   34.26   55.77
  -3   9   5    0.14   24.53
  -3   9   5    6.98    8.39
  -3   9   5   16.56   26.62
  -3   9   4   31.64   27.48
  -3   9   4   15.61   20.83
  -3   9   3   55.91   31.95
  -3   9   3   40.86   34.47
  -3   9   3  -27.76   24.10
  -3   9   2    3.40   32.32
  -3   9   2   30.48   27.44
   3  -9   2   12.91   17.04
  -3   9   2  -10.84   15.78
   3  -9   2   28.24   47.47
  -3   9   1   12.09   29.51
  -3   9   1    1.95   24.85
   3  -9   1   26.65   52.27
   3  -9   1  -15.83   20.85
  -3   9   1   -8.74   20.69
   3  -9   1    5.34   29.54
  -3   9   0   39.66   27.50
   3  -9   0    2.48   19.29
   3  -9   0   67.67   59.71
  -3   9   0   71.34   58.62
  -3   9   0   31.47   19.74
   3  -9   0  152.57   76.48
   3  -9  -1  -12.04   40.12
  -3   9  -1   34.68   22.34
   3  -9  -1   45.78   47.31
  -3   9  -1   16.41   46.56
  -3   9  -1   -9.19   21.28
   3  -9  -1   84.08   63.71
   3  -9  -2   59.44   51.48
  -3   9  -2  -30.99   36.61
   3  -9  -2   13.59   24.50
  -3   9  -2   29.55   18.19
   3  -9  -2   25.34   30.12
   3  -9  -3   15.96   21.75
   3  -9  -3   33.71   42.61
   3  -9  -3    1.86   28.78
   3  -9  -4   17.16   21.17
   3  -9  -4   -3.71   26.50
   3  -9  -4  -32.56   45.08
   3  -9  -5   27.35   18.39
   3  -9  -5  -26.89   44.86
   3  -9  -6  -39.23   46.18
   3  -9  -6   54.13   30.81
  -3  10   4  -34.71   19.85
  -3  10   3   59.52   35.79
  -3  10   3   80.56   72.22
  -3  10   2  -22.70   26.66
   3 -10   2  -12.85   42.64
  -3  10   2  142.49   75.53
  -3  10   2  103.80   65.35
   3 -10   2   16.53   27.01
  -3  10   1   53.23   54.94
  -3  10   1   29.28   33.16
   3 -10   1   66.52   53.42
   3 -10   1  -23.81   51.58
  -3  10   1   37.71   36.08
   3 -10   1  -81.31   67.11
  -3  10   0  -24.40   34.05
   3 -10   0   87.90   54.50
   3 -10   0   63.25   41.74
  -3  10   0    2.39   27.55
   3 -10   0   16.02   35.67
  -3  10   0   93.49   74.61
  -3  10  -1   23.04   46.40
  -3  10  -1   -4.94   33.40
   3 -10  -1   33.91   31.38
   3 -10  -1    8.97   13.36
  -3  10  -1    3.29   15.83
   3 -10  -1  -62.32   59.59
   3 -10  -2   73.88   55.99
  -3  10  -2   35.38   29.54
   3 -10  -2   24.20   30.13
  -3  10  -2   46.83   34.86
   3 -10  -3   21.06   30.17
   3 -10  -3  -55.03   69.12
   3 -10  -4  -15.23   21.16
   3 -10  -5   35.63   27.89
   3 -11  -1  -24.48   48.59
  -4   0   4   -0.22    6.65
   4   0  -4    6.53   20.38
  -4   0   5   91.69   49.38
   4   0  -5  127.84   29.10
  -4   0   5  122.83   30.43
   4   0  -5  231.77   41.02
   4   0  -5  164.59   57.87
  -4   0   6  281.07   87.65
  -4   0   6  263.61   46.12
   4   0  -6  387.46   54.80
   4   0  -6  293.89   79.62
   4   0  -6  236.66   42.09
   4   0  -6  308.69   40.42
   4   0  -7   72.87   22.03
  -4   0   7   62.70   38.50
  -4   0   7   49.81   24.68
  -4   0   7   45.46   16.61
   4   0  -7   80.75   27.32
   4   0  -7   76.40   50.68
   4   0  -7   66.44   18.28
  -4   0   8   18.06    7.78
  -4   0   8   -0.78   23.17
  -4   0   8    5.60   10.53
   4   0  -8   46.85   18.09
   4   0  -8   -4.50   30.27
   4   0  -8   21.56    8.87
  -4   0   9   15.36    8.74
  -4   0   9  -41.82   55.79
  -4   0   9   28.02   16.12
   4   0  -9   25.32   18.41
   4   0  -9    8.40   25.04
   4   0  -9   42.36   18.23
  -4   0  10   -2.93    6.32
  -4   0  10  -14.65   22.39
  -4   0  10   10.78    8.33
   4   0 -10    6.22    8.57
   4   0 -10  -17.01   37.86
   4   0 -10   15.77    8.52
  -4   0  11   10.98   12.10
  -4   0  11   -4.07    7.09
   4   0 -11    8.21    8.29
   4   0 -11  -18.45   14.94
  -4   0  12   39.89   59.84
  -4   1  11    5.59    9.77
   4   1 -11    9.05   13.08
   4   1 -11   10.55   10.67
  -4   1  10   -1.54    5.69
  -4   1  10   -1.44   37.09
  -4   1  10   -9.19   13.31
   4   1 -10    5.57   10.32
   4   1 -10   -8.13   35.66
   4   1 -10    9.61    7.28
  -4   1   9   -1.97    4.51
  -4   1   9    6.74   25.12
  -4   1   9   -0.17    5.42
  -4   1   9    9.41    9.37
   4   1  -9   17.37   10.57
   4   1  -9  -11.37   17.32
   4   1  -9   11.27   12.26
  -4   1   8   11.28    7.69
  -4   1   8  -13.05   25.22
  -4   1   8    7.64    9.14
  -4   1   8   22.75   15.80
   4   1  -8   37.42   21.59
   4   1  -8   -8.33   27.59
   4   1  -8   10.53    5.79
   4   1  -7   69.22   20.18
  -4   1   7   43.80   13.68
  -4   1   7   46.02   15.78
  -4   1   7   67.89   25.70
  -4   1   7   50.23   20.19
   4   1  -7   76.12   23.92
   4   1  -7   51.60   35.04
  -4   1   6   51.56   43.52
  -4   1   6  129.10   35.06
   4   1  -6  205.41   40.43
   4   1  -6  130.54   60.55
   4   1  -6  175.41   31.07
  -4   1   5    9.48    8.24
   4   1  -5   17.63   12.14
   4   1  -5   -1.35   21.26
   4   1  -5   16.96   18.64
  -4   1   4   62.77   19.74
  -4   1   4   50.30   19.29
   4  -1  -4   80.38   31.12
   4  -1  -4   74.19   21.35
   4  -1  -4  102.40   27.43
   4  -1  -4  114.87   43.13
   4  -1  -5    2.38   14.56
  -4  -1   5  -15.38   27.74
  -4  -1   5    9.10   14.61
   4  -1  -5   10.20   10.20
   4  -1  -5   -1.59   19.85
   4  -1  -6  118.32   31.58
  -4  -1   6   66.74   45.23
  -4  -1   6  136.19   31.77
   4  -1  -6  226.22   42.72
   4  -1  -6   88.90   33.31
   4  -1  -6  201.76   31.60
   4  -1  -7   63.49   25.48
  -4  -1   7   86.71   54.67
  -4  -1   7   59.73   22.48
   4  -1  -7   65.12   22.48
   4  -1  -7   19.65    9.34
   4  -1  -7   55.52   17.17
   4  -1  -8   14.39    8.85
  -4  -1   8    6.48    3.49
  -4  -1   8  -31.41   30.82
  -4  -1   8   21.13   16.35
   4  -1  -8   38.68   19.61
   4  -1  -8   -3.01    8.01
   4  -1  -8    6.53    7.20
   4  -1  -9    5.82    8.31
  -4  -1   9    5.99    6.58
  -4  -1   9    2.69    4.28
   4  -1  -9  -13.42   12.51
   4  -1  -9   22.45    8.38
   4  -1  -9   16.91    9.76
  -4  -1  10    0.56    9.81
  -4  -1  10  -28.37   28.68
  -4  -1  10    1.92    5.88
   4  -1 -10    7.07   11.89
   4  -1 -10   27.69   25.58
   4  -1 -10    6.03    9.38
  -4  -1  11   -2.18    7.80
  -4  -1  11  -12.39   42.24
  -4  -1  11    7.66    7.66
   4  -1 -11    3.10   10.59
  -4   2  11    4.88    9.31
   4   2 -11  -10.88   17.94
   4   2 -11  -26.84   45.58
   4   2 -11   -5.12    8.28
  -4   2  10   -1.12    8.63
  -4   2  10   -2.19   10.01
   4   2 -10   -5.10   12.27
   4   2 -10    8.41   11.95
  -4   2   9   11.85    7.48
  -4   2   9   22.50    9.15
   4   2  -9   22.66   14.12
   4   2  -9   26.84   33.72
   4   2  -9   22.49   12.91
  -4   2   8   43.29   27.12
  -4   2   8   24.08   13.80
   4   2  -8   41.09   21.31
   4   2  -8   14.27    8.80
   4   2  -8   22.44   14.59
   4   2  -7   48.44   17.54
  -4   2   7   13.31   13.34
  -4   2   7   32.69   15.29
   4   2  -7   60.76   26.38
   4   2  -7   57.53   40.10
   4   2  -6   11.08    8.34
  -4   2   6   14.17    5.97
  -4   2   6  -11.40   11.65
  -4   2   6   19.63   14.84
  -4   2   6   21.42   13.20
   4   2  -6    9.07   11.64
   4   2  -6   29.53   37.86
   4   2  -6  -19.27   20.47
  -4   2   5   16.06   12.48
   4   2  -5   25.38   46.58
   4   2  -5   -0.49   22.81
  -4   2   4  109.36   27.51
  -4   2   4  132.41   33.70
  -4   2   3   17.26   11.09
  -4   2   3   28.72   19.47
   4  -2  -3   24.22   14.87
   4  -2  -3   17.92    9.56
   4  -2  -4  139.90   43.38
   4  -2  -4  122.98   28.75
   4  -2  -4  199.75   38.31
   4  -2  -4  138.36   46.44
   4  -2  -5    5.79   10.38
   4  -2  -5   19.07   16.70
   4  -2  -5   -6.12    9.75
   4  -2  -6   26.59   10.37
   4  -2  -6   15.91   12.66
  -4  -2   6    6.24   34.27
   4  -2  -6   20.40   16.29
   4  -2  -6   25.93   20.20
   4  -2  -7   31.83   13.16
  -4  -2   7   12.60   15.12
  -4  -2   7   30.65   14.74
   4  -2  -7   76.04   24.76
   4  -2  -7   62.19   40.96
   4  -2  -8   31.58   14.27
  -4  -2   8   26.06   12.20
  -4  -2   8    2.98   22.02
  -4  -2   8   12.58   14.66
   4  -2  -8   28.23   10.36
   4  -2  -9    8.52   11.93
  -4  -2   9   14.46   13.79
  -4  -2   9   62.08   58.63
  -4  -2   9   18.87   17.35
   4  -2  -9   47.31   22.40
   4  -2 -10  -21.47   17.96
  -4  -2  10   13.14   14.49
  -4  -2  10   29.35   29.34
  -4  -2  10    1.97   12.83
   4  -2 -10  -14.71   18.98
  -4  -2  11    3.82    9.79
  -4  -2  11   35.00   60.04
  -4  -2  11    3.49   18.76
   4  -2 -11    4.72    8.03
   4   3 -11   -5.31   10.87
  -4   3  10   13.47   11.51
  -4   3  10  -14.61   12.07
   4   3 -10  -12.52   21.80
   4   3 -10   12.45   18.35
   4   3 -10    2.27    6.27
  -4   3   9   13.90    9.01
  -4   3   9   -8.43    8.29
   4   3  -9    3.20    9.87
   4   3  -9    7.32    7.86
   4   3  -8   -6.74   11.88
  -4   3   8  -16.00   20.44
  -4   3   8  -14.03   13.26
   4   3  -8   14.61   16.70
   4   3  -8  -17.78   39.91
   4   3  -7    4.64    4.55
  -4   3   7    5.57    5.27
  -4   3   7    0.75    6.80
   4   3  -7    7.20    7.84
   4   3  -7    4.89   17.22
   4   3  -7    5.10   19.30
   4   3  -6   25.25   15.15
  -4   3   6   25.99   22.81
  -4   3   6    1.57    3.36
   4   3  -6   53.74   27.83
  -4   3   5   77.96   29.66
  -4   3   5   84.83   23.76
  -4   3   5   97.34   34.31
   4   3  -5   73.15   53.24
   4   3  -5   43.80   44.62
  -4   3   4   24.67   12.09
  -4   3   4   38.22   21.04
  -4   3   3    3.80    6.94
  -4   3   3   10.60    4.29
   4  -3  -3   25.69   16.70
   4  -3  -3   18.66   13.38
   4  -3  -4   54.36   30.73
   4  -3  -4   40.64   17.80
   4  -3  -4   61.50   22.96
   4  -3  -4   28.84   16.04
   4  -3  -5   88.50   27.01
   4  -3  -5  102.24   30.11
   4  -3  -5   65.66   28.21
   4  -3  -5   66.05   32.60
   4  -3  -6    2.86    6.99
  -4  -3   6  -10.27   26.72
   4  -3  -6   12.25    9.09
   4  -3  -7   18.04   18.28
  -4  -3   7   -2.58   26.77
  -4  -3   7   18.33   10.91
   4  -3  -7   11.21   11.58
   4  -3  -8  -17.19   10.89
  -4  -3   8   17.89   14.89
  -4  -3   8   -9.80   48.92
  -4  -3   8   20.02   12.08
   4  -3  -8    5.01    9.84
   4  -3  -9    3.81    7.67
  -4  -3   9   -4.54    7.67
  -4  -3   9   19.01   30.02
  -4  -3   9    0.90   11.75
   4  -3  -9    4.18    8.36
   4  -3 -10    5.37   12.54
  -4  -3  10  -20.92   19.57
  -4  -3  10  -35.86   38.72
  -4  -3  10   -9.64   16.05
   4  -3 -10   28.80   19.03
   4  -3 -11  -17.97   20.54
  -4  -3  11    6.09   10.12
  -4  -3  11   14.23   29.63
  -4  -3  11   32.12   19.07
   4   4 -10   -2.04    5.87
  -4   4  10  -18.55   24.25
  -4   4  10   20.74   15.42
   4   4 -10   -1.93   44.56
   4   4  -9   10.65   10.77
  -4   4   9    5.29    8.52
  -4   4   9    0.50    8.52
   4   4  -8    5.25    5.94
  -4   4   8  -25.81   29.42
  -4   4   8   13.09    8.00
   4   4  -8   34.61   32.99
   4   4  -8  -43.13   61.49
   4   4  -7   51.24   18.73
  -4   4   7   53.60   27.42
  -4   4   7   36.68   15.99
   4   4  -7   24.07   48.84
   4   4  -7    4.24   22.60
  -4   4   6   44.80   24.28
  -4   4   6   17.57   11.12
  -4   4   6   45.16   17.36
  -4   4   6   77.50   33.53
   4   4  -6   92.43   68.57
   4   4  -6   31.37   25.08
  -4   4   5   26.16   12.37
  -4   4   5   -8.73   13.18
  -4   4   5   17.85   12.27
  -4   4   5  -12.24   19.10
  -4   4   4   85.38   29.47
  -4   4   4  138.54   49.58
  -4   4   4  146.21   40.66
  -4   4   3   51.51   19.43
  -4   4   3   82.08   29.80
  -4   4   3   97.00   43.82
  -4   4   2  159.00   36.31
  -4   4   2  166.74   44.54
   4  -4  -2  165.54   52.30
   4  -4  -2  203.05   42.98
   4  -4  -2  211.01   49.67
   4  -4  -3   37.73   13.41
   4  -4  -3   65.66   25.29
   4  -4  -3   29.74   14.47
   4  -4  -4  169.97   40.98
   4  -4  -4  271.52   49.02
   4  -4  -4  134.25   42.71
   4  -4  -4  136.90   50.29
   4  -4  -5   -5.39    8.17
   4  -4  -5   26.32   18.42
   4  -4  -5   -0.88    6.19
   4  -4  -5   30.86   34.73
   4  -4  -6   51.11   20.77
   4  -4  -6   17.29   17.39
   4  -4  -6   81.59   29.92
   4  -4  -6   48.09   30.70
   4  -4  -7   51.35   24.32
  -4  -4   7   24.22   34.58
  -4  -4   7   80.33   28.35
   4  -4  -7   72.84   25.58
   4  -4  -8    8.66   11.42
  -4  -4   8   -0.17    5.43
  -4  -4   8  -28.09   65.18
  -4  -4   8    1.21   29.98
  -4  -4   8   11.11   12.36
   4  -4  -8   25.92   15.92
  -4  -4   9   -5.20    9.69
  -4  -4   9   38.69   43.03
   4  -4  -9   11.64    7.00
   4  -4  -9   14.26   17.63
  -4  -4  10   -0.93    8.45
  -4  -4  10  -21.63   41.46
   4  -4 -10   23.02   17.80
   4  -4 -10   -8.94   17.09
   4   5  -9   21.41   14.53
  -4   5   9    2.63   17.15
  -4   5   9    2.50    3.78
   4   5  -9    6.65   21.84
   4   5  -9   40.41   39.82
   4   5  -8    2.74    7.02
  -4   5   8   11.29   21.11
  -4   5   8    9.37    5.69
   4   5  -8   75.16   49.63
   4   5  -8  -31.73   59.82
  -4   5   7   13.81   13.88
  -4   5   7    7.58    8.90
   4   5  -7   77.17   47.54
   4   5  -7   30.20   48.58
  -4   5   6   51.13   25.34
  -4   5   6   46.93   19.64
  -4   5   6   68.85   27.93
   4   5  -6   19.31   35.03
  -4   5   6   22.08   25.38
  -4   5   5  -11.37    9.33
  -4   5   5   29.45   16.06
  -4   5   5   32.42   13.57
  -4   5   5   15.55    9.66
  -4   5   4   22.04   13.41
  -4   5   4    9.86    6.26
  -4   5   4   35.55   20.75
  -4   5   4   38.70   21.83
  -4   5   3   46.88   21.66
  -4   5   3   75.47   45.84
  -4   5   3   42.02   13.02
  -4   5   2   -0.94   13.39
  -4   5   2   72.75   38.75
  -4   5   2   45.51   26.59
   4  -5  -2   66.93   43.56
   4  -5  -2   26.74   17.28
   4  -5  -2   17.85   20.59
   4  -5  -2   22.16   20.37
   4  -5  -3   71.18   26.84
   4  -5  -3   51.30   26.90
   4  -5  -3    8.33   11.47
   4  -5  -4   48.98   23.89
   4  -5  -4   10.44   21.84
   4  -5  -4   32.33   15.02
   4  -5  -4   48.44   36.96
   4  -5  -5  -18.37   16.38
   4  -5  -5  -20.54   29.47
   4  -5  -6   57.83   24.35
   4  -5  -6   76.03   35.48
   4  -5  -6   81.41   28.29
   4  -5  -6   93.80   53.36
   4  -5  -7  -23.24   19.88
  -4  -5   7    4.38   25.71
   4  -5  -7   25.49   14.89
  -4  -5   8    1.74   14.18
  -4  -5   8   16.46   27.26
  -4  -5   8    9.44   31.73
   4  -5  -8    4.60    6.63
   4  -5  -8   -0.68   13.61
  -4  -5   9   -3.81   12.02
  -4  -5   9  -17.80   20.77
  -4  -5   9   11.63   34.19
   4  -5  -9   -0.20    8.99
   4  -5  -9   11.51    8.77
  -4  -5  10   -6.99    9.97
  -4  -5  10    6.43   34.01
   4  -5 -10  -14.68   22.66
   4  -5 -10   -3.56   17.01
  -4   6   9   33.59   26.15
   4   6  -9  -74.46   33.55
   4   6  -9   53.25   64.11
  -4   6   8   20.03   10.67
   4   6  -8   52.94   50.10
   4   6  -8   -4.00   52.92
  -4   6   7   15.91   21.14
  -4   6   7   22.98   25.08
   4   6  -7  -37.42   77.59
   4   6  -7   53.39   45.66
  -4   6   6   -8.74    8.31
  -4   6   6   -8.39   19.18
  -4   6   6  -50.42   43.37
  -4   6   5    9.89   11.65
  -4   6   5    3.67   16.94
  -4   6   4   24.34   31.12
  -4   6   4    9.96   10.62
  -4   6   4    2.42   14.96
  -4   6   3  182.94   42.77
  -4   6   3   94.38   33.19
  -4   6   3  153.25   56.10
  -4   6   2   28.56   15.57
  -4   6   2   49.83   32.16
  -4   6   2   83.02   46.03
  -4   6   1   -2.51   13.02
  -4   6   1  -15.27   25.01
   4  -6  -1   11.14   26.05
   4  -6  -1   12.17   18.40
   4  -6  -1   17.43   25.61
   4  -6  -2   42.19   35.48
   4  -6  -2   33.17   17.69
   4  -6  -2    9.12   22.52
   4  -6  -3  213.87   49.95
   4  -6  -3  177.82   55.84
   4  -6  -3   49.80   36.94
   4  -6  -4    3.98   13.28
   4  -6  -4   14.41   27.19
   4  -6  -4   -1.93   24.78
   4  -6  -5    3.09    6.48
   4  -6  -5   13.35   21.08
   4  -6  -6   -2.74   15.85
   4  -6  -6  -10.89   21.02
   4  -6  -6   21.61   40.13
   4  -6  -7   28.05   14.52
   4  -6  -7   23.82   18.14
   4  -6  -8   25.07   23.36
  -4  -6   8   38.15   23.15
   4  -6  -8   23.94    5.75
  -4  -6   9   57.83   30.61
  -4  -6   9   49.23   56.20
  -4  -6   9    1.11   66.34
   4  -6  -9   63.35   29.50
   4  -6  -9    7.06   14.03
  -4  -6  10   -3.39   92.49
  -4   7   8   11.15   24.12
  -4   7   7   14.75   17.75
  -4   7   7  -22.00   16.55
  -4   7   7  -38.15   44.56
  -4   7   6   14.48   15.56
  -4   7   6  -31.13   37.72
  -4   7   6   -8.54   29.14
  -4   7   5   31.42   15.70
  -4   7   5   37.59   32.69
  -4   7   5  -23.82   39.07
  -4   7   4  -24.53   37.54
  -4   7   4   -8.89   11.12
  -4   7   4  -30.73   25.48
  -4   7   3    1.47   14.83
  -4   7   3   23.24   40.56
  -4   7   3   -3.40   19.53
  -4   7   2   13.86    7.58
  -4   7   2    9.19   19.12
  -4   7   2   17.50   15.35
  -4   7   1    3.44   17.06
  -4   7   1    5.45    9.09
  -4   7   1   39.89   18.14
   4  -7  -1   -8.62   20.55
   4  -7  -1  -37.01   31.41
   4  -7  -1   34.21   32.67
   4  -7  -2   34.79   18.48
   4  -7  -2   49.90   33.18
   4  -7  -2   20.56   29.97
   4  -7  -3   13.14    6.70
   4  -7  -3   41.00   34.58
   4  -7  -3   30.68   41.26
   4  -7  -4   23.40    7.95
   4  -7  -4    4.63   17.88
   4  -7  -4  -12.02   43.47
   4  -7  -5  -16.44    9.44
   4  -7  -5   10.44   23.23
   4  -7  -6   -4.90   12.39
   4  -7  -6   10.66   12.99
   4  -7  -6   11.17   31.16
   4  -7  -7    4.64   15.96
   4  -7  -7   21.36   30.06
   4  -7  -7   65.50   58.51
   4  -7  -8    2.75   10.53
  -4  -7   8   22.27   17.85
  -4   8   7    9.04   19.43
  -4   8   7   18.39   26.87
  -4   8   7   61.45   50.33
  -4   8   6  -13.33    6.47
  -4   8   6    2.13   25.16
  -4   8   6   37.03   44.06
  -4   8   5    4.67   11.18
  -4   8   5  -11.72   18.63
  -4   8   5   37.86   20.82
  -4   8   4   58.97   44.44
  -4   8   4  -17.70   22.41
  -4   8   4   48.26   28.55
  -4   8   3   29.08   21.77
  -4   8   3   40.00   30.68
  -4   8   3   33.35   24.12
  -4   8   2   72.85   56.13
  -4   8   2   35.52   22.09
  -4   8   2   43.40   22.35
  -4   8   1   10.76   10.84
  -4   8   1   36.48   36.69
  -4   8   1   21.89   23.11
  -4   8   0   48.04   34.67
   4  -8   0   50.35   38.51
   4  -8   0   50.74   42.20
   4  -8   0   70.15   55.10
   4  -8  -1   14.95    9.99
   4  -8  -1   16.98   23.78
   4  -8  -1  -11.89   39.16
   4  -8  -2  -17.97   24.70
   4  -8  -2    5.20   33.35
   4  -8  -2  -31.27   27.56
   4  -8  -3   39.05   23.55
   4  -8  -3   45.51   35.86
   4  -8  -3   -9.17   14.04
   4  -8  -4   30.57   18.14
   4  -8  -4  -27.80   29.97
   4  -8  -4    1.85   35.16
   4  -8  -5   -9.74   16.73
   4  -8  -5    1.11    9.36
   4  -8  -6   -0.93   14.61
   4  -8  -6   11.63   16.70
   4  -8  -6  -21.88   40.74
   4  -8  -7   -3.77   22.14
  -4   9   5  -21.28   28.44
  -4   9   5   22.48   11.38
  -4   9   4  -46.59   43.18
  -4   9   4   -4.92    9.92
  -4   9   4  -10.88   18.15
  -4   9   3    2.39    8.06
  -4   9   3   16.69   16.53
  -4   9   2   -6.73   45.55
  -4   9   2   44.03   40.02
  -4   9   1   18.83   40.86
  -4   9   1   -2.27   20.79
  -4   9   0   15.95   25.66
   4  -9   0   78.75   63.29
   4  -9   0   74.39   52.88
   4  -9   0   -0.80   19.16
   4  -9  -1   56.36   49.36
   4  -9  -1  -62.88   48.91
   4  -9  -1   20.24   40.27
   4  -9  -2   48.53   38.67
   4  -9  -2    6.89   26.80
   4  -9  -3  -12.20   17.97
   4  -9  -3  -42.63   12.91
   4  -9  -3   19.79   21.77
   4  -9  -4   11.11    7.63
   4  -9  -4   -6.63   36.70
   4  -9  -4    8.62   36.76
   4  -9  -5    6.11   14.82
   4  -9  -5   -3.79   40.38
   4  -9  -5   53.94   54.54
  -4  10   1  -21.66   41.93
  -4  10   0  -24.76   19.59
   4 -10   0  -19.42   41.89
   4 -10  -1  -25.07   23.28
  -5   0   6   15.82   18.18
   5   0  -6   19.67   13.37
  -5   0   7   63.16   29.16
   5   0  -7  120.66   35.91
   5   0  -7  100.43   47.81
  -5   0   8    2.37    5.13
  -5   0   8    3.37   19.86
  -5   0   8   -6.74    8.59
   5   0  -8    9.55   11.79
   5   0  -8   31.15   36.88
   5   0  -9    5.67   14.02
  -5   0   9   12.11   10.68
  -5   0   9   -1.71   29.18
  -5   0   9   11.33    6.75
   5   0  -9   -5.25   14.03
   5   0  -9   26.56   46.62
   5   0 -10  -13.70   11.74
  -5   0  10  -20.55   16.09
  -5   0  10   -2.49   52.53
  -5   0  10    8.91   12.46
   5   0 -10   -2.34   16.39
   5   0 -10   25.19   31.71
   5   0 -11    7.80    9.05
  -5   0  11   11.08   12.70
  -5   0  11   13.13   27.10
   5   0 -11  -40.54   51.41
   5   1 -10   13.26   11.04
  -5   1  10   -5.38   14.33
   5   1 -10   18.44    8.04
   5   1 -10   -3.43   16.91
   5   1  -9   13.39   13.63
  -5   1   9    5.71    5.95
   5   1  -9   23.09   15.40
   5   1  -9   44.07   42.51
  -5   1   8   -8.48    7.19
  -5   1   8   38.28   37.35
  -5   1   8   29.28   27.32
  -5   1   8    6.14    9.15
   5   1  -8   28.11   18.41
   5   1  -8  -25.96   33.06
  -5   1   7   31.01   20.92
  -5   1   7    4.26    7.54
   5   1  -7   28.15   17.13
   5   1  -7   23.21   34.28
  -5   1   6   12.82   13.83
   5  -1  -6   11.83    6.60
   5  -1  -6    4.98   23.10
   5  -1  -7  -12.03   14.55
   5  -1  -7    1.60    8.13
   5  -1  -7   11.50   32.31
   5  -1  -8    9.41    9.26
  -5  -1   8  -26.73   36.83
  -5  -1   8   -1.88   13.74
   5  -1  -8   -9.62   16.12
   5  -1  -8  -14.86   30.16
  -5  -1   9    7.13    6.50
  -5  -1   9   17.92   37.27
  -5  -1   9    0.66   14.90
   5  -1  -9   20.18   20.36
  -5  -1  10    2.42    7.52
  -5  -1  10   -7.31   22.02
  -5  -1  10   27.44   28.70
   5  -1 -10  -12.64   21.13
  -5  -1  11  -16.83   18.24
  -5  -1  11  -34.31   56.19
   5   2 -10  -14.11    8.31
  -5   2  10    9.75   16.62
   5   2 -10    0.19   12.71
   5   2 -10  -24.83   55.18
   5   2  -9   -0.63   10.11
  -5   2   9   -3.87    9.11
  -5   2   9   -7.36    3.41
   5   2  -9    4.68    9.09
   5   2  -9    9.68   20.03
  -5   2   8   51.83   24.68
  -5   2   8   30.71   17.84
   5   2  -8   82.03   56.33
  -5   2   7   14.56    8.59
  -5   2   7   28.09   16.45
   5   2  -7   35.04   40.21
  -5   2   6   20.59   15.74
  -5   2   5   20.96   20.97
   5  -2  -6   24.09   16.37
   5  -2  -6   21.66   14.23
   5  -2  -7   13.05   14.53
   5  -2  -7   23.95    7.32
   5  -2  -8   43.35   21.41
  -5  -2   8   58.36   50.24
  -5  -2   8   10.09    7.03
   5  -2  -8   47.30   27.09
   5  -2  -9   17.70   15.81
  -5  -2   9   -1.27    7.28
  -5  -2   9   39.20   53.62
  -5  -2   9    8.72   11.09
   5  -2  -9  -19.98   19.69
  -5  -2  10   -1.32    4.25
  -5  -2  10   19.46   15.27
  -5  -2  10    2.42    6.78
   5  -2 -10   12.60   12.11
   5   3 -10  -15.47   12.32
  -5   3  10   -6.28   12.03
  -5   3  10    3.12    6.24
   5   3 -10   12.81   36.69
  -5   3   9   18.34   15.27
  -5   3   9   17.87   15.95
   5   3  -9  -37.66   58.64
  -5   3   8   10.26   16.97
  -5   3   8   -4.33   11.02
   5   3  -8   -2.77   27.33
  -5   3   7   10.80   14.27
  -5   3   7   -8.78   11.31
  -5   3   6   -4.16    7.32
  -5   3   6    0.49    4.95
  -5   3   5   16.39   12.26
   5  -3  -5   22.19   15.36
   5  -3  -6   19.41   16.41
   5  -3  -6    9.62    8.03
   5  -3  -7   11.91   10.14
   5  -3  -7   19.34   10.30
   5  -3  -8  -16.98   17.11
  -5  -3   8  -11.22   15.05
   5  -3  -8   -2.43   19.65
   5  -3  -9   23.75   24.13
  -5  -3   9   -9.03   12.16
  -5  -3   9  -12.37    4.85
   5  -3  -9   -5.95    9.52
   5  -3 -10    6.53    8.65
  -5  -3  10   -2.56   17.23
  -5  -3  10  -46.78   53.74
  -5  -3  10   29.79   26.40
   5  -3 -10   11.51   17.56
  -5   4  10   -8.34   10.52
  -5   4   9  -22.28   20.34
  -5   4   9    0.41    4.73
   5   4  -9  -14.22   38.95
  -5   4   8   13.29   21.04
  -5   4   8   25.49   14.13
  -5   4   7    0.44   14.42
  -5   4   7   -6.40    7.49
  -5   4   6   28.54    9.84
  -5   4   6   57.83   20.19
  -5   4   5   81.55   31.70
  -5   4   5   61.69   27.50
  -5   4   4   -7.77    7.39
  -5   4   4  -19.28   17.83
   5  -4  -4   23.43   31.09
   5  -4  -4   -3.49    8.62
   5  -4  -5   55.84   26.44
   5  -4  -5   67.27   29.72
   5  -4  -6   54.24   26.44
   5  -4  -6   71.28   26.22
   5  -4  -7   19.86   19.65
   5  -4  -7    3.64   18.96
   5  -4  -8   20.82   23.83
   5  -4  -8   16.86    8.56
   5  -4  -9   14.99   15.63
  -5  -4   9    1.51    9.69
   5  -4  -9   -1.78   12.18
  -5   5   9   28.90   20.28
  -5   5   9    9.23    8.42
  -5   5   8   -9.90   10.31
  -5   5   8   -9.96    9.66
  -5   5   7   44.33   28.74
  -5   5   7   10.68   12.54
  -5   5   6  -49.30   27.43
  -5   5   6    5.24    7.97
  -5   5   5  -13.76    9.84
  -5   5   5  -22.60   18.93
  -5   5   5   -9.33    6.97
  -5   5   4   71.87   29.10
  -5   5   4   30.47    7.22
   5  -5  -4   64.97   26.17
   5  -5  -4  118.46   45.74
   5  -5  -5    4.99    9.72
   5  -5  -5   48.77   33.54
   5  -5  -6   19.13   16.73
   5  -5  -6    2.83    8.10
   5  -5  -7   23.06   20.86
   5  -5  -7  -23.43   27.16
   5  -5  -8   18.93   19.21
   5  -5  -8    6.65   14.50
   5  -5  -9    0.76    7.73
   5  -5  -9   22.12   21.55
  -5   6   8   13.08    9.28
  -5   6   7   52.62   34.16
  -5   6   6   11.82   12.73
  -5   6   6   16.97    9.35
  -5   6   6   26.22   29.53
  -5   6   5   18.39   27.44
  -5   6   5    2.31   18.80
  -5   6   4   -0.12    9.13
  -5   6   4   22.63   23.46
  -5   6   3   38.70   23.67
  -5   6   3  -25.20   23.26
   5  -6  -3  -19.54   25.35
   5  -6  -4   -5.13   16.78
   5  -6  -4  -33.51   34.34
   5  -6  -4    7.02   22.82
   5  -6  -5   24.22   13.19
   5  -6  -5   28.12   17.41
   5  -6  -5  -22.57   44.29
   5  -6  -6   16.08    9.63
   5  -6  -6   22.06   28.03
   5  -6  -6   -4.95   26.68
   5  -6  -7   14.75   16.16
   5  -6  -8    0.17   14.35
  -5   7   7  -11.22   17.68
  -5   7   6   17.83   15.09
  -5   7   6  -18.84   24.38
  -5   7   5  -32.25   30.32
  -5   7   5   -9.70    8.24
  -5   7   5  -36.66   37.18
  -5   7   4   17.91   16.68
  -5   7   4    5.85   11.71
  -5   7   3   13.75   13.61
  -5   7   3    0.45   28.66
   5  -7  -3   22.77   27.00
   5  -7  -3   23.71   36.30
   5  -7  -4    5.06    7.10
   5  -7  -4  -16.62   23.49
   5  -7  -5    2.20   23.84
   5  -7  -5    5.40   12.44
   5  -7  -5  -22.15   15.63
   5  -7  -6  -16.68   19.24
   5  -7  -6   -0.67   17.35
  -5   8   6   50.28   40.00
  -5   8   6   -7.64   32.78
  -5   8   5   39.20   28.54
  -5   8   5   67.40   41.34
  -5   8   4   13.64   21.93
  -5   8   4   26.05   27.50
  -5   8   4   29.56   30.90
  -5   8   3   23.36   16.06
  -5   8   3  -10.54   25.47
   5  -8  -3   52.28   37.54
   5  -8  -3  -61.34   65.12
   5  -8  -4    3.81   13.50
   5  -8  -4   20.72   14.58
   5  -8  -4    6.12   45.02
   5  -8  -5  -10.17   27.98
   5  -8  -5   19.15   25.79
   5  -8  -5   -3.86   29.16
   5  -8  -6  -20.77   25.84
   5  -8  -6   16.36   53.24
  -5   9   4  -30.02   32.26
  -5   9   3   17.15   13.09
  -5   9   3   46.71   35.39
   5  -9  -3 -128.18   89.63
   5  -9  -4   11.78   21.18
  -6   0   9    7.13   15.83
   6   0 -10   49.87   47.48
  -6   1   9   -1.81    4.17
  -6   1   8    9.07   12.65
  -6   2   9   -2.97    8.14
  -6   2   9   13.47   13.77
  -6   2   8  -44.89   34.72
  -6   2   8   25.30   20.36
   6  -2  -9   33.70   13.28
  -6   3   9   27.17   31.88
  -6   3   9    2.69    8.77
  -6   3   8  -12.14    9.13
  -6   3   8   -2.60    7.44
  -6   3   7   49.35   31.96
  -6   3   7  -19.85   19.43
   6  -3  -8  -13.45   17.29
   6  -3  -9    4.95   12.35
  -6   4   8   14.17   17.19
  -6   4   8    7.73    8.17
  -6   4   7    0.43   18.69
  -6   4   7  -15.92   16.99
   6  -4  -7   21.69   26.69
   6  -4  -8    9.25   13.61
  -6   5   8    2.93   12.18
  -6   5   7   15.05   13.16
  -6   5   7   -9.31   11.74
   6  -5  -7   36.57   28.30
  -6   6   6   11.56   15.35
   6  -6  -6   13.55   19.73
   0   0   0    0.00    0.00


TITL 1a in P2(1)2(1)2(1)
REM P2(1)2(1)2(1) (#19 in standard setting)
CELL 0.71073   7.015640   8.753877  10.052886  90.0000  90.0000  90.0000
ZERR    4.00   0.001830   0.000841   0.001334   0.0000   0.0000   0.0000
LATT -1
SYMM -x+1/2,-y, z+1/2
SYMM -x, y+1/2,-z+1/2
SYMM  x+1/2,-y+1/2,-z
SFAC C H N Cl
UNIT 16.00 8.00 20.00 4.00
TREF
HKLF 4
END
_computing_structure_solution     'SHELXT 2014/5 (Sheldrick, 2014)'
;
_shelx_hkl_checksum              89683
_olex2_submission_special_instructions 'No special instructions were received'
_oxdiff_exptl_absorpt_empirical_details
;
Empirical correction (ABSPACK) includes:
- Absorption correction using spherical harmonics
- Frame scaling
;
_oxdiff_exptl_absorpt_empirical_full_max 3.573
_oxdiff_exptl_absorpt_empirical_full_min 0.225
loop_
_space_group_symop_operation_xyz
'x, y, z'
'-x+1/2, -y, z+1/2'
'-x, y+1/2, -z+1/2'
'x+1/2, -y+1/2, -z'
loop_
_atom_site_label
_atom_site_type_symbol
_atom_site_fract_x
_atom_site_fract_y
_atom_site_fract_z
_atom_site_U_iso_or_equiv
_atom_site_adp_type
_atom_site_occupancy
_atom_site_site_symmetry_order
_atom_site_calc_flag
_atom_site_refinement_flags_posn
_atom_site_refinement_flags_adp
_atom_site_refinement_flags_occupancy
_atom_site_disorder_assembly
_atom_site_disorder_group
Cl1 Cl 0.2913(5) 0.3347(2) 0.3215(2) 0.0783(13) Uani 1 1 d . . . . .
N4 N 0.3543(17) 0.7480(8) 0.4127(8) 0.050(4) Uani 1 1 d . . . . .
N5 N 0.3672(16) 0.5962(9) 0.4190(7) 0.052(3) Uani 1 1 d . . . . .
N3 N 0.4285(13) 0.8417(10) 0.5064(6) 0.070(3) Uani 1 1 d . . . . .
N2 N 0.3876(19) 0.9804(9) 0.4631(10) 0.079(5) Uani 1 1 d . . . . .
N1 N 0.2922(18) 0.9827(8) 0.3487(8) 0.065(4) Uani 1 1 d . . . . .
C9 C 0.2755(15) 0.8332(10) 0.3177(8) 0.043(3) Uani 1 1 d . . . . .
C7 C 0.201(2) 0.6029(10) 0.2088(8) 0.063(4) Uani 1 1 d . . . . .
H7 H 0.149029 0.545775 0.139895 0.075 Uiso 1 1 calc R U . . .
C6 C 0.2889(18) 0.5305(8) 0.3183(11) 0.052(4) Uani 1 1 d . . . . .
C8 C 0.1956(19) 0.7558(10) 0.2062(9) 0.060(4) Uani 1 1 d . . . . .
H8 H 0.142124 0.808787 0.135276 0.072 Uiso 1 1 calc R U . . .
loop_
_atom_site_aniso_label
_atom_site_aniso_U_11
_atom_site_aniso_U_22
_atom_site_aniso_U_33
_atom_site_aniso_U_23
_atom_site_aniso_U_13
_atom_site_aniso_U_12
Cl1 0.087(4) 0.0470(13) 0.101(2) 0.0008(15) 0.0258(16) -0.001(2)
N4 0.051(13) 0.050(5) 0.048(6) 0.001(4) -0.001(4) -0.002(5)
N5 0.055(11) 0.047(5) 0.053(6) 0.005(4) 0.001(4) 0.000(5)
N3 0.081(11) 0.077(6) 0.053(5) -0.019(6) -0.013(4) -0.003(7)
N2 0.089(15) 0.053(5) 0.096(8) -0.019(5) 0.003(6) -0.011(6)
N1 0.068(13) 0.057(5) 0.069(7) -0.005(5) -0.001(5) -0.001(6)
C9 0.040(11) 0.043(5) 0.046(5) 0.000(6) -0.001(4) 0.004(7)
C7 0.092(15) 0.059(5) 0.037(7) -0.006(4) -0.005(5) -0.005(7)
C6 0.056(13) 0.039(5) 0.062(7) 0.001(5) 0.015(6) 0.003(6)
C8 0.068(15) 0.073(6) 0.040(7) 0.009(5) 0.000(5) 0.002(7)
loop_
_atom_type_symbol
_atom_type_description
_atom_type_scat_dispersion_real
_atom_type_scat_dispersion_imag
_atom_type_scat_source
C C 0.0033 0.0016 'International Tables Vol C Tables 4.2.6.8 and 6.1.1.4'
H H 0.0000 0.0000 'International Tables Vol C Tables 4.2.6.8 and 6.1.1.4'
Cl Cl 0.1484 0.1585 'International Tables Vol C Tables 4.2.6.8 and 6.1.1.4'
N N 0.0061 0.0033 'International Tables Vol C Tables 4.2.6.8 and 6.1.1.4'
loop_
_geom_angle_atom_site_label_1
_geom_angle_atom_site_label_2
_geom_angle_atom_site_label_3
_geom_angle
_geom_angle_site_symmetry_1
_geom_angle_site_symmetry_3
_geom_angle_publ_flag
N5 N4 N3 123.0(9) . . ?
C9 N4 N5 128.4(9) . . ?
C9 N4 N3 108.6(7) . . ?
C6 N5 N4 112.2(8) . . ?
N2 N3 N4 104.1(7) . . ?
N3 N2 N1 114.0(7) . . ?
N2 N1 C9 103.2(7) . . ?
N4 C9 N1 110.0(8) . . ?
N4 C9 C8 117.5(8) . . ?
N1 C9 C8 132.6(9) . . ?
C6 C7 H7 120.8 . . ?
C8 C7 H7 120.8 . . ?
C8 C7 C6 118.5(9) . . ?
N5 C6 Cl1 115.3(8) . . ?
N5 C6 C7 126.8(8) . . ?
C7 C6 Cl1 117.9(8) . . ?
C9 C8 H8 121.7 . . ?
C7 C8 C9 116.6(10) . . ?
C7 C8 H8 121.7 . . ?
loop_
_geom_bond_atom_site_label_1
_geom_bond_atom_site_label_2
_geom_bond_distance
_geom_bond_site_symmetry_2
_geom_bond_publ_flag
Cl1 C6 1.715(7) . ?
N4 N5 1.333(7) . ?
N4 N3 1.354(9) . ?
N4 C9 1.332(10) . ?
N5 C6 1.288(12) . ?
N3 N2 1.321(9) . ?
N2 N1 1.331(11) . ?
N1 C9 1.351(9) . ?
C9 C8 1.424(12) . ?
C7 H7 0.9300 . ?
C7 C6 1.411(12) . ?
C7 C8 1.339(9) . ?
C8 H8 0.9300 . ?
loop_
_geom_torsion_atom_site_label_1
_geom_torsion_atom_site_label_2
_geom_torsion_atom_site_label_3
_geom_torsion_atom_site_label_4
_geom_torsion
_geom_torsion_site_symmetry_1
_geom_torsion_site_symmetry_2
_geom_torsion_site_symmetry_3
_geom_torsion_site_symmetry_4
_geom_torsion_publ_flag
N4 N5 C6 Cl1 -177.7(9) . . . . ?
N4 N5 C6 C7 1.5(19) . . . . ?
N4 N3 N2 N1 0.1(14) . . . . ?
N4 C9 C8 C7 2.0(19) . . . . ?
N5 N4 N3 N2 179.3(11) . . . . ?
N5 N4 C9 N1 -179.9(12) . . . . ?
N5 N4 C9 C8 -1(2) . . . . ?
N3 N4 N5 C6 -179.0(10) . . . . ?
N3 N4 C9 N1 -1.5(13) . . . . ?
N3 N4 C9 C8 177.5(9) . . . . ?
N3 N2 N1 C9 -1.0(13) . . . . ?
N2 N1 C9 N4 1.5(12) . . . . ?
N2 N1 C9 C8 -177.3(13) . . . . ?
N1 C9 C8 C7 -179.2(12) . . . . ?
C9 N4 N5 C6 -1(2) . . . . ?
C9 N4 N3 N2 0.8(13) . . . . ?
C6 C7 C8 C9 -1(2) . . . . ?
C8 C7 C6 Cl1 178.8(11) . . . . ?
C8 C7 C6 N5 0(2) . . . . ?
