#------------------------------------------------------------------------------
#$Date: 2022-03-06 06:37:54 +0200 (Sun, 06 Mar 2022) $
#$Revision: 273468 $
#$URL: file:///home/coder/svn-repositories/cod/cif/1/56/59/1565950.cif $
#------------------------------------------------------------------------------
#
# This file is available in the Crystallography Open Database (COD),
# http://www.crystallography.net/
#
# All data on this site have been placed in the public domain by the
# contributors.
#
data_1565950
loop_
_publ_author_name
'Wildner, Manfred'
'Zakharov, Boris A.'
'Bogdanov, Nikita E.'
'Talla, Dominik'
'Boldyreva, Elena V.'
'Miletich, Ronald'
_publ_section_title
;
 Crystallography relevant to Mars and Galilean icy moons: crystal behavior
 of kieserite-type monohydrate sulfates at extraterrestrial conditions
 down to 15 K
;
_journal_issue                   2
_journal_name_full               IUCrJ
_journal_page_first              194
_journal_page_last               203
_journal_paper_doi               10.1107/S2052252521012720
_journal_volume                  9
_journal_year                    2022
_chemical_formula_sum            'Fe H2 Mg0 O5 S'
_chemical_formula_weight         169.93
_space_group_crystal_system      monoclinic
_space_group_IT_number           15
_space_group_name_Hall           '-C 2yc'
_space_group_name_H-M_alt        'C 1 2/c 1'
_atom_sites_solution_hydrogens   difmap
_audit_creation_method           SHELXL-2017/1
_cell_angle_alpha                90
_cell_angle_beta                 118.648(10)
_cell_angle_gamma                90
_cell_formula_units_Z            4
_cell_length_a                   7.0923(10)
_cell_length_b                   7.5523(10)
_cell_length_c                   7.7848(10)
_cell_measurement_temperature    313(2)
_cell_volume                     365.93(9)
_computing_structure_refinement  'SHELXL-2017/1 (Sheldrick, 2017)'
_diffrn_ambient_temperature      313(2)
_diffrn_measured_fraction_theta_full 0.991
_diffrn_measured_fraction_theta_max 0.997
_diffrn_radiation_type           MoK\a
_diffrn_radiation_wavelength     0.71073
_diffrn_reflns_av_R_equivalents  0.0364
_diffrn_reflns_av_unetI/netI     0.0159
_diffrn_reflns_Laue_measured_fraction_full 0.991
_diffrn_reflns_Laue_measured_fraction_max 0.997
_diffrn_reflns_limit_h_max       12
_diffrn_reflns_limit_h_min       -12
_diffrn_reflns_limit_k_max       13
_diffrn_reflns_limit_k_min       -13
_diffrn_reflns_limit_l_max       14
_diffrn_reflns_limit_l_min       -14
_diffrn_reflns_number            10474
_diffrn_reflns_point_group_measured_fraction_full 0.991
_diffrn_reflns_point_group_measured_fraction_max 0.997
_diffrn_reflns_theta_full        25.242
_diffrn_reflns_theta_max         39.992
_diffrn_reflns_theta_min         4.187
_exptl_absorpt_coefficient_mu    4.575
_exptl_absorpt_correction_T_max  0.7479
_exptl_absorpt_correction_T_min  0.5337
_exptl_absorpt_correction_type   multi-scan
_exptl_absorpt_process_details
;
 SADABS 2016/2: Krause, L., Herbst-Irmer, R., Sheldrick G.M. & Stalke D.,
 J. Appl. Cryst. 48 (2015) 3-10
;
_exptl_crystal_density_diffrn    3.084
_exptl_crystal_F_000             336
_refine_diff_density_max         0.514
_refine_diff_density_min         -0.707
_refine_diff_density_rms         0.101
_refine_ls_extinction_coef       0.209(4)
_refine_ls_extinction_expression Fc^*^=kFc[1+0.001xFc^2^\l^3^/sin(2\q)]^-1/4^
_refine_ls_extinction_method     'SHELXL-2017/1 (Sheldrick 2017)'
_refine_ls_goodness_of_fit_ref   1.128
_refine_ls_hydrogen_treatment    refall
_refine_ls_matrix_type           full
_refine_ls_number_parameters     40
_refine_ls_number_reflns         1139
_refine_ls_number_restraints     0
_refine_ls_restrained_S_all      1.128
_refine_ls_R_factor_all          0.0150
_refine_ls_R_factor_gt           0.0146
_refine_ls_shift/su_max          0.000
_refine_ls_shift/su_mean         0.000
_refine_ls_structure_factor_coef Fsqd
_refine_ls_weighting_details
'w=1/[\s^2^(Fo^2^)+(0.0180P)^2^+0.1500P] where P=(Fo^2^+2Fc^2^)/3'
_refine_ls_weighting_scheme      calc
_refine_ls_wR_factor_gt          0.0377
_refine_ls_wR_factor_ref         0.0379
_reflns_Friedel_coverage         0.000
_reflns_number_gt                1115
_reflns_number_total             1139
_reflns_threshold_expression     'I > 2\s(I)'
_cod_data_source_file            lt5044.cif
_cod_data_source_block           FeSO4H2O_N2_313K
_cod_depositor_comments
'Adding full bibliography for 1565934--1565967.cif.'
_cod_original_sg_symbol_H-M      'C 2/c'
_cod_database_code               1565950
_shelx_shelxl_version_number     2017/1
_shelx_space_group_comment
;
The symmetry employed for this shelxl refinement is uniquely defined
by the following loop, which should always be used as a source of
symmetry information in preference to the above space-group names.
They are only intended as comments.
;
_shelx_res_file
;
TITL 1991Fekiesx1 313K Apex in C2/c kieserite cell
    latt_corr_for_Nonius20C_1991Fekiesx1_313K_0m.res
    created by SHELXL-2017/1 at 15:53:22 on 08-Oct-2018

REM meas.  mon 7.0785(1) 7.5416(2) 7.7715(2) 90 118.6307(5) 90
REM trans. cryscomp
REM meas.trcl 7.0782(2) 7.5412(2) 7.7712(2) 89.9761(6) 118.6270(5) 90.0320(6)
REM trans. cryscomp
REM CELL 0.71073   7.0785 7.5416 7.7715 90 118.631 90
REM latt corr for Nonius20C  +.0138 +.0107 +.0133     +.017
CELL 0.71073   7.0923 7.5523 7.7848 90 118.648 90
ZERR    4.00   0.001   0.001   0.001   0.00   0.01   0.00
LATT  7
SYMM -X, Y, .5-Z
SFAC O H S MG FE
UNIT 20 8 4 0 4
SHEL 20 0.55285
OMIT -2 2 2
OMIT -3 1 1
OMIT 3 3 3
REM DAMP 1000
L.S. 10
CONN 12 1.8 $O
EQIV $9 -x+1/2, y+1/2, -z+1/2
BOND $H
FMAP 2
PLAN 20
ACTA
HTAB O3 O2_$9
HTAB
REM EXYZ MG FE
REM EADP MG FE
REM SUMP 1.0 0 1.0 2 1.0 3
WGHT    0.018000    0.150000
EXTI    0.209081
FVAR       1.01585
FE    5    0.000000    0.500000    0.000000    10.50000    0.00841    0.00935 =
         0.00991    0.00092    0.00425   -0.00014
S     3    0.000000    0.153091    0.250000    10.50000    0.00596    0.00716 =
         0.00993    0.00000    0.00352    0.00000
O1    1    0.169487    0.042223    0.397971    11.00000    0.00969    0.01755 =
         0.01901    0.00856    0.00563    0.00462
O2    1    0.095595    0.267737    0.156821    11.00000    0.01329    0.01247 =
         0.01905    0.00557    0.01008    0.00163
O3    1    0.000000    0.644828    0.250000    10.50000    0.01330    0.01369 =
         0.01273    0.00000    0.00685    0.00000
H     2    0.106843    0.721615    0.297324    11.00000    0.04025
HKLF 4




REM  1991Fekiesx1 313K Apex in C2/c kieserite cell
REM R1 =  0.0146 for    1115 Fo > 4sig(Fo)  and  0.0150 for all    1139 data
REM     40 parameters refined using      0 restraints

END

WGHT      0.0178      0.1610

REM Instructions for potential hydrogen bonds
EQIV $19 x+1/2, y+1/2, z
HTAB O3 S_$19
EQIV $3 x, y+1, z
HTAB O3 O1_$3
HTAB O3 O2_$9

REM Highest difference peak  0.514,  deepest hole -0.707,  1-sigma level  0.101
Q1    1   0.0437  0.2166  0.1912  11.00000  0.05    0.51
Q2    1   0.0025  0.5881  0.0001  11.00000  0.05    0.50
Q3    1  -0.0788  0.5183  0.0087  11.00000  0.05    0.45
Q4    1   0.0616  0.5684 -0.0718  11.00000  0.05    0.30
Q5    1   0.0965  0.3545  0.1486  11.00000  0.05    0.30
Q6    1   0.2525  0.0633  0.3925  11.00000  0.05    0.29
Q7    1  -0.0005  0.3619  0.0849  11.00000  0.05    0.29
Q8    1   0.1649  0.1120  0.3553  11.00000  0.05    0.28
Q9    1   0.2361  0.0008  0.3381  11.00000  0.05    0.25
Q10   1   0.0000 -0.0907  0.2500  10.50000  0.05    0.24
Q11   1   0.0000  0.7933  0.2500  10.50000  0.05    0.23
Q12   1   0.0000  0.3433  0.2500  10.50000  0.05    0.22
Q13   1   0.0363  0.3992  0.1705  11.00000  0.05    0.21
Q14   1   0.2984  0.1237  0.4436  11.00000  0.05    0.20
Q15   1   0.0621  0.0459  0.3803  11.00000  0.05    0.20
Q16   1   0.2841 -0.1162  0.4126  11.00000  0.05    0.20
Q17   1   0.1405 -0.0491  0.2920  11.00000  0.05    0.19
Q18   1   0.0000  0.0618  0.2500  10.50000  0.05    0.19
Q19   1  -0.1189  0.3402  0.0437  11.00000  0.05    0.17
Q20   1  -0.0237  0.5902  0.3339  11.00000  0.05    0.17
;
_shelx_res_checksum              94081
_shelx_hkl_file
;
   2   0   0 8442.95 284.313  12
   2   0   0 7427.20 289.063  15
   2   0   0 8103.89 284.735   5
  -2   0   0 8610.46 284.925   7
  -2   0   0 7968.13 289.259  15
  -2   0   0 9374.79 288.246   4
   4   0   0 4175.08 142.540  11
   4   0   0 4176.31 144.259  15
  -4   0   0 4159.36 143.755   4
  -4   0   0 4289.68 143.322   7
   4   0   0 4209.21 143.192  12
  -4   0   0 4164.12 142.904  10
   4   0   0 4274.49 143.130   5
  -4   0   0 4128.03 142.509   8
  -6   0   0 4959.90 171.336   7
   6   0   0 5169.32 171.443   5
   6   0   0 5036.59 173.077  15
  -6   0   0 5048.36 172.274   4
   6   0   0 4849.14 170.176  11
   6   0   0 4908.25 171.368  12
   8   0   0 2170.77 78.7338  12
   8   0   0 2099.85 77.8626  16
  -8   0   0 2249.41 78.2361   7
   8   0   0 2213.01 78.3506   5
 -10   0   0 1762.68 69.1645  14
 -10   0   0 1727.55 62.6472   7
  10   0   0 1655.90 65.4338   1
  10   0   0 1591.74 63.3020  12
  10   0   0 1700.77 63.1210   5
  -1  -1   0 2182.67 80.1477  15
   1  -1   0 2327.54 77.7680  16
   1   1   0 2343.67 83.0661  15
  -3  -1   0 6179.99 199.136   4
  -3  -1   0 5818.05 197.940   8
  -3  -1   0 5659.57 195.313   7
   3  -1   0 5554.26 201.919  15
   3  -1   0 5774.85 198.418  16
  -3  -1   0 6159.20 201.484  15
   3  -1   0 5465.98 196.531  11
   3  -1   0 5751.42 197.819   5
   3  -1   0 5784.76 195.494  12
   3   1   0 5750.15 196.691  11
   3   1   0 5827.52 196.188   5
  -3   1   0 5339.48 198.180  10
  -3   1   0 5612.67 196.568   4
  -3   1   0 5756.41 194.173   7
  -3   1   0 5392.36 200.203  15
   3   1   0 5730.46 202.011  15
   5  -1   0 705.706 27.0999  15
   5  -1   0 681.730 25.5776  16
   5  -1   0 675.067 25.9981  12
  -5  -1   0 690.623 26.7068   4
  -5  -1   0 703.665 25.8720   7
  -5  -1   0 731.854 27.5092   3
   5  -1   0 700.244 25.1375  11
   5  -1   0 693.154 25.8750   5
  -5  -1   0 658.337 25.5455   8
  -5   1   0 685.239 26.6976   4
   5   1   0 709.195 25.4401  11
  -5   1   0 665.954 24.6685   8
  -5   1   0 671.167 26.2631  10
   5   1   0 719.782 27.7203  15
  -5   1   0 683.984 26.2644   7
   5   1   0 684.563 26.0623  12
   5   1   0 723.722 26.2312   5
   7  -1   0 403.315 16.9557   5
   7  -1   0 387.001 16.4894  16
   7  -1   0 376.670 17.1107  12
  -7  -1   0 316.240 15.8958   8
  -7  -1   0 416.540 16.9178   7
  -7  -1   0 376.466 18.2547   3
  -7   1   0 383.735 17.5518   4
  -7   1   0 386.248 17.2404   7
   7   1   0 405.296 16.4469  11
   7   1   0 405.255 17.1952   5
   7   1   0 383.278 18.3804  15
   7   1   0 375.847 16.9142  12
   9  -1   0 696.849 28.6661   5
   9  -1   0 684.008 29.1917  12
   9  -1   0 665.002 29.8120   1
  -9  -1   0 690.024 27.9084   7
  -9  -1   0 708.997 33.4471  14
   9  -1   0 641.604 27.8087  16
   9   1   0 656.036 29.0110  12
  -9   1   0 702.650 28.8817   7
  -9   1   0 779.682 34.7504   3
   9   1   0 658.775 28.2178  16
   9   1   0 678.267 28.7060   5
  11  -1   0 91.1854 9.84351  12
 -11  -1   0 86.0635 10.5484  14
  11  -1   0 82.0898 8.68535   5
  11   1   0 75.3326 7.83098   5
 -11   1   0 75.1720 10.3066  14
  11   1   0 71.2029 7.90693  12
  11   1   0 62.3509 8.98317   1
 -11   1   0 79.4050 7.93724   7
   0  -2   0 1880.85 65.1333  16
   0  -2   0 1799.85 64.5572   9
   0  -2   0 1995.42 64.8120  12
   0  -2   0 1995.81 64.0991   6
   0   2   0 1765.92 65.0617  10
   2  -2   0 483.004 17.5819   1
   2  -2   0 463.788 17.5479   5
  -2  -2   0 454.840 18.6231  14
  -2  -2   0 504.875 18.7474   3
  -2  -2   0 478.056 17.9008   4
   2  -2   0 488.071 17.6688  12
  -2  -2   0 504.784 19.4090  15
  -2  -2   0 471.753 18.1031   8
  -2  -2   0 486.477 17.6278   6
   2  -2   0 495.560 17.4006  16
  -2   2   0 485.951 17.8966   4
   2   2   0 517.410 18.0655  11
   2   2   0 521.093 19.2625  15
  -2   2   0 509.950 19.1250  10
   2   2   0 520.152 18.4792   2
  -2   2   0 499.543 18.1837   7
   4  -2   0 2433.16 81.1618  12
   4  -2   0 2311.26 80.3828  11
   4  -2   0 2302.04 81.2403   1
  -4  -2   0 2305.29 83.3874  14
  -4  -2   0 2331.69 81.3229   8
  -4  -2   0 2238.80 82.3862   3
   4  -2   0 2307.26 80.8671   5
   4  -2   0 2271.41 80.5306  16
  -4  -2   0 2431.98 81.8586   4
  -4  -2   0 2419.85 80.7113   7
  -4   2   0 2276.65 81.5868   4
  -4   2   0 2248.35 82.2271  10
  -4   2   0 2313.84 81.5572   7
   4   2   0 2425.92 83.3296  15
   4   2   0 2495.95 81.4072  11
   4   2   0 2448.03 81.5557   5
   6  -2   0 2746.16 96.2022  12
  -6  -2   0 2787.02 96.0623   8
  -6  -2   0 2722.66 97.9560   3
   6  -2   0 2804.09 95.9687   5
  -6  -2   0 2894.96 95.5988   7
   6  -2   0 2741.66 94.8806  11
   6  -2   0 2640.88 96.5501   1
   6  -2   0 2712.82 95.4644  16
  -6  -2   0 2752.73 99.6034  14
   6   2   0 2845.38 98.5450  15
  -6   2   0 2604.08 96.7151  10
   6   2   0 2715.58 96.2852  12
   6   2   0 2945.35 96.6303   5
  -6   2   0 2713.21 96.4560   7
  -6   2   0 2697.54 96.8081   4
   8  -2   0 198.833 11.7905   1
   8  -2   0 204.281 11.8552  12
  -8  -2   0 209.105 10.5922   7
   8  -2   0 216.127 11.4890   5
  -8  -2   0 216.024 14.4377  14
   8  -2   0 205.754 10.6577  16
   8   2   0 201.599 11.8848  12
   8   2   0 200.571 11.5810   5
  -8   2   0 205.503 12.1609   7
  10  -2   0 52.2435 6.94372  12
  10  -2   0 46.8916 6.51564   5
 -10  -2   0 38.3316 7.68186  14
 -10   2   0 37.5405 8.31348  14
  10   2   0 42.1237 6.53334   5
  10   2   0 42.5585 5.49855  16
 -10   2   0 45.4321 6.68621   7
  10   2   0 47.6839 7.13257  12
   1  -3   0 3469.60 108.696   5
   1  -3   0 2930.68 110.139   9
   1  -3   0 3280.52 110.207   1
  -1  -3   0 2857.81 109.733   3
  -1  -3   0 3392.47 110.023   6
  -1  -3   0 3445.22 109.446   8
  -1  -3   0 2957.73 109.192  14
   1  -3   0 3336.35 110.727  16
   1  -3   0 3348.64 109.899  12
  -1  -3   0 2923.40 109.546   9
  -1  -3   0 3343.81 108.656  13
   1   3   0 3255.82 109.721  10
  -1   3   0 3145.41 108.984   7
  -1   3   0 2993.29 110.423  10
   1   3   0 3342.52 110.177  15
   3  -3   0 7066.27 232.041  12
   3  -3   0 7148.56 234.158  16
  -3  -3   0 6446.21 231.077   6
   3  -3   0 7282.86 232.007   1
   3  -3   0 6806.48 233.091   5
  -3  -3   0 7071.51 236.291   8
   3   3   0 6869.12 235.157   2
   3   3   0 6622.37 239.878  15
  -3   3   0 6339.10 231.587  10
  -3   3   0 6234.83 231.526   4
   3   3   0 6961.28 230.184  11
  -3   3   0 6553.53 230.283   7
  -5  -3   0 3216.35 118.828   3
   5  -3   0 3533.39 117.117   5
  -5  -3   0 3386.05 117.555   8
   5  -3   0 3359.75 116.415  16
   5  -3   0 3550.68 117.349  12
  -5  -3   0 3374.97 120.297  14
   5  -3   0 3442.32 117.099   1
  -5   3   0 3262.46 118.790  10
   5   3   0 3536.09 117.360  11
   5   3   0 3577.87 117.741   5
  -5   3   0 3398.92 117.798   7
  -5   3   0 3388.98 117.775   4
  -5   3   0 2995.98 117.032   2
   5   3   0 3565.46 120.170  15
   7  -3   0 1976.04 69.4905   5
  -7  -3   0 2011.33 69.7794   8
   7  -3   0 1880.95 68.5947  16
   7  -3   0 1951.52 69.7548  12
  -7  -3   0 2014.93 73.9072  14
   7  -3   0 1854.33 69.4693   1
   7   3   0 1931.70 72.1718  15
   7   3   0 1997.99 68.8910  11
  -7   3   0 1919.83 70.2402   4
  -7   3   0 1961.06 70.3872   7
  -7   3   0 1807.41 70.4499  10
   7   3   0 1988.74 69.9757   5
   7   3   0 1929.22 69.8395  12
   9  -3   0 1476.71 56.7220  12
   9  -3   0 1562.74 56.5387   5
  -9  -3   0 1529.88 61.6589  14
  -9   3   0 1463.08 56.3810   7
   9   3   0 1544.27 56.6044   5
   9   3   0 1419.71 56.2317  12
 -11  -3   0 483.648 27.4119  14
  11  -3   0 460.097 23.1880  12
  11  -3   0 482.638 22.8689   5
 -11   3   0 477.782 26.9072  14
 -11   3   0 461.945 22.1660   7
  11   3   0 493.548 23.4033  12
  11   3   0 454.905 21.9927   5
   0  -4   0 3367.96 120.003   9
   0  -4   0 3638.68 119.618   8
   0  -4   0 3200.39 118.596  13
   0  -4   0 3768.88 120.772   6
   0  -4   0 3685.82 119.047   1
   0   4   0 3350.23 120.995  10
   0   4   0 3507.83 118.976   7
  -2  -4   0 707.933 26.7814   8
   2  -4   0 715.238 25.8504  12
  -2  -4   0 678.878 26.9535  14
   2  -4   0 703.244 25.5544   1
   2  -4   0 709.633 25.7309   9
   2  -4   0 694.147 25.7388   5
  -2  -4   0 709.813 27.4847   3
  -2  -4   0 724.653 25.7934   6
   2  -4   0 713.385 25.3408  16
  -2   4   0 739.982 26.4983   7
   2   4   0 772.152 26.7085  10
  -2   4   0 716.724 25.4445   4
  -2   4   0 726.861 28.4709  10
   2   4   0 755.724 27.9761   2
   2   4   0 740.833 28.0194  15
   4  -4   0 9.14742 1.43934  16
  -4  -4   0 11.5610 2.60367  14
   4  -4   0 21.3318 2.76081  12
   4  -4   0 9.36034 1.91506   5
  -4  -4   0 7.16641 2.22825   3
   4  -4   0 8.21880 1.76298   1
  -4  -4   0 7.84494 1.62623   6
  -4  -4   0 7.24287 2.21779   8
  -4   4   0 5.84969 3.00972  10
  -4   4   0 9.13722 2.81078   7
  -4   4   0 22.6805 2.86481   4
   4   4   0 10.0514 2.29404  11
   4   4   0 13.5697 3.37053  15
   4   4   0 7.03369 2.35036   2
   6  -4   0 79.5326 5.19879  16
  -6  -4   0 88.9470 7.08640   3
   6  -4   0 74.6487 5.54131   1
   6  -4   0 76.7083 5.51767   5
   6  -4   0 78.4263 6.06905  12
  -6  -4   0 82.4467 6.15383   8
  -6  -4   0 80.4841 7.55607  14
   6   4   0 88.9194 6.48811  11
  -6   4   0 84.8583 7.32982   7
   6   4   0 89.7570 6.46285   5
  -6   4   0 87.4866 7.31856  10
   6   4   0 110.750 8.80205  15
  -6   4   0 79.4402 6.35906   4
  -8  -4   0 54.6817 6.16824   8
  -8  -4   0 73.1042 9.47042  14
   8  -4   0 56.6778 6.10546  12
   8  -4   0 56.3039 5.95947   5
   8   4   0 58.1546 6.78348   5
   8   4   0 54.6032 6.03745  12
  -8   4   0 60.2017 6.65147   7
  10  -4   0 97.5314 8.75340   5
  10  -4   0 88.1475 9.07004  12
 -10  -4   0 109.862 12.6884  14
 -10   4   0 85.3565 9.16439   7
  10   4   0 108.902 9.37392   5
  10   4   0 90.2027 8.23023  12
   1  -5   0 2922.67 99.5640   6
  -1  -5   0 3026.36 100.786   8
   1  -5   0 2930.36 99.5113  12
   1  -5   0 2805.13 99.7828   8
   1  -5   0 2905.89 99.1051  16
   1  -5   0 2917.94 99.3078   1
  -1  -5   0 3001.45 99.5489   6
  -1  -5   0 2800.06 101.045   9
  -1  -5   0 2846.51 100.483  14
   1  -5   0 2707.56 100.216   9
  -1   5   0 2868.67 99.8572   7
   1   5   0 3043.59 102.021  15
   1   5   0 3034.80 101.658  10
  -1   5   0 2833.77 102.420  10
   1   5   0 2874.32 98.9497   7
   1   5   0 3029.60 102.806   2
  -3  -5   0 1945.65 65.6630   6
  -3  -5   0 1644.14 67.2700  14
   3  -5   0 1928.20 65.0480  16
  -3  -5   0 1792.70 67.7902   3
   3  -5   0 1925.75 65.9020  12
   3  -5   0 1935.23 65.7362   5
   3  -5   0 1868.80 65.3091   1
  -3  -5   0 1913.11 67.0411   8
  -3   5   0 1783.17 65.1695   4
   3   5   0 1985.83 68.0798   2
   3   5   0 1922.94 68.7698  15
  -3   5   0 1916.39 66.6078   7
   3   5   0 1964.05 65.9608  10
   3   5   0 1892.33 66.4627  11
  -3   5   0 1886.95 69.1796  10
   5  -5   0 630.931 24.2180  16
  -5  -5   0 674.485 25.0552   6
  -5  -5   0 658.619 28.4355  14
   5  -5   0 652.518 25.3799  12
  -5  -5   0 672.022 26.5764   8
   5  -5   0 668.433 25.2704   5
  -5  -5   0 670.716 27.3779   3
  -5   5   0 632.173 27.0869   2
   5   5   0 642.659 25.6739   5
   5   5   0 644.272 25.8115  11
  -5   5   0 633.699 25.2253   4
   5   5   0 643.088 28.2217  15
  -5   5   0 670.157 26.3462   7
  -5   5   0 692.034 28.8529  10
  -7  -5   0 471.578 20.5573   8
   7  -5   0 417.725 19.5427  12
   7  -5   0 459.311 19.6844   5
  -7  -5   0 460.034 23.4662  14
   7   5   0 457.595 19.6638  11
   7   5   0 449.837 22.5931  15
  -7   5   0 433.139 22.2680  10
   7   5   0 442.968 20.0785   5
  -7   5   0 455.630 20.9785   7
  -9  -5   0 553.577 24.7669   8
  -9  -5   0 596.964 29.9340  14
   9  -5   0 549.448 24.9039  12
   9  -5   0 566.923 24.8030   5
  -9   5   0 564.003 25.9205   7
   9   5   0 543.615 24.4509   5
   9   5   0 519.259 24.6514  12
   0  -6   0 3429.57 114.619   6
   0  -6   0 3328.54 114.538   1
   0  -6   0 3394.92 115.669   8
   0   6   0 3241.33 114.328   7
   0   6   0 3389.66 118.544   2
   0   6   0 3293.12 117.525  10
   2  -6   0 4225.71 139.053  12
  -2  -6   0 4266.83 140.611   8
  -2  -6   0 4250.40 138.918   6
   2  -6   0 4020.28 138.434   1
   2  -6   0 3778.16 138.651   8
   2  -6   0 4027.27 138.198  16
  -2  -6   0 3724.36 140.169  14
  -2   6   0 3959.21 139.494   7
   2   6   0 4223.12 142.359  15
   2   6   0 4322.77 142.713   2
  -2   6   0 3866.06 142.665  10
   2   6   0 4094.22 140.446  10
  -4  -6   0 4516.61 143.569   8
   4  -6   0 4357.22 141.754  12
  -4  -6   0 3927.36 143.922   3
   4  -6   0 4125.34 140.391  16
   4  -6   0 4320.67 141.532   5
  -4  -6   0 3569.88 143.577  14
   4  -6   0 4036.23 140.724   1
  -4  -6   0 4311.87 141.287   6
  -4   6   0 3794.74 144.729   2
  -4   6   0 4118.33 142.451   7
  -4   6   0 3942.86 145.329  10
   4   6   0 4310.19 143.991   2
   4   6   0 4160.32 145.001  15
  -4   6   0 3988.81 140.644   4
   4   6   0 4247.47 142.356  11
  -6  -6   0 3156.71 108.310   8
   6  -6   0 3080.81 106.648   5
  -6  -6   0 2914.38 110.389  14
   6  -6   0 3074.28 107.008  12
   6   6   0 3145.38 107.477  11
   6   6   0 3024.67 107.140   5
  -6   6   0 2981.96 110.816  10
  -6   6   0 3029.30 108.001   7
   6   6   0 3006.44 110.813  15
  -8  -6   0 1550.73 62.4172  14
  -8  -6   0 1561.18 58.7088   8
   8  -6   0 1576.22 57.6122   5
   8  -6   0 1581.79 58.0146  12
  -8   6   0 1458.99 60.4061  10
  -8   6   0 1587.46 59.1697   7
   8   6   0 1468.59 57.4945   5
 -10  -6   0 626.911 31.0590  14
  10  -6   0 605.187 26.2351   5
  10  -6   0 540.953 26.1666  12
  10   6   0 542.055 25.8085  12
 -10   6   0 546.633 26.3189   7
   1  -7   0 383.684 15.3915  12
   1  -7   0 371.864 15.0002   1
   1  -7   0 370.925 15.3055   6
   1  -7   0 350.948 15.6717   8
  -1  -7   0 363.646 15.1067   6
  -1  -7   0 363.562 16.4658   8
  -1   7   0 403.770 18.9450  10
  -1   7   0 385.649 19.5481   2
   1   7   0 397.105 19.3335   2
   1   7   0 387.668 17.7697  10
   1   7   0 388.217 18.4069  15
  -1   7   0 387.090 15.4504   7
  -3  -7   0 485.972 21.1766   8
  -3  -7   0 495.349 19.2997   6
   3  -7   0 467.105 18.6977   1
   3  -7   0 468.613 19.4488  12
  -3  -7   0 459.829 21.1565  14
   3  -7   0 495.970 18.4912  16
  -3   7   0 503.477 20.4069   7
   3   7   0 518.509 22.6770   2
   3   7   0 473.124 22.5375  15
  -3   7   0 508.247 24.0024  10
  -3   7   0 520.190 23.8974   2
  -5  -7   0 766.703 30.6123   8
   5  -7   0 713.226 28.7573  12
   5  -7   0 716.262 28.6526   5
  -5  -7   0 767.869 28.4937   6
  -5  -7   0 680.017 31.4305  14
  -5   7   0 766.464 30.1926   7
   5   7   0 727.084 32.7111  15
   5   7   0 762.113 29.8807  11
  -5   7   0 779.081 34.0740  10
  -5   7   0 714.591 32.1574   2
   7  -7   0 210.309 12.4566  12
  -7  -7   0 218.247 15.1817  14
   7  -7   0 222.675 12.3092   5
  -7  -7   0 220.611 13.6890   8
   7   7   0 209.569 12.5513  11
  -7   7   0 248.467 14.4989   7
   7   7   0 224.167 13.0418   5
  -7   7   0 239.746 16.8802  10
   9  -7   0 24.0101 5.09195   5
  -9  -7   0 39.5626 6.13048   8
   9  -7   0 46.9983 7.02222  12
  -9   7   0 36.7276 7.22677   7
   9   7   0 30.1911 5.01685  12
   9   7   0 33.3111 6.20398   5
   0  -8   0 1959.49 68.8131   6
   0  -8   0 1871.15 69.9248   8
   0   8   0 1978.62 72.7062  10
   0   8   0 1994.00 74.1933   2
   0   8   0 1967.68 72.6852  15
   2  -8   0 2068.37 73.4448   1
   2  -8   0 2123.15 74.2025   6
  -2  -8   0 2156.34 76.1437   8
  -2  -8   0 2144.10 73.8604   6
  -2  -8   0 1965.45 75.4311  14
   2  -8   0 2132.90 74.1678  12
   2   8   0 2101.58 78.5498   2
  -2   8   0 2108.80 79.1571  10
   2   8   0 2102.47 78.4526  15
  -2   8   0 2113.49 79.6722   2
   2   8   0 2106.83 76.0599  10
  -2   8   0 2125.01 74.3862   7
   4  -8   0 1021.63 38.3214  12
  -4  -8   0 949.908 40.4996  14
  -4  -8   0 1026.84 40.2915   8
  -4  -8   0 1087.58 38.2318   6
  -4   8   0 1030.14 39.2733   7
  -4   8   0 1049.53 43.9491  10
  -4   8   0 973.881 43.0005   2
   4   8   0 970.698 41.9134  15
   4   8   0 1057.51 42.0761   2
   4   8   0 1041.70 39.6135  11
  -6  -8   0 399.883 21.5502  14
   6  -8   0 422.751 19.2360  12
  -6  -8   0 414.213 20.6062   8
  -6   8   0 427.491 20.5596   7
  -6   8   0 460.279 24.9051  10
   6   8   0 415.771 19.6875   5
   6   8   0 429.540 20.2760  11
   8  -8   0 645.505 28.1927  12
  -8  -8   0 724.970 30.3218   8
   8  -8   0 663.232 28.0880   5
  -8   8   0 667.793 32.9753  10
   8   8   0 655.345 28.4485   5
   8   8   0 544.040 27.8606  11
  -8   8   0 667.296 29.8341   7
   1  -9   0 2676.16 92.9839   6
   1  -9   0 2468.23 93.5633   8
  -1  -9   0 2750.80 95.2163   8
  -1  -9   0 2617.77 92.6160   6
   1   9   0 2731.66 99.0747   2
  -1   9   0 2653.24 97.7963  10
   1   9   0 2619.99 96.0274  10
  -1   9   0 2660.70 99.2377   2
   1   9   0 2700.46 97.9576  15
   3  -9   0 1073.74 39.3966   6
   3  -9   0 1029.24 39.0162  12
  -3  -9   0 1017.90 41.0958   8
  -3  -9   0 1028.07 38.5458   6
   3   9   0 1003.07 43.6430  15
  -3   9   0 996.912 39.1856   7
   3   9   0 1035.55 40.4749  11
   3   9   0 1113.32 44.0348   2
  -3   9   0 1015.18 44.3573  10
  -3   9   0 1036.29 44.7693   2
  -5  -9   0 1028.40 37.8781   6
   5  -9   0 990.963 38.4909  12
  -5  -9   0 995.645 40.5930   8
  -5   9   0 932.188 43.0222   2
   5   9   0 983.133 39.6120  11
  -5   9   0 1013.43 44.5802  10
  -5   9   0 1012.10 39.7175   7
  -7  -9   0 752.506 32.9006   8
   7  -9   0 741.252 30.7947  12
  -7   9   0 743.193 36.9967  10
   7   9   0 694.117 30.7888  11
  -7   9   0 735.962 31.8488   7
   7   9   0 720.396 31.2118   5
   0 -10   0 44.8107 4.94527   6
   0 -10   0 59.3292 6.57527   8
   0  10   0 45.1820 7.51220  10
   0  10   0 46.0411 8.53791   2
  -2 -10   0 53.9973 6.40268   8
  -2 -10   0 45.6131 5.10224   6
   2 -10   0 41.9344 5.00360   6
  -2  10   0 36.7222 7.58773   2
  -2  10   0 54.6364 8.17920  10
   2  10   0 54.0475 8.23495   2
  -4 -10   0 72.8281 6.72205   6
   4 -10   0 75.5092 7.39755   6
  -4 -10   0 86.7932 8.73064   8
   4 -10   0 82.0508 7.24174  12
  -4  10   0 96.9318 12.4240   2
   4  10   0 75.0580 8.36792  11
  -4  10   0 69.2137 11.2720  10
  -4  10   0 58.2526 7.11906   7
   4  10   0 94.2530 11.2580   2
   6 -10   0 4.58380 3.50151  12
  -6 -10   0 0.80937 2.97433   6
   6 -10   0 4.42648 3.47763   6
  -6 -10   0 7.81489 4.37202   8
  -6  10   0 8.54375 4.98404   7
  -6  10   0 1.77977 7.24180  10
   6  10   0 3.94194 4.31625   5
   6  10   0 0.46625 4.65946  11
  -1 -11   0 537.368 22.9058   6
  -1 -11   0 555.752 25.3122   8
   1 -11   0 545.428 23.1170   6
   1  11   0 526.328 28.6121   2
   1  11   0 552.679 26.6812  10
  -1  11   0 552.816 29.8789   2
  -1  11   0 554.033 28.0592  10
  -3 -11   0 447.948 22.1712   8
   3 -11   0 429.450 19.9109   6
  -3 -11   0 434.242 19.3658   6
  -3  11   0 396.947 24.8767   2
  -3  11   0 474.048 27.0995  10
   3  11   0 422.125 21.5601  11
   3  11   0 436.298 25.3742   2
  -5 -11   0 961.363 40.5454   8
  -5 -11   0 924.778 36.5123   6
   5 -11   0 981.593 38.2754  12
   5 -11   0 995.295 38.6843   6
  -5  11   0 900.070 38.1185   7
   5  11   0 945.418 39.3908  11
  -5  11   0 924.179 44.4604   2
  -5  11   0 921.979 44.4814  10
   0 -12   0 558.376 23.7856   6
   0  12   0 571.348 28.9553  10
   0  12   0 556.131 30.7570   2
   2 -12   0 870.542 35.6116   6
  -2 -12   0 935.637 38.8588   8
  -2  12   0 917.503 42.2318  10
  -2  12   0 927.563 44.3856   2
   2  12   0 863.206 42.0244   2
   2  12   0 877.275 37.7454  11
  -4 -12   0 636.552 27.1659   6
   4 -12   0 655.885 28.6824   6
  -4 -12   0 671.544 31.1400   8
  -4  12   0 687.974 35.3871  10
   4  12   0 680.836 30.6215  11
  -1 -13   0 219.034 12.7229   6
   1 -13   0 208.882 12.2493   6
  -1  13   0 232.114 18.6409  10
   1  13   0 219.510 15.3172  11
   1  13   0 256.633 20.6750   2
  -1  13   0 226.945 18.9302   2
  -3 -13   0 9.37885 3.69150   6
  -3 -13   0 8.39739 3.73362   8
   3 -13   0 6.44139 3.01106   6
   3  13   0 5.26617 5.41208   2
   3  13   0 5.68677 5.46365  11
  -3  13   0 12.8480 8.47307  10
  -3  13   0 11.0813 8.26198   2
  10   0  -1 -1.9594 2.68077  16
  10   0  -1 4.56220 4.03837  12
 -10   0   1 2.37960 4.68509  14
 -10   0   1 3.92225 3.60889   7
  10   0  -1 -2.8962 2.78775   5
  10   0  -1 5.21658 4.48587   1
  -8   0   1 0.60079 2.47879  14
  -8   0   1 3.06976 2.08479   7
   8   0  -1 -0.4514 2.34094   5
   8   0  -1 2.48553 2.54008  16
   8   0  -1 2.12244 3.01823  12
  -8   0   1 3.56167 2.98979   3
  -6   0   1 2.58634 1.47333  10
  -6   0   1 1.65600 1.11760   8
   6   0  -1 4.87611 2.06764  16
   6   0  -1 1.19100 1.44224  15
   6   0  -1 -0.0403 0.73487  11
   6   0  -1 1.56861 1.79709   5
  -6   0   1 0.07774 1.42208   7
   6   0  -1 -1.4836 1.85700  12
   4   0  -1 0.12006 1.17350  12
   4   0  -1 5.70908 0.95728  11
   4   0  -1 2.73912 0.95941   5
  -2   0   1 0.29767 0.59208  15
  -2   0   1 0.19013 0.47469   8
   2   0  -1 2.00915 0.61984  12
   2   0  -1 1.14460 0.63870  15
  -2   0   1 -0.7416 0.58468   7
   0   0  -1 0.18832 0.27973  15
   0   0   1 2.17354 0.53591  15
   0   0  -1 0.50405 0.16831  16
  -2   0  -1 1.12004 0.92459  15
   2   0   1 0.28819 0.55254  12
  -2   0  -1 0.62982 0.53161  13
  -2   0  -1 0.35410 0.81354   7
   2   0   1 2.67684 1.25160  15
   2   0   1 1.76607 0.66762  11
   2   0   1 0.26784 0.61203   5
  -2   0  -1 3.48902 0.62322   8
   4   0   1 0.68862 1.02590  11
  -4   0  -1 1.97132 1.57647   7
  -4   0  -1 0.52084 1.16615  10
   4   0   1 1.48609 1.58470  15
   4   0   1 0.65644 1.42470   5
  -4   0  -1 1.97152 0.78664   8
   4   0   1 -2.1717 1.09317  12
  -4   0  -1 6.17229 1.76162   4
  -6   0  -1 1.66369 1.82059   4
   6   0   1 1.96970 2.25447  15
  -6   0  -1 -2.2672 2.06552   7
   6   0   1 1.50651 1.60660  12
   6   0   1 -0.4123 1.32656  11
   6   0   1 0.36993 1.49188   5
   8   0   1 1.93463 2.79468   5
   8   0   1 -0.2978 2.13058  16
   8   0   1 -2.8980 2.72313  12
  -8   0  -1 0.54364 2.91460   7
  -8   0  -1 -0.2381 3.31600   4
 -10   0  -1 2.17605 5.32715  14
  10   0   1 8.85383 3.56698  12
  10   0   1 6.47473 4.10869   5
  11  -1  -1 132.129 11.5641   1
 -11  -1   1 165.578 15.0692  14
  11  -1  -1 149.375 11.8664  12
  11  -1  -1 138.644 10.5373   5
 -11   1   1 158.242 10.7592   7
 -11   1   1 138.726 14.2336  14
  11   1  -1 148.046 10.6884   5
  11   1  -1 133.287 11.3908  12
  11   1  -1 151.178 13.0718   1
   9  -1  -1 330.823 17.5824   1
   9  -1  -1 339.794 15.8070   5
   9  -1  -1 308.450 15.5484  16
   9  -1  -1 317.924 16.4054  12
  -9  -1   1 318.718 17.9696   3
  -9  -1   1 329.924 20.1522  14
  -9  -1   1 335.958 15.5714   7
  -9   1   1 314.241 18.0500   3
   9   1  -1 313.254 15.6581  16
  -9   1   1 319.682 19.1210  14
  -9   1   1 343.607 16.3447   7
   9   1  -1 307.920 15.7293   5
   9   1  -1 312.743 16.0727  12
  -7  -1   1 376.070 15.9524   8
  -7  -1   1 382.411 18.5801   3
   7  -1  -1 387.806 16.2522   5
   7  -1  -1 370.946 16.1998  16
  -7  -1   1 396.454 16.4942   7
   7  -1  -1 384.273 16.8700  12
  -7  -1   1 393.109 19.7126  14
   7   1  -1 347.199 16.5498  12
   7   1  -1 379.460 17.3867  15
  -7   1   1 377.391 16.6306   7
   7   1  -1 379.998 16.3840   5
  -5  -1   1 28.1998 3.15723   7
   5  -1  -1 25.0416 2.77449  15
  -5  -1   1 29.2552 4.22370  14
   5  -1  -1 29.3702 2.91936   5
  -5  -1   1 30.8802 3.66158   3
  -5  -1   1 23.3018 2.68926   8
   5  -1  -1 26.1615 1.89017  11
   5  -1  -1 28.6169 2.90325  16
   5  -1  -1 30.1841 3.11334  12
  -5   1   1 25.1611 3.43449  10
   5   1  -1 29.1559 3.10912  12
  -5   1   1 24.5491 3.12135   7
  -5   1   1 29.0358 3.52368   4
   5   1  -1 26.3806 3.46575  15
  -5   1   1 26.1104 2.19930   8
   5   1  -1 30.2962 2.37129  11
   5   1  -1 25.0352 3.07339   5
  -3  -1   1 385.366 15.2906   3
  -3  -1   1 370.529 14.1207   9
  -3  -1   1 365.510 13.9763   7
  -3  -1   1 380.164 14.9083  15
  -3  -1   1 355.065 15.3125  14
   3  -1  -1 361.365 13.7591  16
   3  -1  -1 374.027 13.6515   5
   3  -1  -1 359.446 13.8490  12
  -3  -1   1 339.439 13.9120   8
  -3   1   1 385.668 15.0605  10
   3   1  -1 404.534 13.7795  11
  -3   1   1 380.430 14.4138   7
  -3   1   1 363.739 13.8599  15
   3   1  -1 407.726 14.9136  15
   3   1  -1 405.436 14.1331   5
  -3   1   1 360.329 14.1916   4
   1  -1  -1 2202.42 75.7887  16
  -1  -1  -1 2898.97 96.7134   4
   1  -1   1 2756.96 96.4849  11
   1  -1   1 2873.49 98.0607  12
  -1  -1  -1 2969.42 100.721  15
  -1  -1  -1 2863.51 96.5696  13
   1  -1   1 2753.25 96.4197   5
  -1   1  -1 2673.46 98.8559  15
   1   1   1 3040.66 104.730  15
  -1   1  -1 2708.90 96.7530   7
  -1   1  -1 2850.02 96.7643   4
   1   1   1 2871.95 96.7084   5
   1   1   1 2914.88 96.9856  11
   3  -1   1 631.474 22.3404  11
  -3  -1  -1 616.513 23.1606   4
  -3  -1  -1 597.827 22.3999   8
   3  -1   1 613.525 22.4918   5
  -3  -1  -1 614.184 22.7926   3
   3  -1   1 633.731 23.8311  15
  -3  -1  -1 623.532 22.3002   7
   3  -1   1 596.607 22.3351  12
   3   1   1 616.845 22.0825   2
   3   1   1 639.555 22.8504   5
  -3   1  -1 593.605 23.0325   4
   3   1   1 635.299 22.7072  11
  -3   1  -1 597.507 22.9621  10
   3   1   1 653.888 24.5396  15
  -3   1  -1 598.582 22.7835   7
   5  -1   1 67.9588 5.93425  15
  -5  -1  -1 73.4859 5.45424   3
  -5  -1  -1 78.7806 5.11370   7
  -5  -1  -1 77.7224 4.56285   8
  -5  -1  -1 70.7337 5.75584   4
   5  -1   1 75.7477 4.47093  11
   5  -1   1 71.3334 5.10629  12
   5  -1   1 72.6988 4.90823   5
   5   1   1 77.8377 6.59110  15
  -5   1  -1 73.1508 4.96018  10
  -5   1  -1 63.2280 5.34377   4
   5   1   1 70.6837 5.27942  12
  -5   1  -1 74.9894 5.56294   7
   5   1   1 71.7995 4.80379  11
   5   1   1 81.4998 5.74160   5
   7  -1   1 6.81947 2.34330  11
  -7  -1  -1 4.49483 2.55190   4
   7  -1   1 6.36539 2.09837  16
   7  -1   1 5.30181 2.80107  12
  -7  -1  -1 7.45002 2.80556   7
   7  -1   1 7.29557 2.97740   5
  -7   1  -1 4.56541 3.23978   4
   7   1   1 9.00377 3.32380   5
   7   1   1 5.77958 2.82598  12
   7   1   1 5.90870 2.44081  15
   7   1   1 6.66291 2.14969  11
  -7   1  -1 4.22365 3.14755   7
  -9  -1  -1 108.524 11.9737  14
   9  -1   1 115.196 9.15747   5
   9  -1   1 113.531 9.44695  12
   9   1   1 97.7174 9.07171  12
   9   1   1 105.165 8.10986  16
  -9   1  -1 105.966 8.77811   7
   9   1   1 105.930 9.04528   5
  10  -2  -1 140.674 9.99279  16
 -10  -2   1 164.767 13.9106  14
  10  -2  -1 152.320 11.4090  12
  10  -2  -1 147.084 9.91919   5
  10  -2  -1 159.589 11.5671   1
  10   2  -1 157.017 10.7678  12
 -10   2   1 148.129 12.0956   3
 -10   2   1 172.292 11.4802   7
  10   2  -1 161.485 10.4305  16
 -10   2   1 168.128 14.5767  14
  10   2  -1 151.150 10.6684   5
  -8  -2   1 567.426 23.4943   8
   8  -2  -1 556.243 23.3716  16
  -8  -2   1 586.250 26.7322   3
  -8  -2   1 597.577 28.2513  14
   8  -2  -1 615.422 23.7920   5
   8  -2  -1 554.340 24.5908   1
   8  -2  -1 567.553 24.3402  12
   8   2  -1 566.230 24.1054  12
   8   2  -1 565.110 23.5600   5
  -8   2   1 563.742 24.2763   7
  -6  -2   1 1564.19 58.3096   3
  -6  -2   1 1586.24 55.4953   7
   6  -2  -1 1537.02 56.4535   1
   6  -2  -1 1513.02 55.3614   5
  -6  -2   1 1632.54 59.6832  14
   6  -2  -1 1556.49 55.5191  16
  -6  -2   1 1512.57 55.9108   8
   6  -2  -1 1538.50 55.9655  12
   6   2  -1 1630.18 56.0485   5
   6   2  -1 1536.14 56.0923  12
  -6   2   1 1594.99 56.5760   7
   6   2  -1 1610.53 55.0912  11
   6   2  -1 1614.37 57.6544  15
  -6   2   1 1497.19 56.9805  10
  -4  -2   1 1228.63 45.6039   3
   4  -2  -1 1215.83 43.8184   1
  -4  -2   1 1189.47 43.9116   8
   4  -2  -1 1259.73 43.3125   5
  -4  -2   1 1217.54 44.1086   9
  -4  -2   1 1227.50 45.9705  14
   4  -2  -1 1241.48 43.3642  16
   4  -2  -1 1249.48 43.7113  12
  -4   2   1 1237.30 44.2317   7
   4   2  -1 1321.75 43.6096  11
  -4   2   1 1184.58 43.8818   4
   4   2  -1 1319.23 45.3516  15
  -4   2   1 1171.45 43.5902   2
   4   2  -1 1301.90 43.8845   5
  -4   2   1 1225.29 45.2868  10
  -2  -2   1 3621.08 117.354   6
   2  -2  -1 3543.20 117.132   5
   2  -2  -1 3724.19 117.341   1
  -2  -2   1 2887.07 117.098   3
   2  -2  -1 3760.75 118.259  16
  -2  -2   1 3440.38 116.669   9
   2  -2  -1 3755.97 117.218  12
  -2  -2   1 3376.30 116.250   8
  -2  -2   1 3244.12 116.997  14
  -2   2   1 2994.69 116.869   2
  -2   2   1 3195.41 116.182   7
  -2   2   1 3224.91 117.337  10
   2   2  -1 3710.82 125.325  15
   0  -2  -1 3268.68 120.508  15
   0  -2   1 3496.33 119.148   9
   0  -2  -1 3648.10 117.925   1
   0  -2   1 3725.97 118.087   5
   0  -2  -1 3630.72 118.449  16
   0  -2  -1 3693.59 117.808  13
   0  -2   1 3476.41 117.114  12
   0   2   1 3183.55 122.463  15
   0   2   1 3077.84 116.811   2
   0   2   1 2875.46 116.361  10
   0   2  -1 3490.02 116.896   7
  -2  -2  -1 759.003 28.9045   3
  -2  -2  -1 831.018 28.7580   4
  -2  -2  -1 777.001 28.4573  13
   2  -2   1 785.757 27.6247  16
   2  -2   1 844.502 28.4248   9
  -2  -2  -1 779.311 28.0010   6
   2  -2   1 799.938 28.1560  12
   2  -2   1 809.272 28.3192   5
   2  -2   1 745.990 27.7682   1
  -2  -2  -1 791.162 28.6920   8
   2  -2   1 791.608 28.2210  11
   2   2   1 850.979 29.0827  11
  -2   2  -1 801.457 28.6754   4
  -2   2  -1 795.820 28.8659   7
   2   2   1 864.223 29.4708   2
  -2   2  -1 778.539 29.7453  10
   2   2   1 847.194 30.6058  15
  -2   2  -1 776.690 30.0757  15
  -4  -2  -1 1861.11 67.5997   3
   4  -2   1 1898.07 66.4901  11
  -4  -2  -1 1898.55 66.9899   8
  -4  -2  -1 1948.99 66.2697   7
  -4  -2  -1 1927.51 67.6429   4
   4  -2   1 1826.60 66.0130  16
   4  -2   1 1875.92 66.7195  12
   4  -2   1 1945.80 66.8690   5
   4   2   1 1927.03 66.2729   2
   4   2   1 2043.34 67.4441  11
  -4   2  -1 1874.94 67.3589   7
  -4   2  -1 1858.41 67.5412   4
   4   2   1 2038.66 69.9052  15
   4   2   1 2021.61 67.4965   5
  -4   2  -1 1815.99 67.8116  10
   6  -2   1 1159.07 41.7885  11
   6  -2   1 1177.49 42.6864   5
   6  -2   1 1153.06 41.7650  16
  -6  -2  -1 1154.98 43.4609   4
  -6  -2  -1 1142.87 42.2768   8
  -6  -2  -1 1235.76 42.0087   7
   6  -2   1 1070.98 42.7610   1
   6  -2   1 1153.85 42.6039  12
  -6   2  -1 1116.51 43.4037   4
   6   2   1 1190.93 42.3630  11
  -6   2  -1 1160.40 43.0406   7
   6   2   1 1167.49 43.0763   5
   6   2   1 1180.70 45.5252  15
   6   2   1 1119.57 42.6215  12
   8  -2   1 301.739 14.9705   5
  -8  -2  -1 297.586 17.9511  14
   8  -2   1 279.143 14.6740  12
   8  -2   1 337.620 17.4572   1
  -8   2  -1 308.584 15.5209   7
  -8   2  -1 297.681 15.6086   4
   8   2   1 245.804 14.5993  12
   8   2   1 298.768 15.2787   5
  10  -2   1 247.877 14.8351  12
  10  -2   1 261.601 15.2209   5
 -10  -2  -1 274.132 19.3179  14
 -10   2  -1 279.377 15.4894   7
  10   2   1 279.393 15.4684   5
  10   2   1 254.179 15.3162  12
  11  -3  -1 -0.0748 3.83936  12
  11  -3  -1 -0.2506 3.18407   5
 -11  -3   1 2.69584 5.30173  14
  11   3  -1 3.37411 2.73206   5
 -11   3   1 3.65913 4.15953   7
 -11   3   1 3.64633 5.36956  14
  11   3  -1 8.45314 4.73608  12
  -9  -3   1 99.6013 10.4246  14
   9  -3  -1 100.943 8.64493  12
   9  -3  -1 90.0229 8.24691   1
   9  -3  -1 82.3510 6.92256   5
   9   3  -1 106.866 8.35739   5
   9   3  -1 89.6168 8.59496  12
  -9   3   1 100.737 9.06673   7
  -7  -3   1 121.536 10.3028  14
  -7  -3   1 119.211 7.55931   8
   7  -3  -1 113.658 6.80249  16
   7  -3  -1 123.337 7.65025  12
   7  -3  -1 117.008 7.77796   1
  -7  -3   1 141.055 9.69574   3
   7  -3  -1 115.672 7.20128   5
   7   3  -1 111.764 8.35725  15
  -7   3   1 125.341 8.81053   7
   7   3  -1 121.904 6.87022  11
   7   3  -1 134.421 8.27335   5
   7   3  -1 108.494 7.76649  12
  -7   3   1 108.778 8.73234  10
   5  -3  -1 222.101 9.85607  16
  -5  -3   1 221.772 10.6752   8
   5  -3  -1 231.169 9.99041   5
   5  -3  -1 225.295 10.4650   1
  -5  -3   1 224.699 12.7090  14
  -5  -3   1 217.975 11.9416   3
   5  -3  -1 231.137 10.3638  12
   5   3  -1 253.877 10.9794   5
  -5   3   1 241.772 12.6037  10
  -5   3   1 219.090 10.4088   2
   5   3  -1 243.538 10.5436  11
   5   3  -1 238.967 12.3970  15
  -5   3   1 245.814 11.4366   7
  -3  -3   1 92.1254 4.57365   6
  -3  -3   1 93.1747 5.36725   9
  -3  -3   1 78.5296 4.75347   8
   3  -3  -1 86.9164 4.24557  16
   3  -3  -1 77.1281 4.38604   1
  -3  -3   1 92.5398 6.03258   3
   3  -3  -1 90.8190 4.24737   5
  -3  -3   1 92.1992 5.85991  14
   3  -3  -1 84.1320 4.39375  12
   3   3  -1 88.5020 5.48135  15
  -3   3   1 99.8663 6.56120  10
  -3   3   1 90.5651 5.65192   2
  -3   3   1 87.1336 5.08850   7
   1  -3  -1 344.283 12.3837  13
   1  -3  -1 324.507 12.6479   1
  -1  -3   1 363.644 13.6786   9
   1  -3  -1 341.506 12.5605  16
   1  -3  -1 329.574 12.5986  12
  -1  -3   1 343.578 13.5266  14
  -1  -3   1 348.291 14.2239   3
  -1  -3   1 346.215 12.7291   6
  -1  -3   1 325.911 13.0206   8
  -1   3   1 359.569 14.4030  10
  -1   3   1 353.158 14.7555   2
  -1   3   1 366.078 12.7632   7
  -1  -3  -1 1787.67 60.7119   1
  -1  -3  -1 1718.86 60.2397   4
  -1  -3  -1 1800.39 60.5842  13
  -1  -3  -1 1552.21 60.7576  14
   1  -3   1 1771.91 59.8012  16
   1  -3   1 1809.56 60.8126   9
   1  -3   1 1729.88 60.4172   5
  -1  -3  -1 1786.10 60.2623   6
   1  -3   1 1768.00 60.3333  12
  -1   3  -1 1694.61 62.5540  10
  -1   3  -1 1773.08 61.1109   7
   1   3   1 1820.21 61.0170  10
   1   3   1 1863.10 62.6557   2
   1   3   1 1768.13 61.1593  11
   1   3   1 1774.69 62.4083  15
  -1   3  -1 1787.15 60.4982   4
  -3  -3  -1 258.244 11.5509   8
   3  -3   1 270.892 11.0574   5
   3  -3   1 278.339 10.3892   9
  -3  -3  -1 261.126 10.6855   6
  -3  -3  -1 260.738 11.3641   4
   3  -3   1 265.966 10.5457   1
  -3  -3  -1 259.935 12.3561  14
   3  -3   1 270.136 10.2932  16
  -3  -3  -1 285.719 11.8304   3
   3  -3   1 267.975 11.0224  12
  -3   3  -1 267.412 11.4597   4
  -3   3  -1 280.998 11.9528   7
   3   3   1 288.643 12.2685   2
   3   3   1 289.025 12.1090  11
   3   3   1 283.144 13.7622  15
  -3   3  -1 270.638 12.7557  10
  -5  -3  -1 577.511 23.2966   4
   5  -3   1 582.899 22.6615  12
  -5  -3  -1 555.484 22.8392   8
   5  -3   1 566.490 22.6300   5
  -5  -3  -1 591.264 23.6105   3
  -5  -3  -1 586.515 21.5074   7
  -5  -3  -1 573.801 25.0576  14
   5  -3   1 545.641 22.0842   1
   5  -3   1 579.823 21.6727  16
  -5   3  -1 581.668 23.2847   7
  -5   3  -1 580.286 24.1043  10
   5   3   1 634.852 23.3992  11
  -5   3  -1 583.153 23.4869   4
   5   3   1 592.094 25.7628  15
   5   3   1 603.701 23.4128   5
   7  -3   1 40.2903 5.10572  12
   7  -3   1 40.9102 4.82922   5
  -7  -3  -1 53.4167 7.80215  14
  -7  -3  -1 46.0645 5.07394   8
  -7   3  -1 39.1095 5.66571   7
  -7   3  -1 41.2447 5.67517   4
   7   3   1 39.1902 5.29360  12
   7   3   1 45.9916 5.74888   5
   7   3   1 42.2993 6.46224  15
   7   3   1 41.4053 4.74265  11
   9  -3   1 -3.2070 2.96044  12
  -9  -3  -1 -0.5198 2.80928  14
   9  -3   1 0.08735 2.39909   5
   9   3   1 -0.9972 2.32131  12
  -9   3  -1 0.20805 2.83682   7
   9   3   1 -2.0866 2.29539   5
 -10  -4   1 206.918 16.9263  14
  10  -4  -1 189.186 11.6075   5
  10  -4  -1 195.369 12.9419  12
 -10   4   1 210.248 13.7611   7
  10   4  -1 184.673 12.8219  12
  10   4  -1 192.614 12.2885   5
   8  -4  -1 92.9588 7.86660  12
   8  -4  -1 107.112 7.59862   5
   8  -4  -1 100.504 6.95102  16
   8  -4  -1 108.568 7.91685   1
  -8  -4   1 108.181 10.1600  14
  -8  -4   1 114.150 8.38615   8
  -8   4   1 93.0127 9.07249  10
  -8   4   1 106.634 9.12663   7
   8   4  -1 94.7167 8.07910  12
   8   4  -1 95.6711 7.40684   5
  -6  -4   1 194.360 11.4975   3
   6  -4  -1 178.672 8.76604   5
   6  -4  -1 162.067 9.21876  12
   6  -4  -1 169.165 8.45122  16
  -6  -4   1 169.550 9.56951   8
  -6  -4   1 175.498 11.5848  14
   6  -4  -1 163.759 9.06118   1
  -6   4   1 178.756 11.6556  10
  -6   4   1 182.356 10.4557   7
   6   4  -1 187.375 9.90318   5
   6   4  -1 189.282 11.6832  15
   6   4  -1 182.431 9.40573  11
  -4  -4   1 2054.06 77.8559   3
   4  -4  -1 2239.08 74.9760  16
  -4  -4   1 2255.14 75.3461   6
   4  -4  -1 2147.01 75.0058   5
   4  -4  -1 2302.04 75.5935  12
  -4  -4   1 2242.97 77.0072   9
  -4  -4   1 2186.46 76.3359   8
  -4  -4   1 1988.91 77.8582  14
   4  -4  -1 2203.25 75.4003   1
   4   4  -1 2208.86 76.3474   2
  -4   4   1 2182.20 76.1349   7
  -4   4   1 1919.16 76.8664   2
   4   4  -1 2210.94 75.6010  11
  -4   4   1 2201.27 78.3865  10
   4   4  -1 2233.95 77.7146  15
   2  -4  -1 483.861 18.6778  12
  -2  -4   1 521.199 20.9849   3
  -2  -4   1 498.010 20.0969  14
   2  -4  -1 498.669 17.8961  13
  -2  -4   1 536.189 20.3870   9
   2  -4  -1 507.187 18.8189   1
  -2  -4   1 494.313 19.5553   8
  -2  -4   1 523.912 18.8589   6
   2  -4  -1 499.542 18.5296  16
  -2   4   1 522.438 21.3759   2
   2   4  -1 497.411 20.3762  15
  -2   4   1 530.034 19.1336   7
  -2   4   1 555.455 21.4711  10
   0  -4   1 10.6944 1.39040   6
   0  -4  -1 12.8319 1.37475  14
   0  -4   1 14.4832 1.98799   9
   0  -4  -1 11.8850 1.58887   1
   0  -4  -1 13.5621 1.58664  16
   0  -4  -1 12.0402 1.36397  13
   0  -4   1 12.5407 1.65323   8
   0  -4   1 13.7265 1.44928  12
   0  -4   1 20.0020 1.45569   1
   0  -4  -1 13.3113 1.27274   6
   0   4   1 11.6028 2.18478  15
   0   4   1 15.1430 3.15315   2
   0   4  -1 12.0684 1.73361   7
   0   4  -1 14.0484 2.79475  10
   0   4  -1 13.6968 1.25113   4
   0   4   1 13.4727 2.54981  10
   2  -4   1 1527.49 52.4940  12
  -2  -4  -1 1458.32 53.4270   3
   2  -4   1 1575.52 52.6191   9
  -2  -4  -1 1507.81 53.4517   8
  -2  -4  -1 1552.51 52.3308   6
   2  -4   1 1473.02 51.6173  16
  -2  -4  -1 1515.47 52.7741  13
   2  -4   1 1473.92 51.8172   1
  -2  -4  -1 1357.64 53.4376  14
   2  -4   1 1492.78 52.5073   5
  -2  -4  -1 1506.81 52.4233   4
   2   4   1 1643.04 52.6973  10
   2   4   1 1487.37 55.0631  15
  -2   4  -1 1440.25 52.4850   4
   2   4   1 1625.11 55.0766   2
  -2   4  -1 1506.89 53.3939   7
  -2   4  -1 1481.89 55.4036  10
   2   4   1 1533.81 53.3478  11
  -4  -4  -1 277.655 12.1845   4
  -4  -4  -1 255.039 13.2909  14
   4  -4   1 280.374 11.7843   5
   4  -4   1 275.012 11.6278  12
  -4  -4  -1 276.382 12.4753   3
  -4  -4  -1 264.391 12.3998   8
   4  -4   1 251.984 10.8646   1
   4  -4   1 256.972 10.5657  16
   4   4   1 283.961 14.6281  15
  -4   4  -1 272.597 14.0344  10
  -4   4  -1 273.998 12.7741   7
   4   4   1 274.250 12.4506   5
   4   4   1 275.211 12.8030  11
   4   4   1 278.337 12.6599   2
  -4   4  -1 268.423 11.9746   4
   6  -4   1 299.015 13.8988  12
  -6  -4  -1 310.841 16.5026  14
  -6  -4  -1 357.325 14.8371   8
   6  -4   1 299.231 14.1317   5
  -6   4  -1 282.897 14.3574   4
  -6   4  -1 289.069 15.3894  10
   6   4   1 287.082 16.6093  15
  -6   4  -1 299.404 15.0502   7
   6   4   1 315.541 14.6145   5
   6   4   1 310.274 14.4057  11
   8  -4   1 485.625 21.1029   5
  -8  -4  -1 474.603 24.9504  14
   8  -4   1 441.069 20.8576  12
  -8  -4  -1 455.151 20.6363   8
  -8   4  -1 453.099 21.7054   4
   8   4   1 436.505 20.5985  12
  -8   4  -1 467.030 21.9766   7
   8   4   1 482.747 21.5324   5
  10  -4   1 19.5441 5.16000  12
  10  -4   1 15.7078 4.05652   5
 -10  -4  -1 19.0705 5.86615  14
  10   4   1 19.0043 4.23981   5
 -10   4  -1 20.1556 4.62690   7
  10   4   1 15.9210 4.30221  12
   9  -5  -1 163.129 10.9617  12
  -9  -5   1 148.575 10.1728   8
  -9  -5   1 175.886 14.9164  14
   9  -5  -1 155.436 10.1627   5
   9   5  -1 127.530 10.3617  12
   9   5  -1 142.808 10.4750   5
  -9   5   1 141.733 10.5429   7
  -7  -5   1 22.0559 4.60676   3
   7  -5  -1 22.2996 3.79069   5
  -7  -5   1 47.4118 7.06844  14
   7  -5  -1 23.3026 3.73249   1
   7  -5  -1 24.8477 3.10989  16
   7  -5  -1 22.5544 4.09479  12
  -7  -5   1 23.2611 4.46045   8
   7   5  -1 25.0072 5.20624  15
  -7   5   1 37.1278 5.17668   7
   7   5  -1 32.0703 5.00789   5
   7   5  -1 24.4238 4.13677  11
  -7   5   1 20.1018 4.84227  10
  -5  -5   1 974.532 41.9097  14
   5  -5  -1 1051.31 38.9852   1
   5  -5  -1 1076.02 39.3200  12
  -5  -5   1 1106.02 39.0084   6
  -5  -5   1 1054.36 41.9683   3
  -5  -5   1 1080.16 40.4273   8
   5  -5  -1 1080.51 38.7986   5
   5  -5  -1 1080.54 38.5117  16
   5   5  -1 1076.37 42.0369  15
   5   5  -1 1093.67 39.5145  11
  -5   5   1 1106.47 40.3281   7
  -5   5   1 1014.45 40.8619   2
   5   5  -1 1095.68 40.0306   2
  -5   5   1 1104.97 42.8781  10
  -3  -5   1 1651.20 64.4925  14
   3  -5  -1 1819.92 62.1520  16
  -3  -5   1 1859.10 62.6255   6
   3  -5  -1 1714.18 61.0995  13
   3  -5  -1 1776.15 62.5479  12
  -3  -5   1 1810.74 64.5527   9
  -3  -5   1 1783.18 65.5302   3
   3  -5  -1 1850.34 62.5715   1
  -3  -5   1 1848.43 63.9200   8
   3   5  -1 1864.55 65.2800  15
   3   5  -1 1808.75 64.8138   2
   3   5  -1 1834.46 63.7176  10
  -3   5   1 1693.74 65.4827   2
  -3   5   1 1835.13 63.2437   7
  -3   5   1 1772.59 65.7491  10
   1  -5  -1 146.696 6.65183   1
  -1  -5   1 146.603 7.60008  14
   1  -5  -1 147.388 5.86485  13
   1  -5  -1 142.540 6.41767  16
   1  -5  -1 138.257 6.35920   6
   1  -5  -1 145.971 6.62937  12
  -1  -5   1 154.379 7.92214   9
  -1  -5   1 133.759 7.12166   8
  -1  -5   1 140.739 6.65268   6
  -1   5   1 158.497 9.04332  10
   1   5  -1 164.701 6.76699   7
  -1   5   1 159.308 6.63876   7
   1   5  -1 130.940 5.92195   4
  -1   5   1 157.307 9.55750   2
   1   5  -1 155.531 8.61570  10
   1  -5   1 79.9527 4.85977   9
   1  -5   1 77.4342 3.87417   1
   1  -5   1 79.5288 3.70586  16
  -1  -5  -1 81.1793 5.24677   8
   1  -5   1 78.4778 4.27443  12
  -1  -5  -1 81.0231 4.61483  14
  -1  -5  -1 83.2745 4.32952  13
   1  -5   1 73.9545 4.01227   8
  -1  -5  -1 78.5199 4.07532   6
  -1   5  -1 89.7428 5.12788   7
   1   5   1 83.1320 5.47681  10
   1   5   1 78.8209 6.01261  15
   1   5   1 80.0961 6.76692   2
  -1   5  -1 82.2297 6.46670  10
  -1   5  -1 79.7767 3.88403   4
  -3  -5  -1 443.631 20.0190  14
  -3  -5  -1 494.996 19.9964   3
   3  -5   1 477.596 17.6211  16
   3  -5   1 481.621 18.7781   5
   3  -5   1 497.621 18.8239  12
  -3  -5  -1 489.774 19.9424   8
  -3  -5  -1 495.385 18.4524   6
   3  -5   1 414.986 17.7647   1
  -3   5  -1 485.080 18.8351   4
   3   5   1 496.432 19.9062  11
   3   5   1 499.929 21.8268  15
   3   5   1 505.783 20.9637   2
  -3   5  -1 515.397 22.2147  10
  -3   5  -1 526.619 20.0394   7
   5  -5   1 163.844 8.59280   5
   5  -5   1 155.141 8.39741  12
  -5  -5  -1 147.438 10.0516  14
  -5  -5  -1 151.074 9.18552   8
   5   5   1 152.526 11.3747  15
   5   5   1 152.837 9.07906   5
  -5   5  -1 142.974 10.1996  10
  -5   5  -1 148.760 9.62238   7
   5   5   1 145.540 9.24313  11
  -5   5  -1 156.363 8.69137   4
   7  -5   1 658.557 26.1263   5
  -7  -5  -1 645.128 26.6572   8
  -7  -5  -1 658.926 29.4885  14
   7  -5   1 607.782 25.7119  12
  -7   5  -1 619.191 28.0209  10
  -7   5  -1 616.791 26.3803   4
   7   5   1 574.928 28.5677  15
   7   5   1 605.852 26.1682   5
  -7   5  -1 615.079 26.9006   7
   7   5   1 609.999 25.5194  11
   9  -5   1 173.412 11.6965  12
  -9  -5  -1 190.923 15.2969  14
   9  -5   1 180.375 11.9146   5
   9   5   1 151.753 11.5271  12
  -9   5  -1 172.368 12.0357   7
   9   5   1 163.470 11.6903   5
  10  -6  -1 303.856 15.8541   5
 -10  -6   1 305.637 21.0397  14
 -10  -6   1 314.118 16.8241   8
  10  -6  -1 300.084 16.9830  12
  10   6  -1 313.181 16.6806   5
  10   6  -1 300.413 16.8528  12
 -10   6   1 280.561 16.7307   7
   8  -6  -1 142.700 9.42355   5
  -8  -6   1 151.988 12.5177  14
   8  -6  -1 154.927 10.3108  12
  -8  -6   1 148.558 10.8535   8
  -8   6   1 158.489 10.8491   7
  -8   6   1 149.844 12.0196  10
   8   6  -1 147.365 10.4235   5
   6  -6  -1 13.3046 2.84153   5
   6  -6  -1 13.9766 2.79425   1
  -6  -6   1 17.2710 4.61313  14
   6  -6  -1 20.1569 3.69584  12
  -6  -6   1 13.7126 3.31611   8
  -6  -6   1 16.2647 2.79740   6
  -6  -6   1 9.99679 3.52978   3
   6  -6  -1 12.7985 2.40540  16
   6   6  -1 13.2291 4.32720  15
   6   6  -1 16.5645 3.81496  11
  -6   6   1 15.9982 4.41560   7
  -6   6   1 10.8851 5.49836  10
   6   6  -1 13.9233 3.19484   5
  -4  -6   1 528.859 23.4257   3
  -4  -6   1 511.134 21.6787   8
  -4  -6   1 475.805 22.6092  14
   4  -6  -1 500.256 20.0139   1
  -4  -6   1 524.193 20.1928   6
   4  -6  -1 501.048 19.5573  16
   4  -6  -1 500.008 20.2635  12
   4   6  -1 519.079 23.2171  15
  -4   6   1 522.869 23.7089   2
  -4   6   1 521.437 21.0149   7
   4   6  -1 523.544 22.4707   2
  -4   6   1 574.390 24.9168  10
   2  -6  -1 118.624 5.91732  16
  -2  -6   1 129.688 6.36681   6
  -2  -6   1 135.995 8.69837   3
   2  -6  -1 127.576 6.35268   1
  -2  -6   1 141.683 8.17558   9
   2  -6  -1 127.504 6.55817  12
  -2  -6   1 121.437 7.47769  14
  -2  -6   1 119.205 7.28424   8
   2   6  -1 122.391 8.39215  15
  -2   6   1 136.788 9.66732  10
  -2   6   1 134.844 6.82948   7
   2   6  -1 126.750 5.97659   7
  -2   6   1 126.378 9.64763   2
   2   6  -1 132.007 8.10956  10
   0  -6  -1 359.991 15.5016   8
   0  -6  -1 359.297 14.5833   1
   0  -6   1 343.216 14.8126   8
   0  -6   1 356.960 14.5636   6
   0  -6  -1 359.604 14.2978   6
   0  -6   1 383.437 15.9138   9
   0  -6  -1 356.450 13.8440  13
   0   6  -1 378.687 14.8545   7
   0   6   1 363.120 13.5722   7
   0   6   1 388.096 16.7648  10
   0   6  -1 378.722 17.7764  10
   0   6   1 403.904 18.4276   2
   0   6   1 365.779 16.9390  15
  -2  -6  -1 1707.87 59.8381   6
  -2  -6  -1 1815.50 61.9734   8
  -2  -6  -1 1567.30 60.9862  14
   2  -6   1 1742.43 60.6889   9
   2  -6   1 1742.74 60.1136  12
   2  -6   1 1610.79 59.1472   1
   2   6   1 1871.83 64.1961   2
  -2   6  -1 1576.00 59.3260   4
   2   6   1 1754.66 61.3383  11
  -2   6  -1 1688.73 64.2093  10
   2   6   1 1720.21 63.5888  15
   2   6   1 1764.85 61.0416  10
  -2   6  -1 1748.51 61.1689   7
  -4  -6  -1 53.5891 5.71278  14
  -4  -6  -1 64.2005 6.06829   8
  -4  -6  -1 79.3711 5.02223   6
   4  -6   1 64.3349 5.11392   5
   4  -6   1 62.4966 5.04499  12
  -4   6  -1 75.3735 8.23659  10
   4   6   1 67.5244 7.72930  15
  -4   6  -1 67.4673 6.59006   7
   4   6   1 75.7612 6.55199  11
  -4   6  -1 61.6548 4.82318   4
   4   6   1 62.2210 6.69675   2
   6  -6   1 9.33432 3.06629  12
  -6  -6  -1 7.27083 3.24581   8
  -6  -6  -1 3.88149 3.22510  14
   6  -6   1 4.86279 2.78371   5
  -6   6  -1 25.6136 6.20760  10
   6   6   1 7.17362 3.75867   5
  -6   6  -1 9.26406 4.32381   7
   6   6   1 5.04561 3.25252  15
   6   6   1 12.6159 3.98432  11
  -6   6  -1 5.88716 2.78070   4
  -8  -6  -1 258.742 17.1350  14
  -8  -6  -1 248.988 14.4312   8
   8  -6   1 241.294 13.7477  12
   8  -6   1 242.318 13.4575   5
   8   6   1 225.974 13.3181   5
  -8   6  -1 240.151 15.5233   7
   8   6   1 240.834 13.0163  11
   9  -7  -1 17.8676 4.55860   5
  -9  -7   1 18.2153 5.42219  14
   9  -7  -1 13.4498 4.87185  12
  -9  -7   1 9.02089 3.63204   8
  -9   7   1 9.58480 5.80924  10
  -9   7   1 6.48802 3.84789   7
   9   7  -1 11.0633 4.64665   5
   7  -7  -1 207.338 11.1637   5
  -7  -7   1 205.309 14.7615  14
  -7  -7   1 220.697 13.4655   8
   7  -7  -1 211.495 12.1999  12
  -7   7   1 236.794 13.7909   7
  -7   7   1 197.110 14.7346  10
   7   7  -1 221.969 12.6161   5
   7   7  -1 213.391 12.4827  11
  -5  -7   1 151.001 11.0177  14
   5  -7  -1 156.229 7.97648  16
   5  -7  -1 162.369 8.56905   1
  -5  -7   1 159.233 10.2897   8
  -5  -7   1 157.841 8.51061   6
  -5  -7   1 169.939 11.5829   3
   5  -7  -1 165.831 9.18841  12
  -5   7   1 169.527 11.9904   2
  -5   7   1 177.748 9.90081   7
   5   7  -1 166.871 10.7675   2
   5   7  -1 144.807 11.2401  15
   5   7  -1 159.302 9.69373  11
  -5   7   1 168.489 13.5243  10
   3  -7  -1 88.8514 5.81018  12
  -3  -7   1 89.9420 7.05774  14
  -3  -7   1 85.8482 5.63878   6
  -3  -7   1 91.0293 6.97532   8
   3  -7  -1 85.9806 5.08934  16
   3  -7  -1 91.1125 5.50387   1
   3   7  -1 88.2238 7.99783  15
  -3   7   1 95.6472 6.36311   7
  -3   7   1 92.3781 9.42257  10
   3   7  -1 90.7052 8.25996   2
   3   7  -1 83.3287 6.46464  10
  -3   7   1 85.8184 8.88248   2
  -1  -7   1 382.362 16.8185   8
   1  -7  -1 383.446 16.7126   8
  -1  -7   1 433.358 18.2355   9
   1  -7  -1 392.212 15.8111   6
  -1  -7   1 369.980 15.7604   6
   1  -7  -1 399.983 16.0156   1
   1   7  -1 411.938 19.0561  10
  -1   7   1 392.065 15.4473   7
  -1   7   1 417.129 20.3536   2
  -1   7   1 423.103 19.2498  10
  -1   7   1 381.654 18.4820  15
   1   7  -1 407.233 15.7574   7
   1  -7   1 47.8053 3.85626  12
  -1  -7  -1 44.3351 5.05648   8
   1  -7   1 41.0439 4.36171   9
  -1  -7  -1 45.5449 3.35856   6
   1  -7   1 40.7512 3.38076   8
   1  -7   1 38.3490 3.14342   1
  -1  -7  -1 42.9355 4.86626  14
   1   7   1 47.2113 5.50070  15
  -1   7  -1 48.7144 6.79949  10
  -1   7  -1 38.9970 4.31815   7
   1   7   1 37.2567 4.91898  10
   1   7   1 44.3121 6.77616   2
  -3  -7  -1 0.39354 1.51681  14
  -3  -7  -1 -0.9648 1.44255   8
   3  -7   1 4.42064 2.04569  12
  -3  -7  -1 1.12593 1.64124   6
   3   7   1 -0.9766 1.82638  11
  -3   7  -1 5.06076 2.98979   7
  -3   7  -1 0.44692 2.72093  10
   3   7   1 2.05443 2.38510  15
   3   7   1 2.99806 3.74122   2
  -5  -7  -1 491.595 23.0761  14
  -5  -7  -1 513.304 20.0299   6
  -5  -7  -1 492.827 22.1926   8
   5  -7   1 492.656 20.7404   5
   5  -7   1 496.102 20.5868  12
   5   7   1 452.681 24.0279  15
   5   7   1 448.905 20.8509   5
  -5   7  -1 514.089 22.3133   7
   5   7   1 491.707 21.5873  11
  -5   7  -1 495.510 23.9079   2
  -5   7  -1 477.001 24.8165  10
   7  -7   1 62.5747 6.48961  12
  -7  -7  -1 49.4398 8.69717  14
  -7  -7  -1 71.4152 8.00024   8
   7  -7   1 67.5222 6.81006   5
   7   7   1 64.6634 6.78755  11
   7   7   1 64.4719 7.10886   5
  -7   7  -1 66.1837 8.29544   7
  -7   7  -1 71.2915 9.94629  10
   9  -7   1 1.27130 3.48552  12
  -9  -7  -1 3.90897 3.69960   8
   9  -7   1 -1.4077 3.28928   5
   9   7   1 -3.4644 3.24837  12
   9   7   1 6.18295 3.31047   5
  -9   7  -1 3.34601 3.98575   7
   8  -8  -1 461.160 22.4489  12
  -8  -8   1 503.922 26.8465  14
  -8  -8   1 514.762 24.5678   8
  -8   8   1 481.673 27.2493  10
  -8   8   1 527.280 24.5266   7
   8   8  -1 484.372 22.9988   5
   6  -8  -1 474.014 21.3211  12
  -6  -8   1 509.026 21.0489   6
  -6  -8   1 478.739 23.2086   8
  -6  -8   1 482.450 24.9095  14
  -6   8   1 519.306 22.9156   7
  -6   8   1 511.819 26.6455  10
   6   8  -1 479.114 22.0423  11
  -4  -8   1 79.2775 7.28020   8
   4  -8  -1 82.7078 6.35904  12
  -4  -8   1 72.3626 7.23139  14
   4  -8  -1 74.2120 5.12594  16
  -4  -8   1 71.8977 5.41041   6
   4  -8  -1 88.4703 5.75013   1
   4   8  -1 76.5285 8.27183   2
  -4   8   1 91.0231 9.63191   2
   4   8  -1 77.5933 8.57483  15
  -4   8   1 88.7534 10.7361  10
  -4   8   1 99.6872 7.38445   7
   2  -8  -1 851.531 31.9763  12
  -2  -8   1 850.609 31.8117   6
  -2  -8   1 821.377 33.7152  14
   2  -8  -1 860.392 31.3099  16
   2  -8  -1 791.992 32.2899   8
   2  -8  -1 811.580 31.5457   1
  -2  -8   1 849.669 33.5806   8
   2  -8  -1 849.323 31.7546   6
   2   8  -1 860.557 35.7418  15
  -2   8   1 886.597 31.7186   7
   2   8  -1 900.584 36.7681   2
  -2   8   1 873.397 37.3812   2
  -2   8   1 865.641 36.4524  10
   2   8  -1 844.323 34.3094  10
   0  -8  -1 1759.73 61.3644   1
   0  -8  -1 1723.97 60.7911   6
   0  -8   1 1743.61 61.3263   6
   0  -8  -1 1729.35 62.8095   8
   0  -8   1 1565.91 61.6065   8
   0  -8   1 1728.11 62.9985   9
   0   8   1 1707.18 64.1691  10
   0   8   1 1741.74 65.0548  15
   0   8  -1 1763.05 65.6027  10
   0   8   1 1781.25 66.5555   2
   0   8  -1 1723.68 61.0865   7
  -2  -8  -1 658.149 26.8907   8
  -2  -8  -1 626.726 24.3490   6
   2  -8   1 619.257 24.9675   6
   2  -8   1 616.900 24.6504  12
   2   8   1 639.706 29.0056   2
   2   8   1 599.665 28.5317  15
  -2   8  -1 641.233 29.8876  10
   2   8   1 750.855 28.9964  10
  -2   8  -1 615.819 25.5100   7
   2   8   1 602.071 25.9953  11
  -4  -8  -1 585.702 25.2138   8
  -4  -8  -1 584.212 22.6636   6
   4  -8   1 588.907 23.2879  12
  -4   8  -1 572.888 28.4279  10
   4   8   1 536.380 27.2604  15
   4   8   1 552.721 26.1005   2
  -4   8  -1 563.389 24.5347   7
   4   8   1 546.919 24.2584  11
  -4   8  -1 571.266 27.9840   2
   6  -8   1 291.493 14.7731  12
   6  -8   1 292.224 14.8618   5
  -6  -8  -1 276.338 15.9226   8
   6   8   1 295.298 16.0549  11
  -6   8  -1 314.788 16.8155   7
  -6   8  -1 287.603 18.6598  10
   6   8   1 277.192 15.3060   5
  -8  -8  -1 64.1718 7.98224   8
   8  -8   1 61.3274 7.09097   5
   8  -8   1 62.1226 7.06894  12
   8   8   1 49.0818 7.01863   5
  -8   8  -1 59.0348 7.82946   7
  -8   8  -1 59.0133 9.70403  10
   8   8   1 57.9335 6.27006  11
  -7  -9   1 115.273 9.92838   8
   7  -9  -1 127.240 9.58358  12
   7   9  -1 116.400 10.4966  11
  -7   9   1 123.118 10.9618   7
  -7   9   1 142.452 15.2836  10
   7   9  -1 112.015 10.1905   5
  -5  -9   1 0.81664 1.93709   6
  -5  -9   1 4.58077 3.67220   8
   5  -9  -1 4.97863 3.11575  12
  -5  -9   1 -0.6254 2.48430  14
   5   9  -1 -0.1824 4.15539   2
   5   9  -1 2.54938 2.89166  11
  -5   9   1 -0.8984 5.81236  10
  -5   9   1 2.94797 3.69501   2
  -5   9   1 2.55755 3.74324   7
  -3  -9   1 2.14847 2.28657   6
   3  -9  -1 -0.3431 1.55903  12
   3  -9  -1 2.95313 1.71188  16
  -3  -9   1 -0.4223 2.58811   8
   3  -9  -1 -1.2510 1.58758   1
  -3  -9   1 1.26263 2.01163  14
   3  -9  -1 3.29603 1.75950   6
  -3   9   1 2.73804 2.79605   7
  -3   9   1 -1.1713 2.92981   2
  -3   9   1 7.58847 4.34347  10
   3   9  -1 10.4884 4.24107   2
   3   9  -1 0.62497 3.59214  15
   1  -9  -1 313.799 14.0559   6
  -1  -9   1 301.487 15.2807   8
   1  -9  -1 330.214 14.3488   1
   1  -9  -1 299.800 15.1610   8
  -1  -9   1 315.218 14.2986   6
  -1   9   1 311.025 17.3749  15
   1   9  -1 321.137 18.6118   2
   1   9  -1 308.608 17.4061  15
  -1   9   1 322.685 18.9059   2
  -1   9   1 347.358 18.1690  10
   1   9  -1 324.335 17.3725  10
   1  -9   1 168.892 9.35835   6
  -1  -9  -1 160.950 10.2513   8
  -1  -9  -1 167.110 8.82046   6
   1   9   1 169.142 12.1145  15
   1   9   1 170.629 11.4312  10
  -1   9  -1 160.025 12.4431  10
  -1   9  -1 166.367 9.37646   7
  -1   9  -1 166.805 13.5600   2
   1   9   1 186.840 13.3989   2
  -3  -9  -1 43.7929 6.34963   8
   3  -9   1 42.7778 4.98453   6
   3  -9   1 44.2412 4.73272  12
  -3  -9  -1 50.9628 5.01355   6
  -3   9  -1 43.9167 8.33928   2
  -3   9  -1 41.3367 8.13818  10
   3   9   1 51.5463 6.06582  11
   3   9   1 37.0943 6.59939   2
  -3   9  -1 44.9480 5.80359   7
   5  -9   1 106.808 7.73684  12
  -5  -9  -1 102.339 7.44515   6
  -5  -9  -1 107.953 9.05769   8
  -5   9  -1 100.715 11.0662   2
  -5   9  -1 101.777 12.6493  10
  -5   9  -1 96.4291 9.66498   7
   5   9   1 103.588 8.75088  11
  -7  -9  -1 2.37355 4.13280   8
   7  -9   1 3.49382 3.60816  12
   7   9   1 3.74324 4.16525  11
   7   9   1 6.34594 4.73984   5
  -7   9  -1 5.80938 6.88549  10
  -7   9  -1 5.55167 5.29117   7
  -8 -10   1 12.8914 5.42263   8
   8 -10  -1 4.93968 3.23087  12
  -8  10   1 3.82968 4.99885   7
  -8  10   1 4.84350 7.04103  10
   8  10  -1 9.85352 5.06234   5
  -6 -10   1 9.01399 3.00992   6
  -6 -10   1 14.0851 4.39763   8
   6 -10  -1 9.51728 3.88753  12
   6 -10  -1 9.48271 3.80745   6
  -6  10   1 9.14411 6.12104  10
  -6  10   1 2.78152 4.16596   7
   6  10  -1 3.92430 4.72703  11
  -4 -10   1 7.56021 4.08268   8
   4 -10  -1 2.96432 2.40680  12
  -4 -10   1 5.28780 3.00924   6
   4 -10  -1 6.08559 2.43937   6
  -4  10   1 7.04661 5.96695   2
   4  10  -1 14.9460 4.86127  11
  -4  10   1 5.42992 6.08543  10
   4  10  -1 6.01920 5.37745   2
  -4  10   1 7.66947 3.60709   7
   2 -10  -1 2.37158 2.28055   1
  -2 -10   1 1.65816 2.49221   6
   2 -10  -1 7.13612 2.65737   6
  -2 -10   1 5.17448 2.47492   8
   2  10  -1 4.41321 5.17436   2
  -2  10   1 2.56203 4.11552   2
   2  10  -1 3.82530 3.72457  10
  -2  10   1 4.67399 5.52808  10
  -2  10   1 1.16155 2.20945  15
   0 -10  -1 47.4277 6.01113   8
   0 -10   1 40.0463 5.48403   8
   0 -10   1 38.3202 4.44113   6
   0 -10  -1 37.9446 4.44158   6
   0  10  -1 48.1102 8.57695   2
   0  10   1 49.5885 8.23786   2
   0  10   1 40.2996 7.09506  10
   0  10  -1 44.1559 7.78768  10
  -2 -10  -1 140.846 10.6872   8
   2 -10   1 146.623 8.85809   6
  -2 -10  -1 137.425 8.39346   6
  -2  10  -1 138.888 13.3558  10
  -2  10  -1 137.825 13.6277   2
  -2  10  -1 128.570 9.02913   7
   2  10   1 148.059 13.9824   2
   2  10   1 133.120 9.75274  11
  -4 -10  -1 11.6130 4.57630   8
  -4 -10  -1 2.18565 2.68431   6
   4 -10   1 0.78104 2.95199   6
   4 -10   1 -4.6930 2.52857  12
   4  10   1 1.54041 5.47559   2
  -4  10  -1 0.97184 4.66223   2
  -4  10  -1 5.07549 3.92018   7
   4  10   1 2.62958 4.45292  11
  -4  10  -1 0.82233 6.12231  10
   6 -10   1 48.3053 6.27231  12
   6 -10   1 43.7151 6.01408   6
  -6 -10  -1 45.6651 6.83021   8
   6  10   1 32.1440 5.49095   5
  -6  10  -1 36.7376 6.84350   7
   6  10   1 37.6618 7.23037  11
  -6  10  -1 54.0087 11.2467  10
   7 -11  -1 65.5281 7.84924  12
  -7 -11   1 65.5479 9.33928   8
   7 -11  -1 62.3885 7.67735   6
  -7  11   1 52.2237 11.1316  10
  -7  11   1 44.7812 6.14331   7
   7  11  -1 60.6442 8.36921  11
   7  11  -1 53.6751 8.03595   5
  -5 -11   1 111.583 10.8163   8
   5 -11  -1 97.0135 8.82899  12
  -5 -11   1 93.1506 8.01976   6
   5 -11  -1 90.3043 7.83941   6
  -5  11   1  99.999 13.6741   2
  -5  11   1 109.406 14.7848  10
   5  11  -1 92.5603 9.24676  11
   3 -11  -1 123.077 8.68415   6
  -3 -11   1 108.373 8.35953   6
  -3 -11   1 128.215 10.7604   8
  -3  11   1 123.700 14.4462  10
   3  11  -1 107.008 11.6511   2
  -3  11   1 157.318 15.6208   2
  -1 -11   1 143.612 10.5155   8
  -1 -11   1 134.850 8.70111   6
   1 -11  -1 145.551 8.96804   6
   1  11  -1 156.970 12.9786  10
  -1  11   1 163.092 14.2846  10
  -1  11   1 142.234 15.1356   2
   1  11  -1 134.293 14.1219   2
   1 -11   1 235.797 12.8325   6
  -1 -11  -1 253.443 14.7937   8
  -1 -11  -1 225.469 11.9677   6
  -1  11  -1 246.418 18.8444   2
   1  11   1 213.506 16.9705   2
  -1  11  -1 235.119 17.7253  10
   1  11   1 244.656 14.6869  11
  -3 -11  -1 235.909 15.0283   8
   3 -11   1 213.351 12.8061   6
  -3 -11  -1 221.106 11.8787   6
   3  11   1 219.300 17.2479   2
  -3  11  -1 235.515 18.7580  10
  -3  11  -1 195.689 16.8112   2
   3  11   1 219.487 14.5713  11
   5 -11   1 68.3936 7.47148  12
  -5 -11  -1 70.2555 9.28847   8
   5 -11   1 60.4055 7.83202   6
  -5  11  -1 48.9865 9.59223   2
   5  11   1 47.0856 8.20716  11
  -5  11  -1 52.5261 7.64977   7
  -5  11  -1 53.1346 11.0787  10
  -4 -12   1 370.962 17.9082   6
  -4 -12   1 375.510 20.6831   8
   4 -12  -1 357.267 18.1299   6
  -4  12   1 378.165 25.6300  10
  -4  12   1 371.057 25.4935   2
   4  12  -1 381.154 20.7251  11
  -2 -12   1 239.523 14.9940   8
  -2 -12   1 253.418 13.2160   6
   2 -12  -1 236.312 13.1495   6
  -2  12   1 251.630 20.8245   2
   2  12  -1 257.117 19.7250   2
  -2  12   1 274.197 19.9408  10
   0 -12   1 76.3135 7.38411   6
   0 -12  -1 69.8708 8.01694   8
   0 -12  -1 78.2872 7.05473   6
   0  12   1 70.3101 9.76806  10
   0  12  -1 80.5731 10.8744  10
   0  12  -1 89.5766 13.0524   2
   0  12   1 107.346 14.5131   2
   2 -12   1 85.4073 8.38930   6
  -2 -12  -1 86.8524 7.39632   6
  -2 -12  -1 89.0706 9.89190   8
  -2  12  -1 85.0871 11.6065  10
   2  12   1 83.7189 9.67334  11
  -2  12  -1 83.0963 12.6033   2
   2  12   1 91.7590 11.9257   2
  -4 -12  -1 245.718 16.3985   8
   4 -12   1 232.511 14.4131   6
  -4  12  -1 258.354 21.0430  10
   4  12   1 257.629 16.7468  11
  -4  12  -1 257.565 20.3761   2
   4  12   1 246.248 17.9776   2
  -3 -13   1 1.19061 3.26757   6
  -3 -13   1 1.67278 2.82400   8
   3 -13  -1 -0.7630 1.88854   6
   3  13  -1 -0.8928 6.91599   2
  -3  13   1 11.2537 8.03416   2
  -3  13   1 3.11393 6.84723  10
   3  13  -1 2.17783 3.65960  11
   1 -13  -1 2.89936 2.96931   6
  -1 -13   1 -0.2131 2.97176   6
  -1  13   1 -5.1206 5.17722  10
  -1  13   1 -1.2790 7.19154   2
   1  13  -1 3.88191 5.62484   2
  -1 -13  -1 2.83801 2.97482   8
  -1 -13  -1 8.04566 3.37810   6
   1 -13   1 7.73537 3.81008   6
  -1  13  -1 6.73057 5.57049   2
  -1  13  -1 9.36624 7.58258  10
   1  13   1 4.39340 5.48797   2
   1  13   1 8.70853 4.49666  11
   3 -13   1 3.10734 3.53324   6
  -3 -13  -1 4.58264 3.55727   8
   3  13   1 -1.0825 5.01366   2
   3  13   1 -0.4457 3.64568  11
  -3  13  -1 1.31930 6.77827   2
  -3  13  -1 4.76355 7.54971  10
  12   0  -2 43.6012 7.84018   1
  12   0  -2 54.6296 7.26486  12
 -12   0   2 46.3303 8.58264  14
  10   0  -2 34.3520 4.87380  16
 -10   0   2 33.5460 6.64878   3
 -10   0   2 29.1097 7.08325  14
  10   0  -2 37.2538 6.75581   1
  10   0  -2 34.7947 5.16570   5
  10   0  -2 29.6180 5.78441  12
  -8   0   2 350.233 16.0173   7
   8   0  -2 345.750 15.6239  16
   8   0  -2 335.963 15.1228   5
  -8   0   2 341.649 18.7252  14
   8   0  -2 317.102 15.8582  12
  -8   0   2 353.343 18.6259   3
  -6   0   2 195.979 11.7036  14
   6   0  -2 180.837 9.14897  16
  -6   0   2 189.810 9.22093  10
   6   0  -2 191.221 9.04518  15
  -6   0   2 192.500 9.64514   7
  -6   0   2 183.390 8.70720   8
   6   0  -2 196.519 8.85886   5
   6   0  -2 194.724 9.28690  12
  -4   0   2 3439.55 122.505   7
  -4   0   2 3415.64 123.519  15
   4   0  -2 3660.69 122.204  12
  -4   0   2 3720.73 122.234   8
   4   0  -2 3874.17 122.279  16
   4   0  -2 3745.56 121.785   5
  -4   0   2 3542.72 124.164  14
  -4   0   2 3552.64 122.974  10
  -4   0   2 3338.37 121.690   9
   4   0  -2 3535.68 126.869  15
  -2   0   2 23.2306 1.96071  10
   2   0  -2 14.5087 1.11570  12
   2   0  -2 16.7690 0.85141  15
   2   0  -2 20.0461 1.73778   1
  -2   0   2 14.7693 1.26302   9
   2   0  -2 17.1992 1.26599  16
  -2   0   2 14.5946 1.55728   2
  -2   0   2 21.2209 2.15844   3
   0   0  -2 15.2472 0.93740  16
   0   0   2 15.6901 1.26280  11
   0   0   2 19.6548 1.74945  15
   0   0  -2 15.5822 1.84216  15
   0   0   2 18.2632 1.82784   2
   0   0  -2 17.3977 1.18977  13
   0   0  -2 13.5116 1.27130   4
   2   0   2 28.7934 2.14324  12
  -2   0  -2 40.1363 3.07804   4
  -2   0  -2 31.3602 2.42353   7
   2   0   2 27.6494 2.22655  11
   2   0   2 31.7244 3.37475  15
   2   0   2 31.0849 2.46157   2
  -2   0  -2 29.0098 2.15600  13
   2   0   2 29.2880 2.26030   5
  -4   0  -2 226.007 10.8314   4
  -4   0  -2 213.722 9.08769   8
   4   0   2 220.130 9.78615  12
  -4   0  -2 208.108 9.83393   7
   4   0   2 252.847 10.2303  11
   4   0   2 221.691 10.3135   5
   4   0   2 222.884 11.7617  15
   6   0   2 391.668 16.7963   5
   6   0   2 338.291 15.8904  12
   6   0   2 369.751 15.9052  11
  -6   0  -2 369.638 16.0703   7
   6   0   2 368.599 18.7452  15
  -6   0  -2 381.489 17.3470   4
  -8   0  -2 234.515 12.1684   7
   8   0   2 210.870 12.3125   5
   8   0   2 237.114 13.8709  16
   8   0   2 206.433 12.1285  12
  -8   0  -2 211.456 13.0367   4
  10   0   2 17.3005 4.98305  12
 -10   0  -2 20.1234 7.16587  14
  10   0   2 9.56118 4.33353   5
  11  -1  -2 406.109 18.8652   5
  11  -1  -2 401.127 20.3757  12
  11  -1  -2 365.708 20.5802   1
 -11  -1   2 411.969 24.5657  14
  11  -1  -2 338.921 18.5382  16
 -11   1   2 384.334 22.5188   3
  11   1  -2 367.516 19.4112  12
 -11   1   2 375.485 22.8042  14
  11   1  -2 385.981 21.9934   1
  11   1  -2 374.099 18.5469   5
  -9  -1   2 1238.76 50.9242   3
   9  -1  -2 1259.68 49.2808   1
  -9  -1   2 1311.84 52.6797  14
   9  -1  -2 1295.39 47.0317   5
   9  -1  -2 1213.24 47.4111  16
   9  -1  -2 1257.45 48.1213  12
   9   1  -2 1276.18 48.1530  12
  -9   1   2 1249.66 51.9647  14
   9   1  -2 1242.52 47.7401  16
   9   1  -2 1266.12 47.0460   5
  -9   1   2 1233.65 51.1247   3
  -9   1   2 1273.68 47.9008   7
  -7  -1   2 3237.08 113.610  14
  -7  -1   2 3140.74 109.177   7
   7  -1  -2 3119.99 109.168  16
   7  -1  -2 3067.88 110.752   1
  -7  -1   2 3061.49 108.873   8
   7  -1  -2 3174.82 108.617   5
   7  -1  -2 3156.10 109.535  12
  -7  -1   2 3013.35 112.168   3
  -7   1   2 3131.16 109.794  10
   7   1  -2 3138.68 109.478  12
   7   1  -2 3233.30 109.458  16
   7   1  -2 3064.25 109.456  15
   7   1  -2 3131.48 108.698   5
  -7   1   2 3260.17 110.039   7
   5  -1  -2 1896.98 68.5510   1
  -5  -1   2 1965.97 70.5606  14
   5  -1  -2 1901.89 67.5472  12
  -5  -1   2 1799.44 67.3202   9
  -5  -1   2 1883.17 67.7196   7
   5  -1  -2 1941.94 67.5454  16
   5  -1  -2 1917.97 66.9759   5
  -5  -1   2 1829.62 67.5289   8
  -5  -1   2 1889.52 69.9752   3
   5   1  -2 2017.99 66.4960  11
   5   1  -2 1969.92 67.3332   5
  -5   1   2 1965.45 67.5226  15
   5   1  -2 1980.22 67.7775  12
   5   1  -2 2045.79 68.1077  15
  -5   1   2 2061.10 69.2838  10
  -5   1   2 1978.76 68.2609   7
   3  -1  -2 6238.28 187.407   1
  -3  -1   2 4625.19 184.540  14
   3  -1  -2 5574.30 184.206   5
   3  -1  -2 5965.16 188.142  12
  -3  -1   2 5076.10 186.389   6
   3  -1  -2 5777.33 187.712  16
  -3  -1   2 5563.25 189.516   9
  -3  -1   2 5679.32 189.626   8
  -3   1   2 5001.21 183.836   7
  -3   1   2 5013.53 184.802  10
  -3   1   2 5072.67 185.660  15
   3   1  -2 5693.64 185.119   5
   3   1  -2 5884.68 192.092  15
  -3   1   2 4826.61 187.955   2
   1  -1  -2 8104.40 256.982  16
   1  -1  -2 8466.01 256.120   1
  -1  -1   2 6238.32 259.248   3
   1  -1  -2 7117.56 260.855  15
  -1  -1   2 7340.15 256.468  11
  -1  -1   2 7595.91 259.308  14
   1  -1  -2 7852.53 257.240  13
  -1  -1   2 7712.33 257.972   8
   1   1  -2 8423.40 255.463  16
  -1   1   2 6220.60 259.216  15
  -1  -1  -2 1653.77 57.1853  13
   1  -1   2 1654.66 58.3610  15
   1  -1   2 1669.64 56.7150  12
  -1  -1  -2 1565.30 56.7898   7
   1  -1   2 1615.55 57.2429  11
  -1  -1  -2 1711.43 58.8773  15
   1  -1   2 1680.55 57.0869   5
  -1  -1  -2 1659.97 57.4553   4
  -1   1  -2 1661.77 57.5955   4
  -1   1  -2 1663.38 56.8463  13
   1   1   2 1667.38 58.0052   2
  -1   1  -2 1619.47 57.4678   7
   1   1   2 1735.29 57.7253  11
   1   1   2 1724.60 57.3833   5
  -1   1  -2 1595.66 58.1150  15
   1   1   2 1764.92 59.0698  15
  -3  -1  -2 4307.96 146.475  13
   3  -1   2 4412.53 146.486   5
  -3  -1  -2 4430.20 147.123   4
  -3  -1  -2 3928.52 145.930   3
   3  -1   2 4263.47 146.385  11
   3  -1   2 4296.17 146.056  12
   3  -1   2 4324.38 148.378  15
  -3  -1  -2 4288.23 145.989   7
  -3  -1  -2 4404.87 146.196   8
   3   1   2 4320.39 146.511   2
   3   1   2 4336.32 146.738  11
  -3   1  -2 4141.94 145.588   8
  -3   1  -2 4352.05 147.162   4
   3   1   2 4398.12 149.003  15
   3   1   2 4488.01 146.826   5
  -3   1  -2 3974.71 146.870  10
  -3   1  -2 4274.11 146.072  13
  -3   1  -2 4322.04 146.736   7
   5  -1   2 3209.66 114.203  15
  -5  -1  -2 3153.27 112.299   4
   5  -1   2 3302.30 111.713   5
  -5  -1  -2 3225.07 110.896   7
  -5  -1  -2 3234.39 110.687   8
   5  -1   2 3206.20 111.216  11
   5  -1   2 3138.92 111.186  12
  -5   1  -2 3114.47 111.445   7
   5   1   2 3314.05 114.800  15
  -5   1  -2 3193.39 112.464   4
   5   1   2 3334.93 111.574  11
   5   1   2 3100.88 111.305  12
   5   1   2 3269.80 111.835   5
   7  -1   2 695.913 28.9856  16
  -7  -1  -2 749.105 29.3725   7
   7  -1   2 775.756 30.6269   5
  -7  -1  -2 818.284 31.9902   4
   7  -1   2 749.019 30.3842  12
   7  -1   2 755.674 29.4891  11
  -7   1  -2 758.217 30.3454   7
  -7   1  -2 761.887 31.4380   4
   7   1   2 755.595 30.7401   5
   7   1   2 788.611 29.8555  11
   7   1   2 763.668 33.6587  15
   7   1   2 746.576 30.3472  12
   9  -1   2 905.689 36.3397   5
   9  -1   2 863.905 35.9807  12
  -9  -1  -2 883.445 40.2459  14
  -9   1  -2 839.107 34.8935   7
   9   1   2 925.223 36.4408   5
   9   1   2 835.036 35.6743  12
  10  -2  -2 1451.02 58.1561   1
  10  -2  -2 1556.45 57.9170  12
  10  -2  -2 1415.46 56.3924  16
 -10  -2   2 1635.54 63.8896  14
  10  -2  -2 1510.67 56.3183   5
 -10   2   2 1514.35 57.2800   7
  10   2  -2 1518.88 57.6026  12
 -10   2   2 1514.54 61.3230   3
 -10   2   2 1491.63 61.4600  14
  10   2  -2 1522.07 57.3661  16
   8  -2  -2 1695.81 61.0055  12
   8  -2  -2 1611.84 60.0952  16
  -8  -2   2 1714.45 65.5002  14
   8  -2  -2 1577.18 61.1720   1
  -8  -2   2 1637.47 64.0770   3
   8  -2  -2 1673.12 59.6812   5
  -8  -2   2 1633.58 60.3226   8
   8   2  -2 1650.36 60.7318  12
   8   2  -2 1703.92 60.2177   5
  -8   2   2 1729.12 61.2924   7
  -6  -2   2 3000.18 111.451   3
  -6  -2   2 3100.80 108.828   8
   6  -2  -2 3069.43 107.786   5
   6  -2  -2 3033.36 108.189  16
   6  -2  -2 3186.82 108.751  12
   6  -2  -2 3016.36 108.988   1
  -6  -2   2 3184.13 112.340  14
   6   2  -2 3259.23 109.852  15
  -6   2   2 3168.72 109.250   7
   6   2  -2 3236.11 107.498  11
   6   2  -2 3211.05 108.466   5
  -6   2   2 3063.66 110.163  10
   6   2  -2 3241.75 108.853  12
   4  -2  -2 3573.75 120.078   5
  -4  -2   2 3523.75 120.571   6
  -4  -2   2 3505.45 121.340   9
   4  -2  -2 3654.51 120.714  12
  -4  -2   2 3371.93 122.898  14
   4  -2  -2 3633.70 120.622  16
  -4  -2   2 3313.06 123.172   3
   4  -2  -2 3752.23 121.188   1
  -4  -2   2 3576.26 121.210   8
  -4   2   2 3283.64 121.043   2
   4   2  -2 3820.53 125.350  15
  -4   2   2 3412.97 121.282   7
   4   2  -2 3801.23 120.300  11
  -4   2   2 3360.16 122.595  10
  -4   2   2 3428.76 123.256  15
  -2  -2   2 951.612 34.5960  14
   2  -2  -2 948.543 33.3363  12
   2  -2  -2 969.213 33.7208   1
   2  -2  -2 994.085 33.4997  16
  -2  -2   2 1010.76 35.5476   3
  -2  -2   2 994.525 33.4766   6
   2  -2  -2 966.169 33.3549  13
  -2  -2   2 985.118 34.3210   9
  -2  -2   2 941.575 33.8177   8
  -2   2   2 931.205 33.6137   7
  -2   2   2 958.807 35.1881   2
  -2   2   2 901.945 33.5700  15
  -2   2   2 969.436 35.3443  10
   0  -2  -2 8300.89 256.457  13
   0  -2   2 7237.58 257.378   9
   0  -2  -2 7490.95 261.940  15
   0  -2   2 7276.11 259.082   3
   0  -2  -2 7975.43 255.779   4
   0  -2  -2 8072.71 254.295  16
   0  -2   2 7550.21 256.320   8
   0  -2  -2 8389.30 256.792   1
   0  -2   2 8104.04 254.713  12
   0  -2   2 7765.34 254.817   5
   0   2   2 6246.10 255.748  10
   0   2   2 6894.06 261.052  15
   0   2   2 6696.98 254.683  11
   0   2   2 6263.79 254.982   2
   0   2  -2 7422.03 255.449   4
   0   2  -2 7354.32 255.628   7
  -2  -2  -2 9770.44 311.029  13
  -2  -2  -2 9999.99 311.996   4
   2  -2   2 9073.82 309.310   5
  -2  -2  -2 9122.78 306.274   7
   2  -2   2 8764.17 309.346  11
   2  -2   2 9539.32 308.757  12
   2  -2   2 8998.59 305.474  16
  -2   2  -2 9277.24 307.528  13
  -2   2  -2 8397.09 306.021   7
   2   2   2 8341.37 315.095  15
   2   2   2 8483.63 309.225  11
  -2   2  -2 8142.55 308.333  10
   2   2   2 8130.76 308.771   2
   2   2   2 8981.36 309.816   5
  -2   2  -2 9556.25 310.488   4
  -4  -2  -2 2150.77 77.0317   4
  -4  -2  -2 2186.19 76.4456   8
  -4  -2  -2 2241.06 75.6343   7
   4  -2   2 2205.50 76.4597   5
   4  -2   2 2175.74 76.2371  11
  -4  -2  -2 2029.65 76.3555   3
   4  -2   2 2157.83 75.3038  16
   4  -2   2 2159.86 76.0872  12
  -4   2  -2 2182.77 76.9792   7
   4   2   2 2313.63 79.9208  15
  -4   2  -2 2247.55 77.4786   4
   4   2   2 2260.48 76.9966   5
   4   2   2 2223.98 76.2081   2
   4   2   2 2273.81 76.9401  11
  -4   2  -2 2053.81 77.2488  10
  -6  -2  -2 1389.36 51.0284   4
   6  -2   2 1380.16 50.1553   5
  -6  -2  -2 1313.64 49.1210   8
   6  -2   2 1348.26 49.8130  12
   6  -2   2 1421.93 49.6453  11
   6  -2   2 1256.15 48.4298  16
   6   2   2 1420.42 50.0259  11
   6   2   2 1315.91 49.8012  12
   6   2   2 1413.45 53.7369  15
   6   2   2 1381.53 50.4374   5
  -6   2  -2 1352.14 50.1456   7
  -6   2  -2 1365.83 51.2815   4
   8  -2   2 760.704 32.8161  12
   8  -2   2 827.580 33.7215   5
  -8  -2  -2 855.175 37.9218  14
  -8  -2  -2 824.925 34.4825   4
   8   2   2 846.813 33.7401   5
   8   2   2 800.439 33.3061  12
  -8   2  -2 834.327 34.7211   4
  -8   2  -2 848.431 33.6750   7
 -10  -2  -2 316.118 20.9067  14
  10  -2   2 294.397 16.8876   5
  10  -2   2 290.668 16.7341  12
  10   2   2 294.672 16.7985   5
  10   2   2 300.481 16.8050  12
 -11  -3   2 25.7236 7.76332  14
  11  -3  -2 25.3826 4.76605   5
  11  -3  -2 22.5453 5.70103  12
  11  -3  -2 16.2856 6.05857   1
 -11   3   2 25.3001 5.55746   7
 -11   3   2 20.8656 6.49090  14
  11   3  -2 28.1565 5.27894   5
  11   3  -2 16.7350 4.36794  12
 -11   3   2 22.6197 6.46801   3
  -9  -3   2 260.594 13.9444   8
   9  -3  -2 300.501 14.0732   5
   9  -3  -2 272.163 14.0072  16
   9  -3  -2 267.226 15.1144   1
  -9  -3   2 273.197 18.5055  14
   9  -3  -2 284.372 15.0337  12
  -9  -3   2 278.964 17.0622   3
   9   3  -2 258.978 14.2272  12
   9   3  -2 293.137 14.3055   5
  -9   3   2 284.589 15.0167   7
   7  -3  -2 816.356 32.2802   1
  -7  -3   2 860.428 36.0882  14
   7  -3  -2 821.642 30.9228   5
  -7  -3   2 819.267 32.1668   8
   7  -3  -2 841.070 31.9551  12
   7  -3  -2 812.999 31.2808  16
  -7  -3   2 846.261 34.9207   3
   7   3  -2 848.533 33.2280  15
  -7   3   2 802.734 32.2831   7
   7   3  -2 807.275 31.8682  12
  -7   3   2 818.141 33.6006  10
   7   3  -2 819.083 31.5750   5
  -5  -3   2 192.339 10.9692   3
  -5  -3   2 178.033 9.22372   8
   5  -3  -2 190.519 8.58827  16
  -5  -3   2 205.464 9.77125   9
   5  -3  -2 198.960 8.88333  12
  -5  -3   2 180.606 10.8967  14
  -5  -3   2 188.480 8.73297   6
   5  -3  -2 179.646 9.09026   1
   5  -3  -2 185.120 8.11483   5
   5   3  -2 203.133 10.4151  15
   5   3  -2 176.348 8.34583   2
   5   3  -2 187.392 8.49533  11
  -5   3   2 200.811 11.3883  10
  -5   3   2 184.803 9.36898   2
  -5   3   2 194.625 9.86659   7
   5   3  -2 195.556 9.11176   5
  -3  -3   2 1424.20 50.7170   9
  -3  -3   2 1437.16 49.6069   6
  -3  -3   2 1392.38 51.3718  14
   3  -3  -2 1431.55 49.1567  13
  -3  -3   2 1476.01 52.4890   3
   3  -3  -2 1431.39 49.0649   5
   3  -3  -2 1422.42 49.4641  16
   3  -3  -2 1417.32 49.8258   1
  -3  -3   2 1409.41 50.2310   8
   3  -3  -2 1462.57 49.5767  12
  -3   3   2 1422.10 50.0631   7
   3   3  -2 1454.30 50.7424  15
  -3   3   2 1373.37 51.4983   2
  -3   3   2 1405.75 52.0185  10
  -1  -3   2 3523.34 122.878   9
  -1  -3   2 3858.35 122.022   6
  -1  -3   2 3581.36 122.086   8
  -1  -3   2 3759.19 123.257  14
   1  -3  -2 3902.90 124.924  16
   1  -3  -2 3830.66 122.114   1
   1  -3  -2 3860.47 123.788  13
   1  -3  -2 3661.18 122.778   6
   1  -3  -2 3819.69 123.190  12
  -1  -3   2 3591.99 123.944   3
  -1   3   2 3221.79 122.170   7
  -1   3   2 3202.31 123.443  10
  -1   3   2 3140.12 124.073   2
  -1   3   2 3344.68 123.141  15
  -1  -3  -2 1124.31 39.9928   1
  -1  -3  -2 1146.85 39.9776  13
  -1  -3  -2 1163.28 39.8079   4
  -1  -3  -2 1156.76 39.3487   6
   1  -3   2 1127.11 38.5996  16
  -1  -3  -2 955.662 39.8323  14
   1  -3   2 1088.76 39.7394   5
   1  -3   2 1111.14 39.4589  12
   1  -3   2 1159.70 40.4119   9
  -1   3  -2 1177.20 40.6637   7
   1   3   2 1212.99 42.5023   2
   1   3   2 1171.36 40.9313  11
  -1   3  -2 1168.76 40.1880   4
   1   3   2 1151.92 40.0132  10
   1   3   2 1213.35 42.7803  15
  -3  -3  -2 1560.01 54.0498   7
   3  -3   2 1593.09 55.4784  11
  -3  -3  -2 1556.28 55.6745  13
   3  -3   2 1559.52 55.4251   5
  -3  -3  -2 1531.75 55.8367   8
   3  -3   2 1571.13 55.1317  12
   3  -3   2 1555.62 54.1085  16
   3  -3   2 1633.39 55.2611   9
  -3  -3  -2 1586.47 55.9187   4
   3  -3   2 1514.54 54.3545   1
   3   3   2 1614.77 56.1160   5
  -3   3  -2 1519.42 55.9692   4
  -3   3  -2 1606.31 56.3893   7
   3   3   2 1614.60 56.4130  11
  -3   3  -2 1512.68 57.5876  10
   3   3   2 1695.87 56.8611   2
   3   3   2 1619.86 58.8274  15
  -5  -3  -2 636.205 27.0011  14
   5  -3   2 648.324 24.4327  11
   5  -3   2 652.959 24.8321   5
  -5  -3  -2 636.887 25.3212   4
   5  -3   2 557.205 22.9263  16
  -5  -3  -2 608.210 24.6124   8
   5  -3   2 639.689 24.3935  12
   5   3   2 641.405 28.0248  15
   5   3   2 632.265 24.8369  11
  -5   3  -2 646.321 25.4712   7
  -5   3  -2 627.760 25.5123   4
  -5   3  -2 591.893 25.5325  10
   5   3   2 645.380 25.2715   5
   7  -3   2 19.0448 3.99384   5
  -7  -3  -2 22.5633 4.59166   4
  -7  -3  -2 18.2549 5.33929  14
   7  -3   2 14.0407 3.53964  12
   7   3   2 15.1326 4.16543   5
  -7   3  -2 9.68835 4.29496   7
   7   3   2 19.0219 4.84929  15
   7   3   2 14.1244 3.46671  11
   7   3   2 21.0521 4.31439  12
  -7   3  -2 14.9004 3.82039   4
  -9  -3  -2 116.883 12.2214  14
   9  -3   2 116.122 9.68836  12
   9  -3   2 125.236 9.92659   5
   9   3   2 105.003 9.48976  12
   9   3   2 101.075 9.39084   5
  -9   3  -2 108.042 10.0725   7
  10  -4  -2 996.071 43.7563   1
 -10  -4   2 1134.04 44.6360   8
 -10  -4   2 1236.42 51.7176  14
  10  -4  -2 1113.09 44.4372  12
  10   4  -2 1100.34 43.3879   5
 -10   4   2 1121.52 44.5458   7
  10   4  -2 1182.82 44.7388  12
  10   4  -2 1153.01 44.4664  16
 -10   4   2 1084.57 47.8829  14
  -8  -4   2 1234.73 45.4155   8
  -8  -4   2 1226.82 48.4063   3
   8  -4  -2 1177.25 44.7228  12
   8  -4  -2 1206.88 43.7947   5
   8  -4  -2 1102.03 44.5211   1
   8  -4  -2 1133.23 43.6926  16
  -8  -4   2 1237.79 50.1090  14
   8   4  -2 1190.24 44.7934  12
   8   4  -2 1149.54 44.1268   5
  -8   4   2 1120.86 46.3290  10
  -8   4   2 1186.23 45.3220   7
  -6  -4   2 3689.06 131.470  14
   6  -4  -2 3587.60 126.831   1
   6  -4  -2 3611.02 125.882   5
  -6  -4   2 3766.33 127.836   8
  -6  -4   2 3480.85 130.080   3
   6  -4  -2 3588.66 126.116  16
   6  -4  -2 3677.76 126.757  12
  -6   4   2 3693.55 127.670   7
   6   4  -2 3828.25 126.333  11
  -6   4   2 3480.84 129.427  10
   6   4  -2 3870.47 126.888   5
   6   4  -2 3720.32 128.747  15
   4  -4  -2 7587.35 254.140   5
   4  -4  -2 8177.98 257.201  12
  -4  -4   2 7843.25 257.145   8
  -4  -4   2 6556.68 253.905  14
  -4  -4   2 7350.56 253.230   9
   4  -4  -2 7478.14 253.037  13
  -4  -4   2 6464.20 254.320   3
   4  -4  -2 8287.96 252.129   1
   4  -4  -2 8095.87 254.001  16
  -4  -4   2 7875.17 254.163   6
   4   4  -2 7680.00 262.307  15
  -4   4   2 7196.33 252.223   7
  -4   4   2 6394.37 253.292   2
  -4   4   2 6930.12 254.535  10
   2  -4  -2 7274.92 229.188  16
  -2  -4   2 6384.20 229.009   9
  -2  -4   2 6858.48 228.144   8
  -2  -4   2 6001.64 226.780   3
   2  -4  -2 7241.08 227.956  13
  -2  -4   2 7205.94 228.568   6
  -2  -4   2 6705.89 229.636  14
   2  -4  -2 6927.01 227.680  12
   2  -4  -2 7298.00 226.635   1
  -2   4   2 5772.52 226.519  10
  -2   4   2 5723.38 226.898   2
  -2   4   2 6208.50 224.267   7
   0  -4   2 5426.80 188.114  12
   0  -4  -2 5847.13 187.880  13
   0  -4  -2 5644.33 189.271   6
   0  -4   2 5667.48 188.286   6
   0  -4   2 5537.93 188.375   8
   0  -4   2 5321.88 189.653   9
   0  -4  -2 5729.06 189.978  16
   0  -4  -2 5825.88 188.796   1
   0   4   2 5180.86 192.949  15
   0   4   2 5165.58 189.209   2
   0   4   2 5129.40 187.620  10
   0   4  -2 5476.00 187.496   4
   0   4   2 5354.06 187.027  11
   0   4  -2 5620.48 186.977   7
  -2  -4  -2 4428.20 145.559   4
   2  -4   2 4164.43 145.719   9
   2  -4   2 4296.61 145.561   5
   2  -4   2 4283.70 145.207  12
  -2  -4  -2 4321.36 144.934   6
  -2  -4  -2 4440.46 145.843  13
   2  -4   2 4152.29 144.001  16
   2   4   2 4001.39 144.673  10
   2   4   2 4319.69 148.133   2
  -2   4  -2 4314.75 145.886   4
   2   4   2 4405.74 146.731  11
   2   4   2 4371.46 149.155  15
  -2   4  -2 3954.16 148.473  10
  -2   4  -2 4278.29 146.581   7
  -4  -4  -2 2750.75 95.7802   8
   4  -4   2 2722.64 94.6350  12
   4  -4   2 2729.78 95.0482   5
  -4  -4  -2 2616.40 96.9110  14
  -4  -4  -2 2755.57 95.4447   4
   4   4   2 2844.61 96.0548  11
   4   4   2 2772.64 95.6342   5
   4   4   2 2725.98 98.8030  15
  -4   4  -2 2778.01 96.0758   7
   4   4   2 2823.38 95.9843   2
  -4   4  -2 2608.75 97.5052  10
  -4   4  -2 2642.65 95.6223   4
  -6  -4  -2 2995.95 106.756  14
   6  -4   2 2916.61 103.009  12
  -6  -4  -2 3001.63 103.672   8
  -6  -4  -2 3085.61 104.236   4
   6  -4   2 2936.38 103.516   5
   6   4   2 2935.08 103.378  11
   6   4   2 2931.85 103.777   5
  -6   4  -2 2807.74 104.925  10
   6   4   2 2932.74 107.331  15
  -6   4  -2 2900.11 104.241   4
  -6   4  -2 2872.89 103.988   7
   8  -4   2 1907.10 69.6471   5
   8  -4   2 1823.70 68.8587  12
  -8  -4  -2 1985.53 74.0591  14
  -8   4  -2 1901.71 70.3149   4
   8   4   2 1824.25 68.9071  12
   8   4   2 1839.05 69.0502   5
   8   4   2 1855.12 68.6318  11
  -8   4  -2 1874.88 69.8732   7
  11  -5  -2 312.204 17.5527  12
 -11  -5   2 293.887 20.7232  14
 -11   5   2 330.700 17.9867   7
 -11   5   2 301.062 20.2105  14
  11   5  -2 276.565 16.0420  12
   9  -5  -2 486.432 22.7677   1
  -9  -5   2 538.399 24.2490   8
   9  -5  -2 521.498 23.5229  12
  -9  -5   2 546.408 28.5564  14
   9  -5  -2 522.639 22.3309   5
   9   5  -2 530.684 23.0191   5
  -9   5   2 497.099 23.8363   7
   9   5  -2 505.605 23.1994  12
   7  -5  -2 963.083 38.2743   1
  -7  -5   2 961.623 42.4979  14
  -7  -5   2 1075.49 42.4171   3
   7  -5  -2 1002.45 38.4881  12
   7  -5  -2 1014.09 37.5773   5
  -7  -5   2 1047.13 39.8524   8
   7  -5  -2 993.860 37.5266  16
  -7   5   2 1059.19 39.6932   7
   7   5  -2 1006.87 40.9892  15
   7   5  -2 1002.22 37.8982  11
   7   5  -2 1039.67 38.6073   5
  -7   5   2 977.632 41.3591  10
   5  -5  -2 1807.46 67.0563  13
   5  -5  -2 1933.03 67.8581   5
   5  -5  -2 2033.62 68.7952  12
  -5  -5   2 2011.50 70.5091   9
  -5  -5   2 1914.09 72.2161   3
  -5  -5   2 1974.06 68.3562   6
  -5  -5   2 1775.82 71.7453  14
  -5  -5   2 2036.22 70.1431   8
   5  -5  -2 1999.78 68.1149  16
   5  -5  -2 1944.39 68.6964   1
   5   5  -2 1982.23 69.7492   2
   5   5  -2 1947.80 68.4962  11
   5   5  -2 1961.59 71.0212  15
  -5   5   2 1952.55 72.4581  10
  -5   5   2 1867.41 70.8174   2
  -5   5   2 2004.10 69.4770   7
  -3  -5   2 3683.28 126.401   9
   3  -5  -2 3801.93 124.190  16
  -3  -5   2 3446.24 127.667   3
   3  -5  -2 3834.20 124.660   1
  -3  -5   2 3627.23 125.543   8
   3  -5  -2 3698.23 124.339  12
  -3  -5   2 3759.96 124.415   6
  -3  -5   2 3519.53 126.701  14
   3  -5  -2 3682.73 123.314  13
  -3   5   2 3521.15 124.605   7
  -3   5   2 3488.45 127.640  10
   3   5  -2 3791.01 126.742  15
  -3   5   2 3341.23 127.504   2
   1  -5  -2 3504.81 116.857  16
   1  -5  -2 3468.11 116.900  12
  -1  -5   2 3564.52 117.126   6
  -1  -5   2 3379.76 118.427   9
   1  -5  -2 3449.01 116.485   6
   1  -5  -2 3529.54 117.151   1
   1  -5  -2 3547.43 116.462  13
  -1  -5   2 3444.34 117.452   8
  -1  -5   2 3367.22 118.587  14
   1   5  -2 3268.16 116.350   4
   1   5  -2 3380.47 117.313   7
  -1   5   2 3429.72 119.158  15
  -1   5   2 3341.78 120.779   2
  -1   5   2 3346.46 119.494  10
  -1   5   2 3300.24 116.183   7
   1  -5   2 1640.89 57.4726   5
  -1  -5  -2 1447.97 57.4332   4
   1  -5   2 1608.44 56.6787   8
  -1  -5  -2 1666.03 57.5618  13
  -1  -5  -2 1674.65 57.0341   6
   1  -5   2 1601.91 57.1661  12
  -1  -5  -2 1482.38 57.3628  14
  -1  -5  -2 1674.03 57.8905   1
   1  -5   2 1676.42 58.3504   9
   1   5   2 1693.40 58.6606  11
   1   5   2 1714.28 60.9958   2
   1   5   2 1751.19 58.7394  10
   1   5   2 1665.98 60.7062  15
  -1   5  -2 1680.78 57.4442   4
  -1   5  -2 1668.21 61.3730  10
  -1   5  -2 1761.19 58.7819   7
  -3  -5  -2 1623.02 55.6782   6
  -3  -5  -2 1405.64 57.2682  14
  -3  -5  -2 1622.12 57.6528   8
  -3  -5  -2 1641.50 56.4273   4
  -3  -5  -2 1621.18 56.7260  13
   3  -5   2 1594.51 56.1221  12
   3  -5   2 1554.98 56.3396   5
   3   5   2 1639.65 58.8549   2
  -3   5  -2 1606.49 56.6594   4
  -3   5  -2 1594.03 60.1488  10
   3   5   2 1543.87 59.7122  15
  -3   5  -2 1621.30 57.6482   7
   3   5   2 1624.49 57.5507  11
  -5  -5  -2 1574.63 59.7495  14
  -5  -5  -2 1651.94 57.7410   4
   5  -5   2 1616.01 57.3780   5
  -5  -5  -2 1589.06 58.1101   8
   5  -5   2 1558.24 56.8319  12
  -5   5  -2 1532.60 57.6890   4
  -5   5  -2 1619.90 60.6053  10
   5   5   2 1551.19 57.7524  11
   5   5   2 1579.84 61.2830  15
  -5   5  -2 1593.41 58.5019   7
   5   5   2 1538.30 57.5583   5
  -7  -5  -2 804.144 32.8592   8
   7  -5   2 778.887 32.1522  12
   7  -5   2 801.629 32.7081   5
  -7  -5  -2 842.785 36.0663  14
  -7   5  -2 819.786 33.7730   7
   7   5   2 806.220 32.2988  11
  -7   5  -2 820.633 33.5117   4
   7   5   2 782.997 32.7840   5
  -9  -5  -2 397.219 22.6376  14
   9  -5   2 371.218 18.9395  12
   9  -5   2 382.957 19.2334   5
   9   5   2 366.387 19.0321   5
   9   5   2 357.371 18.7686  12
  -9   5  -2 398.353 20.4092   7
  10  -6  -2 61.7072 7.62587  12
  10  -6  -2 64.2704 6.83836   5
 -10  -6   2 80.8386 11.3645  14
 -10  -6   2 61.0534 7.46107   8
  10   6  -2 64.4906 6.89307   5
  10   6  -2 59.3405 6.94743  12
 -10   6   2 75.5524 9.10405   7
   8  -6  -2 154.207 9.35014  16
   8  -6  -2 170.700 10.9538  12
   8  -6  -2 179.762 10.0839   5
  -8  -6   2 177.348 13.1911   3
  -8  -6   2 186.292 12.1696   8
   8  -6  -2 167.983 10.3135   1
  -8  -6   2 190.970 14.6764  14
   8   6  -2 168.953 10.4627   5
  -8   6   2 188.947 14.3723  10
  -8   6   2 174.012 11.8257   7
   6  -6  -2 124.078 7.11231   5
  -6  -6   2 145.683 10.3429   3
  -6  -6   2 122.657 10.3281  14
   6  -6  -2 113.245 7.39322   1
   6  -6  -2 113.955 6.64733  16
   6  -6  -2 123.119 7.95887  12
  -6  -6   2 128.704 9.09575   8
  -6  -6   2 130.031 7.42285   6
   6   6  -2 123.952 7.92341  11
  -6   6   2 129.627 10.6143  10
  -6   6   2 129.238 8.44835   7
  -6   6   2 127.998 9.34317   2
   6   6  -2 121.826 9.71137  15
   4  -6  -2 16.3193 2.64700   1
   4  -6  -2 13.4193 2.14108  16
  -4  -6   2 11.5631 2.45392   6
  -4  -6   2 8.19679 2.94581  14
  -4  -6   2 15.7017 3.96433   3
  -4  -6   2 16.2106 3.23624   8
  -4  -6   2 18.8707 3.78454   9
   4  -6  -2 11.1516 2.47783  12
   4   6  -2 10.6384 3.40940  15
  -4   6   2 15.4954 2.94282   7
  -4   6   2 19.2374 4.27820   2
  -4   6   2 16.4742 5.00229  10
   2  -6  -2 50.1399 3.44666   6
   2  -6  -2 52.4877 3.86838  12
  -2  -6   2 52.5655 3.69078   6
  -2  -6   2 51.7734 4.34265   8
   2  -6  -2 57.2356 3.61611  16
  -2  -6   2 54.9960 4.84159   9
   2  -6  -2 55.8527 3.01126  13
   2  -6  -2 56.7297 4.04385   1
  -2  -6   2 56.5759 5.79958   3
  -2  -6   2 48.5886 4.51735  14
  -2   6   2 61.8712 6.27646  10
   2   6  -2 54.0390 3.76885   7
  -2   6   2 49.7806 4.99030  15
  -2   6   2 58.8569 3.96450   7
  -2   6   2 65.2617 7.71173   2
   0  -6   2 411.112 17.3654   8
   0  -6  -2 445.250 17.0791   6
   0  -6   2 443.190 17.6866   6
   0  -6  -2 448.797 17.8656   1
   0  -6   2 468.836 18.9819   9
   0  -6  -2 444.212 17.2235  13
   0   6  -2 439.877 16.8508   4
   0   6  -2 463.053 18.3103   7
   0   6   2 510.767 20.2319  10
   0   6   2 499.238 22.2931   2
   0   6   2 441.519 20.1552  15
   0   6  -2 470.671 21.2216  10
   2  -6   2 710.498 27.8089   5
   2  -6   2 792.449 28.6373   9
   2  -6   2 730.770 27.6145  12
  -2  -6  -2 735.557 29.1817   8
  -2  -6  -2 751.737 28.1323  13
  -2  -6  -2 735.761 27.2938   6
  -2   6  -2 743.198 27.6537   4
   2   6   2 774.295 29.3879  11
   2   6   2 775.298 31.4528   2
  -2   6  -2 768.802 29.2703   7
   2   6   2 723.440 31.2427  15
  -2   6  -2 750.774 32.3559  10
   4  -6   2 200.765 10.3880   5
   4  -6   2 208.530 10.2300  12
  -4  -6  -2 187.570 11.2136  14
  -4  -6  -2 215.838 11.7048   8
   4   6   2 212.414 11.4684  11
   4   6   2 191.954 10.4746   5
  -4   6  -2 202.290 10.1691   4
  -4   6  -2 208.959 13.8240  10
  -4   6  -2 225.955 12.1222   7
   4   6   2 205.500 13.2591  15
   4   6   2 209.552 12.0462   2
  -6  -6  -2 12.2416 3.78853   8
  -6  -6  -2 5.97418 3.62472  14
   6  -6   2 2.34359 2.45135  12
   6  -6   2 2.11716 2.86537   5
  -6   6  -2 14.4760 4.38423  10
   6   6   2 7.57155 4.08223   5
  -6   6  -2 10.4086 4.53784   7
   6   6   2 13.6668 4.17538  11
  -6   6  -2 10.3552 3.54101   4
  -8  -6  -2 26.8239 5.04181   8
   8  -6   2 16.1121 4.17445  12
   8  -6   2 19.4814 4.14596   5
   8   6   2 12.0850 3.55147  11
   8   6   2 10.3645 3.59780   5
  -8   6  -2 20.5972 6.00498   7
   8   6   2 9.05652 4.08492  12
   9  -7  -2 1175.76 47.1670  12
  -9  -7   2 1223.02 52.7745  14
  -9  -7   2 1243.98 48.4281   8
  -9   7   2 1165.33 50.5465  10
   9   7  -2 1199.52 46.5951   5
  -9   7   2 1177.62 47.7252   7
  -7  -7   2 1510.24 59.8664  14
  -7  -7   2 1548.80 58.9229   3
   7  -7  -2 1346.49 52.6439  16
   7  -7  -2 1490.53 54.6138  12
   7  -7  -2 1400.22 53.5559   1
  -7  -7   2 1565.95 56.4907   8
   7   7  -2 1473.01 53.9772  11
   7   7  -2 1466.19 54.3451   5
  -7   7   2 1476.86 59.3555  10
  -7   7   2 1491.27 55.5380   7
   7   7  -2 1350.79 56.7589  15
   5  -7  -2 1917.71 67.5976  12
  -5  -7   2 1936.27 69.5352   8
  -5  -7   2 1933.12 72.2236   3
   5  -7  -2 1862.23 66.6431  16
   5  -7  -2 1902.05 67.3264   1
  -5  -7   2 1929.20 67.3653   6
  -5  -7   2 1691.32 70.8476  14
   5   7  -2 1889.54 69.9123   2
  -5   7   2 1961.87 72.9646  10
  -5   7   2 1872.80 68.1409   7
   5   7  -2 1909.20 71.1958  15
  -5   7   2 1893.06 71.7589   2
  -3  -7   2 1691.00 64.2383  14
   3  -7  -2 1782.59 61.1074  16
  -3  -7   2 1732.06 63.1465   8
  -3  -7   2 1706.94 61.3599   6
  -3  -7   2 1726.25 65.7691   3
   3  -7  -2 1691.69 61.3826   1
   3  -7  -2 1709.40 61.4546  12
  -3  -7   2 1759.59 64.1336   9
  -3   7   2 1714.74 61.4446   7
  -3   7   2 1763.61 66.7195   2
   3   7  -2 1753.00 64.0493  10
   3   7  -2 1760.16 65.0577  15
  -3   7   2 1788.46 66.1562  10
   1  -7  -2 2516.92 87.6080   1
  -1  -7   2 2472.81 89.5354   9
   1  -7  -2 2435.97 86.4028  13
   1  -7  -2 2514.14 86.9337   6
   1  -7  -2 2539.24 87.2415  16
  -1  -7   2 2404.49 88.1147   8
  -1  -7   2 2523.43 87.5888   6
  -1   7   2 2596.67 91.0845  10
   1   7  -2 2504.81 87.6478   7
   1   7  -2 2556.10 91.7000  10
  -1   7   2 2659.80 93.0644   2
  -1   7   2 2499.10 90.6205  15
   1  -7   2 3650.30 128.956   6
  -1  -7  -2 3994.60 130.747   8
  -1  -7  -2 3646.74 128.073   6
  -1  -7  -2 3715.61 128.527  13
   1  -7   2 3683.49 130.114   9
   1  -7   2 3726.12 128.468  12
   1   7   2 3765.30 130.158  11
   1   7   2 3759.19 132.886  15
   1   7   2 3937.44 133.976   2
  -1   7  -2 3627.15 129.711   7
   1   7   2 3807.61 130.584  10
  -1   7  -2 3597.60 133.724  10
  -3  -7  -2 2309.77 80.0813   6
   3  -7   2 2297.57 80.7388  12
  -3  -7  -2 2407.51 83.0270   8
  -3   7  -2 2257.76 86.1034  10
   3   7   2 2296.79 84.5137   2
   3   7   2 2299.37 82.3135  11
   3   7   2 2262.46 85.5951  15
  -3   7  -2 2272.82 82.3119   7
   5  -7   2 1264.26 47.6077  12
  -5  -7  -2 1358.07 49.9170   8
   5  -7   2 1332.32 48.4114   5
  -5   7  -2 1272.02 52.6375  10
   5   7   2 1226.53 48.2429   5
   5   7   2 1288.24 49.1952  11
  -5   7  -2 1280.97 49.5281   7
   7  -7   2 777.071 31.9125   5
   7  -7   2 754.982 31.1038  12
  -7  -7  -2 790.587 32.8060   8
   7   7   2 739.884 31.0912  11
   7   7   2 708.267 31.1506   5
  -7   7  -2 772.081 33.2496   7
  -7   7  -2 786.923 35.4274  10
   8  -8  -2 226.082 13.6556  12
  -8  -8   2 243.750 15.0577   8
  -8  -8   2 239.502 17.3818  14
  -8   8   2 246.735 18.5018  10
   8   8  -2 248.612 13.7262   5
  -8   8   2 235.944 14.7541   7
  -6  -8   2 435.962 20.6228   8
  -6  -8   2 401.689 21.8287  14
  -6  -8   2 395.227 17.9138   6
   6  -8  -2 404.935 18.3310  12
   6  -8  -2 390.440 17.8355   1
  -6  -8   2 420.367 22.2689   3
  -6   8   2 414.816 21.9644   2
   6   8  -2 417.075 19.0828  11
  -6   8   2 420.022 23.0499  10
   6   8  -2 366.468 23.3666  15
  -6   8   2 409.266 19.3263   7
   4  -8  -2 753.637 28.8359  12
  -4  -8   2 684.238 31.4761  14
   4  -8  -2 726.776 28.4044   1
  -4  -8   2 698.816 28.2506   6
   4  -8  -2 709.541 27.7716  16
  -4  -8   2 788.753 33.5099   3
  -4  -8   2 745.427 30.5863   8
   4   8  -2 752.767 32.2377   2
  -4   8   2 761.584 33.6360  10
  -4   8   2 762.148 28.9225   7
  -4   8   2 728.867 33.7792   2
   4   8  -2 739.076 32.6539  15
  -2  -8   2 1528.29 56.9209   9
   2  -8  -2 1539.15 54.2702   1
   2  -8  -2 1534.46 53.7728  16
   2  -8  -2 1470.61 55.1853   8
  -2  -8   2 1452.75 53.9324   6
   2  -8  -2 1453.25 53.5855   6
  -2  -8   2 1463.64 55.5616   8
  -2   8   2 1543.63 58.6414  10
   2   8  -2 1569.19 58.5910  15
  -2   8   2 1575.09 60.2188   2
  -2   8   2 1439.63 57.0552  15
   2   8  -2 1548.74 58.0920  10
   0  -8   2 576.877 23.7090   9
   0  -8   2 529.271 21.9328   6
   0  -8  -2 542.758 22.1267   1
   0  -8  -2 554.122 23.2756   8
   0  -8  -2 552.391 21.2748   6
   0  -8   2 497.090 21.6237   8
   0   8  -2 545.584 22.3047   7
   0   8  -2 653.540 27.5885  10
   0   8   2 585.648 27.5394   2
   0   8   2 521.224 25.1602  15
   0   8   2 558.295 24.5891  10
   2  -8   2 274.124 13.2165   6
  -2  -8  -2 280.083 14.8634   8
  -2  -8  -2 288.801 12.5043   6
   2  -8   2 293.818 12.9020  12
   2   8   2 291.616 14.6370  11
   2   8   2 288.918 17.2536   2
   2   8   2 267.180 16.3510  15
  -2   8  -2 286.170 14.2115   7
  -2   8  -2 280.692 17.6152  10
   4  -8   2 560.484 23.0029  12
  -4  -8  -2 576.516 25.3816   8
  -4  -8  -2 558.663 22.2350   6
  -4   8  -2 586.407 25.2081   7
   4   8   2 577.922 25.0678  11
   4   8   2 543.990 25.8735   2
  -4   8  -2 547.537 28.5417  10
  -6  -8  -2 294.370 16.6024   8
   6  -8   2 303.196 15.0057  12
   6  -8   2 303.492 15.3375   5
  -6   8  -2 335.831 19.8631  10
  -6   8  -2 280.166 16.7658   7
   6   8   2 264.341 15.5896  11
   6   8   2 288.535 15.8106   5
  -8  -8  -2 272.921 15.7092   8
   8  -8   2 232.080 14.2489  12
   8  -8   2 304.148 16.0783   5
   8   8   2 247.871 14.1840  11
   8   8   2 265.097 15.2833   5
  -8   8  -2 266.833 17.0791   7
   9  -9  -2 35.0340 5.47794  12
  -9  -9   2 38.0290 7.01872   8
  -9   9   2 34.2113 7.29702   7
   9   9  -2 29.4962 5.17551   5
  -9   9   2 31.4999 8.38826  10
  -7  -9   2 21.8506 4.50406   6
  -7  -9   2 16.0155 5.31731  14
  -7  -9   2 23.4189 5.71163   8
   7  -9  -2 17.4255 3.99328  12
  -7   9   2 34.6457 7.99806  10
   7   9  -2 24.3405 5.69451  11
   7   9  -2 21.9573 5.25330   5
  -7   9   2 20.5843 5.43819   7
   5  -9  -2 500.028 21.4300  16
   5  -9  -2 506.216 22.0093   1
   5  -9  -2 552.109 22.9581  12
  -5  -9   2 571.740 25.2809   8
  -5  -9   2 508.405 25.9991  14
  -5  -9   2 539.724 22.4616   6
  -5   9   2 551.994 28.4804   2
  -5   9   2 568.379 29.5087  10
   5   9  -2 579.334 24.3201  11
  -5   9   2 533.720 23.0496   7
   5   9  -2 537.475 26.0534   2
   3  -9  -2 534.307 21.8554   6
   3  -9  -2 544.504 21.6403  16
   3  -9  -2 555.793 22.2852   1
  -3  -9   2 491.962 24.2565  14
  -3  -9   2 514.950 21.8709   6
   3  -9  -2 528.615 22.1670  12
  -3  -9   2 578.722 24.5803   8
  -3   9   2 491.090 24.4601  15
   3   9  -2 560.851 26.8141  15
  -3   9   2 558.524 28.0486   2
   3   9  -2 538.351 24.7947  10
   3   9  -2 584.384 27.3948   2
  -3   9   2 597.449 27.5039  10
   1  -9  -2 227.743 11.3033   1
  -1  -9   2 236.912 12.9058   9
   1  -9  -2 214.464 10.4388   6
  -1  -9   2 200.356 11.4741   8
   1  -9  -2 227.184 12.4141   8
  -1  -9   2 215.853 10.8589   6
  -1   9   2 225.818 14.6378  10
  -1   9   2 239.968 16.8815   2
  -1   9   2 222.066 14.2779  15
   1   9  -2 220.682 14.2343  10
  -1  -9  -2 268.090 11.9496   6
  -1  -9  -2 268.476 14.5204   8
   1  -9   2 271.993 13.7053   9
   1  -9   2 247.124 12.4566   6
  -1   9  -2 280.780 13.4724   7
   1   9   2 260.910 14.4067  10
  -1   9  -2 269.320 17.3926  10
   1   9   2 231.841 13.7353  11
   1   9   2 262.816 17.4372   2
   1   9   2 243.048 16.1078  15
   3  -9   2 56.5940 4.95921  12
  -3  -9  -2 44.8193 6.09736   8
   3  -9   2 40.5801 4.98229   6
  -3  -9  -2 46.0476 4.65457   6
   3   9   2 37.1210 6.91046   2
  -3   9  -2 37.6649 5.92349   7
   3   9   2 54.9697 7.24016  11
  -3   9  -2 62.9510 9.28704  10
  -5  -9  -2 148.291 10.9208   8
   5  -9   2 153.270 9.98418  12
   5   9   2 148.549 11.6762  11
   5   9   2 154.107 10.3077   5
  -5   9  -2 149.124 14.7686  10
  -5   9  -2 166.553 12.2023   7
  -5   9  -2 130.055 12.7560   2
  -7  -9  -2 359.830 19.3306   8
   7  -9   2 344.208 17.3187  12
  -7   9  -2 326.894 22.1617  10
  -7   9  -2 342.344 19.4028   7
   7   9   2 326.477 17.6537  11
   7   9   2 318.625 17.8756   5
   8 -10  -2 1361.59 52.5833  12
  -8 -10   2 1404.01 55.3771   8
  -8  10   2 1335.95 59.2691  10
   8  10  -2 1354.81 52.7710   5
  -8  10   2 1310.17 52.5975   7
   6 -10  -2 1341.81 51.0378   6
  -6 -10   2 1351.82 50.5898   6
   6 -10  -2 1336.11 51.2337  12
  -6 -10   2 1397.04 54.3644   8
  -6  10   2 1383.97 59.0402  10
  -6  10   2 1242.88 55.7413   2
   6  10  -2 1417.49 52.6591  11
  -4 -10   2 1251.17 48.3499   6
   4 -10  -2 1248.09 48.6839  12
   4 -10  -2 1294.03 48.2865   1
  -4 -10   2 1315.69 51.4860   8
   4 -10  -2 1295.08 48.4010   6
   4  10  -2 1306.04 54.0130   2
  -4  10   2 1327.95 55.7370  10
  -4  10   2 1362.23 56.5343   2
   2 -10  -2 2241.29 84.1294   8
  -2 -10   2 2299.89 84.9096   8
  -2 -10   2 2268.40 82.7123   6
   2 -10  -2 2420.87 82.5876   6
   2 -10  -2 2399.79 83.0580   1
  -2  10   2 2406.27 88.6882  10
  -2  10   2 2229.87 87.1076  15
  -2  10   2 2325.91 90.3618   2
   2  10  -2 2379.88 89.6145   2
   2  10  -2 2331.85 87.1795  10
   0 -10   2 1932.31 70.8832   6
   0 -10  -2 1969.04 69.9771   6
   0 -10  -2 2071.83 73.4793   8
   0  10   2 1949.53 72.4895  11
   0  10  -2 1908.34 77.4962   2
   0  10   2 1971.42 74.3057  10
   0  10   2 2012.82 77.7744   2
   0  10  -2 1948.00 76.7033  10
  -2 -10  -2 1861.63 69.7015   8
  -2 -10  -2 1891.03 66.2738   6
   2 -10   2 1893.54 67.9441   6
  -2  10  -2 1852.60 74.1198  10
   2  10   2 1783.38 72.4104   2
  -2  10  -2 1868.34 74.8723   2
   2  10   2 1817.41 68.9507  11
  -4 -10  -2 2011.19 74.7712   8
   4 -10   2 2002.69 71.9578  12
   4 -10   2 2071.70 73.2969   6
  -4  10  -2 1927.29 79.1317   2
  -4  10  -2 1921.73 73.3264   7
  -4  10  -2 1923.40 79.2499  10
   4  10   2 1950.09 76.5275   2
   4  10   2 2011.04 74.2291  11
  -6 -10  -2 769.169 34.0294   8
   6 -10   2 812.850 33.4401   6
   6  10   2 716.155 32.0214   5
   6  10   2 703.539 32.3365  11
  -6  10  -2 791.794 38.9064  10
  -6  10  -2 792.356 33.9966   7
  -7 -11   2 194.177 11.7244   6
   7 -11  -2 217.413 13.2911   6
  -7 -11   2 211.289 14.8842   8
   7 -11  -2 205.889 13.5979  12
   7  11  -2 210.974 13.4929  11
   7  11  -2 195.306 13.7833   5
  -7  11   2 218.311 18.4322  10
  -5 -11   2 343.421 17.0008   6
   5 -11  -2 364.797 18.1608  12
   5 -11  -2 360.174 17.5415   6
  -5 -11   2 362.159 20.2619   8
   5  11  -2 386.818 20.0033  11
  -5  11   2 368.173 24.4529  10
   5  11  -2 370.618 22.3602   2
  -5  11   2 355.642 23.5147   2
   3 -11  -2 89.7533 9.33718   1
  -3 -11   2 113.381 9.88225   8
   3 -11  -2 112.437 8.00235   6
  -3 -11   2 109.004 8.30402   6
  -3  11   2 105.871 12.5184   2
  -3  11   2 129.329 12.6990  10
   3  11  -2 115.113 11.9083   2
   1 -11  -2 200.395 12.8690   8
  -1 -11   2 193.501 11.1047   6
   1 -11  -2 197.737 10.8062   6
   1  11  -2 210.589 16.0448  10
  -1  11   2 214.955 18.0822   2
   1  11  -2 219.411 17.1043   2
  -1  11   2 222.370 15.0740  10
  -1 -11  -2 921.444 35.6754   6
  -1 -11  -2 953.686 39.4085   8
   1 -11   2 925.366 37.0958   6
   1  11   2 918.116 43.1921   2
  -1  11  -2 940.373 44.0903   2
   1  11   2 931.911 38.7112  11
  -1  11  -2 976.074 43.9024  10
  -3 -11  -2 423.412 21.3234   8
   3 -11   2 401.505 19.6367   6
  -3  11  -2 408.841 24.7937  10
  -3  11  -2 415.293 19.9390   7
  -3  11  -2 392.215 24.6390   2
   3  11   2 388.287 23.4113   2
   3  11   2 378.952 20.2914  11
   5 -11   2 118.838 10.2323   6
   5 -11   2 108.870 9.15527  12
  -5 -11  -2 115.099 10.7708   8
   5  11   2 99.6809 9.30929   5
  -5  11  -2 109.525 9.84000   7
  -5  11  -2 120.822 15.1713  10
   5  11   2 127.970 11.9930  11
   6 -12  -2 108.043 9.29035   6
  -6 -12   2 97.0430 8.00267   6
  -6 -12   2 121.545 12.0277   8
  -6  12   2 95.6355 14.3242  10
   6  12  -2 113.508 11.4758  11
   4 -12  -2 101.784 8.36710   6
  -4 -12   2 112.736 10.8099   8
  -4 -12   2 88.2973 7.51429   6
   4  12  -2 113.327 10.9787  11
   4  12  -2 102.783 12.8304   2
  -4  12   2 96.3674 13.5989   2
  -4  12   2 90.5746 13.1380  10
   2 -12  -2 368.798 16.7554   6
  -2 -12   2 327.931 17.1263   6
  -2 -12   2 345.342 19.0321   8
   2  12  -2 355.895 21.1080  10
  -2  12   2 386.312 25.0846   2
  -2  12   2 353.343 21.5512  10
   2  12  -2 392.084 24.3394   2
   0 -12  -2 140.936 10.7844   8
   0 -12   2 116.488 9.38973   6
   0  12  -2 163.443 16.2364   2
   0  12  -2 137.493 13.0564  10
   0  12   2 143.335 15.7714   2
   0  12   2 121.583 10.3499  11
  -2 -12  -2 53.9497 7.79494   8
   2 -12   2 59.8663 6.94215   6
  -2  12  -2 75.2132 12.7221   2
  -2  12  -2 73.0938 12.0545  10
   2  12   2 67.1060 10.7452   2
   2  12   2 68.7496 9.13311  11
  -4 -12  -2 199.390 14.1368   8
   4 -12   2 209.960 13.6461   6
   4  12   2 223.208 15.9901  11
  -4  12  -2 226.050 18.7631   2
  -4  12  -2 211.931 20.1296  10
  -3 -13   2 867.271 35.9301   6
  -3  13   2 931.340 45.2318   2
   3  13  -2 914.836 43.4950   2
  -3  13   2 930.102 43.5949  10
  -3  13   2 862.135 37.6326  11
  -1 -13   2 609.928 26.4527   6
   1  13  -2 597.035 31.2430  10
   1  13  -2 620.064 34.1202   2
  -1  13   2 600.291 33.2039   2
  -1  13   2 584.730 27.9950  11
  -1 -13  -2 633.781 29.7121   8
   1 -13   2 649.746 27.8833   6
   1  13   2 627.179 34.9895   2
  -1  13  -2 646.015 35.7874   2
   1  13   2 612.251 29.8444  11
  -1  13  -2 637.937 34.4633  10
  12   0  -3 4.03198 4.75506   1
  12   0  -3 0.26005 2.55902  12
 -12   0   3 1.10171 3.40418  14
  10   0  -3 0.68129 2.41881   5
  10   0  -3 5.84781 3.78838  12
  10   0  -3 2.44428 4.59521   1
  10   0  -3 1.70654 2.48624  16
 -10   0   3 -0.2727 3.55643   3
 -10   0   3 0.25462 4.36369  14
   8   0  -3 3.26108 1.88699   5
  -8   0   3 -0.0062 3.29574  14
   8   0  -3 0.50312 2.46117  16
  -8   0   3 1.57884 2.88039   3
   8   0  -3 -1.5816 2.47655  12
  -6   0   3 -0.5531 1.78427   3
  -6   0   3 2.40719 0.99374   9
  -6   0   3 2.33328 1.65707  10
   6   0  -3 2.23620 1.36348  16
   6   0  -3 0.31528 0.80737   5
  -6   0   3 -0.1554 1.91065   7
  -6   0   3 1.86128 2.45004  14
   6   0  -3 1.31032 1.30798  12
  -6   0   3 1.08001 0.99191   8
   6   0  -3 0.54936 0.72211  15
  -4   0   3 0.01772 0.59780   8
  -4   0   3 0.75611 1.40784   3
   4   0  -3 3.85059 1.26030  12
  -4   0   3 0.87019 0.67057   2
   4   0  -3 1.63910 1.09640  16
  -4   0   3 1.07295 0.57971   9
  -4   0   3 -0.4029 0.84627  14
   4   0  -3 0.49202 0.57861   5
  -4   0   3 5.06250 1.69127  10
   2   0  -3 -0.2322 0.47936   1
  -2   0   3 0.80724 0.34788   6
   2   0  -3 1.00963 0.59339  13
   2   0  -3 0.64834 0.59265  15
  -2   0   3 1.93663 0.76509  14
  -2   0   3 -0.3270 0.72797   2
   2   0  -3 0.55750 0.62222  16
  -2   0   3 0.08906 0.63003   3
  -2   0   3 3.48817 0.64410  11
   0   0   3 1.17981 1.08323  15
   0   0   3 -0.1200 0.51684   5
   0   0  -3 1.15707 0.87702   4
   0   0  -3 3.04735 0.56172  16
   0   0   3 1.19798 0.81595   2
   0   0  -3 0.57216 0.78977  15
   0   0  -3 -0.0264 0.62436  13
   0   0   3 -0.4095 0.65003  11
   0   0  -3 0.15685 0.40455   1
  -2   0  -3 0.82676 1.39274   4
  -2   0  -3 1.55687 1.10751   7
  -2   0  -3 0.73200 0.80640  13
   2   0   3 0.04818 1.03843  11
   2   0   3 -0.2565 0.95150   2
   2   0   3 0.47380 1.12323  15
   2   0   3 0.68343 0.81335  12
   2   0   3 0.87625 0.89247   5
  -4   0  -3 5.84057 1.98999  13
   4   0   3 0.31912 1.41953   5
  -4   0  -3 -2.1790 2.07393   4
  -4   0  -3 -0.4445 1.62872   7
   4   0   3 0.38291 1.47773  11
   4   0   3 0.48501 1.45931  12
   4   0   3 0.52981 2.13988  15
  -4   0  -3 -0.5486 1.04201   8
   6   0   3 0.62946 2.38631  12
   6   0   3 0.47973 1.76658  15
  -6   0  -3 -0.5178 2.47762   7
   6   0   3 -2.1639 2.35281   5
   6   0   3 -0.1945 1.90361  11
  -6   0  -3 4.88955 3.49718   4
   8   0   3 -1.3972 3.09838   5
   8   0   3 2.20012 3.29189  12
  -8   0  -3 13.7516 4.12114   4
  11  -1  -3 16.6824 5.06186  12
  11  -1  -3 15.9156 5.64162   1
 -11  -1   3 16.3498 5.97317   3
 -11  -1   3 20.3437 5.87122  14
  11  -1  -3 14.1612 3.80269  16
  11   1  -3 12.6198 5.93126   1
 -11   1   3 17.4305 5.78852   3
  11   1  -3 18.8980 4.94240  16
  11   1  -3 11.3273 4.87172  12
 -11   1   3 17.3334 6.29078  14
   9  -1  -3 501.032 21.1757  12
  -9  -1   3 466.558 23.8780   3
   9  -1  -3 436.037 21.4160   1
  -9  -1   3 438.566 24.0516  14
  -9  -1   3 441.275 19.6084   8
   9  -1  -3 443.020 20.3716  16
   9  -1  -3 452.495 19.2127   5
  -9   1   3 459.104 20.6656   7
   9   1  -3 454.119 19.4473   5
   9   1  -3 467.717 20.6096  12
   9   1  -3 423.937 20.0479  16
  -9   1   3 508.729 24.7232   3
  -9   1   3 461.242 24.1623  14
  -7  -1   3 904.635 36.9508  14
  -7  -1   3 834.933 32.8552   8
   7  -1  -3 850.888 32.8125  16
  -7  -1   3 878.269 36.3922   3
   7  -1  -3 889.772 32.0212   5
   7  -1  -3 879.847 33.1301  12
   7  -1  -3 848.353 34.0318   1
  -7   1   3 885.299 34.0959  10
  -7   1   3 886.123 33.7044   7
   7   1  -3 895.220 33.2053  12
  -7   1   3 879.291 36.0485  14
   7   1  -3 850.281 33.0037  16
   7   1  -3 876.019 32.1658   5
   5  -1  -3 163.044 7.69760  16
  -5  -1   3 179.441 10.0097  14
  -5  -1   3 161.354 7.85794   8
   5  -1  -3 167.007 7.69874  12
   5  -1  -3 160.910 8.37630   1
  -5  -1   3 166.075 9.85472   3
   5  -1  -3 167.045 6.93304   5
  -5  -1   3 158.684 7.70189   9
  -5   1   3 188.346 9.78366  14
   5   1  -3 164.244 7.86161  16
  -5   1   3 157.884 6.76141   9
   5   1  -3 167.210 7.33371   5
   5   1  -3 165.931 7.71191  12
  -5   1   3 159.508 6.98102   2
  -5   1   3 173.778 8.41683   7
  -5   1   3 188.375 9.46033  10
   5   1  -3 177.265 7.60207  15
  -3  -1   3 92.0950 5.27869  14
   3  -1  -3 95.9645 4.49617  16
  -3  -1   3 83.6928 4.14640   6
  -3  -1   3 100.656 6.24648   3
   3  -1  -3 87.6427 4.17363  12
  -3  -1   3 95.7543 4.96985   9
  -3  -1   3 94.4255 4.71760   8
   3  -1  -3 101.854 4.95396   1
  -3   1   3 94.8978 4.92208  14
   3   1  -3 97.4579 4.29803  12
  -3   1   3 101.950 6.04501  10
  -3   1   3 99.1788 5.12333   2
   3   1  -3 97.5039 4.45832  16
  -1  -1   3 356.733 13.2052  14
   1  -1  -3 353.363 13.3074  15
   1  -1  -3 314.925 12.3374  13
  -1  -1   3 327.556 11.8989   6
   1  -1  -3 327.157 12.0830  16
  -1  -1   3 332.722 12.2699  11
   1  -1  -3 319.786 12.4914   4
  -1  -1   3 313.397 11.7446   5
   1  -1  -3 322.545 12.2355   1
  -1  -1   3 349.355 13.4286   3
  -1   1   3 340.247 13.0940   3
   1   1  -3 316.650 11.7013  16
   1   1  -3 328.844 12.9545  15
   1   1  -3 326.209 12.7229   4
   1   1  -3 324.055 12.1983  13
  -1   1   3 352.752 13.2397  15
  -1   1   3 345.045 12.4748  11
  -1   1   3 343.977 13.4265  10
  -1   1   3 357.118 13.8104   2
   1  -1   3 551.458 19.4772  12
  -1  -1  -3 543.590 20.5961   4
   1  -1   3 554.134 20.0590   5
   1  -1   3 555.467 21.7658  15
   1  -1   3 550.067 20.4039  11
  -1  -1  -3 539.992 20.1882  13
  -1  -1  -3 540.550 19.8977   7
   1   1   3 584.558 21.5021   2
   1   1   3 557.563 22.1540  15
  -1   1  -3 571.236 20.6378   7
   1   1   3 562.587 20.2682   5
   1   1   3 577.509 20.7824  11
  -1   1  -3 537.693 19.8546  13
  -1   1  -3 530.808 20.7015   4
  -3  -1  -3 1553.32 56.8417   4
   3  -1   3 1600.59 56.2113   5
   3  -1   3 1624.37 56.4124  11
   3  -1   3 1550.34 55.5572  12
  -3  -1  -3 1579.08 56.1856  13
   3  -1   3 1634.80 58.7437  15
  -3  -1  -3 1584.12 55.8240   8
  -3  -1  -3 1573.95 55.6980   7
  -3   1  -3 1593.68 56.4908   7
   3   1   3 1632.51 56.5677   5
  -3   1  -3 1521.85 56.7483  10
   3   1   3 1628.96 56.7360   2
   3   1   3 1677.73 59.4035  15
   3   1   3 1665.56 56.7184  11
  -3   1  -3 1599.83 57.0772   4
  -3   1  -3 1602.44 55.8023  13
  -3   1  -3 1503.96 54.7272   8
  -5  -1  -3 255.392 13.7427   4
   5  -1   3 296.147 13.1816  11
  -5  -1  -3 272.768 12.3885   7
   5  -1   3 275.521 15.3318  15
   5  -1   3 280.666 13.2661   5
   5  -1   3 261.033 12.5142  12
   5   1   3 274.715 12.8087  12
   5   1   3 286.870 13.2777  11
   5   1   3 280.671 13.3459   5
   5   1   3 293.275 16.0791  15
  -5   1  -3 309.862 14.3484   4
  -5   1  -3 287.613 12.9874   7
  -7  -1  -3 18.6825 4.19944   4
   7  -1   3 19.0538 3.62967  11
   7  -1   3 16.4621 3.99968   5
   7  -1   3 14.3350 3.60170  12
  -7   1  -3 19.1203 3.72710   7
   7   1   3 19.3266 4.29837   5
   7   1   3 13.3289 3.89272  12
   7   1   3 17.4162 3.76819  11
  -7   1  -3 14.2015 3.83214   4
   9  -1   3 30.4995 5.52735  12
  -9  -1  -3 39.5654 7.62806  14
   9  -1   3 25.8057 5.69206   5
   9   1   3 29.2848 4.93596  12
   9   1   3 24.0579 4.83458   5
  -9   1  -3 31.4287 6.46053   4
  12  -2  -3 164.994 13.1611   1
 -12  -2   3 162.439 15.0493  14
  12  -2  -3 145.061 12.0044  12
  12   2  -3 161.606 14.2451   1
  12   2  -3 139.454 11.0678  12
 -12   2   3 158.932 14.2036  14
 -12   2   3 140.026 13.7219   3
  10  -2  -3 371.133 16.8690   5
 -10  -2   3 383.134 22.1054   3
 -10  -2   3 375.923 22.5509  14
  10  -2  -3 362.604 19.0671   1
  10  -2  -3 334.924 17.6987  16
  10  -2  -3 378.171 18.8546  12
  10   2  -3 371.862 18.4295  16
 -10   2   3 388.568 18.8120   7
 -10   2   3 384.565 22.1386   3
  10   2  -3 384.682 17.4613   5
 -10   2   3 349.614 21.7079  14
  10   2  -3 372.384 18.7203  12
   8  -2  -3 866.608 33.3463  12
   8  -2  -3 852.133 33.0588  16
  -8  -2   3 869.474 37.2704   3
   8  -2  -3 828.026 34.1094   1
   8  -2  -3 867.306 32.0402   5
  -8  -2   3 876.288 37.8350  14
  -8  -2   3 829.735 33.0995   8
  -8   2   3 834.549 36.1649  14
  -8   2   3 849.244 33.5544   7
   8   2  -3 843.056 33.2864  16
  -8   2   3 862.765 34.3086  10
   8   2  -3 880.166 32.5352   5
   8   2  -3 824.566 33.2440  12
  -6  -2   3 562.197 22.4806   9
   6  -2  -3 575.402 22.2552  16
   6  -2  -3 548.717 22.9242   1
  -6  -2   3 579.983 25.6644   3
  -6  -2   3 577.144 25.5656  14
   6  -2  -3 559.740 21.2698   5
   6  -2  -3 569.417 22.3092  12
  -6  -2   3 541.200 22.5780   8
  -6   2   3 596.247 24.5319  10
   6   2  -3 591.617 22.0260   5
   6   2  -3 592.653 22.8296  15
   6   2  -3 605.349 22.6156  12
  -6   2   3 591.458 23.4029   7
  -6   2   3 589.336 24.7595  14
   4  -2  -3 2281.81 73.2466  16
  -4  -2   3 2138.60 73.6369   8
   4  -2  -3 2105.90 72.0996   5
   4  -2  -3 2231.51 73.0162  12
  -4  -2   3 2062.09 75.1184  14
   4  -2  -3 2248.93 73.7245   1
  -4  -2   3 2050.98 76.0987   3
  -4  -2   3 2142.67 73.8576   9
  -4  -2   3 2086.97 72.9081   6
  -4   2   3 1872.85 72.9926  15
   4   2  -3 2306.06 73.6545  15
  -4   2   3 1965.65 72.2053   9
  -4   2   3 2161.13 74.3369  14
  -4   2   3 2106.26 75.6026  10
  -4   2   3 2040.80 73.5644   7
  -4   2   3 2099.59 73.8024  15
  -4   2   3 2105.93 74.0986   2
   2  -2  -3 4555.88 141.715  12
  -2  -2   3 4274.06 140.612  14
  -2  -2   3 3961.89 141.442   3
   2  -2  -3 4435.94 140.904  13
   2  -2  -3 4420.91 141.252   1
   2  -2  -3 4094.37 145.042  15
  -2  -2   3 4325.19 139.652   8
  -2  -2   3 4368.49 141.445   6
  -2  -2   3 3953.11 140.181   9
   2  -2  -3 4571.08 142.458  16
  -2   2   3 3558.88 140.916  10
  -2   2   3 3805.88 139.291  11
  -2   2   3 3692.08 144.141  15
  -2   2   3 3498.15 140.954   2
   0  -2  -3 1168.18 41.0774   1
   0  -2   3 1217.67 42.1569   9
   0  -2   3 1173.45 41.3071  11
   0  -2  -3 1197.32 41.2467   4
   0  -2   3 1136.54 40.8331   5
   0  -2  -3 1166.75 41.1739  13
   0  -2  -3 1164.18 40.8991  16
   0   2   3 1228.99 42.0710  11
   0   2  -3 1155.61 41.6851   7
   0   2  -3 1151.73 41.5093   4
   0   2   3 1264.09 43.5867   2
   0   2  -3 1138.00 40.5940  13
   0   2   3 1155.86 41.6836  10
   0   2   3 1243.18 43.5569  15
  -2  -2  -3 1442.41 49.9159   7
   2  -2   3 1420.08 50.0327  12
   2  -2   3 1448.90 50.9412  11
  -2  -2  -3 1468.89 51.2548   4
  -2  -2  -3 1471.61 50.9358  13
   2  -2   3 1405.71 50.6000   5
   2  -2   3 1386.45 49.2391  16
   2   2   3 1503.34 52.1048   2
  -2   2  -3 1421.00 50.0753  13
   2   2   3 1445.58 51.0962   5
   2   2   3 1547.57 51.8060  11
   2   2   3 1490.22 53.8955  15
  -2   2  -3 1396.50 51.2908   7
  -2   2  -3 1405.64 51.3966   4
   4  -2   3 1103.74 40.1545   5
   4  -2   3 1130.87 40.2502  11
  -4  -2  -3 1070.74 39.8700   8
  -4  -2  -3 1082.34 40.2489  13
   4  -2   3 1055.94 38.5203  16
   4  -2   3 1044.02 39.4760  12
  -4  -2  -3 1085.81 39.0388   7
  -4  -2  -3 1122.42 41.0795   4
   4   2   3 1112.04 40.2112   2
   4   2   3 1139.44 40.7444  11
   4   2   3 1120.93 43.8179  15
   4   2   3 1167.35 40.8852   5
  -4   2  -3 1116.70 41.2005   4
  -4   2  -3 1045.34 40.9273  10
  -4   2  -3 1079.76 40.5117   7
  -6  -2  -3 360.990 17.4476   4
   6  -2   3 340.736 16.0528  12
   6  -2   3 364.720 16.5906   5
   6  -2   3 390.050 16.4615  11
   6   2   3 372.783 16.9193   5
   6   2   3 325.700 16.1212  12
  -6   2  -3 390.415 17.1253   7
   6   2   3 370.288 16.7038  11
   6   2   3 346.556 19.4734  15
  -6   2  -3 351.715 17.2601   4
   8  -2   3 375.791 18.9988  12
  -8  -2  -3 415.862 22.8396  14
   8  -2   3 433.911 20.3071   5
  -8  -2  -3 414.154 20.7611   4
  -8   2  -3 411.123 19.1479   7
   8   2   3 389.712 19.6761   5
   8   2   3 378.438 19.0924  12
  -8   2  -3 418.423 21.0393   4
 -11  -3   3 3.22367 5.85150  14
  11  -3  -3 3.83214 4.40773   1
  11  -3  -3 3.53015 3.85725  12
  11  -3  -3 -1.0204 3.07306  16
  11   3  -3 0.60128 3.10441   5
  11   3  -3 2.83704 4.15174  12
 -11   3   3 -1.2731 3.95084   3
 -11   3   3 15.0457 4.20632   7
 -11   3   3 -1.6884 4.52520  14
   9  -3  -3 7.87311 3.90280   1
   9  -3  -3 4.57524 2.46397   5
  -9  -3   3 6.45082 4.73316  14
   9  -3  -3 12.3798 4.04578  12
   9  -3  -3 12.3964 3.65153  16
  -9  -3   3 14.4548 4.47943   3
  -9  -3   3 8.41348 3.25525   8
   9   3  -3 11.7082 3.32930  12
  -9   3   3 12.2072 4.20197  14
  -9   3   3 17.2091 3.90552   7
   9   3  -3 10.9974 3.20590  16
  -9   3   3 19.9815 4.58214  10
   9   3  -3 6.97576 3.18032   5
   7  -3  -3 94.6659 6.64597  12
   7  -3  -3 88.4392 6.35558  16
  -7  -3   3 96.9293 9.27450  14
  -7  -3   3 84.3717 6.29063   8
   7  -3  -3 87.7782 5.37260   5
   7  -3  -3 82.8077 6.91384   1
  -7  -3   3 87.5852 8.02318   3
  -7   3   3 92.0320 7.65427   7
   7   3  -3 91.6730 6.94138  15
   7   3  -3 93.8404 6.43083   5
  -7   3   3 98.3422 8.68261  10
   7   3  -3 91.5203 6.32238  12
   5  -3  -3 92.2281 4.50743   5
  -5  -3   3 93.5247 5.37298   6
  -5  -3   3 82.6336 6.83289  14
   5  -3  -3 94.7675 5.27594  16
  -5  -3   3 114.209 6.38767   8
  -5  -3   3 91.5666 7.49053   3
  -5  -3   3 89.8761 5.92514   9
   5  -3  -3 88.0379 5.83780   1
   5  -3  -3 85.2994 5.11890  12
  -5   3   3 87.7507 7.96061  10
   5   3  -3 92.1783 5.93618  15
  -5   3   3 95.9655 6.18761   2
  -5   3   3 93.2449 6.39066   7
  -3  -3   3 2074.80 71.2639   9
   3  -3  -3 2110.91 69.8677  12
   3  -3  -3 2144.62 70.4860   1
  -3  -3   3 2122.97 70.0128   6
  -3  -3   3 2016.48 73.1037   3
   3  -3  -3 2078.20 69.8208  13
   3  -3  -3 2168.47 70.0946  16
  -3  -3   3 2036.20 71.8770  14
  -3  -3   3 2002.50 70.5576   8
  -3   3   3 2050.96 70.0148  14
  -3   3   3 1964.19 70.1382   7
  -3   3   3 1938.79 70.3089  15
  -3   3   3 2019.09 72.8566  10
  -3   3   3 1912.53 72.3913   2
  -3   3   3 1819.49 69.6018  11
   1  -3  -3 516.597 18.8821   4
  -1  -3   3 503.509 19.0701   6
   1  -3  -3 498.421 19.0959  16
  -1  -3   3 537.514 20.4439   9
   1  -3  -3 510.012 19.1562  13
   1  -3  -3 534.468 18.5597   6
  -1  -3   3 544.564 21.2995   3
   1  -3  -3 503.914 19.3288   1
  -1  -3   3 539.966 20.6749  14
  -1  -3   3 520.176 19.2317   8
   1   3  -3 524.153 18.7192  13
   1   3  -3 505.141 19.4986   4
  -1   3   3 536.522 21.1779  15
  -1   3   3 587.417 22.7345   2
  -1   3   3 548.754 20.1561  11
  -1   3   3 570.984 21.2132  10
  -1  -3  -3 386.750 15.5245   4
   1  -3   3 434.724 16.5002   9
   1  -3   3 394.341 15.7260  11
   1  -3   3 385.435 14.7763  12
   1  -3   3 395.395 15.3361   5
  -1  -3  -3 402.230 15.6525  13
  -1  -3  -3 400.082 15.5514   1
  -1   3  -3 396.844 14.5743  13
   1   3   3 384.392 15.2644  10
   1   3   3 431.311 16.9946  11
   1   3   3 449.730 18.1743   2
  -1   3  -3 403.433 16.2426   7
   1   3   3 454.432 19.0239  15
  -1   3  -3 397.964 15.9428   4
   3  -3   3 4.11799 1.75655  11
  -3  -3  -3 3.20487 2.07222   4
   3  -3   3 12.3711 2.14359   9
   3  -3   3 4.63275 1.46125   5
  -3  -3  -3 4.01520 1.88970   8
  -3  -3  -3 4.77275 1.95692  13
   3  -3   3 4.06227 1.44227  12
  -3   3  -3 8.78850 2.68737   7
  -3   3  -3 4.46231 2.35242  10
   3   3   3 2.01261 1.90078  11
   3   3   3 8.15078 2.30644   5
   3   3   3 3.30566 2.00513   2
  -3   3  -3 9.41018 2.58073   4
   3   3   3 11.6769 3.31578  15
   5  -3   3 18.7284 3.10534  12
   5  -3   3 10.5009 2.49478   5
  -5  -3  -3 16.7956 3.78392   4
  -5  -3  -3 15.9224 2.79443   8
   5  -3   3 17.8319 3.03643  11
   5   3   3 13.2319 4.44353  15
   5   3   3 14.1728 3.15625   5
  -5   3  -3 10.9120 3.57783   7
  -5   3  -3 13.1432 3.32847  10
  -5   3  -3 19.3281 3.67259   4
   5   3   3 10.0130 3.13866  11
  -7  -3  -3 32.0933 5.56206   4
   7  -3   3 18.7825 3.90756  12
   7  -3   3 19.1116 3.78165   5
  -7  -3  -3 18.3173 5.49027  14
   7   3   3 16.5420 3.94833   5
   7   3   3 17.5646 3.73547  11
   7   3   3 20.0806 3.82278  12
  -7   3  -3 18.0809 4.25480   4
  -7   3  -3 17.0462 4.90320   7
  -9  -3  -3 110.991 12.3497  14
   9  -3   3 123.833 10.4221   5
   9  -3   3 83.8503 8.43482  12
  -9   3  -3 116.008 10.2760   7
   9   3   3 127.038 9.44717   5
   9   3   3 108.670 9.44319  12
  -9   3  -3 111.967 10.7521   4
  10  -4  -3 123.300 10.4890   1
 -10  -4   3 153.490 13.8777  14
 -10  -4   3 156.634 10.9014   8
  10  -4  -3 144.814 10.8151  12
 -10  -4   3 146.786 12.8777   3
  10  -4  -3 151.426 9.86311  16
 -10   4   3 145.268 11.3351   7
 -10   4   3 146.288 13.0870  14
  10   4  -3 134.503 10.4364  16
  10   4  -3 155.570 10.0656   5
  10   4  -3 151.337 11.0762  12
   8  -4  -3 11.5427 2.66844  16
   8  -4  -3 16.7350 2.99090   5
   8  -4  -3 10.8314 3.34832  12
  -8  -4   3 8.20211 2.78145   8
  -8  -4   3 14.2574 4.71522   3
  -8  -4   3 12.8324 4.52478  14
   8  -4  -3 7.57353 3.22570   1
  -8   4   3 12.9530 4.35665   7
  -8   4   3 8.43606 4.67561  10
   8   4  -3 18.7672 3.88458   5
   8   4  -3 20.7613 4.07210  12
  -6  -4   3 683.727 30.9082  14
   6  -4  -3 711.642 27.1475  16
  -6  -4   3 704.916 28.3858   8
   6  -4  -3 686.367 26.2139   5
   6  -4  -3 725.482 27.4650  12
   6  -4  -3 701.934 27.8271   1
  -6  -4   3 719.142 27.1117   6
  -6  -4   3 742.875 31.3854   3
  -6  -4   3 729.082 28.6843   9
   6   4  -3 717.777 26.6916  11
   6   4  -3 745.362 29.1106  15
  -6   4   3 676.114 27.9698   2
  -6   4   3 732.180 30.6415  10
   6   4  -3 745.400 27.3342   5
  -6   4   3 730.512 28.2403   7
   4  -4  -3 745.455 26.8835  16
  -4  -4   3 719.862 26.8792   6
   4  -4  -3 700.509 26.3252  13
  -4  -4   3 714.136 29.4595  14
   4  -4  -3 707.834 27.2534   1
  -4  -4   3 749.175 28.5169   9
  -4  -4   3 742.299 30.4740   3
  -4  -4   3 747.934 27.9924   8
   4  -4  -3 733.018 26.8504  12
  -4   4   3 738.852 27.3819   7
   4   4  -3 732.404 28.3260  15
  -4   4   3 776.862 30.7024  10
  -4   4   3 715.048 29.3683   2
   2  -4  -3 478.642 18.1141  13
   2  -4  -3 474.879 18.5821   1
  -2  -4   3 487.189 18.4344   6
  -2  -4   3 518.682 21.3348   3
   2  -4  -3 493.607 18.4228  16
  -2  -4   3 508.078 19.8489   9
  -2  -4   3 497.652 20.1844  14
  -2  -4   3 486.375 18.9024   8
   2  -4  -3 484.991 18.2532  12
  -2   4   3 485.505 19.9159  15
  -2   4   3 522.547 22.1515   2
  -2   4   3 484.679 18.0150   7
  -2   4   3 486.473 18.8685  11
  -2   4   3 549.354 21.6186  10
   0  -4   3 2069.33 74.0007   5
   0  -4  -3 2162.82 73.7501   4
   0  -4  -3 2227.27 74.3715  13
   0  -4   3 2110.86 74.2419   6
   0  -4   3 2085.42 73.5322  12
   0  -4   3 2119.19 73.7398   8
   0  -4  -3 2162.86 73.3622   6
   0  -4  -3 2185.34 74.2010  16
   0  -4   3 2135.22 75.3935   9
   0  -4  -3 2176.69 74.4575   1
   0   4   3 2136.52 77.2182  15
   0   4   3 2179.51 78.0524   2
   0   4  -3 2154.13 74.5035   4
   0   4  -3 2284.39 73.0657  16
   0   4   3 2082.53 75.3915  10
   0   4  -3 2186.77 75.2232   7
   0   4   3 2145.04 75.4544  11
   2  -4   3 146.031 6.92037  12
  -2  -4  -3 156.892 7.68768   4
  -2  -4  -3 151.470 7.74118  13
  -2  -4  -3 147.388 7.80638  14
   2  -4   3 147.959 7.48064   5
   2  -4   3 166.465 8.08434   9
  -2   4  -3 161.631 10.2008  10
   2   4   3 163.147 9.23510  11
  -2   4  -3 151.292 7.87499   4
   2   4   3 165.540 10.6679  15
   2   4   3 170.162 9.67461   2
  -2   4  -3 156.677 8.38828   7
   4  -4   3 55.2481 4.35050  12
  -4  -4  -3 60.8625 5.05874   4
   4  -4   3 54.6757 4.57607   5
  -4  -4  -3 51.9941 5.27222  13
  -4  -4  -3 59.5845 5.05621   8
  -4  -4  -3 53.8938 5.45018  14
   4   4   3 58.1408 6.73035  15
  -4   4  -3 55.1145 5.66196   4
  -4   4  -3 51.4581 5.66746   7
   4   4   3 64.9200 6.01460   5
   4   4   3 66.3500 5.66733  11
   4   4   3 53.2431 4.95825   2
  -4   4  -3 63.0522 6.39797  10
   6  -4   3 590.844 24.1602   5
  -6  -4  -3 574.560 26.5325  14
   6  -4   3 533.040 22.9923  12
  -6  -4  -3 557.733 23.5766   8
  -6  -4  -3 577.349 24.2543   4
   6   4   3 552.813 24.1090   5
  -6   4  -3 541.236 24.3271   7
   6   4   3 569.114 23.9175  11
  -6   4  -3 552.304 24.7949   4
  -8  -4  -3 109.137 11.2657  14
   8  -4   3 103.014 8.56770  12
   8  -4   3 100.883 9.32690   5
  -8   4  -3 103.363 9.86180   7
   8   4   3 103.871 8.25787  12
   8   4   3 112.048 9.61868   5
  -8   4  -3 99.3616 9.82974   4
 -11  -5   3 331.051 22.0005  14
  11  -5  -3 304.827 17.5656  12
 -11  -5   3 320.164 17.6351   8
 -11   5   3 283.661 19.5104  14
  11   5  -3 290.852 15.3247   5
  11   5  -3 305.954 17.1112  12
 -11   5   3 314.508 17.8258   7
  -9  -5   3 2.83186 4.48331  14
  -9  -5   3 1.76231 3.27977   8
   9  -5  -3 1.93925 2.52644  16
   9  -5  -3 1.79185 2.19176   5
   9  -5  -3 3.46183 3.38480  12
  -9  -5   3 0.58933 3.31700   3
   9  -5  -3 1.58861 3.04456   1
  -9   5   3 14.0834 5.19343  10
   9   5  -3 4.56996 2.59581   5
  -9   5   3 11.1413 4.74481   7
   9   5  -3 1.38318 3.40147  12
  -9   5   3 -0.2466 3.65315  14
  -7  -5   3 51.1876 7.56154  14
   7  -5  -3 49.6015 5.28703  12
   7  -5  -3 46.3645 4.10106   5
  -7  -5   3 42.0836 5.41702   8
  -7  -5   3 57.3022 7.91172   3
   7  -5  -3 45.4064 4.78313  16
   7  -5  -3 43.1552 5.19248   1
   7   5  -3 47.1746 5.28132   5
   7   5  -3 43.5872 5.92773  15
  -7   5   3 46.7493 5.96775   7
   7   5  -3 44.4609 4.69841  11
  -7   5   3 50.5054 7.75680  10
   5  -5  -3 778.542 29.2232  16
  -5  -5   3 806.817 29.5722   6
  -5  -5   3 778.451 30.9181   8
  -5  -5   3 753.762 32.8978  14
  -5  -5   3 825.836 31.7643   9
  -5  -5   3 825.390 33.8351   3
   5  -5  -3 771.059 29.8280   1
   5  -5  -3 792.251 29.5859  12
  -5   5   3 833.276 33.7017  10
  -5   5   3 741.127 31.9629   2
  -5   5   3 805.700 30.2385   7
   5   5  -3 779.512 31.5111  15
   3  -5  -3 265.165 10.8518  13
   3  -5  -3 253.504 11.2509  12
   3  -5  -3 271.537 11.8765   1
  -3  -5   3 288.951 13.2814   9
  -3  -5   3 272.445 13.4708  14
   3  -5  -3 270.503 11.3901  16
  -3  -5   3 292.622 14.9401   3
  -3  -5   3 256.339 12.1285   8
  -3  -5   3 284.463 11.6558   6
  -3   5   3 294.761 11.6890   7
  -3   5   3 305.914 15.5166  10
  -3   5   3 295.820 15.4373   2
  -3   5   3 279.050 12.8138  15
   1  -5  -3 1143.07 39.9938  13
  -1  -5   3 1095.44 40.3053   8
   1  -5  -3 1137.83 40.4713   1
  -1  -5   3 1146.67 41.7878   9
   1  -5  -3 1146.11 40.1860  16
  -1  -5   3 1097.55 40.2321   6
   1  -5  -3 1142.67 39.4907   6
   1   5  -3 1106.40 40.1146   4
  -1   5   3 1115.64 41.1739  11
  -1   5   3 1182.78 44.6339   2
  -1   5   3 1167.58 42.8087  10
   1   5  -3 1148.01 40.9914   7
  -1   5   3 1124.56 42.8383  15
   1  -5   3 613.969 23.9945   9
  -1  -5  -3 603.517 23.2308   1
  -1  -5  -3 624.142 22.1605   6
   1  -5   3 574.134 22.8128   5
  -1  -5  -3 621.722 23.1865  13
  -1  -5  -3 617.170 22.5157   4
   1  -5   3 584.087 22.3232  12
   1   5   3 677.409 27.3310   2
   1   5   3 622.259 24.3691  11
   1   5   3 602.508 23.4406  10
  -1   5  -3 634.304 24.2291   7
  -1   5  -3 589.201 23.1512   4
  -1   5  -3 623.119 27.2613  10
   1   5   3 621.593 26.7433  15
  -3  -5  -3 47.0345 4.54458   8
   3  -5   3 61.7653 4.22353  12
  -3  -5  -3 47.2138 4.27123  13
   3  -5   3 47.8548 4.02985   5
  -3  -5  -3 44.9010 4.38884  14
  -3  -5  -3 46.3824 4.24828   4
  -3   5  -3 55.2543 4.99998   4
   3   5   3 37.3537 4.32107   5
  -3   5  -3 47.6831 6.63600  10
  -3   5  -3 47.7706 5.55411   7
   3   5   3 50.3267 5.46201  11
   3   5   3 48.0598 6.29396  15
   3   5   3 59.1897 5.70271   2
   5  -5   3 226.457 11.5152   5
  -5  -5  -3 259.092 13.7964  14
  -5  -5  -3 223.365 11.5943   4
   5  -5   3 210.092 10.9644  12
  -5  -5  -3 215.555 11.7333   8
   5   5   3 220.211 11.9528  11
  -5   5  -3 229.089 12.9785   7
   5   5   3 202.591 13.8724  15
  -5   5  -3 216.022 12.3213   4
   5   5   3 202.373 12.0296   5
  -5   5  -3 235.807 14.1813  10
  -7  -5  -3 425.684 22.2965  14
  -7  -5  -3 405.441 19.0977   8
   7  -5   3 386.063 18.5902  12
   7  -5   3 428.360 19.5189   5
   7   5   3 396.656 18.9555  11
  -7   5  -3 429.228 20.6800   4
  -7   5  -3 430.260 20.8104   7
   7   5   3 365.673 18.3602  12
   7   5   3 415.232 19.8377   5
 -10  -6   3 97.0806 9.75054   8
 -10  -6   3 96.2606 11.3904  14
  10  -6  -3 85.9350 9.02847  12
  10   6  -3 86.0653 7.48121   5
 -10   6   3 91.4141 9.78601  14
  10   6  -3 104.061 9.47093  12
 -10   6   3 94.4105 8.81952   7
  -8  -6   3 113.897 8.88522   8
  -8  -6   3 108.180 10.5809   3
   8  -6  -3 101.003 6.94220   5
   8  -6  -3 95.9050 7.94426   1
  -8  -6   3 105.269 11.4549  14
   8  -6  -3 100.638 7.71154  12
   8  -6  -3 106.999 7.42477  16
  -8   6   3 110.156 11.4578  10
   8   6  -3 119.351 8.60610   5
  -8   6   3 111.415 8.68553   7
   6  -6  -3 846.524 33.1913   1
   6  -6  -3 891.772 33.3923  12
  -6  -6   3 798.616 36.9802  14
  -6  -6   3 882.071 32.8602   6
  -6  -6   3 910.291 37.9552   3
  -6  -6   3 898.519 35.2502   9
   6  -6  -3 848.974 32.4811  16
  -6  -6   3 905.582 35.0338   8
  -6   6   3 813.161 35.4223   2
  -6   6   3 890.315 37.9184  10
   6   6  -3 839.814 35.3042  15
   6   6  -3 871.432 32.9806  11
  -6   6   3 902.803 34.0501   7
   4  -6  -3 131.003 7.54121  12
  -4  -6   3 166.257 11.0319   3
  -4  -6   3 151.614 10.1741  14
  -4  -6   3 159.589 9.79830   9
   4  -6  -3 150.694 8.16803   1
  -4  -6   3 152.958 9.00611   8
  -4  -6   3 151.877 7.72064   6
   4  -6  -3 148.516 7.65824  16
   4  -6  -3 138.968 6.66419  13
   4   6  -3 145.781 9.67087  15
  -4   6   3 139.367 8.55170  15
  -4   6   3 188.315 12.5733  10
  -4   6   3 171.654 11.7351   2
  -4   6   3 160.145 8.27148   7
   2  -6  -3 9.28371 2.18368   1
   2  -6  -3 10.7940 2.13501  12
   2  -6  -3 10.8320 1.66745   6
  -2  -6   3 14.0867 2.82623   9
  -2  -6   3 11.8064 2.92957  14
   2  -6  -3 13.7667 2.31584  16
  -2  -6   3 12.1903 2.19915   6
   2  -6  -3 10.2297 1.67592  13
  -2  -6   3 12.2191 3.44714   3
  -2  -6   3 9.72110 2.17848   8
  -2   6   3 11.2108 3.11803  15
   2   6  -3 8.93071 1.74463   4
   2   6  -3 8.96849 2.17823   7
  -2   6   3 12.8714 3.64752  10
  -2   6   3 11.0196 1.85162   7
  -2   6   3 7.05382 3.71034   2
   0  -6  -3 1052.35 38.4488   1
   0  -6   3 1028.02 38.1916   6
   0  -6   3 990.647 37.4719   8
   0  -6  -3 1066.53 37.2364   6
   0  -6   3 1102.72 39.7756   9
   0  -6  -3 1062.36 37.9325  13
   0   6   3 1105.97 42.9466   2
   0   6   3 1072.30 40.0238  10
   0   6  -3 1100.98 43.2303  10
   0   6   3 1018.32 41.1939  15
   0   6  -3 1016.70 37.7472   4
   0   6  -3 1088.77 39.2261   7
   0   6   3 1041.56 39.2933  11
   2  -6   3 468.784 18.6847  12
   2  -6   3 497.305 19.9661   9
  -2  -6  -3 488.637 18.2908   6
  -2  -6  -3 493.868 20.8982   8
  -2  -6  -3 492.937 19.6188  13
   2  -6   3 463.281 19.2159   5
  -2   6  -3 512.110 24.1152  10
   2   6   3 452.594 20.5861  11
  -2   6  -3 475.056 19.4171   4
  -2   6  -3 502.355 20.9070   7
   2   6   3 515.284 23.2666   2
   2   6   3 448.372 22.6798  15
   4  -6   3 118.793 7.47111   5
  -4  -6  -3 125.841 7.63792   4
   4  -6   3 113.075 6.98540  12
  -4  -6  -3 118.600 8.69316   8
   4   6   3 121.919 9.15776  11
   4   6   3 108.365 10.4341  15
  -4   6  -3 125.504 10.8397  10
  -4   6  -3 126.189 8.32037   4
   4   6   3 112.934 8.66199   2
  -4   6  -3 133.121 9.51373   7
   4   6   3 131.861 8.70576   5
   6  -6   3 258.203 13.3179  12
   6  -6   3 273.291 14.1729   5
  -6  -6  -3 260.880 14.4271   8
   6   6   3 248.872 14.0094  11
   6   6   3 256.569 14.3043   5
  -6   6  -3 262.361 15.3214   7
  -6   6  -3 260.007 14.3999   4
  -6   6  -3 260.240 16.2702  10
   8  -6   3 9.56454 4.20873   5
   8   6   3 14.4565 3.42575  11
   8   6   3 3.24143 3.61294  12
   8   6   3 10.9671 3.72680   5
  -8   6  -3 4.00806 3.62130   4
  -8   6  -3 6.47663 4.01946   7
   9  -7  -3 109.421 9.31520  12
  -9  -7   3 92.0207 9.65125   8
  -9  -7   3 79.3474 11.2012  14
  -9   7   3 83.9155 9.38454   7
   9   7  -3 84.5407 8.40659   5
  -9   7   3 78.8470 10.1831  10
   7  -7  -3 2.27522 1.73682  16
   7  -7  -3 4.55802 2.29665  12
  -7  -7   3 2.91530 3.71567   3
  -7  -7   3 1.63885 2.47312   8
  -7  -7   3 1.69990 2.08365   6
  -7  -7   3 1.91543 3.31721  14
   7  -7  -3 1.32452 2.45887   1
   7   7  -3 2.46202 3.51802  15
   7   7  -3 1.34605 2.87808  11
  -7   7   3 1.72207 2.56955   7
  -7   7   3 2.71799 5.61226  10
  -5  -7   3 4.48782 2.18589   8
  -5  -7   3 -1.0841 1.41608   6
   5  -7  -3 2.16787 2.06010  12
  -5  -7   3 8.78014 4.19076   3
  -5  -7   3 -0.0131 2.44126  14
   5  -7  -3 -0.6502 1.71681  16
  -5  -7   3 1.06606 2.17750   9
   5  -7  -3 0.00651 2.14481   1
   5   7  -3 3.76189 2.53273  15
  -5   7   3 1.79304 3.13338  15
  -5   7   3 1.26556 2.63826   7
  -5   7   3 1.26388 2.95147   2
  -5   7   3 -0.8402 3.25680  10
  -3  -7   3 841.370 35.4895  14
   3  -7  -3 901.400 32.6080  16
   3  -7  -3 847.626 32.6381  12
   3  -7  -3 899.003 33.1165   1
  -3  -7   3 863.618 32.7384   6
   3  -7  -3 850.853 32.0582   6
  -3  -7   3 825.544 33.8559   8
  -3  -7   3 904.250 37.3641   3
  -3  -7   3 911.142 35.4877   9
  -3   7   3 872.208 35.1773  15
  -3   7   3 929.102 38.3879   2
   3   7  -3 888.613 32.8340   7
  -3   7   3 883.084 32.2319   7
  -3   7   3 952.709 37.8608  10
  -1  -7   3 288.532 12.9322   6
  -1  -7   3 307.293 14.6725   9
   1  -7  -3 284.454 11.8493   6
  -1  -7   3 274.602 12.7122   8
   1  -7  -3 284.432 11.9771  13
   1  -7  -3 279.510 12.9190   1
   1  -7  -3 286.596 12.4965  16
  -1   7   3 288.620 15.4543  15
   1   7  -3 303.866 13.3668   7
   1   7  -3 326.961 17.3083  10
  -1   7   3 313.618 17.8074   2
  -1   7   3 313.508 15.9093  10
  -1   7   3 292.814 13.6886  11
   1  -7   3 4.19422 1.66461   6
   1  -7   3 3.24407 1.75525   9
  -1  -7  -3 2.21627 1.70182  13
  -1  -7  -3 2.42034 1.33925   6
   1  -7   3 7.13559 1.89765  12
  -1  -7  -3 4.03334 2.76162   8
   1   7   3 6.33640 2.78608  11
  -1   7  -3 5.31478 2.90381   7
   1   7   3 2.75027 4.80973   2
  -1   7  -3 2.61734 2.77339  10
   1   7   3 4.67497 3.76000  15
   1   7   3 4.89499 2.66412  10
  -3  -7  -3 113.409 6.40118   6
   3  -7   3 115.401 7.60958   5
  -3  -7  -3 125.309 9.11201   8
   3  -7   3 117.501 6.93760  12
   3   7   3 113.199 9.97076   2
   3   7   3 128.846 9.50031  11
   3   7   3 107.311 10.5197  15
  -3   7  -3 125.556 9.14879   7
  -3   7  -3 119.249 11.1104  10
   5  -7   3 10.2709 3.45339   5
   5  -7   3 9.48297 2.58556  12
  -5  -7  -3 20.0354 4.29041   8
  -5   7  -3 16.8159 5.70268  10
   5   7   3 9.99343 3.29706   5
  -5   7  -3 27.1389 5.84073   7
   5   7   3 13.8847 4.65515  11
   7  -7   3 11.9199 3.59849  12
   7  -7   3 5.44615 4.01729   5
  -7  -7  -3 9.71289 3.89572   8
  -7   7  -3 18.6687 6.13443   7
   7   7   3 7.14893 3.34336   5
   7   7   3 12.1290 3.95683  11
 -10  -8   3 206.872 14.5978   8
  10  -8  -3 204.556 13.6768  12
 -10  -8   3 214.831 17.8459  14
 -10   8   3 186.973 13.7781   7
  10   8  -3 187.247 12.3866  12
 -10   8   3 203.835 15.6625  10
  10   8  -3 192.724 12.5548   5
  -8  -8   3 807.533 36.4475   3
  -8  -8   3 710.962 36.3363  14
   8  -8  -3 728.910 31.3185  12
  -8  -8   3 792.467 34.0356   8
   8   8  -3 772.065 31.6135   5
  -8   8   3 741.518 36.8725  10
  -8   8   3 785.703 32.8476   7
   6  -8  -3 343.498 16.4469   1
  -6  -8   3 382.414 16.7641   6
  -6  -8   3 374.090 18.8299   8
  -6  -8   3 436.033 22.6290   3
   6  -8  -3 359.189 16.7560  12
  -6  -8   3 326.186 19.8942  14
   6  -8  -3 352.124 15.9986  16
  -6   8   3 377.924 21.8821  10
  -6   8   3 355.117 20.7377   2
   6   8  -3 356.028 20.0165  15
  -6   8   3 370.869 17.4984   7
   6   8  -3 381.346 17.5857  11
  -4  -8   3 419.528 19.3536   8
  -4  -8   3 428.190 22.2198   3
   4  -8  -3 376.838 17.0171  12
  -4  -8   3 425.278 20.3013   9
   4  -8  -3 425.225 17.1182  16
  -4  -8   3 392.028 20.3407  14
   4  -8  -3 377.494 16.5137   6
  -4  -8   3 398.246 17.3212   6
   4  -8  -3 408.658 17.5961   1
  -4   8   3 396.514 19.3973  15
  -4   8   3 395.369 17.0058   7
   4   8  -3 412.633 21.0366  15
  -4   8   3 413.377 21.9112  10
   4   8  -3 420.449 19.8309  10
  -4   8   3 411.093 22.0159   2
   2  -8  -3 594.358 23.4500   1
  -2  -8   3 533.130 23.7396   8
  -2  -8   3 620.948 25.9614   9
   2  -8  -3 543.939 22.1393   6
  -2  -8   3 558.499 22.9740   6
   2  -8  -3 584.420 22.8598  16
  -2   8   3 610.218 27.3053  10
  -2   8   3 614.427 28.6396   2
   2   8  -3 605.141 23.4594   7
  -2   8   3 565.373 26.1552  15
   2   8  -3 623.633 27.6666  10
   0  -8  -3 275.232 13.1420   1
   0  -8   3 286.692 14.5559   9
   0  -8  -3 268.542 12.1471  13
   0  -8  -3 283.171 14.3267   8
   0  -8   3 254.934 12.5898   6
   0  -8  -3 273.683 11.8380   6
   0   8  -3 289.629 13.7344   7
   0   8  -3 305.463 17.9272  10
   0   8   3 285.196 17.7432   2
   0   8   3 273.736 16.2090  15
   0   8   3 280.968 14.2674  11
   0   8   3 288.355 14.7518  10
  -2  -8  -3 974.402 38.3150   8
   2  -8   3 944.901 35.6268  12
  -2  -8  -3 979.631 35.1460   6
   2  -8   3 948.994 36.6603   6
   2   8   3 925.476 40.8855  15
  -2   8  -3 958.088 37.8517   7
   2   8   3 1003.09 41.4663   2
  -2   8  -3 955.809 41.9461  10
   2   8   3 936.261 37.8438  11
  -4  -8  -3 909.146 36.8422   8
   4  -8   3 884.523 34.2936  12
   4   8   3 878.690 36.3949  11
   4   8   3 899.695 37.6154   2
   4   8   3 862.986 35.1945   5
  -4   8  -3 908.260 40.8605  10
  -4   8  -3 897.182 36.7080   7
   6  -8   3 80.8529 8.06534   5
  -6  -8  -3 85.7767 8.81408   8
   6  -8   3 85.2524 7.23815  12
  -6   8  -3 85.3299 11.1757  10
   6   8   3 64.2402 7.62493  11
  -6   8  -3 80.0392 9.29600   7
   6   8   3 63.5308 7.61949   5
   9  -9  -3 127.665 10.6735  12
  -9  -9   3 131.635 12.1073   8
  -9  -9   3 129.208 13.6021  14
  -9   9   3 143.383 15.5512  10
   9   9  -3 120.504 10.5878   5
  -9   9   3 159.375 12.0702   7
  -7  -9   3 124.965 8.58612   6
  -7  -9   3 119.757 12.1858  14
  -7  -9   3 144.659 11.8741   8
  -7  -9   3 133.394 12.4328   3
   7  -9  -3 128.225 9.61129  12
  -7   9   3 123.016 14.6296  10
  -7   9   3 122.261 10.0324   7
   5  -9  -3 24.7985 3.85549  16
  -5  -9   3 27.6188 5.70287  14
  -5  -9   3 34.3577 4.74618   6
   5  -9  -3 26.0793 4.16048   1
  -5  -9   3 30.0171 5.84431   8
   5  -9  -3 28.8667 3.75555   6
   5  -9  -3 32.1296 4.26137  12
  -5   9   3 22.3984 7.90233  10
   5   9  -3 32.9010 6.64005   2
  -5   9   3 27.3516 7.92004   2
  -5   9   3 25.4482 4.35894   7
   3  -9  -3 110.521 7.11411  16
   3  -9  -3 109.915 7.60517   1
  -3  -9   3 98.9160 8.25533   8
   3  -9  -3 110.110 6.71185   6
   3  -9  -3 102.782 7.76934   8
  -3  -9   3 111.099 9.01384   9
  -3  -9   3 108.598 7.34398   6
  -3   9   3 101.221 10.3681  10
  -3   9   3 104.894 12.5740   2
  -3   9   3 101.176 9.19573  15
   3   9  -3 117.972 10.2604  10
   3   9  -3 104.838 10.0930  15
  -1  -9   3 25.2135 3.85472   6
   1  -9  -3 37.0168 4.66188   1
   1  -9  -3 30.0253 3.43631   6
   1  -9  -3 29.8337 4.63068   8
  -1  -9   3 33.6869 5.05893   9
   1   9  -3 30.8860 4.42529   7
   1   9  -3 25.9990 6.59600  10
  -1   9   3 34.4796 5.30493  11
  -1   9   3 34.1572 6.72344  10
  -1   9   3 29.3285 6.06237  15
  -1   9   3 24.1462 6.41617   2
   1  -9   3 29.7649 4.82656   9
  -1  -9  -3 27.2657 5.13059   8
   1  -9   3 24.5083 3.80460   6
   1   9   3 32.0500 8.29111   2
  -1   9  -3 29.6511 6.47279  10
   1   9   3 31.0071 5.27730  11
   1   9   3 17.8246 5.66875  15
  -1   9  -3 23.1911 4.60907   7
  -3  -9  -3 278.272 16.1841   8
   3  -9   3 269.246 14.6924   6
   3  -9   3 296.587 13.8771  12
  -3   9  -3 298.060 16.2098   7
   3   9   3 271.037 17.1316   2
  -3   9  -3 281.307 19.7019  10
   3   9   3 297.927 16.4422  11
  -5  -9  -3 83.3773 8.19709   8
   5  -9   3 86.4284 7.43764  12
   5  -9   3 90.0379 8.72436   6
  -5   9  -3 88.0253 9.67354   7
   5   9   3 66.2991 8.00819   5
  -5   9  -3 68.0434 11.0334  10
   5   9   3 80.3849 8.93754  11
   8 -10  -3 23.5298 5.75863  12
  -8 -10   3 17.5891 7.59840  14
  -8 -10   3 33.7883 6.97206   8
  -8  10   3 24.2713 9.09758  10
   8  10  -3 35.2228 6.34436   5
  -8  10   3 22.6062 5.60659   7
  -6 -10   3 83.8791 7.72008   6
   6 -10  -3 73.9341 7.56030  12
  -6 -10   3 95.2892 9.20187   8
  -6 -10   3 76.7930 8.86239  14
   6 -10  -3 84.8324 6.86742   6
  -6  10   3 93.5722 12.5677   2
  -6  10   3 70.4944 12.0032  10
   6  10  -3 82.0546 8.85641  11
   4 -10  -3 1.82541 2.23523  16
   4 -10  -3 3.52294 2.40908   6
  -4 -10   3 3.36817 2.91328   6
   4 -10  -3 6.28677 3.03969   1
  -4 -10   3 3.07401 3.27884   8
   4  10  -3 8.85472 5.10473   2
  -4  10   3 3.04445 4.82869  10
  -4  10   3 3.06180 6.24147   2
   2 -10  -3 84.0653 6.80026   1
   2 -10  -3 65.6279 5.02186   6
  -2 -10   3 63.8514 5.67371   6
   2 -10  -3 63.5322 6.45380   8
  -2 -10   3 73.1058 8.17072   9
  -2 -10   3 60.8656 6.86175   8
  -2  10   3 77.7551 9.50084  10
   2  10  -3 77.4667 9.72011  10
  -2  10   3 79.8191 7.06443  11
  -2  10   3 59.9566 9.23938  15
  -2  10   3 70.1595 10.3517   2
   0 -10   3 28.6776 5.34612   9
   0 -10  -3 21.2237 4.86113   8
   0 -10   3 15.2843 3.68874   6
   0  10  -3 28.0034 6.49183  10
   0  10   3 38.2590 9.21331   2
   0  10  -3 23.4521 4.40534   7
   0  10   3 19.2728 5.41652  11
   0  10   3 23.8428 7.90245  10
   2 -10   3 94.2506 8.06168   6
  -2 -10  -3 94.7240 9.52677   8
  -2  10  -3 89.2733 8.08664   7
   2  10   3 111.053 10.5493  11
  -2  10  -3 102.301 13.5395  10
   2  10   3 78.3137 11.4541   2
  -4 -10  -3 7.98481 3.67497   8
   4 -10   3 8.05162 3.41159  12
   4 -10   3 10.5148 3.50953   6
  -4  10  -3 7.12514 4.82461   7
   4  10   3 5.11397 5.31522  11
  -4  10  -3 5.98501 6.60589  10
   4  10   3 8.50885 4.55239   5
  -4  10  -3 16.1170 5.98672   2
   6 -10   3 2.12569 3.74879   6
  -6 -10  -3 5.76180 4.18062   8
  -6  10  -3 -4.0791 5.76016  10
  -6  10  -3 -0.8919 5.06456   7
   6  10   3 0.03502 2.84009  11
   6  10   3 0.91202 4.37260   5
   7 -11  -3 135.070 9.86448  12
   7 -11  -3 113.499 9.37402   6
  -7 -11   3 128.763 12.1584   8
  -7 -11   3 121.092 9.65767   6
  -7  11   3 119.031 15.2345  10
  -5 -11   3 144.006 10.0724   6
   5 -11  -3 135.416 8.90963   6
  -5 -11   3 140.556 11.4911   8
  -5  11   3 147.481 16.3551  10
   5  11  -3 141.459 13.5381   2
  -5  11   3 155.339 16.1649   2
   3 -11  -3 61.1611 5.84326   6
  -3 -11   3 62.4142 6.66768   6
  -3 -11   3 66.8363 7.97972   8
   3 -11  -3 77.4207 7.10223   1
   3  11  -3 68.0233 10.9479   2
  -3  11   3 63.7994 7.48079  11
   3  11  -3 59.9050 8.77873  10
  -3  11   3 65.2735 10.4476  10
  -3  11   3 70.4303 11.8691   2
  -1 -11   3 57.7334 6.29631   6
   1 -11  -3 69.4088 7.25258   8
  -1  11   3 63.1895 11.3395   2
  -1  11   3 60.2674 9.04766  10
   1  11  -3 73.0262 10.5555  10
  -1  11   3 77.3269 8.49676  11
   1  11  -3 76.3718 11.8269   2
  -1 -11  -3 168.463 12.1902   8
   1 -11   3 178.561 11.5155   6
   1  11   3 182.894 12.4292  11
   1  11   3 176.811 17.3119   2
  -1  11  -3 178.386 15.7126   2
  -1  11  -3 186.540 15.8664  10
  -3 -11  -3 133.078 11.0083   8
   3 -11   3 136.620 10.4996   6
  -3  11  -3 128.071 10.1236   7
  -3  11  -3 122.940 14.3694   2
  -3  11  -3 122.076 13.3817  10
   3  11   3 137.491 11.3885  11
   3  11   3 140.160 14.2072   2
  -5 -11  -3 59.2722 8.36600   8
   5 -11   3 65.1644 8.30726   6
  -5  11  -3 65.7511 8.19995   7
   5  11   3 63.5727 8.64067  11
   5  11   3 63.9979 8.40883   5
  -5  11  -3 88.5688 12.1059  10
  -6 -12   3 94.3275 10.7410   8
  -6 -12   3 92.2442 8.59860   6
  -6  12   3 85.9483 13.5885  10
  -6  12   3 96.3085 12.8332   2
   6  12  -3 95.1939 10.5400  11
  -4 -12   3 342.420 19.2033   8
  -4 -12   3 304.661 15.7744   6
  -4  12   3 289.260 20.7582  10
   4  12  -3 313.349 20.6184   2
  -4  12   3 308.225 22.3192   2
  -2 -12   3 414.606 19.8228   6
  -2  12   3 398.359 21.1309  11
  -2  12   3 443.662 28.1665   2
   2  12  -3 474.129 25.3122  10
  -2  12   3 400.414 23.3943  10
   2  12  -3 409.897 26.3141   2
   0 -12   3 226.014 13.0624   6
   0 -12  -3 221.472 14.8730   8
   0  12  -3 243.308 20.0885   2
   0  12  -3 249.438 19.4757  10
   0  12   3 211.887 18.3026   2
   0  12   3 221.104 14.3287  11
  -2 -12  -3 110.301 10.8226   8
   2 -12   3 111.606 9.69087   6
   2  12   3 98.6944 12.5475   2
  -2  12  -3 106.842 14.1186  10
  -2  12  -3 96.6942 13.4992   2
   2  12   3 102.133 11.0294  11
  -3 -13   3 0.29048 2.39717   6
  -3  13   3 -0.7984 5.56872   2
  -3  13   3 0.09737 4.15131  11
  -3  13   3 -2.3585 4.02267  10
   3  13  -3 4.71390 6.79602   2
  -1 -13   3 1.36845 3.54653   6
  -1  13   3 3.70540 8.43635   2
   1  13  -3 2.04526 7.14116   2
  -1  13   3 -2.1369 4.57224  11
   1  13  -3 3.16705 5.58639  10
   1 -13   3 -2.3468 3.33372   6
  -1 -13  -3 0.39225 3.86006   8
  -1  13  -3 -0.1170 6.61740   2
   1  13   3 5.03416 7.95668   2
  -1  13  -3 -3.4668 5.55205  10
   1  13   3 10.3179 5.88483  11
  12   0  -4 473.527 23.1673  12
  12   0  -4 488.811 25.3167   1
 -12   0   4 474.933 27.6737   3
 -12   0   4 454.507 27.4819  14
 -10   0   4 2359.08 91.8519   3
  10   0  -4 2373.39 86.7282  12
 -10   0   4 2519.91 92.6776  14
  10   0  -4 2372.38 88.7308   1
  10   0  -4 2348.57 86.6620  16
   8   0  -4 4642.32 158.850  12
  -8   0   4 4790.20 163.767  14
  -8   0   4 4322.70 163.200   3
   8   0  -4 4597.59 160.708   1
   8   0  -4 4620.37 158.946  16
  -6   0   4 5053.43 190.114   3
  -6   0   4 5686.13 189.926  14
   6   0  -4 5444.40 185.264   5
   6   0  -4 5812.21 186.621  12
   6   0  -4 5881.56 188.135   1
  -6   0   4 5044.21 187.785  10
  -6   0   4 5082.05 185.910   9
   6   0  -4 5737.13 186.755  16
  -4   0   4 7494.15 277.507  10
  -4   0   4 7035.69 281.046   2
   4   0  -4 9699.22 280.866  12
  -4   0   4 7611.53 277.539   9
  -4   0   4 9031.98 289.381  14
   2   0  -4 5918.58 186.321   1
   2   0  -4 6066.52 188.889  13
   2   0  -4 5918.40 185.230  16
  -2   0   4 4800.37 184.883   3
   2   0  -4 5026.71 189.624  15
  -2   0   4 4637.47 184.636   2
  -2   0   4 5075.92 185.268  11
  -2   0   4 5989.53 190.896  14
   0   0  -4 3854.32 127.349  13
   0   0   4 3637.83 127.723  11
   0   0   4 3781.39 127.025   5
   0   0   4 3698.34 127.125   3
   0   0  -4 3809.28 128.040   4
   0   0   4 3516.34 128.903   2
   0   0   4 3816.13 129.269  15
   0   0  -4 3816.29 127.563   1
  -2   0  -4 9153.52 296.863  13
   2   0   4 8163.10 297.152   2
   2   0   4 8440.56 296.344  11
   2   0   4 8652.58 295.300   5
  -2   0  -4 8532.35 292.401   7
   2   0   4 8292.28 301.156  15
  -2   0  -4 9167.37 297.373   4
  -4   0  -4 5112.23 174.216   4
   4   0   4 5131.04 173.576  11
   4   0   4 5075.05 177.178  15
   4   0   4 4782.49 172.181  12
  -4   0  -4 5048.55 172.774  13
   4   0   4 5081.56 173.329   5
   6   0   4 1744.44 66.8716  12
  -6   0  -4 1919.68 69.0184   4
   6   0   4 1956.67 68.1926  11
   6   0   4 1875.62 68.2540   5
  -6   0  -4 1823.55 66.9004   7
   8   0   4 1345.78 52.5869   5
  -8   0  -4 1359.48 53.6198   4
  11  -1  -4 237.499 14.7608  12
 -11  -1   4 247.904 17.9857   3
 -11  -1   4 258.507 18.4096  14
  11  -1  -4 262.632 16.6153   1
  11   1  -4 268.988 16.5329   1
 -11   1   4 251.474 17.6882  14
  11   1  -4 247.172 14.6272  16
  11   1  -4 234.527 14.4154  12
 -11   1   4 245.424 18.1054   3
   9  -1  -4 139.511 10.7139   1
   9  -1  -4 150.321 9.83035  12
  -9  -1   4 152.309 12.0895   3
  -9  -1   4 164.693 13.2068  14
   9  -1  -4 145.807 9.69571  16
   9   1  -4 151.515 8.47674   5
   9   1  -4 139.311 9.60739  16
  -9   1   4 158.248 12.4001   3
   9   1  -4 156.111 10.0365  12
  -9   1   4 147.739 11.6755  14
  -7  -1   4 1825.34 65.5627   8
  -7  -1   4 1705.37 64.5234   9
   7  -1  -4 1816.36 63.6808   5
   7  -1  -4 1789.91 66.1562   1
   7  -1  -4 1779.34 65.0918  16
  -7  -1   4 1873.29 69.4249  14
  -7  -1   4 1775.77 69.1344   3
   7  -1  -4 1823.80 65.1397  12
   7   1  -4 1940.46 65.3838  12
  -7   1   4 1831.44 66.8277  10
   7   1  -4 1875.37 65.3767  16
   7   1  -4 1888.78 64.1095   5
  -7   1   4 1931.76 68.7547  14
   5  -1  -4 1860.05 65.2939  12
  -5  -1   4 1903.02 68.1793  14
   5  -1  -4 1782.36 64.1275   5
  -5  -1   4 1766.22 68.6829   3
   5  -1  -4 1913.87 66.2916   1
   5  -1  -4 1823.41 65.5823  16
  -5  -1   4 1800.12 65.8871   9
  -5  -1   4 1885.93 66.1273   8
  -5   1   4 1737.49 65.0609   9
  -5   1   4 1885.33 67.8876  10
   5   1  -4 1950.04 65.4201  12
   5   1  -4 1979.99 64.6922   5
  -5   1   4 1955.55 67.5264  14
   5   1  -4 2059.53 64.8557  15
   5   1  -4 1927.80 65.6004  16
  -3  -1   4 659.894 24.0720   6
  -3  -1   4 693.548 25.7094  14
   3  -1  -4 728.274 24.0795  15
   3  -1  -4 672.516 23.8852  12
   3  -1  -4 665.955 24.7252   1
  -3  -1   4 694.259 25.5313   9
  -3  -1   4 708.214 27.1998   3
   3  -1  -4 672.352 24.3883  16
   3  -1  -4 667.519 24.6853  13
  -3   1   4 675.570 24.7535  14
   3   1  -4 675.320 24.4153  15
   3   1  -4 686.766 23.7833  12
  -3   1   4 685.588 23.7318  11
  -3   1   4 672.671 25.7903   2
  -3   1   4 683.649 26.4899  10
  -3   1   4 686.789 23.7978  15
   3   1  -4 669.110 24.5982   1
  -3   1   4 678.838 26.4517   3
   3   1  -4 680.859 24.2540  16
  -1  -1   4 4678.45 156.954   6
   1  -1  -4 4698.51 157.098  13
  -1  -1   4 4596.62 155.562   5
   1  -1  -4 4859.72 158.111  16
   1  -1  -4 4937.88 154.964   1
   1  -1  -4 4656.58 155.494   4
   1  -1  -4 4595.21 156.771  15
  -1  -1   4 4536.78 156.182   3
  -1  -1   4 4381.16 156.917  11
  -1   1   4 4177.48 155.289   3
   1   1  -4 4691.13 156.713   1
   1   1  -4 4764.53 155.807   4
   1   1  -4 4765.35 155.711  16
  -1   1   4 4425.62 157.079   5
  -1   1   4 4378.31 155.286  11
   1   1  -4 4634.82 156.484  13
  -1   1   4 4132.01 156.779   2
  -1   1   4 4380.16 162.267  15
   1  -1   4 1933.54 66.9784  12
  -1  -1  -4 1956.09 68.0904  13
   1  -1   4 2009.59 70.4250  15
  -1  -1  -4 1894.29 67.7846   7
   1  -1   4 1962.30 68.4878  11
  -1  -1  -4 1964.86 68.7292   4
   1  -1   4 1952.69 67.8770   5
  -1   1  -4 2012.38 68.9569   4
   1   1   4 2015.06 70.8226  15
   1   1   4 1956.02 69.8294   2
   1   1   4 1991.12 68.1062   5
   1   1   4 2017.87 68.8080  11
  -1   1  -4 1927.87 67.7202  13
  -1   1  -4 1922.88 68.5087   7
  -3  -1  -4 509.264 20.3010  13
  -3  -1  -4 521.767 21.2333   4
  -3  -1  -4 515.908 19.8715   7
   3  -1   4 496.777 19.4783  12
   3  -1   4 504.964 20.3257   5
   3  -1   4 531.134 20.8403  11
   3  -1   4 524.589 23.1470  15
   3   1   4 524.860 21.1758   2
   3   1   4 538.831 21.1466  11
  -3   1  -4 525.969 20.7232   7
   3   1   4 542.664 23.6938  15
   3   1   4 532.800 20.7215   5
  -3   1  -4 534.959 21.3891   4
  -3   1  -4 518.663 19.9383  13
   3   1   4 464.631 19.5387  12
  -5  -1  -4 1092.55 42.0931   4
   5  -1   4 1032.68 39.9737  12
   5  -1   4 1133.39 41.2702  11
   5  -1   4 1097.45 41.1279   5
   5   1   4 1110.21 45.2979  15
   5   1   4 1090.76 41.3094   5
  -5   1  -4 1064.19 42.1191   4
  -5   1  -4 1052.49 40.5704   7
   5   1   4 1070.95 40.2120  12
   5   1   4 1101.92 41.2919  11
  -7  -1  -4 212.273 13.6021   4
   7  -1   4 209.028 12.1517  12
   7  -1   4 220.775 13.0357   5
   7  -1   4 215.427 11.9608  11
   7   1   4 234.712 13.4025   5
  -7   1  -4 202.037 12.1095   7
   7   1   4 225.207 12.3748  12
  -7   1  -4 227.408 14.1190   4
   7   1   4 215.922 12.1316  11
  -9  -1  -4 60.4626 9.11900  14
   9  -1   4 49.7726 7.06786   5
  -9   1  -4 56.4579 7.49382   4
   9   1   4 59.8262 7.85782   5
 -12  -2   4 198.751 16.4440   3
  12  -2  -4 222.040 14.4497  12
 -12  -2   4 221.551 18.4835  14
  12  -2  -4 189.231 14.7171   1
 -12   2   4 206.714 17.0331  14
 -12   2   4 203.906 16.8830   3
  12   2  -4 210.598 13.5717  12
  12   2  -4 204.974 15.0471   1
  10  -2  -4 788.224 32.5764  12
 -10  -2   4 776.882 37.3668  14
  10  -2  -4 741.357 33.4198   1
  10  -2  -4 757.023 32.1664  16
 -10  -2   4 836.217 37.8879   3
 -10  -2   4 762.822 31.8462   8
 -10   2   4 800.208 37.2366   3
  10   2  -4 788.428 32.2672  12
 -10   2   4 785.779 36.0937  14
  10   2  -4 761.990 32.0205  16
   8  -2  -4 307.719 15.7603   1
  -8  -2   4 330.942 19.1957   3
   8  -2  -4 325.622 15.0490  12
  -8  -2   4 341.539 19.4066  14
   8  -2  -4 308.573 13.5176   5
  -8  -2   4 314.863 15.3980   8
   8  -2  -4 313.026 15.0967  16
   8   2  -4 323.369 15.3736  16
  -8   2   4 313.010 15.8154   7
  -8   2   4 343.053 18.0655  14
   8   2  -4 345.563 14.4600   5
  -8   2   4 341.482 16.9512  10
   8   2  -4 378.769 15.6573  12
   6  -2  -4 37.0391 3.95008  16
   6  -2  -4 29.9218 2.27458   5
  -6  -2   4 32.9028 3.93984   8
  -6  -2   4 47.2386 5.61500   3
   6  -2  -4 32.7741 3.37415  12
  -6  -2   4 36.8072 3.40198   9
  -6  -2   4 43.9637 5.81165  14
   6  -2  -4 30.6931 4.08904   1
   6   2  -4 30.2986 3.55153  16
   6   2  -4 34.0268 3.26948   5
  -6   2   4 39.2632 5.05974  14
  -6   2   4 36.2439 4.42570   7
  -6   2   4 33.0708 2.85307   2
  -6   2   4 36.2478 5.03763  10
   6   2  -4 37.2070 3.67929  12
   4  -2  -4 3071.41 104.991  13
  -4  -2   4 2993.24 104.585   6
  -4  -2   4 2991.20 105.865   9
   4  -2  -4 3163.63 104.518  12
   4  -2  -4 3184.24 104.938  16
   4  -2  -4 3193.33 105.436   1
  -4  -2   4 3070.27 106.940  14
  -4  -2   4 3085.10 105.543   8
  -4  -2   4 2915.84 108.165   3
  -4   2   4 2807.69 106.116   2
   4   2  -4 3295.43 104.803  16
  -4   2   4 2957.56 107.739  10
  -4   2   4 3051.56 105.356  14
  -2  -2   4 3924.13 145.216   9
  -2  -2   4 4081.17 146.180   3
   2  -2  -4 4438.40 144.182  13
   2  -2  -4 4529.49 145.221  12
   2  -2  -4 4486.06 144.243   1
  -2  -2   4 4409.51 145.517  14
   2  -2  -4 4421.26 143.951  16
   2  -2  -4 4378.30 145.128  15
  -2  -2   4 4442.49 145.011   6
  -2  -2   4 4373.42 146.578   8
  -2   2   4 3955.39 148.050  15
   2   2  -4 4389.58 145.745  16
  -2   2   4 3860.01 144.042  11
  -2   2   4 3718.82 145.667  10
  -2   2   4 3650.08 145.977   2
   2   2  -4 4409.87 144.526   1
   2   2  -4 4590.20 145.865  13
   0  -2  -4 1676.44 58.5616  13
   0  -2   4 1643.75 59.7054   9
   0  -2   4 1684.00 58.8139  11
   0  -2  -4 1674.45 58.7812   4
   0  -2   4 1645.55 58.1272   5
   0  -2  -4 1702.70 58.3436   1
   0  -2  -4 1682.42 58.1241  16
   0   2  -4 1677.64 59.1756   4
   0   2   4 1764.98 61.0467   2
   0   2  -4 1619.70 57.9201  13
   0   2   4 1731.98 61.1812  15
   0   2  -4 1673.54 59.2049   7
   0   2   4 1753.44 59.4863  11
   0   2   4 1701.64 58.4950   5
  -2  -2  -4 1747.26 61.3857   7
   2  -2   4 1733.15 62.0832   5
  -2  -2  -4 1722.25 62.8078   4
  -2  -2  -4 1792.81 62.4136  13
   2  -2   4 1736.46 61.2275  12
   2  -2   4 1733.76 62.5486  11
   2   2   4 1849.29 66.0820  15
   2   2   4 1870.28 63.4323  11
  -2   2  -4 1770.08 61.6180  13
   2   2   4 1784.74 62.6275   5
  -2   2  -4 1770.69 62.9727   7
  -2   2  -4 1748.73 63.1135   4
   2   2   4 1830.24 63.9963   2
   4  -2   4 205.132 9.84150  12
  -4  -2  -4 221.805 10.9467  13
  -4  -2  -4 223.787 11.7824   4
  -4  -2  -4 214.730 10.2904   8
   4  -2   4 222.283 10.6828   5
   4  -2   4 216.979 10.7233  11
  -4   2  -4 224.071 11.3444   7
  -4   2  -4 214.477 11.3300  10
  -4   2  -4 210.677 11.7029   4
   4   2   4 210.417 10.9251   5
   4   2   4 214.822 13.7794  15
   4   2   4 215.303 11.3088  11
  -6  -2  -4 121.791 9.55270   4
   6  -2   4 105.648 7.80947   5
   6  -2   4 123.027 7.87113  12
   6  -2   4 130.757 8.56442  11
  -6   2  -4 124.956 9.02299   7
   6   2   4 99.0921 7.91100   5
   6   2   4 100.750 7.83598  12
  -6   2  -4 103.250 9.15116   4
   6   2   4 108.085 8.32367  11
   8  -2   4 527.389 24.7860   5
  -8  -2  -4 557.426 25.1174   4
  -8  -2  -4 545.199 27.6207  14
  -8   2  -4 539.815 25.4834   4
   8   2   4 490.741 23.0366  12
  -8   2  -4 527.159 23.9016   7
   8   2   4 504.910 24.2574   5
 -11  -3   4 1191.39 51.9704  14
  11  -3  -4 1085.49 45.8974   1
  11  -3  -4 1103.03 44.1558  16
 -11  -3   4 1125.06 49.2693   3
  11  -3  -4 1120.05 45.0486  12
 -11   3   4 1091.11 48.0835  14
  11   3  -4 1159.06 44.6912  12
 -11   3   4 1172.08 50.4927   3
  11   3  -4 1002.18 45.5251  16
   9  -3  -4 1173.59 46.4368  16
  -9  -3   4 1202.99 51.3931   3
  -9  -3   4 1292.68 53.4374  14
  -9  -3   4 1205.92 47.2093   8
   9  -3  -4 1219.97 48.0086   1
   9  -3  -4 1214.67 46.8610  12
  -9   3   4 1202.59 47.2959   7
   9   3  -4 1250.62 45.6506   5
  -9   3   4 1274.18 50.4761  14
   9   3  -4 1248.91 46.8514  12
   9   3  -4 1263.37 46.9340  16
  -9   3   4 1201.67 48.5542  10
  -7  -3   4 2886.21 107.162   3
   7  -3  -4 2896.40 102.309  16
   7  -3  -4 3016.57 102.450  12
  -7  -3   4 2970.32 107.458  14
  -7  -3   4 2895.20 103.248   8
   7  -3  -4 2951.96 103.366   1
  -7  -3   4 2820.34 102.904   9
   7  -3  -4 2759.24 100.552   5
  -7   3   4 2921.44 103.272   7
  -7   3   4 2913.73 105.448  10
   7   3  -4 2993.62 101.632   5
   7   3  -4 3123.00 102.609  12
  -7   3   4 2973.36 105.012  14
   5  -3  -4 3318.74 115.663  13
  -5  -3   4 3368.29 115.647   6
   5  -3  -4 3612.94 116.047  16
   5  -3  -4 3662.07 116.763   1
  -5  -3   4 3429.15 119.201  14
  -5  -3   4 3351.61 117.114   9
  -5  -3   4 3295.47 120.008   3
   5  -3  -4 3511.95 115.720  12
  -5  -3   4 3456.61 116.873   8
   5  -3  -4 3252.13 114.434   5
  -5   3   4 3410.13 119.745  10
  -5   3   4 3052.26 114.572   9
  -5   3   4 3295.11 116.454   7
  -5   3   4 3476.92 117.084  14
  -5   3   4 3124.37 117.111   2
   5   3  -4 3698.58 116.824  15
  -5   3   4 2994.67 115.095  15
  -3  -3   4 3591.26 118.580   6
  -3  -3   4 3413.55 122.007   3
   3  -3  -4 3539.49 118.644  13
  -3  -3   4 3372.34 120.059   9
  -3  -3   4 3512.96 119.287   8
  -3  -3   4 3661.58 120.885  14
   3  -3  -4 3593.42 118.309  12
   3  -3  -4 3621.84 118.699  16
   3  -3  -4 3665.00 119.136   1
  -3   3   4 3954.99 120.461  14
  -3   3   4 3213.77 121.506  10
  -3   3   4 3151.39 119.288  15
  -3   3   4 3237.32 118.601  11
  -3   3   4 3109.59 121.253   2
  -1  -3   4 6942.96 222.949   6
  -1  -3   4 6474.09 219.571   3
   1  -3  -4 6693.36 221.320   1
  -1  -3   4 6145.82 218.679   9
   1  -3  -4 7007.16 221.756  13
   1  -3  -4 6618.76 220.108   4
  -1  -3   4 6425.04 220.110   5
   1  -3  -4 6873.89 221.080  16
  -1   3   4 5800.24 220.372   2
   1   3  -4 6671.68 218.882  13
  -1   3   4 6134.84 225.435  15
   1   3  -4 6370.18 217.206  16
  -1   3   4 5655.47 218.546  10
  -1   3   4 5903.73 218.138  11
   1   3  -4 6536.92 222.790   4
   1  -3   4 4097.49 141.061  11
   1  -3   4 4052.25 141.931   9
   1  -3   4 3948.06 140.407   5
   1  -3   4 3998.44 139.526  12
  -1  -3  -4 3945.72 139.305   7
  -1  -3  -4 4331.71 140.992  13
  -1  -3  -4 4199.12 140.979   4
  -1  -3  -4 4176.36 140.609   1
   1   3   4 4204.04 143.593   2
  -1   3  -4 4127.36 141.663   7
  -1   3  -4 4105.41 141.434   4
   1   3   4 4205.83 142.134  11
   1   3   4 3903.77 140.847   5
   1   3   4 4208.95 144.693  15
  -1   3  -4 4241.66 139.728  13
  -3  -3  -4 1868.58 66.7969   4
   3  -3   4 1972.61 66.8450  11
  -3  -3  -4 1867.01 66.4504  13
   3  -3   4 1764.52 65.0948  12
   3  -3   4 1892.73 66.3044   5
  -3   3  -4 1792.67 68.5590  10
   3   3   4 1947.04 67.4772  11
  -3   3  -4 1844.84 65.0796  13
  -3   3  -4 1864.09 67.2475   4
  -3   3  -4 1842.27 67.1252   7
   3   3   4 1922.65 67.8299   2
   3   3   4 1866.12 66.7481   5
   3   3   4 1921.95 70.6501  15
   5  -3   4 2163.44 77.4635   5
  -5  -3  -4 2185.39 78.1686   4
   5  -3   4 2100.69 76.3162  12
   5  -3   4 2242.09 77.7141  11
  -5  -3  -4 2124.60 76.8393   8
  -5   3  -4 2185.83 78.8349   4
   5   3   4 2065.84 81.5703  15
   5   3   4 2221.30 78.0092  11
   5   3   4 2190.58 77.9083   5
  -5   3  -4 2145.18 77.8313   7
   7  -3   4 1123.95 43.3147   5
  -7  -3  -4 1134.25 44.0271   4
   7   3   4 1115.47 43.3462   5
  -7   3  -4 1101.63 44.2684   4
   7   3   4 1032.42 41.9019  12
  -7   3  -4 1063.66 42.8976   7
   7   3   4 1086.41 42.6787  11
  12  -4  -4 5.21716 4.49007   1
  12  -4  -4 10.8425 4.88574  12
 -12  -4   4 4.50337 4.21445  14
 -12   4   4 8.43869 5.54734   3
  12   4  -4 3.98195 4.39085  12
 -12   4   4 2.85993 4.64348  14
 -10  -4   4 60.1105 9.36685   3
 -10  -4   4 62.8794 7.44142   8
  10  -4  -4 52.3672 5.97797  16
  10  -4  -4 63.2567 7.28846  12
 -10  -4   4 51.1175 8.89375  14
  10  -4  -4 63.7799 7.81946   1
  10   4  -4 59.2078 6.00677   5
 -10   4   4 56.7703 8.11773  10
  10   4  -4 62.3896 7.16983  16
  10   4  -4 63.1053 7.29923  12
 -10   4   4 63.3373 8.52915  14
 -10   4   4 73.9471 8.51777   7
  -8  -4   4 297.681 17.9911   3
   8  -4  -4 279.137 14.6472   1
  -8  -4   4 282.771 18.2732  14
  -8  -4   4 288.554 14.4654   9
  -8  -4   4 277.213 14.8940   8
   8  -4  -4 278.624 13.4969  16
   8  -4  -4 276.330 13.9428  12
  -8   4   4 284.536 16.2861  10
  -8   4   4 289.995 16.1516  14
   8   4  -4 285.395 14.1448  12
   8   4  -4 287.086 13.5152   5
  -8   4   4 306.561 15.1866   7
  -6  -4   4 403.819 16.9777   6
  -6  -4   4 453.075 18.8894   9
  -6  -4   4 434.855 21.5657   3
   6  -4  -4 382.932 16.5605  13
  -6  -4   4 392.573 18.0314   8
   6  -4  -4 392.823 17.6003   1
   6  -4  -4 408.164 17.0077  12
   6  -4  -4 418.276 15.8531   5
  -6  -4   4 402.653 20.5876  14
   6  -4  -4 417.010 17.1838  16
  -6   4   4 472.966 21.2838  10
  -6   4   4 431.542 18.5728  14
  -6   4   4 422.692 18.1553   7
  -6   4   4 415.793 18.4717   2
   6   4  -4 426.233 18.4043  15
   4  -4  -4 661.312 24.9419  12
  -4  -4   4 675.572 27.8524  14
  -4  -4   4 688.212 26.7637   9
  -4  -4   4 684.141 25.1607   6
   4  -4  -4 683.511 25.0970  16
  -4  -4   4 739.282 29.4974   3
  -4  -4   4 666.732 26.0271   8
   4  -4  -4 670.080 25.5946   1
   4  -4  -4 640.629 24.7891  13
  -4   4   4 668.725 25.6969  15
  -4   4   4 641.612 24.7631  11
  -4   4   4 677.246 25.3724   7
  -4   4   4 741.834 29.4589  10
  -4   4   4 698.388 28.3306   2
  -4   4   4 676.200 24.8325  14
   2  -4  -4 24.1845 2.18886  12
  -2  -4   4 32.1611 3.29688   9
  -2  -4   4 22.1554 2.36330   6
   2  -4  -4 24.4361 2.22157  13
  -2  -4   4 21.8435 3.22519  14
   2  -4  -4 20.6836 1.83480   4
  -2  -4   4 26.7019 2.43920   8
   2  -4  -4 24.0162 1.59625   6
   2  -4  -4 22.2456 2.37681  16
   2  -4  -4 24.8689 2.61402   1
  -2  -4   4 26.8181 4.22822   3
  -2   4   4 26.9301 3.97420  15
  -2   4   4 26.4907 4.60382  10
   2   4  -4 23.8526 2.01614  13
  -2   4   4 30.9057 5.64189   2
  -2   4   4 27.5255 3.49188  11
   0  -4   4 14.7773 1.46633  12
   0  -4   4 11.5896 1.84929   6
   0  -4  -4 11.0590 2.11061  13
   0  -4  -4 8.43195 1.04820   6
   0  -4   4 9.05201 1.66936   5
   0  -4   4 10.0613 2.10594   9
   0  -4  -4 8.62987 1.89958   1
   0  -4  -4 20.4827 2.23138   4
   0   4   4 15.3558 4.58485   2
   0   4  -4 8.23340 1.94582   4
   0   4   4 11.0136 3.31403  11
   0   4   4 10.4410 3.26307  15
   0   4   4 16.5086 2.67270  10
   0   4  -4 8.39974 1.10143  13
   0   4  -4 11.7976 2.31823   7
  -2  -4  -4 671.278 28.0392  14
   2  -4   4 724.813 27.0097  12
  -2  -4  -4 739.698 28.1852   4
   2  -4   4 806.804 29.2166   9
  -2  -4  -4 745.733 28.3233  13
   2  -4   4 745.710 27.9581   5
  -2   4  -4 742.783 28.7358   4
   2   4   4 749.249 32.0398  15
   2   4   4 718.990 28.3903   5
   2   4   4 779.652 29.6829  11
   2   4   4 785.546 30.6231   2
  -2   4  -4 765.230 29.2921   7
  -4  -4  -4 452.118 19.4477   8
  -4  -4  -4 459.724 19.6125   4
   4  -4   4 436.005 18.1298  12
   4  -4   4 439.566 19.1999   5
  -4  -4  -4 461.708 19.5725  13
  -4  -4  -4 469.949 20.6734  14
   4   4   4 455.303 22.8498  15
  -4   4  -4 466.010 20.1621   7
  -4   4  -4 445.244 21.4637  10
   4   4   4 457.873 19.7227   5
   4   4   4 428.576 19.8533  11
  -4   4  -4 468.938 20.3740   4
  -6  -4  -4 47.5270 6.36486   4
   6  -4   4 44.5578 5.03891  12
   6  -4   4 46.9784 5.71933   5
  -6  -4  -4 32.4158 5.38482   8
  -6  -4  -4 51.0556 7.20077  14
   6   4   4 50.7901 5.88222  12
   6   4   4 47.7361 6.09250  11
   6   4   4 51.2655 6.42166   5
  -6   4  -4 65.3082 6.89051   4
  -6   4  -4 41.4582 6.35461   7
   8  -4   4 41.3978 6.63304   5
   8   4   4 27.2033 4.96549  12
  -8   4  -4 40.5603 6.86307   4
  -8   4  -4 26.6824 6.10664   7
   8   4   4 36.5644 5.54136   5
  11  -5  -4 187.623 12.5951  12
  11  -5  -4 181.154 13.2045   1
 -11  -5   4 203.448 13.6764   8
 -11  -5   4 210.386 18.0735  14
 -11   5   4 212.246 13.8287   7
 -11   5   4 180.914 14.9473  14
  11   5  -4 190.062 13.1195  12
   9  -5  -4 479.495 21.2126  12
  -9  -5   4 449.531 22.0220   8
   9  -5  -4 438.408 20.0297  16
   9  -5  -4 430.356 21.2063   1
  -9  -5   4 479.993 25.2546   3
  -9  -5   4 495.063 27.0596  14
   9   5  -4 447.337 20.8466  12
   9   5  -4 466.085 20.2017   5
  -9   5   4 456.544 23.1598  14
  -9   5   4 439.617 23.6695  10
  -9   5   4 461.290 21.7989   7
  -7  -5   4 1425.95 51.2835   9
  -7  -5   4 1332.98 48.7191   6
   7  -5  -4 1319.20 48.8408  16
   7  -5  -4 1227.91 47.2254   5
   7  -5  -4 1302.43 48.9463  12
  -7  -5   4 1345.82 50.7687   8
   7  -5  -4 1323.88 49.7943   1
  -7  -5   4 1261.38 53.9131  14
  -7  -5   4 1402.97 54.8224   3
  -7   5   4 1328.88 50.8361  14
   7   5  -4 1399.61 48.8548   5
  -7   5   4 1319.20 53.3869  10
  -7   5   4 1377.00 50.1644   7
   5  -5  -4 1572.53 57.4748   1
  -5  -5   4 1580.20 61.0285  14
  -5  -5   4 1680.92 57.2475   6
   5  -5  -4 1608.74 57.0027  12
   5  -5  -4 1555.60 56.8510  16
   5  -5  -4 1471.89 56.1759  13
  -5  -5   4 1653.56 58.7281   8
  -5  -5   4 1636.35 62.1784   3
  -5  -5   4 1662.68 59.3099   9
  -5   5   4 1651.98 61.9135  10
  -5   5   4 1573.51 60.4286   2
   5   5  -4 1685.90 59.2937  15
  -5   5   4 1692.03 57.7977   7
  -5   5   4 1500.44 57.2847  15
  -3  -5   4 1069.27 38.3450   6
  -3  -5   4 1082.33 42.4963   3
   3  -5  -4 1058.28 38.1423  12
  -3  -5   4 1050.31 40.9004  14
  -3  -5   4 1039.94 39.1361   8
  -3  -5   4 1067.91 40.2075   9
   3  -5  -4 1097.05 38.4237  16
   3  -5  -4 1061.59 37.9564  13
   3  -5  -4 1066.90 38.7225   1
  -3   5   4 1072.26 40.3462  15
  -3   5   4 1143.15 42.6998  10
  -3   5   4 1061.23 43.0622   2
  -3   5   4 1021.04 38.7585  11
  -1  -5   4 1280.93 47.1138   8
  -1  -5   4 1274.46 47.2339   6
   1  -5  -4 1340.94 47.2807  13
   1  -5  -4 1283.09 46.0391   6
   1  -5  -4 1349.02 47.6531   1
  -1  -5   4 1386.19 49.2979   9
   1  -5  -4 1379.36 47.3373  16
   1  -5  -4 1331.89 46.4011   4
  -1   5   4 1428.13 52.7469   2
   1   5  -4 1348.57 48.4437   7
  -1   5   4 1331.80 48.6521  11
   1   5  -4 1275.05 47.4937   4
  -1   5   4 1408.72 49.9718  10
  -1   5   4 1337.73 50.6353  15
  -1  -5  -4 1515.97 54.0969  13
   1  -5   4 1552.21 55.3375   9
  -1  -5  -4 1497.65 53.4762   4
   1  -5   4 1456.26 53.6960   5
   1  -5   4 1427.53 52.7785  12
   1   5   4 1519.99 55.6665  11
   1   5   4 1640.14 58.3658   2
  -1   5  -4 1566.25 55.3427   7
  -1   5  -4 1522.19 54.4753   4
   1   5   4 1515.76 58.2820  15
   3  -5   4 978.610 37.5155   5
   3  -5   4 983.102 36.5208  12
  -3  -5  -4 1012.23 37.5482   4
  -3  -5  -4 983.057 38.3590   8
  -3  -5  -4 1022.95 37.8831  13
  -3   5  -4 1026.62 41.7589  10
   3   5   4 1027.29 39.1015  11
   3   5   4 994.730 42.0637  15
  -3   5  -4 1031.30 39.0073   7
   3   5   4 997.210 38.0083   5
  -3   5  -4 1025.22 38.4110   4
   5  -5   4 748.318 30.0368   5
  -5  -5  -4 736.635 30.3048   8
  -5  -5  -4 781.145 30.6154   4
   5  -5   4 746.383 29.0762  12
  -5   5  -4 730.845 32.5632  10
  -5   5  -4 744.471 31.1055   4
   5   5   4 714.125 30.1446   5
   5   5   4 736.701 30.3153  11
  -5   5  -4 764.287 31.3216   7
   7  -5   4 329.866 17.0676   5
  -7   5  -4 305.668 16.7076   7
   7   5   4 303.061 16.2945   5
  -7   5  -4 335.008 17.7623   4
   7   5   4 297.105 15.7338  12
   7   5   4 300.544 15.6446  11
  10  -6  -4 1326.58 52.3577  12
 -10  -6   4 1436.05 54.0873   8
 -10  -6   4 1307.25 56.3915   3
 -10  -6   4 1408.28 59.8647  14
  10  -6  -4 1238.29 50.5457  16
  10   6  -4 1387.46 52.0619  12
  10   6  -4 1336.45 50.8390   5
 -10   6   4 1345.88 52.8382   7
 -10   6   4 1337.69 55.6319  10
   8  -6  -4 1394.52 54.8000  16
   8  -6  -4 1509.38 55.9180  12
  -8  -6   4 1556.11 58.0499   8
   8  -6  -4 1454.52 56.0429   1
  -8  -6   4 1505.22 62.5431  14
  -8  -6   4 1521.57 61.3967   3
   8   6  -4 1551.05 55.6001   5
  -8   6   4 1520.41 56.8208   7
  -8   6   4 1544.10 60.9410  10
  -6  -6   4 2019.71 70.6963   6
   6  -6  -4 1999.51 71.4102   1
   6  -6  -4 2013.89 70.6383  16
  -6  -6   4 2060.50 73.5392   9
  -6  -6   4 1987.99 72.7617   8
   6  -6  -4 1934.02 70.6020  12
  -6  -6   4 2046.79 76.6755   3
  -6  -6   4 1921.78 75.8950  14
  -6   6   4 1866.23 73.6608   2
  -6   6   4 1980.23 71.4323   7
   6   6  -4 2027.46 73.3730  15
  -6   6   4 2029.16 76.3110  10
   4  -6  -4 3540.68 117.443  16
  -4  -6   4 3406.35 118.934   8
  -4  -6   4 3323.08 119.749   9
  -4  -6   4 3328.10 121.028  14
  -4  -6   4 3478.66 117.484   6
   4  -6  -4 3372.20 116.527  13
   4  -6  -4 3559.96 117.409  12
  -4  -6   4 3445.84 122.915   3
   4  -6  -4 3685.57 118.183   1
  -4   6   4 3321.25 117.143   7
  -4   6   4 3382.75 122.237  10
  -4   6   4 3212.49 122.168   2
  -4   6   4 3152.76 118.884  15
   2  -6  -4 5396.21 175.702  13
  -2  -6   4 5314.68 176.146   6
   2  -6  -4 5577.18 176.153  16
  -2  -6   4 5119.36 180.415   3
   2  -6  -4 5309.44 174.940   6
  -2  -6   4 5255.27 176.644   8
  -2  -6   4 5020.50 178.099   9
   2  -6  -4 5465.64 176.514   1
   2   6  -4 5107.00 175.978   4
  -2   6   4 4782.91 179.239  10
  -2   6   4 4790.53 181.327   2
  -2   6   4 4787.85 176.902  11
   2   6  -4 5268.17 177.078   7
  -2   6   4 4953.61 179.001  15
   0  -6  -4 4566.69 154.763   1
   0  -6  -4 4746.48 154.577  13
   0  -6   4 4404.84 156.138   9
   0  -6   4 4456.95 154.497   6
   0   6   4 4495.84 159.631   2
   0   6   4 4382.98 158.715  15
   0   6  -4 4646.15 155.954   7
   0   6  -4 4616.19 154.645   4
   0   6   4 4478.38 155.995  10
   0   6   4 4266.37 155.731  11
   2  -6   4 2721.68 93.9930   9
  -2  -6  -4 2724.21 94.4848   8
   2  -6   4 2557.09 92.6994   5
   2  -6   4 2553.47 91.6768  12
  -2  -6  -4 2655.96 93.0892  13
  -2   6  -4 2700.13 94.5791   7
  -2   6  -4 2648.62 93.2389   4
  -2   6  -4 2600.21 98.1052  10
   2   6   4 2588.36 97.7596  15
   2   6   4 2767.50 96.8533   2
   2   6   4 2682.07 94.6433  11
   4  -6   4 1685.87 61.0072   5
  -4  -6  -4 1717.43 62.3132   8
   4  -6   4 1671.36 59.8556  12
   4   6   4 1662.89 61.3523   5
  -4   6  -4 1640.29 62.3367   7
  -4   6  -4 1670.42 61.7546   4
   4   6   4 1670.43 62.0104  11
  -4   6  -4 1670.51 65.3736  10
   6  -6   4 1057.06 41.2362   5
  -6  -6  -4 1052.07 41.4151   8
   6   6   4 1046.89 41.1859  11
  -6   6  -4 1055.55 41.9830   4
   6   6   4 980.848 40.7096   5
  -6   6  -4 1058.01 42.0082   7
   9  -7  -4 159.498 11.3008  12
   9  -7  -4 141.119 10.5711   1
  -9  -7   4 158.810 15.0321  14
  -9  -7   4 178.016 12.8657   8
  -9  -7   4 175.547 14.0406   3
   9  -7  -4 151.387 9.65843  16
  -9   7   4 182.233 15.6579  10
   9   7  -4 180.805 11.3008   5
  -9   7   4 172.346 12.2163   7
  -7  -7   4 46.9432 6.36816   9
   7  -7  -4 41.8126 5.45526   1
   7  -7  -4 43.0542 5.00322  16
  -7  -7   4 42.3467 6.49180   8
  -7  -7   4 39.6565 7.49678   3
   7  -7  -4 48.5709 5.26748  12
  -7  -7   4 45.4929 5.25288   6
  -7  -7   4 35.9827 7.06773  14
  -7   7   4 44.2782 7.78434  10
  -7   7   4 44.5490 6.16055   7
   7   7  -4 43.1272 5.28400  11
  -5  -7   4 227.351 13.2603   9
  -5  -7   4 204.058 13.7661  14
   5  -7  -4 222.702 10.7261  16
  -5  -7   4 212.627 12.1080   8
  -5  -7   4 235.233 15.3753   3
  -5  -7   4 216.263 10.9021   6
   5  -7  -4 208.544 10.7228  12
   5  -7  -4 204.433 10.8101   1
  -5   7   4 200.232 10.7050   7
   5   7  -4 224.543 13.4308  15
  -5   7   4 221.922 15.5088   2
  -5   7   4 215.342 14.8320  10
  -3  -7   4 853.801 33.7442   9
  -3  -7   4 834.703 32.4075   8
   3  -7  -4 793.717 30.8734  16
   3  -7  -4 834.984 31.1053  12
  -3  -7   4 860.508 36.1564   3
   3  -7  -4 807.481 30.1477   6
   3  -7  -4 827.740 30.2577  13
   3  -7  -4 825.938 31.5532   1
  -3  -7   4 818.967 34.4489  14
  -3  -7   4 821.526 31.1877   6
  -3   7   4 855.185 37.4577   2
  -3   7   4 823.466 31.9793  11
   3   7  -4 797.905 31.0161   4
  -3   7   4 821.617 33.7506  15
  -3   7   4 903.001 36.4029  10
   3   7  -4 843.114 31.8405   7
  -1  -7   4 735.800 29.4812   9
  -1  -7   4 668.758 27.0428   8
   1  -7  -4 731.200 27.1124  13
  -1  -7   4 718.267 27.6227   6
   1  -7  -4 716.318 27.3031  16
   1  -7  -4 691.876 27.6552   1
  -1   7   4 749.288 33.6923   2
  -1   7   4 692.674 30.7196  15
  -1   7   4 742.636 28.9794  11
   1   7  -4 748.296 28.6388   7
  -1   7   4 738.990 30.2919  10
   1  -7   4 540.256 22.2061   9
   1  -7   4 499.848 20.5991   6
   1  -7   4 492.016 19.4797  12
  -1  -7  -4 515.931 20.5379  13
  -1   7  -4 523.994 22.0965   7
   1   7   4 477.431 21.8252  11
   1   7   4 472.076 24.0961  15
  -1   7  -4 498.289 25.6570  10
  -1   7  -4 489.270 20.3816   4
   1   7   4 533.386 25.0626   2
  -3  -7  -4 117.084 7.88627  13
  -3  -7  -4 122.625 9.42316   8
   3  -7   4 122.576 7.12664  12
   3  -7   4 114.547 7.91683   5
   3   7   4 131.172 8.78329   5
   3   7   4 128.262 10.3772   2
  -3   7  -4 122.779 9.64561   7
  -3   7  -4 112.886 7.94138   4
   3   7   4 108.623 10.3476  15
   3   7   4 116.665 8.67639  11
  -3   7  -4 132.925 12.0284  10
   5  -7   4 50.5239 6.23959   5
  -5  -7  -4 43.1687 6.16573   8
  -5   7  -4 35.7766 6.65487   7
   5   7   4 41.3440 6.04416   5
  -5   7  -4 47.2650 8.14437  10
  -5   7  -4 40.9100 9.12713   4
   5   7   4 39.3859 6.38917  11
   7  -7   4 194.598 12.1389   5
  -7  -7  -4 183.947 12.1073   8
   7   7   4 181.482 12.2112   5
  -7   7  -4 182.421 13.9223   7
   7   7   4 164.419 11.2830  11
 -10  -8   4 295.895 17.9758   8
  10  -8  -4 255.189 15.8618  12
 -10  -8   4 286.680 21.2394  14
 -10   8   4 292.080 20.0053  10
  10   8  -4 276.864 15.3666  12
  10   8  -4 263.489 14.5740   5
 -10   8   4 286.672 16.2270   7
  -8  -8   4 737.311 37.6017  14
   8  -8  -4 742.174 31.7837  12
  -8  -8   4 836.305 34.9103   8
   8  -8  -4 731.696 30.5795  16
  -8  -8   4 778.193 31.3292   6
  -8  -8   4 808.217 37.6440   3
   8  -8  -4 774.695 31.9697   1
   8   8  -4 801.893 32.0254   5
  -8   8   4 772.870 37.8536  10
  -8   8   4 779.656 32.2812   7
  -6  -8   4 1434.08 62.3169  14
  -6  -8   4 1560.44 57.3480   6
   6  -8  -4 1550.27 57.0010  16
  -6  -8   4 1622.75 64.1463   3
   6  -8  -4 1576.68 57.6352  12
   6  -8  -4 1592.68 57.8793   1
  -6  -8   4 1610.79 60.8837   9
  -6  -8   4 1607.38 60.3806   8
   6   8  -4 1593.70 61.0482   2
  -6   8   4 1618.61 64.4283  10
   6   8  -4 1557.32 61.3677  15
  -6   8   4 1529.08 62.5259   2
  -6   8   4 1580.18 57.7210   7
   4  -8  -4 1050.42 39.4533   1
  -4  -8   4 1029.88 43.2584  14
   4  -8  -4 1051.93 39.0657  12
  -4  -8   4 1020.76 39.0567   6
   4  -8  -4 1038.66 38.1067   6
   4  -8  -4 1037.71 38.7147  16
  -4  -8   4 1053.47 41.0383   8
  -4  -8   4 1068.71 45.0596   3
  -4  -8   4 1109.87 42.5740   9
  -4   8   4 1015.22 39.5071  11
  -4   8   4 1097.55 46.0701   2
  -4   8   4 923.218 41.4282  15
   4   8  -4 1079.67 43.2693  15
  -4   8   4 1071.81 44.9345  10
  -2  -8   4 1103.44 43.2680   9
  -2  -8   4 1071.50 40.7460   6
   2  -8  -4 1081.78 40.3735  16
  -2  -8   4 1055.68 41.2112   8
   2  -8  -4 1082.88 40.9939   1
  -2   8   4 1065.67 44.3173  15
   2   8  -4 1137.98 46.2803  10
  -2   8   4 1146.08 44.8641  10
   2   8  -4 1095.67 41.4829   7
  -2   8   4 1083.81 41.9195  11
  -2   8   4 1183.16 48.1011   2
   0  -8   4 1125.32 43.3668   6
   0  -8   4 1239.79 45.8449   9
   0  -8  -4 1177.84 43.0038  13
   0  -8  -4 1140.94 43.6624   1
   0   8  -4 1150.96 44.6013   7
   0   8   4 1186.51 45.1561  10
   0   8   4 1154.57 45.0915  11
   0   8   4 1204.28 49.5833   2
   0   8   4 1138.74 47.8014  15
   0   8  -4 1221.02 49.9671  10
   2  -8   4 822.605 31.6423  12
  -2  -8  -4 841.772 32.7595  13
   2  -8   4 853.175 33.2098   6
  -2  -8  -4 869.852 34.8731   8
   2   8   4 844.487 34.5732  11
   2   8   4 848.134 37.2982   2
  -2   8  -4 811.648 38.5110  10
  -2   8  -4 832.039 34.4651   7
  -4  -8  -4 1111.02 43.8937   8
  -4   8  -4 1127.41 44.1288   7
  -4   8  -4 1087.94 47.9937  10
   4   8   4 1060.61 42.8491  11
   4   8   4 1053.62 42.1400   5
  -6  -8  -4 574.831 26.6479   8
   6  -8   4 623.114 26.4911   5
   6   8   4 567.379 25.5447   5
  -6   8  -4 559.001 29.1083  10
  -6   8  -4 559.046 27.1997   7
   6   8   4 563.337 25.6988  11
   9  -9  -4 865.890 36.4539  12
  -9  -9   4 904.305 38.8615   8
  -9  -9   4 890.174 42.5925  14
  -9   9   4 900.117 42.3803  10
   9   9  -4 828.967 35.5670   5
  -9   9   4 858.752 36.6340   7
  -7  -9   4 1152.58 45.7673   8
   7  -9  -4 1103.96 42.5779  12
  -7  -9   4 1155.85 49.1025   3
  -7  -9   4 1035.41 47.8553  14
  -7  -9   4 1092.27 41.8353   6
   7  -9  -4 1052.38 42.1003   1
  -7   9   4 1056.98 42.2040   7
  -7   9   4 1062.13 48.8579  10
   7   9  -4 1090.00 42.4569  11
  -5  -9   4 1424.93 60.7743  14
  -5  -9   4 1578.04 63.0659   3
   5  -9  -4 1495.49 55.4764  16
  -5  -9   4 1537.86 59.6799   9
   5  -9  -4 1550.54 56.2421  12
  -5  -9   4 1522.37 56.1189   6
  -5  -9   4 1587.66 59.1399   8
   5  -9  -4 1509.68 55.1539   6
   5  -9  -4 1524.21 56.2908   1
  -5   9   4 1513.63 63.0371   2
  -5   9   4 1540.88 62.5423  10
  -3  -9   4 1405.69 52.5460   6
  -3  -9   4 1421.97 54.1772   8
   3  -9  -4 1468.25 52.4190  16
   3  -9  -4 1431.33 53.0249   1
  -3  -9   4 1456.92 55.9775   9
  -3   9   4 1513.14 58.4341  10
  -3   9   4 1432.07 53.6258  11
  -3   9   4 1366.53 56.0797  15
  -3   9   4 1419.77 60.0615   2
   1  -9  -4 654.947 27.4703   1
  -1  -9   4 727.398 30.3651   9
  -1  -9   4 638.219 27.1353   6
  -1   9   4 732.502 34.8413   2
  -1   9   4 615.187 30.7477  15
  -1   9   4 701.491 30.6799  10
   1   9  -4 723.258 33.8399  10
  -1   9   4 705.239 29.3012  11
   1   9  -4 713.486 28.4762   7
   1  -9   4 1305.76 55.0714   9
   1  -9   4 1391.12 52.3434   6
  -1  -9  -4 1422.72 51.8151  13
  -1  -9  -4 1456.02 54.5716   8
   1   9   4 1426.89 58.4434   2
  -1   9  -4 1453.48 59.4008  10
   1   9   4 1357.87 53.7860  11
  -1   9  -4 1465.14 53.9422   7
  -3  -9  -4 1628.37 60.4727   8
   3  -9   4 1604.27 58.4768   6
   3   9   4 1421.60 57.3205   5
  -3   9  -4 1567.64 59.7346   7
   3   9   4 1545.94 59.4247  11
   3   9   4 1544.74 61.8271   2
  -3   9  -4 1572.34 64.9245  10
   5  -9   4 648.580 28.1711   6
  -5  -9  -4 631.069 28.6634   8
   5   9   4 584.014 27.1915  11
  -5   9  -4 600.152 28.4360   7
  -5   9  -4 620.725 32.3430  10
   5   9   4 597.006 27.0581   5
  -8 -10   4 10.7701 4.40346   8
  -8 -10   4 8.56843 3.21867   6
   8 -10  -4 5.85145 3.95726  12
  -8 -10   4 0.70914 4.09320  14
  -8  10   4 2.88440 3.65287   7
  -8  10   4 4.56405 6.90881  10
   8  10  -4 5.88528 4.47146   5
   6 -10  -4 27.4295 4.28867   6
  -6 -10   4 35.5672 5.20165   6
   6 -10  -4 23.5827 3.81718  16
   6 -10  -4 26.0943 4.72906   1
  -6 -10   4 32.0598 7.26416  14
   6 -10  -4 27.1714 4.88913  12
  -6 -10   4 30.2087 6.24879   8
  -6  10   4 26.0614 8.16309   2
  -6  10   4 28.3021 7.42200  10
  -4 -10   4 6.73407 2.56433   6
   4 -10  -4 9.73114 3.02725  16
  -4 -10   4 10.1337 4.06402   8
  -4 -10   4 10.0455 3.85260   9
   4 -10  -4 17.2941 4.09345   1
   4  10  -4 10.5347 4.74120  10
  -4  10   4 5.14935 3.31694  11
  -4  10   4 13.3597 6.40596   2
  -4  10   4 7.37057 4.86518  10
   2 -10  -4 72.5593 6.92657   1
  -2 -10   4 74.9949 8.52832   9
  -2 -10   4 65.3795 6.71444   8
   2 -10  -4 62.2244 7.31966   8
  -2 -10   4 64.1139 6.55011   6
  -2  10   4 74.1433 9.90889  10
   2  10  -4 84.6152 11.1256  10
  -2  10   4 67.5889 10.7879   2
  -2  10   4 84.1633 8.19088  11
   0 -10  -4 150.679 10.9666   8
   0 -10   4 165.516 11.6166   9
   0 -10   4 146.866 9.88938   6
   0  10  -4 171.269 15.3774  10
   0  10   4 132.811 11.4326  11
   0  10  -4 169.840 11.0817   7
   0  10   4 160.910 14.5109   2
  -2 -10  -4 7.12371 4.45128   8
   2 -10   4 11.9331 3.40201   6
   2  10   4 5.13172 5.46009  11
   2  10   4 5.68127 6.22042   2
  -2  10  -4 10.3475 6.57729  10
  -2  10  -4 6.36768 3.47031   7
   4 -10   4 11.4866 3.58177   6
  -4 -10  -4 16.2571 5.60202   8
   4  10   4 16.4677 5.63888  11
  -4  10  -4 26.0119 5.66087   2
   4  10   4 12.0819 3.98566   5
  -4  10  -4 15.9158 5.68902   7
  -4  10  -4 7.60765 6.55658  10
   7 -11  -4 118.440 9.89288  12
  -7 -11   4 135.357 12.3976   8
  -7 -11   4 106.906 8.53568   6
  -7  11   4 149.936 17.1898  10
   7  11  -4 108.886 10.8345  11
   5 -11  -4 350.577 16.5670  16
  -5 -11   4 347.695 17.2040   6
  -5 -11   4 339.671 19.8414   8
   5 -11  -4 342.807 17.1890   1
   5  11  -4 349.539 22.3023   2
  -5  11   4 337.302 22.3633  10
  -5  11   4 366.312 24.7232   2
  -3 -11   4 978.594 41.4151   8
  -3 -11   4 953.290 39.3575   6
  -3 -11   4 1060.56 43.2567   9
   3 -11  -4 1071.87 40.2930   1
  -3  11   4 1059.79 48.7509   2
  -3  11   4 973.269 40.7039  11
   3  11  -4 981.666 46.0056   2
   3  11  -4 1052.26 44.9202  10
  -1 -11   4 637.866 29.6244   9
  -1 -11   4 615.713 27.3413   6
   1 -11  -4 659.471 29.6393   8
  -1  11   4 697.203 35.7561   2
  -1  11   4 622.382 29.0483  11
   1  11  -4 687.321 34.0886  10
  -1 -11  -4 623.715 28.3372   8
   1 -11   4 579.190 25.7459   6
   1  11   4 582.823 31.7915   2
   1  11   4 550.915 26.6301  11
  -1  11  -4 558.377 26.1498   7
  -1  11  -4 605.978 32.9308  10
  -3 -11  -4 375.210 20.3914   8
   3 -11   4 384.573 19.4400   6
   3  11   4 353.958 19.7354  11
  -3  11  -4 386.782 24.6772   2
  -3  11  -4 361.901 20.0191   7
  -3  11  -4 384.296 24.5113  10
   3  11   4 348.132 18.1722   5
   3  11   4 368.524 21.9374   2
  -6 -12   4 691.630 29.6338   6
  -6 -12   4 737.197 33.4592   8
  -6  12   4 664.461 36.9018  10
  -6  12   4 665.236 36.6605   2
   6  12  -4 759.361 32.1511  11
  -4 -12   4 436.218 20.6479   6
  -4 -12   4 415.669 22.9638   8
   4 -12  -4 450.206 21.1936   1
   4  12  -4 478.980 27.9315   2
  -4  12   4 454.182 29.0662   2
  -4  12   4 477.739 27.4969  10
  -2 -12   4 585.742 25.3438   6
   2 -12  -4 561.506 27.0251   8
  -2  12   4 558.995 26.9499  11
   2  12  -4 615.961 31.6204  10
  -2  12   4 553.593 29.0002  10
   2  12  -4 610.512 33.5242   2
  -2  12   4 563.452 33.4882   2
   0 -12   4 716.221 30.2110   6
   0 -12  -4 720.018 32.4565   8
   0  12  -4 745.552 38.7970   2
   0  12   4 651.142 30.8433  11
   0  12   4 688.336 36.2821   2
   0  12  -4 713.829 36.6995  10
   2 -12   4 353.319 18.4248   6
  -2 -12  -4 357.795 20.4223   8
   2  12   4 328.953 20.1202  11
  -2  12  -4 340.743 24.4522   2
   2  12   4 344.800 23.0386   2
  -2  12  -4 360.353 25.1371  10
  -3 -13   4 62.7485 7.38398   6
  -3  13   4 60.7146 12.7219   2
   3  13  -4 72.4476 12.6428   2
  -3  13   4 58.1399 8.60116  10
  -3  13   4 50.2510 9.13264  11
   1 -13  -4 1.31048 4.02024   8
  -1 -13   4 1.60210 2.59203   6
   1  13  -4 2.72214 6.29871  10
   1  13  -4 9.98467 6.12754   2
  -1  13   4 1.19623 5.50612   2
  -1  13   4 -3.1854 4.84458  11
  12   0  -5 -1.2672 4.82052   1
 -12   0   5 1.96066 4.92712  14
  12   0  -5 0.47857 3.91920  12
 -12   0   5 4.59698 5.18087   3
  10   0  -5 5.94691 3.75695  12
 -10   0   5 0.76471 2.89779  14
 -10   0   5 1.15344 2.92226   3
  10   0  -5 12.4406 4.93042   1
  10   0  -5 1.75186 3.29628  16
   8   0  -5 0.28157 2.49744  12
  -8   0   5 1.06623 2.22275   3
   8   0  -5 -1.6070 2.75150   1
  -8   0   5 1.68367 2.19833  14
   8   0  -5 -2.3873 2.09914  16
   6   0  -5 5.39307 2.02411  16
   6   0  -5 1.71530 1.57448  12
  -6   0   5 1.78011 2.47186   3
  -6   0   5 0.52647 0.76492   9
  -6   0   5 3.25010 2.35874  14
   6   0  -5 5.00222 2.32679   1
   4   0  -5 2.27502 1.42220  13
  -4   0   5 0.41187 1.08629   9
   4   0  -5 0.64314 0.83533  15
   4   0  -5 0.51222 1.33947   1
  -4   0   5 -0.2610 1.03788   3
   4   0  -5 1.12156 0.77436  12
  -4   0   5 0.64867 1.28477   2
   4   0  -5 0.59837 1.17602  16
  -2   0   5 2.88846 1.23060   3
   2   0  -5 -0.3477 0.97011  13
  -2   0   5 0.06469 0.89701  15
   2   0  -5 1.01051 1.18159   4
   2   0  -5 -0.5043 0.61119  16
  -2   0   5 -0.0845 0.94360   2
  -2   0   5 -1.0289 0.64460  11
   2   0  -5 -0.3098 0.67703   1
   0   0   5 0.69375 1.18069  11
   0   0   5 0.40839 1.13543   2
   0   0  -5 1.61308 1.47194   4
   0   0   5 1.18932 0.81802   5
   0   0   5 3.98611 1.70310  15
   0   0  -5 0.37289 1.05680  13
   0   0  -5 0.39186 0.64105   1
  -2   0  -5 6.40178 2.59859   4
   2   0   5 2.58141 1.99549  15
   2   0   5 2.12936 1.49822  11
  -2   0  -5 2.95914 1.61893   7
  -2   0  -5 0.98541 1.54689  13
   2   0   5 -0.3949 0.84333  12
   2   0   5 1.07190 1.19597   5
   4   0   5 -0.2550 2.19151   5
  -4   0  -5 1.80590 2.22532   7
   4   0   5 3.54992 2.34832  11
  -4   0  -5 -1.0853 1.33058  13
   4   0   5 0.16354 1.44880  12
   4   0   5 -0.3062 2.39187  15
  -4   0  -5 4.61117 2.51718   4
   6   0   5 0.41124 2.21615   5
  -6   0  -5 -1.2657 3.57304   4
   6   0   5 2.07602 2.13484  11
  -8   0  -5 1.33658 4.33229   4
   8   0   5 0.70693 3.47069   5
  11  -1  -5 13.4833 5.71618   1
  11  -1  -5 18.3083 5.15754  12
 -11  -1   5 8.52649 5.75787   3
 -11  -1   5 11.3518 5.34016  14
  11  -1  -5 15.6272 4.72734  16
  11   1  -5 9.72109 4.42606  12
  11   1  -5 7.95266 5.47425   1
 -11   1   5 15.1785 6.25120  14
 -11   1   5 19.7438 5.76155   3
  11   1  -5 9.66663 4.20303  16
  -9  -1   5 76.1780 9.90754  14
   9  -1  -5 58.7246 7.07994   1
  -9  -1   5 66.4786 8.39094   3
   9  -1  -5 75.2845 6.86368  16
   9  -1  -5 67.6199 6.99290  12
  -9   1   5 74.4295 8.31333  14
  -9   1   5 70.3475 7.15474  10
   9   1  -5 65.7715 6.72206  16
   9   1  -5 70.2418 8.36584   1
  -9   1   5 65.3591 8.20708   3
   9   1  -5 70.3563 6.97466  12
   7  -1  -5 469.739 18.5755  12
  -7  -1   5 483.110 22.5000  14
  -7  -1   5 423.731 18.3186   9
  -7  -1   5 448.447 22.4726   3
   7  -1  -5 433.848 19.5535   1
   7  -1  -5 438.189 18.6758  16
  -7   1   5 471.437 21.0455  10
  -7   1   5 479.461 21.4205  14
   7   1  -5 467.747 18.6061  12
   7   1  -5 428.380 18.6421  16
  -7   1   5 476.988 22.7999   3
   7   1  -5 433.813 20.0953   1
  -5  -1   5 1365.99 51.5345   9
  -5  -1   5 1490.93 53.1940  14
  -5  -1   5 1465.37 55.1845   3
   5  -1  -5 1461.67 51.6842   1
   5  -1  -5 1422.72 50.3301  12
   5  -1  -5 1444.30 50.9930  16
  -5   1   5 1384.35 51.7217   2
  -5   1   5 1466.50 53.8007  10
   5   1  -5 1532.80 49.8330  15
  -5   1   5 1461.45 54.6330   3
  -5   1   5 1348.99 50.9631   9
   5   1  -5 1455.80 50.8742  16
   5   1  -5 1443.98 50.3176  12
  -5   1   5 1421.97 52.0961  14
   5   1  -5 1488.56 51.7351   1
  -3  -1   5 227.254 11.4948   3
   3  -1  -5 219.977 9.22038  16
   3  -1  -5 210.075 9.45713   1
  -3  -1   5 227.622 10.4198  14
  -3  -1   5 213.830 8.70255   6
  -3  -1   5 231.274 10.5746   9
   3  -1  -5 232.057 9.71928  13
  -3  -1   5 211.262 8.77935  11
   3  -1  -5 256.142 9.92567  15
   3  -1  -5 226.148 8.47905  12
  -3   1   5 219.153 8.78924  11
   3   1  -5 223.752 9.31168   1
  -3   1   5 226.361 9.58326  14
  -3   1   5 230.845 11.1723   3
  -3   1   5 231.857 11.0563   2
  -3   1   5 242.395 11.6117  10
  -3   1   5 225.237 9.20781  15
   3   1  -5 223.919 9.65575  13
   3   1  -5 220.521 8.98073  16
  -1  -1   5 192.104 7.56385   6
   1  -1  -5 196.378 8.87545   4
   1  -1  -5 195.036 8.51697  13
  -1  -1   5 199.823 9.24190   3
  -1  -1   5 213.877 8.78621  11
   1  -1  -5 187.599 7.85997  16
   1  -1  -5 194.900 8.09363   1
  -1  -1   5 191.882 7.70634   5
  -1   1   5 214.351 9.99185  15
   1   1  -5 195.437 9.21948   4
  -1   1   5 204.802 8.82018  11
  -1   1   5 219.734 10.6857   2
   1   1  -5 189.300 7.37869  16
  -1   1   5 205.859 8.47194   3
   1   1  -5 188.469 7.48891   1
   1   1  -5 188.228 8.27437  13
  -1   1   5 205.446 7.78391   5
  -1  -1  -5 53.3782 4.11275  13
   1  -1   5 57.6862 4.23682  11
  -1  -1  -5 56.9825 4.80476   4
   1  -1   5 58.3974 3.79959   5
  -1  -1  -5 57.0934 3.80364   7
   1  -1   5 65.8741 5.69287  15
  -1   1  -5 53.7209 4.34139   7
   1   1   5 58.9440 4.46027  11
   1   1   5 70.7121 5.55468   2
  -1   1  -5 61.5012 4.00569  13
   1   1   5 64.6877 5.80717  15
  -1   1  -5 59.5751 4.67069   4
   1   1   5 55.7870 3.95280   5
  -3  -1  -5 338.779 15.2411  13
  -3  -1  -5 343.871 14.7211   7
   3  -1   5 369.009 16.0866  11
   3  -1   5 362.695 18.6215  15
   3  -1   5 356.011 15.4258   5
  -3  -1  -5 346.450 16.1012   4
  -3   1  -5 362.036 15.7623   7
  -3   1  -5 356.957 16.5236   4
  -3   1  -5 361.195 14.9219  13
   3   1   5 383.087 16.8274   2
   3   1   5 351.109 18.5730  15
   3   1   5 365.846 15.6376   5
   3   1   5 327.818 14.3248  12
   3   1   5 373.338 16.3772  11
  -5  -1  -5 307.523 15.9080   4
   5  -1   5 328.727 15.6270  11
   5  -1   5 291.137 14.9238   5
   5   1   5 307.920 15.3631   5
   5   1   5 294.018 14.0731  12
   5   1   5 338.477 15.7079  11
  -5   1  -5 298.952 15.8604   4
  -5   1  -5 287.287 14.3177   7
   7  -1   5 140.371 9.74531  11
   7  -1   5 152.655 10.4452   5
  -7  -1  -5 138.417 10.6512   4
   7   1   5 135.195 10.6150   5
   7   1   5 142.105 10.3496  11
  -7   1  -5 167.712 11.7199   4
  12  -2  -5 232.753 16.3576   1
  12  -2  -5 220.150 14.1643  12
 -12  -2   5 243.964 18.5871  14
 -12  -2   5 229.539 18.3422   3
 -12   2   5 219.786 17.4827   3
  12   2  -5 237.169 15.0402  12
  12   2  -5 199.614 15.0789   1
 -12   2   5 235.479 17.8483  14
  10  -2  -5 659.626 28.9141  12
  10  -2  -5 686.241 31.0661   1
 -10  -2   5 765.238 35.5995  14
  10  -2  -5 681.747 29.4067  16
 -10  -2   5 716.279 34.6655   3
  10   2  -5 665.248 31.8666   1
  10   2  -5 695.122 29.2902  12
 -10   2   5 674.933 33.9912   3
 -10   2   5 720.114 33.4764  14
  10   2  -5 677.967 29.3430  16
  -8  -2   5 484.872 20.7732   8
  -8  -2   5 494.435 24.6780  14
  -8  -2   5 496.560 25.2711   3
   8  -2  -5 480.178 19.9538  12
   8  -2  -5 459.809 20.9644   1
  -8  -2   5 445.249 19.6162   9
   8  -2  -5 460.230 19.9978  16
  -8   2   5 483.982 23.0223  14
   8   2  -5 458.857 19.7280  12
   8   2  -5 449.031 19.9078  16
  -8   2   5 461.240 21.8266  10
  -6  -2   5 741.899 29.4293   9
   6  -2  -5 779.129 29.0517  16
   6  -2  -5 743.113 28.4148  12
   6  -2  -5 752.060 29.6055   1
  -6  -2   5 760.106 31.9527  14
  -6  -2   5 752.412 29.5638   8
  -6  -2   5 790.631 33.6066   3
   6   2  -5 810.580 28.4056  15
   6   2  -5 792.926 28.5883  12
  -6   2   5 730.443 29.0216   2
   6   2  -5 778.068 27.6917   5
  -6   2   5 788.656 30.5312  14
  -6   2   5 808.054 32.1383  10
   6   2  -5 754.431 28.7608  16
   4  -2  -5 2011.58 68.5588  13
  -4  -2   5 1904.40 67.7661   6
  -4  -2   5 1931.58 69.6092   9
  -4  -2   5 1957.86 68.8396   8
  -4  -2   5 2026.69 70.3488  14
   4  -2  -5 2002.36 67.5749  12
   4  -2  -5 1960.52 68.7018   1
  -4  -2   5 1956.38 71.9939   3
   4  -2  -5 2019.08 68.2447  16
  -4   2   5 1767.50 69.7377   2
  -4   2   5 1962.86 71.3704  10
  -4   2   5 1926.81 67.5463  15
   4   2  -5 2015.02 68.5740   1
  -4   2   5 1941.01 68.2075  14
   4   2  -5 2028.22 67.3883  12
   4   2  -5 2010.85 67.8673  16
  -2  -2   5 1178.56 43.7682   9
  -2  -2   5 1152.49 41.9818  11
   2  -2  -5 1178.78 42.4537   4
   2  -2  -5 1160.64 42.0895   1
  -2  -2   5 1199.94 44.2858   3
  -2  -2   5 1177.91 41.4915   6
   2  -2  -5 1177.27 42.2626  13
  -2  -2   5 1226.43 43.7113  14
   2  -2  -5 1200.32 41.8480  16
  -2   2   5 1252.74 45.0300   2
   2   2  -5 1167.08 41.9610  13
   2   2  -5 1209.60 41.0937  16
   2   2  -5 1157.23 41.2332   1
  -2   2   5 1213.37 44.2445  10
  -2   2   5 1191.18 43.0246   3
  -2   2   5 1250.33 43.4792  15
   2   2  -5 1210.88 43.0500   4
  -2   2   5 1211.99 42.2852  11
   0  -2  -5 1610.70 57.3995   1
   0  -2   5 1670.09 58.2120  11
   0  -2  -5 1643.93 57.8766  13
   0  -2  -5 1636.75 58.2329   4
   0  -2   5 1609.33 57.2718   5
   0   2   5 1755.11 60.8991   2
   0   2   5 1682.25 58.7739  11
   0   2   5 1624.93 57.5494   5
   0   2  -5 1607.13 58.5015   7
   0   2  -5 1650.22 58.7163   4
   0   2   5 1723.34 60.9805  15
   0   2  -5 1618.97 57.2105  13
   2  -2   5 1287.25 46.5783   5
  -2  -2  -5 1256.66 46.6434  13
  -2  -2  -5 1279.83 47.3873   4
  -2  -2  -5 1258.26 45.6873   7
   2  -2   5 1294.01 47.2143  11
   2   2   5 1343.68 47.9097  11
  -2   2  -5 1279.83 47.6967   4
  -2   2  -5 1302.77 46.0142  13
   2   2   5 1364.10 49.1290   2
   2   2   5 1311.01 46.9984   5
   2   2   5 1321.71 50.8647  15
  -2   2  -5 1274.94 47.3461   7
  -4  -2  -5 278.108 13.1536   8
  -4  -2  -5 304.072 14.7445   4
   4  -2   5 303.887 14.3810  11
  -4  -2  -5 297.515 14.0081  13
   4  -2   5 314.301 14.2034   5
   4   2   5 266.700 12.9467  12
   4   2   5 307.794 17.7700  15
  -4   2  -5 284.528 13.9647   7
  -4   2  -5 281.585 14.6664   4
   4   2   5 299.131 14.5856  11
   4   2   5 297.816 14.3670   5
  -6  -2  -5 328.746 17.6608   4
   6  -2   5 354.372 17.0853   5
   6  -2   5 336.334 16.3195  11
   6   2   5 295.937 15.2391  12
  -6   2  -5 308.971 16.1192   7
  -6   2  -5 321.148 17.1184   4
   6   2   5 322.070 16.6910  11
   6   2   5 340.340 16.9330   5
   8  -2   5 254.852 15.0983   5
  -8  -2  -5 227.179 16.9600  14
  -8  -2  -5 219.650 14.2818   4
  -8   2  -5 243.252 15.2449   4
   8   2   5 235.516 14.4529   5
  11  -3  -5 161.649 11.4755  16
 -11  -3   5 177.792 14.8033   3
  11  -3  -5 161.486 11.9415  12
 -11  -3   5 181.818 15.6597  14
  11  -3  -5 155.488 12.8327   1
  11   3  -5 164.434 11.7202  16
 -11   3   5 171.072 14.3912  14
  11   3  -5 156.988 13.3207   1
 -11   3   5 163.660 14.5914   3
  11   3  -5 160.471 11.8367  12
   9  -3  -5 86.7641 6.92631  16
  -9  -3   5 89.5750 10.4051   3
   9  -3  -5 85.2628 7.42482  12
   9  -3  -5 80.6735 8.47242   1
  -9  -3   5 82.7285 9.68739  14
  -9  -3   5 77.8735 7.56124   8
   9   3  -5 84.1954 7.54210  12
  -9   3   5 88.6438 9.19404  14
   9   3  -5 85.2185 7.39295  16
  -9   3   5 98.9279 9.34524  10
   7  -3  -5 181.555 9.61125  16
  -7  -3   5 209.445 14.0302   3
   7  -3  -5 182.113 9.38450  12
  -7  -3   5 192.380 10.7753   8
  -7  -3   5 197.441 13.0994  14
  -7  -3   5 190.127 10.4737   9
   7  -3  -5 188.826 10.4260   1
   7   3  -5 190.658 9.79628  16
   7   3  -5 201.904 9.32364   5
  -7   3   5 193.527 11.4271  14
  -7   3   5 196.710 12.4563  10
   7   3  -5 197.204 9.94914  12
  -5  -3   5 12.1343 3.26463  14
  -5  -3   5 7.73007 1.89873   6
  -5  -3   5 10.4656 3.55531   3
  -5  -3   5 10.6648 2.59028   8
   5  -3  -5 11.2287 2.38485  16
   5  -3  -5 13.9710 2.55977   1
  -5  -3   5 10.6107 2.58956   9
   5  -3  -5 10.9769 2.03533  12
   5  -3  -5 9.95889 2.19802  13
  -5   3   5 11.8542 3.06286   2
  -5   3   5 10.5491 2.09883  14
  -5   3   5 15.3147 3.84342  10
   5   3  -5 11.3705 2.18759  15
   5   3  -5 11.4443 2.00091  16
  -3  -3   5 15.1754 2.24943   8
  -3  -3   5 17.9974 3.39995   3
   3  -3  -5 13.9428 2.01128  13
   3  -3  -5 14.5490 1.76151  12
  -3  -3   5 14.6800 2.63769   9
  -3  -3   5 14.7581 1.80010   6
   3  -3  -5 15.6277 2.26983  16
  -3  -3   5 13.3391 2.72452  14
   3  -3  -5 15.6466 2.23289   1
   3   3  -5 23.9793 2.44500   1
  -3   3   5 20.0753 3.82634   2
  -3   3   5 16.7310 2.30959  11
  -3   3   5 17.3792 2.68429  15
   3   3  -5 16.4106 1.71376  16
   3   3  -5 15.2051 2.04099  13
  -3   3   5 23.6368 4.32381  10
  -1  -3   5 72.8263 5.34972   9
   1  -3  -5 62.9645 4.32365  13
   1  -3  -5 60.0656 4.09045   1
  -1  -3   5 59.2200 3.50939   5
  -1  -3   5 70.9956 5.29353   3
   1  -3  -5 64.1376 3.82726  16
  -1  -3   5 66.5110 3.75860   6
   1  -3  -5 64.5752 4.02529   4
  -1   3   5 67.4987 3.75639   3
  -1   3   5 70.9933 5.25053  10
   1   3  -5 63.6332 3.63220  13
  -1   3   5 83.3357 5.27563  11
   1   3  -5 63.6119 4.74337   4
  -1   3   5 80.9149 6.76610  15
  -1   3   5 70.3772 4.09485   5
  -1   3   5 80.1765 7.30192   2
   1  -3   5 511.510 19.7077   5
   1  -3   5 567.266 21.9362   9
  -1  -3  -5 507.919 20.3634   4
  -1  -3  -5 509.507 20.1885  13
   1  -3   5 507.367 20.4017  11
   1   3   5 533.495 22.6908   2
   1   3   5 496.674 20.1480   5
   1   3   5 533.069 23.8697  15
  -1   3  -5 469.302 18.9027  13
   1   3   5 516.848 21.3075  11
  -1   3  -5 518.521 20.9855   4
  -1   3  -5 502.383 20.8789   7
   3  -3   5 10.8764 2.92689  11
  -3  -3  -5 9.05853 2.37947  13
   3  -3   5 6.01935 1.93117   5
   3  -3   5 7.02720 2.55838   9
  -3  -3  -5 10.0784 2.63481   4
   3   3   5 11.3637 3.75379  15
   3   3   5 10.0449 3.23817   5
   3   3   5 8.63647 3.11291  11
  -3   3  -5 14.7377 3.45055   7
   3   3   5 7.54987 2.90577   2
  -3   3  -5 13.0367 3.44837   4
  -3   3  -5 6.30519 1.93895  13
  -3   3  -5 10.0106 3.22128  10
   5  -3   5 87.0025 7.42804   5
   5  -3   5 84.6187 6.86351  11
  -5  -3  -5 85.2657 7.83678   4
  -5   3  -5 95.0013 8.04587   4
   5   3   5 80.8049 7.63441  11
   5   3   5 71.2159 7.03009   5
   5   3   5 80.6801 6.63997  12
  -5   3  -5 82.2564 7.69971   7
   7  -3   5 25.9019 4.82574   5
  -7  -3  -5 28.5560 6.03870   4
  -7  -3  -5 28.9607 6.63933  14
   7   3   5 27.6893 4.80568  11
   7   3   5 32.3700 5.70690   5
  -7   3  -5 35.5632 5.93279   4
  -7   3  -5 30.2395 6.12013   7
  12  -4  -5 147.476 11.9329  12
  12  -4  -5 161.884 12.2303   1
 -12  -4   5 171.380 17.0713  14
 -12   4   5 162.312 15.5861   3
  12   4  -5 164.664 14.7314   1
 -12   4   5 120.640 13.0741  14
  12   4  -5 142.909 10.9028  12
  10  -4  -5 76.4397 8.56734   1
 -10  -4   5 81.8162 8.56555   8
 -10  -4   5 87.9646 11.3902   3
 -10  -4   5 65.0795 10.3335  14
  10  -4  -5 71.5107 7.10942  16
  10  -4  -5 63.7838 7.24481  12
  10   4  -5 63.1449 7.41599  16
  10   4  -5 84.2905 8.38857  12
 -10   4   5 67.8707 8.86850  14
 -10   4   5 71.3316 8.80731  10
  -8  -4   5 444.688 24.0709  14
   8  -4  -5 423.489 18.9779  16
  -8  -4   5 481.221 24.5619   3
  -8  -4   5 433.426 20.3776   8
   8  -4  -5 424.378 19.9845   1
  -8  -4   5 434.160 19.9019   9
   8  -4  -5 421.655 18.8155  12
   8  -4  -5 379.489 18.0543  13
   8   4  -5 452.952 19.1537  12
  -8   4   5 449.537 20.1080   7
  -8   4   5 460.910 22.6867  10
  -8   4   5 431.151 20.8294  14
   8   4  -5 422.335 18.7823  16
   8   4  -5 437.110 18.1262   5
  -6  -4   5 185.817 13.0921   3
  -6  -4   5 190.212 9.10821   6
  -6  -4   5 164.548 9.94721   8
   6  -4  -5 168.442 9.51266   1
   6  -4  -5 167.208 9.10787  16
  -6  -4   5 196.632 10.4808   9
   6  -4  -5 166.268 8.69883  13
   6  -4  -5 178.692 8.95776  12
  -6  -4   5 183.799 12.1397  14
  -6   4   5 169.232 9.39107  14
  -6   4   5 182.238 10.5578   2
   6   4  -5 184.709 9.13805  16
  -6   4   5 212.062 12.8029  10
   6   4  -5 190.273 9.91682  15
  -4  -4   5 18.3336 3.88214   3
  -4  -4   5 11.5183 2.50510   9
   4  -4  -5 13.8878 2.63817   1
  -4  -4   5 15.0139 2.75150   8
   4  -4  -5 10.3998 2.04271  13
  -4  -4   5 13.5744 3.24657  14
   4  -4  -5 11.9592 2.06295  16
  -4  -4   5 12.7713 2.13276   6
   4  -4  -5 12.4566 2.01663  12
  -4   4   5 13.9678 2.48466  15
  -4   4   5 14.5178 3.87892  10
  -4   4   5 13.2471 2.20690  11
   4   4  -5 11.4979 1.83761  16
   2  -4  -5 1507.62 53.3370   4
  -2  -4   5 1495.25 53.8057   8
  -2  -4   5 1521.96 55.6633   9
   2  -4  -5 1517.73 53.8954   1
   2  -4  -5 1545.05 53.5589  16
   2  -4  -5 1485.30 53.6091  13
  -2  -4   5 1510.08 56.8423   3
  -2  -4   5 1481.76 53.3315   6
  -2   4   5 1544.16 56.4017  10
  -2   4   5 1524.41 56.5995  15
  -2   4   5 1542.97 54.8232  11
  -2   4   5 1703.18 59.0555   2
   2   4  -5 1498.11 54.3898   4
   2   4  -5 1492.73 52.9841  13
   2   4  -5 1537.01 52.1040  16
   0  -4  -5 699.720 26.4084   4
   0  -4  -5 704.124 26.5303   1
   0  -4   5 693.627 26.0640   5
   0  -4   5 746.470 28.4357   9
   0  -4  -5 712.715 26.7303  13
   0  -4   5 691.179 26.1440   6
   0   4   5 696.962 27.0161  10
   0   4   5 748.130 30.7112  15
   0   4   5 671.930 26.4037   5
   0   4  -5 700.690 27.2413   4
   0   4  -5 715.864 27.7910   7
   0   4   5 801.766 30.8158   2
   0   4  -5 659.757 25.1506  13
   0   4   5 731.068 28.0570  11
  -2  -4  -5 70.9046 5.42466  13
   2  -4   5 84.5967 6.44688   9
   2  -4   5 74.8579 5.33872   5
  -2  -4  -5 79.7344 5.83328   4
   2   4   5 75.5727 6.60192   2
   2   4   5 73.2150 8.27996  15
  -2   4  -5 75.4294 5.97918   4
   2   4   5 74.2516 6.26273  11
  -2   4  -5 72.5559 5.99272   7
   2   4   5 71.1922 5.43196   5
   4  -4   5 340.911 15.6743   5
  -4  -4  -5 319.060 15.5152   8
  -4  -4  -5 331.468 15.9506   4
  -4  -4  -5 333.846 15.5660  13
  -4   4  -5 338.845 16.6326   7
  -4   4  -5 337.202 17.4718  10
  -4   4  -5 316.147 16.1451   4
   4   4   5 325.879 16.2969  11
   4   4   5 328.895 15.8819   5
   4   4   5 307.961 18.6186  15
   6  -4   5 77.3941 7.60322   5
  -6  -4  -5 72.2234 7.83875   4
   6   4   5 70.4939 7.58130  11
  -6   4  -5 82.7425 8.84877   4
   6   4   5 60.2097 7.20117   5
   6   4   5 68.0664 6.63176  12
  -6   4  -5 65.1935 7.74825   7
  11  -5  -5 116.214 11.0638   1
  11  -5  -5 141.015 11.3225  12
 -11  -5   5 137.375 14.1361  14
 -11  -5   5 140.300 13.8415   3
 -11  -5   5 146.472 11.2002   8
  11   5  -5 145.405 11.1940  12
   9  -5  -5 219.175 12.3844  16
  -9  -5   5 242.040 17.0159   3
   9  -5  -5 222.049 13.8269   1
  -9  -5   5 232.887 18.0688  14
  -9  -5   5 231.185 14.3552   8
   9  -5  -5 234.074 13.1638  12
   9   5  -5 228.328 12.8758  16
  -9   5   5 250.224 14.1534   7
  -9   5   5 243.519 15.9350  10
   9   5  -5 257.138 13.4754  12
   7  -5  -5 368.236 16.3527  12
  -7  -5   5 360.712 20.8243   3
   7  -5  -5 363.919 16.1869  16
  -7  -5   5 383.124 21.1756  14
   7  -5  -5 335.966 15.5783  13
  -7  -5   5 374.678 18.0275   8
  -7  -5   5 373.141 16.2868   6
  -7  -5   5 386.790 18.4256   9
   7  -5  -5 367.219 17.2666   1
  -7   5   5 396.937 17.4462   7
   7   5  -5 372.678 15.9699   5
  -7   5   5 369.072 20.7575  10
  -5  -5   5 15.0063 3.95397   3
  -5  -5   5 13.6596 2.95200   8
  -5  -5   5 12.1323 2.87040   9
   5  -5  -5 11.6028 3.00166   1
   5  -5  -5 11.3830 2.30235  16
   5  -5  -5 10.6904 2.35866  12
  -5  -5   5 14.7238 2.39693   6
   5  -5  -5 10.6281 2.16696  13
  -5  -5   5 12.1180 3.66539  14
  -5   5   5 15.3982 4.68334   2
  -5   5   5 11.2641 4.28917  10
   5   5  -5 14.6734 3.30068  15
  -3  -5   5 326.386 12.2573   6
  -3  -5   5 259.984 12.3534   8
   3  -5  -5 268.087 11.7235  13
  -3  -5   5 278.830 15.3266   3
   3  -5  -5 266.208 11.7682  16
  -3  -5   5 274.576 13.7685   9
   3  -5  -5 273.265 11.5821  12
   3  -5  -5 271.938 12.2985   1
   3  -5  -5 253.727 11.0155   4
  -3  -5   5 267.612 14.2213  14
   3   5  -5 255.131 11.2922  13
  -3   5   5 306.376 14.5733  15
  -3   5   5 343.956 16.1920  10
   3   5  -5 265.578 10.8223  16
  -3   5   5 309.352 13.1317  11
  -3   5   5 302.822 17.0215   2
   1  -5  -5 1714.52 60.3894  16
   1  -5  -5 1708.51 60.7876   1
   1  -5  -5 1712.30 59.9030   4
   1  -5  -5 1720.43 60.6073  13
  -1  -5   5 1734.43 62.6867   9
  -1  -5   5 1668.41 60.3660   6
  -1   5   5 1696.35 62.3751  10
   1   5  -5 1646.16 61.0322   4
  -1   5   5 1854.35 66.1006   2
   1   5  -5 1745.21 61.8979   7
  -1   5   5 1713.01 64.5699  15
  -1   5   5 1737.56 62.1899  11
   1  -5   5 220.931 10.2030   5
  -1  -5  -5 202.244 9.92827   4
   1  -5   5 234.596 11.9480   9
   1  -5   5 210.066 10.1037   6
  -1  -5  -5 212.830 10.5283  13
   1   5   5 222.064 13.2127   2
   1   5   5 220.327 12.1760  11
   1   5   5 218.241 14.1423  15
   1   5   5 203.038 10.4023   5
  -1   5  -5 216.720 11.0659   4
  -1   5  -5 211.819 11.5508   7
  -3  -5  -5 148.106 9.61291   8
  -3  -5  -5 161.953 9.51680  13
  -3  -5  -5 162.062 8.98322   4
   3  -5   5 152.755 8.64568   5
  -3   5  -5 150.857 11.3548  10
  -3   5  -5 144.047 10.1338   7
   3   5   5 149.651 10.2127   2
  -3   5  -5 160.540 9.58762   4
   3   5   5 141.292 9.45041  11
   3   5   5 148.343 11.6798  15
   3   5   5 141.100 9.34441   5
  -5  -5  -5 159.823 10.4699   4
   5  -5   5 171.790 10.5792   5
  -5  -5  -5 141.766 9.93134   8
  -5   5  -5 152.864 10.8071   4
  -5   5  -5 160.455 11.5033   7
   5   5   5 152.564 9.85051   5
   5   5   5 150.131 10.0493  11
   7  -5   5 7.67501 4.08340   5
   7   5   5 6.29021 3.49407  12
  -7   5  -5 4.03924 3.57594   7
  -7   5  -5 12.0498 4.87306   4
   7   5   5 13.4420 3.99981  11
   7   5   5 6.37582 3.00054   5
  10  -6  -5 0.77664 3.91584   1
  10  -6  -5 3.13857 2.34809  16
 -10  -6   5 3.29558 4.27357   3
 -10  -6   5 9.05722 5.87731  14
 -10  -6   5 3.16156 4.01690   8
  10  -6  -5 2.74352 3.68425  12
  10   6  -5 7.97581 3.62958  16
 -10   6   5 -1.9466 2.92906  10
  10   6  -5 2.10703 3.81757  12
  -8  -6   5 373.677 18.7261   9
  -8  -6   5 349.069 21.4765   3
   8  -6  -5 374.384 17.1278  12
  -8  -6   5 348.846 22.0029  14
   8  -6  -5 317.909 17.0064   1
   8  -6  -5 323.313 15.8438  16
  -8  -6   5 354.223 18.6326   8
   8   6  -5 372.562 16.4715   5
  -8   6   5 382.889 21.7383  10
  -8   6   5 355.798 17.6844   7
   6  -6  -5 494.352 20.4482  13
   6  -6  -5 479.046 21.0223  12
  -6  -6   5 548.136 21.6230   6
  -6  -6   5 521.054 26.6529   3
   6  -6  -5 541.882 22.2887   1
  -6  -6   5 538.601 23.7445   9
  -6  -6   5 551.032 23.4746   8
   6  -6  -5 524.605 21.3426  16
  -6  -6   5 498.486 25.5371  14
  -6   6   5 511.374 21.5502   7
  -6   6   5 545.517 25.1696   2
  -6   6   5 562.404 27.2460  10
   6   6  -5 527.928 23.6424  15
  -4  -6   5 75.1456 6.81109   9
   4  -6  -5 65.5696 5.60396   1
   4  -6  -5 70.9629 4.77501  13
  -4  -6   5 76.1511 7.78416   3
  -4  -6   5 69.1426 5.18389   6
  -4  -6   5 76.9095 7.26742  14
  -4  -6   5 76.2748 6.13659   8
   4  -6  -5 73.6836 5.12698  12
   4  -6  -5 71.6448 5.00826  16
  -4   6   5 65.1682 5.48074  11
  -4   6   5 83.8913 9.97246   2
  -4   6   5 74.6312 6.40915  15
  -4   6   5 92.5908 10.0245  10
   2  -6  -5 385.693 16.1453  16
  -2  -6   5 377.445 16.0947   6
  -2  -6   5 388.037 16.3906   8
  -2  -6   5 415.208 20.2135   3
   2  -6  -5 378.774 16.5096   1
   2  -6  -5 388.210 16.0301  13
  -2  -6   5 398.755 18.3896   9
  -2   6   5 382.801 17.5945  11
  -2   6   5 453.746 20.1353  10
  -2   6   5 407.807 19.8310  15
   2   6  -5 370.200 16.4580   4
  -2   6   5 426.819 22.1885   2
   2   6  -5 401.845 17.4873   7
   0  -6   5 67.0260 5.10803   6
   0  -6  -5 70.7124 5.53474   1
   0  -6   5 67.4196 6.25027   9
   0  -6  -5 69.7422 5.42819  13
   0   6  -5 78.7902 6.17751   7
   0   6   5 74.8994 8.29088   2
   0   6  -5 67.3872 5.17156   4
   0   6   5 67.9300 8.36111  15
   0   6   5 70.7312 6.54112  11
   0   6   5 75.1712 5.82011  10
   2  -6   5 23.6077 4.11730   9
   2  -6   5 22.3189 3.55747   5
   2  -6   5 24.3162 3.62350   6
  -2  -6  -5 23.0600 3.96544  13
  -2   6  -5 17.2937 3.82599   4
   2   6   5 17.9138 4.87280  15
  -2   6  -5 25.0834 4.48335   7
   2   6   5 25.6010 5.02996  11
   2   6   5 26.8155 5.40814   2
  -2   6  -5 28.1385 6.21542  10
  -4  -6  -5 471.718 21.6586   8
   4  -6   5 479.581 20.5919   5
  -4   6  -5 475.654 21.3575   4
   4   6   5 427.060 20.8085  11
   4   6   5 436.768 20.5101   5
  -4   6  -5 481.046 24.0936  10
  -4   6  -5 478.678 22.2768   7
  -6  -6  -5 93.1666 8.46803   8
   6  -6   5 110.370 9.29588   5
   6   6   5 85.4564 7.75784  11
  -6   6  -5 100.368 9.77661   4
  -6   6  -5 108.371 9.31357   7
   6   6   5 97.7972 9.09446   5
 -11  -7   5 145.892 15.7261  14
 -11  -7   5 146.615 12.6047   8
  11  -7  -5 105.276 10.3926   1
  11  -7  -5 131.797 10.3033  12
  11   7  -5 152.058 10.6058  12
  -9  -7   5 93.5502 11.2358   3
   9  -7  -5 90.4169 7.82502  16
   9  -7  -5 91.0449 8.71841   1
  -9  -7   5 99.4224 9.94144   8
  -9  -7   5 104.881 11.9144  14
   9  -7  -5 101.408 8.73578  12
  -9   7   5 106.491 9.46330   7
   9   7  -5 108.985 8.80159  12
  -9   7   5 88.9181 11.6343  10
   7  -7  -5 30.4525 4.97842   1
   7  -7  -5 21.8014 4.02618  16
   7  -7  -5 22.4418 4.07793  12
  -7  -7   5 29.8857 4.54511   6
  -7  -7   5 19.2164 4.99478   9
  -7  -7   5 17.4665 4.36274   8
  -7  -7   5 30.4321 6.87308  14
  -7  -7   5 20.5154 5.96328   3
  -7   7   5 20.9399 7.40231  10
  -7   7   5 27.0716 4.73411   7
  -7   7   5 21.3572 4.84533   2
  -5  -7   5 44.5122 6.22980   9
   5  -7  -5 46.4747 4.78804  12
   5  -7  -5 47.2827 5.06868   1
  -5  -7   5 42.0258 7.38482   3
   5  -7  -5 48.5145 4.89377  16
  -5  -7   5 61.6743 6.36037   8
  -5  -7   5 40.0515 6.69295  14
  -5  -7   5 44.5372 4.80360   6
  -5   7   5 47.8938 7.86526  10
  -5   7   5 44.7079 8.34340   2
   5   7  -5 48.2644 6.23123  15
  -3  -7   5 64.2476 5.31009   8
   3  -7  -5 61.4342 4.79289  16
   3  -7  -5 57.9741 5.48246   1
  -3  -7   5 69.4404 6.89967   9
   3  -7  -5 68.0938 4.73215  13
  -3  -7   5 64.3018 7.87110   3
  -3  -7   5 62.6826 5.22622   6
  -3   7   5 62.2540 6.99372  15
  -3   7   5 71.2605 10.3669   2
  -3   7   5 68.1107 6.52506  11
   3   7  -5 66.7264 5.88558   7
   3   7  -5 75.7697 5.34458   4
  -3   7   5 80.1260 9.43670  10
   1  -7  -5 36.0642 4.00628  13
  -1  -7   5 33.3725 4.02678   6
  -1  -7   5 31.9363 5.09808   9
   1  -7  -5 29.9775 3.90357   1
  -1   7   5 37.8532 6.42064  15
  -1   7   5 38.5903 5.68758  11
   1   7  -5 32.7308 4.85166   7
  -1   7   5 38.2031 7.69790   2
   1   7  -5 30.0821 3.71994   4
  -1   7   5 28.1605 4.45290  10
  -1  -7  -5 424.297 18.4389  13
   1  -7   5 459.729 20.2258   9
   1  -7   5 419.290 18.3814   6
   1   7   5 404.533 22.6259  15
   1   7   5 413.263 19.9292  11
  -1   7  -5 418.252 23.4678  10
   1   7   5 437.096 22.5540   2
  -1   7  -5 414.190 18.3335   4
  -1   7  -5 473.155 20.5084   7
  -3  -7  -5 36.1551 5.30012  13
   3  -7   5 32.0648 4.42814   5
   3  -7   5 42.2752 5.25951   6
  -3  -7  -5 26.9528 5.35424   8
   3   7   5 46.3935 6.68408  11
  -3   7  -5 47.1255 7.04232   7
  -3   7  -5 42.1783 7.32846  10
   3   7   5 39.8855 5.53267   5
   3   7   5 35.9321 6.15359   2
  -3   7  -5 37.5620 4.93061   4
   5  -7   5 23.5266 5.08310   5
  -5  -7  -5 18.0817 4.83150   8
   5   7   5 23.5898 5.26879   5
  -5   7  -5 24.1479 6.50954  10
  -5   7  -5 15.0589 4.44559   4
   5   7   5 15.6724 4.78129  11
  -5   7  -5 26.5407 6.39427   7
  10  -8  -5 207.693 13.8543  12
 -10  -8   5 219.767 17.5499   3
 -10  -8   5 244.799 16.2987   8
 -10  -8   5 239.936 18.8091  14
  10   8  -5 219.391 13.7412  12
 -10   8   5 217.268 17.8804  10
  -8  -8   5 241.851 13.0911   6
  -8  -8   5 239.185 17.8777   3
   8  -8  -5 234.211 12.6302  16
  -8  -8   5 214.368 17.3189  14
   8  -8  -5 223.121 12.5057  12
   8  -8  -5 218.491 13.4524   1
  -8  -8   5 240.046 15.6691   8
   8   8  -5 218.541 12.8045   5
  -8   8   5 236.133 13.0448   7
  -8   8   5 252.171 19.2843  10
  -6  -8   5 773.902 32.1367   8
  -6  -8   5 724.883 31.9986   9
  -6  -8   5 782.388 35.9002   3
   6  -8  -5 711.404 29.5821   1
   6  -8  -5 701.022 28.7055  16
   6  -8  -5 718.303 29.1301  12
  -6  -8   5 674.366 33.8152  14
  -6  -8   5 727.075 29.0385   6
  -6   8   5 729.584 34.3494   2
  -6   8   5 708.340 28.7162   7
  -6   8   5 743.665 35.5698  10
   6   8  -5 761.995 33.2116  15
  -4  -8   5 1206.43 50.4804   3
   4  -8  -5 1192.32 44.5889   1
  -4  -8   5 1117.43 48.0898  14
  -4  -8   5 1207.32 47.1994   9
  -4  -8   5 1196.72 45.9355   8
   4  -8  -5 1184.09 43.8894  16
  -4  -8   5 1189.12 44.1433   6
   4  -8  -5 1200.01 43.9714  12
  -4   8   5 1215.36 51.3628   2
  -4   8   5 1140.84 44.7609  11
  -4   8   5 1264.72 50.1855  10
   4   8  -5 1153.20 44.5388   7
   2  -8  -5 193.640 9.74455  13
  -2  -8   5 187.172 10.1636   8
  -2  -8   5 200.868 12.2550   9
  -2  -8   5 190.938 10.1901   6
   2  -8  -5 195.818 10.2358  16
   2  -8  -5 184.241 10.6077   1
  -2   8   5 214.436 12.1879  11
   2   8  -5 200.381 11.4623   7
  -2   8   5 195.447 13.5616  15
  -2   8   5 209.128 13.8007  10
  -2   8   5 215.458 15.9173   2
   0  -8   5 239.620 13.6743   9
   0  -8  -5 221.700 11.4379  13
   0  -8  -5 214.136 11.9163   1
   0  -8   5 231.265 11.9131   6
   0   8  -5 228.331 16.6712  10
   0   8   5 239.917 14.2845  11
   0   8  -5 231.837 13.3150   7
   0   8   5 254.712 17.6154   2
   0   8   5 217.969 15.3692  15
  -2  -8  -5 717.317 28.6069  13
  -2  -8  -5 685.414 29.8199   8
   2  -8   5 699.781 28.7676   6
  -2   8  -5 706.115 30.0866   7
  -2   8  -5 694.234 34.3326  10
   2   8   5 734.236 32.8040   2
   2   8   5 651.437 28.1511   5
   2   8   5 694.804 30.0744  11
   4  -8   5 292.758 15.8434   6
  -4  -8  -5 294.817 16.6893   8
  -4   8  -5 306.736 20.2743  10
   4   8   5 275.701 15.5811  11
   4   8   5 251.050 14.8355   5
  -4   8  -5 319.018 17.6533   7
  -6  -8  -5 182.796 12.8252   8
   6  -8   5 201.395 12.4891   5
   6  -8   5 191.945 13.0201   6
  -6   8  -5 190.206 14.3676   7
   6   8   5 191.016 12.3713   5
   6   8   5 179.750 12.1567  11
  -9  -9   5 15.3126 5.93747   3
   9  -9  -5 20.0849 4.89928  12
   9  -9  -5 7.63498 3.96479   1
  -9  -9   5 15.6675 5.66151  14
  -9  -9   5 27.8348 5.88880   8
  -9   9   5 24.1960 8.03366  10
   7  -9  -5 26.6747 5.15502   1
  -7  -9   5 16.4517 4.30579   6
  -7  -9   5 17.1337 4.70802   9
   7  -9  -5 20.0602 4.03932  16
  -7  -9   5 20.5681 5.84988   3
   7  -9  -5 20.5198 3.94347  12
  -7  -9   5 18.0011 4.79005   8
  -7  -9   5 11.0688 5.18225  14
  -7   9   5 20.6084 6.91251  10
  -7   9   5 18.9756 6.64492   2
  -5  -9   5 228.435 14.2153   9
  -5  -9   5 211.635 11.8414   6
  -5  -9   5 219.706 13.7241   8
   5  -9  -5 214.479 11.1752  16
  -5  -9   5 202.723 14.8114  14
   5  -9  -5 198.947 11.9897   1
  -5  -9   5 219.643 16.6524   3
   5  -9  -5 214.835 11.4749  12
  -5   9   5 233.674 17.6131  10
  -5   9   5 213.779 17.7366   2
  -3  -9   5 89.8897 7.39832   6
   3  -9  -5 111.201 7.15597  16
  -3  -9   5 107.667 7.85800   8
  -3  -9   5 103.581 9.09221   9
   3  -9  -5 102.894 7.98629   1
   3   9  -5 105.736 8.07666   7
  -3   9   5 120.063 14.4474   2
  -3   9   5 115.506 11.8339  10
   3   9  -5 117.234 11.8937  10
  -3   9   5 104.681 8.28128  11
  -1  -9   5 5.09898 2.84483   9
   1  -9  -5 9.13416 3.48979   1
  -1  -9   5 5.42834 2.24391   6
  -1   9   5 1.50127 4.71623   2
  -1   9   5 6.18754 3.14231  10
   1   9  -5 3.51012 3.26775   7
  -1   9   5 14.5245 5.84397  15
  -1   9   5 3.75165 4.30228  11
   1   9  -5 10.7693 5.66670  10
   1  -9   5 33.9485 4.95718   6
  -1  -9  -5 43.3284 6.67691   8
  -1  -9  -5 40.1251 4.72572  13
   1   9   5 33.8986 8.37974   2
   1   9   5 38.7421 6.14899  11
  -1   9  -5 52.0708 9.79662  10
  -1   9  -5 38.3150 5.88729   7
  -3  -9  -5 66.0866 8.35441   8
   3  -9   5 70.0549 7.28721   6
   3   9   5 73.5745 8.10777  11
  -3   9  -5 78.1224 11.5261  10
   3   9   5 70.8658 7.52171   5
  -3   9  -5 59.5928 8.35611   7
   5  -9   5 14.6312 4.07463   6
  -5  -9  -5 8.51475 4.67875   8
   5   9   5 13.1407 3.81134   5
  -5   9  -5 16.7696 7.14876  10
  -5   9  -5 13.9262 6.06728   7
   5   9   5 15.8030 4.18995  11
  -8 -10   5 19.3495 6.61237   3
  -8 -10   5 9.39086 5.55757  14
   8 -10  -5 5.42135 3.89267  12
  -8 -10   5 11.1041 4.56048   8
  -8 -10   5 11.9444 3.32302   6
   8 -10  -5 8.85530 3.90586   1
   8  10  -5 12.5411 4.71251   5
  -8  10   5 2.22913 6.78870  10
   6 -10  -5 69.8099 7.44124   1
  -6 -10   5 66.7649 8.29997   8
   6 -10  -5 71.8405 7.36700  12
   6 -10  -5 67.3113 6.59326  16
  -6 -10   5 65.8249 8.61499   9
  -6 -10   5 69.0273 7.10814   6
  -6 -10   5 61.2390 9.11478  14
  -6  10   5 67.1560 11.5250  10
   6  10  -5 86.0231 9.73259   2
  -6  10   5 69.6626 11.4211   2
  -4 -10   5 1.59434 4.01938   9
  -4 -10   5 4.60114 3.24477   6
   4 -10  -5 4.28906 2.26883  16
   4 -10  -5 -0.7766 2.97498   1
  -4 -10   5 2.78634 3.20151   8
   4  10  -5 3.29855 4.55655  10
  -4  10   5 4.49406 5.57156   2
  -4  10   5 -0.9616 4.04669  10
  -2 -10   5 3.90612 2.37296   6
   2 -10  -5 5.13378 3.78907   8
   2 -10  -5 3.97123 3.39433   1
  -2 -10   5 4.11361 3.90178   9
  -2  10   5 3.39156 4.78322  10
   2  10  -5 4.91307 3.44439   7
  -2  10   5 0.96320 7.40178   2
  -2  10   5 9.04898 4.77062  11
   2  10  -5 7.61730 4.47100  10
   0 -10  -5 10.1884 3.48802   8
   0 -10   5 19.3007 5.05069   9
   0 -10   5 12.5507 4.00923   6
   0  10   5 10.0766 7.42048   2
   0  10  -5 13.9063 6.41272  10
   0  10  -5 2.88585 3.80984   7
   0  10   5 10.5213 4.42752  11
  -2 -10  -5 7.02629 4.90156   8
   2 -10   5 8.80040 3.68692   6
  -2  10  -5 4.98415 4.73826   7
   2  10   5 1.52045 3.95470   2
   2  10   5 6.98962 4.00109  11
   2  10   5 4.43730 2.99532   5
  -2  10  -5 7.67711 6.22356  10
  -4 -10  -5 41.3942 6.58211   8
   4 -10   5 43.0669 6.02220   6
  -4  10  -5 25.8848 6.89142   7
  -4  10  -5 25.1242 8.52893  10
   4  10   5 35.7338 6.11135   5
   4  10   5 43.4134 7.07836  11
  -7 -11   5 123.186 9.22189   6
  -7 -11   5 132.546 11.6359   8
   7 -11  -5 136.153 9.82725  12
  -7 -11   5 123.335 12.3354  14
   7  11  -5 125.819 12.5197  11
  -7  11   5 148.286 16.8085  10
  -5 -11   5 159.797 10.9452   6
  -5 -11   5 176.930 13.2217   8
   5 -11  -5 176.066 11.4694   1
  -5 -11   5 161.852 13.5450   9
   5 -11  -5 167.020 10.4869  16
   5  11  -5 167.101 14.8551   2
  -5  11   5 179.223 17.0769  10
  -5  11   5 152.938 17.1907   2
  -3 -11   5 127.218 9.55443   6
   3 -11  -5 135.342 10.7049   8
   3 -11  -5 134.065 10.2247   1
  -3 -11   5 140.103 11.8181   9
   3  11  -5 138.819 14.3390  10
  -3  11   5 146.334 12.8280  10
  -3  11   5 119.254 9.81312  11
  -3  11   5 131.923 16.5225   2
  -1 -11   5 145.505 11.5567   9
  -1 -11   5 124.907 9.83326   6
   1 -11  -5 124.213 10.4924   8
  -1  11   5 134.727 10.7324  11
  -1  11   5 144.270 16.8307   2
   1  11  -5 158.226 15.9842  10
  -1 -11  -5 60.5653 8.05767   8
   1 -11   5 73.4495 7.86614   6
   1  11   5 69.9113 8.54641  11
  -1  11  -5 75.2045 8.93234   7
  -1  11  -5 59.2341 10.1379  10
   1  11   5 76.4309 10.7216   2
   3 -11   5 45.7454 6.33361   6
  -3 -11  -5 36.4954 7.47386   8
   3  11   5 32.8164 5.40128   5
   3  11   5 35.4312 6.35258  11
  -3  11  -5 41.8091 9.98460  10
  -3  11  -5 39.8844 7.86600   7
   4 -12  -5 79.1045 8.26303   1
  -4 -12   5 67.3706 7.47646   6
  -4  12   5 75.1009 11.7422  10
  -4  12   5 82.9163 12.2037   2
   4  12  -5 74.0707 11.8832   2
  -2 -12   5 217.691 12.8223   6
   2 -12  -5 205.749 14.4678   8
  -2 -12   5 230.438 15.2597   9
  -2  12   5 201.813 14.4725  11
  -2  12   5 209.885 20.0344   2
   2  12  -5 234.098 18.9377  10
   2  12  -5 208.418 19.0536   2
   0 -12   5 344.657 17.6908   6
   0 -12  -5 318.695 19.4585   8
   0  12   5 340.371 19.0926  11
   0  12   5 321.661 22.5153   2
   0  12  -5 355.596 24.5916  10
  12   0  -6 8.50453 4.60763  12
 -12   0   6 3.35088 5.43985   3
  12   0  -6 15.1215 5.84674   1
 -12   0   6 9.88632 5.94697  14
 -10   0   6 135.947 12.6158  14
  10   0  -6 90.4954 8.86649   1
  10   0  -6 115.696 8.26285  12
  10   0  -6 106.226 8.26756  16
 -10   0   6 104.385 11.0629   3
  -8   0   6 550.107 25.4548  14
   8   0  -6 506.769 21.6586  16
   8   0  -6 527.783 21.3165  12
  -8   0   6 548.531 27.0311   3
   8   0  -6 489.158 22.7129   1
  -6   0   6 168.126 9.51748  14
  -6   0   6 151.500 8.14567   9
  -6   0   6 164.387 11.1307   3
   6   0  -6 151.773 8.66214   1
   6   0  -6 146.859 7.77816  16
   6   0  -6 151.728 7.24816  12
  -4   0   6 182.055 9.43006   2
  -4   0   6 186.886 10.7455   3
   4   0  -6 166.185 8.36874  13
  -4   0   6 172.163 8.86265   9
   4   0  -6 161.588 7.80373   1
   4   0  -6 166.894 7.57725  16
   4   0  -6 162.114 6.55035  12
  -4   0   6 158.074 8.31754  14
  -4   0   6 160.448 6.78653  11
  -2   0   6 867.060 31.0489  11
   2   0  -6 805.376 30.3198   1
  -2   0   6 870.979 33.5364   2
  -2   0   6 858.501 32.1834   3
   2   0  -6 843.286 30.1391  16
   2   0  -6 856.360 31.1465  13
   2   0  -6 900.654 32.0181   4
   0   0  -6 182.363 8.75928   7
   0   0   6 174.460 7.95930   5
   0   0   6 184.894 9.08145  11
   0   0  -6 176.790 9.36666   4
   0   0   6 197.773 10.9126   2
   0   0  -6 180.404 8.47889  13
   0   0   6 189.465 10.8053  15
   0   0  -6 185.472 7.62606   1
   2   0   6 203.033 10.6720  11
  -2   0  -6 192.090 9.67627   7
  -2   0  -6 185.113 10.4638   4
   2   0   6 212.276 13.0830  15
   2   0   6 193.201 9.67699   5
  -2   0  -6 186.678 9.33210  13
   4   0   6 97.2629 7.62392   5
   4   0   6 98.0902 7.54597  11
  -4   0  -6 106.447 8.21124   4
  -4   0  -6 97.9524 6.69838  13
  -4   0  -6 84.5463 6.82731   7
  -6   0  -6 74.2385 8.58711   4
   6   0   6 71.4693 7.97199  11
   6   0   6 51.2339 6.53794   5
 -11  -1   6 1351.84 58.4207   3
  11  -1  -6 1340.07 53.3678   1
 -11  -1   6 1378.06 57.4153  14
  11  -1  -6 1338.58 51.0029  12
  11  -1  -6 1282.60 51.0699  16
  11   1  -6 1327.46 50.8363  12
  11   1  -6 1241.90 50.7029  16
  11   1  -6 1290.98 53.1029   1
 -11   1   6 1332.68 56.6446  14
 -11   1   6 1238.46 56.7379   3
   9  -1  -6 994.636 39.3063  12
   9  -1  -6 994.270 39.9587  16
  -9  -1   6 1024.20 45.8676   3
  -9  -1   6 1081.13 45.2769  14
   9  -1  -6 1023.03 41.3426   1
  -9   1   6 1077.03 46.2333   3
   9   1  -6 1068.83 39.7868  12
   9   1  -6 979.660 39.7128  16
  -9   1   6 1144.79 45.0007  14
   9   1  -6 983.797 41.2703   1
   7  -1  -6 1738.60 62.7187   1
  -7  -1   6 1627.84 61.5990   9
   7  -1  -6 1649.01 60.7310  12
  -7  -1   6 1759.23 67.4766   3
  -7  -1   6 1795.92 65.4142  14
   7  -1  -6 1757.54 61.7880  16
  -7   1   6 1810.87 64.2399  14
  -7   1   6 1727.39 66.8080   3
   7   1  -6 1687.99 60.7422  12
   7   1  -6 1683.72 61.3565  16
  -7   1   6 1740.61 64.7282  10
   7   1  -6 1713.56 62.5456   1
   5  -1  -6 3857.10 131.631  12
  -5  -1   6 3551.19 133.659   9
  -5  -1   6 3805.05 137.427   3
   5  -1  -6 4089.82 133.327  13
  -5  -1   6 4093.33 134.983  14
   5  -1  -6 3964.81 132.614  16
   5  -1  -6 4000.01 133.277   1
   5   1  -6 4087.47 132.527  16
  -5   1   6 3523.80 133.113   9
  -5   1   6 4035.40 133.757  14
  -5   1   6 3665.00 135.716  10
   5   1  -6 4092.72 133.192   1
  -5   1   6 3576.00 134.057   2
  -5   1   6 3806.95 136.914   3
   5   1  -6 3873.04 131.495  12
   3  -1  -6 1918.70 66.9512   1
  -3  -1   6 1775.37 65.8688   6
  -3  -1   6 1933.13 68.8893   9
  -3  -1   6 1833.27 66.4936  11
   3  -1  -6 1918.60 65.4822  12
  -3  -1   6 2072.53 68.6212  14
   3  -1  -6 1941.77 67.3474  13
   3  -1  -6 1966.91 66.6226  16
  -3  -1   6 1878.26 69.5762   3
   3   1  -6 1914.18 66.5945   1
  -3   1   6 1896.67 66.5462  11
   3   1  -6 1991.85 67.3743  13
  -3   1   6 2087.96 67.4663  14
  -3   1   6 1907.00 69.0945   3
  -3   1   6 1939.15 67.3403  15
   3   1  -6 1898.29 66.2347  16
  -3   1   6 1874.13 69.5653   2
  -1  -1   6 2643.70 93.6000   3
   1  -1  -6 2647.29 92.0304  16
   1  -1  -6 2607.05 92.2158   1
   1  -1  -6 2738.53 93.7935   4
  -1  -1   6 2586.53 91.6303   6
  -1  -1   6 2681.40 91.9741   5
   1  -1  -6 2747.51 93.0786  13
  -1  -1   6 2707.78 93.3547  11
  -1   1   6 2801.51 95.4589  15
   1   1  -6 2717.74 92.7996  13
  -1   1   6 2672.35 91.9811   5
   1   1  -6 2742.58 94.0012   4
   1   1  -6 2660.38 91.5967   1
  -1   1   6 2729.83 96.1767   2
   1   1  -6 2677.27 91.4554  16
  -1   1   6 2756.62 93.5053  11
  -1  -1  -6 3374.19 121.782   7
   1  -1   6 3519.92 121.775   5
   1  -1   6 3536.00 122.996  11
  -1  -1  -6 3610.01 122.215  13
  -1  -1  -6 3635.06 123.347   4
  -1   1  -6 3628.19 123.531   4
   1   1   6 3501.06 121.973   5
   1   1   6 3624.22 126.359  15
   1   1   6 3650.81 123.421  11
  -1   1  -6 3487.56 121.707  13
   1   1   6 3485.43 125.013   2
  -1   1  -6 3491.43 122.729   7
   3  -1   6 998.235 37.5923   5
  -3  -1  -6 957.217 36.7637   7
  -3  -1  -6 987.840 38.6661   4
   3  -1   6 1017.97 38.5767  11
  -3  -1  -6 993.985 37.4898  13
  -3   1  -6 984.997 36.9994  13
   3   1   6 1031.20 42.9034  15
   3   1   6 1001.24 37.9191   5
  -3   1  -6 995.228 37.8269   7
   3   1   6 1028.22 38.9265  11
  -3   1  -6 983.844 38.9270   4
   5  -1   6 849.636 33.8298   5
   5  -1   6 845.886 34.1191  11
  -5  -1  -6 831.520 34.6148   4
  -5   1  -6 801.624 32.7520   7
  -5   1  -6 830.288 34.7455   4
   5   1   6 846.221 34.2117  11
   5   1   6 798.433 33.3939   5
   7  -1   6 764.023 31.7195  11
  -7  -1  -6 708.611 32.0298   4
   7  -1   6 751.620 32.2447   5
  -7   1  -6 726.440 32.5725   4
   7   1   6 743.491 31.7016  11
   7   1   6 715.997 31.6160   5
 -12  -2   6 353.987 24.0206   3
  12  -2  -6 365.937 21.4823   1
  12  -2  -6 362.002 19.4468  12
 -12  -2   6 365.870 23.9927  14
  12   2  -6 374.610 19.3012  12
  12   2  -6 335.139 20.9145   1
 -12   2   6 356.004 23.9525   3
  10  -2  -6 407.699 19.7893  16
 -10  -2   6 444.053 25.6912   3
  10  -2  -6 438.096 19.9727  12
  10  -2  -6 427.600 21.6537   1
 -10  -2   6 423.126 25.1639  14
 -10   2   6 434.279 25.1378   3
  10   2  -6 404.179 19.5830  12
 -10   2   6 432.573 23.5035  14
  10   2  -6 410.211 19.9001  16
 -10   2   6 413.511 21.4919  10
  10   2  -6 432.806 21.7428   1
   8  -2  -6 1841.36 69.7755   1
   8  -2  -6 1910.24 68.2206  12
  -8  -2   6 1825.37 68.7126   9
  -8  -2   6 1859.56 74.7914   3
   8  -2  -6 1852.69 68.7440  16
  -8  -2   6 2053.47 74.5136  14
   8   2  -6 1853.64 70.2188   1
   8   2  -6 1965.94 68.3275  12
   8   2  -6 1912.93 68.7029  16
  -8   2   6 2025.35 71.9860  14
  -8   2   6 1891.02 71.9473  10
  -8   2   6 1960.94 74.5874   3
   6  -2  -6 2397.23 83.5442  12
  -6  -2   6 2418.91 89.8459   3
   6  -2  -6 2432.02 84.7130  13
  -6  -2   6 2299.94 85.2726   9
   6  -2  -6 2435.91 85.1615   1
  -6  -2   6 2537.78 87.8537  14
   6  -2  -6 2381.16 84.2620  16
  -6   2   6 2415.20 89.0091   3
  -6   2   6 2240.98 85.1888   2
  -6   2   6 2439.47 88.2321  10
  -6   2   6 2185.18 83.8729   9
  -6   2   6 2500.43 85.5406  14
   6   2  -6 2482.24 85.2133   1
   6   2  -6 2581.50 84.3251  16
   6   2  -6 2489.65 83.4974  12
   4  -2  -6 4323.08 140.504   1
  -4  -2   6 4195.50 142.109  14
   4  -2  -6 4270.75 140.384  13
   4  -2  -6 4280.76 139.890  16
  -4  -2   6 3921.32 143.834   3
  -4  -2   6 3731.29 141.398   9
   4  -2  -6 4142.87 138.895  12
  -4  -2   6 3871.12 139.200   6
   4   2  -6 4264.04 139.915   1
  -4   2   6 3619.18 142.113   2
  -4   2   6 4244.38 139.901  14
  -4   2   6 3887.53 142.908   3
   4   2  -6 4583.09 140.724  13
  -4   2   6 3862.27 138.847  11
  -4   2   6 3907.88 143.288  10
   4   2  -6 4329.92 139.469  16
  -2  -2   6 4461.44 155.934   3
   2  -2  -6 4621.81 154.366   4
   2  -2  -6 4699.69 153.345  16
  -2  -2   6 4264.73 153.712  11
   2  -2  -6 4838.07 154.179  13
  -2  -2   6 4336.98 155.941   9
  -2  -2   6 4591.48 152.916   6
   2  -2  -6 4714.81 153.679   1
   2   2  -6 4636.42 154.962   4
  -2   2   6 4273.66 153.879  11
   2   2  -6 4643.23 153.665  13
  -2   2   6 4268.95 154.302   3
   2   2  -6 4602.32 152.510   1
   2   2  -6 4583.98 152.324  16
  -2   2   6 4248.20 156.966   2
  -2   2   6 4275.71 152.379   5
  -2   2   6 4516.20 155.523  15
   0  -2   6 878.888 33.2445   6
   0  -2   6 956.230 33.7734   5
   0  -2  -6 942.466 35.0594   4
   0  -2  -6 913.160 33.7632   1
   0  -2  -6 929.888 34.4200  13
   0  -2   6 960.641 34.9385  11
   0   2  -6 940.783 35.4162   4
   0   2   6 982.971 37.8936  15
   0   2  -6 954.958 35.2682   7
   0   2   6 968.286 37.6049   2
   0   2   6 979.529 35.4422  11
   0   2  -6 904.052 33.6752  13
   0   2   6 932.507 33.9788   5
   2  -2   6 1193.67 44.7405  11
  -2  -2  -6 1189.80 44.1661  13
  -2  -2  -6 1242.97 45.2186   4
   2  -2   6 1154.99 43.7784   5
  -2   2  -6 1246.63 45.5990   4
   2   2   6 1181.19 44.1777   5
  -2   2  -6 1201.48 44.8767   7
   2   2   6 1218.58 45.4135  11
   2   2   6 1224.10 46.7529   2
   2   2   6 1231.11 48.7984  15
  -2   2  -6 1174.57 43.3070  13
   4  -2   6 1913.84 68.2198  11
   4  -2   6 1821.28 67.4053   5
  -4  -2  -6 1835.97 68.3438   4
  -4  -2  -6 1836.34 67.1509  13
   4   2   6 1943.92 68.8181  11
  -4   2  -6 1832.43 67.4642   7
   4   2   6 1861.19 67.5999   5
  -4   2  -6 1785.64 68.5186   4
   6  -2   6 712.414 29.6829   5
   6  -2   6 709.733 29.6808  11
  -6  -2  -6 678.795 30.1801   4
  -6   2  -6 640.968 28.5005   7
  -6   2  -6 674.740 30.2083   4
   6   2   6 675.088 29.4124   5
   6   2   6 701.947 29.9090  11
  11  -3  -6 174.750 11.9077  16
  11  -3  -6 176.507 12.0177  12
 -11  -3   6 184.441 16.2981   3
  11  -3  -6 157.775 12.9125   1
 -11  -3   6 181.731 16.7843  14
  11   3  -6 175.849 11.9056  12
 -11   3   6 170.203 14.9481   3
 -11   3   6 177.468 14.3038  14
  11   3  -6 185.619 14.5710   1
  11   3  -6 165.813 11.7396  16
  -9  -3   6 55.9180 6.80349   8
   9  -3  -6 68.2204 6.49503  12
  -9  -3   6 64.5179 9.30462   3
  -9  -3   6 51.9953 8.51626  14
  -9  -3   6 45.2667 5.97367   9
   9  -3  -6 57.5157 7.02051   1
   9  -3  -6 64.9407 6.60824  16
   9   3  -6 52.9224 5.79311  12
  -9   3   6 48.5312 7.01868  14
   9   3  -6 51.8205 7.63460   1
   9   3  -6 51.9072 6.06427  16
  -9   3   6 63.9469 8.01483  10
  -9   3   6 48.8948 8.59898   3
   7  -3  -6 268.645 13.4210  13
   7  -3  -6 290.423 13.7298  16
   7  -3  -6 289.083 13.0887  12
  -7  -3   6 312.189 18.2233   3
  -7  -3   6 303.897 14.6349   9
  -7  -3   6 300.382 14.7718   8
  -7  -3   6 305.790 17.3342  14
   7  -3  -6 280.946 14.3995   1
  -7   3   6 319.109 15.1142  14
  -7   3   6 294.452 13.9643   2
  -7   3   6 330.330 17.6188  10
   7   3  -6 296.306 13.5343  16
   7   3  -6 310.475 13.3258  12
   5  -3  -6 1462.23 53.6248   1
  -5  -3   6 1479.14 52.6034   6
  -5  -3   6 1487.73 53.9963   8
  -5  -3   6 1518.62 58.3506   3
   5  -3  -6 1459.32 53.2427  13
   5  -3  -6 1508.56 52.3662  12
  -5  -3   6 1484.57 54.8400   9
  -5  -3   6 1525.81 56.0700  14
   5  -3  -6 1487.90 53.0436  16
  -5   3   6 1414.34 55.2528   2
   5   3  -6 1456.37 53.3540   1
  -5   3   6 1525.34 57.4440  10
   5   3  -6 1554.64 52.6664  16
   5   3  -6 1527.24 52.0403  12
  -3  -3   6 557.696 23.4453  14
   3  -3  -6 554.529 21.6453   1
   3  -3  -6 560.463 21.8185   4
  -3  -3   6 580.530 23.6681   9
   3  -3  -6 540.164 21.2031  16
   3  -3  -6 555.616 21.6722  13
  -3  -3   6 555.044 24.4156   3
   3  -3  -6 538.126 20.4680  12
  -3  -3   6 554.656 20.9061   6
  -3   3   6 610.837 24.6623  10
  -3   3   6 571.609 22.4796  15
   3   3  -6 570.198 21.4196  13
   3   3  -6 564.276 20.6824   1
  -3   3   6 596.910 25.1323   2
  -3   3   6 555.681 21.3335  11
   3   3  -6 561.147 20.3511  16
  -3   3   6 605.254 23.4003   3
  -1  -3   6 446.287 18.8309   9
  -1  -3   6 477.848 15.9601   6
  -1  -3   6 383.188 17.7386   3
   1  -3  -6 396.087 15.8478  16
  -1  -3   6 412.603 16.7542  11
  -1  -3   6 396.100 15.5134   5
   1  -3  -6 382.770 16.1107   1
   1  -3  -6 396.246 16.4953  13
   1  -3  -6 385.338 16.4439   4
  -1   3   6 401.145 15.8523   5
  -1   3   6 418.411 17.2569  11
   1   3  -6 393.152 17.1245   4
  -1   3   6 448.905 20.0312   2
   1   3  -6 394.047 15.6814  13
  -1   3   6 434.018 19.3977  15
   1  -3   6 681.809 25.8401   5
  -1  -3  -6 691.612 26.4227  13
   1  -3   6 676.011 26.7580  11
  -1  -3  -6 677.271 26.7472   4
   1  -3   6 716.692 28.4662   9
   1   3   6 648.692 26.0761   5
  -1   3  -6 674.137 27.2295   7
   1   3   6 671.518 30.1179  15
   1   3   6 708.020 27.5928  11
   1   3   6 720.301 29.3530   2
  -1   3  -6 662.076 25.1609  13
  -1   3  -6 662.148 27.2939   4
   3  -3   6 147.175 9.54845   9
  -3  -3  -6 136.299 9.08993   4
  -3  -3  -6 122.892 7.89547  13
   3  -3   6 128.196 7.87746   5
   3  -3   6 133.365 8.47863  11
  -3   3  -6 125.693 9.33304   4
   3   3   6 130.100 9.41045   2
   3   3   6 131.336 8.60179   5
   3   3   6 134.730 8.91637  11
  -3   3  -6 120.235 8.43128   7
  -3   3  -6 121.162 9.56103  10
   3   3   6 126.943 11.0093  15
  -5  -3  -6 157.182 11.0627   4
   5  -3   6 157.820 10.6839  11
   5  -3   6 165.899 10.3366   5
   5   3   6 147.618 10.4485   5
  -5   3  -6 151.405 11.0466   4
   5   3   6 148.442 10.7609  11
  -5   3  -6 158.674 10.7457   7
   7  -3   6 177.473 12.5550   5
  -7  -3  -6 189.220 13.3160   4
  -7   3  -6 181.793 12.7800   4
   7   3   6 177.103 11.4415  11
  -7   3  -6 155.226 11.1635   7
   7   3   6 176.024 11.9994   5
 -12  -4   6 891.175 43.5270  14
 -12  -4   6 845.055 41.6359   3
  12  -4  -6 810.140 37.0289   1
  12  -4  -6 815.342 35.5655  12
 -12   4   6 808.157 41.3588   3
  12   4  -6 828.304 38.1756   1
  10  -4  -6 1746.85 68.8463   1
 -10  -4   6 1974.18 76.3488  14
  10  -4  -6 1646.16 66.6720  13
  10  -4  -6 1828.82 67.4682  12
 -10  -4   6 1922.93 69.6195   8
 -10  -4   6 1878.56 75.2445   3
  10  -4  -6 1772.02 67.5108  16
 -10   4   6 1778.25 70.7347  10
  10   4  -6 1821.26 67.6545  16
 -10   4   6 1771.37 73.9110   3
  10   4  -6 1986.93 67.7988  12
  -8  -4   6 2981.04 106.869   8
  -8  -4   6 2980.87 112.294   3
   8  -4  -6 2801.47 104.671  13
   8  -4  -6 2945.83 106.310   1
  -8  -4   6 2943.14 106.517   9
   8  -4  -6 2938.13 105.116  16
   8  -4  -6 2976.58 104.743  12
  -8  -4   6 3086.92 112.032  14
   8   4  -6 3081.15 105.282  16
   8   4  -6 3197.51 105.044  12
  -8   4   6 2953.23 109.865  10
  -6  -4   6 2133.46 80.5566   3
   6  -4  -6 2106.32 75.1689   1
  -6  -4   6 2070.32 76.0453   9
  -6  -4   6 2128.65 73.9812   6
   6  -4  -6 2160.04 73.9093  12
   6  -4  -6 2126.19 74.3965  16
   6  -4  -6 2093.43 74.2783  13
  -6  -4   6 2124.42 78.6298  14
  -6  -4   6 2081.15 75.6128   8
   6   4  -6 2228.54 74.1411  16
  -6   4   6 2128.98 79.2551  10
  -6   4   6 1902.06 76.1216   2
  -4  -4   6 2310.02 85.9723   3
  -4  -4   6 2266.25 83.8486  14
   4  -4  -6 2391.37 81.4735  13
  -4  -4   6 2329.30 80.9110   6
   4  -4  -6 2424.27 81.3469  16
   4  -4  -6 2356.69 80.5505  12
   4  -4  -6 2429.75 81.9922   1
  -4  -4   6 2250.46 83.3596   9
  -4  -4   6 2322.25 82.1016   8
   4   4  -6 2410.06 81.0680   1
   4   4  -6 2464.51 81.4019  13
  -4   4   6 2309.64 85.3985   2
  -4   4   6 2164.07 81.4797  15
  -4   4   6 2397.57 85.7120  10
  -4   4   6 2157.54 80.6310  11
  -2  -4   6 4434.87 150.672   6
  -2  -4   6 4496.55 154.751   3
   2  -4  -6 4514.09 151.038   4
   2  -4  -6 4634.48 151.373   1
   2  -4  -6 4627.08 150.958  16
  -2  -4   6 4415.92 153.652   9
   2  -4  -6 4586.57 151.338  13
  -2   4   6 4210.68 153.407  10
   2   4  -6 4506.56 152.226   4
  -2   4   6 4156.32 153.904  15
  -2   4   6 4353.23 156.034   2
  -2   4   6 4182.10 151.975  11
   2   4  -6 4255.22 150.286  13
   0  -4   6 3921.09 137.603   5
   0  -4   6 4099.83 140.788   9
   0  -4  -6 4181.70 138.524   4
   0  -4   6 3992.86 137.698   6
   0  -4  -6 4192.30 138.615  13
   0  -4  -6 4142.38 138.172   1
   0   4  -6 4053.86 139.732   7
   0   4   6 3943.27 139.709  11
   0   4   6 3723.81 137.958   5
   0   4   6 4059.51 142.430   2
   0   4   6 3858.82 142.449  15
   0   4  -6 4039.71 139.284   4
  -2  -4  -6 2823.20 98.4993  13
   2  -4   6 2808.28 98.0115   5
   2  -4   6 2993.12 100.580   9
  -2  -4  -6 2819.80 98.6061   4
  -2   4  -6 2790.90 99.4925   4
  -2   4  -6 2831.71 99.6268   7
   2   4   6 2774.87 101.044   2
   2   4   6 2691.61 103.156  15
   2   4   6 2805.92 99.7479  11
   2   4   6 2657.21 98.1744   5
  -4  -4  -6 1707.94 62.3122   4
  -4  -4  -6 1717.23 61.9166  13
  -4  -4  -6 1627.84 61.4513   8
   4  -4   6 1764.04 62.0237   5
   4   4   6 1622.87 61.6699   5
  -4   4  -6 1645.72 62.3787   7
   4   4   6 1667.45 62.5927  11
  -4   4  -6 1653.33 62.8423   4
   6  -4   6 613.681 26.6522   5
  -6  -4  -6 618.557 26.8549   4
   6   4   6 571.305 26.0741   5
  -6   4  -6 588.146 27.4650   4
  -6   4  -6 567.822 26.0013   7
 -11  -5   6 646.976 29.6690   8
  11  -5  -6 605.172 29.3279   1
 -11  -5   6 644.175 35.1763  14
  11  -5  -6 622.536 28.2331  12
 -11  -5   6 661.150 33.9666   3
  11   5  -6 666.030 27.8687  12
 -11   5   6 611.150 33.1514   3
 -11   5   6 598.666 30.3520  10
   9  -5  -6 771.694 32.9301  13
   9  -5  -6 820.679 35.0778   1
  -9  -5   6 861.809 41.0234  14
   9  -5  -6 826.383 33.8529  16
   9  -5  -6 842.834 33.7747  12
  -9  -5   6 861.377 35.4031   9
  -9  -5   6 840.145 35.5634   8
  -9  -5   6 915.055 41.1668   3
   9   5  -6 903.786 33.9359  12
   9   5  -6 798.967 33.5052  16
  -9   5   6 867.285 38.2727  10
   7  -5  -6 827.565 34.4388   1
  -7  -5   6 881.505 33.5477   6
   7  -5  -6 823.847 33.2695  13
   7  -5  -6 852.909 33.6830  16
  -7  -5   6 924.732 36.1549   9
   7  -5  -6 851.537 33.3079  12
  -7  -5   6 944.973 40.5653   3
  -7  -5   6 903.275 39.4955  14
  -7  -5   6 929.430 36.0116   8
  -7   5   6 933.588 39.4794  10
   7   5  -6 902.948 33.7286  16
  -7   5   6 843.486 35.5042   2
  -5  -5   6 1103.50 44.7317  14
   5  -5  -6 1103.69 40.8951  13
  -5  -5   6 1096.15 43.1698   9
   5  -5  -6 1102.49 41.8007   1
   5  -5  -6 1111.64 41.0790  16
   5  -5  -6 1118.80 40.5707  12
  -5  -5   6 1124.40 40.9419   6
  -5  -5   6 1087.33 46.2914   3
  -5  -5   6 1120.27 42.3585   8
   5   5  -6 1150.20 40.4298  16
  -5   5   6 1229.78 47.1340  10
  -5   5   6 1130.99 45.2025   2
  -3  -5   6 1279.57 45.6492   6
  -3  -5   6 1243.55 46.3099   8
   3  -5  -6 1223.07 45.1860   4
  -3  -5   6 1279.91 50.2993   3
  -3  -5   6 1309.46 48.4916   9
   3  -5  -6 1274.05 46.3280   1
   3  -5  -6 1251.88 45.7916  13
   3  -5  -6 1309.22 45.8561  16
   3   5  -6 1267.86 46.9229   4
  -3   5   6 1219.12 46.5282  11
  -3   5   6 1247.60 48.3490  15
   3   5  -6 1229.26 45.0662  13
  -3   5   6 1363.37 51.7900   2
  -3   5   6 1364.74 50.0229  10
   1  -5  -6 1676.16 59.9077  13
  -1  -5   6 1726.73 62.4867   9
  -1  -5   6 1606.79 59.3817   6
   1  -5  -6 1658.04 59.3523   4
   1  -5  -6 1669.07 59.4842  16
   1  -5  -6 1688.19 59.9643   1
  -1   5   6 1605.72 63.7310  15
  -1   5   6 1724.08 61.6107  11
   1   5  -6 1753.22 60.9374   4
   1   5  -6 1682.71 61.4197   7
  -1   5   6 1671.74 61.2905  10
  -1   5   6 1757.30 65.1977   2
  -1  -5  -6 1790.49 64.3802  13
   1  -5   6 1802.09 63.8317   5
   1  -5   6 1915.43 66.7842   9
   1  -5   6 1774.39 63.7704   6
  -1  -5  -6 1799.05 64.0494   4
   1   5   6 1709.03 68.6464  15
  -1   5  -6 1816.73 65.8192   7
   1   5   6 1799.79 67.9308   2
  -1   5  -6 1796.37 65.1894   4
   1   5   6 1684.17 64.0261   5
   1   5   6 1842.54 66.0432  11
   3  -5   6 783.018 30.7224   5
  -3  -5  -6 748.150 31.3035   8
  -3  -5  -6 781.863 31.1026  13
  -3  -5  -6 795.045 31.1368   4
   3   5   6 781.841 32.6846   2
  -3   5  -6 766.024 34.7671  10
  -3   5  -6 770.652 32.2394   7
   3   5   6 734.255 31.5785  11
   3   5   6 754.698 30.6169   5
  -3   5  -6 791.799 31.8903   4
   5  -5   6 309.097 16.0407   5
  -5  -5  -6 325.566 16.2863   4
  -5  -5  -6 291.910 15.4751   8
  -5   5  -6 309.677 16.9125   7
  -5   5  -6 298.488 16.6602   4
   5   5   6 274.486 15.3572   5
   5   5   6 285.245 16.0028  11
  10  -6  -6 -1.1497 3.34590  12
 -10  -6   6 -1.1517 3.98359   3
  10  -6  -6 6.36649 4.00039   1
 -10  -6   6 2.71146 3.93483  14
  10  -6  -6 2.40279 2.29028  16
 -10  -6   6 3.83658 3.33059   8
  10   6  -6 3.36488 3.71485  12
 -10   6   6 4.59302 5.02234  10
  10   6  -6 4.79894 3.36655  16
  -8  -6   6 17.1396 5.32239  14
   8  -6  -6 16.0371 3.34314  16
  -8  -6   6 14.7460 3.22049   6
   8  -6  -6 18.8584 4.75229   1
   8  -6  -6 19.3956 3.84263  12
  -8  -6   6 28.6321 5.17964   8
  -8  -6   6 38.2123 6.13230   9
  -8  -6   6 13.6998 4.93500   3
  -8   6   6 38.1082 8.30162  10
   8   6  -6 17.7837 3.74110  16
  -6  -6   6 222.263 15.8269   3
  -6  -6   6 225.278 14.7117  14
   6  -6  -6 213.471 12.0337   1
   6  -6  -6 223.491 11.3879  16
   6  -6  -6 207.401 10.6453  12
  -6  -6   6 241.288 13.2012   8
  -6  -6   6 236.199 13.5698   9
   6  -6  -6 220.261 10.7551  13
  -6  -6   6 228.886 11.3570   6
   6   6  -6 205.839 12.6970  15
  -6   6   6 241.331 16.3847  10
   6   6  -6 215.705 10.6111  16
  -6   6   6 239.711 14.8879   2
   4  -6  -6 333.282 15.2994   1
  -4  -6   6 339.232 17.9668  14
  -4  -6   6 339.647 14.7513   6
  -4  -6   6 339.985 16.8527   9
  -4  -6   6 345.882 15.6851   8
   4  -6  -6 340.304 14.7911  16
  -4  -6   6 340.950 19.3668   3
   4  -6  -6 311.257 14.1842  13
   4  -6  -6 340.282 14.3828  12
  -4   6   6 399.473 20.0900  10
   4   6  -6 327.492 14.1105  13
  -4   6   6 376.647 20.6875   2
  -4   6   6 339.410 15.2990  11
   2  -6  -6 152.926 8.19666  16
   2  -6  -6 151.724 8.46509  13
  -2  -6   6 160.374 8.24956   6
  -2  -6   6 181.830 10.9688   9
   2  -6  -6 147.009 8.75515   1
  -2   6   6 177.865 12.1559  15
   2   6  -6 154.743 8.76593   4
  -2   6   6 172.688 10.4008  11
  -2   6   6 168.701 11.0065  10
  -2   6   6 200.185 14.5732   2
   2   6  -6 148.099 9.67140   7
   0  -6   6 51.8639 5.41049   9
   0  -6   6 26.0771 3.58403   6
   0  -6  -6 31.0751 3.92833   1
   0  -6  -6 31.7283 4.18909  13
   0   6   6 29.8270 6.42646  15
   0   6   6 29.0197 5.83701   2
   0   6   6 26.9827 3.90003   5
   0   6  -6 36.2435 5.40515   7
   0   6  -6 34.9876 4.55461   4
   0   6   6 29.1327 4.71815  11
   2  -6   6 4.43380 1.94606   6
  -2  -6  -6 3.97144 2.91829  13
   2  -6   6 5.39870 2.66988   5
  -2   6  -6 6.46956 3.33841   4
   2   6   6 3.07163 3.79838  11
   2   6   6 3.43169 3.03504   5
   2   6   6 8.02687 4.06619   2
  -2   6  -6 2.59541 3.41407   7
  -2   6  -6 5.77835 3.50093  10
  -4  -6  -6 69.2353 7.84160   8
   4  -6   6 84.0601 7.62777   5
   4   6   6 75.3429 7.55950   5
  -4   6  -6 76.5022 8.14694   4
   4   6   6 92.2799 7.84618  11
  -4   6  -6 99.4825 9.54141  10
  -4   6  -6 88.3001 9.31894   7
   6  -6   6 122.035 9.98165   5
  -6   6  -6 110.634 10.5217   4
   6   6   6 117.660 8.73246   5
   6   6   6 102.797 9.15016  11
  -6   6  -6 104.116 10.2853   7
 -11  -7   6 395.230 25.8626  14
 -11  -7   6 394.079 24.7352   3
 -11  -7   6 375.827 20.9625   8
  11  -7  -6 347.564 19.7256   1
  11  -7  -6 369.315 19.0529  12
 -11   7   6 375.345 22.8360  10
   9  -7  -6 689.521 30.6593   1
   9  -7  -6 728.312 30.2300  12
  -9  -7   6 787.433 33.5390   8
  -9  -7   6 723.032 32.0037   9
  -9  -7   6 705.024 37.0599  14
   9  -7  -6 671.090 29.6226  16
  -9  -7   6 732.662 36.7500   3
   9   7  -6 710.642 29.6733  16
   9   7  -6 760.391 30.0275  12
  -9   7   6 716.295 35.4032  10
   7  -7  -6 1331.27 49.9621  12
  -7  -7   6 1276.62 56.2282  14
  -7  -7   6 1392.82 57.8750   3
   7  -7  -6 1365.71 51.4784   1
   7  -7  -6 1396.19 50.4806  16
  -7  -7   6 1356.96 50.1667   6
  -7  -7   6 1417.91 53.8036   9
  -7  -7   6 1388.81 53.0752   8
  -7   7   6 1293.80 53.6613   2
  -7   7   6 1378.92 56.5634  10
   7   7  -6 1288.72 49.5157  16
  -5  -7   6 1926.36 75.4962  14
  -5  -7   6 2009.98 77.7157   3
   5  -7  -6 1965.54 69.7360  13
   5  -7  -6 1935.38 71.1015   1
   5  -7  -6 1992.47 70.5075  16
  -5  -7   6 1914.36 73.4456   9
  -5  -7   6 1973.08 72.4329   8
   5  -7  -6 1995.24 70.2191  12
  -5  -7   6 1995.92 70.5475   6
  -5   7   6 1941.46 76.2033   2
  -5   7   6 2089.59 77.3303  10
  -3  -7   6 2297.43 85.9019   3
   3  -7  -6 2319.24 79.9624  16
   3  -7  -6 2325.15 79.6666  13
  -3  -7   6 2213.66 82.7774   9
  -3  -7   6 2148.48 80.3017   8
   3  -7  -6 2291.38 80.4935   1
  -3  -7   6 2312.00 80.0160   6
   3   7  -6 2309.19 81.6002   7
  -3   7   6 2108.41 83.1984  15
  -3   7   6 2179.04 81.3001  11
   3   7  -6 2291.96 80.6124   4
  -3   7   6 2387.68 84.8948  10
  -3   7   6 2263.89 86.9942   2
   1  -7  -6 1252.06 46.4070  13
  -1  -7   6 1319.47 49.4335   9
   1  -7  -6 1212.88 46.6218   1
  -1  -7   6 1244.75 46.3812   6
  -1   7   6 1209.14 51.1239  15
   1   7  -6 1210.24 46.6143   4
  -1   7   6 1277.34 48.5380  11
  -1   7   6 1201.87 47.7346  10
  -1   7   6 1408.73 53.8905   2
   1   7  -6 1302.24 48.3782   7
   1  -7   6 1036.38 39.1390   9
  -1  -7  -6 955.050 36.7073  13
   1  -7   6 940.052 36.4814   6
  -1   7  -6 954.875 42.8670  10
   1   7   6 1007.17 41.5591   2
  -1   7  -6 927.257 37.1061   4
  -1   7  -6 961.969 38.6904   7
   1   7   6 935.635 38.4732  11
   1   7   6 870.395 36.1097   5
  -3  -7  -6 1216.45 45.7076  13
   3  -7   6 1211.36 45.6640   6
   3  -7   6 1188.98 45.2571   5
  -3  -7  -6 1180.24 46.5358   8
   3   7   6 1159.20 46.3118  11
  -3   7  -6 1158.11 45.8277   4
  -3   7  -6 1231.71 47.5782   7
  -3   7  -6 1245.28 51.5676  10
   3   7   6 1079.83 44.6151   5
   3   7   6 1157.51 47.3776   2
   5  -7   6 734.378 30.3713   6
   5  -7   6 732.976 30.1182   5
  -5   7  -6 702.570 31.3616   7
  -5   7  -6 674.426 32.6482   4
   5   7   6 670.026 29.1386   5
   5   7   6 646.096 29.4724  11
  10  -8  -6 337.921 18.0619  12
 -10  -8   6 335.619 24.1445  14
  10  -8  -6 350.734 18.9194   1
 -10  -8   6 367.897 23.8019   3
 -10  -8   6 365.804 20.8873   8
  10   8  -6 357.862 18.0085  12
 -10   8   6 349.867 22.9933  10
  -8  -8   6 312.370 17.2842   8
  -8  -8   6 280.974 14.4573   6
   8  -8  -6 258.706 13.7597  16
  -8  -8   6 272.180 16.8179   9
   8  -8  -6 254.333 14.8657   1
   8  -8  -6 289.438 14.6853  12
  -8  -8   6 274.812 19.9372   3
  -8  -8   6 266.661 19.7698  14
   8   8  -6 230.487 13.3107  16
  -8   8   6 289.299 20.5419  10
   6  -8  -6 378.020 18.2653   1
  -6  -8   6 404.115 23.8769   3
   6  -8  -6 348.417 16.8596  16
  -6  -8   6 392.810 17.6655   6
  -6  -8   6 347.421 21.6234  14
   6  -8  -6 382.587 17.2249  12
  -6  -8   6 395.889 20.7884   9
  -6  -8   6 383.968 19.8514   8
  -6   8   6 406.416 23.3302  10
  -6   8   6 389.691 22.6769   2
  -4  -8   6 232.221 13.1666   8
   4  -8  -6 227.584 11.9281  16
  -4  -8   6 243.772 12.2310   6
  -4  -8   6 239.581 16.4377   3
   4  -8  -6 226.111 12.4451   1
  -4  -8   6 239.094 14.7647   9
  -4   8   6 236.373 12.8122  11
  -4   8   6 252.044 17.6911   2
   4   8  -6 227.636 12.8302   7
  -4   8   6 272.177 17.5873  10
  -2  -8   6 299.637 14.3554   6
  -2  -8   6 299.048 16.4420   9
   2  -8  -6 298.998 14.1041  16
   2  -8  -6 284.361 13.7301  13
   2  -8  -6 287.552 14.5914   1
  -2   8   6 322.869 20.8559   2
  -2   8   6 276.364 17.5892  15
  -2   8   6 337.571 17.6749  10
  -2   8   6 304.301 16.2364  11
   2   8  -6 316.060 15.9902   7
   0  -8   6 840.984 33.1755   6
   0  -8  -6 867.332 33.1508  13
   0   8   6 851.849 38.5283   2
   0   8  -6 851.672 39.8541  10
   0   8   6 804.163 34.4748  11
   0   8  -6 836.067 34.8496   7
   2  -8   6 441.213 19.5577   6
  -2  -8  -6 407.178 20.2350   8
  -2  -8  -6 396.680 18.8282  13
  -2   8  -6 428.654 20.8223   7
   2   8   6 420.627 22.3852   2
  -2   8  -6 419.539 25.1095  10
   2   8   6 405.813 20.6432  11
   2   8   6 362.119 18.4683   5
   4  -8   6 163.072 11.3662   6
  -4  -8  -6 165.924 12.1352   8
  -4   8  -6 158.568 12.7268   7
   4   8   6 146.110 10.6797  11
   4   8   6 142.509 10.4746   5
  -4   8  -6 158.644 14.9169  10
   9  -9  -6 279.059 15.3926  12
  -9  -9   6 288.648 18.0326   8
   9  -9  -6 279.822 16.0847   1
  -9  -9   6 311.355 21.6571   3
  -9  -9   6 257.052 20.7656  14
  -9   9   6 314.470 22.2654  10
   7  -9  -6 127.143 9.10119  16
   7  -9  -6 122.234 9.21581  12
  -7  -9   6 129.272 11.8076   9
   7  -9  -6 146.278 9.90129   1
  -7  -9   6 131.676 11.5875   8
  -7  -9   6 123.769 13.0064  14
  -7  -9   6 135.737 13.2568   3
  -7  -9   6 128.983 9.43009   6
  -7   9   6 132.938 13.1209   2
  -7   9   6 137.722 15.0506  10
  -5  -9   6 11.0726 4.79424   9
  -5  -9   6 17.5292 3.51266   6
  -5  -9   6 13.9444 3.70611   8
   5  -9  -6 6.57965 3.68406   1
   5  -9  -6 8.84534 2.76837  16
  -5   9   6 2.49800 4.91563   2
  -5   9   6 11.6706 6.80037  10
   3  -9  -6 224.486 12.6197   1
  -3  -9   6 204.590 12.1146   8
  -3  -9   6 218.874 14.0711   9
  -3  -9   6 225.436 12.1722   6
   3  -9  -6 230.809 12.0450  16
  -3   9   6 218.131 14.8390  10
  -3   9   6 233.163 13.8296  11
   3   9  -6 236.271 13.3485   7
  -3   9   6 258.532 19.5472   2
  -1  -9   6 343.412 18.5935   9
  -1  -9   6 305.613 15.5911   6
   1  -9  -6 333.129 15.4358  13
   1  -9  -6 320.548 16.2073   1
  -1   9   6 350.175 22.5999   2
  -1   9   6 324.802 17.9508  11
   1   9  -6 332.460 17.5243   7
   1   9  -6 314.280 21.7221  10
   1  -9   6 219.496 12.4066   6
  -1  -9  -6 220.926 12.1392  13
  -1  -9  -6 194.164 13.6517   8
   1   9   6 212.300 14.1012  11
   1   9   6 212.791 16.5476   2
   1   9   6 178.642 11.5394   5
  -1   9  -6 194.289 13.5838   7
  -1   9  -6 203.423 17.7170  10
  -3  -9  -6 216.370 14.0710   8
   3  -9   6 228.533 13.6214   6
   3   9   6 224.738 13.1747   5
  -3   9  -6 221.472 17.3436  10
  -3   9  -6 218.690 14.3651   7
   3   9   6 205.832 14.1624  11
   8 -10  -6 628.758 27.7279  12
   8 -10  -6 633.871 28.0707   1
  -8 -10   6 659.211 34.7366   3
  -8 -10   6 611.248 26.9473   6
  -8 -10   6 663.251 31.4129   8
  -8 -10   6 580.934 33.5626  14
  -8  10   6 680.588 35.3128  10
  -6 -10   6 1509.77 57.5562   6
   6 -10  -6 1504.33 57.1709  16
   6 -10  -6 1588.50 58.5045   1
  -6 -10   6 1567.17 61.0826   8
  -6 -10   6 1573.60 62.2058   9
  -6  10   6 1449.02 63.6465   2
  -6  10   6 1591.67 65.2878  10
   4 -10  -6 1791.22 65.4242   1
  -4 -10   6 1676.55 64.4704   6
  -4 -10   6 1786.13 69.0626   9
  -4 -10   6 1662.13 65.9659   8
   4 -10  -6 1707.97 64.2637  16
  -4  10   6 1730.79 73.0242   2
  -4  10   6 1784.61 70.7936  10
   4  10  -6 1944.32 72.7674  10
  -2 -10   6 1288.88 51.4466   9
  -2 -10   6 1180.92 47.1959   6
   2 -10  -6 1231.86 47.9120   1
   2  10  -6 1324.00 55.8167  10
   2  10  -6 1298.73 49.1098   7
  -2  10   6 1309.97 56.0692   2
  -2  10   6 1124.60 50.7373  10
  -2  10   6 1228.18 49.1587  11
   0 -10   6 1498.79 56.4779   6
   0 -10  -6 1542.27 58.9451   8
   0  10  -6 1491.32 64.8144  10
   0  10   6 1495.16 63.0731   2
   0  10   6 1394.11 57.6928  11
   0  10  -6 1545.72 58.2837   7
   2 -10   6 840.077 34.9636   6
  -2 -10  -6 863.274 37.0834   8
  -2  10  -6 823.779 36.3784   7
   2  10   6 845.024 38.6382   2
  -2  10  -6 855.716 42.1105  10
   2  10   6 821.521 35.7310  11
   2  10   6 794.558 33.8762   5
  -7 -11   6 287.911 18.4413   8
   7 -11  -6 294.968 16.0790   1
  -7 -11   6 249.572 14.9166   6
  -7  11   6 283.516 20.4896  10
   5 -11  -6 318.249 16.8764   1
  -5 -11   6 291.531 15.7311   6
  -5 -11   6 281.575 17.7046   8
  -5 -11   6 304.326 19.3844   9
  -5  11   6 292.450 22.6209   2
  -5  11   6 341.276 22.4787  10
   5  11  -6 387.272 29.4469  10
  -3 -11   6 508.601 24.1205   6
   3 -11  -6 568.022 25.2180   1
   3 -11  -6 544.837 26.4096   8
  -3 -11   6 557.291 28.0528   9
  -3  11   6 544.468 28.2864  10
   3  11  -6 595.342 31.3625  10
  -3  11   6 565.322 31.7478   2
   1 -11  -6 170.528 13.2538   8
  -1 -11   6 172.152 11.2093   6
  -1 -11   6 192.825 14.2212   9
  -1  11   6 186.944 18.0740   2
   1  11  -6 192.772 18.1014  10
  -1  11   6 181.917 13.7229  11
   1 -11   6 36.3774 5.53326   6
  -1 -11  -6 45.1341 7.94016   8
   1  11   6 35.6801 7.29135  11
  -1  11  -6 49.8578 10.9478  10
   1  11   6 40.0428 8.96168   2
  -1  11  -6 33.9148 6.83242   7
   1  11   6 37.4583 5.87490   5
  -4 -12   6 115.882 9.06496   6
   4 -12  -6 99.3617 9.45029   1
  -4 -12   6 105.008 11.7232   9
   4  12  -6 151.425 14.0273  10
   4  12  -6 117.880 14.8838   2
  -4  12   6 105.754 14.9082   2
  -4  12   6 128.211 13.2495  10
  -2 -12   6 37.2586 5.46638   6
   2 -12  -6 41.1556 6.91441   8
  -2 -12   6 34.8949 7.12591   9
  -2  12   6 32.8345 5.92377  11
   2  12  -6 50.9177 9.99039  10
  -2  12   6 36.3873 8.76534   2
   0 -12   6 208.973 13.5121   6
   0 -12  -6 201.744 14.2568   8
   0  12   6 186.464 14.4572  11
   0  12   6 216.760 17.4586   2
   0  12  -6 216.454 18.3355  10
 -12   0   7 0.44161 3.10675  14
  12   0  -7 1.00417 3.71029  12
 -12   0   7 -1.8057 5.15375   3
  12   0  -7 2.51994 3.89785   1
 -10   0   7 -0.2423 4.44821   3
  10   0  -7 -1.6007 2.02824  16
 -10   0   7 -1.4444 3.91373  14
  10   0  -7 0.74107 4.05091   1
  10   0  -7 1.77633 2.85462  12
  -8   0   7 -1.9904 1.39314  14
   8   0  -7 1.46403 1.94708  12
   8   0  -7 -1.0479 2.87564   1
  -8   0   7 0.26586 3.41916   3
   8   0  -7 -0.8243 2.17562  16
   6   0  -7 1.10249 1.83510  16
   6   0  -7 -0.2022 2.13489   1
   6   0  -7 0.98425 1.03957  12
  -6   0   7 6.52717 1.89805   9
  -6   0   7 1.64546 1.96494  14
   6   0  -7 24.1550 3.70168  13
  -6   0   7 16.2214 4.75585   3
   4   0  -7 7.92315 2.29363  13
   4   0  -7 0.32497 1.36669   1
  -4   0   7 1.41622 1.73611   9
  -4   0   7 0.60260 1.87394   2
  -4   0   7 0.40504 1.24474  14
  -4   0   7 0.68511 0.80060  11
  -4   0   7 2.71595 2.07795   3
   4   0  -7 0.44609 0.92195  16
   2   0  -7 8.86843 1.44359  16
  -2   0   7 2.35659 1.27869   3
  -2   0   7 1.79865 1.37562  11
   2   0  -7 3.97290 1.33343   1
  -2   0   7 -0.3875 1.31328   2
   2   0  -7 -0.0856 1.52319  13
   2   0  -7 1.59594 1.91938   4
   0   0   7 -0.4188 1.01816   5
   0   0  -7 0.14585 1.26123  13
   0   0  -7 1.00150 1.69088   4
   0   0   7 0.12058 2.54108   2
   0   0   7 1.89549 1.90444  15
   0   0  -7 0.32704 1.54828   7
   0   0   7 -0.0333 1.78550  11
   2   0   7 0.73751 1.73365   5
  -2   0  -7 2.28623 1.59579   7
   2   0   7 -2.3381 1.93750  11
  -2   0  -7 0.03123 2.50298   4
   2   0   7 -2.1120 2.21453  15
  -2   0  -7 0.77137 1.50730  13
  -4   0  -7 0.86284 2.59410   4
  -4   0  -7 3.10621 2.76487  13
   4   0   7 0.78883 2.94075  11
   4   0   7 1.51913 2.74901   5
  -6   0  -7 -1.7156 4.04251   4
   6   0   7 2.59008 2.51429   5
   6   0   7 6.19504 3.02777  11
  11  -1  -7 67.7274 7.14336  12
 -11  -1   7 64.9277 10.4536  14
  11  -1  -7 76.5127 9.79234   1
  11  -1  -7 78.5057 8.53221  16
 -11  -1   7 86.2277 13.3781   3
  11   1  -7 69.3539 7.48239  12
  11   1  -7 70.6762 9.28734   1
 -11   1   7 76.3117 11.1316   3
 -11   1   7 59.4893 9.43457  14
  11   1  -7 63.2041 7.68947  16
   9  -1  -7 4.25257 2.54788  12
  -9  -1   7 7.35166 5.15645   3
   9  -1  -7 0.56734 3.42926   1
   9  -1  -7 1.87182 2.82337  16
  -9  -1   7 14.0098 4.89736  14
   9   1  -7 5.00319 2.69204  12
  -9   1   7 0.88459 2.86802   3
  -9   1   7 3.03932 3.41590  14
   9   1  -7 0.85268 1.87459  16
   9   1  -7 1.34626 3.33592   1
   7  -1  -7 91.1118 7.03114  13
   7  -1  -7 93.9863 6.62614  16
  -7  -1   7 105.670 8.53599  14
  -7  -1   7 97.0945 6.53884   9
  -7  -1   7 101.455 9.83257   3
   7  -1  -7 95.1323 5.70501  12
   7  -1  -7 100.019 7.44323   1
  -7   1   7 88.2598 6.04850   9
   7   1  -7 92.7789 5.53506  12
   7   1  -7 96.4773 6.82352   1
  -7   1   7 108.295 10.1735   3
  -7   1   7 101.503 7.63027  14
  -7   1   7 104.928 6.84717   2
   7   1  -7 95.4128 6.47819  16
   5  -1  -7 644.926 24.9621   1
  -5  -1   7 630.188 26.0692  14
   5  -1  -7 623.369 24.2786  16
  -5  -1   7 644.478 28.7568   3
   5  -1  -7 638.695 25.1161  13
  -5  -1   7 638.291 26.0692   9
  -5   1   7 630.045 25.0551  14
  -5   1   7 614.322 25.4516   9
  -5   1   7 669.724 26.8642   2
  -5   1   7 676.170 28.3606   3
   5   1  -7 675.407 25.2948  13
   5   1  -7 638.786 24.0889  16
   5   1  -7 641.530 24.7049   1
   3  -1  -7 610.685 23.8435   4
   3  -1  -7 580.172 23.0938  13
  -3  -1   7 588.531 22.4266  11
  -3  -1   7 638.008 25.1414   9
  -3  -1   7 586.374 24.8095   3
   3  -1  -7 589.858 22.1466  16
   3  -1  -7 568.675 22.4495   1
   3   1  -7 598.722 22.9441  13
  -3   1   7 637.372 26.1896   2
  -3   1   7 613.920 23.5907  15
   3   1  -7 621.827 24.2985   4
  -3   1   7 592.599 24.2707   3
   3   1  -7 584.980 21.6798  16
   3   1  -7 571.222 21.9557   1
  -3   1   7 608.154 22.5288  11
   1  -1  -7 253.130 11.6356  13
  -1  -1   7 270.671 12.0871  11
  -1  -1   7 261.385 10.4580   5
   1  -1  -7 244.568 10.6156   1
   1  -1  -7 264.428 10.5183  16
   1  -1  -7 274.217 12.6269   4
  -1  -1   7 238.849 11.5287   3
   1   1  -7 248.331 11.2351  13
  -1   1   7 274.552 12.1344  11
   1   1  -7 254.657 12.6378   4
  -1   1   7 288.292 14.0817  15
  -1   1   7 284.098 14.6391   2
  -1   1   7 252.188 10.3604   5
   1  -1   7 14.6583 3.29840  11
   1  -1   7 13.5003 2.45616   5
  -1  -1  -7 37.8071 4.79520   4
  -1  -1  -7 12.6767 2.97526  13
  -1  -1  -7 13.7558 2.51353   7
  -1   1  -7 17.2047 3.21810   7
  -1   1  -7 11.8794 3.09044   4
  -1   1  -7 19.1739 3.06807  13
   1   1   7 12.4193 3.21750  11
   1   1   7 16.2281 4.09737   2
   1   1   7 16.9350 4.40792  15
   1   1   7 13.4255 2.49935   5
  -3  -1  -7 13.3507 4.23183   4
  -3  -1  -7 18.2831 3.32106  13
   3  -1   7 18.6180 4.09664  11
   3  -1   7 19.0236 3.27277   5
   3   1   7 14.5253 3.36803   5
   3   1   7 15.6770 4.04803  11
  -3   1  -7 15.5166 3.76884   7
  -3   1  -7 12.7967 2.60987  13
  -3   1  -7 15.0087 3.77592   4
  -5  -1  -7 150.166 11.9539   4
   5  -1   7 158.598 10.7413  11
   5  -1   7 151.692 10.3357   5
  -5   1  -7 158.124 11.6303   4
   5   1   7 150.807 11.2219  11
   5   1   7 158.845 10.9122   5
  12  -2  -7 302.717 16.4006  12
 -12  -2   7 303.777 21.8729   3
  12  -2  -7 301.735 18.8316   1
 -12  -2   7 348.719 23.5978  14
  12   2  -7 295.086 19.2419   1
 -12   2   7 310.205 20.4805  14
  12   2  -7 309.507 17.0740  12
 -12   2   7 283.268 21.6023   3
 -10  -2   7 386.845 23.1692  14
  10  -2  -7 337.267 17.3145  16
 -10  -2   7 364.255 23.2370   3
  10  -2  -7 338.555 16.7017  12
  10  -2  -7 350.502 18.8951   1
 -10   2   7 341.265 22.4092   3
 -10   2   7 343.042 19.6774  14
  10   2  -7 312.015 16.8351  16
  10   2  -7 377.628 17.2348  12
  10   2  -7 338.404 18.7402   1
   8  -2  -7 539.406 22.1046  12
  -8  -2   7 523.919 23.2233   9
   8  -2  -7 527.319 23.3326  13
  -8  -2   7 570.617 29.2068   3
  -8  -2   7 624.059 28.0711  14
   8  -2  -7 528.624 23.9243   1
   8  -2  -7 540.518 22.9757  16
   8   2  -7 529.752 22.7844  16
   8   2  -7 548.806 22.1121  12
  -8   2   7 611.642 27.0352  10
   8   2  -7 548.178 23.8837   1
  -8   2   7 591.352 28.7182   3
  -8   2   7 598.436 25.3258  14
  -6  -2   7 1050.89 43.9302   3
   6  -2  -7 1030.72 38.2041  16
  -6  -2   7 1023.49 41.0366  14
   6  -2  -7 1017.39 37.1460  12
   6  -2  -7 1027.86 38.9643   1
  -6  -2   7 1008.30 39.6114   9
   6  -2  -7 1026.90 38.7772  13
  -6   2   7 1035.00 40.2971   2
   6   2  -7 1049.93 37.9729  16
   6   2  -7 1058.66 38.8376   1
  -6   2   7 1163.01 43.9263   3
  -6   2   7 1092.68 42.7245  10
  -6   2   7 957.583 38.4375   9
   4  -2  -7 456.835 18.7582  13
  -4  -2   7 460.768 21.7280   3
   4  -2  -7 452.326 18.1147  16
  -4  -2   7 473.657 20.2738  14
  -4  -2   7 450.004 17.4681   6
  -4  -2   7 506.011 20.8698   9
   4  -2  -7 451.243 18.6043   1
   4   2  -7 467.339 18.7553  13
  -4   2   7 481.073 21.2940   2
  -4   2   7 465.306 17.6096  11
  -4   2   7 464.187 18.0887  15
   4   2  -7 469.316 18.0067   1
  -4   2   7 486.336 21.0350   3
   4   2  -7 456.341 17.5266  16
  -2  -2   7 726.938 27.1247  11
   2  -2  -7 703.170 27.5177   4
  -2  -2   7 711.132 28.5839   3
  -2  -2   7 759.495 29.6912   9
  -2  -2   7 664.308 25.3357   5
   2  -2  -7 712.025 27.0468  13
   2  -2  -7 679.621 26.3921   1
   2  -2  -7 696.440 26.1068  16
  -2   2   7 742.802 27.4100  11
   2   2  -7 704.634 26.6019  13
  -2   2   7 755.898 29.0627  15
   2   2  -7 722.345 28.3105   4
  -2   2   7 757.094 30.8728   2
   0  -2  -7 1142.51 42.0756  13
   0  -2   7 1152.89 41.1930   5
   0  -2  -7 1133.18 41.3044   7
   0  -2   7 1157.17 42.6270  11
   0  -2  -7 1127.24 41.1552   1
   0  -2  -7 1164.15 42.8547   4
   0   2   7 1134.72 41.3463   5
   0   2   7 1165.51 43.2472  11
   0   2  -7 1109.70 42.8253   7
   0   2  -7 1120.51 41.2792  13
   0   2   7 1176.23 45.8900  15
   0   2   7 1214.86 46.0903   2
   0   2  -7 1153.94 43.3399   4
  -2  -2  -7 401.690 17.8640  13
  -2  -2  -7 399.168 18.8430   4
   2  -2   7 411.688 18.6544  11
   2  -2   7 422.596 17.7982   5
  -2   2  -7 396.388 19.0365   4
   2   2   7 413.324 20.3829   2
   2   2   7 427.334 19.5604  11
  -2   2  -7 424.766 17.2794  13
   2   2   7 419.561 18.0951   5
   2   2   7 423.174 22.5493  15
  -2   2  -7 414.059 18.6549   7
  -4  -2  -7 288.159 14.9617  13
   4  -2   7 302.900 15.9799  11
  -4  -2  -7 290.092 15.7378   4
   4  -2   7 296.004 15.1808   5
   4   2   7 287.554 15.0881   5
  -4   2  -7 293.155 15.3014   7
  -4   2  -7 287.153 16.4937   4
   4   2   7 310.209 16.4500  11
   6  -2   7 221.566 13.6322  11
  -6  -2  -7 233.296 14.7959   4
   6  -2   7 209.783 13.4379   5
   6   2   7 194.117 13.1756  11
  -6   2  -7 199.205 14.3633   4
   6   2   7 189.211 12.9511   5
 -11  -3   7 41.3029 9.23671  14
  11  -3  -7 44.0503 5.85266  12
 -11  -3   7 45.6625 9.53130   3
  11  -3  -7 42.8438 6.32912  13
  11  -3  -7 42.4493 7.48792   1
  11  -3  -7 50.7612 6.52589  16
 -11   3   7 30.7541 6.30755  10
  11   3  -7 49.5366 6.40035  12
  11   3  -7 41.0541 6.14849  16
  11   3  -7 36.8714 7.38385   1
 -11   3   7 46.6919 9.10281   3
  -9  -3   7 34.2086 4.98341   9
   9  -3  -7 32.3627 5.14472  16
   9  -3  -7 42.1858 5.24257  12
   9  -3  -7 38.2921 5.10773  13
  -9  -3   7 33.5130 7.37146   3
  -9  -3   7 41.7249 8.07629  14
   9  -3  -7 43.6976 6.51134   1
  -9   3   7 38.2105 7.08674  10
   9   3  -7 38.7622 5.36304  16
  -9   3   7 36.9279 7.90179   3
   9   3  -7 38.6589 6.24204   1
   9   3  -7 33.2010 4.64613  12
   7  -3  -7 187.869 9.19496  12
   7  -3  -7 189.944 10.8826   1
  -7  -3   7 183.578 14.2450   3
   7  -3  -7 181.557 9.96331  13
   7  -3  -7 182.961 9.97829  16
  -7  -3   7 188.419 13.0094  14
  -7  -3   7 174.951 10.7225   9
   7   3  -7 192.742 9.24406  12
  -7   3   7 202.356 13.8821  10
  -7   3   7 217.081 14.5772   3
   7   3  -7 173.185 9.34579  16
   7   3  -7 204.664 10.9616   1
  -7   3   7 180.619 10.6920   2
  -5  -3   7 2.46972 1.84402   9
  -5  -3   7 1.11506 2.09280  14
   5  -3  -7 1.25658 1.18181  12
  -5  -3   7 1.50461 2.73005   3
  -5  -3   7 1.81814 1.53711   6
   5  -3  -7 -0.5840 1.80887  13
   5  -3  -7 1.23310 1.37064  16
   5  -3  -7 3.63234 2.20953   1
   5   3  -7 6.82816 1.85994  16
  -5   3   7 2.51613 2.56438   3
  -5   3   7 2.22431 2.60603  10
   5   3  -7 2.39928 1.71655   1
  -5   3   7 14.2560 3.77604   2
  -3  -3   7 297.474 14.6945   9
  -3  -3   7 291.261 11.7056   6
   3  -3  -7 290.000 12.8452  13
  -3  -3   7 285.370 15.1398   3
   3  -3  -7 282.186 12.5299   1
   3  -3  -7 267.333 12.6070   4
   3  -3  -7 273.913 11.9909  16
   3   3  -7 297.778 13.9106   4
  -3   3   7 292.800 13.4439   3
  -3   3   7 310.095 16.4085   2
   3   3  -7 290.436 12.3660  13
  -3   3   7 299.214 15.3084  10
  -3   3   7 288.916 12.4953  11
   1  -3  -7 99.7052 6.56696   4
  -1  -3   7 112.458 6.79347  11
   1  -3  -7 101.373 5.71611  16
   1  -3  -7 105.616 6.12726   1
  -1  -3   7 103.933 5.41635   5
  -1  -3   7 109.138 8.36399   9
  -1  -3   7 95.5187 5.30296   6
   1  -3  -7 100.747 6.58569  13
   1   3  -7 100.609 5.67702  13
  -1   3   7 111.519 9.39080   2
   1   3  -7 115.502 7.61048   7
  -1   3   7 110.755 7.23486  11
  -1   3   7 113.870 8.72320  15
   1   3  -7 102.948 7.07620   4
   1  -3   7 172.744 8.53455   5
  -1  -3  -7 157.199 9.44646   4
   1  -3   7 169.951 10.9733   9
   1  -3   7 160.713 9.46980  11
   1  -3   7 141.024 7.53325   6
  -1  -3  -7 146.715 8.85800  13
   1   3   7 160.823 11.6304   2
   1   3   7 160.454 9.74994  11
  -1   3  -7 155.588 9.87505   7
   1   3   7 152.451 11.6176  15
  -1   3  -7 150.419 7.78250  13
  -1   3  -7 157.491 10.0713   4
   1   3   7 157.695 8.66642   5
   3  -3   7 3.59291 3.00584   9
   3  -3   7 7.31060 3.40914  11
  -3  -3  -7 4.47496 3.11848  13
  -3  -3  -7 7.69869 2.98738   4
   3  -3   7 9.20224 3.17013   5
  -3   3  -7 5.38440 3.00078   4
   3   3   7 4.45859 2.52869   2
   3   3   7 0.53327 3.13737  11
  -3   3  -7 15.1508 4.10909   7
   3   3   7 5.15139 3.02844   5
  -5  -3  -7 16.9002 4.85705   4
   5  -3   7 16.9447 4.82287  11
   5  -3   7 10.4271 3.99586   5
   5   3   7 19.4895 4.89135  11
  -5   3  -7 13.1087 4.40474   4
  -5   3  -7 7.94093 4.37720   7
   5   3   7 15.6502 3.60701   5
 -12  -4   7 18.2877 7.87313  14
 -12  -4   7 10.3374 6.07264   3
  12  -4  -7 10.4209 4.61053  12
  12  -4  -7 -0.2757 4.77548   1
 -12   4   7 18.3719 6.16284   3
  12   4  -7 16.0984 6.22792   1
  12   4  -7 15.9026 4.89712  12
 -10  -4   7 364.719 23.2362   3
 -10  -4   7 357.777 23.4677  14
  10  -4  -7 341.030 16.9480  12
  10  -4  -7 315.169 16.8919  13
  10  -4  -7 345.008 18.9018   1
  10  -4  -7 325.024 17.2877  16
  10   4  -7 338.273 17.1318  16
 -10   4   7 334.020 19.9573  10
  10   4  -7 371.195 17.1146  12
 -10   4   7 342.677 22.0816   3
  10   4  -7 345.549 19.6571   1
   8  -4  -7 413.830 19.2891  13
   8  -4  -7 448.211 19.5614  16
   8  -4  -7 444.637 20.7693   1
  -8  -4   7 484.613 26.4226   3
  -8  -4   7 439.110 20.7696   9
  -8  -4   7 464.958 24.5854  14
  -8  -4   7 421.049 20.5069   8
   8  -4  -7 437.748 18.8651  12
   8   4  -7 439.153 19.3008  16
  -8   4   7 477.822 24.3040  10
   8   4  -7 451.597 21.2702   1
  -6  -4   7 45.2269 6.71534  14
   6  -4  -7 40.2977 3.76211  12
  -6  -4   7 41.7775 4.93982   9
  -6  -4   7 52.8133 5.73603   8
   6  -4  -7 37.9924 4.41805  16
   6  -4  -7 44.8195 4.72197  13
  -6  -4   7 49.4107 7.83159   3
   6  -4  -7 34.7965 4.70137   1
  -6  -4   7 37.4221 3.96416   6
   6   4  -7 44.8319 4.07922  16
   6   4  -7 51.6183 5.46333   1
  -6   4   7 52.7975 7.82537  10
  -6   4   7 54.9291 6.76756   2
  -4  -4   7 405.855 18.8184   9
  -4  -4   7 400.790 19.2394  14
  -4  -4   7 381.860 16.0229   6
  -4  -4   7 398.505 20.5961   3
   4  -4  -7 375.431 16.3109  16
   4  -4  -7 400.400 16.7656  13
   4  -4  -7 386.521 16.6929   4
   4  -4  -7 399.188 17.0693   1
   4  -4  -7 405.683 15.6536  12
  -4   4   7 465.692 19.6400   3
  -4   4   7 429.750 20.5958   2
  -4   4   7 435.322 20.7670  10
   4   4  -7 405.694 16.6496  13
  -4   4   7 371.017 16.0105  11
   2  -4  -7 391.929 16.2077  13
  -2  -4   7 370.259 15.2782   6
   2  -4  -7 368.070 15.9564   4
  -2  -4   7 388.083 18.5444   3
   2  -4  -7 372.606 15.5517  16
  -2  -4   7 427.815 19.1135   9
   2  -4  -7 361.725 15.8825   1
  -2   4   7 377.879 16.6201  11
  -2   4   7 411.889 20.5973   2
   2   4  -7 392.903 17.1472   4
   2   4  -7 358.832 15.0734  13
  -2   4   7 402.857 18.1860  10
  -2   4   7 380.032 18.3562  15
   0  -4   7 135.076 7.45129   5
   0  -4  -7 139.031 7.96385   1
   0  -4   7 167.552 10.6338   9
   0  -4  -7 141.429 8.15039   4
   0  -4  -7 133.501 8.04306  13
   0  -4   7 137.368 7.37321   6
   0   4   7 162.226 11.8142  15
   0   4   7 142.795 7.99273   5
   0   4  -7 138.438 9.29704   4
   0   4  -7 153.451 9.41938   7
   0   4   7 147.049 11.3819   2
   0   4   7 168.733 10.0335  11
   2  -4   7 529.945 21.8851   5
  -2  -4  -7 496.072 22.0971  13
   2  -4   7 573.929 24.4178   9
  -2  -4  -7 528.376 22.5812   4
   2   4   7 486.092 21.8944   5
   2   4   7 524.947 24.9816   2
   2   4   7 468.771 28.1479  15
  -2   4  -7 538.898 23.4008   4
  -2   4  -7 548.952 23.3568   7
   2   4   7 520.111 23.2693  11
  -4  -4  -7 119.790 9.26422  13
   4  -4   7 122.865 8.59945   5
  -4  -4  -7 123.879 9.15664   4
   4   4   7 107.997 9.56943  11
  -4   4  -7 120.440 10.0976   7
   4   4   7 109.884 8.93300   5
  -4   4  -7 115.208 10.5339   4
  -6  -4  -7 3.90799 4.13151   4
   6  -4   7 6.45855 3.92825   5
  -6   4  -7 1.45292 4.28192   4
  -6   4  -7 4.38811 4.69154   7
   6   4   7 6.64490 2.92828  11
   6   4   7 3.05722 3.34747   5
 -11  -5   7 82.0626 12.3011  14
  11  -5  -7 60.6361 7.61112  12
 -11  -5   7 77.2901 12.0622   3
  11  -5  -7 61.2691 7.99873   1
 -11   5   7 62.4111 10.2143   3
 -11   5   7 62.5177 9.15444  10
  11   5  -7 59.2674 9.08854   1
  11   5  -7 52.6815 7.06797  12
   9  -5  -7 621.333 26.7149  13
  -9  -5   7 623.308 28.8689   8
  -9  -5   7 674.174 34.0885   3
  -9  -5   7 683.565 29.1537   9
   9  -5  -7 676.771 27.1814  12
   9  -5  -7 592.328 26.6823  16
   9  -5  -7 634.985 28.4435   1
  -9  -5   7 702.604 34.8075  14
   9   5  -7 659.339 27.2218  16
  -9   5   7 648.519 31.9999  10
   9   5  -7 644.591 26.5991  12
  -7  -5   7 156.221 12.6409  14
   7  -5  -7 150.123 9.19300  16
   7  -5  -7 144.182 8.77232  13
  -7  -5   7 149.487 8.78206   6
   7  -5  -7 147.548 9.49896   1
   7  -5  -7 159.424 8.62092  12
  -7  -5   7 159.400 10.7611   8
  -7  -5   7 159.702 10.8043   9
  -7  -5   7 166.173 13.8850   3
  -7   5   7 184.820 14.3200  10
   7   5  -7 155.144 8.75093  16
  -7   5   7 152.325 10.6581   2
  -5  -5   7 20.6996 5.43945   3
   5  -5  -7 20.5277 3.81443   1
  -5  -5   7 19.3791 3.43966   8
  -5  -5   7 18.7329 3.08935   6
   5  -5  -7 22.9911 3.02403  12
   5  -5  -7 27.5235 3.73730  13
   5  -5  -7 20.9017 3.17194  16
  -5  -5   7 21.4406 4.35028   9
  -5  -5   7 18.1978 4.05824  14
  -5   5   7 24.7826 5.46466  10
   5   5  -7 32.6249 3.70108  13
  -5   5   7 25.5915 5.15577   2
  -3  -5   7 230.284 14.1230   3
  -3  -5   7 201.245 9.91126   6
   3  -5  -7 202.359 10.4469  13
  -3  -5   7 228.218 12.6993   9
   3  -5  -7 188.892 9.71293   4
   3  -5  -7 268.799 10.7258  16
  -3   5   7 240.741 15.0017   2
  -3   5   7 230.361 11.2239  11
   3   5  -7 192.248 11.0952   4
   3   5  -7 199.479 9.55422  13
  -3   5   7 233.061 13.5164  10
  -3   5   7 213.030 12.3005  15
   1  -5  -7 44.2995 4.80493  13
  -1  -5   7 40.5507 3.84925   6
   1  -5  -7 44.5181 4.15527   4
   1  -5  -7 33.4927 4.30610   1
  -1  -5   7 45.2160 5.98148   9
  -1   5   7 48.5626 5.48752  11
  -1   5   7 36.9680 5.88964  15
  -1   5   7 47.7003 7.58184   2
   1   5  -7 42.3809 5.56320   7
   1   5  -7 40.7149 4.92201   4
   1  -5   7 311.228 13.8260   5
  -1  -5  -7 307.056 14.4215  13
   1  -5   7 291.013 13.6174   6
  -1  -5  -7 291.406 14.1947   4
   1  -5   7 331.850 16.4726   9
   1   5   7 326.412 18.0537   2
   1   5   7 286.385 18.1843  15
  -1   5  -7 313.690 16.0023   7
   1   5   7 271.315 13.9137   5
   1   5   7 307.737 15.8992  11
  -1   5  -7 282.785 15.2483   4
  -3  -5  -7 442.366 20.1816   8
  -3  -5  -7 442.012 20.3257   4
   3  -5   7 451.663 19.9449   5
  -3  -5  -7 425.215 20.0578  13
   3   5   7 398.574 19.5446   5
  -3   5  -7 429.693 21.3678   7
   3   5   7 460.624 28.6168   2
   3   5   7 437.083 20.7204  11
  -3   5  -7 428.501 23.4232  10
  -3   5  -7 445.989 21.3759   4
   5  -5   7 11.1239 4.13345   5
  -5   5  -7 9.22521 4.88908   4
   5   5   7 10.3406 4.06668  11
   5   5   7 9.89457 3.73181   5
  -5   5  -7 10.6264 5.06787   7
  10  -6  -7 80.2895 7.14618  12
 -10  -6   7 81.0366 11.3322   3
  10  -6  -7 73.2794 8.94287   1
 -10  -6   7 68.1274 11.8263  14
 -10  -6   7 90.0674 9.03511   8
 -10   6   7 78.7817 10.9444  10
   8  -6  -7 119.555 9.51924   1
  -8  -6   7 121.434 10.2637   8
  -8  -6   7 114.477 9.89748   9
  -8  -6   7 111.066 12.1588  14
   8  -6  -7 95.2960 7.48822  13
   8  -6  -7 109.809 8.43408  16
  -8  -6   7 113.075 12.3864   3
   8  -6  -7 111.416 7.94417  12
  -8  -6   7 121.809 8.42398   6
  -8   6   7 124.807 11.8392  10
   8   6  -7 106.345 7.59715  16
   6  -6  -7 54.3095 5.02280  12
  -6  -6   7 52.2234 7.37144  14
  -6  -6   7 60.1364 6.23368   8
  -6  -6   7 55.7721 9.02560   3
  -6  -6   7 51.5979 6.21905   9
   6  -6  -7 57.0627 5.31343  13
   6  -6  -7 52.6995 6.04810   1
  -6  -6   7 68.9480 5.75796   6
   6  -6  -7 69.6938 5.47783  16
  -6   6   7 67.0313 8.51689   2
  -6   6   7 59.4638 9.23216  10
   4  -6  -7 719.649 29.0802   1
  -4  -6   7 721.655 33.5714   3
   4  -6  -7 756.977 28.5852  16
  -4  -6   7 727.773 29.2201   8
  -4  -6   7 709.406 31.0447   9
   4  -6  -7 719.753 28.3182  13
  -4  -6   7 749.180 28.3335   6
  -4   6   7 693.904 28.6224  11
  -4   6   7 807.050 33.7463  10
  -4   6   7 749.653 34.0155   2
   4   6  -7 745.715 29.8470   4
   2  -6  -7 396.954 17.5755   1
   2  -6  -7 417.029 17.5208  13
  -2  -6   7 420.413 20.2495   9
  -2  -6   7 398.773 16.9913   6
   2  -6  -7 381.498 16.9320  16
  -2   6   7 426.701 19.1230  11
  -2   6   7 379.972 20.3977  15
   2   6  -7 393.876 18.9218   7
   2   6  -7 386.781 18.0273   4
  -2   6   7 410.765 19.4465  10
  -2   6   7 446.459 22.9712   2
   0  -6   7 3.18634 2.45402   9
   0  -6  -7 -0.2737 2.37095  13
   0  -6   7 1.08738 1.87925   6
   0  -6  -7 3.34543 2.64477   1
   0   6  -7 4.99428 2.43330   4
   0   6  -7 1.00703 2.17714   7
   0   6   7 6.36084 2.61429   5
   0   6   7 -0.0374 4.03989   2
   0   6   7 3.55118 3.72197  15
   0   6   7 -1.0010 3.16986  11
   2  -6   7 157.047 9.52916   5
   2  -6   7 144.117 8.80877   6
  -2  -6  -7 142.741 9.82345  13
  -2   6  -7 149.808 12.7511  10
   2   6   7 144.637 11.6546   2
   2   6   7 148.995 11.0116  11
  -2   6  -7 143.511 10.0142   4
   2   6   7 142.997 9.54133   5
  -2   6  -7 155.329 11.3562   7
  -4  -6  -7 94.3044 8.86610   8
   4  -6   7 110.111 8.58844   6
   4  -6   7 119.930 9.35875   5
   4   6   7 103.055 8.06526   5
   4   6   7 109.478 9.63527  11
  -4   6  -7 99.4654 10.2821   7
  -4   6  -7 100.353 9.15593   4
 -11  -7   7 63.0694 8.97129   8
 -11  -7   7 76.2692 12.3810  14
  11  -7  -7 57.6678 7.34670  12
  11  -7  -7 59.2740 8.32079   1
 -11  -7   7 68.9954 10.4078   3
  11   7  -7 56.9596 8.17465   1
  -9  -7   7 29.5624 6.30844   8
   9  -7  -7 37.9982 6.49758   1
  -9  -7   7 30.6378 7.32853   3
  -9  -7   7 30.2603 8.25021  14
   9  -7  -7 34.1931 5.47115  16
  -9  -7   7 33.7725 6.68457   9
   9  -7  -7 31.4714 5.19661  12
  -9   7   7 35.8943 7.65289  10
   9   7  -7 31.9163 4.95095  16
  -7  -7   7 204.434 14.0837   9
   7  -7  -7 211.543 11.4674  12
  -7  -7   7 230.495 13.7211   8
   7  -7  -7 223.788 13.0237   1
  -7  -7   7 208.331 11.3094   6
   7  -7  -7 204.717 11.8024  16
  -7  -7   7 205.900 16.2064  14
  -7  -7   7 227.045 17.4874   3
  -7   7   7 227.786 14.9697   2
  -7   7   7 226.162 17.5111  10
  -5  -7   7 60.7247 8.42815  14
  -5  -7   7 58.4905 5.17969   6
   5  -7  -7 56.0041 5.23838  16
  -5  -7   7 61.0332 8.86025   3
   5  -7  -7 79.8128 7.02868   1
   5  -7  -7 64.4015 5.55908  12
  -5  -7   7 62.5467 6.24359   8
  -5  -7   7 66.4580 7.12428   9
   5  -7  -7 56.9059 5.22262  13
   5   7  -7 60.3316 6.68957   4
  -5   7   7 80.2038 10.4343  10
  -5   7   7 87.9424 9.74893   2
   3  -7  -7 34.4031 4.34049  13
  -3  -7   7 30.1572 5.63701   9
  -3  -7   7 33.0825 4.20751   6
   3  -7  -7 39.0628 5.16125   1
   3  -7  -7 33.0106 4.08680  16
  -3   7   7 31.7357 5.14740  11
   3   7  -7 32.0197 4.53539   4
  -3   7   7 40.4803 6.28618  10
  -3   7   7 43.4206 8.01429   2
   3   7  -7 33.4665 5.48499   7
   1  -7  -7 131.904 8.92879   1
  -1  -7   7 132.828 8.39521   6
  -1  -7   7 155.479 11.1654   9
   1  -7  -7 145.835 8.71061  13
   1   7  -7 129.004 9.13363   4
  -1   7   7 147.580 12.6715   2
   1   7  -7 139.424 10.4564   7
  -1   7   7 133.608 12.0976  15
  -1   7   7 147.693 10.1425  11
   1  -7   7 214.608 13.2467   9
  -1  -7  -7 193.655 11.4628  13
   1  -7   7 193.063 10.9970   6
  -1   7  -7 194.483 15.4724  10
  -1   7  -7 185.772 12.8224   7
  -1   7  -7 195.748 12.0914   4
   1   7   7 185.869 12.0627  11
   1   7   7 189.109 11.0730   5
   1   7   7 207.293 14.7079   2
   3  -7   7 17.2304 3.61339   5
  -3  -7  -7 10.7922 4.46163   8
   3  -7   7 16.0104 4.08112   6
  -3  -7  -7 13.5223 3.85253  13
   3   7   7 11.2845 4.03796   5
  -3   7  -7 15.7976 5.13186  10
  -3   7  -7 19.1103 4.91700   7
  -3   7  -7 7.70112 3.21416   4
   3   7   7 15.5244 4.94709  11
  10  -8  -7 48.4340 6.68310  12
 -10  -8   7 44.8189 10.3125  14
  10  -8  -7 43.2229 7.00620   1
 -10  -8   7 37.1800 6.88293   8
 -10  -8   7 34.1947 8.51419   3
 -10   8   7 42.6883 8.30949  10
   8  -8  -7 62.8083 6.94553  12
  -8  -8   7 71.9042 9.08829   9
  -8  -8   7 75.6947 9.15248   8
   8  -8  -7 66.8057 6.71550  16
   8  -8  -7 73.7517 8.10338   1
  -8  -8   7 99.2389 13.5385   3
  -8  -8   7 68.0989 6.52905   6
  -8  -8   7 63.5436 10.3214  14
  -8   8   7 77.8545 11.5893  10
  -6  -8   7 631.067 25.8105   6
  -6  -8   7 584.940 30.9938  14
   6  -8  -7 633.242 26.7570   1
   6  -8  -7 626.009 25.5385  12
  -6  -8   7 621.861 28.1976   8
  -6  -8   7 627.321 32.9129   3
   6  -8  -7 617.907 25.9386  16
  -6  -8   7 628.580 29.2810   9
  -6   8   7 607.801 30.8168   2
  -6   8   7 661.497 32.4479  10
  -4  -8   7 494.493 21.2276   6
  -4  -8   7 496.121 22.0993   8
   4  -8  -7 465.288 20.7876  16
   4  -8  -7 482.131 20.5091  13
   4  -8  -7 470.339 21.6750   1
  -4  -8   7 519.564 24.8485   9
  -4   8   7 550.294 26.1594  10
   4   8  -7 503.622 22.8324   7
  -4   8   7 516.614 27.6559   2
   2  -8  -7 341.005 15.6395  13
  -2  -8   7 312.563 15.3736   6
   2  -8  -7 312.700 15.9783   1
  -2  -8   7 346.614 18.6135   9
   2   8  -7 320.224 17.3928   7
  -2   8   7 357.023 21.5748   2
  -2   8   7 334.906 17.6321  10
  -2   8   7 316.761 17.2347  11
   0  -8  -7 368.317 17.3072  13
   0  -8   7 386.859 19.7599   9
   0  -8   7 362.294 17.1564   6
   0   8   7 316.316 16.2965   5
   0   8   7 375.225 22.3263   2
   0   8  -7 361.851 19.2737   7
   0   8  -7 357.727 23.4098  10
   0   8   7 372.891 19.2775  11
  -2  -8  -7 80.8199 7.12688  13
   2  -8   7 70.3004 7.43103   6
  -2  -8  -7 73.6069 7.64210   8
  -2   8  -7 68.7438 8.79383   7
   2   8   7 69.9465 8.97875   2
  -2   8  -7 65.2355 10.5113  10
   2   8   7 68.1338 7.64045  11
   2   8   7 59.8195 6.54488   5
  -4  -8  -7 99.4379 9.82962   8
   4  -8   7 126.314 9.84192   6
  -4   8  -7 117.224 12.5814  10
   4   8   7 109.156 8.18958   5
   4   8   7 90.4520 8.53237  11
  -4   8  -7 99.7935 10.1251   7
   9  -9  -7 3.56964 4.00489   1
  -9  -9   7 -2.6529 4.16699   8
   9  -9  -7 2.78008 3.47308  12
  -9  -9   7 6.78229 5.36448  14
  -9  -9   7 0.61265 4.25785   9
  -9  -9   7 0.12475 3.48235   3
  -9   9   7 6.07477 6.50088  10
  -7  -9   7 30.1563 6.60738   9
  -7  -9   7 49.0637 7.88096   8
  -7  -9   7 41.8050 5.86728   6
  -7  -9   7 41.8729 9.22399   3
   7  -9  -7 45.3019 5.80544  16
  -7  -9   7 35.9472 8.32446  14
   7  -9  -7 38.4256 6.23989   1
   7  -9  -7 39.7326 5.60481  12
  -7   9   7 54.9409 9.59553  10
  -7   9   7 50.0052 8.43617   2
  -5  -9   7 142.931 11.6321   9
   5  -9  -7 153.221 10.6206   1
  -5  -9   7 140.797 10.8894   8
  -5  -9   7 156.987 9.58955   6
   5  -9  -7 129.447 8.87870  16
  -5   9   7 168.373 14.1573  10
   5   9  -7 153.396 10.5822   7
  -5   9   7 172.606 14.8389   2
   3  -9  -7 73.2416 7.71978   1
  -3  -9   7 71.6481 9.11217   9
  -3  -9   7 55.5525 6.18966   6
  -3   9   7 79.3108 11.3712   2
  -3   9   7 69.0269 7.28671  11
   3   9  -7 73.0737 8.05595   7
  -3   9   7 72.2469 9.10743  10
  -1  -9   7 106.302 7.83611   6
   1  -9  -7 106.805 8.93320   1
   1  -9  -7 113.235 8.37958  13
  -1  -9   7 116.516 10.1894   9
  -1   9   7 115.461 13.8831   2
   1   9  -7 110.244 10.3396   7
  -1   9   7 127.678 11.0268  11
   1   9  -7 102.043 13.3376  10
  -1  -9  -7 40.3182 5.91384  13
  -1  -9  -7 48.6557 7.30737   8
   1  -9   7 46.4447 5.92777   6
   1   9   7 38.6226 7.04677  11
  -1   9  -7 54.2049 9.70452  10
   1   9   7 32.9592 5.13515   5
  -1   9  -7 48.4128 7.07822   7
   1   9   7 44.2105 8.57848   2
   3  -9   7 0.68752 3.22313   6
  -3  -9  -7 -0.2459 3.74688   8
   3   9   7 4.76788 4.26268  11
  -3   9  -7 2.05892 5.63079  10
  -3   9  -7 2.48684 5.06241   7
   3   9   7 -1.8597 3.09313   5
  -8 -10   7 1.53217 3.78631   6
  -8 -10   7 0.53698 3.01494   8
  -8 -10   7 2.45955 3.56496  14
  -8 -10   7 5.66124 5.21430   3
  -8 -10   7 3.00123 3.38769   9
   8 -10  -7 -1.3340 3.06531  12
   8 -10  -7 0.40204 3.70245   1
  -8  10   7 3.48172 6.39134  10
  -6 -10   7 3.54382 3.53513   9
   6 -10  -7 4.52573 3.87838   1
  -6 -10   7 2.32741 3.00759   8
  -6 -10   7 1.53737 3.38031   6
  -6  10   7 3.11805 6.05653  10
  -6  10   7 5.63052 6.27788   2
   4 -10  -7 87.2534 7.70341  16
   4 -10  -7 94.4092 8.70091   1
  -4 -10   7 83.8209 7.97332   6
  -4 -10   7 95.4117 9.78984   9
  -4  10   7 101.161 12.0728  10
  -4  10   7 82.7368 12.9754   2
   4  10  -7 71.2892 7.90175   7
   4  10  -7 90.3214 12.5368  10
  -2 -10   7 75.0799 9.61665   9
   2 -10  -7 66.8952 7.63588   1
  -2 -10   7 60.9997 6.66623   6
  -2  10   7 46.9231 7.47764  11
   2  10  -7 71.5126 11.8106  10
   2  10  -7 42.0499 6.91379   7
  -2  10   7 71.9499 12.4740   2
   0 -10   7 15.4971 3.74338   6
   0 -10  -7 16.8897 5.65239   8
   0  10  -7 15.7434 7.77519  10
   0  10   7 16.2293 4.73175  11
   0  10   7 19.2065 7.32438   2
   0  10  -7 15.9480 5.83480   7
  -2 -10  -7 1.16531 4.21957   8
   2 -10   7 6.13125 3.86868   6
   2  10   7 2.31866 4.39551   5
  -2  10  -7 9.95007 6.54855  10
  -2  10  -7 0.62534 4.78201   7
   2  10   7 9.75270 3.89664  11
   5 -11  -7 52.0945 7.30575   1
  -5 -11   7 44.7870 8.36772   9
  -5 -11   7 43.2680 5.80180   6
  -5  11   7 46.2539 9.22731   2
   5  11  -7 55.7302 9.63176  10
  -5  11   7 41.8696 9.17023  10
  -3 -11   7 142.365 10.4086   6
   3 -11  -7 144.373 11.0926   1
   3 -11  -7 131.828 11.6015   8
  -3 -11   7 140.112 13.0682   9
  -3  11   7 143.108 14.8626   2
   3  11  -7 150.629 14.9184  10
   1 -11  -7 84.2607 9.87944   8
  -1 -11   7 99.0256 9.09248   6
  -1  11   7 111.466 14.2801   2
   1  11  -7 110.843 11.0489   7
   1  11  -7 118.073 13.4666  10
  -1  11   7 117.567 11.1404  11
  12   0  -8 1770.37 69.9791   1
 -12   0   8 1826.99 77.1759   3
  12   0  -8 1750.39 66.4449  12
 -10   0   8 1141.22 52.0819   3
  10   0  -8 1091.10 45.1121   1
  10   0  -8 1060.87 43.3389  16
 -10   0   8 1214.36 48.9278  14
  10   0  -8 1083.24 42.1623  12
   8   0  -8 2063.02 76.8403  13
  -8   0   8 2268.67 84.7224   3
  -8   0   8 2201.05 79.3146  14
   8   0  -8 2029.56 75.7805  16
   8   0  -8 2074.13 77.0264   1
   6   0  -8 3609.69 119.842  13
  -6   0   8 3089.33 119.818   9
   6   0  -8 3400.85 118.336  16
  -6   0   8 3468.27 120.359  14
  -6   0   8 3474.54 124.765   3
   6   0  -8 3512.56 119.261   1
  -4   0   8 3492.38 127.017   3
   4   0  -8 3738.72 123.918   1
  -4   0   8 3449.04 127.371   2
  -4   0   8 3381.71 123.269  11
  -4   0   8 3417.32 126.383   9
   4   0  -8 3752.03 124.849  13
   4   0  -8 3701.94 123.413  16
   4   0  -8 3869.59 126.278   4
  -2   0   8 5282.76 195.038   2
   2   0  -8 5793.68 192.821   4
   2   0  -8 5562.02 189.660  16
  -2   0   8 5551.02 191.614  11
   2   0  -8 5767.74 191.432  13
   0   0  -8 3364.57 117.126  13
   0   0  -8 3448.66 119.001   4
   0   0   8 3314.29 118.431  11
  -2   0  -8 1035.16 39.3138  13
   2   0   8 1077.15 41.3822  11
  -2   0  -8 1044.89 41.3427   4
   2   0   8 1017.29 39.3041   5
  -2   0  -8 1029.03 39.4493   7
  -4   0  -8 1309.85 52.3179   4
   4   0   8 1334.98 51.2634   5
   4   0   8 1381.17 52.9426  11
  -4   0  -8 1334.61 50.2706  13
  11  -1  -8 309.497 17.2613  16
  11  -1  -8 305.717 16.2571  12
  11  -1  -8 328.782 19.1102   1
 -11  -1   8 361.038 24.3368   3
  11  -1  -8 331.095 17.9543  13
 -11  -1   8 356.609 22.8590  14
  11   1  -8 314.579 17.3559  16
  11   1  -8 324.192 16.3294  12
  11   1  -8 327.842 19.3977   1
 -11   1   8 368.539 21.6953  14
 -11   1   8 338.770 23.2534   3
  -9  -1   8 536.372 28.9167   3
   9  -1  -8 500.485 23.1103   1
   9  -1  -8 480.218 22.4741  13
   9  -1  -8 481.659 20.5932  12
  -9  -1   8 550.642 26.6073  14
   9  -1  -8 467.545 21.4376  16
  -9   1   8 512.133 27.8936   3
   9   1  -8 516.439 23.4504   1
   9   1  -8 479.604 21.8480  16
  -9   1   8 527.515 24.9516  14
  -7  -1   8 172.825 11.3289  14
  -7  -1   8 181.221 13.9608   3
  -7  -1   8 173.382 10.1733   9
   7  -1  -8 168.425 9.38833  16
   7  -1  -8 166.601 10.1664   1
   7  -1  -8 177.691 10.0778  13
   7   1  -8 158.840 9.93903   1
   7   1  -8 208.081 10.9170  13
   7   1  -8 178.816 9.24486  16
  -7   1   8 198.541 14.2854   3
  -7   1   8 174.568 10.4590   2
  -7   1   8 161.309 9.51343   9
  -7   1   8 177.980 10.5108  14
  -5  -1   8 1066.81 41.4493  14
   5  -1  -8 1066.31 40.2811  13
   5  -1  -8 1044.64 39.2711  16
  -5  -1   8 1087.62 44.3558   3
   5  -1  -8 1039.74 39.8413   1
  -5  -1   8 1111.59 42.3416   9
   5   1  -8 1059.27 39.0569  16
  -5   1   8 1075.66 41.5508   9
  -5   1   8 1165.31 44.4760   3
   5   1  -8 1109.26 40.5253  13
  -5   1   8 1089.20 42.8680   2
  -5   1   8 1116.98 40.5223  14
   5   1  -8 1091.20 39.7473   1
  -3  -1   8 1163.22 42.4937  11
   3  -1  -8 1147.21 41.6733  16
   3  -1  -8 1185.93 43.9188   4
  -3  -1   8 1229.50 45.8506   9
  -3  -1   8 1156.44 44.4612   3
   3  -1  -8 1110.07 41.9589   1
   3  -1  -8 1182.73 43.1227  13
   3   1  -8 1151.68 41.1836  16
  -3   1   8 1200.03 42.6352  11
   3   1  -8 1195.14 44.2370   4
   3   1  -8 1191.71 42.9952  13
  -3   1   8 1201.95 46.7830   2
   1  -1  -8 260.794 13.1034   4
  -1  -1   8 269.937 12.7268  11
   1  -1  -8 254.849 11.1843   1
   1  -1  -8 277.726 12.5391  13
   1   1  -8 269.602 12.9294   7
   1   1  -8 266.807 12.1664  13
  -1   1   8 268.559 13.1137  11
  -1   1   8 267.943 14.7023  15
  -1   1   8 278.218 15.8539   2
   1   1  -8 272.896 13.5818   4
  -1  -1  -8 639.810 25.7634  13
  -1  -1  -8 626.520 25.2139   7
  -1  -1  -8 653.800 27.1591   4
   1  -1   8 662.438 25.1917   5
   1  -1   8 662.813 27.0830  11
  -1   1  -8 624.068 25.2378  13
   1   1   8 626.658 25.1787   5
   1   1   8 616.170 29.9043  15
  -1   1  -8 639.861 26.1636   7
  -1   1  -8 644.486 27.4167   4
   1   1   8 674.192 27.4839  11
  -3  -1  -8 346.825 17.4418   4
   3  -1   8 331.857 17.4744  11
   3  -1   8 335.201 16.1240   5
  -3  -1  -8 324.838 16.1073  13
   3   1   8 368.985 18.2998  11
  -3   1  -8 362.880 16.6771   7
  -3   1  -8 323.229 15.4934  13
   3   1   8 321.141 16.2324   5
  -3   1  -8 324.365 17.4465   4
  -5  -1  -8 71.1698 8.69333   4
   5  -1   8 75.8387 8.71751  11
   5  -1   8 72.3070 8.01612   5
   5   1   8 61.6609 7.22095   5
  -5   1  -8 78.0401 9.45446   4
   5   1   8 72.0035 8.33302  11
 -12  -2   8 161.152 16.3449  14
  12  -2  -8 144.566 13.2196   1
 -12  -2   8 153.620 16.3571   3
  12  -2  -8 132.814 11.2118  13
 -12   2   8 133.898 15.5718   3
  12   2  -8 152.665 13.2589   1
  10  -2  -8 174.545 10.2486  12
  10  -2  -8 157.640 12.3209   1
 -10  -2   8 186.563 15.5898  14
  10  -2  -8 182.208 11.6638  13
  10  -2  -8 177.167 11.2718  16
 -10  -2   8 203.554 17.2445   3
 -10   2   8 191.369 16.3803   3
  10   2  -8 155.320 10.7931  16
  10   2  -8 162.175 12.2327   1
  -8  -2   8 1232.99 47.5691  14
   8  -2  -8 1052.84 40.8573  12
   8  -2  -8 1118.42 43.1170  13
   8  -2  -8 1072.11 42.2484  16
  -8  -2   8 1154.14 50.0819   3
   8  -2  -8 1124.36 43.4458   1
  -8  -2   8 1029.30 42.8873   9
   8   2  -8 1111.09 43.3016   1
   8   2  -8 1152.95 42.3498  16
  -8   2   8 1260.82 50.3197   3
  -6  -2   8 1137.71 44.4598   9
   6  -2  -8 1157.51 43.1293   1
  -6  -2   8 1142.13 44.9929  14
   6  -2  -8 1127.04 43.0091  13
   6  -2  -8 1105.43 42.1684  16
  -6  -2   8 1150.59 48.1408   3
   6   2  -8 1146.11 42.6229   1
   6   2  -8 1203.31 43.4198  13
  -6   2   8 1253.55 47.9784   3
  -6   2   8 1085.51 43.2397   9
   6   2  -8 1186.82 42.0316  16
  -6   2   8 1165.84 45.2886   2
   4  -2  -8 75.6114 5.58522   1
   4  -2  -8 82.9017 6.45658   4
   4  -2  -8 83.5966 6.16049  13
  -4  -2   8 82.7430 7.39866   9
  -4  -2   8 75.3892 6.92012   3
   4  -2  -8 77.3850 5.17348  16
   4   2  -8 77.5337 5.71573  13
  -4   2   8 90.0173 8.33704   2
  -4   2   8 79.3682 4.84455  11
   4   2  -8 75.6801 4.39736  16
  -4   2   8 87.6027 6.98186   3
   4   2  -8 86.3416 7.00748   4
  -2  -2   8 440.708 20.0169   9
   2  -2  -8 414.945 17.8989   4
   2  -2  -8 375.654 15.7956  16
  -2  -2   8 418.227 17.2649  11
  -2  -2   8 400.240 18.1304   3
   2  -2  -8 395.572 17.0930  13
   2  -2  -8 382.312 16.1239   1
   2   2  -8 399.975 18.2448   4
  -2   2   8 412.939 17.4833  11
  -2   2   8 412.367 19.2291  15
  -2   2   8 425.043 20.9640   2
   2   2  -8 392.797 16.5867  13
   0  -2   8 744.152 30.8057   9
   0  -2   8 690.733 28.2845  11
   0  -2  -8 675.061 27.5232  13
   0  -2   8 689.947 26.5025   5
   0  -2  -8 716.567 28.7139   4
   0   2   8 752.513 29.3369  11
   0   2  -8 674.607 28.4744   7
   0   2  -8 691.600 26.8798  13
   0   2   8 700.557 31.8589  15
   0   2   8 721.500 31.7689   2
   0   2  -8 703.598 29.0462   4
  -2  -2  -8 355.851 16.4094  13
   2  -2   8 374.038 19.0493   9
   2  -2   8 375.654 16.3828   5
  -2  -2  -8 349.390 17.4928   4
   2  -2   8 336.040 17.1163  11
   2   2   8 322.461 15.9572   5
  -2   2  -8 323.598 15.2662  13
  -2   2  -8 334.138 17.4921   4
  -2   2  -8 357.806 17.1650   7
   2   2   8 387.320 19.6829   2
   2   2   8 354.032 17.7351  11
  -4  -2  -8 438.279 20.2152  13
   4  -2   8 414.892 19.9882   5
  -4  -2  -8 433.173 21.6537   4
   4  -2   8 458.837 21.7224  11
   4   2   8 437.097 21.3690  11
   4   2   8 421.182 20.2112   5
  -4   2  -8 423.326 21.9261   4
  -4   2  -8 390.250 19.8171   7
  11  -3  -8 948.699 41.1086   1
 -11  -3   8 994.597 47.6310   3
  11  -3  -8 932.094 38.0009  12
 -11  -3   8 1065.18 47.4646  14
  11  -3  -8 894.222 38.9520  13
 -11   3   8 982.246 46.9645   3
  11   3  -8 969.904 41.2429   1
   9  -3  -8 1715.21 62.6036  12
   9  -3  -8 1657.77 63.6483  16
   9  -3  -8 1709.15 65.2107   1
   9  -3  -8 1688.74 64.1350  13
  -9  -3   8 1740.07 72.2736   3
  -9  -3   8 1618.37 64.1591   9
  -9  -3   8 1913.73 71.1558  14
  -9   3   8 1746.35 68.8208  10
   9   3  -8 1763.08 65.1125   1
  -9   3   8 1867.69 72.3044   3
   9   3  -8 1718.85 63.6160  16
  -7  -3   8 1439.57 56.9840   9
   7  -3  -8 1524.64 55.9465  13
   7  -3  -8 1458.79 56.1989   1
   7  -3  -8 1437.78 53.9511  12
  -7  -3   8 1552.79 63.0867   3
   7  -3  -8 1493.24 55.3419  16
  -7  -3   8 1517.30 59.3428  14
  -7   3   8 1545.15 60.8651  10
   7   3  -8 1602.65 56.6617  13
  -7   3   8 1745.92 62.8762   3
   7   3  -8 1507.42 55.8419   1
   7   3  -8 1536.81 54.8930  16
  -7   3   8 1494.02 57.7454   2
  -5  -3   8 2234.13 82.4037   9
   5  -3  -8 2256.18 79.3137  16
  -5  -3   8 2112.47 78.3022   6
  -5  -3   8 2171.77 84.5456   3
   5  -3  -8 2308.42 80.1038   1
   5  -3  -8 2314.52 80.1786  13
  -5  -3   8 2302.96 82.6028  14
  -5   3   8 2134.82 83.0551   2
  -5   3   8 2290.86 84.4664  10
   5   3  -8 2324.54 80.0659  13
  -5   3   8 2397.00 83.7501   3
   3  -3  -8 2226.65 76.2328   1
  -3  -3   8 2217.44 79.7082   9
   3  -3  -8 2177.69 76.5187  13
  -3  -3   8 2132.90 79.2116   3
   3  -3  -8 2182.96 76.8745   4
   3  -3  -8 2145.66 75.5779  16
  -3   3   8 2079.56 76.1912  11
   3   3  -8 2175.54 75.9582  13
  -3   3   8 2218.01 81.3319   2
   3   3  -8 2170.15 77.8468   4
  -3   3   8 2082.62 77.6260  15
   1  -3  -8 1363.55 50.8265  13
  -1  -3   8 1418.24 51.4272  11
   1  -3  -8 1416.52 51.5145   4
   1  -3  -8 1384.82 50.1602   1
  -1  -3   8 1443.36 54.4115   9
   1   3  -8 1353.88 51.9458   7
   1   3  -8 1405.59 52.3525   4
  -1   3   8 1339.72 54.3244  15
  -1   3   8 1365.41 51.8316  11
  -1   3   8 1491.58 56.2857   2
   1   3  -8 1379.85 49.8334  13
   1  -3   8 1840.69 66.6932   5
  -1  -3  -8 1859.96 67.5892  13
  -1  -3  -8 1824.40 68.2411   4
   1  -3   8 1868.80 68.5133  11
   1  -3   8 2015.95 71.5369   9
   1   3   8 1925.30 71.7276   2
  -1   3  -8 1911.84 69.3682   4
   1   3   8 1803.15 66.9529   5
   1   3   8 1786.52 72.7864  15
  -1   3  -8 1871.94 68.6610   7
   1   3   8 1870.80 69.2769  11
   3  -3   8 1276.98 47.6903   5
  -3  -3  -8 1225.02 47.5539  13
  -3  -3  -8 1252.69 48.6570   4
   3  -3   8 1313.83 49.3047  11
  -3   3  -8 1228.65 49.2316   4
   3   3   8 1178.70 47.3223   5
  -3   3  -8 1280.58 48.6619   7
   3   3   8 1246.49 49.3713  11
  -5  -3  -8 414.126 21.0779   4
   5  -3   8 453.914 21.1982   5
   5   3   8 431.152 21.9189  11
  -5   3  -8 439.885 23.0193   4
   5   3   8 422.395 20.7132   5
  12  -4  -8 147.058 11.2441  12
 -12  -4   8 164.264 16.6881   3
  12  -4  -8 148.893 12.3575   1
 -12  -4   8 175.212 17.7223  14
  12   4  -8 148.131 13.2578   1
 -12   4   8 159.570 16.4111   3
  10  -4  -8 6.41326 2.79603  13
 -10  -4   8 16.4077 6.61234  14
  10  -4  -8 11.8406 4.20146  16
 -10  -4   8 8.02670 4.88486   3
  10  -4  -8 9.86716 3.97237   1
  10  -4  -8 8.33056 2.72574  12
  10   4  -8 16.6330 3.49850  16
 -10   4   8 6.60654 5.67189   3
  10   4  -8 10.0839 4.60444   1
 -10   4   8 19.7780 6.15663  10
   8  -4  -8 5.88234 2.32063  16
   8  -4  -8 11.2538 3.40737  13
  -8  -4   8 6.12139 3.18125   9
   8  -4  -8 9.36224 3.88822   1
  -8  -4   8 8.28514 4.24201   3
   8  -4  -8 7.36360 2.43404  12
  -8  -4   8 6.87238 3.65261  14
  -8   4   8 7.34445 5.08402   3
   8   4  -8 9.67669 2.91328  16
  -8   4   8 6.02608 4.71257  10
   8   4  -8 5.61403 3.33479   1
  -6  -4   8 74.9017 5.45722   6
   6  -4  -8 71.4489 6.56183   1
   6  -4  -8 76.9973 5.03467  12
   6  -4  -8 70.4244 5.51251  16
   6  -4  -8 77.3147 5.91980  13
  -6  -4   8 78.3046 8.85018   3
  -6  -4   8 76.2192 7.00941   9
  -6  -4   8 71.4903 7.25785  14
  -6   4   8 104.583 9.58679   3
   6   4  -8 72.3803 6.86470   1
  -6   4   8 88.2661 7.91926   2
   6   4  -8 70.2894 5.16367  16
  -6   4   8 86.4033 9.82404  10
   6   4  -8 86.2924 6.16937  13
   4  -4  -8 169.131 8.95721  16
   4  -4  -8 169.885 9.30345   4
   4  -4  -8 171.198 9.54339  13
   4  -4  -8 171.695 9.48685   1
  -4  -4   8 186.938 11.8558   9
  -4  -4   8 158.776 8.18956   6
  -4  -4   8 187.061 12.7828   3
   4   4  -8 172.484 10.3230   4
   4   4  -8 177.012 8.84033  13
  -4   4   8 187.874 12.5764  10
  -4   4   8 198.816 13.5588   2
  -4   4   8 177.404 8.75651  11
   2  -4  -8 449.530 19.1079  13
   2  -4  -8 434.451 18.6584   1
  -2  -4   8 410.658 17.5644   6
   2  -4  -8 447.800 18.9262   4
  -2  -4   8 478.454 21.9276   9
   2  -4  -8 450.662 18.1978  16
   2   4  -8 469.989 20.7189   7
   2   4  -8 430.523 17.8101  13
  -2   4   8 457.945 21.6845  15
   2   4  -8 452.119 20.3388   4
  -2   4   8 514.856 24.4976   2
  -2   4   8 458.448 19.7259  11
   0  -4   8 179.278 9.01377   5
   0  -4  -8 170.086 10.1879   4
   0  -4   8 195.401 12.6799   9
   0  -4  -8 173.087 9.94820  13
   0   4   8 179.093 13.3518  15
   0   4   8 185.711 11.3961  11
   0   4  -8 188.712 11.1942   4
   0   4   8 177.134 13.2985   2
   0   4  -8 185.409 11.5802   7
   2  -4   8 7.79533 2.99891   5
  -2  -4  -8 6.55520 3.52642   4
  -2  -4  -8 5.03534 3.29874  13
   2  -4   8 6.58267 3.61245   9
  -2   4  -8 5.81957 4.29675   4
  -2   4  -8 2.45145 2.62390   7
   2   4   8 14.4581 3.85660  11
   2   4   8 7.49234 3.97566   2
   2   4   8 5.00931 2.80266   5
   4  -4   8 24.6732 4.83980   5
  -4  -4  -8 35.1057 5.95370   4
  -4  -4  -8 27.8702 4.96983  13
  -4   4  -8 29.7754 6.06694   7
   4   4   8 35.4967 5.69699  11
  -4   4  -8 39.6170 6.19058   4
   4   4   8 22.9300 4.61122   5
  11  -5  -8 290.815 15.5720  12
 -11  -5   8 325.668 22.4173   3
 -11  -5   8 324.649 23.8874  14
  11  -5  -8 278.382 17.7487   1
 -11   5   8 301.551 22.2518   3
 -11   5   8 322.216 20.3555  10
  11   5  -8 303.194 18.3108   1
  -9  -5   8 300.074 16.6243   9
   9  -5  -8 302.788 16.8182   1
   9  -5  -8 289.571 15.1145  13
   9  -5  -8 294.181 14.6496  12
  -9  -5   8 329.298 21.1429  14
  -9  -5   8 309.605 21.2384   3
   9  -5  -8 297.704 15.5606  16
  -9   5   8 347.092 21.8559   3
  -9   5   8 322.036 20.7009  10
   9   5  -8 295.915 15.1443  16
   9   5  -8 329.089 17.1324   1
  -7  -5   8 338.960 14.9800   6
   7  -5  -8 324.785 14.4417  12
   7  -5  -8 324.926 16.0491   1
  -7  -5   8 347.944 17.8141   9
   7  -5  -8 295.278 15.1300  13
  -7  -5   8 340.789 19.8003  14
   7  -5  -8 321.618 15.4118  16
  -7  -5   8 310.039 20.3886   3
  -7   5   8 323.062 17.7057   2
   7   5  -8 314.829 15.6268   1
   7   5  -8 363.130 16.3591  13
  -7   5   8 359.542 21.0333  10
  -5  -5   8 780.828 34.3507  14
   5  -5  -8 768.413 30.6205  16
   5  -5  -8 799.806 29.6673  12
   5  -5  -8 797.806 30.9930  13
  -5  -5   8 787.194 30.2112   6
  -5  -5   8 770.765 33.4923   9
  -5  -5   8 816.872 36.6908   3
   5  -5  -8 751.462 31.0684   1
  -5   5   8 886.983 34.8758   3
   5   5  -8 801.357 32.7149   4
  -5   5   8 794.156 35.2444   2
   5   5  -8 776.257 30.5710  13
  -5   5   8 851.689 36.3850  10
   3  -5  -8 1210.36 43.7437  13
  -3  -5   8 1153.97 42.6855   6
  -3  -5   8 1177.74 47.5971   3
   3  -5  -8 1155.88 43.3500   4
   3  -5  -8 1128.65 42.8970  16
  -3  -5   8 1198.88 46.8295   9
   3  -5  -8 1158.33 43.5866   1
  -3   5   8 1203.61 49.1980   2
  -3   5   8 1096.73 43.6752  11
   3   5  -8 1247.51 45.4698   4
  -3   5   8 1211.17 46.7504  10
   1  -5  -8 596.207 24.4035   1
   1  -5  -8 605.381 24.8187  13
  -1  -5   8 668.399 28.3939   9
  -1  -5   8 588.654 23.6455   6
   1  -5  -8 595.938 24.4302   4
  -1   5   8 638.076 29.7576   2
  -1   5   8 585.322 28.4765  15
   1   5  -8 616.178 25.8975   4
   1   5  -8 582.330 26.1607   7
  -1   5   8 598.356 25.9957  11
  -1  -5  -8 347.042 16.2468  13
   1  -5   8 363.848 18.8029   9
   1  -5   8 283.302 15.4453   6
  -1  -5  -8 337.515 16.0913   4
   1  -5   8 350.511 15.5000   5
   1   5   8 365.824 19.8962   2
   1   5   8 284.078 15.1716   5
  -1   5  -8 344.099 17.2419   4
   1   5   8 324.053 17.2991  11
  -1   5  -8 349.388 17.6402   7
   3  -5   8 345.067 16.3535   5
  -3  -5  -8 332.436 16.6582  13
  -3  -5  -8 279.159 15.8349   8
  -3   5  -8 315.175 17.2230   4
  -3   5  -8 326.571 17.3767   7
   3   5   8 288.753 15.5150   5
   3   5   8 310.552 17.3844  11
 -10  -6   8 1061.94 44.4249   9
  10  -6  -8 1044.64 41.9150  12
 -10  -6   8 1133.11 52.1026  14
  10  -6  -8 1057.41 44.1540   1
 -10  -6   8 1188.71 52.1960   3
 -10   6   8 1060.36 48.3599  10
  10   6  -8 1033.57 44.2132   1
 -10   6   8 1139.56 50.7966   3
  -8  -6   8 1881.94 65.5448   6
  -8  -6   8 1793.89 74.3955   3
   8  -6  -8 1802.76 67.1818   1
  -8  -6   8 1816.44 73.2666  14
   8  -6  -8 1779.75 65.9809  16
  -8  -6   8 1770.79 68.6143   9
   8  -6  -8 1764.48 65.5742  13
   8  -6  -8 1758.95 64.8479  12
  -8  -6   8 1788.38 68.3317   8
  -8   6   8 1847.74 72.9533  10
  -6  -6   8 2197.49 84.8087   3
  -6  -6   8 2068.28 79.4902   9
   6  -6  -8 2178.29 76.5599  13
   6  -6  -8 2167.50 77.5316   1
  -6  -6   8 2202.34 76.3705   6
  -6  -6   8 2175.06 82.1344  14
   6  -6  -8 2181.37 76.6860  16
   6   6  -8 2132.19 76.4379  13
  -6   6   8 2180.19 83.2235  10
  -6   6   8 1936.05 80.5373   2
   4  -6  -8 1658.25 60.0142  13
   4  -6  -8 1614.49 59.6865  16
  -4  -6   8 1717.91 63.9119   9
  -4  -6   8 1626.24 59.4322   6
   4  -6  -8 1658.61 60.4850   1
  -4  -6   8 1697.06 66.3676   3
   4   6  -8 1633.64 61.3005   4
  -4   6   8 1672.80 64.6190  10
  -4   6   8 1640.33 65.9409   2
  -2  -6   8 1354.04 51.5998   9
   2  -6  -8 1303.47 47.9098   1
  -2  -6   8 1269.73 46.9833   6
   2  -6  -8 1288.16 47.2136  16
   2  -6  -8 1315.54 47.9374  13
  -2   6   8 1177.28 51.1337  15
  -2   6   8 1253.22 48.7466  11
   2   6  -8 1261.97 48.9616   4
   2   6  -8 1331.52 50.1538   7
  -2   6   8 1312.59 53.9744   2
   0  -6   8 1647.68 60.5667   6
   0  -6  -8 1695.09 61.5647  13
   0  -6   8 1703.67 64.6505   9
   0   6  -8 1671.51 62.8628   4
   0   6  -8 1667.58 63.4508   7
   0   6   8 1746.28 66.8292   2
   0   6   8 1596.66 62.7652  11
  -2  -6  -8 1427.48 52.7142  13
  -2  -6  -8 1386.13 53.3561   8
   2  -6   8 1403.26 51.7595   5
   2   6   8 1214.77 50.9888   5
  -2   6  -8 1409.03 58.4021  10
   2   6   8 1388.82 53.7176  11
   2   6   8 1387.34 55.6366   2
  -2   6  -8 1429.68 54.5750   7
   4  -6   8 842.555 33.6349   5
   4   6   8 710.616 32.0072   5
   4   6   8 780.632 33.9261  11
  -4   6  -8 820.454 35.0731   4
  -4   6  -8 795.819 34.3608   7
   9  -7  -8 230.173 14.6392   1
  -9  -7   8 222.215 14.8950   8
  -9  -7   8 226.974 15.2492   9
  -9  -7   8 231.911 19.1601   3
   9  -7  -8 234.315 12.8293  12
  -9  -7   8 236.577 19.2568  14
  -9   7   8 237.599 18.5311  10
  -7  -7   8 364.903 18.7568   8
  -7  -7   8 329.007 21.1774  14
   7  -7  -8 355.088 17.5346   1
   7  -7  -8 361.241 16.2054  12
   7  -7  -8 350.935 16.3340  13
  -7  -7   8 355.117 16.3225   6
   7  -7  -8 349.473 16.9264  16
  -7  -7   8 341.050 22.9750   3
  -7  -7   8 368.718 19.9799   9
  -7   7   8 394.173 23.4285  10
  -7   7   8 326.699 19.7421   2
   5  -7  -8 93.4980 7.19974  16
  -5  -7   8 90.7897 6.59013   6
  -5  -7   8 104.436 11.5200   3
   5  -7  -8 84.6734 7.75098   1
  -5  -7   8 95.4953 9.48110   9
   5  -7  -8 95.2581 7.02464  13
  -5   7   8 100.889 10.5647   2
   5   7  -8 86.0187 7.82622   4
  -5   7   8 97.0184 10.1190  10
  -3  -7   8 90.1678 6.63619   6
   3  -7  -8 91.7838 6.89455  16
  -3  -7   8 87.3325 8.42246   9
   3  -7  -8 89.4159 7.03977  13
   3  -7  -8 85.7770 7.50865   1
   3   7  -8 94.4032 9.35318   7
  -3   7   8 88.7622 8.41227  10
  -3   7   8 74.2776 7.46580  11
   3   7  -8 78.1232 6.98893   4
  -3   7   8 111.477 12.2474   2
  -1  -7   8 190.129 10.2711   6
   1  -7  -8 184.269 11.2483  13
   1  -7  -8 181.345 11.2703   1
  -1  -7   8 217.777 14.1273   9
   1   7  -8 215.006 13.4774   7
   1   7  -8 194.667 11.7160   4
  -1   7   8 200.089 15.7604   2
  -1   7   8 179.492 12.3397  11
   1  -7   8 165.938 10.1765   6
  -1  -7  -8 172.035 11.2517  13
   1   7   8 164.226 11.4565  11
   1   7   8 168.826 13.8931   2
  -1   7  -8 170.677 15.6065  10
  -1   7  -8 166.398 11.7517   4
  -1   7  -8 192.957 13.2120   7
  -3  -7  -8 219.538 13.5622  13
  -3  -7  -8 222.368 13.5831   8
   3   7   8 207.178 12.6417   5
   3   7   8 207.156 13.9942  11
  -3   7  -8 219.360 14.3140   4
  -3   7  -8 230.912 17.2042  10
  -3   7  -8 205.953 14.7800   7
 -10  -8   8 448.900 23.8718   9
 -10  -8   8 497.517 25.4599   8
  10  -8  -8 463.494 23.3564   1
  10  -8  -8 436.413 21.0658  12
 -10  -8   8 461.506 29.2957  14
 -10  -8   8 453.622 28.1041   3
 -10   8   8 469.700 27.5478  10
  -8  -8   8 269.632 19.8654  14
  -8  -8   8 287.587 14.8460   6
  -8  -8   8 272.425 21.0173   3
   8  -8  -8 285.851 14.5099  12
   8  -8  -8 269.464 15.3338   1
  -8  -8   8 280.844 17.8491   9
  -8  -8   8 308.595 18.0894   8
  -8   8   8 279.100 19.7685  10
   6  -8  -8 469.777 22.0810   1
   6  -8  -8 440.104 20.7888  16
  -6  -8   8 474.407 27.5436   3
  -6  -8   8 483.423 21.1265   6
  -6  -8   8 453.938 22.4610   8
  -6  -8   8 490.327 24.8068   9
  -6   8   8 472.192 26.5560   2
  -6   8   8 524.539 27.2341  10
  -4  -8   8 999.420 39.4003   6
  -4  -8   8 1074.06 44.0691   9
   4  -8  -8 1006.76 39.4903  16
   4  -8  -8 1028.46 40.5669   1
   4  -8  -8 1020.36 39.3325  13
  -4   8   8 1037.38 46.7542   2
   4   8  -8 1019.40 41.7692   7
  -4   8   8 1070.43 44.4976  10
  -2  -8   8 800.855 34.6523   9
   2  -8  -8 762.672 30.8892  13
  -2  -8   8 778.164 30.5687   6
   2  -8  -8 742.992 30.9903   1
  -2   8   8 758.550 37.4821   2
   2   8  -8 782.009 33.4721   7
  -2   8   8 717.355 31.7471  11
   0  -8  -8 649.837 27.7922  13
   0  -8   8 662.877 27.4917   6
   0   8   8 632.468 28.8215  11
   0   8  -8 682.638 30.1090   7
   0   8  -8 659.909 34.7169  10
   0   8   8 660.196 32.1492   2
  -2  -8  -8 457.488 20.9738  13
   2  -8   8 422.033 20.0870   6
  -2  -8  -8 423.770 21.7568   8
   2   8   8 409.289 20.8635  11
  -2   8  -8 408.599 22.4970   7
   2   8   8 410.716 22.4404   2
  -2   8  -8 428.577 25.7746  10
  -9  -9   8 332.618 23.7104   3
  -9  -9   8 312.159 23.1379  14
  -9  -9   8 338.293 19.8225   9
   9  -9  -8 286.591 16.0008  12
  -9  -9   8 335.354 20.0318   8
  -9  -9   8 297.740 16.1559   6
   9  -9  -8 312.857 17.9095   1
  -9   9   8 318.983 22.8427  10
  -7  -9   8 638.939 31.1400   9
   7  -9  -8 658.702 28.3169   1
  -7  -9   8 658.164 30.5481   8
  -7  -9   8 590.843 33.1889  14
  -7  -9   8 613.404 34.3195   3
  -7  -9   8 674.011 27.5534   6
  -7   9   8 636.248 32.2510   2
  -7   9   8 685.865 34.8772  10
   5  -9  -8 694.316 29.5872  16
  -5  -9   8 713.977 29.7837   6
   5  -9  -8 714.227 30.9413   1
  -5  -9   8 748.870 34.3136   9
   5   9  -8 720.911 31.6437   7
  -5   9   8 744.420 37.1754   2
  -5   9   8 789.773 36.2205  10
  -3  -9   8 1151.42 47.1549   9
   3  -9  -8 1135.65 43.7802   1
   3  -9  -8 1130.45 42.5754  13
  -3  -9   8 1102.42 42.7072   6
  -3   9   8 1052.14 45.4322  10
   3   9  -8 1157.58 45.4884   7
  -3   9   8 1018.83 43.6036  11
  -3   9   8 1127.83 50.4282   2
   1  -9  -8 1119.51 42.5549  13
  -1  -9   8 1124.17 46.0851   9
  -1  -9   8 1036.74 42.0715   6
  -1   9   8 993.613 43.6213  11
   1   9  -8 1126.36 51.6919  10
   1   9  -8 1113.08 45.3573   7
  -1   9   8 1115.75 49.1374   2
   1  -9   8 336.491 17.1157   6
  -1  -9  -8 319.734 18.6226   8
  -1  -9  -8 322.344 16.9090  13
  -1   9  -8 339.090 23.7181  10
   1   9   8 313.221 17.8980  11
  -1   9  -8 310.142 18.9701   7
   1   9   8 322.908 20.1862   2
   6 -10  -8 27.1504 5.76236   1
  -6 -10   8 20.4125 5.41158   8
  -6 -10   8 35.2244 7.47599   9
  -6 -10   8 35.0490 5.62078   6
  -6  10   8 23.5368 6.33630   2
  -6  10   8 20.3985 7.22597  10
   6  10  -8 42.3330 8.24165  10
  -4 -10   8 41.6712 5.85158   6
   4 -10  -8 55.1623 7.30234   1
  -4 -10   8 53.9433 8.65404   9
  -4  10   8 91.4218 13.4594   2
   4  10  -8 52.7377 9.55606  10
  -4  10   8 50.4494 8.52444  10
   4  10  -8 50.9143 6.62261   7
   2 -10  -8 11.9735 4.66493   1
  -2 -10   8 12.7768 5.28823   9
  -2 -10   8 9.36414 3.84186   6
  -2  10   8 9.74407 3.79405  11
   2  10  -8 10.1276 5.59224  10
   2  10  -8 5.44105 4.45589   7
  -2  10   8 19.9012 7.83642   2
   0 -10   8 4.42608 3.47748   6
   0 -10  -8 6.31685 3.65372  13
   0 -10  -8 2.72834 4.47596   8
   0  10  -8 11.5594 5.10882   7
   0  10  -8 13.1500 6.73372  10
   0  10   8 5.07342 4.10543   2
   0  10   8 5.69953 3.52569  11
  -5 -11   8 223.346 16.7813   9
   5 -11  -8 235.955 14.5359   1
  -5 -11   8 209.031 13.4096   6
  -5  11   8 202.979 18.2957   2
   5  11  -8 268.171 19.2402  10
  -3 -11   8 146.479 13.8279   9
   3 -11  -8 159.200 11.8190   1
  -3 -11   8 144.106 10.1502   6
   3  11  -8 173.458 17.0652  10
  -3  11   8 166.125 15.5600   2
  12   0  -9 -1.5624 3.51803  13
  12   0  -9 1.90566 5.03647   1
 -12   0   9 1.43203 4.73500  14
 -12   0   9 8.00253 6.58684   3
  10   0  -9 0.00196 3.29780  13
 -10   0   9 -6.0573 4.03837   3
  10   0  -9 -0.5224 1.92884  16
  10   0  -9 -0.7752 3.86560   1
 -10   0   9 0.39166 2.48839  14
   8   0  -9 1.39539 2.13495  13
  -8   0   9 1.80757 2.21433   9
  -8   0   9 -0.1784 2.47974  14
   8   0  -9 6.26694 2.85083  16
   8   0  -9 4.00840 3.29845   1
  -8   0   9 5.63036 3.81002   3
  -6   0   9 1.50837 2.43294   9
   6   0  -9 -0.3461 1.83545  16
   6   0  -9 2.37675 2.69355  13
   6   0  -9 -0.0830 2.03762   1
  -6   0   9 0.30783 1.45140  14
  -6   0   9 -0.5691 3.01564   3
  -4   0   9 -0.2016 2.40962   9
  -4   0   9 1.33099 1.31578  11
   4   0  -9 -0.6245 2.15857  13
  -4   0   9 1.15814 1.91479   3
   4   0  -9 -0.6998 1.18232  16
   4   0  -9 -1.3685 2.25570   4
   4   0  -9 -1.6227 1.28200   1
  -2   0   9 1.18266 1.58093  11
   2   0  -9 -0.9955 1.81671   4
   2   0  -9 0.04515 1.56405  13
   0   0  -9 0.51768 2.42135  13
   0   0  -9 -0.9788 2.31259   7
   0   0  -9 -2.2356 2.69093   4
   0   0   9 -1.0969 1.60481  11
  -2   0  -9 -0.2824 2.72776  13
   2   0   9 1.26387 2.41334   5
   2   0   9 0.90844 2.54896  11
  -2   0  -9 0.27176 2.62801   4
   4   0   9 5.23302 3.95877  11
  -4   0  -9 4.13590 4.57876   4
   4   0   9 3.06155 3.12219   5
 -11  -1   9 173.814 15.2663  14
  11  -1  -9 132.616 10.3514  13
  11  -1  -9 144.935 12.2813   1
 -11  -1   9 177.325 16.4506   3
 -11   1   9 159.086 17.0572   3
  11   1  -9 127.404 11.3452  13
  11   1  -9 134.827 12.0907   1
  11   1  -9 148.226 10.3984  16
  -9  -1   9 73.8586 9.38626  14
   9  -1  -9 67.0514 7.42727  13
   9  -1  -9 71.8884 8.04949   1
   9  -1  -9 67.6715 7.00523  16
  -9  -1   9 64.9319 10.4118   3
  -9   1   9 83.5702 11.8126   3
   9   1  -9 67.9463 7.60878  13
   9   1  -9 65.7977 6.58721  16
   9   1  -9 55.0075 7.30905   1
   7  -1  -9 6.45483 2.64872  16
   7  -1  -9 3.93885 2.86218  13
  -7  -1   9 8.34883 3.27754   9
   7  -1  -9 4.75178 3.01645   1
  -7  -1   9 2.88033 2.75040  14
  -7  -1   9 10.7439 4.92497   3
   7   1  -9 5.87581 2.45596  16
  -7   1   9 5.61632 3.08543   2
   7   1  -9 8.40101 2.79190  13
  -7   1   9 4.26835 1.92224   9
  -7   1   9 2.53350 3.97455   3
   7   1  -9 4.53446 2.74626   1
  -5  -1   9 25.8571 5.41281   3
   5  -1  -9 20.1654 3.01830  16
   5  -1  -9 15.7671 3.46201   4
   5  -1  -9 20.3269 3.47545  13
   5  -1  -9 18.7968 3.25159   1
  -5  -1   9 21.5935 4.63697   9
   5   1  -9 27.1655 3.04134  16
  -5   1   9 17.6806 4.22063   2
  -5   1   9 21.5522 4.53254   3
   5   1  -9 17.8728 3.24434  13
  -5   1   9 16.1884 3.91390   9
   5   1  -9 19.2805 4.19757   4
   5   1  -9 22.5107 3.08750   1
  -3  -1   9 390.467 19.3161   9
   3  -1  -9 389.174 16.8035  13
  -3  -1   9 372.180 16.0450  11
   3  -1  -9 392.194 17.8210   4
   3  -1  -9 359.730 15.2715   1
   3  -1  -9 360.737 14.9252  16
  -3   1   9 392.341 20.3721   2
  -3   1   9 371.424 16.1170  11
   3   1  -9 370.962 17.9207   4
   3   1  -9 373.691 16.2481  13
   1  -1  -9 341.155 16.1203  13
  -1  -1   9 380.653 17.0494  11
   1  -1  -9 363.216 17.3236   4
   1   1  -9 356.036 17.4373   4
  -1   1   9 381.452 19.6136  15
  -1   1   9 380.087 17.3095  11
   1   1  -9 353.409 16.8270   7
  -1   1   9 366.723 20.2844   2
   1   1  -9 341.313 15.6198  13
   1  -1   9 52.1066 6.14267  11
  -1  -1  -9 47.7934 5.35494  13
  -1  -1  -9 48.9872 6.18070   4
  -1   1  -9 58.3231 5.54279  13
   1   1   9 64.9639 7.27967  11
  -1   1  -9 60.3534 6.55881   7
  -1   1  -9 54.3893 7.07099   4
   3  -1   9 16.5878 3.82598   5
  -3  -1  -9 20.1698 4.70943   4
  -3  -1  -9 15.7256 3.62531  13
   3  -1   9 14.8231 4.65137  11
   3   1   9 17.8774 3.90374   5
   3   1   9 20.0498 5.14278  11
  -3   1  -9 22.4269 4.88453   4
  -3   1  -9 14.8994 3.23564  13
  12  -2  -9 122.609 11.0887  13
 -12  -2   9 162.119 16.0903  14
  12  -2  -9 134.224 13.0474   1
 -12  -2   9 144.185 16.2779   3
 -12   2   9 123.543 15.5450   3
  12   2  -9 134.235 12.5088   1
  10  -2  -9 225.069 13.9750  13
 -10  -2   9 257.333 18.1404  14
  10  -2  -9 212.035 12.9511  16
  10  -2  -9 219.489 14.5478   1
 -10  -2   9 258.083 19.5955   3
  10   2  -9 211.455 14.3339   1
  10   2  -9 237.106 14.4966  13
  10   2  -9 233.644 13.3387  16
 -10   2   9 246.925 19.3956   3
   8  -2  -9 673.068 27.8513  16
  -8  -2   9 708.024 31.6407  14
  -8  -2   9 769.628 36.4366   3
   8  -2  -9 688.760 28.6882  13
  -8  -2   9 654.496 29.0933   9
   8  -2  -9 665.337 28.9714   1
   8   2  -9 718.478 29.1530  13
  -8   2   9 679.110 29.4365   2
   8   2  -9 672.840 28.7255   1
   8   2  -9 685.381 27.6383  16
  -8   2   9 763.865 35.2089   3
  -6  -2   9 515.997 23.7404  14
  -6  -2   9 519.401 23.9376   9
  -6  -2   9 540.731 27.1560   3
   6  -2  -9 505.479 21.2048  16
   6  -2  -9 495.993 21.8798   1
   6  -2  -9 515.545 22.2860  13
   6   2  -9 509.037 20.5283  16
  -6   2   9 596.426 27.0268   3
  -6   2   9 518.050 23.0718   9
   6   2  -9 539.484 22.3244  13
  -6   2   9 534.793 24.8354   2
   4  -2  -9 452.977 19.0826  13
   4  -2  -9 450.640 19.5934   4
   4  -2  -9 412.600 18.0795   1
   4  -2  -9 429.853 17.7442  16
  -4  -2   9 426.840 20.8821   3
  -4  -2   9 471.468 21.9123   9
   4   2  -9 446.290 18.7899  13
  -4   2   9 477.296 23.2537   2
  -4   2   9 432.612 17.8759  11
   4   2  -9 439.986 20.2976   4
   2  -2  -9 628.396 25.7512  13
  -2  -2   9 646.928 25.9496  11
   2  -2  -9 618.269 24.4991   1
  -2  -2   9 704.786 29.8038   9
   2  -2  -9 631.376 26.6060   4
   2   2  -9 602.573 24.9186  13
   2   2  -9 635.289 27.0695   4
  -2   2   9 648.057 26.2070  11
  -2   2   9 684.366 30.8086   2
  -2   2   9 622.283 27.8333  15
   0  -2  -9 289.460 15.2531   4
   0  -2   9 330.268 17.9480   9
   0  -2   9 313.925 15.3461  11
   0  -2  -9 307.149 14.7435  13
   0   2  -9 318.187 15.8352   7
   0   2   9 312.639 18.4366  15
   0   2  -9 292.252 15.8171   4
   0   2  -9 263.154 13.4806  13
   0   2   9 317.785 16.1348  11
   0   2   9 310.517 18.4179   2
   2  -2   9 284.577 15.8166  11
   2  -2   9 290.646 14.2291   5
   2  -2   9 288.505 17.6407   9
  -2  -2  -9 252.256 13.9485  13
  -2  -2  -9 272.461 15.7701   4
  -2   2  -9 284.821 16.4597   4
  -2   2  -9 305.094 15.4822   7
   2   2   9 261.576 15.8773  11
   4  -2   9 255.417 14.5008   5
   4  -2   9 273.506 15.7114  11
  -4  -2  -9 248.932 14.3804  13
  -4  -2  -9 256.504 16.0309   4
   4   2   9 251.493 15.3319  11
   4   2   9 234.851 13.5961   5
  -4   2  -9 248.331 16.3224   4
  11  -3  -9 62.0293 7.86357  13
 -11  -3   9 58.6087 9.99566  14
  11  -3  -9 64.3770 8.99865   1
 -11  -3   9 58.3308 11.3951   3
  11   3  -9 55.2070 7.50500   1
 -11   3   9 70.7846 11.1235   3
  -9  -3   9 39.4565 5.74642   9
   9  -3  -9 39.9686 5.74586  13
  -9  -3   9 41.7181 8.08617  14
  -9  -3   9 42.6053 8.76246   3
   9  -3  -9 39.8228 5.50599  16
   9  -3  -9 41.8079 6.72944   1
   9   3  -9 36.7544 6.18195   1
   9   3  -9 37.7659 5.65334  13
   9   3  -9 44.4423 5.56738  16
  -9   3   9 44.2628 8.46500   3
  -7  -3   9 193.340 13.1408  14
  -7  -3   9 183.479 11.8264   9
   7  -3  -9 186.049 10.2147  16
   7  -3  -9 189.118 10.8583  13
   7  -3  -9 181.359 11.2095   1
  -7  -3   9 201.961 15.7632   3
  -7   3   9 207.423 12.8716   2
   7   3  -9 196.075 10.0816  16
   7   3  -9 193.807 10.8831   1
   7   3  -9 218.486 11.9343  13
  -7   3   9 215.964 15.3453   3
  -5  -3   9 1.14758 2.84325   9
   5  -3  -9 1.26895 2.33725   1
   5  -3  -9 -1.0959 1.91816  16
   5  -3  -9 -1.1877 2.11581   4
  -5  -3   9 11.8417 3.97113   3
   5  -3  -9 -3.8129 2.20233  13
   5   3  -9 2.54964 2.30562  13
   5   3  -9 0.97875 2.90099   4
  -5   3   9 -0.5153 2.12969   2
  -3  -3   9 2.10639 2.28361   9
   3  -3  -9 -0.7682 2.31478   4
  -3  -3   9 -0.2957 2.01641   3
   3  -3  -9 -1.0894 1.82598   1
   3  -3  -9 0.75805 1.26439  16
   3  -3  -9 3.71246 2.13688  13
   3   3  -9 2.77107 2.03187  13
  -3   3   9 -1.2497 2.34573   2
   3   3  -9 -0.3989 1.80981   4
  -3   3   9 1.52226 1.91352  11
   1  -3  -9 9.52329 2.57865   1
   1  -3  -9 9.43136 3.23734  13
   1  -3  -9 15.5688 3.87023   4
  -1  -3   9 10.7121 4.28012   9
  -1  -3   9 5.85184 2.85825  11
  -1   3   9 6.74337 2.63368  11
   1   3  -9 31.5246 5.06846   7
  -1   3   9 9.35670 3.96041   2
   1   3  -9 8.54337 3.08161   4
   1   3  -9 9.29106 2.20518  13
  -1   3   9 16.8314 4.45417  15
  -1  -3  -9 6.67638 3.82069   4
   1  -3   9 11.6588 2.99652   5
  -1  -3  -9 16.0361 3.45099  13
   1  -3   9 11.9499 4.67604   9
   1  -3   9 8.51576 3.81128  11
   1   3   9 7.24036 4.39089   2
   1   3   9 12.3455 3.67787  11
  -1   3  -9 6.19512 3.82384   7
  -1   3  -9 4.47892 3.23735   4
  -3  -3  -9 65.8302 7.07215  13
   3  -3   9 66.4617 6.94521   5
   3  -3   9 72.3722 8.69890  11
  -3  -3  -9 73.7255 8.30338   4
  -3   3  -9 65.7637 7.83348   7
   3   3   9 64.6257 8.26407  11
  -3   3  -9 72.4895 8.27011   4
  12  -4  -9 42.8948 6.82746  13
 -12  -4   9 54.1260 11.2908   3
 -12  -4   9 48.3941 10.3215  14
  12  -4  -9 40.9501 7.71232   1
  12   4  -9 36.3243 7.42867   1
 -12   4   9 38.4936 9.26522   3
 -10  -4   9 184.525 15.6989  14
  10  -4  -9 164.239 10.6758  16
 -10  -4   9 183.087 17.3751   3
  10  -4  -9 166.984 11.3406  13
  10  -4  -9 155.532 12.1471   1
 -10   4   9 192.251 17.2016   3
  10   4  -9 155.452 10.1817  16
 -10   4   9 161.275 14.5474  10
   8  -4  -9 77.6898 6.70397  13
  -8  -4   9 84.6938 8.15518   9
   8  -4  -9 71.7503 6.75567  16
  -8  -4   9 82.8578 12.1015   3
   8  -4  -9 70.3483 7.86124   1
  -8  -4   9 90.8215 10.2086  14
  -8   4   9 84.1296 11.2750  10
   8   4  -9 79.1573 8.01062  13
   8   4  -9 84.5838 8.16842   1
  -8   4   9 81.3020 7.95305   2
  -8   4   9 94.9218 11.3147   3
   8   4  -9 73.4989 6.81635  16
  -6  -4   9 349.902 19.1994  14
   6  -4  -9 364.916 16.8604  13
  -6  -4   9 367.079 18.9593   9
   6  -4  -9 335.814 16.6876   1
  -6  -4   9 323.628 14.8168   6
   6  -4  -9 357.716 16.7436   4
   6  -4  -9 349.910 15.9836  16
  -6  -4   9 346.718 20.7993   3
  -6   4   9 356.273 19.6912   2
  -6   4   9 383.721 21.4000  10
  -6   4   9 392.232 20.4226   3
   6   4  -9 356.006 16.5529  13
  -4  -4   9 237.958 14.3507   9
  -4  -4   9 223.717 14.4605   3
   4  -4  -9 222.686 10.9838  16
   4  -4  -9 214.945 11.2134   1
   4  -4  -9 210.516 11.5650   4
   4  -4  -9 228.676 11.9108  13
  -4   4   9 219.128 10.8170  11
   4   4  -9 221.362 10.9032  13
   4   4  -9 218.660 12.5158   4
  -4   4   9 240.831 15.8275   2
   2  -4  -9 4.91663 2.78602   4
   2  -4  -9 5.44300 2.28175  16
   2  -4  -9 2.59875 2.53625   1
  -2  -4   9 15.1919 4.13675   9
   2  -4  -9 3.50831 2.87857  13
  -2   4   9 9.43062 3.17130  15
   2   4  -9 9.37997 3.84399   7
   2   4  -9 -0.3156 1.99999   4
  -2   4   9 6.44365 4.54031   2
  -2   4   9 14.4171 3.50315  11
   0  -4  -9 211.230 12.0833  13
   0  -4  -9 205.832 12.0270   4
   0  -4   9 221.780 14.5419   9
   0   4   9 222.006 15.7671   2
   0   4  -9 207.186 13.2573   4
   0   4  -9 200.617 12.9420   7
   0   4   9 201.617 12.8412  11
   2  -4   9 183.590 10.7076   5
  -2  -4  -9 177.775 11.8874   4
  -2  -4  -9 162.872 11.2854  13
   2   4   9 173.948 13.0675   2
  -2   4  -9 191.587 12.9388   7
   2   4   9 183.900 12.8810  11
  -2   4  -9 171.091 12.1391   4
   4  -4   9 25.5872 4.97867   5
  -4  -4  -9 18.6443 5.11896   4
   4   4   9 26.0637 5.71612  11
  -4   4  -9 30.9763 6.57348   4
  -4   4  -9 21.7803 5.93304   7
  11  -5  -9 66.1588 9.19340  13
 -11  -5   9 87.4329 12.9893  14
 -11  -5   9 92.2369 13.4093   3
  11  -5  -9 88.4430 10.1354   1
 -11   5   9 105.846 12.2290  10
  11   5  -9 83.9317 9.25892   1
 -11   5   9 104.008 14.6329   3
  -9  -5   9 114.369 9.93987   9
  -9  -5   9 104.215 12.5047  14
  -9  -5   9 87.0700 12.8514   3
   9  -5  -9 94.5946 8.24716  16
   9  -5  -9 102.189 9.79016   1
   9  -5  -9 93.4813 7.69360  13
   9   5  -9 97.8330 9.42313   1
   9   5  -9 99.2647 9.07264  13
  -9   5   9 124.748 13.1429  10
  -9   5   9 118.346 13.1929   3
   7  -5  -9 236.918 13.8127   1
  -7  -5   9 230.938 14.8764   9
  -7  -5   9 227.112 17.8027   3
  -7  -5   9 246.895 12.2331   6
   7  -5  -9 258.097 13.3866  13
   7  -5  -9 236.299 12.7675  16
  -7  -5   9 242.545 16.5593  14
  -7   5   9 284.491 17.9909   3
   7   5  -9 268.255 13.6085  13
  -7   5   9 248.419 15.6928   2
  -7   5   9 269.378 18.3818  10
   5  -5  -9 563.977 23.9549  13
  -5  -5   9 579.332 28.8696   3
  -5  -5   9 581.159 22.8814   6
  -5  -5   9 579.000 27.1345   9
   5  -5  -9 576.023 23.5062  16
   5  -5  -9 572.273 24.2596   1
  -5   5   9 586.862 29.0198   2
   5   5  -9 575.182 25.6467   4
  -5   5   9 601.507 28.7038  10
   5   5  -9 537.694 23.0461  13
   3  -5  -9 23.8974 4.28691  13
   3  -5  -9 29.1016 4.51031   1
   3  -5  -9 28.4199 4.00448  16
  -3  -5   9 26.7374 5.63900   9
   3   5  -9 33.7079 5.66761   7
  -3   5   9 41.0704 7.39366   2
  -3   5   9 33.1613 4.61713  11
   3   5  -9 22.4550 4.32104   4
   1  -5  -9 10.9865 3.45178   1
   1  -5  -9 11.4207 3.73505  13
  -1  -5   9 13.3857 4.69164   9
   1   5  -9 14.4463 4.51595   4
   1   5  -9 7.95519 3.95260   7
  -1   5   9 6.83885 3.70867  11
  -1   5   9 8.20960 4.25502   2
  -1  -5  -9 249.399 13.6489  13
   1  -5   9 252.621 16.1210   9
   1  -5   9 248.430 12.6850   5
  -1   5  -9 241.849 14.6896   4
  -1   5  -9 264.960 15.6557   7
   1   5   9 241.094 14.9043  11
   1   5   9 239.820 16.6852   2
  -3  -5  -9 71.2881 8.19619  13
   3  -5   9 76.6350 7.58767   5
  -3   5  -9 65.8599 8.01656   4
  -3   5  -9 77.1328 8.87777   7
   3   5   9 78.4184 9.31765  11
 -10  -6   9 118.750 10.8071   9
 -10  -6   9 119.012 14.5283   3
  10  -6  -9 127.508 11.4776   1
 -10  -6   9 125.240 13.9123  14
 -10   6   9 145.094 15.0931   3
 -10   6   9 132.311 13.8799  10
  -8  -6   9 1.87146 3.58906   9
  -8  -6   9 3.57353 3.97568   3
   8  -6  -9 10.3319 4.47305   1
   8  -6  -9 4.38515 2.43180  16
  -8  -6   9 3.06715 3.41955  14
  -8  -6   9 11.0174 3.36583   6
   8  -6  -9 1.41884 2.86687  13
  -8   6   9 3.76951 4.14996  10
  -8   6   9 0.28287 4.38762   3
   8   6  -9 -1.0046 2.51788  13
  -8   6   9 6.21244 3.20951   2
  -6  -6   9 73.0468 6.33176   6
  -6  -6   9 77.5573 9.68508   3
   6  -6  -9 76.0149 6.91180  13
  -6  -6   9 71.6593 8.78805   9
  -6  -6   9 76.7556 9.23139  14
   6  -6  -9 66.8129 5.87900  16
   6  -6  -9 80.6627 7.62315   1
   6   6  -9 78.1377 7.61685   4
  -6   6   9 87.8428 11.4477  10
  -6   6   9 79.0596 10.1345   2
  -4  -6   9 242.768 11.5912   6
   4  -6  -9 231.585 12.0949  16
  -4  -6   9 224.949 15.9759   3
   4  -6  -9 236.917 12.6924  13
   4  -6  -9 239.181 12.9120   1
  -4  -6   9 248.601 15.6612   9
   4   6  -9 245.787 14.1326   4
  -4   6   9 252.909 15.4086  10
  -4   6   9 240.687 16.8812   2
   2  -6  -9 58.5080 6.54000  13
   2  -6  -9 61.1859 6.57616   1
  -2  -6   9 64.1604 8.55075   9
  -2  -6   9 42.8258 5.37684   6
  -2   6   9 63.8977 10.0894   2
   2   6  -9 53.9978 6.51466   4
  -2   6   9 53.5018 6.41075  11
   2   6  -9 51.6007 7.14836   7
   0  -6  -9 147.269 9.83395  13
   0  -6   9 163.394 12.4295   9
   0   6  -9 153.999 11.6194   4
   0   6   9 155.077 10.8244  11
   0   6   9 147.159 13.4536   2
   0   6  -9 156.400 11.3325   7
  -2  -6  -9 50.6260 6.34147  13
   2  -6   9 50.5140 6.08873   5
  -2  -6  -9 41.2606 6.66975   8
  -2   6  -9 54.1273 8.43749   7
  -2   6  -9 59.6273 7.91695   4
  -2   6  -9 68.7008 9.85251  10
   2   6   9 43.0169 6.90578  11
   2   6   9 59.2594 8.23532   2
   9  -7  -9 42.6057 6.79486   1
  -9  -7   9 47.3927 9.10523  14
  -9  -7   9 53.9767 8.29443   9
  -9  -7   9 47.2960 10.3383   3
  -9   7   9 58.9247 10.9195  10
   9   7  -9 34.2203 5.18123  13
  -7  -7   9 176.213 10.3986   6
  -7  -7   9 169.347 15.2284   3
  -7  -7   9 172.561 12.7158   9
   7  -7  -9 166.233 11.5174   1
  -7  -7   9 175.785 14.8984  14
   7  -7  -9 162.751 10.2297  13
   7  -7  -9 159.576 9.98842  16
   7   7  -9 160.392 11.9509   4
  -7   7   9 164.178 13.5300   2
  -7   7   9 207.136 16.5890  10
  -5  -7   9 6.89459 3.01657   6
   5  -7  -9 7.40103 3.23661  13
   5  -7  -9 5.50348 2.94594  16
   5  -7  -9 4.74567 3.56412   1
  -5  -7   9 1.19312 4.00952   3
  -5  -7   9 9.49059 3.85314   9
  -5   7   9 10.9547 5.19341  10
   5   7  -9 5.55502 2.84453   4
  -5   7   9 8.23648 4.26223   2
   3  -7  -9 19.7067 4.02368  16
  -3  -7   9 20.9778 3.82280   6
  -3  -7   9 17.8952 5.45020   9
   3  -7  -9 21.8707 4.69695   1
   3  -7  -9 16.4663 3.60155  13
   3   7  -9 12.9232 4.72804   7
   3   7  -9 22.7174 4.49702   4
  -3   7   9 18.3094 3.75409  11
  -3   7   9 17.7817 6.95898   2
  -1  -7   9 11.5282 3.16990   6
   1  -7  -9 12.1794 3.99575  13
  -1  -7   9 16.5990 4.61378   9
  -1   7   9 9.77382 5.81730   2
   1   7  -9 19.5235 5.41351   7
   1   7  -9 16.5825 4.85118   4
  -1   7   9 14.9274 3.81846  11
  -1  -7  -9 3.06259 3.63681  13
  -1   7  -9 6.70518 4.89042   7
  -1   7  -9 -2.5075 3.46663   4
  -1   7  -9 6.93563 4.17136  10
   1   7   9 -0.1462 2.44007  11
   1   7   9 2.56829 3.32348   2
  -8  -8   9 219.333 18.2286   3
  -8  -8   9 216.063 18.1640  14
  -8  -8   9 222.831 12.6258   6
   8  -8  -9 226.034 14.2335   1
  -8  -8   9 191.780 15.0688   9
  -8   8   9 210.290 17.8837  10
  -6  -8   9 151.338 12.9433   9
  -6  -8   9 136.695 9.41593   6
  -6  -8   9 142.017 13.7997   3
   6  -8  -9 128.633 9.58409   1
   6  -8  -9 130.985 9.29413  16
  -6   8   9 135.468 13.4985   2
  -6   8   9 153.804 13.3817  10
   4  -8  -9 257.087 14.3796   1
   4  -8  -9 226.162 12.6527  16
  -4  -8   9 285.731 17.6730   9
  -4  -8   9 236.237 12.9308   6
   4  -8  -9 251.117 13.1071  13
   4   8  -9 224.891 15.2357   7
  -4   8   9 257.506 18.4814   2
  -4   8   9 271.717 16.9165  10
   2  -8  -9 696.979 28.2457   1
   2  -8  -9 625.750 27.1673  13
  -2  -8   9 672.049 31.3952   9
  -2  -8   9 607.034 26.3698   6
   2   8  -9 690.564 30.5291   7
  -2   8   9 646.984 33.6497   2
  -2   8   9 610.661 28.3067  11
   0  -8  -9 216.773 13.2167  13
   0   8   9 200.718 13.3079  11
   0   8  -9 213.911 14.4441   7
   0   8   9 233.945 16.5273   2
   0   8  -9 219.163 18.7894  10
  -7  -9   9 5.10390 4.99497   9
  -7  -9   9 7.70258 5.16709   3
   7  -9  -9 13.6287 4.77832   1
  -7  -9   9 8.99166 3.77347   6
   7   9  -9 19.1447 5.30698   7
  -7   9   9 16.2704 5.04284   2
  -7   9   9 14.0096 6.69464  10
   5  -9  -9 1.68839 3.60907   1
  -5  -9   9 -1.2374 3.80500   9
  -5  -9   9 1.75080 3.00066   6
  -5   9   9 3.88336 5.48497   2
   5   9  -9 -1.3607 2.26416   7
  -5   9   9 7.95487 5.12943  10
  -3  -9   9 37.8688 7.07595   9
   3  -9  -9 34.4000 6.16390   1
   3  -9  -9 29.0646 5.03170  13
  -3  -9   9 25.4220 4.55054   6
   3   9  -9 27.8357 6.08908   7
  -3   9   9 36.5470 7.85204   2
   1  -9  -9 98.1394 8.05924  13
  -1  -9   9 92.5722 8.17129   6
  -1  -9   9 102.478 10.7862   9
  -1   9   9 107.106 11.6131   2
   1   9  -9 92.5016 10.1102   7
  -1   9   9 110.557 9.93055  11
   1   9  -9 114.455 14.7930  10
   6 -10  -9 22.1653 5.62061   1
  -6 -10   9 17.2512 6.33101   9
  -6 -10   9 20.5878 4.75207   6
  -6  10   9 26.0308 7.19238  10
  -6  10   9 25.1386 7.20709   2
   4 -10  -9 25.5333 6.02709   1
  -4 -10   9 19.5835 6.29917   9
  -4 -10   9 16.8398 4.31997   6
   4  10  -9 11.7749 4.96434   7
   4  10  -9 28.3209 7.28683  10
  -4  10   9 15.3883 7.01404   2
  -2 -10   9 11.0944 3.82110   6
  -2 -10   9 13.3304 5.59074   9
  -2  10   9 6.07844 5.85732   2
   2  10  -9 8.76164 4.77098  10
   2  10  -9 4.02345 4.84196   7
  -2  10   9 13.3598 4.48976  11
 -12   0  10 8.92632 5.63655   3
  12   0 -10 7.35907 4.49386  13
  12   0 -10 2.88869 5.08569   1
  10   0 -10 18.0113 5.12132  13
  10   0 -10 17.8001 4.36995  16
 -10   0  10 17.0478 7.00619   3
  10   0 -10 30.3969 6.10821   1
 -10   0  10 25.6406 6.05660  14
   8   0 -10 8.24317 2.99954  16
  -8   0  10 7.58640 3.07701   9
  -8   0  10 11.5545 3.83960  14
   8   0 -10 12.8438 4.03901  13
   8   0 -10 7.67874 3.52902   1
  -8   0  10 4.52767 4.78803   3
  -6   0  10 479.027 23.7108   3
   6   0 -10 418.238 18.2819  16
   6   0 -10 441.586 19.9609  13
  -6   0  10 453.954 21.8028   9
   6   0 -10 440.039 21.2528   4
   6   0 -10 454.607 19.2230   1
  -4   0  10 36.7314 5.89571   9
  -4   0  10 43.2464 3.88918  11
   4   0 -10 42.9484 6.14880   4
   4   0 -10 32.0712 4.66934  13
  -2   0  10 25.3654 4.25839  11
   2   0 -10 32.3176 5.65511   4
   2   0 -10 31.4992 4.57601  13
   0   0 -10 36.5241 5.59219   4
   0   0  10 33.0766 5.48644  11
   0   0 -10 28.9471 4.30688   7
   0   0 -10 30.0741 4.78037  13
  -2   0 -10 10.8317 3.58256  13
   2   0  10 10.3567 4.80115  11
  -2   0 -10 7.82599 3.95761   4
  11  -1 -10 384.216 21.0424   1
 -11  -1  10 419.868 27.8649   3
 -11  -1  10 397.973 23.9932  14
  11  -1 -10 376.209 20.3480  13
  11   1 -10 360.607 20.3714   1
 -11   1  10 458.497 28.8609   3
  11   1 -10 369.958 20.4278  13
   9  -1 -10 1128.17 45.1408   1
  -9  -1  10 1166.48 47.7670  14
   9  -1 -10 1091.63 43.6214  16
  -9  -1  10 1170.87 52.8732   3
   9  -1 -10 1112.92 44.9978  13
   9   1 -10 1155.96 45.5987  13
   9   1 -10 1116.94 44.7508   1
  -9   1  10 1291.58 54.4534   3
   9   1 -10 1093.67 43.3388  16
   7  -1 -10 918.459 36.7365   1
   7  -1 -10 937.546 37.4640  13
   7  -1 -10 911.458 35.7845  16
  -7  -1  10 1015.59 43.7078   3
  -7  -1  10 938.429 38.8666   9
  -7  -1  10 950.682 38.7574  14
   7   1 -10 1011.25 37.9701  13
   7   1 -10 926.096 36.5997   1
   7   1 -10 952.280 35.8576  16
  -7   1  10 1019.04 43.1963   3
  -7   1  10 886.934 37.9281   9
   5  -1 -10 841.275 32.9685   1
  -5  -1  10 835.201 36.3960   3
  -5  -1  10 913.414 37.5264   9
   5  -1 -10 841.695 32.4428  16
   5  -1 -10 867.196 35.3434   4
   5  -1 -10 868.168 34.2785  13
  -5   1  10 885.257 36.6948   9
   5   1 -10 909.957 34.5151  13
  -5   1  10 889.348 38.2066   2
   5   1 -10 866.400 35.6397   4
   3  -1 -10 1478.26 55.9175  13
   3  -1 -10 1548.62 57.6366   4
  -3  -1  10 1584.52 60.5356   9
  -3  -1  10 1514.73 55.7983  11
   3   1 -10 1540.14 58.0120   4
  -3   1  10 1512.17 61.3363   2
   3   1 -10 1530.46 55.8108  13
  -3   1  10 1511.28 55.9233  11
   1  -1 -10 737.685 29.8046   7
   1  -1 -10 751.305 31.4723   4
  -1  -1  10 742.221 30.9118  11
  -1  -1  10 802.762 34.6106   9
   1  -1 -10 726.139 29.7502  13
  -1   1  10 748.815 31.2049  11
   1   1 -10 742.923 31.7401   4
   1   1 -10 731.660 29.5096  13
   1   1 -10 732.669 30.6829   7
  -1  -1 -10 489.435 22.9823  13
   1  -1  10 564.450 25.2944  11
   1  -1  10 566.264 28.1677   9
  -1  -1 -10 559.829 25.3727   4
  -1   1 -10 500.804 23.3887   7
   1   1  10 548.883 25.4979  11
  -1   1 -10 512.172 22.4962  13
  -1   1 -10 525.579 25.3384   4
  -3  -1 -10 657.742 30.0438   4
  -3  -1 -10 638.033 27.8435  13
   3  -1  10 675.211 30.1130  11
  -3   1 -10 627.492 29.6684   4
   3   1  10 647.923 30.2682  11
 -12  -2  10 960.023 47.0245   3
  12  -2 -10 804.444 37.0103  13
 -12  -2  10 967.481 44.6168  14
  12  -2 -10 827.503 38.6941   1
 -12   2  10 993.888 48.1099   3
  12   2 -10 839.272 38.4269   1
  12   2 -10 841.711 37.9674  13
 -10  -2  10 993.965 41.8576  14
  10  -2 -10 823.180 35.3857  16
  10  -2 -10 865.579 37.2139   1
 -10  -2  10 917.592 45.0442   3
  10  -2 -10 822.720 36.1691  13
  10   2 -10 852.263 36.8776   1
  10   2 -10 838.066 35.2781  16
 -10   2  10 1013.56 46.6733   3
  10   2 -10 889.470 37.3673  13
   8  -2 -10 491.035 22.8809   1
  -8  -2  10 590.495 30.8731   3
   8  -2 -10 470.172 21.5753  16
   8  -2 -10 514.565 22.8942  13
  -8  -2  10 492.111 23.6415   9
  -8  -2  10 517.009 25.0328  14
   8   2 -10 507.779 21.5327  16
  -8   2  10 549.773 24.8463   2
   8   2 -10 552.978 23.9769  13
   6  -2 -10 945.060 37.3003   4
  -6  -2  10 901.014 40.2479   3
   6  -2 -10 934.024 36.3220  13
  -6  -2  10 915.510 38.4155   9
   6  -2 -10 895.029 34.5617  16
   6  -2 -10 891.319 35.4596   1
  -6   2  10 922.632 39.4776   2
   6   2 -10 909.100 35.8895  13
  -6   2  10 923.064 39.3030   3
  -6   2  10 939.791 37.7455   9
   6   2 -10 880.371 37.4707   4
   4  -2 -10 840.413 33.2683   4
  -4  -2  10 759.863 33.5507   3
   4  -2 -10 810.160 32.1269  13
   4  -2 -10 783.510 30.3426  16
  -4  -2  10 842.806 35.7962   9
   4  -2 -10 778.273 30.8653   1
   4   2 -10 850.949 34.1770   4
  -4   2  10 834.501 36.9831   2
   4   2 -10 806.106 31.6639  13
  -4   2  10 794.562 30.9435  11
   2  -2 -10 1052.62 40.6451  13
  -2  -2  10 1103.68 45.3431   9
   2  -2 -10 1040.19 41.4605   4
  -2  -2  10 1067.30 40.9590  11
   2   2 -10 1096.03 42.6221   4
  -2   2  10 1046.32 41.0615  11
  -2   2  10 1071.36 46.0646   2
   2   2 -10 1046.91 41.6648   7
   2   2 -10 1028.92 39.8259  13
   0  -2  10 1419.19 54.6211  11
   0  -2  10 1511.87 58.9691   9
   0  -2 -10 1425.09 53.5674  13
   0  -2 -10 1408.12 54.7053   4
   0   2 -10 1400.78 54.3625   7
   0   2 -10 1371.55 52.3709  13
   0   2 -10 1393.23 55.4246   4
   0   2  10 1495.00 59.1324   2
   0   2  10 1418.60 55.1193  11
  -2  -2 -10 466.952 23.0631   4
  -2  -2 -10 462.038 21.7727  13
   2  -2  10 505.710 26.3627   9
   2  -2  10 476.760 23.7276  11
   2   2  10 482.025 24.0767  11
  -2   2 -10 464.103 22.2866   7
  -2   2 -10 451.501 23.7784   4
 -11  -3  10 85.2487 11.9053  14
  11  -3 -10 76.2710 8.12405  13
 -11  -3  10 84.4772 13.0678   3
  11  -3 -10 73.9036 9.48015   1
 -11   3  10 100.320 13.8646   3
  11   3 -10 77.6385 9.41932  13
  -9  -3  10 254.323 17.2977  14
  -9  -3  10 251.894 20.1532   3
   9  -3 -10 214.994 12.5612  16
   9  -3 -10 208.313 13.1749   1
   9  -3 -10 234.868 13.2098  13
   9   3 -10 253.944 14.0184   1
   9   3 -10 220.188 13.1630  16
   9   3 -10 236.369 14.4434  13
  -9   3  10 256.392 19.5863   3
   7  -3 -10 81.8806 6.55224  16
   7  -3 -10 96.6529 8.16298   1
   7  -3 -10 103.979 8.53067  13
  -7  -3  10 92.6360 9.38410  14
  -7  -3  10 99.9069 8.76208   9
  -7  -3  10 98.8306 11.2449   3
  -7   3  10 108.984 9.91020   2
   7   3 -10 92.4638 8.10704  13
  -7   3  10 103.711 8.32852   9
  -7   3  10 110.853 11.2477   3
  -5  -3  10 66.4691 8.28268   3
  -5  -3  10 79.3959 8.69472   9
   5  -3 -10 73.3094 5.39974  16
   5  -3 -10 68.6735 6.29599   1
   5  -3 -10 65.2635 6.13043  13
   5  -3 -10 72.5513 6.99200   4
   5   3 -10 69.8632 7.90613   4
   5   3 -10 72.5509 6.54675  13
  -5   3  10 85.8445 9.79231   2
   3  -3 -10 382.245 18.1099  13
  -3  -3  10 428.512 21.9617   9
   3  -3 -10 407.221 17.4193   1
   3  -3 -10 410.020 18.9292   4
   3  -3 -10 378.251 16.5501  16
  -3   3  10 408.142 23.2926   2
   3   3 -10 399.812 19.7860   4
  -3   3  10 374.602 17.6401  11
   3   3 -10 379.164 16.9727  13
   1  -3 -10 191.336 12.2677   4
   1  -3 -10 183.824 11.6161  13
  -1  -3  10 208.957 15.0501   9
  -1   3  10 202.292 12.5904  11
   1   3 -10 204.466 12.8937   4
  -1   3  10 227.283 16.4634   2
   1   3 -10 202.046 12.8686   7
  -1  -3 -10 89.2029 8.87807   4
  -1  -3 -10 87.1497 8.72322  13
   1  -3  10 93.6427 11.4113   9
   1   3  10 89.5958 11.1583   2
  -1   3 -10 70.9369 8.94151   4
  -1   3 -10 85.0082 9.20326   7
   1   3  10 96.2989 9.47703  11
  -3  -3 -10 114.487 10.8766   4
  -3  -3 -10 125.323 10.1427  13
  -3   3 -10 117.338 10.5504   4
   3   3  10 120.807 10.3352  11
  -3   3 -10 123.434 10.6239   7
  10  -4 -10 646.087 29.5315   1
 -10  -4  10 681.009 37.4682   3
  10  -4 -10 614.686 28.5008  13
 -10  -4  10 622.706 29.2434   9
 -10  -4  10 760.730 35.8980  14
 -10   4  10 740.870 37.2607   3
  10   4 -10 642.006 29.2826   1
  10   4 -10 650.510 29.3554  13
  -8  -4  10 1152.29 48.6774   9
  -8  -4  10 1223.34 55.0619   3
   8  -4 -10 1246.35 47.7309   1
   8  -4 -10 1213.70 47.1545  13
  -8  -4  10 1239.41 51.6881  14
   8  -4 -10 1175.40 46.2173  16
  -8   4  10 1374.88 54.5641   3
  -8   4  10 1127.43 48.8450   2
   8   4 -10 1277.24 47.7200  13
  -6  -4  10 2235.27 87.3505   3
   6  -4 -10 2304.84 81.1855   1
   6  -4 -10 2233.92 80.2150  16
   6  -4 -10 2255.56 81.1586  13
  -6  -4  10 2195.46 84.2332   9
  -6   4  10 2172.54 85.9315   2
   6   4 -10 2353.22 83.7563   4
   6   4 -10 2253.11 80.6972  13
   4  -4 -10 1790.26 65.1064   4
   4  -4 -10 1761.28 63.4800  16
  -4  -4  10 1768.72 68.8770   9
   4  -4 -10 1838.46 64.3903   1
  -4  -4  10 1714.37 68.0512   3
   4  -4 -10 1768.59 64.8127  13
  -4   4  10 1786.15 71.1624   2
   4   4 -10 1715.84 63.5945  13
   4   4 -10 1787.22 66.6345   4
   2  -4 -10 955.111 36.2560   1
  -2  -4  10 971.103 41.1741   9
   2  -4 -10 929.106 37.0018  13
   2  -4 -10 919.270 37.3235   4
  -2   4  10 1018.20 44.0167   2
   2   4 -10 911.343 38.5781   4
   2   4 -10 957.655 39.0627   7
  -2   4  10 912.782 37.7616  11
   0  -4  10 1025.88 42.9593   9
   0  -4 -10 932.064 38.6860   4
   0  -4 -10 986.936 38.6562  13
   0   4 -10 954.907 39.9193   7
   0   4 -10 985.190 40.6162   4
   0   4  10 947.355 43.2077   2
   0   4  10 951.373 39.8304  11
  -2  -4 -10 734.668 32.3230   4
  -2  -4 -10 757.838 32.1575  13
  -2   4 -10 793.827 33.4977   7
  -2   4 -10 755.977 34.0773   4
   2   4  10 755.210 33.5494  11
 -11  -5  10 217.068 19.1048  14
  11  -5 -10 209.501 14.8619   1
 -11  -5  10 211.901 18.6613   3
  11   5 -10 185.160 13.4702  13
 -11   5  10 213.570 18.9954   3
   9  -5 -10 479.755 22.5341  13
  -9  -5  10 502.087 27.9461  14
  -9  -5  10 485.412 29.8118   3
  -9  -5  10 470.316 23.8496   9
   9  -5 -10 477.597 23.4680   1
   9   5 -10 505.156 23.2785  13
  -7  -5  10 766.527 38.5281   3
   7  -5 -10 739.694 31.2292  13
  -7  -5  10 740.813 35.0831  14
   7  -5 -10 764.989 31.0320  16
   7  -5 -10 794.629 32.2038   1
  -7  -5  10 800.043 34.7030   9
   7   5 -10 788.402 31.5617  13
   7   5 -10 805.436 33.9648   4
  -7   5  10 746.310 35.3615   2
   5  -5 -10 603.742 25.9837  16
   5  -5 -10 662.496 27.3296   1
  -5  -5  10 678.921 30.7986   9
  -5  -5  10 662.163 32.0621   3
   5  -5 -10 662.742 27.3180  13
   5   5 -10 642.067 28.8933   4
  -5   5  10 655.836 32.5277   2
   3  -5 -10 569.422 24.6045  13
   3  -5 -10 558.284 24.0448   1
  -3  -5  10 593.695 28.1672   9
   3  -5 -10 547.107 23.1353  16
   3   5 -10 586.688 26.6749   7
   3   5 -10 551.900 26.0873   4
  -3   5  10 592.500 30.6333   2
   1  -5 -10 449.874 20.8450  13
  -1  -5  10 444.812 24.1311   9
   1   5 -10 454.823 22.4903   7
   1   5 -10 436.662 22.2312   4
  -1   5  10 466.709 25.4613   2
  -1   5  10 399.669 21.1387  11
   1  -5  10 321.242 19.0144   9
  -1  -5 -10 293.940 15.7997  13
  -1   5 -10 302.089 18.1059   4
   1   5  10 327.957 19.7536   2
  -1   5 -10 314.263 18.0536   7
   1   5  10 266.681 17.0341  11
 -10  -6  10 104.607 9.74122   9
  10  -6 -10 96.1428 10.4222   1
 -10  -6  10 135.557 17.2201   3
 -10  -6  10 157.445 15.5545  14
 -10   6  10 137.506 14.7819   3
  10   6 -10 100.103 9.45871  13
 -10   6  10 126.235 14.0930  10
   8  -6 -10 27.6136 5.04947  16
  -8  -6  10 27.2454 6.93369  14
  -8  -6  10 23.6042 5.33790   9
   8  -6 -10 22.0071 5.22219   1
   8  -6 -10 32.4135 5.27942  13
  -8  -6  10 22.7983 3.80300   6
  -8  -6  10 29.1696 8.13170   3
  -8   6  10 33.3542 5.79041   2
  -8   6  10 26.8315 7.63582  10
   8   6 -10 17.3640 4.36175  13
  -6  -6  10 -0.3407 2.41991   3
   6  -6 -10 1.87880 3.17623  13
   6  -6 -10 2.83361 3.57117   1
   6  -6 -10 5.41878 2.46905  16
  -6  -6  10 1.02325 3.88990   9
  -6   6  10 4.79936 5.05538  10
  -6   6  10 4.90172 3.60479   2
   6   6 -10 3.90723 2.68513   4
   4  -6 -10 40.7697 6.06924   1
   4  -6 -10 40.3796 5.09590  16
   4  -6 -10 36.1376 5.46971  13
  -4  -6  10 36.6976 6.56210   9
   4   6 -10 33.6152 5.97858   4
  -4   6  10 31.1197 7.08053   2
   4   6 -10 38.0082 6.91704   7
   2  -6 -10 84.9887 7.82173  13
   2  -6 -10 69.6494 7.25933   1
  -2  -6  10 71.6946 9.38001   9
   2   6 -10 68.1875 7.91257   4
   2   6 -10 79.2862 9.46687   7
  -2   6  10 67.6314 10.4871   2
  -2   6  10 70.6670 7.69864  11
   0  -6  10 106.768 10.7709   9
   0  -6 -10 110.401 9.48851  13
   0   6  10 101.390 11.8052   2
   0   6 -10 90.5734 10.3322   7
   0   6 -10 90.1542 9.03150   4
   0   6  10 95.3272 8.81051  11
   9  -7 -10 519.043 24.7405   1
  -9  -7  10 499.056 26.0843   9
  -9  -7  10 500.993 31.2631   3
  -9  -7  10 533.800 30.6837  14
  -9   7  10 513.397 29.2017  10
  -7  -7  10 543.741 31.4247   3
   7  -7 -10 563.143 25.2687   1
  -7  -7  10 539.115 27.1592   9
   7  -7 -10 535.990 23.4742  13
  -7  -7  10 544.676 22.9908   6
   7   7 -10 527.266 25.5032   4
  -7   7  10 511.281 28.0882   2
  -7   7  10 585.222 30.2167  10
   5  -7 -10 583.134 25.3621  13
  -5  -7  10 611.598 29.7709   9
   5  -7 -10 582.639 25.0084  16
  -5  -7  10 585.330 31.1298   3
   5  -7 -10 596.438 26.0782   1
   5   7 -10 590.746 28.0234   7
  -5   7  10 605.935 31.9433   2
   3  -7 -10 745.389 31.2213   1
  -3  -7  10 763.587 34.9353   9
   3  -7 -10 769.220 31.2442  13
  -3   7  10 681.497 30.7598  11
   3   7 -10 757.477 33.4878   7
  -3   7  10 760.080 37.8364   2
   3   7 -10 766.918 32.7268   4
   1  -7 -10 909.302 37.5425  13
  -1  -7  10 1006.46 41.9296   9
  -1   7  10 848.617 38.4653  11
   1   7 -10 1002.60 40.8922   7
  -1   7  10 941.793 43.5004   2
   1   7 -10 927.718 39.1721   4
  -1  -7 -10 466.245 23.1412  13
  -1  -7 -10 508.212 24.5944   8
  -1   7 -10 512.127 28.7964  10
   1   7  10 550.973 26.9260   2
  -1   7 -10 468.914 24.4467   4
   1   7  10 470.505 23.7841  11
  -1   7 -10 486.542 25.4269   7
   8  -8 -10 213.447 14.4524   1
  -8  -8  10 234.113 20.1893   3
  -8  -8  10 209.569 15.8505   9
  -8   8  10 231.349 18.8092  10
  -8   8  10 237.866 15.6607   2
   6  -8 -10 236.343 14.5427   1
  -6  -8  10 241.239 17.1392   9
  -6  -8  10 247.479 13.3435   6
  -6  -8  10 259.314 19.8119   3
   6  -8 -10 256.529 13.7759  13
  -6   8  10 242.067 17.9750   2
   6   8 -10 241.786 15.6699   7
  -6   8  10 254.571 18.3498  10
   4  -8 -10 384.671 19.5238   1
   4  -8 -10 387.968 19.0419  13
  -4  -8  10 409.554 23.0940   9
  -4   8  10 406.742 24.9298   2
   4   8 -10 382.463 21.3835   7
  -2  -8  10 185.620 14.7580   9
   2  -8 -10 167.845 11.1785  13
  -2   8  10 198.164 17.2969   2
   2   8 -10 183.340 14.0127   7
  -2   8  10 188.520 12.2293  11
   0  -8 -10 64.2138 8.05852  13
   0   8 -10 54.8402 8.11897   7
   0   8 -10 60.2738 10.0039  10
   0   8  10 85.5929 8.29193  11
   0   8  10 74.3293 10.6964   2
  -7  -9  10 256.031 13.8583   6
  -7  -9  10 243.417 17.5177   9
   7  -9 -10 221.790 14.7812   1
  -7   9  10 253.155 19.1699  10
  -7   9  10 262.335 17.7478   2
  -5  -9  10 240.955 17.2736   9
   5  -9 -10 222.937 14.1756   1
  -5  -9  10 217.523 12.5930   6
   5   9 -10 212.531 14.3279   7
  -5   9  10 222.762 15.6565  10
  -5   9  10 215.212 17.4005   2
  -3  -9  10 21.6083 6.38761   9
   3  -9 -10 31.6284 4.97318  13
   3  -9 -10 30.1465 5.33753   1
   3   9 -10 25.9163 6.35549   7
  -3   9  10 26.6092 7.42290   2
  10   0 -11 5.33753 4.15408  13
  10   0 -11 -0.1847 2.97559  16
  10   0 -11 -4.9675 3.39078   1
 -10   0  11 0.03220 5.25682   3
  -8   0  11 1.23431 4.45119   3
   8   0 -11 0.25755 2.99369   1
   8   0 -11 1.95820 2.40054  16
  -8   0  11 2.28777 2.80892   9
   8   0 -11 2.15319 3.41475  13
   6   0 -11 2.20329 2.64654   4
  -6   0  11 1.27209 2.40845   9
   6   0 -11 -0.4597 2.97975  13
   4   0 -11 5.45003 3.44757  13
  -4   0  11 1.05498 1.53498  11
  -4   0  11 -0.0458 3.86164   9
   4   0 -11 2.94519 3.65050   4
  -2   0  11 -1.1903 3.53299   9
   2   0 -11 -0.8663 1.85576  13
  -2   0  11 4.40211 2.46096  11
   2   0 -11 1.15569 2.65745   7
   2   0 -11 -0.0828 3.48274   4
   0   0  11 -0.4058 3.18430  11
   0   0 -11 1.08976 2.98102   4
   0   0 -11 2.58529 3.11835  13
   2   0  11 0.93944 3.11723   9
  -2   0 -11 5.08227 3.25487  13
   2   0  11 -2.3986 3.63741  11
  -2   0 -11 -6.6004 3.88277   4
  11  -1 -11 164.756 12.1135   1
 -11  -1  11 173.262 18.5123   3
  11  -1 -11 158.442 12.3021  13
 -11   1  11 179.864 18.1839   3
  11   1 -11 152.245 11.6438   1
  11   1 -11 169.783 12.6721  13
   9  -1 -11 203.125 12.8028   1
  -9  -1  11 220.304 18.7171   3
   9  -1 -11 203.420 13.0589  13
   9  -1 -11 198.847 11.5610  16
  -9  -1  11 188.439 12.6235   9
  -9   1  11 227.654 18.4696   3
   9   1 -11 190.145 11.3139  16
   9   1 -11 214.474 12.9172   1
   9   1 -11 196.947 13.1701  13
  -7  -1  11 26.6532 5.51347   9
   7  -1 -11 23.4938 5.31844   4
   7  -1 -11 31.9602 4.91954   1
   7  -1 -11 20.7570 3.69327  16
   7  -1 -11 23.8386 4.98101  13
  -7  -1  11 21.9257 6.37815   3
   7   1 -11 21.9359 5.40984   4
  -7   1  11 21.4560 4.82628   9
   7   1 -11 24.8004 4.93623  13
  -7   1  11 30.2273 6.71028   3
  -5  -1  11 3.74024 3.10544   9
   5  -1 -11 3.81323 2.70547  13
   5  -1 -11 5.54090 3.77681   4
   5   1 -11 3.60656 2.97934   4
  -5   1  11 11.5966 4.55399   9
   5   1 -11 7.24539 3.53796  13
  -3  -1  11 46.7641 5.49600  11
  -3  -1  11 52.6308 8.23591   9
   3  -1 -11 61.4175 7.42574   4
   3  -1 -11 56.4869 6.51194  13
  -3   1  11 45.1324 5.56288  11
   3   1 -11 45.3075 6.35423   4
   3   1 -11 50.5986 5.90169  13
   1  -1 -11 104.375 7.93606  13
  -1  -1  11 119.778 12.1611   9
  -1  -1  11 101.385 8.90501  11
   1  -1 -11 112.509 9.41309   4
   1   1 -11 108.421 8.06573  13
   1   1 -11 99.9288 9.20843   4
  -1   1  11 112.872 9.47813  11
   1   1 -11 98.5380 8.85662   7
   1  -1  11 125.410 11.0262  11
  -1  -1 -11 141.210 10.8543   4
   1  -1  11 135.006 13.4448   9
  -1  -1 -11 119.923 9.79035  13
   1   1  11 130.278 10.5744  11
  -1   1 -11 136.244 11.0333   4
  -1   1 -11 112.101 8.43047  13
 -10  -2  11 244.012 16.9973  14
  10  -2 -11 225.676 14.4396   1
 -10  -2  11 261.960 21.7354   3
  10  -2 -11 200.241 13.6248  13
 -10   2  11 269.342 21.2900   3
  10   2 -11 224.505 14.1456   1
  10   2 -11 210.893 14.4077  13
  -8  -2  11 254.902 19.0366   3
  -8  -2  11 251.059 15.3430  14
   8  -2 -11 228.217 12.5428  16
   8  -2 -11 222.134 13.7354  13
   8  -2 -11 227.662 13.5299   1
  -8  -2  11 228.529 14.3658   9
  -8   2  11 271.592 18.6788   3
   8   2 -11 229.667 13.3368  13
  -6  -2  11 303.618 17.6337   9
  -6  -2  11 287.157 17.5875   3
   6  -2 -11 281.880 14.9882  13
   6  -2 -11 268.701 13.1410  16
   6  -2 -11 273.512 13.9234   1
   6  -2 -11 283.116 15.6986   4
   6   2 -11 267.700 16.1703   4
  -6   2  11 259.710 17.1123   2
  -6   2  11 262.631 15.8157   9
   6   2 -11 270.510 14.3126  13
   4  -2 -11 463.694 21.0008  13
   4  -2 -11 455.898 21.7501   4
  -4  -2  11 477.166 24.9123   9
   4   2 -11 447.513 20.2283  13
  -4   2  11 471.494 25.8899   2
   4   2 -11 452.984 22.5129   4
   2  -2 -11 205.918 13.1267   4
  -2  -2  11 209.824 15.5634   9
   2  -2 -11 189.138 11.3508  13
  -2  -2  11 211.569 12.2866  11
  -2   2  11 181.806 11.9066  11
   2   2 -11 197.813 12.8821   7
  -2   2  11 201.535 15.6334   2
   2   2 -11 187.532 13.2326   4
   2   2 -11 180.147 10.4648  13
   0  -2  11 144.291 13.4737   9
   0  -2 -11 129.302 9.24456  13
   0  -2 -11 124.014 10.8662   4
   0  -2  11 148.121 11.1446  11
   0   2 -11 116.559 10.2277   7
   0   2 -11 121.055 11.2743   4
   0   2  11 137.758 11.0240  11
   2  -2  11 188.129 18.0661   9
   2  -2  11 165.807 13.1052  11
  -2  -2 -11 170.939 11.1022  13
  -2  -2 -11 150.911 12.4613   4
   2   2  11 163.786 12.3274  11
  -2   2 -11 159.657 12.5213   4
  11  -3 -11 8.25565 4.89793   1
 -11  -3  11 4.44158 3.97060  14
  11  -3 -11 3.48959 3.96174  13
 -11  -3  11 7.55914 6.49397   3
  11   3 -11 7.87478 4.54178  13
  11   3 -11 3.86855 4.10917   1
 -11   3  11 4.23167 6.49793   3
   9  -3 -11 0.21223 3.76685   1
  -9  -3  11 -3.8139 4.00325   3
   9  -3 -11 -0.0577 3.39630  13
  -9  -3  11 -1.2667 3.07850   9
  -9  -3  11 2.61511 3.08777  14
   9  -3 -11 -3.5881 2.44446  16
   9   3 -11 0.14819 3.38781  13
  -9   3  11 0.59556 4.76894   3
  -7  -3  11 10.5318 4.41483   3
  -7  -3  11 0.02405 2.55242   9
   7  -3 -11 2.30107 3.26366   4
   7  -3 -11 1.24011 1.99715  16
   7  -3 -11 -1.0222 3.04063   1
   7  -3 -11 8.12917 3.82235  13
  -7   3  11 1.87307 3.37804   2
  -7   3  11 1.89759 2.80199   9
   7   3 -11 4.27451 3.11589   4
   7   3 -11 0.17077 2.22222  13
   5  -3 -11 108.772 8.12222   1
  -5  -3  11 100.768 9.71006   3
  -5  -3  11 125.570 11.4956   9
   5  -3 -11 128.109 9.46198  13
   5  -3 -11 116.325 9.36301   4
   5  -3 -11 119.118 7.34013  16
  -5   3  11 128.361 12.5188   2
   5   3 -11 118.829 8.52666  13
   5   3 -11 123.110 10.6176   4
   3  -3 -11 55.6727 6.38453   4
  -3  -3  11 61.1686 8.97690   9
   3  -3 -11 57.5750 6.60287  13
   3   3 -11 51.9480 5.60451  13
  -3   3  11 54.0930 9.07324   2
   3   3 -11 53.2619 7.48260   4
  -3   3  11 46.9203 5.76486  11
   3   3 -11 45.8789 6.79717   7
   1  -3 -11 19.7838 4.96881   4
  -1  -3  11 34.5435 7.59414   9
   1  -3 -11 23.0048 4.43850  13
   1   3 -11 32.4801 6.03155   7
   1   3 -11 21.0020 4.94925   4
  -1   3  11 34.4077 5.68028  11
  -1   3  11 26.8805 7.42494   2
  -1  -3 -11 3.35534 4.13262   4
  -1  -3 -11 0.01980 2.50966  13
   1  -3  11 0.56889 3.00560   9
  -1   3 -11 -3.4819 2.71857   4
  -1   3 -11 6.65126 4.38621   7
   1   3  11 -1.1294 2.49768  11
 -10  -4  11 10.5438 6.60420   3
 -10  -4  11 8.12205 5.45760  14
  10  -4 -11 3.29638 4.37279   1
 -10  -4  11 7.14600 4.15737   9
  10  -4 -11 12.3367 4.35362  13
  10   4 -11 6.52189 3.99254  13
 -10   4  11 6.97564 6.19729   3
   8  -4 -11 132.363 10.2565  13
   8  -4 -11 127.089 10.3502   1
  -8  -4  11 138.325 11.0736   9
  -8  -4  11 136.879 11.7597  14
   8  -4 -11 120.017 8.91904  16
  -8  -4  11 133.010 14.4079   3
   8  -4 -11 146.682 10.2798   4
   8   4 -11 149.826 12.3677   4
  -8   4  11 138.417 11.5441   2
   8   4 -11 133.623 10.0836  13
   6  -4 -11 314.415 16.2344  13
  -6  -4  11 306.338 19.7361   3
   6  -4 -11 301.643 15.9972   4
   6  -4 -11 309.849 14.9819  16
   6  -4 -11 318.526 15.5940   1
  -6  -4  11 316.236 18.4678   9
   6   4 -11 293.631 17.3079   4
  -6   4  11 294.373 19.5265   2
   6   4 -11 304.133 15.1617  13
   4  -4 -11 74.4551 5.71831  16
   4  -4 -11 72.7257 6.77847   4
   4  -4 -11 68.3209 7.05239  13
   4  -4 -11 69.5394 6.79120   1
  -4  -4  11 82.1537 10.1589   9
   4   4 -11 73.6894 8.76893   4
  -4   4  11 69.4283 10.7009   2
   2  -4 -11 122.825 9.56415   4
  -2  -4  11 132.838 12.5208   9
   2  -4 -11 105.955 8.60666  13
   2   4 -11 119.914 11.0719   4
   2   4 -11 126.048 10.9181   7
  -2   4  11 103.647 8.60388  11
  -2   4  11 124.391 12.4636   2
   0  -4 -11 93.2604 9.14959   4
   0  -4  11 93.4661 11.6421   9
   0  -4 -11 73.7595 8.22749  13
   0   4  11 84.5427 9.27387  11
   0   4 -11 87.6961 9.17209   7
   0   4 -11 84.8952 9.24582   4
   0   4  11 85.1037 11.2152   2
  -9  -5  11 2.20791 5.18340   3
   9  -5 -11 3.34452 4.00338   1
  -9  -5  11 3.99305 4.61359  14
   9  -5 -11 -1.7775 3.17439  13
  -9  -5  11 -0.3825 3.61548   9
   9   5 -11 3.03572 3.27184  13
  -7  -5  11 188.484 14.2305   9
   7  -5 -11 168.148 10.6733  16
   7  -5 -11 193.762 11.6911   1
  -7  -5  11 189.804 16.5287   3
   7  -5 -11 186.041 11.5115  13
  -7   5  11 196.117 15.1683   2
   7   5 -11 170.907 10.9941  13
   7   5 -11 185.525 12.8474   4
  -5  -5  11 146.366 12.7610   3
   5  -5 -11 167.999 10.4069  13
   5  -5 -11 148.495 10.4373   1
  -5  -5  11 153.445 13.1291   9
   5  -5 -11 151.735 9.47479  16
   5   5 -11 146.859 11.8474   4
  -5   5  11 153.541 14.5870   2
   3  -5 -11 43.6672 5.77983   1
  -3  -5  11 71.3927 9.78935   9
   3  -5 -11 51.6729 6.78382  13
  -3   5  11 68.1408 11.2065   2
   3   5 -11 70.6942 8.82754   7
   3   5 -11 46.1176 7.07882   4
   1  -5 -11 81.1966 8.53306  13
  -1  -5  11 102.153 11.4007   9
  -1   5  11 85.2607 11.7756   2
   1   5 -11 82.5940 9.71568   7
   1   5 -11 95.5853 10.4670   4
  -1   5  11 99.0847 9.06593  11
  -1  -5 -11 2.29284 4.05349  13
  -1   5 -11 4.81393 4.83117   7
  -8  -6  11 82.8520 9.26370   9
   8  -6 -11 76.0911 8.58244   1
   8  -6 -11 90.7439 8.81567  13
  -8  -6  11 83.7584 12.2106   3
   8   6 -11 77.8244 8.99663   4
  -8   6  11 106.062 9.70751   2
  -6  -6  11 89.5765 9.69968   9
  -6  -6  11 83.5329 10.3080   3
   6  -6 -11 64.8033 8.03958  16
   6  -6 -11 86.7721 8.66768   1
   6  -6 -11 89.3432 8.60329  13
   6   6 -11 74.9270 8.99027   4
  -6   6  11 94.4664 12.4411   2
   4  -6 -11 8.23392 3.14211  16
   4  -6 -11 4.88585 3.03903   1
   4  -6 -11 25.1167 5.22623  13
  -4  -6  11 3.64848 3.38959   9
   4   6 -11 12.6897 4.88860   7
  -4   6  11 7.92983 6.03422   2
   4   6 -11 1.97863 4.01101   4
  -2  -6  11 133.145 12.6926   9
   2  -6 -11 126.513 10.2907  13
  -2   6  11 123.644 9.50277  11
  -2   6  11 122.769 13.0578   2
   2   6 -11 152.117 12.3617   7
   2   6 -11 120.030 10.5635   4
   0  -6  11 166.880 13.8614   9
   0  -6 -11 174.948 12.0304  13
   0   6  11 172.795 14.5080   2
   0   6 -11 151.966 13.0446   7
   0   6  11 150.518 11.3839  11
  -9  -7  11 23.4763 6.15118   9
   7  -7 -11 4.61259 3.57976  13
  -7  -7  11 4.21079 3.70054   9
   7  -7 -11 2.77549 3.83166   1
  -7  -7  11 4.12830 4.20135   3
  -7   7  11 9.28533 3.84430   2
   7   7 -11 5.30575 4.17750   4
   5  -7 -11 97.4925 9.18256   1
  -5  -7  11 104.354 11.7007   9
   5  -7 -11 96.6448 8.06117  13
  -5   7  11 102.362 13.2252   2
   5   7 -11 91.0368 8.99098   4
   5   7 -11 105.238 10.9829   7
   3  -7 -11 129.429 10.2213   1
   3  -7 -11 120.441 9.29894  13
  -3  -7  11 124.323 12.6722   9
   3   7 -11 127.976 11.9739   7
  -3   7  11 133.580 13.5516   2
   3   7 -11 123.403 11.2139   4
  -1  -7  11 -0.2970 4.05283   9
   1  -7 -11 3.66638 4.23994  13
   1   7 -11 -1.3576 3.29757   7
   1   7 -11 -1.3645 4.06765   4
  -1   7  11 13.6268 3.71725  11
  -1   7  11 8.85123 5.72218   2
   6  -8 -11 19.4955 4.67329  13
  -6  -8  11 18.4434 6.27995   9
   6  -8 -11 17.3315 5.16840   1
  -6   8  11 18.6624 6.14854   2
   6   8 -11 18.1667 4.81370   7
  -4  -8  11 145.628 13.5079   9
   4  -8 -11 131.503 10.2863  13
   4  -8 -11 137.378 10.8280   1
  -4   8  11 125.727 14.6058   2
   4   8 -11 134.269 11.6496   7
  10   0 -12 1465.54 59.1103   1
 -10   0  12 1774.47 70.6601   3
  10   0 -12 1468.28 59.7867  13
   8   0 -12 1266.32 49.0360  13
   8   0 -12 1236.44 50.7777   4
  -8   0  12 1147.11 49.7710   9
  -8   0  12 1323.50 55.1439   3
   6   0 -12 1258.65 50.0527   4
  -6   0  12 1208.91 51.2587   9
   6   0 -12 1228.82 47.9141  13
  -4   0  12 1227.14 52.5486   9
   4   0 -12 1219.10 49.7041   4
   4   0 -12 1251.30 47.6462  13
   2   0 -12 772.305 33.8088   4
  -2   0  12 746.095 32.0863  11
   2   0 -12 747.676 31.5307  13
  -2   0  12 788.168 37.3746   9
   0   0 -12 1060.94 45.3095   4
   0   0  12 1136.76 50.2244   9
   0   0  12 1062.67 44.9058  11
  11  -1 -12 75.7474 8.89194   1
  11  -1 -12 96.4036 8.87414  13
 -11  -1  12 115.605 17.0033   3
  11   1 -12 82.9346 9.51057   1
  11   1 -12 85.7400 9.85026  13
 -11   1  12 108.224 14.9818   3
   9  -1 -12 197.109 13.0810   1
  -9  -1  12 204.668 13.9636   9
   9  -1 -12 231.772 15.7243   4
   9  -1 -12 224.234 14.1167  13
  -9  -1  12 244.442 18.8851   3
   9  -1 -12 197.958 12.1316  16
   9   1 -12 216.602 14.0326  13
  -9   1  12 255.733 19.4600   3
  -7  -1  12 368.588 20.7566   9
   7  -1 -12 373.452 19.6366   4
   7  -1 -12 371.932 18.8742  13
  -7   1  12 341.328 19.5394   9
   7   1 -12 380.055 20.5279   4
   7   1 -12 368.360 18.4189  13
   5  -1 -12 114.801 10.4408   4
   5  -1 -12 121.639 9.03782  13
  -5  -1  12 140.512 12.5746   9
   5   1 -12 123.462 9.44281  13
   5   1 -12 115.288 9.92507   4
  -5   1  12 115.521 11.5519   9
  -3  -1  12 240.581 17.0582   9
  -3  -1  12 244.379 13.5092  11
   3  -1 -12 234.701 15.0157   4
   3  -1 -12 245.598 13.8325  13
   3   1 -12 220.192 12.9822  13
  -3   1  12 228.842 13.2015  11
   3   1 -12 259.731 14.6911   7
   3   1 -12 236.258 15.5248   4
  -3   1  12 222.891 17.0864   9
  -1  -1  12 310.359 17.3754  11
   1  -1 -12 309.520 17.4369   4
  -1  -1  12 327.339 21.0448   9
   1  -1 -12 300.640 15.8562  13
   1   1 -12 286.577 16.3864   7
   1   1 -12 304.552 17.7773   4
  -1   1  12 307.041 17.2540  11
   1   1 -12 281.602 15.4104  13
 -10  -2  12 152.971 15.7363   3
  10  -2 -12 109.373 10.4606   1
  10  -2 -12 126.099 10.7896  13
  10   2 -12 128.266 10.9409  13
 -10   2  12 133.825 15.3445   3
   8  -2 -12 40.7712 6.42213   4
   8  -2 -12 41.2352 5.00780  16
  -8  -2  12 49.2355 7.71479   9
  -8  -2  12 43.6284 8.99125   3
   8  -2 -12 43.5749 6.84944  13
   8  -2 -12 30.6843 5.44109   1
   8   2 -12 55.5143 7.35131  13
   8   2 -12 42.9498 7.58869   4
  -6  -2  12 303.771 19.0867   9
   6  -2 -12 294.423 17.2534   4
   6  -2 -12 296.385 15.9610  13
   6   2 -12 302.079 15.8873  13
   6   2 -12 305.886 18.0847   4
  -6   2  12 305.902 18.5181   9
   4  -2 -12 592.843 25.8419  13
   4  -2 -12 580.606 26.6127   4
  -4  -2  12 608.888 30.3221   9
   4   2 -12 536.688 24.3307  13
   4   2 -12 573.573 27.5754   4
   2  -2 -12 136.069 10.1988  13
   2  -2 -12 163.994 12.4011   4
  -2  -2  12 169.850 15.0330   9
   2   2 -12 149.406 10.0000  13
   2   2 -12 170.776 12.2551   7
  -2   2  12 165.334 11.4281  11
   2   2 -12 169.463 13.0483   4
   0  -2 -12 103.285 10.4376   4
   0  -2 -12 102.967 8.63485  13
   0  -2  12 124.208 13.1658   9
   0   2  12 98.2951 10.3945  11
   0   2 -12 104.291 9.71961   7
   0   2 -12 84.1414 10.3489   4
  -9  -3  12 517.341 26.0147   9
   9  -3 -12 511.507 25.4163   4
  -9  -3  12 583.493 32.0358   3
   9  -3 -12 522.335 24.8642  13
   9  -3 -12 531.945 24.8046   1
   9   3 -12 521.955 27.1408   4
   9   3 -12 525.681 24.4900  13
   7  -3 -12 875.912 36.2900  13
  -7  -3  12 915.002 41.7730   3
   7  -3 -12 882.672 37.4059   4
  -7  -3  12 858.620 39.2983   9
   7  -3 -12 863.072 34.5396  16
   7   3 -12 883.368 38.2772   4
   7   3 -12 923.237 36.5342  13
  -7   3  12 880.966 38.1823   9
  -7   3  12 907.820 41.0480   2
  -5  -3  12 733.996 34.9816   9
   5  -3 -12 760.028 32.3432   4
   5  -3 -12 720.027 31.0697  13
   5   3 -12 744.100 33.2434   4
  -5   3  12 740.491 36.9377   2
   5   3 -12 748.306 30.4702  13
   3  -3 -12 774.645 32.6537   4
   3  -3 -12 737.320 31.5729  13
  -3  -3  12 761.901 36.4374   9
   3   3 -12 744.161 33.5784   4
   3   3 -12 773.670 33.0724   7
  -3   3  12 774.541 38.4091   2
  -3   3  12 676.221 30.6529  11
  -1  -3  12 680.538 34.1121   9
   1  -3 -12 664.527 29.8600   4
   1  -3 -12 664.315 28.8062  13
   1   3 -12 682.377 30.2010   7
   1   3 -12 627.777 30.4782   4
  -1   3  12 655.240 30.0581  11
 -10  -4  12 168.884 17.5517   3
  10  -4 -12 158.987 12.2844   1
 -10  -4  12 133.874 11.7647   9
  10  -4 -12 144.734 11.5264  13
 -10  -4  12 171.512 15.0222  14
  10   4 -12 146.931 11.6713  13
   8  -4 -12 102.971 9.31103  13
  -8  -4  12 82.1328 10.2372   9
  -8  -4  12 82.2336 12.0393   3
   8  -4 -12 87.9638 8.74681   1
  -8   4  12 116.614 10.2782   2
   8   4 -12 86.6576 7.79557  13
   8   4 -12 101.552 11.4528   4
  -6  -4  12 33.0253 7.20302   3
   6  -4 -12 24.6344 4.93011   1
   6  -4 -12 25.0348 4.25578  16
  -6  -4  12 22.1582 5.57841   9
   6  -4 -12 28.0983 4.86966  13
   6   4 -12 35.7372 7.04282   4
   6   4 -12 24.3330 4.71870  13
  -6   4  12 27.9487 5.88253   9
  -6   4  12 22.3095 6.12462   2
  -4  -4  12 23.5592 6.09401   9
   4  -4 -12 29.0634 5.10088  13
   4  -4 -12 16.7355 4.69428   4
  -4   4  12 20.2280 6.53740   2
   4   4 -12 19.7033 5.12080   4
   4   4 -12 22.7200 5.76331   7
   2  -4 -12 18.5319 4.41511  13
  -2  -4  12 19.4520 6.56705   9
  -2   4  12 24.4454 4.68174  11
   2   4 -12 11.2067 5.44207   4
  -2   4  12 8.63484 5.93285   2
   2   4 -12 13.3144 5.11853   7
  -9  -5  12 277.071 22.0860   3
  -9  -5  12 257.027 16.7038   9
   9  -5 -12 243.545 14.4558  13
   9   5 -12 273.140 17.6173   4
   9   5 -12 258.915 14.9356  13
   7  -5 -12 296.975 16.0396   1
   7  -5 -12 304.260 16.1689  13
  -7  -5  12 278.561 18.2248   9
  -7  -5  12 296.336 20.7088   3
  -7   5  12 290.459 19.4591   2
   7   5 -12 261.485 17.3028   4
   5  -5 -12 182.245 11.5413   1
  -5  -5  12 174.902 14.7418   9
   5  -5 -12 162.973 10.9701  13
   5   5 -12 167.563 12.7308   7
  -5   5  12 175.042 16.0460   2
   5   5 -12 173.518 12.8063   4
  -3  -5  12 181.170 15.3903   9
   3  -5 -12 174.569 12.2975  13
   3   5 -12 193.452 14.3395   7
   3   5 -12 166.658 12.9115   4
  -3   5  12 196.326 16.5141   2
   1  -5 -12 295.147 16.2641  13
  -1  -5  12 300.199 19.6839   9
  -1   5  12 298.695 20.5902   2
  -1   5  12 318.450 17.2449  11
   1   5 -12 288.293 18.2722   7
   1   5 -12 315.539 19.0352   4
   8  -6 -12 528.550 24.6584  13
  -8  -6  12 537.242 31.3784   3
  -8  -6  12 566.592 28.5252   9
   8  -6 -12 539.058 25.3405   1
  -8   6  12 538.744 28.0128   2
   6  -6 -12 737.141 31.2423   1
  -6  -6  12 745.554 35.5132   9
   6  -6 -12 718.004 30.9952  13
  -6  -6  12 713.026 35.9878   3
   6   6 -12 738.256 33.8971   7
   6   6 -12 728.367 33.2481   4
  -6   6  12 707.490 36.7627   2
   4  -6 -12 1008.49 40.9324  13
  -4  -6  12 1054.47 45.7138   9
   4  -6 -12 1045.51 40.5872   1
   4   6 -12 957.311 42.3470   4
  -4   6  12 995.969 48.2493   2
   4   6 -12 1003.93 43.3503   7
   2  -6 -12 780.216 33.3150  13
  -2  -6  12 819.290 37.7787   9
   2   6 -12 782.840 35.3551   4
  -2   6  12 785.923 38.8920   2
   2   6 -12 812.173 35.8324   7
  -2   6  12 699.081 32.6652  11
  -7  -7  12 85.1759 11.0964   9
  -5  -7  12 241.441 17.8387   9
   5  -7 -12 240.227 14.4651   1
   5  -7 -12 228.026 14.0927  13
   5   7 -12 226.804 15.7088   4
  -5   7  12 227.766 18.8945   2
   5   7 -12 239.604 16.3862   7
 -10   0  13 -0.2631 5.43347   3
  10   0 -13 1.48081 4.31523   4
  10   0 -13 0.69383 2.96672  13
  -8   0  13 1.42092 3.97185   9
   8   0 -13 0.69253 3.93325   4
   8   0 -13 1.49853 3.96113  13
  -6   0  13 2.48563 3.30255   9
   6   0 -13 3.49189 3.90620  13
   6   0 -13 4.18957 4.48659   4
   4   0 -13 5.07809 3.60144   7
  -4   0  13 -2.6244 2.67142   9
   4   0 -13 4.50343 3.55244   4
   4   0 -13 -1.5221 2.24093  13
   2   0 -13 0.67031 4.28522   4
  -2   0  13 4.14259 3.11040  11
   2   0 -13 2.56748 3.60462  13
  -2   0  13 2.47454 4.70614   9
  -9  -1  13 93.6786 12.6500   3
   9  -1 -13 83.6094 9.52776  13
   9  -1 -13 93.8544 10.4414   4
   9   1 -13 73.5947 8.30086  13
   9   1 -13 90.9700 10.1034   4
   7  -1 -13 113.589 10.3031   4
   7  -1 -13 107.681 10.3706  13
  -7  -1  13 101.520 10.4061   9
  -7   1  13 108.056 11.0896   9
   7   1 -13 114.277 11.8833   4
   7   1 -13 99.9628 8.62654  13
   5  -1 -13 23.7889 5.38148  13
   5  -1 -13 25.8179 6.26494   4
  -5  -1  13 21.6989 6.58181   9
   5   1 -13 15.2556 4.50843  13
   5   1 -13 25.4804 5.59886   4
  -5   1  13 32.9195 7.58545   9
   3  -1 -13 -2.8767 3.21107  13
   3  -1 -13 -0.2343 4.18268   4
  -3  -1  13 -0.1094 2.99644   9
   3   1 -13 4.07657 3.58569  13
   3   1 -13 -2.7283 2.62142   4
  -3   1  13 -2.1011 4.46961   9
   3   1 -13 -4.3226 3.10543   7
  -8  -2  13 103.667 10.7607   9
   8  -2 -13 103.361 10.4530   4
   8  -2 -13 105.338 10.0194  13
   8   2 -13 123.041 10.0732  13
   8   2 -13 85.3656 10.3085   4
   6  -2 -13 222.555 15.2977   4
  -6  -2  13 230.064 16.4731   9
   6  -2 -13 249.352 14.6937  13
   6   2 -13 218.243 13.6344  13
  -6   2  13 260.445 17.3386   9
   6   2 -13 235.216 15.3927   4
   4  -2 -13 178.835 12.4714  13
   4  -2 -13 184.545 13.3185   4
  -4  -2  13 181.784 14.9825   9
   4   2 -13 164.256 10.5823  13
   4   2 -13 184.001 13.1063   7
  -4   2  13 181.185 15.3429   9
   4   2 -13 181.514 13.2826   4
  -2  -2  13 121.921 12.6248   9
   2  -2 -13 122.910 10.5391  13
   2  -2 -13 107.844 9.97511   4
   2   2 -13 111.913 10.5016   7
   2   2 -13 119.152 11.0340   4
  -2   2  13 136.300 9.90972  11
   9  -3 -13 34.5164 6.15473   1
  -9  -3  13 32.1809 8.24116   3
   9  -3 -13 32.1380 5.46212  13
   9  -3 -13 34.1658 6.42579   4
  -9  -3  13 21.8477 5.96724   9
   9   3 -13 31.3799 6.95442   4
   9   3 -13 29.0589 6.06478  13
   7  -3 -13 8.16534 3.52373   4
   7  -3 -13 8.30931 4.60550  13
  -7  -3  13 5.10332 3.70793   9
  -7   3  13 6.38557 4.41888   9
   7   3 -13 8.74021 4.12552  13
   7   3 -13 9.75230 4.29452   4
   5  -3 -13 18.3602 5.08263  13
  -5  -3  13 27.2088 7.48200   9
   5  -3 -13 16.6322 5.02392   4
   5   3 -13 18.0020 5.62411   7
   5   3 -13 14.7782 5.61215   4
  -5   3  13 30.8219 7.10365   9
   5   3 -13 14.4571 4.01087  13
   3  -3 -13 7.71173 3.54262   4
   3  -3 -13 9.38856 3.69070  13
  -3  -3  13 7.25222 5.50366   9
   3   3 -13 8.70646 4.82864   7
   3   3 -13 -1.7213 3.17018   4
   8  -4 -13 38.6240 5.98536   1
  -8  -4  13 59.6215 10.4363   3
  -8  -4  13 46.0270 7.78617   9
   8  -4 -13 64.8918 7.28360  13
   8   4 -13 66.3734 9.24634   4
   8   4 -13 74.2452 8.08501  13
   6  -4 -13 21.8557 5.47930  13
  -6  -4  13 17.6076 5.35745   9
  -6   4  13 19.9985 5.09071   9
   6   4 -13 13.2070 4.61484   4
  -6   4  13 20.9377 6.13207   2
   4  -4 -13 79.2991 9.08108  13
  -4  -4  13 90.4557 11.6384   9
   4   4 -13 95.3617 11.0928   7
  -4   4  13 117.435 15.2319   2
   7  -5 -13 14.6107 4.60550   1
   7  -5 -13 10.6665 4.63234  13
  -7  -5  13 13.7673 4.69955   9
  -7   5  13 26.3830 5.47098   2
   7   5 -13 13.2195 5.51907   4
   5  -5 -13 28.6537 5.11393  13
  -5  -5  13 19.9629 5.81453   9
   5   5 -13 23.5765 6.22908   7
  -5   5  13 37.6651 7.66767   2
   5   5 -13 27.0158 6.72271   4
   6   0 -14 6.63820 3.52078  13
  -6   0  14 3.14368 3.49399   9
   6   0 -14 7.59112 5.20541   4
  -7  -1  14 442.599 25.2373   9
   7  -1 -14 420.550 22.8511   4
   7  -1 -14 433.251 22.0054  13
  -7   1  14 420.991 24.3638   9
   7   1 -14 430.258 21.4962  13
   7   1 -14 453.484 24.1870   4
   5  -1 -14 400.938 21.6879   4
  -5  -1  14 394.043 24.2086   9
   5  -1 -14 361.656 19.3984  13
   5   1 -14 368.730 21.5983   4
  -5   1  14 366.007 22.9865   9
   5   1 -14 372.533 20.4548   7
  -6  -2  14 394.035 23.9953   9
  -6   2  14 360.240 22.2497   9
   0   0   0    0.00    0.00   0

 _exptl_absorpt_process_details
)
 SADABS 2016/2: Krause, L., Herbst-Irmer, R., Sheldrick G.M. & Stalke D.,
 J. Appl. Cryst. 48 (2015) 3-10
)
 _exptl_absorpt_correction_type   multi-scan
 _exptl_absorpt_correction_T_max  0.7479
 _exptl_absorpt_correction_T_min  0.5337
 _exptl_special_details
)
 The following wavelength and cell were deduced by SADABS from the
 direction cosines etc. They are given here for emergency use only:
 CELL 0.71068    7.091    7.552    7.787   90.036  118.668   89.941
)

;
_shelx_hkl_checksum              64724
loop_
_space_group_symop_operation_xyz
'x, y, z'
'-x, y, -z+1/2'
'x+1/2, y+1/2, z'
'-x+1/2, y+1/2, -z+1/2'
'-x, -y, -z'
'x, -y, z-1/2'
'-x+1/2, -y+1/2, -z'
'x+1/2, -y+1/2, z-1/2'
loop_
_atom_site_label
_atom_site_type_symbol
_atom_site_fract_x
_atom_site_fract_y
_atom_site_fract_z
_atom_site_U_iso_or_equiv
_atom_site_adp_type
_atom_site_occupancy
_atom_site_site_symmetry_order
_atom_site_calc_flag
_atom_site_refinement_flags_posn
_atom_site_refinement_flags_adp
_atom_site_refinement_flags_occupancy
_atom_site_disorder_assembly
_atom_site_disorder_group
Fe Fe 0.000000 0.500000 0.000000 0.00928(5) Uani 1 2 d S . P . .
S S 0.000000 0.15309(3) 0.250000 0.00781(5) Uani 1 2 d S T P . .
O1 O 0.16949(8) 0.04222(8) 0.39797(8) 0.01594(9) Uani 1 1 d . . . . .
O2 O 0.09559(8) 0.26774(7) 0.15682(8) 0.01397(9) Uani 1 1 d . . . . .
O3 O 0.000000 0.64483(10) 0.250000 0.01298(11) Uani 1 2 d S T P . .
H H 0.107(3) 0.722(3) 0.297(2) 0.040(4) Uiso 1 1 d . . . . .
loop_
_atom_site_aniso_label
_atom_site_aniso_U_11
_atom_site_aniso_U_22
_atom_site_aniso_U_33
_atom_site_aniso_U_23
_atom_site_aniso_U_13
_atom_site_aniso_U_12
Fe 0.00841(6) 0.00935(6) 0.00991(6) 0.00092(3) 0.00425(4) -0.00014(3)
S 0.00596(7) 0.00716(8) 0.00993(8) 0.000 0.00352(6) 0.000
O1 0.00969(17) 0.0176(2) 0.0190(2) 0.00856(17) 0.00563(15) 0.00462(16)
O2 0.01329(18) 0.01247(18) 0.0190(2) 0.00557(15) 0.01008(16) 0.00163(14)
O3 0.0133(2) 0.0137(3) 0.0127(2) 0.000 0.0069(2) 0.000
loop_
_atom_type_symbol
_atom_type_description
_atom_type_scat_dispersion_real
_atom_type_scat_dispersion_imag
_atom_type_scat_source
O O 0.0106 0.0060 'International Tables Vol C Tables 4.2.6.8 and 6.1.1.4'
H H 0.0000 0.0000 'International Tables Vol C Tables 4.2.6.8 and 6.1.1.4'
S S 0.1246 0.1234 'International Tables Vol C Tables 4.2.6.8 and 6.1.1.4'
Mg Mg 0.0486 0.0363 'International Tables Vol C Tables 4.2.6.8 and 6.1.1.4'
Fe Fe 0.3463 0.8444 'International Tables Vol C Tables 4.2.6.8 and 6.1.1.4'
loop_
_geom_angle_atom_site_label_1
_geom_angle_atom_site_label_2
_geom_angle_atom_site_label_3
_geom_angle
_geom_angle_site_symmetry_1
_geom_angle_site_symmetry_3
_geom_angle_publ_flag
O2 Fe O2 180.00(3) 5_565 . ?
O2 Fe O1 85.11(2) 5_565 8_455 ?
O2 Fe O1 94.89(2) . 8_455 ?
O2 Fe O1 94.89(2) 5_565 4 ?
O2 Fe O1 85.11(2) . 4 ?
O1 Fe O1 180.0 8_455 4 ?
O2 Fe O3 87.81(2) 5_565 . ?
O2 Fe O3 92.19(2) . . ?
O1 Fe O3 86.435(18) 8_455 . ?
O1 Fe O3 93.565(18) 4 . ?
O2 Fe O3 92.19(2) 5_565 5_565 ?
O2 Fe O3 87.81(2) . 5_565 ?
O1 Fe O3 93.565(18) 8_455 5_565 ?
O1 Fe O3 86.435(18) 4 5_565 ?
O3 Fe O3 180.0 . 5_565 ?
O2 Fe O2 97.125(13) 5_565 8_455 ?
O2 Fe O2 82.875(14) . 8_455 ?
O1 Fe O2 42.627(18) 8_455 8_455 ?
O1 Fe O2 137.373(18) 4 8_455 ?
O3 Fe O2 127.560(13) . 8_455 ?
O3 Fe O2 52.440(13) 5_565 8_455 ?
O2 Fe O2 82.875(13) 5_565 4 ?
O2 Fe O2 97.125(14) . 4 ?
O1 Fe O2 137.373(17) 8_455 4 ?
O1 Fe O2 42.627(18) 4 4 ?
O3 Fe O2 52.440(13) . 4 ?
O3 Fe O2 127.560(13) 5_565 4 ?
O2 Fe O2 180.0 8_455 4 ?
O2 Fe O2 41.756(18) 5_565 6_565 ?
O2 Fe O2 138.244(18) . 6_565 ?
O1 Fe O2 111.91(2) 8_455 6_565 ?
O1 Fe O2 68.09(2) 4 6_565 ?
O3 Fe O2 119.84(2) . 6_565 ?
O3 Fe O2 60.16(2) 5_565 6_565 ?
O2 Fe O2 95.428(17) 8_455 6_565 ?
O2 Fe O2 84.572(16) 4 6_565 ?
O2 Fe O2 138.244(18) 5_565 2 ?
O2 Fe O2 41.756(18) . 2 ?
O1 Fe O2 68.09(2) 8_455 2 ?
O1 Fe O2 111.91(2) 4 2 ?
O3 Fe O2 60.16(2) . 2 ?
O3 Fe O2 119.84(2) 5_565 2 ?
O2 Fe O2 84.572(17) 8_455 2 ?
O2 Fe O2 95.428(16) 4 2 ?
O2 Fe O2 180.000(17) 6_565 2 ?
O1 S O1 110.27(5) . 2 ?
O1 S O2 108.82(3) . . ?
O1 S O2 110.11(3) 2 . ?
O1 S O2 110.11(3) . 2 ?
O1 S O2 108.82(3) 2 2 ?
O2 S O2 108.70(4) . 2 ?
S O1 Fe 136.72(3) . 4_545 ?
S O1 O2 35.881(18) . . ?
Fe O1 O2 100.87(3) 4_545 . ?
S O1 O1 34.87(3) . 2 ?
Fe O1 O1 141.43(4) 4_545 2 ?
O2 O1 O1 60.47(2) . 2 ?
S O1 O2 35.23(2) . 2 ?
Fe O1 O2 143.43(3) 4_545 2 ?
O2 O1 O2 60.15(3) . 2 ?
O1 O1 O2 59.68(2) 2 2 ?
S O1 O2 128.57(4) . 4_545 ?
Fe O1 O2 46.693(16) 4_545 4_545 ?
O2 O1 O2 109.09(2) . 4_545 ?
O1 O1 O2 104.31(3) 2 4_545 ?
O2 O1 O2 163.28(3) 2 4_545 ?
S O1 O3 169.60(4) . 7_556 ?
Fe O1 O3 48.536(13) 4_545 7_556 ?
O2 O1 O3 146.97(3) . 7_556 ?
O1 O1 O3 150.20(2) 2 7_556 ?
O2 O1 O3 134.42(3) 2 7_556 ?
O2 O1 O3 61.823(19) 4_545 7_556 ?
S O1 O2 115.32(3) . 8_556 ?
Fe O1 O2 41.923(16) 4_545 8_556 ?
O2 O1 O2 87.63(2) . 8_556 ?
O1 O1 O2 147.90(2) 2 8_556 ?
O2 O1 O2 102.95(3) 2 8_556 ?
O2 O1 O2 88.62(2) 4_545 8_556 ?
O3 O1 O2 61.57(2) 7_556 8_556 ?
S O1 O3 92.61(3) . 3_545 ?
Fe O1 O3 44.766(14) 4_545 3_545 ?
O2 O1 O3 57.54(2) . 3_545 ?
O1 O1 O3 103.07(3) 2 3_545 ?
O2 O1 O3 114.35(3) 2 3_545 ?
O2 O1 O3 61.96(2) 4_545 3_545 ?
O3 O1 O3 93.30(2) 7_556 3_545 ?
O2 O1 O3 57.057(17) 8_556 3_545 ?
S O1 O3 103.05(3) . 1_545 ?
Fe O1 O3 98.64(2) 4_545 1_545 ?
O2 O1 O3 118.41(3) . 1_545 ?
O1 O1 O3 68.178(11) 2 1_545 ?
O2 O1 O3 117.78(2) 2 1_545 ?
O2 O1 O3 53.758(18) 4_545 1_545 ?
O3 O1 O3 83.194(19) 7_556 1_545 ?
O2 O1 O3 138.52(2) 8_556 1_545 ?
O3 O1 O3 108.15(2) 3_545 1_545 ?
S O1 O2 125.22(3) . 6_556 ?
Fe O1 O2 97.84(2) 4_545 6_556 ?
O2 O1 O2 160.91(3) . 6_556 ?
O1 O1 O2 101.96(2) 2 6_556 ?
O2 O1 O2 105.69(2) 2 6_556 ?
O2 O1 O2 81.29(2) 4_545 6_556 ?
O3 O1 O2 51.992(16) 7_556 6_556 ?
O2 O1 O2 109.06(2) 8_556 6_556 ?
O3 O1 O2 139.51(2) 3_545 6_556 ?
O3 O1 O2 54.310(15) 1_545 6_556 ?
S O1 O2 112.38(3) . 7_556 ?
Fe O1 O2 76.36(2) 4_545 7_556 ?
O2 O1 O2 108.53(3) . 7_556 ?
O1 O1 O2 139.60(3) 2 7_556 ?
O2 O1 O2 80.81(2) 2 7_556 ?
O2 O1 O2 115.68(2) 4_545 7_556 ?
O3 O1 O2 58.05(2) 7_556 7_556 ?
O2 O1 O2 43.801(19) 8_556 7_556 ?
O3 O1 O2 100.56(2) 3_545 7_556 ?
O3 O1 O2 132.783(19) 1_545 7_556 ?
O2 O1 O2 79.523(17) 6_556 7_556 ?
S O2 Fe 133.54(3) . . ?
S O2 O1 35.298(18) . . ?
Fe O2 O1 162.88(3) . . ?
S O2 O2 35.65(2) . 2 ?
Fe O2 O2 103.668(19) . 2 ?
O1 O2 O2 60.32(2) . 2 ?
S O2 O1 34.663(19) . 2 ?
Fe O2 O1 119.25(3) . 2 ?
O1 O2 O1 59.85(3) . 2 ?
O2 O2 O1 59.53(2) 2 2 ?
S O2 O3 109.61(3) . 3_545 ?
Fe O2 O3 116.61(2) . 3_545 ?
O1 O2 O3 75.29(2) . 3_545 ?
O2 O2 O3 130.86(3) 2 3_545 ?
O1 O2 O3 115.56(3) 2 3_545 ?
S O2 O1 160.78(3) . 4 ?
Fe O2 O1 48.194(17) . 4 ?
O1 O2 O1 135.86(2) . 4 ?
O2 O2 O1 129.364(19) 2 4 ?
O1 O2 O1 163.28(3) 2 4 ?
O3 O2 O1 70.84(2) 3_545 4 ?
S O2 O3 136.39(3) . 5_565 ?
Fe O2 O3 48.520(17) . 5_565 ?
O1 O2 O3 147.41(3) . 5_565 ?
O2 O2 O3 137.05(3) 2 5_565 ?
O1 O2 O3 101.96(3) 2 5_565 ?
O3 O2 O3 91.842(19) 3_545 5_565 ?
O1 O2 O3 61.667(19) 4 5_565 ?
S O2 O1 93.26(3) . 8_455 ?
Fe O2 O1 43.189(15) . 8_455 ?
O1 O2 O1 128.52(3) . 8_455 ?
O2 O2 O1 74.61(3) 2 8_455 ?
O1 O2 O1 77.05(3) 2 8_455 ?
O3 O2 O1 154.43(2) 3_545 8_455 ?
O1 O2 O1 91.38(2) 4 8_455 ?
O3 O2 O1 63.091(18) 5_565 8_455 ?
S O2 O3 102.68(3) . . ?
Fe O2 O3 46.155(14) . . ?
O1 O2 O3 117.41(3) . . ?
O2 O2 O3 67.028(11) 2 . ?
O1 O2 O3 116.78(2) 2 . ?
O3 O2 O3 124.40(2) 3_545 . ?
O1 O2 O3 64.536(19) 4 . ?
O3 O2 O3 94.675(17) 5_565 . ?
O1 O2 O3 57.706(15) 8_455 . ?
S O2 O1 97.37(3) . 6 ?
Fe O2 O1 110.31(2) . 6 ?
O1 O2 O1 86.273(19) . 6 ?
O2 O2 O1 131.926(17) 2 6 ?
O1 O2 O1 74.31(2) 2 6 ?
O3 O2 O1 58.076(18) 3_545 6 ?
O1 O2 O1 98.71(2) 4 6 ?
O3 O2 O1 61.86(2) 5_565 6 ?
O1 O2 O1 109.06(2) 8_455 6 ?
O3 O2 O1 156.31(2) . 6 ?
S O2 O1 82.08(3) . 7_556 ?
Fe O2 O1 96.15(2) . 7_556 ?
O1 O2 O1 71.47(3) . 7_556 ?
O2 O2 O1 61.59(2) 2 7_556 ?
O1 O2 O1 116.20(3) 2 7_556 ?
O3 O2 O1 86.20(2) 3_545 7_556 ?
O1 O2 O1 78.771(18) 4 7_556 ?
O3 O2 O1 138.51(2) 5_565 7_556 ?
O1 O2 O1 108.81(2) 8_455 7_556 ?
O3 O2 O1 54.649(14) . 7_556 ?
O1 O2 O1 142.09(2) 6 7_556 ?
Fe O3 Fe 121.33(3) . 2 ?
Fe O3 O2 111.712(15) . 3_455 ?
Fe O3 O2 87.683(13) 2 3_455 ?
Fe O3 O2 87.683(14) . 4 ?
Fe O3 O2 111.712(15) 2 4 ?
O2 O3 O2 140.70(4) 3_455 4 ?
Fe O3 O1 45.029(14) . 8_455 ?
Fe O3 O1 103.96(3) 2 8_455 ?
O2 O3 O1 69.932(19) 3_455 8_455 ?
O2 O3 O1 131.505(17) 4 8_455 ?
Fe O3 O1 103.96(3) . 7_556 ?
Fe O3 O1 45.029(14) 2 7_556 ?
O2 O3 O1 131.505(17) 3_455 7_556 ?
O2 O3 O1 69.932(19) 4 7_556 ?
O1 O3 O1 123.27(4) 8_455 7_556 ?
Fe O3 O2 160.16(3) . 6_566 ?
Fe O3 O2 43.667(12) 2 6_566 ?
O2 O3 O2 83.280(18) 3_455 6_566 ?
O2 O3 O2 88.158(19) 4 6_566 ?
O1 O3 O2 139.687(19) 8_455 6_566 ?
O1 O3 O2 56.509(18) 7_556 6_566 ?
Fe O3 O2 43.667(13) . 5_565 ?
Fe O3 O2 160.16(3) 2 5_565 ?
O2 O3 O2 88.158(19) 3_455 5_565 ?
O2 O3 O2 83.281(18) 4 5_565 ?
O1 O3 O2 56.509(18) 8_455 5_565 ?
O1 O3 O2 139.687(19) 7_556 5_565 ?
O2 O3 O2 154.38(3) 6_566 5_565 ?
Fe O3 O2 81.08(2) . 2 ?
Fe O3 O2 41.658(15) 2 2 ?
O2 O3 O2 93.112(15) 3_455 2 ?
O2 O3 O2 124.40(2) 4 2 ?
O1 O3 O2 67.30(2) 8_455 2 ?
O1 O3 O2 60.73(2) 7_556 2 ?
O2 O3 O2 85.325(17) 6_566 2 ?
O2 O3 O2 119.33(2) 5_565 2 ?
Fe O3 O2 41.658(15) . . ?
Fe O3 O2 81.08(2) 2 . ?
O2 O3 O2 124.40(2) 3_455 . ?
O2 O3 O2 93.112(15) 4 . ?
O1 O3 O2 60.73(2) 8_455 . ?
O1 O3 O2 67.30(2) 7_556 . ?
O2 O3 O2 119.33(2) 6_566 . ?
O2 O3 O2 85.325(17) 5_565 . ?
O2 O3 O2 45.94(2) 2 . ?
Fe O3 O1 120.47(2) . 3_455 ?
Fe O3 O1 41.669(12) 2 3_455 ?
O2 O3 O1 47.173(15) 3_455 3_455 ?
O2 O3 O1 147.619(17) 4 3_455 ?
O1 O3 O1 79.915(17) 8_455 3_455 ?
O1 O3 O1 86.70(2) 7_556 3_455 ?
O2 O3 O1 59.852(17) 6_566 3_455 ?
O2 O3 O1 127.652(16) 5_565 3_455 ?
O2 O3 O1 53.502(16) 2 3_455 ?
O2 O3 O1 98.27(2) . 3_455 ?
Fe O3 O1 41.669(12) . 4 ?
Fe O3 O1 120.47(2) 2 4 ?
O2 O3 O1 147.619(17) 3_455 4 ?
O2 O3 O1 47.173(15) 4 4 ?
O1 O3 O1 86.70(2) 8_455 4 ?
O1 O3 O1 79.915(17) 7_556 4 ?
O2 O3 O1 127.652(16) 6_566 4 ?
O2 O3 O1 59.852(17) 5_565 4 ?
O2 O3 O1 98.27(2) 2 4 ?
O2 O3 O1 53.502(16) . 4 ?
O1 O3 O1 151.65(3) 3_455 4 ?
Fe O3 H 109.1(11) . . ?
Fe O3 H 108.5(11) 2 . ?
O2 O3 H 117.7(12) 3_455 . ?
O2 O3 H 24.9(11) 4 . ?
O1 O3 H 146.8(11) 8_455 . ?
O1 O3 H 77.7(11) 7_556 . ?
O2 O3 H 72.4(11) 6_566 . ?
O2 O3 H 90.6(11) 5_565 . ?
O2 O3 H 138.4(11) 2 . ?
O2 O3 H 117.5(12) . . ?
O1 O3 H 130.3(11) 3_455 . ?
O1 O3 H 71.0(11) 4 . ?
Fe O3 H 108.5(11) . 2 ?
Fe O3 H 109.1(11) 2 2 ?
O2 O3 H 24.9(11) 3_455 2 ?
O2 O3 H 117.7(12) 4 2 ?
O1 O3 H 77.7(11) 8_455 2 ?
O1 O3 H 146.8(11) 7_556 2 ?
O2 O3 H 90.6(11) 6_566 2 ?
O2 O3 H 72.4(11) 5_565 2 ?
O2 O3 H 117.5(12) 2 2 ?
O2 O3 H 138.4(11) . 2 ?
O1 O3 H 71.0(11) 3_455 2 ?
O1 O3 H 130.3(11) 4 2 ?
H O3 H 98(2) . 2 ?
loop_
_geom_bond_atom_site_label_1
_geom_bond_atom_site_label_2
_geom_bond_distance
_geom_bond_site_symmetry_2
_geom_bond_publ_flag
Fe O2 2.0575(5) 5_565 ?
Fe O2 2.0575(5) . ?
Fe O1 2.1076(6) 8_455 ?
Fe O1 2.1076(6) 4 ?
Fe O3 2.2325(4) . ?
Fe O3 2.2325(4) 5_565 ?
Fe O2 3.4792(7) 8_455 ?
Fe O2 3.4792(7) 4 ?
Fe O2 3.5229(6) 6_565 ?
Fe O2 3.5229(6) 2 ?
S O1 1.4647(5) . ?
S O1 1.4647(5) 2 ?
S O2 1.4856(5) . ?
S O2 1.4856(5) 2 ?
O1 O2 2.3992(8) . ?
O1 O1 2.4035(11) 2 ?
O1 O2 2.4183(8) 2 ?
O1 O2 2.8172(8) 4_545 ?
O1 O3 2.9734(7) 7_556 ?
O1 O2 3.0683(9) 8_556 ?
O1 O3 3.1641(7) 3_545 ?
O1 O3 3.2329(10) 1_545 ?
O1 O2 3.2906(8) 6_556 ?
O1 O2 3.3632(9) 7_556 ?
O2 O2 2.4145(10) 2 ?
O2 O3 2.7603(7) 3_545 ?
O2 O3 2.9777(7) 5_565 ?
O2 O3 3.0932(9) . ?
O3 H 0.882(18) . ?
O3 H 0.882(18) 2 ?
loop_
_geom_hbond_atom_site_label_D
_geom_hbond_atom_site_label_H
_geom_hbond_atom_site_label_A
_geom_hbond_distance_DH
_geom_hbond_distance_HA
_geom_hbond_distance_DA
_geom_hbond_angle_DHA
_geom_hbond_site_symmetry_A
_geom_hbond_publ_flag
O3 H O2 0.882(18) 1.995(17) 2.7603(7) 144.3(16) 4 yes
