#------------------------------------------------------------------------------
#$Date: 2022-02-04 21:07:58 +0200 (Fri, 04 Feb 2022) $
#$Revision: 272564 $
#$URL: file:///home/coder/svn-repositories/cod/cif/1/56/53/1565380.cif $
#------------------------------------------------------------------------------
#
# This file is available in the Crystallography Open Database (COD),
# http://www.crystallography.net/
#
# All data on this site have been placed in the public domain by the
# contributors.
#
data_1565380
loop_
_publ_author_name
'Borys, Andryj M.'
'Clark, Ewan R.'
'Saines, Paul J.'
'Alberola, Antonio'
'Rawson, Jeremy M.'
_publ_section_title
;
 A short, versatile route towards benzothiadiazinyl radicals.
;
_journal_issue                   1
_journal_name_full               'Chemical science'
_journal_page_first              149
_journal_page_last               158
_journal_paper_doi               10.1039/d1sc04248c
_journal_volume                  13
_journal_year                    2021
_chemical_formula_moiety         'C14 H8 Cl4 N2 O S'
_chemical_formula_sum            'C14 H8 Cl4 N2 O S'
_chemical_formula_weight         394.08
_chemical_properties_physical    Moisture-sensitive
_space_group_crystal_system      triclinic
_space_group_IT_number           2
_space_group_name_Hall           '-P 1'
_space_group_name_H-M_alt        'P -1'
_atom_sites_solution_hydrogens   geom
_atom_sites_solution_primary     dual
_audit_creation_date             2018-06-25
_audit_creation_method
;
Olex2 1.2
(compiled 2018.05.29 svn.r3508 for OlexSys, GUI svn.r5506)
;
_audit_update_record
;
2021-08-03 deposited with the CCDC.	2021-11-23 downloaded from the CCDC.
;
_cell_angle_alpha                95.257(5)
_cell_angle_beta                 106.738(6)
_cell_angle_gamma                101.231(6)
_cell_formula_units_Z            2
_cell_length_a                   7.0073(5)
_cell_length_b                   9.6628(6)
_cell_length_c                   12.0172(7)
_cell_measurement_reflns_used    5355
_cell_measurement_temperature    100.0(5)
_cell_measurement_theta_max      74.9780
_cell_measurement_theta_min      4.5990
_cell_volume                     754.78(9)
_computing_cell_refinement       'CrysAlisPro 1.171.38.41 (Rigaku OD, 2015)'
_computing_data_collection       'CrysAlisPro 1.171.38.41 (Rigaku OD, 2015)'
_computing_data_reduction        'CrysAlisPro 1.171.38.41 (Rigaku OD, 2015)'
_computing_molecular_graphics    'Olex2 (Dolomanov et al., 2009)'
_computing_publication_material  'Olex2 (Dolomanov et al., 2009)'
_computing_structure_refinement  'ShelXL (Sheldrick, 2015)'
_computing_structure_solution    'ShelXT (Sheldrick, 2015)'
_diffrn_ambient_environment      N~2~
_diffrn_ambient_temperature      100.0(5)
_diffrn_detector                 'CCD plate'
_diffrn_detector_area_resol_mean 5.2887
_diffrn_detector_type            AtlasS2
_diffrn_measured_fraction_theta_full 1.000
_diffrn_measured_fraction_theta_max 1.000
_diffrn_measurement_details
;
List of Runs (angles in degrees, time in seconds):

  # Type    Start    End  Width  t~exp~   \w     \q     \k     \f   Frames
#--------------------------------------------------------------------------
  1  \w    -74.00  32.00   1.00    3.00    --  -42.20  77.00 -60.00  106
  2  \w   -112.00 -16.00   1.00    3.00    --  -42.20 -57.00  60.00   96
  3  \w    -69.00  28.00   1.00    3.00    --  -42.20  57.00-150.00   97
  4  \w      1.00  82.00   1.00    3.00    --   42.20 -99.00   0.00   81
  5  \w     11.00 116.00   1.00    3.00    --   42.20  77.00 150.00  105
  6  \w     31.00 156.00   1.00   11.00    --  111.00 -15.00-150.00  125
  7  \w     36.00 116.00   1.00   11.00    --  111.00-111.00-150.00   80
  8  \w     40.00 135.00   1.00   11.00    --  111.00 -45.00  30.00   95
  9  \w     36.00 116.00   1.00   11.00    --  111.00-111.00  60.00   80
 10  \w     30.00 109.00   1.00   11.00    --  111.00 -94.00-120.00   79
 11  \w     36.00 116.00   1.00   11.00    --  111.00-111.00 150.00   80
 12  \w     31.00 156.00   1.00   11.00    --  111.00 -15.00 -30.00  125
 13  \w     66.00 178.00   1.00   11.00    --  111.00  15.00-150.00  112
 14  \w    100.00 178.00   1.00   11.00    --  111.00 111.00-180.00   78
 15  \w     40.00 135.00   1.00   11.00    --  111.00 -45.00-120.00   95
 16  \w     30.00 109.00   1.00   11.00    --  111.00 -94.00 -90.00   79
 17  \w     41.00 139.00   1.00   11.00    --  111.00 -61.00 120.00   98
 18  \w     36.00 135.00   1.00   11.00    --  111.00 -30.00 120.00   99
 19  \w     36.00 116.00   1.00   11.00    --  111.00-111.00 -30.00   80
 20  \w     57.00 151.00   1.00   11.00    --  111.00 178.00 150.00   94
 21  \w     37.00 142.00   1.00   11.00    --  111.00 -77.00 -90.00  105
 22  \w   -112.00 -16.00   1.00    3.00    --  -42.20 -57.00   0.00   96
 23  \w   -112.00 -16.00   1.00    3.00    --  -42.20 -57.00-150.00   96
 24  \w   -116.00 -11.00   1.00    3.00    --  -42.20 -77.00 -60.00  105
 25  \w   -112.00 -16.00   1.00    3.00    --  -42.20 -57.00 150.00   96
 26  \w     11.00 116.00   1.00    3.00    --   42.20  77.00  60.00  105
 27  \w      1.00  82.00   1.00    3.00    --   42.20 -99.00  90.00   81
 28  \w     66.00 178.00   1.00   11.00    --  111.00  15.00  30.00  112
 29  \w     66.00 178.00   1.00   11.00    --  111.00  15.00 120.00  112
;
_diffrn_measurement_device       'four-circle diffractometer'
_diffrn_measurement_device_type  'SuperNova, Dual, Cu at zero, AtlasS2'
_diffrn_measurement_method       '\w scans'
_diffrn_orient_matrix_type
'CrysAlisPro convention (1999,Acta A55,543-557)'
_diffrn_orient_matrix_UB_11      0.0826065000
_diffrn_orient_matrix_UB_12      0.0118011000
_diffrn_orient_matrix_UB_13      0.1348244000
_diffrn_orient_matrix_UB_21      -0.1023898000
_diffrn_orient_matrix_UB_22      0.1250611000
_diffrn_orient_matrix_UB_23      0.0139857000
_diffrn_orient_matrix_UB_31      -0.1959457000
_diffrn_orient_matrix_UB_32      -0.1063545000
_diffrn_orient_matrix_UB_33      -0.0015969000
_diffrn_radiation_monochromator  mirror
_diffrn_radiation_probe          x-ray
_diffrn_radiation_type           CuK\a
_diffrn_radiation_wavelength     1.54184
_diffrn_reflns_av_R_equivalents  0.0508
_diffrn_reflns_av_unetI/netI     0.0319
_diffrn_reflns_Laue_measured_fraction_full 1.000
_diffrn_reflns_Laue_measured_fraction_max 1.000
_diffrn_reflns_limit_h_max       7
_diffrn_reflns_limit_h_min       -8
_diffrn_reflns_limit_k_max       10
_diffrn_reflns_limit_k_min       -11
_diffrn_reflns_limit_l_max       14
_diffrn_reflns_limit_l_min       -14
_diffrn_reflns_number            11718
_diffrn_reflns_point_group_measured_fraction_full 1.000
_diffrn_reflns_point_group_measured_fraction_max 1.000
_diffrn_reflns_theta_full        67.684
_diffrn_reflns_theta_max         72.122
_diffrn_reflns_theta_min         3.890
_diffrn_source                   'micro-focus sealed X-ray tube'
_diffrn_source_type              'SuperNova (Cu) X-ray Source'
_exptl_absorpt_coefficient_mu    8.438
_exptl_absorpt_correction_T_max  0.781
_exptl_absorpt_correction_T_min  0.324
_exptl_absorpt_correction_type   gaussian
_exptl_absorpt_process_details
;
CrysAlisPro 1.171.38.41 (Rigaku Oxford Diffraction, 2015)
Numerical absorption correction based on gaussian integration over
			a multifaceted crystal model
Empirical absorption correction using spherical harmonics,
 implemented in SCALE3 ABSPACK scaling algorithm.
;
_exptl_crystal_colour            'dark red'
_exptl_crystal_colour_modifier   dark
_exptl_crystal_colour_primary    red
_exptl_crystal_density_diffrn    1.734
_exptl_crystal_description       plank
_exptl_crystal_F_000             396
_exptl_crystal_size_max          0.222
_exptl_crystal_size_mid          0.040
_exptl_crystal_size_min          0.035
_refine_diff_density_max         0.643
_refine_diff_density_min         -0.391
_refine_diff_density_rms         0.082
_refine_ls_extinction_method     none
_refine_ls_goodness_of_fit_ref   1.028
_refine_ls_hydrogen_treatment    constr
_refine_ls_matrix_type           full
_refine_ls_number_parameters     200
_refine_ls_number_reflns         2964
_refine_ls_number_restraints     0
_refine_ls_restrained_S_all      1.028
_refine_ls_R_factor_all          0.0408
_refine_ls_R_factor_gt           0.0387
_refine_ls_shift/su_max          0.001
_refine_ls_shift/su_mean         0.000
_refine_ls_structure_factor_coef Fsqd
_refine_ls_weighting_details
'w=1/[\s^2^(Fo^2^)+(0.0675P)^2^+0.4578P] where P=(Fo^2^+2Fc^2^)/3'
_refine_ls_weighting_scheme      calc
_refine_ls_wR_factor_gt          0.1048
_refine_ls_wR_factor_ref         0.1073
_reflns_Friedel_coverage         0.000
_reflns_number_gt                2767
_reflns_number_total             2964
_reflns_threshold_expression     'I > 2\s(I)'
_iucr_refine_instructions_details
;
TITL abs-391-r1-rf_a.res in P-1
    abs-391-r1-rf.res
    created by SHELXL-2016/6 at 20:06:20 on 25-Jun-2018
REM Old TITL ABS-391-R1-rf in P-1
REM SHELXT solution in P-1
REM R1 0.092, Rweak 0.004, Alpha 0.029, Orientation as input
REM Formula found by SHELXT: C14 N2 O S Cl4
CELL 1.54184 7.0073 9.6628 12.0172 95.257 106.738 101.231
ZERR 2 0.0005 0.0006 0.0007 0.005 0.006 0.006
LATT 1
SFAC C H Cl N O S
UNIT 28 16 8 4 2 2

L.S. 24
PLAN  20
BOND $H
list 4
fmap 2
ACTA
SHEL 1000 0.81
REM <olex2.extras>
REM <HklSrc "%.\\ABS-391-R1-rf.hkl">
REM </olex2.extras>

WGHT    0.067500    0.457800
FVAR       0.42036
CL4   3    0.300097    0.276323    0.946233    11.00000    0.02604    0.02703 =
         0.02272    0.00598    0.00330    0.00506
CL3   3    0.235935    0.059687    0.722058    11.00000    0.03102    0.01799 =
         0.02921    0.00517    0.00385    0.00266
CL2   3    0.229251    0.170024    0.484206    11.00000    0.03202    0.01829 =
         0.02450   -0.00030    0.00250    0.00424
S1    6    0.277941    0.700495    0.685877    11.00000    0.02729    0.01894 =
         0.02564    0.00204    0.00596    0.00661
CL1   3    0.622495    0.797982    0.784738    11.00000    0.03407    0.02087 =
         0.02694    0.00231    0.00286    0.00019
O1    5    0.194704    0.722808    0.016822    11.00000    0.03353    0.02381 =
         0.02813    0.00639    0.01002    0.00495
N2    4    0.257536    0.474203    0.490788    11.00000    0.01882    0.01818 =
         0.02377    0.00271    0.00319    0.00188
N1    4    0.235604    0.712709    0.552454    11.00000    0.02578    0.02110 =
         0.02687    0.00359    0.00429    0.00710
C2    1    0.237203    0.641310    0.355890    11.00000    0.01445    0.02098 =
         0.02456    0.00292    0.00152    0.00331
C9    1    0.262946    0.432580    0.596365    11.00000    0.01346    0.01965 =
         0.02511    0.00333    0.00095    0.00157
C1    1    0.249024    0.605311    0.473512    11.00000    0.01470    0.01894 =
         0.02654    0.00194    0.00224    0.00160
C13   1    0.287567    0.476839    0.806640    11.00000    0.01597    0.02485 =
         0.02413   -0.00003    0.00222    0.00231
AFIX  43
H13   2    0.299722    0.540717    0.872447    11.00000   -1.20000
AFIX   0
C3    1    0.216177    0.533414    0.263679    11.00000    0.01838    0.01758 =
         0.02923    0.00312    0.00427    0.00389
AFIX  43
H3    2    0.211147    0.440004    0.277968    11.00000   -1.20000
AFIX   0
C11   1    0.258017    0.238075    0.712340    11.00000    0.01539    0.01653 =
         0.03087    0.00516    0.00110    0.00141
C7    1    0.244444    0.781223    0.332013    11.00000    0.01969    0.01897 =
         0.02866    0.00086    0.00382    0.00286
AFIX  43
H7    2    0.257376    0.853888    0.391946    11.00000   -1.20000
AFIX   0
C5    1    0.210860    0.704190    0.129773    11.00000    0.01703    0.02481 =
         0.02733    0.00526    0.00472    0.00299
C14   1    0.277002    0.522632    0.698356    11.00000    0.01502    0.01861 =
         0.02540    0.00145    0.00185    0.00166
C10   1    0.251001    0.285377    0.606419    11.00000    0.01436    0.02224 =
         0.02306    0.00105    0.00000    0.00185
C4    1    0.202913    0.563923    0.152497    11.00000    0.01999    0.02144 =
         0.02654    0.00181    0.00543    0.00276
AFIX  43
H4    2    0.188634    0.491241    0.092266    11.00000   -1.20000
AFIX   0
C6    1    0.232601    0.812799    0.220329    11.00000    0.01973    0.01681 =
         0.03126    0.00537    0.00540    0.00353
AFIX  43
H6    2    0.239152    0.906253    0.205879    11.00000   -1.20000
AFIX   0
C12   1    0.279454    0.334880    0.812791    11.00000    0.01661    0.02624 =
         0.02232    0.00640    0.00196    0.00244
C8    1    0.205819    0.864920   -0.010510    11.00000    0.04895    0.03050 =
         0.03212    0.01233    0.01457    0.01120
AFIX 137
H8A   2    0.198104    0.864090   -0.091642    11.00000   -1.50000
H8B   2    0.333002    0.926386    0.038550    11.00000   -1.50000
H8C   2    0.093795    0.899446    0.003260    11.00000   -1.50000
AFIX   0
HKLF 4




REM  abs-391-r1-rf_a.res in P-1
REM R1 =  0.0387 for    2767 Fo > 4sig(Fo)  and  0.0408 for all    2964 data
REM    200 parameters refined using      0 restraints

END  
     
WGHT      0.0675      0.4578 

REM Highest difference peak  0.643,  deepest hole -0.391,  1-sigma level  0.082
Q1    1   0.0551  0.8739 -0.0758  11.00000  0.05    0.64
Q2    1   0.2793  0.5657  0.9004  11.00000  0.05    0.57
Q3    1   0.2879  0.1982  0.8951  11.00000  0.05    0.49
Q4    1   0.2885  0.6052  0.6901  11.00000  0.05    0.45
Q5    1   0.2511  0.2455  0.4239  11.00000  0.05    0.45
Q6    1   0.2363  0.0272  0.6550  11.00000  0.05    0.42
Q7    1   0.2550  0.0970  0.5143  11.00000  0.05    0.39
Q8    1   0.0966  0.7401  0.7249  11.00000  0.05    0.36
Q9    1   0.2718  0.2653  0.6601  11.00000  0.05    0.34
Q10   1   0.2644  0.3642  0.5926  11.00000  0.05    0.34
Q11   1   0.2338  0.6350  0.1504  11.00000  0.05    0.33
Q12   1   0.2223  0.5762  0.3046  11.00000  0.05    0.33
Q13   1   0.2866  0.2860  0.7664  11.00000  0.05    0.32
Q14   1   0.2497  0.7144  0.3432  11.00000  0.05    0.32
Q15   1   0.2511  0.6831  0.7560  11.00000  0.05    0.32
Q16   1   0.1514  0.1898  0.9448  11.00000  0.05    0.30
Q17   1   0.4049  0.0709  0.7843  11.00000  0.05    0.30
Q18   1   0.4472  0.7336  0.7135  11.00000  0.05    0.30
Q19   1   0.2822  0.3637  0.9567  11.00000  0.05    0.30
Q20   1   0.1612  0.5451  0.2150  11.00000  0.05    0.30

  REM The information below was added by Olex2.
  REM
  REM R1 = 0.0387 for 2767 Fo > 4sig(Fo) and 0.0408 for all 11938 data
  REM n/a parameters refined using n/a restraints
  REM Highest difference peak 0.64, deepest hole -0.39
  REM Mean Shift 0, Max Shift 0.001.

  REM +++ Tabular Listing of Refinement Information +++
  REM R1_all = 0.0408
  REM R1_gt = 0.0387
  REM wR_ref = 0.1073
  REM GOOF = 1.028
  REM Shift_max = 0.001
  REM Shift_mean = 0
  REM Reflections_all = 11938
  REM Reflections_gt = 2767
  REM Parameters = n/a
  REM Hole = -0.39
  REM Peak = 0.64
  REM Flack = n/a

  
;
_cod_data_source_file            d1sc04248c2.cif
_cod_data_source_block           abs-391-r1-rf
_cod_depositor_comments
'Adding full bibliography for 1565368--1565385.cif.'
_cod_database_code               1565380
_shelx_shelxl_version_number     2016/6
_chemical_oxdiff_formula         'C14 S1 N2 O1 Cl4 H8'
_chemical_oxdiff_usercomment     ABS-391
_shelx_space_group_comment
;
The symmetry employed for this shelxl refinement is uniquely defined
by the following loop, which should always be used as a source of
symmetry information in preference to the above space-group names.
They are only intended as comments.
;
_reflns_odcompleteness_completeness 100.00
_reflns_odcompleteness_iscentric 1
_reflns_odcompleteness_theta     66.97
_olex2_refinement_description
;
1. Fixed Uiso
 At 1.2 times of:
  All C(H) groups
 At 1.5 times of:
  All C(H,H,H) groups
2.a Aromatic/amide H refined with riding coordinates:
 C13(H13), C3(H3), C7(H7), C4(H4), C6(H6)
2.b Idealised Me refined as rotating group:
 C8(H8A,H8B,H8C)
;
_olex2_submission_special_instructions 'No special instructions were received'
_oxdiff_exptl_absorpt_empirical_details
;
Empirical correction (ABSPACK) includes:
- Absorption correction using spherical harmonics
- Frame scaling
;
_oxdiff_exptl_absorpt_empirical_full_max 1.960
_oxdiff_exptl_absorpt_empirical_full_min 0.668
loop_
_space_group_symop_operation_xyz
'x, y, z'
'-x, -y, -z'
loop_
_atom_site_label
_atom_site_type_symbol
_atom_site_fract_x
_atom_site_fract_y
_atom_site_fract_z
_atom_site_U_iso_or_equiv
_atom_site_adp_type
_atom_site_occupancy
_atom_site_site_symmetry_order
_atom_site_calc_flag
_atom_site_refinement_flags_posn
_atom_site_refinement_flags_adp
_atom_site_refinement_flags_occupancy
_atom_site_disorder_assembly
_atom_site_disorder_group
Cl4 Cl 0.30010(8) 0.27632(6) 0.94623(5) 0.02623(16) Uani 1 1 d . . . . .
Cl3 Cl 0.23593(9) 0.05969(6) 0.72206(5) 0.02763(16) Uani 1 1 d . . . . .
Cl2 Cl 0.22925(9) 0.17002(6) 0.48421(5) 0.02679(16) Uani 1 1 d . . . . .
S1 S 0.27794(9) 0.70050(6) 0.68588(5) 0.02438(16) Uani 1 1 d . . . . .
Cl1 Cl 0.62249(9) 0.79798(6) 0.78474(5) 0.02974(17) Uani 1 1 d . . . . .
O1 O 0.1947(3) 0.72281(18) 0.01682(15) 0.0285(4) Uani 1 1 d . . . . .
N2 N 0.2575(3) 0.4742(2) 0.49079(17) 0.0214(4) Uani 1 1 d . . . . .
N1 N 0.2356(3) 0.7127(2) 0.55245(18) 0.0252(4) Uani 1 1 d . . . . .
C2 C 0.2372(3) 0.6413(2) 0.3559(2) 0.0212(4) Uani 1 1 d . . . . .
C9 C 0.2629(3) 0.4326(2) 0.5964(2) 0.0209(4) Uani 1 1 d . . . . .
C1 C 0.2490(3) 0.6053(2) 0.4735(2) 0.0214(4) Uani 1 1 d . . . . .
C13 C 0.2876(3) 0.4768(3) 0.8066(2) 0.0231(5) Uani 1 1 d . . . . .
H13 H 0.299722 0.540717 0.872447 0.028 Uiso 1 1 calc R . . . .
C3 C 0.2162(3) 0.5334(2) 0.2637(2) 0.0225(4) Uani 1 1 d . . . . .
H3 H 0.211147 0.440004 0.277968 0.027 Uiso 1 1 calc R . . . .
C11 C 0.2580(3) 0.2381(2) 0.7123(2) 0.0225(5) Uani 1 1 d . . . . .
C7 C 0.2444(3) 0.7812(2) 0.3320(2) 0.0237(5) Uani 1 1 d . . . . .
H7 H 0.257376 0.853888 0.391946 0.028 Uiso 1 1 calc R . . . .
C5 C 0.2109(3) 0.7042(3) 0.1298(2) 0.0237(5) Uani 1 1 d . . . . .
C14 C 0.2770(3) 0.5226(2) 0.6984(2) 0.0211(4) Uani 1 1 d . . . . .
C10 C 0.2510(3) 0.2854(2) 0.6064(2) 0.0217(4) Uani 1 1 d . . . . .
C4 C 0.2029(3) 0.5639(2) 0.1525(2) 0.0235(5) Uani 1 1 d . . . . .
H4 H 0.188634 0.491241 0.092266 0.028 Uiso 1 1 calc R . . . .
C6 C 0.2326(3) 0.8128(2) 0.2203(2) 0.0232(5) Uani 1 1 d . . . . .
H6 H 0.239152 0.906253 0.205879 0.028 Uiso 1 1 calc R . . . .
C12 C 0.2795(3) 0.3349(3) 0.8128(2) 0.0228(5) Uani 1 1 d . . . . .
C8 C 0.2058(5) 0.8649(3) -0.0105(2) 0.0360(6) Uani 1 1 d . . . . .
H8A H 0.198104 0.864090 -0.091642 0.054 Uiso 1 1 calc GR . . . .
H8B H 0.333002 0.926386 0.038550 0.054 Uiso 1 1 calc GR . . . .
H8C H 0.093795 0.899446 0.003260 0.054 Uiso 1 1 calc GR . . . .
loop_
_atom_site_aniso_label
_atom_site_aniso_U_11
_atom_site_aniso_U_22
_atom_site_aniso_U_33
_atom_site_aniso_U_23
_atom_site_aniso_U_13
_atom_site_aniso_U_12
Cl4 0.0260(3) 0.0270(3) 0.0227(3) 0.0060(2) 0.0033(2) 0.0051(2)
Cl3 0.0310(3) 0.0180(3) 0.0292(3) 0.0052(2) 0.0039(2) 0.0027(2)
Cl2 0.0320(3) 0.0183(3) 0.0245(3) -0.0003(2) 0.0025(2) 0.0042(2)
S1 0.0273(3) 0.0189(3) 0.0256(3) 0.0020(2) 0.0060(2) 0.0066(2)
Cl1 0.0341(3) 0.0209(3) 0.0269(3) 0.0023(2) 0.0029(2) 0.0002(2)
O1 0.0335(9) 0.0238(9) 0.0281(9) 0.0064(7) 0.0100(7) 0.0050(7)
N2 0.0188(9) 0.0182(9) 0.0238(9) 0.0027(7) 0.0032(7) 0.0019(7)
N1 0.0258(10) 0.0211(9) 0.0269(10) 0.0036(8) 0.0043(8) 0.0071(8)
C2 0.0144(10) 0.0210(11) 0.0246(11) 0.0029(9) 0.0015(8) 0.0033(8)
C9 0.0135(10) 0.0196(11) 0.0251(11) 0.0033(9) 0.0010(8) 0.0016(8)
C1 0.0147(10) 0.0189(10) 0.0265(11) 0.0019(8) 0.0022(8) 0.0016(8)
C13 0.0160(10) 0.0248(11) 0.0241(11) 0.0000(9) 0.0022(8) 0.0023(8)
C3 0.0184(10) 0.0176(10) 0.0292(12) 0.0031(9) 0.0043(9) 0.0039(8)
C11 0.0154(10) 0.0165(10) 0.0309(12) 0.0052(9) 0.0011(9) 0.0014(8)
C7 0.0197(11) 0.0190(11) 0.0287(12) 0.0009(9) 0.0038(9) 0.0029(8)
C5 0.0170(10) 0.0248(12) 0.0273(11) 0.0053(9) 0.0047(9) 0.0030(8)
C14 0.0150(10) 0.0186(10) 0.0254(11) 0.0014(8) 0.0019(8) 0.0017(8)
C10 0.0144(10) 0.0222(11) 0.0231(11) 0.0010(8) 0.0000(8) 0.0018(8)
C4 0.0200(11) 0.0214(11) 0.0265(11) 0.0018(9) 0.0054(9) 0.0028(8)
C6 0.0197(11) 0.0168(10) 0.0313(12) 0.0054(9) 0.0054(9) 0.0035(8)
C12 0.0166(10) 0.0262(11) 0.0223(11) 0.0064(9) 0.0020(8) 0.0024(8)
C8 0.0490(16) 0.0305(14) 0.0321(13) 0.0123(11) 0.0146(12) 0.0112(12)
loop_
_atom_type_symbol
_atom_type_description
_atom_type_scat_dispersion_real
_atom_type_scat_dispersion_imag
_atom_type_scat_source
C C 0.0181 0.0091 'International Tables Vol C Tables 4.2.6.8 and 6.1.1.4'
H H 0.0000 0.0000 'International Tables Vol C Tables 4.2.6.8 and 6.1.1.4'
Cl Cl 0.3639 0.7018 'International Tables Vol C Tables 4.2.6.8 and 6.1.1.4'
N N 0.0311 0.0180 'International Tables Vol C Tables 4.2.6.8 and 6.1.1.4'
O O 0.0492 0.0322 'International Tables Vol C Tables 4.2.6.8 and 6.1.1.4'
S S 0.3331 0.5567 'International Tables Vol C Tables 4.2.6.8 and 6.1.1.4'
loop_
_exptl_crystal_face_index_h
_exptl_crystal_face_index_k
_exptl_crystal_face_index_l
_exptl_crystal_face_perp_dist
-5 0 3 0.1078
0 -6 0 0.0172
5 -1 -3 0.1048
0 6 0 0.0204
-3 -3 1 0.0805
0 1 -8 0.0145
3 3 -2 0.0841
0 -1 7 0.0181
loop_
_geom_angle_atom_site_label_1
_geom_angle_atom_site_label_2
_geom_angle_atom_site_label_3
_geom_angle
_geom_angle_site_symmetry_1
_geom_angle_site_symmetry_3
_geom_angle_publ_flag
N1 S1 Cl1 108.79(8) . . ?
N1 S1 C14 106.78(11) . . ?
C14 S1 Cl1 98.20(8) . . ?
C5 O1 C8 117.72(19) . . ?
C1 N2 C9 121.1(2) . . ?
C1 N1 S1 121.61(17) . . ?
C3 C2 C1 119.7(2) . . ?
C7 C2 C1 121.9(2) . . ?
C7 C2 C3 118.4(2) . . ?
N2 C9 C14 125.4(2) . . ?
N2 C9 C10 118.5(2) . . ?
C14 C9 C10 116.1(2) . . ?
N2 C1 N1 126.7(2) . . ?
N2 C1 C2 118.0(2) . . ?
N1 C1 C2 115.2(2) . . ?
C14 C13 H13 121.0 . . ?
C12 C13 H13 121.0 . . ?
C12 C13 C14 118.0(2) . . ?
C2 C3 H3 119.5 . . ?
C4 C3 C2 120.9(2) . . ?
C4 C3 H3 119.5 . . ?
C10 C11 Cl3 120.14(18) . . ?
C10 C11 C12 120.5(2) . . ?
C12 C11 Cl3 119.32(17) . . ?
C2 C7 H7 119.5 . . ?
C6 C7 C2 120.9(2) . . ?
C6 C7 H7 119.5 . . ?
O1 C5 C4 115.5(2) . . ?
O1 C5 C6 124.7(2) . . ?
C6 C5 C4 119.7(2) . . ?
C9 C14 S1 116.78(17) . . ?
C13 C14 S1 119.30(18) . . ?
C13 C14 C9 123.9(2) . . ?
C9 C10 Cl2 118.14(17) . . ?
C11 C10 Cl2 121.20(18) . . ?
C11 C10 C9 120.7(2) . . ?
C3 C4 C5 120.2(2) . . ?
C3 C4 H4 119.9 . . ?
C5 C4 H4 119.9 . . ?
C7 C6 C5 119.8(2) . . ?
C7 C6 H6 120.1 . . ?
C5 C6 H6 120.1 . . ?
C13 C12 Cl4 119.00(19) . . ?
C13 C12 C11 120.8(2) . . ?
C11 C12 Cl4 120.20(18) . . ?
O1 C8 H8A 109.5 . . ?
O1 C8 H8B 109.5 . . ?
O1 C8 H8C 109.5 . . ?
H8A C8 H8B 109.5 . . ?
H8A C8 H8C 109.5 . . ?
H8B C8 H8C 109.5 . . ?
loop_
_geom_bond_atom_site_label_1
_geom_bond_atom_site_label_2
_geom_bond_distance
_geom_bond_site_symmetry_2
_geom_bond_publ_flag
Cl4 C12 1.725(2) . ?
Cl3 C11 1.718(2) . ?
Cl2 C10 1.711(2) . ?
S1 Cl1 2.3205(8) . ?
S1 N1 1.564(2) . ?
S1 C14 1.738(2) . ?
O1 C5 1.361(3) . ?
O1 C8 1.434(3) . ?
N2 C9 1.358(3) . ?
N2 C1 1.312(3) . ?
N1 C1 1.377(3) . ?
C2 C1 1.470(3) . ?
C2 C3 1.404(3) . ?
C2 C7 1.402(3) . ?
C9 C14 1.404(3) . ?
C9 C10 1.427(3) . ?
C13 H13 0.9300 . ?
C13 C14 1.399(3) . ?
C13 C12 1.371(3) . ?
C3 H3 0.9300 . ?
C3 C4 1.376(3) . ?
C11 C10 1.382(3) . ?
C11 C12 1.410(3) . ?
C7 H7 0.9300 . ?
C7 C6 1.386(3) . ?
C5 C4 1.401(3) . ?
C5 C6 1.393(3) . ?
C4 H4 0.9300 . ?
C6 H6 0.9300 . ?
C8 H8A 0.9600 . ?
C8 H8B 0.9600 . ?
C8 H8C 0.9600 . ?
loop_
_refln_index_h
_refln_index_k
_refln_index_l
_refln_F_squared_meas
_refln_F_squared_sigma
0 0 1 180.61 3.49
0 0 1 181.24 3.73
0 0 2 88.49 3.67
0 0 -2 88.49 4.07
0 0 2 94.07 3.54
0 0 -2 89.79 4.23
0 0 3 17.82 1.92
0 0 -3 12.8 1.86
0 0 3 17.55 2.07
0 0 -3 17.11 2.12
0 0 -4 1141.4 19.08
0 0 4 1178.46 19.96
0 0 4 1136.03 19.45
0 0 4 1138.02 17.26
0 0 -5 107.57 6.9
0 0 -5 134.36 7.37
0 0 5 139.2 6.86
0 0 5 137.72 7.78
0 0 5 115.98 7.12
0 0 -5 113.3 5.23
0 0 -6 155.31 8.64
0 0 6 148.56 7.88
0 0 6 129.51 8.43
0 0 6 154.62 9.12
0 0 -6 164 9.19
0 0 -7 16.29 3.19
0 0 7 22.03 4.01
0 0 -7 21.71 3.75
0 0 7 15.47 2.83
0 0 7 17.28 3.48
0 0 8 26.17 4.71
0 0 8 29.5 4.2
0 0 -8 13.3 3.09
0 0 8 16.79 3.68
0 0 -8 26.35 4.13
0 0 9 45.23 2.92
0 0 -9 56.36 3.58
0 0 -9 39.79 5.69
0 0 -9 52.14 6.55
0 0 9 49.12 3.13
0 0 9 47.18 6.7
0 0 9 42.56 2.94
0 0 -10 76.54 8.35
0 0 -10 73.62 4.15
0 0 10 71.15 3.82
0 0 10 61.2 3.51
0 0 -10 61.57 3.73
0 0 10 61.11 3.75
0 0 11 50.87 3.08
0 0 11 66.32 3.68
0 0 -11 58.69 3.42
0 0 11 63.63 3.6
0 0 -11 58.8 3.63
0 0 -12 33.51 2.33
0 0 12 29.72 2.39
0 0 12 34.79 2.49
0 0 13 1.67 0.5
0 0 -13 1.28 0.58
0 0 13 2.16 0.6
0 0 14 11.89 0.96
0 0 -14 13.33 0.99
0 1 14 0.4 0.2
0 -1 -13 29.81 1.64
0 1 13 32.35 1.95
0 1 13 33.86 2.05
0 -1 -13 30.28 1.86
0 1 12 18.58 1.82
0 -1 -12 13.32 1.46
0 -1 -12 13.28 1.57
0 1 12 17.37 1.74
0 -1 -11 7.58 1.25
0 -1 -11 8.88 1.4
0 1 11 5.98 1.23
0 1 11 7.69 1.31
0 -1 -10 15.08 1.87
0 1 10 19.1 2.01
0 1 10 15.93 1.91
0 -1 -10 13.76 1.77
0 1 10 12.93 1.6
0 1 9 19.82 2.08
0 -1 -9 23.74 4.33
0 1 9 16.66 1.79
0 1 9 18.38 4.09
0 1 9 19.26 2.04
0 -1 -9 20 2.21
0 1 9 20.17 4.68
0 -1 -9 17.87 4.07
0 -1 -9 20.74 2.09
0 1 8 455.14 18.96
0 1 8 463.19 17.31
0 -1 -8 421.23 16.88
0 1 8 434.1 8.9
0 1 8 437.73 19.25
0 -1 -8 464.79 19.39
0 1 7 15.89 3.27
0 -1 -7 18.7 3.28
0 1 7 18.88 3.65
0 1 7 16.1 2.97
0 -1 -7 15.88 3.76
0 -1 -6 50.24 4.86
0 1 6 56.55 5.75
0 1 6 32.65 4.39
0 -1 -6 32.67 4.62
0 1 6 55.14 5.19
0 -1 -5 2.79 0.99
0 -1 -5 1.12 1.01
0 1 5 1.05 1
0 1 5 3.13 1.31
0 1 5 2.82 1.24
0 -1 -5 3.4 0.94
0 1 4 799.66 15.9
0 -1 -4 816.1 18.24
0 -1 -4 743.6 14.77
0 1 4 791.3 16.38
0 1 4 763.93 16.64
0 -1 -3 428.28 9.98
0 1 3 406.13 10.38
0 1 3 412.02 10.37
0 -1 -3 417.94 12.27
0 -1 -2 44.49 2.73
0 1 2 42.45 2.88
0 1 2 47.3 2.95
0 -1 -2 41.51 3.53
0 -1 -2 44.52 2.05
0 -1 -1 401.7 8.93
0 1 1 392.92 7.07
0 -1 -1 346.64 5.12
0 1 1 346.21 4.99
0 1 1 334 6.26
0 -1 -1 382.95 5.81
0 -1 -1 352.84 7.07
0 1 0 368.68 5.32
0 -1 0 381.97 5.83
0 -1 0 391.29 5.12
0 -1 0 356.17 5.2
0 -1 1 48.06 2.17
0 -1 1 46.84 1.91
0 -1 1 44.7 1.86
0 1 -1 45.56 2.1
0 1 -1 45.07 2.16
0 1 -2 180.66 4.16
0 -1 2 171.06 5.39
0 1 -2 182.3 5.86
0 -1 2 187.34 4.78
0 1 -3 90.97 3.99
0 -1 3 79.68 4.42
0 1 -3 81.31 4.57
0 -1 3 85.69 3.94
0 1 -4 2.03 0.86
0 -1 4 3.04 1.07
0 -1 4 6.72 1.61
0 1 -4 7.45 1.68
0 -1 4 8.36 1.46
0 -1 5 1.65 1.4
0 1 -5 2.82 1.5
0 -1 5 2.1 0.96
0 1 -5 0.87 0.66
0 -1 5 2.74 1.4
0 1 -6 347.64 9.93
0 -1 6 357.36 13.82
0 -1 6 356.9 13.65
0 1 -6 368.69 13.37
0 1 -6 343.21 11.94
0 -1 6 352.83 11.75
0 1 -7 42.81 5.09
0 -1 7 40.03 4.38
0 -1 7 35.02 4.83
0 1 -7 31.33 4.24
0 -1 8 153.05 9.26
0 1 -8 159.85 10.74
0 1 -8 136.22 9.15
0 -1 8 146.6 10.64
0 -1 8 144.79 9.34
0 -1 9 26.17 5.12
0 1 -9 17.7 2.07
0 -1 9 25.29 2.18
0 -1 9 21.41 2.05
0 1 -9 17.75 3.96
0 1 -9 17.94 2.1
0 -1 9 19.2 1.86
0 1 -10 50.09 6.85
0 1 -10 43.09 3.24
0 -1 10 42.21 2.98
0 -1 10 46.73 3.14
0 -1 10 43.89 2.96
0 -1 11 94.54 4.37
0 1 -11 99.04 4.82
0 1 -11 80.95 4.16
0 -1 11 86.34 4
0 -1 11 95.63 4.49
0 1 -12 55.89 3.33
0 -1 12 56.52 3.22
0 -1 12 53.07 3.01
0 -1 13 6.65 1.02
0 -1 13 7.3 1.02
0 1 -13 9.15 1.23
0 -1 14 84.08 2.65
0 1 -14 79.53 2.64
0 2 13 26.55 1.33
0 -2 -13 29.34 1.52
0 2 13 31.28 1.85
0 -2 -13 34.18 1.78
0 2 12 51.19 2.73
0 -2 -12 56.33 2.81
0 -2 -12 53.02 2.82
0 2 11 47.2 3.09
0 -2 -11 49.78 3.12
0 -2 -11 47.87 3.05
0 2 11 53.61 3.26
0 -2 -10 10.34 1.55
0 2 10 8.66 1.37
0 -2 -10 6.94 1.38
0 2 10 4.81 1.17
0 2 9 237 7.02
0 2 9 235.35 15.76
0 -2 -9 248.63 7.37
0 -2 -9 234.11 15.26
0 2 9 224.94 7.01
0 2 9 225.12 14.6
0 -2 -9 221.08 7.17
0 2 8 204.67 13.12
0 2 8 169.51 5.67
0 -2 -8 217.55 6.84
0 2 8 249.42 14.94
0 2 8 235.87 12.97
0 2 8 184.03 6.04
0 2 8 213.03 6.39
0 -2 -8 223.34 14.24
0 -2 -8 228.22 6.86
0 2 7 66.99 7.18
0 2 7 61.86 6.27
0 -2 -7 69.79 7.88
0 -2 -7 62.37 5.88
0 2 7 71.46 6.89
0 2 6 305.97 14
0 2 6 298.38 13.07
0 -2 -6 331.63 15.41
0 2 6 314.67 13.42
0 -2 -6 292 11.46
0 2 5 73.15 6.15
0 2 5 65.21 5.35
0 -2 -5 75.9 6.76
0 -2 -5 66.09 4.77
0 2 5 72.52 5.97
0 -2 -4 204.75 7.59
0 -2 -4 198.47 9.85
0 2 4 222.52 9.69
0 -2 -4 223.88 6.35
0 2 4 189.65 7.96
0 -2 -3 575.28 9.76
0 2 3 574.04 12.27
0 2 3 611.61 14.09
0 -2 -3 592.5 14.97
0 -2 -3 698.47 16.94
0 -2 -3 663.17 11.53
0 -2 -2 596 13.66
0 2 2 605.11 12.54
0 2 2 605.76 10.56
0 2 2 525.95 8.99
0 -2 -2 540.57 9.18
0 -2 -2 576.95 8.65
0 2 1 120.33 4.19
0 2 1 140.39 5.39
0 -2 -1 139.82 4.53
0 -2 -1 112.92 2.38
0 -2 -1 152.61 5.98
0 2 1 141.52 3.64
0 -2 -1 171.86 6.8
0 -2 0 1407.96 16.38
0 -2 0 1387.69 11.33
0 -2 0 1275.1 14.59
0 2 0 1403.34 14.92
0 -2 0 1304.67 14.27
0 -2 1 24.4 1.37
0 2 -1 30.23 2.37
0 2 -1 28.01 1.66
0 -2 1 28.45 2.26
0 2 -2 1.32 0.73
0 -2 2 0.95 0.51
0 -2 2 2.15 0.69
0 2 -2 1.52 0.68
0 -2 2 0.79 0.41
0 2 -3 90.76 5.12
0 2 -3 87.17 4.81
0 -2 3 91.21 4.33
0 -2 3 70.13 4.05
0 -2 3 68.82 4.18
0 2 -3 62.29 2.48
0 2 -4 426.68 8.64
0 2 -4 458.42 12.36
0 -2 4 440.16 11.8
0 2 -4 441.68 11.35
0 -2 5 26.44 3.03
0 2 -5 26.47 2.63
0 2 -5 25.29 3.36
0 -2 5 27.25 3.47
0 2 -5 25.78 2.87
0 2 -6 61.2 4.79
0 -2 6 65.74 5.17
0 -2 6 55.92 5.46
0 2 -6 65.02 5.85
0 2 -6 57.67 4.4
0 -2 7 275.71 11.55
0 -2 7 273.58 13.31
0 2 -7 263.28 12.76
0 2 -7 242.9 9.96
0 -2 8 5.6 1.78
0 2 -8 8.84 2.93
0 -2 8 9.29 2.86
0 -2 8 9.07 3.2
0 -2 9 1.39 0.55
0 2 -9 0.81 1.08
0 -2 9 1.25 1.25
0 2 -9 0.1 0.45
0 2 -9 0.69 0.45
0 -2 9 1.58 0.67
0 -2 9 1.23 0.81
0 -2 9 1.94 1.2
0 -2 9 0.13 0.49
0 -2 9 0.21 0.58
0 2 -10 1.09 1.07
0 2 -10 3.65 1.18
0 -2 10 3.55 0.99
0 -2 10 2.29 0.78
0 -2 10 2.55 0.84
0 -2 11 249.35 6.9
0 2 -11 238.45 7.63
0 -2 11 232.49 6.72
0 -2 12 -0.67 0.69
0 -2 12 -0.51 0.68
0 2 -12 -0.02 0.6
0 -2 12 0.36 0.46
0 2 -13 2.58 0.67
0 -2 13 3.53 0.76
0 -2 13 2.73 0.66
0 -2 13 3.77 0.72
0 -2 14 13.76 1
0 -2 14 14.22 1.11
0 3 13 1.06 0.29
0 -3 -12 0.36 0.31
0 -3 -12 0.41 0.39
0 3 12 -0.12 0.27
0 -3 -11 27.97 2.25
0 3 11 27.21 2.25
0 -3 -11 29.07 2.2
0 3 10 64.84 3.73
0 -3 -10 69.12 3.93
0 3 10 74.43 3.9
0 -3 -10 66.74 3.7
0 -3 -9 23.94 2.35
0 3 9 18.37 2
0 3 9 20.76 2.12
0 -3 -9 24.65 2.39
0 3 8 131.61 10.47
0 -3 -8 134.77 5.46
0 -3 -8 115.25 5.04
0 3 8 125.92 5.15
0 3 8 126.13 11.12
0 3 8 120.66 4.98
0 -3 -8 142.24 11.99
0 3 7 105.54 9.55
0 3 7 81.02 3.93
0 3 7 76.37 3.82
0 3 7 90.68 7.87
0 -3 -7 96.77 4.49
0 3 7 102.73 8.74
0 -3 -7 102.62 9.58
0 3 6 177.64 10.94
0 -3 -6 191.82 12.17
0 3 6 189.56 11.66
0 3 6 155.44 9.31
0 3 5 4.02 1.68
0 3 5 3.41 1.24
0 3 5 4.66 1.71
0 -3 -5 3.74 1.62
0 3 4 895.29 21.01
0 -3 -4 932.13 15.03
0 -3 -4 952.93 15.07
0 3 4 887.93 17.55
0 -3 -3 54.55 2.87
0 -3 -3 47.98 3.4
0 3 3 48.11 3.26
0 -3 -3 60.66 5.35
0 3 3 52.2 4.7
0 -3 -3 57.22 5.33
0 -3 -3 61.18 5.42
0 3 3 56.05 3.78
0 -3 -2 144.09 7.58
0 3 2 155.63 7.51
0 3 2 144.59 5.82
0 -3 -2 151.56 7.65
0 -3 -2 145.39 5.86
0 3 1 603.28 12.01
0 -3 -1 555.46 6.91
0 3 1 697.72 14.62
0 -3 -1 727.13 15.47
0 -3 -1 692.25 14.96
0 -3 -1 592.34 11.78
0 3 0 93.51 4.8
0 -3 0 98.81 3.74
0 -3 0 83.59 4.51
0 -3 1 68.42 3.84
0 -3 1 80.69 4.8
0 3 -1 79.68 4.72
0 3 -2 119.34 6.08
0 -3 2 119.96 4.14
0 3 -2 114.01 4.64
0 -3 2 124.12 6.09
0 3 -3 1970.36 26.3
0 -3 3 1973.36 21.49
0 3 -3 1934.89 22.71
0 -3 3 1965.91 25.03
0 -3 3 1908.65 23.4
0 -3 4 11.92 1.96
0 3 -4 14.8 2.59
0 -3 4 10.83 2.14
0 3 -4 11.65 2.35
0 -3 4 12.45 2.09
0 -3 5 1.97 1.01
0 3 -5 1.39 1.11
0 -3 5 2.86 1.3
0 3 -5 2.3 1.29
0 -3 5 1.68 1.02
0 3 -6 55.97 5.65
0 -3 6 48.73 5.15
0 3 -6 55.79 5.14
0 -3 6 59.8 5.1
0 -3 6 52.94 5.4
0 -3 7 262.11 13.04
0 3 -7 236.58 12.58
0 -3 7 216.29 11.99
0 3 -7 231.9 10.9
0 -3 7 241.06 11.01
0 -3 8 46.33 6.12
0 3 -8 58.69 6.85
0 -3 8 55.51 5.67
0 -3 8 32.47 4.92
0 -3 8 45.9 6.02
0 3 -9 1.99 0.82
0 -3 9 1.27 1.17
0 -3 9 1.93 1.32
0 -3 9 3 0.78
0 -3 9 3.19 1.77
0 3 -9 1.53 0.87
0 -3 9 3.7 1.05
0 -3 9 2.77 0.83
0 -3 9 1.9 0.67
0 3 -10 27.25 2.71
0 -3 10 28.93 2.47
0 -3 10 34.85 2.66
0 -3 10 30.48 2.46
0 -3 11 1.06 0.51
0 -3 11 0.09 0.55
0 3 -11 2.09 0.79
0 -3 11 1.5 0.72
0 -3 12 16.9 1.58
0 -3 12 20.03 1.89
0 3 -12 18.97 2.05
0 -3 12 17.83 1.72
0 -3 13 0.01 0.49
0 -3 13 0.47 0.3
0 -3 13 0.26 0.41
0 3 -13 0.3 0.43
0 -3 14 43.38 1.92
0 3 -14 34.69 1.78
0 -4 -12 8.43 0.89
0 4 12 6.07 0.75
0 4 12 4.59 0.77
0 -4 -12 8.71 0.78
0 -4 -11 7.47 1.11
0 4 11 7.43 1.07
0 -4 -11 7.03 1
0 -4 -10 50.31 2.96
0 4 10 52.61 3.18
0 -4 -10 58.42 3.38
0 4 9 18.68 2.07
0 -4 -9 22.06 2.27
0 -4 -9 18.32 1.92
0 4 9 21.15 2.17
0 4 8 49.74 3.28
0 4 8 58.13 3.51
0 -4 -8 62.64 3.7
0 4 8 66 7.73
0 -4 -8 57.48 3.74
0 -4 -8 65.85 3.92
0 4 7 0.96 1.22
0 4 7 1.61 0.79
0 4 7 0.53 0.43
0 -4 -7 0.06 0.24
0 -4 -7 2.41 1.64
0 -4 -7 1.4 0.82
0 -4 -7 0.12 0.32
0 4 7 -0.63 1.39
0 -4 -6 2.92 1.38
0 -4 -6 2.61 0.81
0 4 6 0.77 1.15
0 4 6 1.51 1.35
0 -4 -5 151.15 10.98
0 4 5 120.48 9.19
0 -4 -4 6.84 2.82
0 -4 -4 12.24 2.96
0 4 4 9.25 2.29
0 4 3 65.2 5.89
0 -4 -3 52.97 5.78
0 4 3 60.02 4.29
0 -4 -3 44.04 5.68
0 4 2 7.76 1.86
0 -4 -2 10.81 2.45
0 4 2 9.51 2.07
0 -4 -2 10.49 2.56
0 4 1 220.11 8.59
0 4 1 219.81 9.92
0 -4 0 468.87 9.46
0 4 0 471.71 12.83
0 -4 1 1.91 0.95
0 4 -1 1.52 0.72
0 -4 1 3.52 1.3
0 -4 2 435.03 11.85
0 4 -2 423.45 13.21
0 4 -3 105.52 5.46
0 4 -3 120.85 7.38
0 -4 3 132.4 7.7
0 4 -4 17.9 3.13
0 4 -4 16.41 2.56
0 -4 4 20.03 3.12
0 -4 4 18.82 2.52
0 4 -5 318.26 12.28
0 4 -5 316.86 12.92
0 -4 5 337.12 13.6
0 -4 5 350 12.57
0 4 -6 114.03 8.3
0 -4 6 104.95 7.46
0 -4 6 147.91 9.91
0 -4 6 116.19 8.49
0 4 -6 118.54 8.33
0 -4 6 135.67 8.76
0 -4 7 7.39 2.61
0 4 -7 3.11 1.33
0 -4 7 8.8 2.48
0 4 -7 1.29 1.46
0 -4 7 2.25 1.17
0 -4 7 9.05 2.51
0 -4 8 85.65 3.9
0 -4 8 84.17 4
0 -4 8 94.77 9.32
0 -4 8 72.46 7.71
0 4 -8 80.93 8.33
0 4 -8 81.46 7.31
0 -4 8 85.55 8.37
0 -4 8 86.25 4.1
0 4 -8 74.66 3.98
0 -4 9 77.2 4.19
0 -4 9 64.01 7.56
0 4 -9 77.26 4.56
0 -4 9 78.1 3.89
0 -4 9 84.98 4.04
0 4 -9 77.38 8.7
0 -4 9 86.79 9.16
0 -4 9 75.44 3.92
0 4 -10 54.01 3.79
0 -4 10 47.44 3.07
0 -4 10 45.22 2.93
0 -4 10 50.46 3.47
0 -4 10 46.78 3.1
0 -4 11 168.02 5.64
0 -4 11 173.71 5.25
0 -4 11 171 5.73
0 4 -11 187.52 6.62
0 -4 12 27.37 2.1
0 4 -12 24.8 2.25
0 -4 12 29.25 1.98
0 -4 13 20.97 1.53
0 -4 13 22.44 1.8
0 4 -13 25.18 1.92
0 -4 14 52.6 1.93
0 4 -14 54.15 2.07
0 5 11 3.31 0.61
0 -5 -11 4.08 0.74
0 -5 -10 17.7 1.75
0 5 10 13.32 1.48
0 -5 -10 17.54 1.51
0 -5 -9 56.86 3.69
0 -5 -9 66.63 3.38
0 5 9 62.02 3.43
0 -5 -8 202.77 7.46
0 5 8 201.07 6.47
0 -5 -8 203.12 6.37
0 -5 -7 63.9 3.73
0 5 7 59.25 7.57
0 5 7 80.4 9.12
0 -5 -7 63.33 4.18
0 5 7 69.4 3.76
0 -5 -7 81.62 4.34
0 -5 -7 70.48 8.75
0 5 6 15.34 4.04
0 -5 -6 21.09 4.71
0 5 6 17.26 1.89
0 -5 -6 20.16 2.17
0 -5 -6 16.57 2.17
0 -5 -6 18.05 1.88
0 5 6 20.89 4.41
0 5 5 306.53 15.98
0 -5 -5 324.09 16.81
0 -5 -5 286.58 7.6
0 -5 -5 272.82 8.24
0 -5 -4 105.76 9.76
0 -5 -4 121.24 9.8
0 5 4 125.36 9.5
0 -5 -3 303.27 14.16
0 5 3 303.15 14.18
0 -5 -3 280.1 14.99
0 -5 -2 13.93 3.29
0 5 2 12.77 2.9
0 -5 -2 15.3 3.05
0 5 2 10.34 2.26
0 -5 -1 18.67 2.93
0 -5 -1 23.95 4.05
0 5 1 19.66 3.51
0 5 1 19.82 3.08
0 5 0 143.8 8.22
0 -5 0 160.61 9.77
0 -5 1 492.02 12.45
0 5 -1 530.52 16.21
0 -5 2 43.56 5.26
0 -5 2 38.67 3.94
0 5 -2 27.51 3.82
0 -5 3 387.76 13.5
0 -5 3 405.41 15.72
0 5 -3 421.24 15.35
0 -5 4 43.7 5.06
0 5 -4 44.91 4.36
0 5 -4 51.2 5.76
0 -5 4 43.41 5.33
0 -5 5 22.2 4.12
0 -5 5 22.62 3.97
0 5 -5 16.44 3.23
0 5 -5 16.65 3.08
0 -5 6 1.02 0.66
0 5 -6 7.84 2.39
0 -5 6 1.9 0.95
0 5 -6 7.76 2.59
0 -5 7 228.37 13.73
0 -5 7 218.1 6.32
0 5 -7 218.5 12.72
0 -5 7 216.49 6.44
0 -5 7 190.9 5.8
0 5 -7 214.25 12.64
0 -5 8 5.33 1.06
0 5 -8 5.96 2.33
0 -5 8 3.62 2.05
0 -5 8 5.82 1.09
0 -5 8 5.37 2.46
0 -5 8 3.76 0.96
0 5 -8 2.97 2
0 5 -8 3.66 0.96
0 5 -9 2.91 1.83
0 -5 9 2.01 0.68
0 -5 9 3.44 0.96
0 -5 9 5.54 1.2
0 5 -9 5.29 1.31
0 -5 10 74.62 3.76
0 -5 10 64.42 3.74
0 5 -10 63.07 4.1
0 -5 10 68.47 3.71
0 5 -11 8.12 1.38
0 -5 11 8.61 1.28
0 -5 11 7.87 1.17
0 -5 12 2.72 0.75
0 5 -12 4.67 1.01
0 -5 12 3.18 0.65
0 -5 13 0.31 0.39
0 -5 13 0.52 0.4
0 5 -13 0.08 0.4
0 -6 -11 1.96 0.44
0 -6 -11 4.32 0.6
0 -6 -10 12.18 1.26
0 -6 -9 1.19 0.63
0 -6 -9 0.88 0.61
0 6 9 1.3 0.42
0 6 8 5.31 1
0 -6 -8 8.22 1.51
0 -6 -8 7.64 1.15
0 -6 -8 7.99 1.37
0 -6 -7 17.03 1.77
0 -6 -7 17.22 2.11
0 -6 -7 16.34 2.29
0 -6 -6 64.71 4.51
0 -6 -6 58.38 3.4
0 -6 -6 62.57 3.83
0 -6 -5 36.29 2.85
0 -6 -5 34.5 5.88
0 -6 -5 33.48 2.49
0 -6 -5 30.37 3.06
0 6 5 43.92 6.39
0 -6 -4 185.52 7.31
0 -6 -4 174.39 13.68
0 -6 -4 185.58 12.63
0 -6 -4 196.06 6.34
0 -6 -3 248.52 15.43
0 -6 -3 279.65 14.37
0 -6 -3 240.06 7.89
0 -6 -2 206.53 14.06
0 -6 -2 207.57 11.48
0 6 1 24.47 3.74
0 -6 -1 33.95 5.41
0 6 1 27.92 4.6
0 6 0 5.01 2.06
0 6 0 5.63 2.2
0 -6 0 5.36 2.28
0 6 -1 157.26 9.95
0 -6 1 148.3 10.74
0 -6 2 391.57 13.43
0 -6 2 369.97 17.27
0 6 -2 415.3 16.73
0 6 -3 33.02 4.8
0 -6 3 28.39 4.92
0 -6 3 30.32 4.21
0 -6 4 51.26 6.66
0 -6 4 64.3 7.79
0 6 -4 69.27 7.36
0 -6 5 9.91 3.04
0 6 -5 18.95 3.96
0 -6 5 11.55 2.93
0 -6 6 887.42 13.17
0 6 -6 868.39 27.31
0 -6 6 843.57 12.3
0 -6 6 845.67 12.39
0 6 -7 228.17 14.35
0 -6 7 244.11 7.17
0 -6 7 209.22 14.67
0 -6 7 236.99 6.62
0 -6 7 230.67 6.71
0 -6 7 223.78 6.42
0 6 -8 8.84 1.36
0 -6 8 9.04 3.33
0 6 -8 9.28 2.94
0 -6 8 10.57 1.43
0 -6 8 9.58 1.43
0 -6 8 8.2 1.39
0 -6 9 63.59 3.74
0 -6 9 60.29 3.42
0 -6 9 67.43 3.72
0 6 -10 62.21 3.95
0 -6 10 63.4 3.59
0 6 -11 8.51 1.35
0 -6 11 10.6 1.42
0 -6 11 9.9 1.26
0 6 -12 0.59 0.45
0 -6 12 0.91 0.48
0 -6 12 0.08 0.44
0 -6 13 10.6 0.93
0 6 -13 8.69 0.88
0 -7 -10 2.77 0.48
0 -7 -10 4.06 0.59
0 -7 -9 8.84 1.16
0 -7 -9 9.68 1.31
0 -7 -9 11.6 1.25
0 -7 -8 17.3 2.07
0 -7 -8 17.8 1.77
0 -7 -8 16.11 1.76
0 -7 -7 29.47 2.53
0 -7 -7 28.46 2.91
0 -7 -6 30.03 2.64
0 -7 -6 32.64 3.3
0 -7 -5 31.47 3.35
0 -7 -5 28.81 2.56
0 7 4 53.71 7.49
0 -7 -4 48.94 4.03
0 -7 -4 53.17 3.46
0 -7 -3 0.28 0.46
0 -7 -3 0.99 1.6
0 7 3 1.6 1.66
0 -7 -3 0.41 0.52
0 -7 -3 0.64 0.45
0 -7 -2 461.95 12.17
0 -7 -2 419.32 21.78
0 -7 -2 465.17 9.76
0 -7 -2 540.31 10.6
0 7 2 532.68 22.45
0 -7 -1 0.4 1.3
0 -7 -1 1.13 0.52
0 7 1 2.45 1.81
0 -7 -1 1.29 0.54
0 -7 -1 1.62 0.74
0 -7 0 19.31 2.44
0 7 0 24.93 4.43
0 -7 0 27.85 2.23
0 7 0 24.76 4.92
0 -7 0 22.49 4.98
0 7 -1 23.52 4.31
0 -7 1 17.66 4.32
0 7 -1 22.09 4.82
0 -7 2 237.59 15.63
0 7 -2 254.38 14.61
0 -7 2 240.7 6.5
0 -7 3 90.6 3.97
0 -7 3 96.79 10.23
0 7 -3 100.21 9.35
0 -7 4 2.81 1.88
0 -7 4 3.49 0.93
0 -7 4 5.18 0.95
0 7 -4 5.03 2.29
0 -7 4 2.85 1.66
0 -7 5 2.88 1.9
0 -7 5 6.57 1.19
0 7 -5 9.24 2.97
0 -7 5 5.45 1.13
0 -7 5 4.71 2.11
0 -7 5 4.39 0.93
0 -7 6 3.06 1.03
0 -7 6 6.2 2.74
0 -7 6 4.65 1.06
0 -7 6 6.41 2.71
0 -7 6 2.32 0.87
0 7 -6 1.94 1.35
0 -7 7 182.86 6.91
0 -7 7 193.93 6.61
0 -7 7 175.77 5.78
0 -7 7 182.61 5.97
0 -7 8 91.7 4.45
0 -7 8 85.55 3.86
0 -7 8 91.35 4.02
0 -7 8 83.45 4.33
0 -7 8 88.36 4.05
0 -7 9 0.94 0.61
0 -7 9 0.78 0.41
0 -7 9 0.1 0.46
0 -7 10 6.07 1.14
0 -7 10 3.3 0.97
0 -7 11 8.95 1.11
0 -7 11 8.57 1.27
0 -7 12 40.02 2.06
0 7 -12 33.93 1.92
0 -8 -9 0.21 0.18
0 -8 -9 0.48 0.28
0 -8 -8 8.93 1.02
0 -8 -8 9.52 1.08
0 -8 -8 9.62 1.37
0 -8 -7 16.04 1.61
0 -8 -7 15.64 2.02
0 -8 -7 18.24 1.66
0 -8 -7 14.13 1.31
0 -8 -6 55.59 3.29
0 -8 -6 59.83 3.46
0 -8 -6 59.7 4.3
0 -8 -5 75.48 5.09
0 -8 -5 70.79 3.87
0 -8 -5 80.32 4.08
0 -8 -4 16.55 1.88
0 -8 -4 13.14 1.73
0 -8 -4 14.16 2.3
0 -8 -3 50.15 4.34
0 -8 -3 46.18 3.2
0 -8 -3 53.99 3.39
0 -8 -2 267.89 9.79
0 -8 -2 282.18 7.68
0 -8 -1 24.32 2.26
0 -8 -1 16.15 4.53
0 -8 -1 22.28 2.89
0 8 1 25.15 5.1
0 -8 -1 23.11 2.19
0 -8 0 259.78 7.39
0 8 0 244.39 16.22
0 -8 0 248.32 6.92
0 -8 0 228.7 9.05
0 -8 0 252.33 7.78
0 -8 1 35.45 2.73
0 8 -1 36.86 6.13
0 8 -1 28.96 5.57
0 -8 1 30.58 2.41
0 -8 1 34.68 3.54
0 -8 1 25.4 6.02
0 8 -2 9.81 3.3
0 -8 2 11.28 1.48
0 -8 2 8.16 1.73
0 8 -2 8.39 2.97
0 -8 2 13.39 4.06
0 -8 2 9.8 1.46
0 8 -3 -0.14 1.73
0 -8 3 1.07 1.59
0 -8 3 0.25 0.41
0 -8 4 54.21 3.46
0 -8 4 46.94 2.99
0 -8 4 42.75 7.39
0 8 -4 52.04 7.5
0 -8 5 6.3 1.14
0 -8 5 3.77 0.94
0 -8 5 4.64 0.86
0 -8 5 4.91 1.18
0 -8 6 75.65 4.61
0 -8 6 71.61 3.81
0 -8 6 69.59 3.56
0 -8 6 75.56 4.13
0 -8 7 3.71 0.85
0 -8 7 6.11 1.28
0 -8 7 4.85 1.28
0 -8 7 5.09 0.96
0 -8 8 11.78 1.65
0 -8 8 14.71 1.74
0 -8 8 10.86 1.38
0 -8 8 16.56 1.65
0 -8 9 -0.24 0.75
0 -8 9 0.01 0.34
0 -8 9 0.63 0.48
0 8 -9 0.89 0.47
0 -8 10 42.05 2.21
0 -8 10 46.67 2.63
0 8 -10 39.4 2.54
0 -8 11 7.29 0.8
0 8 -11 6.75 0.89
0 -8 11 8.04 0.95
0 -9 -7 15.35 1.1
0 -9 -7 14.76 1.63
0 -9 -6 1.89 0.52
0 -9 -6 1.62 0.44
0 -9 -6 2.51 0.82
0 -9 -6 1.57 0.56
0 -9 -5 73.47 3.27
0 -9 -5 65.19 3.22
0 -9 -5 87.05 5.06
0 -9 -5 83.92 3.48
0 -9 -4 58.85 3.29
0 -9 -4 51.73 3.07
0 -9 -4 69.91 3.4
0 -9 -4 70.22 4.84
0 -9 -3 42.74 3.95
0 -9 -3 42.78 2.78
0 -9 -3 32.79 2.57
0 -9 -3 44.06 2.89
0 -9 -2 103.79 6.24
0 -9 -2 106.58 4.45
0 -9 -2 105.34 4.7
0 -9 -1 112.56 4.83
0 -9 -1 110.15 4.52
0 -9 -1 99.87 6.22
0 -9 0 196.63 6.55
0 -9 0 201 6.07
0 -9 1 10.14 1.98
0 -9 1 15.38 2
0 -9 1 14.65 1.6
0 -9 1 13.37 1.76
0 -9 2 34.64 3.54
0 -9 2 41.91 2.61
0 -9 2 45.85 3.51
0 -9 2 37.7 2.82
0 -9 3 8.34 1.48
0 -9 3 7.69 1.29
0 -9 4 102.94 4.34
0 -9 4 109.56 4.9
0 -9 4 110.67 4.92
0 -9 4 121.07 5.87
0 -9 5 85.2 4.22
0 -9 5 85.94 3.7
0 -9 5 88.44 4.36
0 -9 6 5.54 1.39
0 -9 6 6.06 1.16
0 -9 6 7.63 1.42
0 -9 7 20.44 1.87
0 -9 7 23.07 2.15
0 -9 7 22.82 2.33
0 -9 8 22.8 1.73
0 -9 8 23.58 2.12
0 -9 8 21.96 2
0 -9 9 101.67 3.7
0 9 -9 100.2 3.56
0 -9 10 2.2 0.58
0 -9 11 0.65 0.28
0 -10 -5 1.37 0.39
0 -10 -5 1.78 0.61
0 -10 -5 1.73 0.44
0 -10 -4 32.06 1.92
0 -10 -4 30.8 2.75
0 -10 -4 30.44 1.77
0 -10 -3 0.42 0.25
0 -10 -3 -0.38 0.5
0 -10 -3 0.19 0.43
0 -10 -2 39.55 3.52
0 -10 -2 46.54 2.47
0 -10 -2 43.61 2.69
0 -10 -1 5.63 1.08
0 -10 -1 4.45 1.22
0 -10 -1 5 0.79
0 -10 0 13.4 1.6
0 -10 0 12.97 2.06
0 -10 0 16.71 1.51
0 -10 1 11.31 1.45
0 -10 1 11.74 1.49
0 -10 1 10.02 1.8
0 -10 1 13.41 1.35
0 -10 2 5.9 1.13
0 -10 2 3.96 0.88
0 -10 2 4.84 1.17
0 -10 3 5.41 1.12
0 -10 3 8 1.36
0 -10 3 5.28 0.98
0 -10 3 6.48 1.03
0 -10 4 24.38 2.13
0 -10 4 22.13 2.04
0 -10 4 26.73 2.52
0 -10 4 22.71 1.86
0 -10 5 73.99 4.09
0 -10 5 61.08 3.24
0 -10 5 61.95 2.8
0 -10 5 69.29 3.43
0 -10 6 82.22 3.55
0 -10 6 92.73 3.84
0 -10 6 94.93 4.41
0 -10 7 70.45 3.48
0 -10 7 73.01 3.18
0 -10 7 63.88 2.78
0 -10 8 -0.38 0.48
0 -10 8 0.53 0.38
0 -10 8 0.27 0.3
0 -10 9 104.72 2.97
0 -11 -3 13.7 0.99
0 -11 -2 80.52 2.47
0 -11 -2 94.51 2.97
0 -11 -1 69.75 2.68
0 -11 -1 76.36 2.89
0 -11 0 23.47 1.71
0 -11 0 25.8 1.72
0 -11 1 104.74 3.76
0 -11 1 107.19 3.61
0 -11 2 15.61 1.34
0 -11 2 17.48 1.55
0 -11 2 12.84 1.33
0 -11 2 13.57 1.37
0 -11 3 119.78 3.58
0 -11 3 117.86 4.19
0 -11 3 110.28 3.59
0 -11 4 17.81 1.69
0 -11 4 16.34 1.2
0 -11 4 16.25 1.37
0 -11 4 18.43 1.54
0 -11 5 6.92 0.93
0 -11 5 7.83 1.1
0 -11 5 6.48 0.93
0 -11 6 8.49 1.06
0 -11 6 7.04 0.89
0 -11 6 7.39 0.82
0 -11 7 32.97 1.58
0 -11 7 27.92 1.65
-1 -11 7 42.01 1.89
-1 -11 6 4.57 0.64
-1 -11 6 4.06 0.76
-1 -11 5 104.26 2.67
-1 -11 5 110.54 3.59
-1 -11 4 16.24 1.44
-1 -11 4 17.03 1.23
-1 -11 4 20.51 1.49
-1 -11 3 0.19 0.4
-1 -11 3 0.08 0.29
-1 -11 3 -0.17 0.35
-1 -11 2 19.56 1.46
-1 -11 2 19.96 1.46
-1 -11 1 31.12 1.79
-1 -11 1 27.89 1.42
-1 -11 1 28.51 1.64
-1 -11 0 57.1 2.03
-1 -11 0 72.17 2.57
-1 -11 -1 74.14 2.37
-1 -10 9 63.2 2.15
-1 -10 8 10.1 1.06
-1 -10 8 9.71 1.02
-1 -10 8 9.55 1.1
-1 -10 7 56.16 2.69
-1 -10 7 58.97 2.65
-1 -10 7 57.45 3.09
-1 -10 6 9.26 1.06
-1 -10 6 11.84 1.57
-1 -10 6 10.61 1.26
-1 -10 6 10.57 1.36
-1 -10 5 9.66 1.25
-1 -10 5 12.56 1.68
-1 -10 5 10.82 1.2
-1 -10 5 11.41 1.41
-1 -10 4 1.75 0.64
-1 -10 4 1.05 0.55
-1 -10 4 2.38 0.93
-1 -10 4 1.87 0.5
-1 -10 4 2.25 0.63
-1 -10 3 55.87 3.36
-1 -10 3 53.28 2.69
-1 -10 3 55.38 3.01
-1 -10 3 55.23 3.17
-1 -10 3 49.18 2.63
-1 -10 2 133.41 4.95
-1 -10 2 150.01 5.06
-1 -10 2 132.15 4.22
-1 -10 2 145.16 4.49
-1 -10 2 149.76 5.08
-1 -10 1 1.79 0.6
-1 -10 1 2.32 0.68
-1 -10 1 3.07 0.79
-1 -10 1 1.21 0.48
-1 -10 1 3.37 0.66
-1 -10 0 6.02 0.96
-1 -10 0 4.48 0.83
-1 -10 0 3.81 0.96
-1 -10 0 4.99 0.99
-1 -10 -1 16.86 1.49
-1 -10 -1 13.35 1.84
-1 -10 -1 15.63 1.4
-1 -10 -1 16.71 1.59
-1 -10 -2 28.11 2.6
-1 -10 -2 31.78 1.68
-1 -10 -2 34.1 2.06
-1 -10 -2 33.48 1.98
-1 -10 -3 14.67 1.21
-1 -10 -3 13.11 1.16
-1 -10 -3 10.99 1.6
-1 -10 -4 15.96 1.64
-1 -10 -4 15.46 0.96
-1 -10 -4 18.79 1.2
-1 -9 11 0.71 0.28
-1 -9 10 0.54 0.35
-1 -9 9 54.46 2.55
-1 -9 9 51.48 2.73
-1 -9 8 49.03 3.08
-1 -9 8 46.56 2.68
-1 -9 8 50.37 2.8
-1 -9 7 0.68 0.62
-1 -9 7 0.3 0.33
-1 -9 7 1.17 0.66
-1 -9 7 0.61 0.58
-1 -9 6 2.36 0.93
-1 -9 6 0.89 0.49
-1 -9 6 1.1 0.59
-1 -9 6 1.03 0.48
-1 -9 6 1.28 0.79
-1 -9 5 59.35 3.22
-1 -9 5 63.62 3.41
-1 -9 5 64.5 3.58
-1 -9 5 59.14 3.57
-1 -9 5 65.15 4.13
-1 -9 4 68.34 4.2
-1 -9 4 64.2 3.79
-1 -9 4 58.63 3.45
-1 -9 4 59.5 3.41
-1 -9 4 53.7 3.1
-1 -9 3 13.63 1.62
-1 -9 3 14.69 1.86
-1 -9 3 12.98 1.95
-1 -9 3 11.7 1.51
-1 -9 3 12.23 1.52
-1 -9 2 3.89 1.02
-1 -9 2 3.13 0.84
-1 -9 2 3.04 0.95
-1 -9 2 2.69 0.75
-1 -9 1 168.13 7.41
-1 -9 1 198.42 6.14
-1 -9 1 203.39 6.46
-1 -9 1 173.02 6.19
-1 -9 0 5.61 1.06
-1 -9 0 6.03 1.16
-1 -9 0 5.06 1.32
-1 -9 -1 88.55 5.42
-1 -9 -1 98.74 4.34
-1 -9 -1 94.59 4.23
-1 -9 -2 -0.45 0.58
-1 -9 -2 -0.21 0.44
-1 -9 -2 0.18 0.53
-1 -9 -3 50.56 2.8
-1 -9 -3 52.7 2.91
-1 -9 -3 44.42 3.67
-1 -9 -4 35.13 2.26
-1 -9 -4 31.11 1.98
-1 -9 -4 35.68 3.09
-1 -9 -5 2.32 0.82
-1 -9 -5 2.42 0.56
-1 -9 -5 2.19 0.48
-1 -9 -6 54.26 2.98
-1 -9 -6 62.05 2.28
-1 -8 12 -0.12 0.29
-1 -8 11 0.4 0.45
-1 -8 10 27.48 2.06
-1 -8 10 24.05 1.75
-1 -8 9 66.38 3.51
-1 -8 9 63.77 3.19
-1 -8 8 3.47 0.86
-1 -8 8 2.42 0.81
-1 -8 8 2.38 0.85
-1 -8 7 0.74 0.39
-1 -8 7 1.56 0.63
-1 -8 7 1.28 0.58
-1 -8 7 2.69 0.88
-1 -8 7 2.05 0.85
-1 -8 6 0.12 0.68
-1 -8 6 1 0.55
-1 -8 6 0.36 0.45
-1 -8 6 0.05 0.38
-1 -8 6 0.75 0.72
-1 -8 5 70.8 3.78
-1 -8 5 69.91 3.96
-1 -8 5 76.88 4.03
-1 -8 5 76.48 3.8
-1 -8 5 79.97 4.73
-1 -8 4 89.55 5.11
-1 -8 4 89.16 4.52
-1 -8 4 72.95 3.74
-1 -8 4 80.36 4.11
-1 -8 4 81.29 4.12
-1 -8 3 43.24 3.45
-1 -8 3 43.46 3.13
-1 -8 3 38.37 2.84
-1 -8 3 40.96 2.83
-1 -8 2 213.01 6.53
-1 -8 2 214.82 6.82
-1 -8 2 206.82 7.5
-1 -8 1 52.44 3.29
-1 -8 1 49.85 3.36
-1 -8 1 44.34 3.91
-1 -8 1 50.68 3.58
-1 -8 0 2.25 0.77
-1 -8 0 1.86 0.9
-1 -8 0 1.75 0.76
-1 -8 -1 10.86 1.64
-1 -8 -1 9.27 1.82
-1 -8 -1 8.45 1.43
-1 -8 -2 1.2 0.59
-1 -8 -2 0.63 0.62
-1 -8 -2 0.98 0.64
-1 -8 -3 1.46 0.71
-1 -8 -3 2.5 0.77
-1 -8 -3 2.27 0.75
-1 -8 -3 4.03 1.07
-1 -8 -4 16.28 1.73
-1 -8 -4 20.11 2.57
-1 -8 -4 14.3 1.65
-1 -8 -4 18.86 1.95
-1 -8 -5 29.92 2.33
-1 -8 -5 24.12 2.01
-1 -8 -5 23.39 1.85
-1 -8 -5 28.06 2.88
-1 -8 -6 24.78 2.47
-1 -8 -6 21.62 1.72
-1 -8 -7 5.12 1.04
-1 -8 -7 4.35 0.74
-1 -8 -7 3.15 0.61
-1 -8 -8 27.97 1.34
-1 -7 13 49.07 1.82
-1 -7 12 36.16 2.09
-1 -7 11 0.66 0.49
1 7 -10 116.64 4.38
-1 -7 10 124.26 4.32
-1 -7 9 123.53 4.75
-1 -7 9 124.23 5.07
-1 -7 8 7.81 1.44
-1 -7 8 8.63 1.38
-1 -7 8 8.52 1.36
-1 -7 7 0.16 0.28
-1 -7 7 0.68 0.55
-1 -7 7 0.39 0.41
-1 -7 7 0.61 0.66
-1 -7 7 0.74 0.54
-1 -7 6 269.39 16.15
-1 -7 6 298.69 7.99
1 7 -6 308.43 17.74
-1 -7 6 307.41 9.14
-1 -7 6 271.2 7.1
-1 -7 6 283.07 7.35
-1 -7 6 251.59 17.6
-1 -7 6 287.42 7.9
-1 -7 5 -0.3 0.58
-1 -7 5 0.99 1.71
-1 -7 5 1 0.62
-1 -7 5 0.42 1.38
-1 -7 5 0.37 0.56
1 7 -5 1.04 1.44
-1 -7 5 0.4 0.27
-1 -7 5 0.23 0.52
-1 -7 4 91.58 4.07
1 7 -4 96.19 9.39
-1 -7 4 85.21 9.94
-1 -7 4 91.23 4.43
-1 -7 4 83.62 5.09
-1 -7 4 73.33 4.63
-1 -7 4 85.54 4.11
-1 -7 3 5.29 1.38
1 7 -3 6.03 2.45
-1 -7 3 4.4 1.02
-1 -7 3 4.69 1.15
-1 -7 3 4.88 0.98
-1 -7 3 3.48 1.6
-1 -7 2 42.55 3.28
-1 -7 2 29.26 5.88
1 7 -2 42.12 5.93
-1 -7 2 40.59 2.76
-1 -7 2 40.55 2.81
-1 -7 2 36.88 3.06
1 7 -2 35.65 6.26
1 7 -1 1.03 1.69
1 7 -1 -0.21 1.34
-1 -7 1 0.35 0.49
-1 -7 1 0.66 0.6
-1 -7 1 1.04 0.67
-1 -7 1 -0.11 0.89
-1 -7 1 0.85 0.41
-1 -7 1 0.19 0.35
-1 -7 0 10.07 1.43
-1 -7 0 10.04 3.54
-1 -7 0 9.88 1.4
1 7 0 9 3.08
-1 -7 0 9.27 1.66
-1 -7 0 10.91 1.59
-1 -7 -1 200.89 6.46
1 7 1 233.77 15.06
-1 -7 -1 205.31 7.8
-1 -7 -1 246.13 7.2
-1 -7 -1 208.61 16.11
-1 -7 -2 161.33 6.98
-1 -7 -2 173.12 6.28
1 7 2 158.08 12.26
-1 -7 -2 141.29 13.53
-1 -7 -3 124.37 5.01
-1 -7 -3 139.46 5.77
-1 -7 -3 125.38 6.32
-1 -7 -4 6.55 1.45
-1 -7 -4 5.2 1.1
-1 -7 -4 6.76 1.26
-1 -7 -5 27.74 2.62
-1 -7 -5 24.41 2.07
-1 -7 -5 28.36 2.99
-1 -7 -5 26.61 2.34
-1 -7 -6 46.52 3.68
-1 -7 -6 31.8 2.19
-1 -7 -6 48.01 3.13
-1 -7 -6 37.71 2.68
-1 -7 -7 46.05 2.7
-1 -7 -7 47.91 3.45
-1 -7 -8 84.73 3.21
-1 -7 -8 82.54 3.97
-1 -7 -8 92.89 3.32
-1 -7 -9 0.63 0.26
-1 -7 -9 0.29 0.24
-1 -6 13 9.7 1.07
1 6 -13 8.26 0.82
-1 -6 12 -0.07 0.3
1 6 -12 0.22 0.31
1 6 -11 2.6 0.69
-1 -6 11 4.54 1.07
-1 -6 11 3.97 0.78
1 6 -10 229.76 6.95
-1 -6 10 215.71 5.92
-1 -6 10 227.22 6.11
-1 -6 9 5.12 1.01
1 6 -9 1.72 0.72
-1 -6 9 4.41 1.18
-1 -6 9 3.41 0.76
-1 -6 8 11.29 1.57
-1 -6 8 11.85 1.72
-1 -6 8 10.25 3.4
1 6 -8 8.43 2.81
-1 -6 8 11.13 1.66
-1 -6 7 386.23 19.38
-1 -6 7 278.37 17.35
-1 -6 7 347.82 8.69
-1 -6 7 334.53 7.61
1 6 -7 381.95 18.74
-1 -6 7 347.69 9.27
-1 -6 7 336.07 8.49
-1 -6 7 323.45 7.66
1 6 -6 145.85 11.27
-1 -6 6 124.76 10.64
-1 -6 6 136.14 5.21
-1 -6 6 134.24 5.79
-1 -6 6 117.44 4.48
-1 -6 6 126.17 5.07
-1 -6 6 122.52 4.64
-1 -6 5 134.08 10.29
-1 -6 5 127.54 5.66
-1 -6 5 102.17 10.11
1 6 -5 144.5 10.93
-1 -6 5 131.94 5
-1 -6 5 94.47 5.21
-1 -6 5 124.79 4.82
-1 -6 4 19.19 3.85
-1 -6 4 16.99 4.07
1 6 -4 24.16 4.42
1 6 -3 0.75 0.77
-1 -6 3 -0.39 1.13
-1 -6 3 0.07 1.06
1 6 -2 125.81 9.22
-1 -6 2 142.2 11.4
1 6 -1 0.59 1.16
1 6 -1 -0.27 1.02
-1 -6 1 1.87 1.19
-1 -6 0 160.86 12.58
1 6 0 165.24 9.71
1 6 0 168.36 11.69
1 6 1 4.03 1.98
-1 -6 -1 4.87 2.54
-1 -6 -2 492.87 23.13
-1 -6 -2 506.18 10.12
1 6 2 516.4 20.73
-1 -6 -2 432.64 9.76
-1 -6 -2 458.4 10.69
-1 -6 -3 42.84 2.88
-1 -6 -3 36.99 6.86
1 6 3 47.71 6.29
-1 -6 -3 43.64 3.44
-1 -6 -3 37.53 2.77
1 6 4 133.33 11.12
-1 -6 -4 119.57 4.97
1 6 4 120.74 11.02
-1 -6 -4 119.62 5.92
-1 -6 -5 2.03 0.72
-1 -6 -5 2.08 0.73
-1 -6 -6 19.04 2.45
-1 -6 -6 17.49 1.97
-1 -6 -7 82.1 4.72
-1 -6 -7 86.65 4.2
-1 -6 -8 2.11 0.61
-1 -6 -8 2.52 0.76
-1 -6 -8 2.81 0.74
-1 -6 -9 96.43 4.03
-1 -6 -9 104.02 3.71
-1 -6 -9 96.48 3.52
-1 -6 -10 0.52 0.26
-1 -6 -10 0.76 0.3
-1 -5 14 57.95 2.02
-1 -5 13 1.53 0.56
-1 -5 13 0.55 0.29
1 5 -13 1.42 0.42
-1 -5 12 7.51 1.04
-1 -5 12 8.4 1.27
1 5 -12 6.43 1.14
1 5 -11 0.47 0.6
-1 -5 11 0.05 0.62
-1 -5 11 0.73 0.53
-1 -5 10 0.52 0.42
-1 -5 10 1.8 0.95
-1 -5 9 14.09 1.69
-1 -5 9 14.56 1.79
-1 -5 9 13.91 1.78
1 5 -9 14.25 3.4
-1 -5 9 14.58 1.63
1 5 -9 14.21 1.9
1 5 -9 13.09 3.38
-1 -5 8 47.6 3.21
1 5 -8 46.94 6.19
-1 -5 8 49.57 2.96
-1 -5 8 45.14 6.64
-1 -5 8 40.75 2.82
1 5 -8 44.19 5.79
1 5 -7 195.26 12.5
-1 -5 7 156.48 11.67
1 5 -7 186 10.99
-1 -5 7 178.69 5.93
-1 -5 7 209.96 13.54
-1 -5 7 186.13 6.35
-1 -5 7 177.25 5.75
-1 -5 7 157.89 5.11
1 5 -6 229.33 13.1
-1 -5 6 228.85 13.65
1 5 -5 3.05 1.8
-1 -5 5 0.73 1.08
-1 -5 5 -0.42 1.04
-1 -5 4 0.85 0.99
1 5 -4 -0.02 0.88
-1 -5 4 1.83 1.27
-1 -5 3 134.99 9.78
-1 -5 3 131.77 8.25
1 5 -3 130.06 8.57
-1 -5 2 21.4 3.91
1 5 -2 16.58 2.95
-1 -5 2 21.81 3.05
1 5 -1 257.18 11.1
-1 -5 1 268.93 13.6
-1 -5 1 236.11 9.36
1 5 0 108.81 8.16
1 5 0 110.17 6.99
-1 -5 -1 577.29 16.65
1 5 1 603.97 15.65
1 5 1 594.39 19.54
1 5 2 209.36 11.88
-1 -5 -2 229.77 14.75
-1 -5 -2 213.98 11.55
1 5 3 41.29 5.51
-1 -5 -3 49.97 7.03
-1 -5 -3 43.92 5.79
-1 -5 -4 29 2.66
-1 -5 -4 29.75 2.39
-1 -5 -4 38.28 5.86
1 5 4 36.36 5.37
1 5 5 156.47 11.83
1 5 5 158.37 12.4
-1 -5 -5 163.69 6.62
-1 -5 -5 154.59 12.32
-1 -5 -5 139.57 5.5
-1 -5 -6 47.86 7.16
1 5 6 49.93 6.96
-1 -5 -6 51.46 3.8
1 5 6 58.29 7.54
-1 -5 -6 51.03 3.48
-1 -5 -7 117.81 5.66
-1 -5 -7 123.1 5.31
-1 -5 -8 43.55 3.32
-1 -5 -8 43.79 3.09
-1 -5 -9 23.73 2.25
-1 -5 -9 29.47 2.26
-1 -5 -10 2.16 0.6
-1 -5 -10 1.59 0.45
-1 -5 -10 3.02 0.66
-1 -5 -11 13.7 1.02
-1 -4 14 0.62 0.35
1 4 -14 0.82 0.38
-1 -4 14 1.58 0.5
-1 -4 13 12.05 1.44
1 4 -13 11.51 1.47
-1 -4 13 12.91 1.4
1 4 -12 48.68 3.22
-1 -4 12 56.2 3.07
-1 -4 12 54.45 3.23
-1 -4 11 40.64 2.93
1 4 -11 35.72 2.97
-1 -4 11 44.22 2.91
-1 -4 10 257.29 7.4
-1 -4 10 260.92 7.03
-1 -4 9 123.02 4.66
-1 -4 9 125.06 5.19
-1 -4 9 129.35 5.25
1 4 -9 118.21 5.52
-1 -4 9 143.65 11.91
-1 -4 9 129.74 4.92
1 4 -9 129.05 9.93
1 4 -9 130.63 10.71
1 4 -8 0.45 1.27
-1 -4 8 0.17 0.43
-1 -4 8 -0.24 0.45
-1 -4 8 1 0.5
1 4 -8 -0.26 0.43
-1 -4 8 -0.26 1.23
-1 -4 8 1.2 1.14
1 4 -8 -0.84 1.41
-1 -4 8 0.18 0.33
-1 -4 7 135.71 10.39
1 4 -7 118.56 8.9
-1 -4 7 110.77 8.7
1 4 -7 112.38 8.39
-1 -4 6 534.65 19.49
1 4 -6 538.38 18.06
1 4 -6 504.4 16.24
1 4 -5 11.79 2.68
1 4 -5 10.61 2.22
-1 -4 5 10.84 2.54
-1 -4 5 10.98 2.62
1 4 -4 94.08 6.89
-1 -4 4 106.15 7.55
-1 -4 4 93.35 7.15
1 4 -4 87.14 5.38
1 4 -3 391.26 13.22
-1 -4 3 361.39 12.48
1 4 -3 380.95 9.41
1 4 -2 692.28 16.68
-1 -4 2 660.92 15.54
-1 -4 1 340.57 10.18
1 4 -1 363.35 11.42
-1 -4 0 3.7 1.12
1 4 0 1.8 0.71
1 4 0 1.48 0.98
-1 -4 0 5.08 1.89
-1 -4 0 3.54 1.2
-1 -4 -1 138.39 8.07
1 4 1 125.81 6.16
1 4 1 136.81 8.35
-1 -4 -2 0.55 0.57
1 4 2 1.62 1.17
-1 -4 -2 0.41 0.83
-1 -4 -3 0.31 1.24
1 4 3 0.92 1.1
-1 -4 -3 1.24 1.1
-1 -4 -4 102.96 9.28
1 4 4 102.52 8.29
1 4 5 0.2 1.05
1 4 5 -0.18 0.66
-1 -4 -5 0.19 1.08
-1 -4 -6 7.56 1.29
1 4 6 8.59 2.71
-1 -4 -6 7.39 1.57
1 4 6 8.16 2.86
-1 -4 -6 11.43 3.49
-1 -4 -6 7 1.41
1 4 7 6.55 2.71
-1 -4 -7 5.03 1.18
-1 -4 -7 1.98 1.59
1 4 7 5.82 2.44
1 4 7 3.54 0.85
-1 -4 -7 5.03 1.15
-1 -4 -7 3.47 1.15
-1 -4 -8 25.99 2.56
1 4 8 25.62 2.22
-1 -4 -8 26.73 2.63
-1 -4 -8 30.03 2.7
-1 -4 -9 79.64 4.08
-1 -4 -9 78.43 4.16
-1 -4 -9 76.71 3.87
1 4 9 72.01 3.52
-1 -4 -10 -0.28 0.48
1 4 10 0.65 0.36
-1 -4 -11 15.69 1.37
1 4 11 12.88 1.06
1 3 -14 79.03 2.92
-1 -3 14 82.64 2.97
-1 -3 14 73.44 2.72
-1 -3 13 1.82 0.72
-1 -3 13 1.18 0.71
1 3 -13 0.89 0.41
-1 -3 12 11.64 1.69
-1 -3 12 9.37 1.38
-1 -3 11 24.67 2.23
1 3 -11 24.53 2.38
-1 -3 11 24.51 2.17
-1 -3 10 6.37 1.13
1 3 -10 8.98 1.48
1 3 -10 9.66 2.81
-1 -3 10 9.05 1.51
-1 -3 10 2.9 2.22
-1 -3 9 0.15 0.38
1 3 -9 -0.24 1.07
-1 -3 9 0.11 0.56
1 3 -9 0.65 0.78
-1 -3 9 0.55 0.45
-1 -3 9 -0.94 1.58
-1 -3 8 1.31 0.97
-1 -3 8 2.83 2
1 3 -8 2.97 1.48
1 3 -8 3.44 1.67
-1 -3 7 504.93 19.23
1 3 -7 538.24 17.31
1 3 -7 530.08 17.79
1 3 -6 1.77 1.2
-1 -3 6 0.36 0.87
1 3 -6 1.8 0.83
-1 -3 6 -0.01 0.79
-1 -3 5 4.13 1.52
1 3 -5 6.34 1.89
1 3 -5 6.74 1.7
-1 -3 5 1.31 1.31
1 3 -4 4.53 1.36
-1 -3 4 5.4 1.65
-1 -3 4 6.37 1.71
-1 -3 4 6.22 1.04
-1 -3 3 51.31 4.41
-1 -3 3 46.85 4.28
1 3 -3 59.47 4.7
1 3 -3 54.07 3.72
-1 -3 3 58.46 3.47
-1 -3 2 78.62 4.38
-1 -3 2 62.93 4.87
1 3 -2 75.42 4.81
-1 -3 2 57.5 4.23
1 3 -2 70.87 3.51
-1 -3 1 33.12 3.65
1 3 -1 24.37 1.4
-1 -3 1 28.2 2.71
-1 -3 1 23.47 2.01
1 3 -1 34.73 3.07
-1 -3 0 1.42 1.06
-1 -3 0 0.64 0.61
1 3 0 -0.06 0.66
1 3 0 1.07 0.52
-1 -3 0 1.86 0.75
1 3 1 785.12 11.98
1 3 1 830.44 13.26
1 3 1 789.98 17.08
-1 -3 -1 828.5 18.47
-1 -3 -1 826.18 12.58
1 3 2 7.8 1.55
-1 -3 -2 7.71 2.19
1 3 2 6.18 1.76
-1 -3 -2 7.41 2.13
1 3 2 5.8 0.99
1 3 3 111.37 7.2
1 3 3 127.74 6.86
-1 -3 -3 116.66 9.04
-1 -3 -3 104.2 8.94
-1 -3 -4 7.13 2.33
1 3 4 7.67 1.84
1 3 4 6.99 1.94
1 3 4 7.54 2.22
1 3 5 472.3 15.36
1 3 5 472.17 17.79
-1 -3 -5 491.2 20.34
1 3 5 461.93 18.1
-1 -3 -6 90.01 4.3
1 3 6 95.06 8.67
-1 -3 -6 96.65 9.45
1 3 6 84.87 7.12
1 3 6 91.7 8.54
-1 -3 -7 17.62 4.28
1 3 7 19.48 4.29
1 3 7 18.88 4.3
-1 -3 -7 19.38 2.12
1 3 7 15.62 1.7
-1 -3 -7 18.21 2.12
1 3 7 13.17 1.59
1 3 8 4.88 1.05
-1 -3 -8 5.57 1.17
1 3 8 5.52 1.09
-1 -3 -8 6.52 1.31
-1 -3 -8 5.92 1.11
-1 -3 -9 1.36 0.6
1 3 9 0.53 0.41
-1 -3 -9 0.67 0.53
1 3 9 0.4 0.39
-1 -3 -9 1.05 0.34
-1 -3 -10 73.5 3.82
-1 -3 -10 68.58 3.21
1 3 10 53.07 2.92
-1 -3 -10 59.43 3.44
1 3 10 63.84 3.28
-1 -3 -11 4.9 0.85
-1 -3 -11 4.01 0.73
1 3 11 4.92 0.83
1 3 12 96.47 2.73
-1 -3 -12 114.71 3.17
-1 -2 14 0.2 0.28
1 2 -14 -0.09 0.37
-1 -2 14 0.17 0.21
-1 -2 13 3.9 0.93
1 2 -13 3.25 0.79
-1 -2 13 6.05 1.04
-1 -2 13 3.46 0.69
-1 -2 12 35.5 2.47
1 2 -12 31.19 2.66
-1 -2 12 33.92 2.67
-1 -2 11 116.42 5
1 2 -11 121.44 5.49
-1 -2 11 116.02 4.62
-1 -2 11 114.5 4.9
-1 -2 10 16.25 1.79
1 2 -10 16.44 2.08
-1 -2 10 17.97 1.97
-1 -2 10 17.4 1.92
-1 -2 10 14.73 3.77
1 2 -10 18.28 4.16
1 2 -9 2.01 1.56
1 2 -9 0.59 0.43
-1 -2 9 0.91 0.63
-1 -2 9 -0.38 1.08
-1 -2 9 0.97 0.42
-1 -2 9 0.69 0.48
1 2 -8 1.84 1.39
-1 -2 8 -0.1 0.6
-1 -2 8 0.07 0.75
1 2 -8 0.37 0.51
-1 -2 8 0.31 1.05
1 2 -7 3.16 1.9
-1 -2 7 0.84 0.72
-1 -2 7 1.6 1.22
-1 -2 7 0.86 1.02
1 2 -6 350.89 13.12
-1 -2 6 343.94 13.92
-1 -2 6 335.03 14.05
-1 -2 6 311.02 11.03
-1 -2 6 347.98 9.75
-1 -2 5 624.26 10.99
-1 -2 5 668.92 12.5
1 2 -5 681.1 16.8
-1 -2 5 649.83 19.29
-1 -2 5 685.08 17.45
-1 -2 5 642.37 14.47
-1 -2 4 56.9 3.1
-1 -2 4 60.67 4.07
1 2 -4 57.28 4.54
-1 -2 4 54.79 5.03
-1 -2 3 712.04 13.09
-1 -2 3 676.53 14.58
1 2 -3 588.89 12.33
-1 -2 3 568.54 9.73
-1 -2 2 29.01 2.67
-1 -2 2 17.55 1.78
-1 -2 2 28.07 2.7
1 2 -2 16.88 0.96
1 2 -2 17.21 1.66
-1 -2 1 218.05 6.59
-1 -2 1 162.73 4.44
-1 -2 1 181.72 6.04
-1 -2 1 211.67 7.42
1 2 -1 175.17 3.96
-1 -2 0 252.2 8.69
1 2 0 227.36 5.98
1 2 0 196.32 5.5
-1 -2 0 237.14 6.41
-1 -2 0 221.69 6.87
-1 -2 0 258.27 7.79
1 2 1 966.78 15.77
1 2 1 928.25 10.59
1 2 1 950.53 12.63
-1 -2 -1 986.58 12.91
-1 -2 -2 8.45 1.95
1 2 2 6.86 1.38
1 2 2 7.44 1.4
-1 -2 -2 7.72 2.06
1 2 2 6.08 0.7
1 2 3 185.75 8.02
1 2 3 182.29 8.33
-1 -2 -3 174.04 6.3
-1 -2 -4 492.34 18.32
1 2 4 469.61 15.64
1 2 4 461.7 14.65
-1 -2 -4 426.97 11.64
1 2 4 437.69 14.41
1 2 5 402.58 15.58
1 2 5 391.16 15.18
1 2 5 410.3 14.8
-1 -2 -5 415.78 13.18
1 2 6 24.23 4.13
1 2 6 19.83 3.4
-1 -2 -6 22.5 4.54
1 2 6 24.01 4.08
1 2 7 146.76 5.23
-1 -2 -7 155.87 5.73
-1 -2 -7 139.94 5.12
1 2 7 160.51 11.25
-1 -2 -7 176.16 12.89
1 2 7 152.49 11.23
1 2 7 171.21 10.94
1 2 7 138.05 4.98
-1 -2 -7 164.49 5.68
-1 -2 -8 131.41 5.25
-1 -2 -8 164.1 5.88
1 2 8 138.98 11.47
1 2 8 163.02 11.67
1 2 8 134.95 5.2
-1 -2 -8 141.62 5.43
1 2 8 160.67 11.77
-1 -2 -8 169.86 13.19
1 2 8 143.57 5.44
-1 -2 -8 162.66 6.03
-1 -2 -9 4.1 1
1 2 9 2.54 0.67
-1 -2 -9 3.85 0.99
1 2 9 3.49 0.81
-1 -2 -10 0.55 0.46
1 2 10 0.51 0.4
-1 -2 -10 0.69 0.56
1 2 10 0.62 0.49
-1 -2 -11 17.41 1.58
1 2 11 16.23 1.5
-1 -2 -11 19.28 1.84
1 2 11 17.44 1.69
-1 -2 -12 13.5 1.25
1 2 12 12.17 1.16
-1 -2 -12 13.88 1.09
-1 -1 14 27.68 1.64
-1 -1 14 26.3 1.88
1 1 -14 32.18 1.97
-1 -1 13 86.33 3.7
-1 -1 13 70.2 3.33
-1 -1 13 75.95 3.32
1 1 -13 81.8 3.77
1 1 -12 1.97 0.73
-1 -1 12 1.23 0.7
-1 -1 12 1.99 0.75
-1 -1 12 1.94 0.65
-1 -1 11 11.44 1.57
1 1 -11 7.59 1.39
-1 -1 11 8.19 1.45
-1 -1 11 9.74 1.66
-1 -1 10 0.56 0.45
-1 -1 10 1.68 0.85
-1 -1 10 0.94 0.59
1 1 -10 0.64 0.48
1 1 -10 0.12 0.73
-1 -1 9 103.35 8.71
1 1 -9 97.19 4.73
-1 -1 9 97.5 4.33
-1 -1 9 92.53 4.11
-1 -1 9 98.28 4.32
1 1 -9 106.46 8.99
-1 -1 8 19.29 3.15
-1 -1 8 29.45 4.2
1 1 -8 24.77 3.97
-1 -1 8 25.84 4.78
1 1 -8 34.77 5.16
-1 -1 7 545.91 15.15
-1 -1 7 666.39 21.97
-1 -1 7 612.58 18.88
1 1 -7 631.87 18.99
1 1 -7 564.82 16.76
1 1 -7 595.39 16.2
1 1 -6 584.3 16.99
-1 -1 6 578.45 12.07
1 1 -6 599.62 14.46
-1 -1 6 605.16 17.82
-1 -1 6 591.52 18.95
-1 -1 5 36.25 3.2
-1 -1 5 40.05 4.56
-1 -1 5 23.3 2.13
1 1 -5 34.49 3.64
1 1 -5 24.16 3.15
-1 -1 5 38.25 4.49
-1 -1 4 293.23 10.07
-1 -1 4 273.01 7.49
-1 -1 4 273.49 9.99
-1 -1 4 255.11 5.79
1 1 -4 283.6 8.66
1 1 -4 252.79 8.97
1 1 -3 1544.98 14.95
-1 -1 3 1576.64 15.32
-1 -1 3 1534.99 11.57
1 1 -3 1520.1 17.66
-1 -1 3 1578.39 16.35
1 1 -2 12.43 1.05
-1 -1 2 14.91 1.42
-1 -1 2 17.5 1.66
1 1 -2 15.47 1.45
-1 -1 1 109.52 3.28
-1 -1 1 94.7 3.73
-1 -1 0 11.51 1.24
-1 -1 0 10.49 1.27
-1 -1 0 13.29 1.66
-1 -1 -1 127.21 5.44
1 1 1 109.56 4.07
-1 -1 -1 121.68 5.98
1 1 2 0.87 0.67
1 1 2 5.06 1.19
1 1 2 9.1 1.87
-1 -1 -2 0.78 1.15
-1 -1 -2 5.17 1.14
1 1 3 16.09 2.26
1 1 3 15.37 2.3
-1 -1 -3 17.29 2.96
-1 -1 -3 15.44 2.07
1 1 3 15.19 2.14
1 1 4 56.24 5.11
1 1 4 45.87 4.36
-1 -1 -4 46.99 4.18
1 1 4 44.69 4.47
-1 -1 -4 60.84 5.86
1 1 5 3 1.52
-1 -1 -5 3.53 1.63
-1 -1 -5 4.57 1.61
1 1 5 4.9 1.52
1 1 5 4.12 1.42
1 1 6 18.5 3.38
-1 -1 -6 19 3.14
1 1 6 23.22 3.98
-1 -1 -6 22.86 4.14
1 1 6 16.44 3.21
1 1 7 47.66 5.81
1 1 7 47.09 5.81
1 1 7 49.91 6.17
-1 -1 -7 44.62 6.13
-1 -1 -7 49.04 5.69
-1 -1 -8 3.18 0.86
1 1 8 2.67 0.69
1 1 8 3.81 0.88
-1 -1 -8 6.27 2.14
1 1 8 2.33 1.35
1 1 8 6.07 2.27
-1 -1 -8 6.68 1.13
-1 -1 -8 3.18 1.81
1 1 8 3.93 1.8
1 1 9 408 9.25
-1 -1 -9 371.4 9.02
-1 -1 -9 415.6 20.31
1 1 9 389.61 18.3
1 1 9 398.95 8.92
-1 -1 -9 392.98 9.49
1 1 9 371.6 19.17
-1 -1 -9 367.45 9.04
-1 -1 -10 3.62 1.03
1 1 10 5.56 1.06
-1 -1 -10 4.54 1.05
1 1 10 5.4 1
-1 -1 -11 4.63 1.02
1 1 11 4.96 0.98
1 1 11 3.85 0.9
-1 -1 -11 5.11 0.95
-1 -1 -12 76.53 3.02
-1 -1 -12 84.49 3.36
1 1 12 89.24 3.46
1 1 12 80.39 3.05
-1 -1 -13 1.85 0.39
1 1 13 2.81 0.51
-1 0 14 4.06 0.65
-1 0 14 3.51 0.71
-1 0 13 19 1.79
-1 0 13 25.31 1.91
1 0 -12 2.22 0.84
-1 0 12 0.55 0.65
-1 0 12 0.68 0.61
-1 0 12 0.32 0.4
1 0 -11 50.38 3.48
-1 0 11 47.44 3.18
-1 0 11 51.81 3.29
-1 0 11 54.93 3.49
-1 0 10 2.94 0.89
-1 0 10 1.96 0.64
1 0 -10 1.21 0.65
1 0 -10 3.23 1.74
-1 0 10 2.29 0.75
1 0 -9 333.39 15.77
-1 0 9 268.52 16.09
-1 0 9 273.5 7.17
-1 0 9 290.07 7.57
1 0 -9 210.61 12.37
1 0 -9 319.66 8.46
-1 0 9 255.58 7.05
1 0 -8 260.05 12.93
1 0 -8 221.84 11.95
-1 0 8 263.1 14.25
-1 0 8 235.87 14.52
-1 0 7 28.45 3.24
1 0 -7 23.86 3.67
-1 0 7 21.08 3.07
-1 0 7 25.89 4.73
1 0 -7 25.04 3.2
1 0 -7 30.44 4.29
-1 0 7 24.67 4.2
1 0 -6 60.02 5.35
1 0 -6 65.68 4.99
1 0 -6 65.81 5.78
-1 0 6 65.89 6.05
-1 0 6 62.35 5.05
1 0 -6 53.93 5.31
-1 0 6 64.96 4.33
-1 0 6 57.22 6.29
-1 0 5 132.26 6.79
-1 0 5 123.76 5.17
-1 0 5 139.14 9.21
-1 0 5 110.34 6.6
1 0 -5 136.7 7.63
1 0 -5 122.93 6.41
1 0 -5 144.33 8.1
-1 0 4 917.53 11.68
-1 0 4 1047.97 20.29
1 0 -4 1002.35 17.86
-1 0 4 846.57 14.8
-1 0 4 1022.7 17.3
1 0 -4 946.6 16.53
-1 0 3 8.67 1.42
1 0 -3 4.64 1.04
-1 0 3 3.5 0.85
-1 0 3 6.44 0.8
1 0 -3 7.74 1.23
-1 0 2 690.73 9.69
1 0 -2 694.14 9.22
-1 0 2 704.14 9.25
1 0 -1 342.39 3.61
1 0 -1 328.84 5.71
1 0 0 56.1 2.38
1 0 0 51.58 2.11
1 0 0 53.53 1.45
-1 0 -1 216.08 6.22
-1 0 -1 206.1 5.19
1 0 1 220.71 6.05
1 0 1 217.42 4.91
1 0 1 203.35 2.92
1 0 2 22.11 2.3
-1 0 -2 16.91 2.15
-1 0 -2 20.79 2.05
-1 0 -2 20.07 1.85
1 0 3 11.29 1.83
-1 0 -3 12.22 2.06
1 0 3 5.78 1.38
1 0 3 5.27 1.22
-1 0 -3 5.62 1.43
1 0 4 557.67 15.67
-1 0 -4 580.39 15.95
1 0 4 606.56 15.08
-1 0 -4 565.05 16.07
1 0 5 2.34 1.33
-1 0 -5 3.63 1.8
-1 0 -5 1.62 1.35
1 0 5 1.99 1.13
1 0 5 1.94 0.91
-1 0 -6 1.99 1.04
-1 0 -6 3.14 1.55
1 0 6 3.74 1.48
1 0 6 2.33 1
1 0 6 1.83 1.25
1 0 7 114.03 9.31
1 0 7 93.63 7.93
1 0 7 96.14 8.42
-1 0 -7 93.61 8.13
-1 0 -7 111.53 9.06
-1 0 -8 656.07 23.42
-1 0 -8 673.74 23.18
1 0 8 700.87 23.17
1 0 8 667.57 23.96
-1 0 -8 642.08 11.09
1 0 8 662.68 11.32
-1 0 -8 654.94 11.87
1 0 8 582.05 10.49
1 0 8 723.76 24.55
1 0 9 313.41 7.95
1 0 9 360.27 8.66
-1 0 -9 310.98 8.32
1 0 9 351.99 18.22
-1 0 -9 347.8 17.4
-1 0 -9 362.66 9.08
-1 0 -9 278.78 16.12
1 0 9 393.62 17.98
1 0 10 15.43 1.72
-1 0 -10 15.65 1.93
1 0 10 16.26 1.87
-1 0 -10 15.03 1.88
-1 0 -11 1.16 0.54
1 0 11 1.03 0.47
1 0 11 1.73 0.75
-1 0 -11 0.77 0.52
-1 0 -12 28.41 2.03
1 0 12 32.03 2.12
-1 0 -12 29.66 2.1
1 0 12 32.24 2.18
-1 0 -13 27.62 1.51
-1 0 -13 30.41 1.59
1 0 13 28.79 1.67
-1 1 14 27.49 1.6
1 -1 -14 25.91 1.56
-1 1 14 25.2 1.52
-1 1 13 31.8 2.2
-1 1 13 34.76 2.36
1 -1 -13 28.79 2.14
1 -1 -12 122.02 5
-1 1 12 124.27 4.84
-1 1 12 126.87 4.94
-1 1 11 15.52 1.87
-1 1 11 16.12 1.86
-1 1 11 13.19 1.67
1 -1 -11 15.89 1.97
1 -1 -11 14.35 1.62
1 -1 -10 163.59 5.76
-1 1 10 177.59 6.1
-1 1 10 156.96 5.88
1 -1 -10 176.42 6.54
1 -1 -10 190.32 12.41
-1 1 10 168.09 6.32
1 -1 -9 787.67 12.36
1 -1 -9 780.34 25.56
-1 1 9 863.58 13.12
-1 1 9 861.37 28.66
-1 1 9 774.53 12.61
1 -1 -9 807.64 13.63
1 -1 -9 787.12 24.06
-1 1 9 843.89 13.17
1 -1 -8 118.82 9.37
1 -1 -8 130.86 9.12
-1 1 8 127.32 10.54
-1 1 8 151.28 10.83
-1 1 7 79.24 5.84
-1 1 7 74.27 8.03
-1 1 7 91.27 7.68
1 -1 -7 84.37 6.67
1 -1 -7 81.56 7.28
-1 1 6 1.97 1.11
1 -1 -6 3.58 1.63
-1 1 6 4.41 2.05
1 -1 -6 5.75 1.6
-1 1 6 4.31 1.77
-1 1 6 2.5 1.2
1 -1 -6 6.26 1.69
1 -1 -5 31.23 3.52
-1 1 5 25.37 2.59
-1 1 5 30.8 3.8
1 -1 -5 31.21 3.72
1 -1 -5 32.03 4.35
-1 1 5 26.23 4.33
-1 1 5 27.66 2.87
1 -1 -4 2.02 0.92
-1 1 4 3.97 1.04
-1 1 4 3.94 1.38
-1 1 4 4.86 1.38
1 -1 -4 5.34 1.35
-1 1 4 1.59 0.6
1 -1 -4 5.74 1.49
-1 1 3 414.58 9.81
1 -1 -3 415.74 8.74
-1 1 3 414.93 7.22
1 -1 -3 406.61 9.58
-1 1 2 55.4 2.35
1 -1 -2 59.51 3.17
1 -1 -2 67.21 3.57
-1 1 2 68.45 3.24
-1 1 2 60.33 3.24
1 -1 -1 55.01 2.59
1 -1 -1 56.91 1.58
-1 1 1 51.57 2.39
-1 1 1 53.62 2.13
1 -1 0 31.1 1.77
1 -1 0 27.6 1.95
-1 1 0 28.05 1.95
-1 1 0 27.69 1.9
-1 1 0 31.23 1.86
-1 1 -1 153.31 4.79
1 -1 1 134.3 3.83
1 -1 1 143.51 4.52
1 -1 1 156.05 4.94
-1 1 -1 143.34 4.23
-1 1 -1 149.46 3.8
-1 1 -2 49.96 2.31
1 -1 2 61.93 3.72
-1 1 -2 49.62 2.72
-1 1 -2 44.89 3.18
1 -1 2 51.62 3.07
-1 1 -2 57.82 3.72
1 -1 3 171.25 6.68
1 -1 3 157.09 6.85
1 -1 3 173.25 6.99
-1 1 -3 154.27 4.98
-1 1 -3 166.87 6.81
-1 1 -3 172.97 7.93
1 -1 4 644.41 15.22
1 -1 4 669.83 15.58
-1 1 -4 619.95 10.84
-1 1 -4 699.03 19.85
1 -1 4 682.46 17.29
-1 1 -4 704.3 16.16
-1 1 -5 14.02 3.21
1 -1 5 22.06 3.41
1 -1 5 9.9 2.24
-1 1 -5 20.95 3.14
1 -1 5 10.88 2.17
1 -1 6 507.83 17.27
1 -1 6 583.66 18.89
1 -1 6 550.79 17.19
-1 1 -6 536.13 17.24
-1 1 -6 528.34 19.13
-1 1 -7 374.38 17.02
1 -1 7 331.93 14.53
1 -1 7 377.77 16.44
-1 1 -7 328.39 14.91
1 -1 8 81.73 3.99
-1 1 -8 111.9 9.32
-1 1 -8 92.8 4.54
1 -1 8 96.77 8.33
1 -1 8 129.87 10.35
-1 1 -8 110.42 4.54
-1 1 -8 92.59 8.93
1 -1 8 105.4 4.32
1 -1 8 107.58 4.58
1 -1 9 77.29 4.03
1 -1 9 75.75 3.84
1 -1 9 72.31 7.76
-1 1 -9 75.32 8.46
-1 1 -9 68.62 3.93
-1 1 -9 73.14 4.18
1 -1 9 84.99 9.09
-1 1 -10 56.98 3.61
-1 1 -10 49.45 3.47
1 -1 10 59.68 3.61
1 -1 10 58.85 3.48
-1 1 -11 50.12 3.23
-1 1 -11 46.17 3.13
1 -1 11 55.22 3.17
1 -1 11 54.62 3.25
-1 1 -12 6.92 1.04
1 -1 12 7.21 1.09
1 -1 12 9.15 1.22
-1 1 -12 6.2 1.01
1 -1 13 39.86 2.02
-1 1 -13 35.03 1.69
-1 1 -13 35.51 1.92
1 -1 13 42.33 2.11
-1 2 14 17.11 1.15
1 -2 -14 19.8 1.18
1 -2 -13 2.73 0.65
-1 2 13 2.71 0.63
-1 2 13 2.95 0.67
-1 2 12 85.7 3.98
1 -2 -12 89.78 4.06
-1 2 12 75.37 3.73
1 -2 -12 77.14 3.31
1 -2 -11 81.12 3.94
1 -2 -11 91.05 4.54
-1 2 11 83.17 4.27
-1 2 11 89.62 4.41
1 -2 -10 0.82 0.39
1 -2 -10 1.69 0.84
-1 2 10 1.27 0.76
-1 2 10 1.2 0.72
1 -2 -9 19.09 2
1 -2 -9 15.67 3.95
-1 2 9 25.26 5.08
-1 2 9 16.95 1.89
1 -2 -9 23.7 2.42
1 -2 -9 23.12 4.08
-1 2 9 20.29 2.04
-1 2 9 16.64 1.93
-1 2 8 13.46 1.64
1 -2 -8 10.41 3.1
1 -2 -8 9.98 2.5
1 -2 -8 10.16 1.49
-1 2 8 11.43 1.48
-1 2 8 8.95 2.8
-1 2 7 14.77 2.93
1 -2 -7 16.13 3.58
1 -2 -7 14.5 2.8
-1 2 7 16.85 3.74
-1 2 7 15.3 3.51
-1 2 6 70.68 6.54
-1 2 6 54.25 6
-1 2 6 66.2 5.34
1 -2 -6 68.46 5.62
1 -2 -6 69.62 5.19
1 -2 -6 65.9 6.66
-1 2 5 164.36 8.07
-1 2 5 165.57 9.41
1 -2 -5 171.79 7.66
1 -2 -5 161.72 8.04
-1 2 5 184.87 9.29
1 -2 -4 503.32 12.5
1 -2 -4 492.65 11.71
-1 2 4 497.57 13.47
-1 2 3 28.22 2.86
1 -2 -3 22.41 2.37
1 -2 -3 26.62 2.68
-1 2 3 21.93 2.42
1 -2 -3 27.02 2.43
1 -2 -2 222.73 7.16
1 -2 -2 210.71 6.05
-1 2 2 226.97 7.04
-1 2 2 217.86 7.12
-1 2 1 438.99 8.56
-1 2 1 407 9.39
1 -2 -1 406.89 7.53
1 -2 -1 426.37 8.42
1 -2 0 1123.17 13.63
-1 2 0 1122.03 15.22
1 -2 0 1117.96 12.55
1 -2 1 214.03 6.37
-1 2 -1 208.5 5.64
-1 2 -1 221.27 6.89
1 -2 1 211.06 5.28
-1 2 -1 214.14 4.63
-1 2 -2 232.12 6.55
-1 2 -2 239.62 7.79
-1 2 -2 237.16 7.71
1 -2 2 235.52 7.05
-1 2 -3 303.1 8.55
1 -2 3 297.26 9.41
1 -2 3 300.87 9.7
-1 2 -3 268.65 9.19
-1 2 -3 300.1 10.3
1 -2 4 39.14 4.15
-1 2 -4 28.36 3.6
-1 2 -4 37.93 3.46
1 -2 4 29.6 3.3
1 -2 5 671.38 18.39
1 -2 5 700 17.72
-1 2 -5 670.68 20.37
-1 2 -5 618.44 15.67
-1 2 -5 618.53 14.9
-1 2 -6 1.09 0.85
-1 2 -6 1.15 0.97
1 -2 6 1.79 1.16
1 -2 6 2.52 1.27
1 -2 7 66.34 6.84
-1 2 -7 42.28 5.7
1 -2 7 41.25 5.08
-1 2 -7 64.28 6.2
1 -2 8 3.67 0.85
-1 2 -8 8.2 1.34
1 -2 8 8.02 1.35
1 -2 8 3.49 0.98
1 -2 8 7.45 2.58
-1 2 -8 4.95 1.12
-1 2 -8 3.73 0.95
-1 2 -8 8.23 2.93
1 -2 8 4.13 1.96
-1 2 -9 9.58 3.48
1 -2 9 11.02 1.68
-1 2 -9 12.13 1.79
1 -2 9 12.36 1.59
1 -2 9 11.03 3.22
-1 2 -9 9.13 1.54
1 -2 9 11.12 3.44
1 -2 9 12.68 1.64
1 -2 10 1.79 0.77
1 -2 10 2.36 0.77
-1 2 -10 1.23 0.59
-1 2 -10 3.57 0.97
1 -2 11 14.6 1.82
1 -2 11 13.61 1.66
-1 2 -11 16.93 1.99
-1 2 -12 0.51 0.32
1 -2 12 0.9 0.43
-1 2 -12 0.71 0.65
1 -2 12 1.84 0.7
-1 2 -13 12.36 1.2
1 -2 13 11.78 1.14
1 -2 13 10.9 1.11
1 -3 -13 7.65 0.77
1 -3 -13 8.79 0.99
-1 3 13 8.69 0.99
-1 3 13 7.21 0.76
1 -3 -12 75.32 3.19
-1 3 12 79.84 3.64
1 -3 -12 78.99 3.55
1 -3 -11 9.74 1.36
-1 3 11 8.07 1.36
1 -3 -11 10.99 1.51
-1 3 11 5.98 1.22
1 -3 -10 36.4 2.84
1 -3 -10 44.16 3.16
-1 3 10 32.31 2.77
-1 3 10 41.07 3.1
1 -3 -9 81.78 4.23
-1 3 9 73.07 4.19
-1 3 9 83.63 4.33
1 -3 -9 78.2 4.25
-1 3 9 88.82 9.79
1 -3 -9 76.79 8.98
1 -3 -8 95.95 4.52
-1 3 8 97.23 4.46
-1 3 8 91.49 4.39
-1 3 8 109.65 10.01
1 -3 -8 108.17 10.1
1 -3 -8 94.19 4.64
1 -3 -7 2.24 1.46
-1 3 7 1.28 1.17
-1 3 7 2.5 1.78
1 -3 -6 7.75 1.77
1 -3 -6 3.59 1.81
-1 3 6 8.36 2.42
-1 3 6 8.55 2.41
1 -3 -5 167.64 7.76
-1 3 5 185.26 10.05
1 -3 -5 175.76 8.14
1 -3 -5 176.2 10.9
1 -3 -4 85.14 5.45
1 -3 -4 66.69 5.39
1 -3 -4 93.53 7.47
1 -3 -4 79.92 4.9
-1 3 4 81.85 5.98
-1 3 3 169.09 7.78
-1 3 3 154.67 6.85
1 -3 -3 171.08 7.37
1 -3 -3 153.61 7.25
1 -3 -3 176.42 5.85
1 -3 -2 112.79 5.64
-1 3 2 111.42 5.82
1 -3 -2 106.62 5.6
-1 3 2 119.49 6.12
1 -3 -1 1498.27 20.18
-1 3 1 1493.74 20.78
-1 3 1 1466.76 20.1
1 -3 -1 1526.78 18.62
1 -3 0 10.19 0.9
1 -3 0 17.01 1.76
-1 3 0 12.34 1.99
1 -3 0 16.15 1.96
1 -3 1 190.49 7.1
-1 3 -1 184.83 7.68
1 -3 1 171.23 5.17
1 -3 1 169.93 4.84
1 -3 1 188.18 6.91
1 -3 1 193.44 7.16
-1 3 -2 426.54 12.72
1 -3 2 368.4 9.43
1 -3 2 425.07 11.29
1 -3 2 440.92 11.43
-1 3 -2 398.71 10.59
1 -3 2 330.76 7.57
1 -3 3 77.85 5.02
1 -3 3 78.71 5.59
1 -3 3 52.13 4.24
-1 3 -3 50.61 4.35
-1 3 -3 47.73 4.62
-1 3 -3 63.09 3.87
-1 3 -4 5.84 1.43
-1 3 -4 8.99 2.45
1 -3 4 10.57 2.07
1 -3 4 9.9 2.13
-1 3 -4 10.98 2.37
-1 3 -5 124.47 8.6
-1 3 -5 103.5 7.43
1 -3 5 126.09 7.87
1 -3 5 125.82 7.82
-1 3 -5 115 6.23
-1 3 -6 4.08 1.62
1 -3 6 3.12 1.53
1 -3 6 3.44 1.58
-1 3 -6 3.35 2.05
1 -3 7 327.97 14.64
-1 3 -7 305.76 15.78
1 -3 7 320.36 14.94
1 -3 8 35.87 5.8
1 -3 8 51.07 6.54
-1 3 -8 49.98 6.7
-1 3 -8 41.99 2.9
1 -3 8 48.84 2.86
-1 3 -8 54.07 3.6
1 -3 8 48.56 3.16
1 -3 8 47.91 2.97
-1 3 -8 41.57 3.07
1 -3 8 50.78 3.26
1 -3 8 48.08 6.08
-1 3 -9 21.87 4.77
-1 3 -9 25.09 2.47
1 -3 9 21.35 4.81
1 -3 9 15.34 3.95
-1 3 -9 20.45 2.12
1 -3 9 21.02 1.94
1 -3 9 22.78 2.27
1 -3 9 24.22 2.26
1 -3 9 23.45 2.15
1 -3 9 17.24 4.13
1 -3 9 25.64 4.88
1 -3 10 47.48 2.89
1 -3 10 54.21 3.46
1 -3 10 53.9 3.29
1 -3 10 52.41 3.27
-1 3 -10 53.83 3.67
1 -3 11 84.5 3.95
-1 3 -11 87.3 4.36
1 -3 11 88.9 3.98
1 -3 12 54.85 2.86
-1 3 -12 59.35 3.26
1 -3 12 54.73 2.8
-1 3 -13 -0.31 0.43
1 -3 13 0.42 0.35
1 -3 13 0.32 0.27
-1 4 13 4.16 0.61
1 -4 -13 4.44 0.56
-1 4 12 21.2 1.4
-1 4 12 23 1.83
1 -4 -12 22.51 1.61
1 -4 -12 25.45 1.8
-1 4 11 57.24 2.74
1 -4 -11 55.75 3.11
1 -4 -11 57.7 3.1
-1 4 11 65.87 3.49
-1 4 10 23.84 2.4
1 -4 -10 25.32 2.3
-1 4 10 28.75 2.52
1 -4 -10 22.82 2.21
-1 4 9 50.71 3.5
1 -4 -9 52.46 3.49
1 -4 -9 50.44 3.38
-1 4 9 56.83 3.62
1 -4 -8 12.75 1.73
-1 4 8 15.93 4.03
1 -4 -8 11.14 1.59
-1 4 8 13.45 1.73
-1 4 8 10.89 1.63
1 -4 -8 12.95 3.72
-1 4 7 13.74 3.29
-1 4 7 13.31 1.71
-1 4 7 17.14 1.84
-1 4 7 16.85 4
1 -4 -7 17.95 1.94
1 -4 -7 22.99 4.68
1 -4 -7 16.29 1.87
-1 4 6 238.53 13.44
1 -4 -6 257.27 14.74
-1 4 5 45.46 5.44
1 -4 -5 41.93 4.19
1 -4 -5 32.54 4.95
1 -4 -4 38.9 5.24
1 -4 -4 24.6 3.93
-1 4 4 27.48 3.31
1 -4 -4 32.01 3.61
-1 4 4 37.57 4.55
1 -4 -3 52.23 5.49
-1 4 3 53.6 5.06
1 -4 -3 37.88 4.36
-1 4 3 46.53 4.45
1 -4 -3 52.43 4.65
-1 4 2 103.81 6.44
1 -4 -2 91.27 6.13
1 -4 -2 109.55 6.39
-1 4 2 111.77 6.94
1 -4 -2 111.27 6.99
1 -4 -1 0.53 0.83
1 -4 -1 1.68 1.17
-1 4 1 0.2 0.67
-1 4 1 -0.08 0.6
1 -4 -1 0.88 0.61
1 -4 0 186.55 6.56
-1 4 0 170.63 8.32
1 -4 0 183.23 8.09
1 -4 0 197.31 8.48
1 -4 1 832.36 17.37
1 -4 1 807.76 17.04
1 -4 1 813.03 12.03
-1 4 -1 830.98 18.54
1 -4 2 274.27 6.96
-1 4 -2 263.9 11.25
1 -4 2 262.1 10.12
1 -4 2 270.82 6.51
1 -4 3 181.91 6.93
-1 4 -3 188.17 8.49
1 -4 3 190.01 9.21
-1 4 -3 209.87 10.6
1 -4 3 199.17 9.51
-1 4 -4 6.86 1.77
-1 4 -4 7.65 2.39
1 -4 4 9.62 1.96
1 -4 4 9.85 2.28
1 -4 4 6.88 1.89
1 -4 5 73.03 6.47
1 -4 5 86.28 7.24
-1 4 -5 67.02 6.54
-1 4 -5 73.93 6.75
1 -4 5 84.4 6.34
1 -4 6 78.89 6.81
-1 4 -6 71.84 6.68
1 -4 6 68.41 7.01
1 -4 6 78.27 7
-1 4 -6 71.14 7.22
1 -4 7 262.65 6.84
1 -4 7 254.31 6.89
-1 4 -7 248.42 6.86
1 -4 7 248.39 13.26
1 -4 7 243.03 14.11
-1 4 -7 248.94 14.43
-1 4 -8 4.76 1.08
1 -4 8 4.91 2.02
1 -4 8 5.51 1.05
1 -4 8 2.67 2.03
1 -4 8 4.04 1.01
1 -4 8 4.36 0.95
1 -4 8 3.34 1.73
1 -4 8 3.17 0.97
-1 4 -8 4.1 1.59
-1 4 -9 141.43 5.09
1 -4 9 143.25 5.11
1 -4 9 148.41 5.68
1 -4 9 162.56 6.05
-1 4 -9 164.34 6.55
1 -4 9 158.39 5.6
-1 4 -9 150.27 5.78
-1 4 -9 149.07 12.37
-1 4 -10 143.89 6.02
1 -4 10 127.94 4.77
1 -4 10 140.83 5.66
1 -4 10 147.66 5.45
1 -4 10 149.55 5.35
1 -4 11 110.44 4.24
1 -4 11 95.23 3.76
1 -4 11 119.73 4.64
-1 4 -11 100.01 4.65
1 -4 12 56.47 2.88
-1 4 -12 52.53 2.94
1 -4 12 51.91 2.54
1 -4 13 91.03 2.61
-1 4 -13 94.95 3.21
1 -5 -12 74.63 2.51
1 -5 -12 76.09 2.47
1 -5 -11 38.9 2.35
-1 5 11 38.43 2.41
1 -5 -11 37.3 2.29
1 -5 -10 3.24 0.82
-1 5 10 2.98 0.84
1 -5 -10 3.19 0.89
-1 5 10 2.89 0.62
1 -5 -9 149.62 5.66
-1 5 9 136.52 4.52
-1 5 9 141.46 5.7
1 -5 -9 145.04 5.6
1 -5 -8 105.12 4.96
-1 5 8 95.48 3.99
-1 5 8 101.1 4.89
1 -5 -8 96.69 4.85
1 -5 -8 95.35 5.2
1 -5 -7 240.17 7.35
1 -5 -7 208.67 7.72
1 -5 -7 215.99 6.97
-1 5 7 198.07 12.88
1 -5 -7 234.09 15.56
-1 5 7 228.77 7.1
1 -5 -6 64.77 7.75
1 -5 -6 70.88 3.82
1 -5 -6 65.61 4.27
-1 5 6 65.73 3.59
-1 5 6 81.62 8.57
1 -5 -6 66.08 3.74
1 -5 -5 2.85 1.62
-1 5 5 3.1 1.71
1 -5 -4 3.73 1.59
-1 5 4 4.56 1.92
1 -5 -4 4.87 1.82
1 -5 -4 2.21 1.52
-1 5 4 2.26 1.42
-1 5 3 121.07 7.86
1 -5 -3 126.29 7.9
1 -5 -3 104.4 8.32
1 -5 -3 94.02 7.91
-1 5 3 137.44 9.2
1 -5 -2 84.15 6.35
1 -5 -2 68.97 6.48
-1 5 2 85.22 6.69
1 -5 -2 65.25 6.13
-1 5 2 89.89 7.08
1 -5 -1 732.35 18.53
1 -5 -1 663.7 18.77
-1 5 1 738.74 19.42
-1 5 1 668.43 18.74
-1 5 0 35.46 4.3
1 -5 0 35.81 4.34
1 -5 0 36.87 4.18
1 -5 0 26.71 3.05
1 -5 1 618.42 18.01
-1 5 -1 624.19 18.28
1 -5 2 18.75 3.2
-1 5 -2 21.66 3.96
-1 5 -3 479.31 17.51
1 -5 3 488.82 16.64
1 -5 4 10.84 2.61
-1 5 -4 11.51 3.14
1 -5 5 107.69 8.88
-1 5 -5 121.35 9.33
1 -5 6 60.56 7.04
-1 5 -6 52.86 6.39
-1 5 -6 46.76 6.07
1 -5 6 45.5 5.97
1 -5 7 90.31 4.11
-1 5 -7 88.71 8.83
1 -5 7 98.19 4.44
1 -5 7 91.89 4.2
-1 5 -7 91.63 4.23
-1 5 -7 91.15 8.29
1 -5 7 81.06 8.13
1 -5 7 81.4 8.59
1 -5 8 6.06 1.09
1 -5 8 3.2 0.57
1 -5 8 5.73 2.33
1 -5 8 2.78 0.97
1 -5 8 7 3.28
-1 5 -8 3.57 1.03
1 -5 8 2.68 0.95
1 -5 9 37.27 2.71
1 -5 9 44.32 2.96
1 -5 9 42.04 2.91
-1 5 -9 41.7 3.33
-1 5 -9 38.62 2.98
1 -5 9 41.58 3.1
1 -5 10 6.1 1.21
1 -5 10 8.37 1.37
-1 5 -10 6.79 1.39
1 -5 11 7.48 1.22
1 -5 11 8.61 1.1
-1 5 -11 11.37 1.57
1 -5 11 7.98 1.18
1 -5 12 18.29 1.39
-1 5 -12 19.94 1.82
1 -5 12 20 1.67
1 -5 12 18.6 1.38
1 -5 13 6.56 0.74
-1 5 -13 3.79 0.62
1 -6 -11 21.96 1.55
1 -6 -11 19.3 1.25
1 -6 -10 1.02 0.43
1 -6 -10 0.83 0.56
-1 6 10 0.56 0.44
-1 6 9 48.14 3.1
1 -6 -9 54.14 3.31
1 -6 -9 49.53 3
1 -6 -9 49.02 3.54
1 -6 -8 10.83 1.81
1 -6 -8 13.2 1.68
-1 6 8 10.09 1.47
1 -6 -8 12.67 1.7
1 -6 -7 75.27 4.21
1 -6 -7 63.97 4.58
1 -6 -7 72.01 4.07
-1 6 7 61.14 3.66
1 -6 -6 29.89 3.13
1 -6 -6 29.11 5.51
-1 6 6 31.57 5.71
1 -6 -6 30.42 2.7
1 -6 -6 25.73 2.45
-1 6 6 26.4 2.39
1 -6 -5 38.6 2.96
1 -6 -5 35.14 3.37
1 -6 -5 36.25 2.83
-1 6 5 38.42 2.76
-1 6 5 47.51 6.5
1 -6 -5 43.92 6.54
1 -6 -4 31.74 3.08
1 -6 -4 39.64 2.8
-1 6 4 42.68 5.87
1 -6 -4 35.69 2.54
1 -6 -4 27.31 4.98
1 -6 -4 34.8 5.33
-1 6 3 19.42 3.5
-1 6 3 19.1 3.85
1 -6 -3 12.1 3.39
-1 6 2 156.27 10.07
-1 6 2 167 10.85
-1 6 1 86.65 7.66
1 -6 -1 75.76 7.36
-1 6 1 82.91 7.49
1 -6 0 163.25 10.83
-1 6 0 159.05 10.24
-1 6 0 167.66 10.56
-1 6 -1 83.42 7.73
1 -6 1 71.2 7.29
-1 6 -2 126.91 9.59
1 -6 2 143.64 8.25
1 -6 2 129.34 9.9
-1 6 -3 26.4 4.35
1 -6 3 34.96 4.6
1 -6 3 30.28 4.87
1 -6 4 91.98 8.68
-1 6 -4 96.14 8.98
1 -6 5 517.04 9.59
-1 6 -5 503.13 20.78
1 -6 5 500.52 20.97
1 -6 5 506.51 9.7
1 -6 6 7.91 1.34
1 -6 6 6.91 2.57
-1 6 -6 2.01 1.5
-1 6 -6 5.02 1.1
1 -6 6 8.5 2.8
1 -6 6 2.24 0.59
1 -6 6 4.11 1.22
-1 6 -7 242.78 7.16
1 -6 7 285.17 7.63
1 -6 7 270.16 7.44
1 -6 7 249.2 16.14
-1 6 -7 242.24 14.62
1 -6 7 267.91 7.49
1 -6 8 11.67 1.64
1 -6 8 14.32 1.77
1 -6 8 13.02 1.67
-1 6 -8 11.04 1.65
1 -6 9 1.75 0.69
-1 6 -9 2.35 0.86
1 -6 9 2.81 0.92
1 -6 9 1.76 0.76
1 -6 10 102.01 4.14
-1 6 -10 127.53 5.41
1 -6 10 104.21 4.35
1 -6 10 120.23 4.89
1 -6 11 1.17 0.55
-1 6 -11 1.23 0.49
1 -6 11 1.23 0.46
1 -6 12 5.57 0.88
1 -6 12 4.37 0.65
-1 6 -12 4.09 0.82
-1 6 -13 58.56 2
1 -7 -10 0.23 0.26
1 -7 -10 -0.63 0.26
1 -7 -10 -0.05 0.31
1 -7 -9 11.35 1.39
-1 7 9 8.6 1.08
1 -7 -9 9.56 1.16
1 -7 -9 10.06 1.47
1 -7 -8 132.91 6.19
1 -7 -8 140.14 4.89
-1 7 8 125.03 4.64
1 -7 -7 127.11 5.44
1 -7 -7 119.21 6.35
-1 7 7 109.52 4.61
1 -7 -7 118.17 4.79
1 -7 -6 7.06 1.66
1 -7 -6 7.56 1.43
1 -7 -6 6.53 1.27
-1 7 6 7.74 1.33
1 -7 -5 17.56 2.06
1 -7 -5 17.65 2.1
1 -7 -5 17.26 2.53
-1 7 4 72.59 8.24
1 -7 -4 59.25 3.56
1 -7 -4 63.81 3.83
1 -7 -4 63.44 4.85
1 -7 -3 604.01 11.41
1 -7 -3 598.87 14.35
1 -7 -2 133.16 4.87
1 -7 -2 94.47 9.71
1 -7 -2 111.43 6.17
-1 7 2 134.48 10.09
1 -7 -2 122.85 4.86
1 -7 -2 122.26 5.01
-1 7 2 147.29 11.32
1 -7 -1 56.09 3.32
1 -7 -1 51.95 6.92
-1 7 1 61.1 7.03
-1 7 1 63.53 7.57
1 -7 -1 58.27 4.44
1 -7 0 75.18 8.28
-1 7 0 94.85 8.82
-1 7 0 94.63 9.01
1 -7 1 29.81 5.43
-1 7 -1 32.71 5.27
-1 7 -1 26.13 5.08
1 -7 2 -0.72 0.93
-1 7 -2 0.5 1.09
1 -7 3 43.19 2.87
-1 7 -3 44.61 6.55
1 -7 3 36.7 6.13
1 -7 4 195.28 6.15
1 -7 4 165.35 5.46
1 -7 4 181.42 13.66
-1 7 -4 179.1 13.35
1 -7 5 27.06 2.43
1 -7 5 27.9 2.31
1 -7 5 24.91 4.64
-1 7 -5 26.37 5.17
1 -7 5 21.47 4.71
1 -7 5 24.4 2.08
1 -7 5 25.34 2.21
-1 7 -6 252.23 6.78
1 -7 6 277.46 7.59
-1 7 -6 258.46 16.16
1 -7 6 289.35 16.16
1 -7 6 238.51 16.66
1 -7 6 274.34 7.42
1 -7 6 268.63 7.46
1 -7 7 4.71 1.16
1 -7 7 7.39 1.27
1 -7 7 6.24 1.22
-1 7 -7 5.33 1.12
1 -7 8 4.2 0.9
-1 7 -8 2.94 0.94
1 -7 8 3.38 0.94
1 -7 8 3.3 0.84
1 -7 9 4.4 0.95
1 -7 9 4.87 1.13
1 -7 9 6.04 1.04
1 -7 10 161.19 4.89
1 -7 10 158.31 5.08
-1 7 -10 150.88 5.8
1 -7 11 0.08 0.31
1 -7 11 0.18 0.35
-1 7 -11 -0.07 0.45
1 -7 12 27.41 1.49
-1 7 -12 28.23 1.64
1 -8 -9 58.06 2.78
1 -8 -9 52.16 2.22
1 -8 -8 70.49 3.27
1 -8 -8 63.01 2.96
1 -8 -8 62.59 3.8
1 -8 -7 41.53 2.96
1 -8 -7 46.87 2.85
1 -8 -7 39.65 3.44
1 -8 -7 39.52 2.46
1 -8 -6 133.53 5.08
1 -8 -6 127.49 6.63
1 -8 -6 112.92 4.43
1 -8 -6 117.3 5.24
1 -8 -5 34.41 2.6
1 -8 -5 39.71 4
1 -8 -5 39.48 3.08
1 -8 -5 41.88 2.94
1 -8 -4 72.06 4.16
1 -8 -4 76.41 5.59
1 -8 -4 65.86 3.77
1 -8 -4 80.07 4.09
1 -8 -3 7.4 1.31
1 -8 -3 6.9 1.19
1 -8 -3 5.78 1.53
1 -8 -3 4.77 1.06
1 -8 -2 71 3.67
1 -8 -2 70.55 5.34
1 -8 -2 60.5 3.81
-1 8 2 69.27 8.23
-1 8 1 0.08 0.87
1 -8 -1 0.15 0.42
1 -8 -1 0 0.51
-1 8 1 0.17 1.24
1 -8 -1 0.41 1.02
1 -8 0 5.22 1.2
1 -8 0 4.94 1.47
-1 8 0 6.45 2.66
1 -8 0 3.86 2.1
-1 8 0 6.47 2.71
1 -8 1 2.16 0.92
1 -8 1 1.81 0.95
1 -8 1 1.87 0.72
-1 8 -1 1.12 0.79
1 -8 1 2.19 1.9
-1 8 -1 0.94 0.92
1 -8 2 161.44 7.94
1 -8 2 143.36 5.67
1 -8 2 148.49 13.21
-1 8 -2 193.33 14.36
-1 8 -2 146.66 12.24
1 -8 2 166.6 5.64
1 -8 2 174.54 6.11
-1 8 -3 28 5.48
1 -8 3 25.76 2.33
1 -8 3 24.69 5.67
1 -8 4 52.77 8.14
1 -8 4 63.05 3.67
1 -8 5 6.14 1.3
1 -8 5 8.51 1.47
1 -8 5 8.01 1.26
1 -8 6 24.27 2.23
1 -8 6 23.63 2.39
1 -8 6 21.52 2.01
1 -8 6 22.06 2.05
1 -8 7 27.07 2.22
1 -8 7 26.46 2.45
1 -8 7 25.92 2.23
1 -8 8 42.54 2.93
1 -8 8 45.55 2.95
1 -8 8 48.12 2.89
1 -8 8 38.28 2.65
-1 8 -9 3.11 0.86
1 -8 9 3.64 0.83
1 -8 10 0.02 0.29
1 -8 10 0.95 0.44
1 -8 11 3.4 0.51
1 -8 11 3.89 0.6
-1 8 -11 3.59 0.67
1 -9 -8 1.81 0.49
1 -9 -8 1.51 0.44
1 -9 -7 0.59 0.35
1 -9 -7 0.55 0.26
1 -9 -7 0.31 0.35
1 -9 -7 0.19 0.31
1 -9 -6 9.68 1.37
1 -9 -6 10.67 1.86
1 -9 -6 12.53 1.29
1 -9 -5 26.97 2.34
1 -9 -5 30.25 2.15
1 -9 -5 31.74 3.36
1 -9 -4 42.35 4.09
1 -9 -4 44.14 2.71
1 -9 -4 39.11 2.93
1 -9 -3 0.2 0.47
1 -9 -3 0.67 0.61
1 -9 -3 1.05 0.51
1 -9 -2 1.21 0.6
1 -9 -2 1.1 0.41
1 -9 -2 1.47 0.76
1 -9 -1 21.73 2.25
1 -9 -1 20.7 3.03
1 -9 0 0.78 0.77
1 -9 0 0.18 0.37
1 -9 0 0.18 0.51
1 -9 1 21.88 2.15
1 -9 1 15.47 1.89
1 -9 1 20.81 2.94
1 -9 1 20.86 2.06
1 -9 2 14.26 1.69
1 -9 2 13.03 1.64
1 -9 2 8.84 1.46
1 -9 3 6.67 1.13
1 -9 3 7.01 1.15
1 -9 4 221.29 6.77
1 -9 4 232.34 7.15
1 -9 4 215.37 6.48
1 -9 5 93.44 4.44
1 -9 5 78.64 3.85
1 -9 5 87.27 4.06
1 -9 6 27.16 2.73
1 -9 6 28.25 2.4
1 -9 6 31.08 2.36
1 -9 6 24.47 2.02
1 -9 7 5.78 1
1 -9 7 7.07 1.32
1 -9 7 6.89 1.19
1 -9 8 214.67 5.35
1 -9 8 216.12 5.73
1 -9 9 1.78 0.52
1 -9 9 2.88 0.67
-1 9 -9 3.81 0.91
-1 9 -10 -0.15 0.29
1 -9 10 0.01 0.21
1 -9 10 -0.04 0.35
1 -10 -6 -0.33 0.29
1 -10 -6 -0.02 0.24
1 -10 -6 0.43 0.26
1 -10 -5 77 2.46
1 -10 -5 80.6 3.08
1 -10 -5 80.93 4.57
1 -10 -4 93.38 3.03
1 -10 -4 99.54 3.75
1 -10 -4 97.14 5.39
1 -10 -3 0.16 0.32
1 -10 -3 0.73 0.55
1 -10 -3 -0.14 0.37
1 -10 -2 3.47 0.89
1 -10 -2 4.6 1.29
1 -10 -2 4.67 1.01
1 -10 -2 5.08 0.81
1 -10 -1 15.97 1.72
1 -10 -1 18.18 1.62
1 -10 -1 15.46 2.43
1 -10 -1 11.94 1.65
1 -10 0 112.55 4.27
1 -10 0 108.78 6.44
1 -10 0 120.78 4.74
1 -10 1 4.48 0.87
1 -10 1 5.05 1.05
1 -10 1 5.8 1.06
1 -10 2 70.33 3.38
1 -10 2 76.58 3.5
1 -10 3 51.51 2.91
1 -10 3 56.42 3.77
1 -10 3 48.54 2.64
1 -10 3 54.24 3.38
1 -10 3 53.72 3.22
1 -10 4 8.59 1.18
1 -10 4 10.52 1.69
1 -10 4 9.67 1.48
1 -10 4 9.31 1.34
1 -10 5 0.89 0.46
1 -10 5 0.44 0.39
1 -10 5 1.37 0.64
1 -10 6 30.41 2.49
1 -10 6 26.66 1.81
1 -10 6 30.16 2.21
1 -10 6 28.76 1.85
1 -10 7 107.77 3.82
1 -10 7 98.76 4.03
1 -10 7 110.5 3.36
1 -10 8 0.66 0.33
-1 10 -8 -0.43 0.32
1 -10 8 0.4 0.4
1 -10 8 -0.07 0.37
1 -10 9 23.97 1.32
1 -11 -4 36.43 1.64
1 -11 -3 165.86 3.99
1 -11 -2 0.2 0.31
1 -11 -1 177.91 4.62
1 -11 0 103.74 3.56
1 -11 1 4.95 0.78
1 -11 1 6 0.8
1 -11 1 6.23 0.98
1 -11 2 14.67 1.23
1 -11 2 15.2 1.53
1 -11 2 18.07 1.65
1 -11 2 15.18 1.58
1 -11 3 10.5 1.19
1 -11 3 11.31 1.41
1 -11 3 11.81 1.33
1 -11 4 3.3 0.74
1 -11 4 3.22 0.67
1 -11 4 4.51 0.87
1 -11 5 89.47 3.25
1 -11 5 89.41 3.63
1 -11 6 2.09 0.53
1 -11 6 1.92 0.48
1 -11 7 41.41 1.77
1 -11 7 35.57 1.82
1 -12 0 16.84 1.07
1 -12 1 -0.21 0.27
1 -12 2 20.1 1.19
1 -12 2 31.66 1.55
1 -12 3 1.41 0.43
-2 -11 3 28.89 1.44
-2 -11 2 6.99 0.69
-2 -10 8 15.42 1.18
-2 -10 8 15.2 1.27
-2 -10 7 35.87 1.72
-2 -10 7 40.35 2.12
-2 -10 7 40.27 2.35
-2 -10 6 108.59 4.11
-2 -10 6 98.09 3.31
-2 -10 6 108.81 3.73
-2 -10 5 29.05 2.23
-2 -10 5 26.9 1.81
-2 -10 5 30.35 1.96
-2 -10 5 30.85 2.05
-2 -10 4 12.27 1.26
-2 -10 4 12.45 1.36
-2 -10 4 11 1.34
-2 -10 4 11.5 1.27
-2 -10 3 0.08 0.32
-2 -10 3 0.6 0.37
-2 -10 3 0.64 0.38
-2 -10 3 0.92 0.45
-2 -10 2 66.68 2.93
-2 -10 2 68.99 3.1
-2 -10 2 58.59 2.71
-2 -10 1 39.23 2.23
-2 -10 1 43.01 2.36
-2 -10 0 0.08 0.27
-2 -10 0 0.2 0.36
-2 -10 -1 1.86 0.46
-2 -10 -1 2.19 0.54
-2 -10 -2 4.11 0.51
-2 -10 -2 4.85 0.64
-2 -9 10 2.77 0.52
-2 -9 10 3.81 0.57
-2 -9 9 106.27 3.29
-2 -9 9 109.91 3.54
-2 -9 8 0.8 0.38
-2 -9 8 -0.4 0.61
-2 -9 8 0.21 0.47
-2 -9 8 0.45 0.49
-2 -9 7 12.31 1.32
-2 -9 7 9.83 1.22
-2 -9 7 11.78 1.47
-2 -9 7 12.92 1.75
-2 -9 7 8.9 1.22
-2 -9 6 10.31 1.29
-2 -9 6 12.04 1.73
-2 -9 6 10.59 1.32
-2 -9 6 9.08 1.14
-2 -9 6 11.42 1.53
-2 -9 5 250.26 7.7
-2 -9 5 241.78 6.65
-2 -9 5 213.01 5.57
-2 -9 5 220.74 6.17
-2 -9 5 255.72 7.06
-2 -9 4 105.51 4.32
-2 -9 4 111.95 5.16
-2 -9 4 107.08 4.53
-2 -9 4 109.3 4.64
-2 -9 3 1.76 0.77
-2 -9 3 1.15 0.63
-2 -9 3 2.32 0.78
-2 -9 3 2.19 0.69
-2 -9 2 6.65 1.27
-2 -9 2 9.02 1.31
-2 -9 2 6.31 1.12
-2 -9 2 7.09 1.13
-2 -9 2 7.99 1.22
-2 -9 1 11.7 1.46
-2 -9 1 14.67 1.68
-2 -9 1 10.56 1.52
-2 -9 1 14.43 1.6
-2 -9 0 118.32 4.51
-2 -9 0 105.29 4.34
-2 -9 0 113.98 4.12
-2 -9 -1 23.92 1.99
-2 -9 -1 20.55 2.31
-2 -9 -1 21.15 1.81
-2 -9 -2 125.38 4.05
-2 -9 -2 119.39 5.31
-2 -9 -3 27.1 2.42
-2 -9 -3 27.23 1.63
-2 -9 -4 20.77 1.96
-2 -9 -4 23.96 1.56
-2 -9 -5 23.45 1.69
-2 -9 -5 28.01 1.32
-2 -8 11 1.3 0.46
-2 -8 11 1.69 0.48
-2 -8 10 -0.62 0.67
-2 -8 10 -0.07 0.37
-2 -8 10 -0.21 0.36
-2 -8 9 29.12 2.32
-2 -8 9 26.89 1.85
-2 -8 9 29.61 2.16
-2 -8 9 33.63 2.37
-2 -8 8 11.4 1.39
-2 -8 8 11.61 1.42
-2 -8 8 10.95 1.61
-2 -8 8 11.84 1.57
-2 -8 7 5.95 1.31
-2 -8 7 3.78 0.93
-2 -8 7 5.87 1.11
-2 -8 7 7.5 1.3
-2 -8 7 5.54 1.03
-2 -8 6 56.84 3.33
-2 -8 6 53.09 3.16
-2 -8 6 56.69 4.03
-2 -8 6 57.35 3.42
-2 -8 6 57.73 3.62
-2 -8 5 0.6 0.5
-2 -8 5 1.36 0.82
-2 -8 5 1.07 0.73
-2 -8 5 0.91 0.46
-2 -8 5 0.59 0.46
-2 -8 4 5.28 1.27
-2 -8 4 4.77 1.07
-2 -8 4 2.72 0.84
-2 -8 4 2.83 0.93
-2 -8 4 4.35 1.09
-2 -8 4 5.5 1.22
-2 -8 3 32.97 2.94
-2 -8 3 29.09 2.53
-2 -8 3 23.94 2.68
-2 -8 3 30.31 2.59
-2 -8 3 26.46 2.42
-2 -8 2 41.47 3.05
-2 -8 2 42.99 3.02
-2 -8 2 35.67 3.16
-2 -8 2 42.29 3.29
-2 -8 2 38.77 2.9
-2 -8 1 4.57 1.06
-2 -8 1 3.11 0.93
-2 -8 1 2.6 0.81
-2 -8 1 4.28 1.06
-2 -8 1 3.91 0.93
-2 -8 0 53.35 4.03
-2 -8 0 59.2 3.45
-2 -8 0 64.93 3.78
-2 -8 0 52.8 3.65
-2 -8 0 54.69 3.29
-2 -8 -1 0.27 0.44
-2 -8 -1 0.71 0.56
-2 -8 -1 0.54 0.59
-2 -8 -1 0.88 0.47
-2 -8 -2 17.79 2.3
-2 -8 -2 17.57 1.78
-2 -8 -2 16.34 1.88
-2 -8 -2 18.67 2.01
-2 -8 -3 2.58 0.64
-2 -8 -3 1.77 0.68
-2 -8 -3 2.19 0.54
-2 -8 -4 0.48 0.43
-2 -8 -4 0.66 0.54
-2 -8 -4 0.4 0.29
-2 -8 -5 135.87 5.42
-2 -8 -5 137.05 4.15
-2 -8 -6 58.84 3.09
-2 -8 -6 56.95 2.31
-2 -7 12 4.84 0.82
-2 -7 11 54.74 2.82
-2 -7 11 44.73 2.36
-2 -7 10 22.7 1.95
-2 -7 10 24.74 2.06
-2 -7 10 24.3 2
-2 -7 9 0.7 0.4
-2 -7 9 0.73 0.47
-2 -7 9 1.43 0.6
-2 -7 9 0.97 0.67
-2 -7 8 44.96 3.37
-2 -7 8 42.32 3.11
-2 -7 8 43.16 2.86
-2 -7 8 44.99 3.03
-2 -7 8 33.99 2.81
-2 -7 7 66.73 4.33
-2 -7 7 64.95 3.64
-2 -7 7 66.03 3.69
-2 -7 7 63.24 3.64
-2 -7 7 69.22 3.98
-2 -7 6 22.31 2.17
-2 -7 6 22.81 2.2
-2 -7 6 17.12 1.93
-2 -7 6 22.88 2.72
-2 -7 6 26.7 2.5
-2 -7 5 19.81 2.04
-2 -7 5 18.45 2.02
-2 -7 5 18.08 2.42
-2 -7 5 17.61 1.97
-2 -7 5 15.54 1.87
-2 -7 5 15.72 2.3
-2 -7 5 19.83 5.22
2 7 -5 15.25 4.07
-2 -7 4 -0.05 2.1
-2 -7 4 1.39 0.91
-2 -7 4 2.23 0.72
-2 -7 4 2.23 0.72
-2 -7 4 1.44 0.46
2 7 -4 1.76 0.85
-2 -7 4 2.17 0.88
-2 -7 4 2.97 0.92
-2 -7 3 141.97 6.43
-2 -7 3 152.2 6.69
-2 -7 3 143.8 5.44
-2 -7 3 140.41 5.4
2 7 -3 131.44 10.51
-2 -7 3 141.05 5.59
-2 -7 2 89.84 4.31
-2 -7 2 74.37 4.58
-2 -7 2 80.93 4.13
-2 -7 2 67.72 9.48
-2 -7 2 80.25 4.61
-2 -7 2 68.37 4.64
-2 -7 2 74.35 3.99
-2 -7 1 45.85 3.37
-2 -7 1 41.28 2.99
-2 -7 1 40.33 3.3
-2 -7 1 39.24 7.19
2 7 -1 36.06 5.94
-2 -7 1 40.37 3.54
-2 -7 1 53.8 3.39
-2 -7 0 38.61 3.37
-2 -7 0 43.05 2.99
-2 -7 0 36.71 3.31
2 7 0 35.39 5.83
-2 -7 0 33.89 6.84
-2 -7 0 45.07 3.2
-2 -7 0 37.59 3.1
-2 -7 -1 69.81 4.49
-2 -7 -1 67.98 3.83
-2 -7 -1 63.58 3.98
-2 -7 -1 79.86 4.51
-2 -7 -1 78.69 4.16
-2 -7 -2 497.38 12.07
-2 -7 -2 482.59 10.74
-2 -7 -3 7.66 1.58
-2 -7 -3 5.65 1.08
-2 -7 -3 6.24 1.25
-2 -7 -3 6.62 1.19
-2 -7 -4 25.06 2.21
-2 -7 -4 27 2.36
-2 -7 -4 25.72 2.76
-2 -7 -4 22.4 1.84
-2 -7 -5 1.08 0.53
-2 -7 -5 1.22 0.45
-2 -7 -6 108.94 4.9
-2 -7 -6 107.34 3.94
-2 -7 -7 18.02 1.34
-2 -7 -7 18.23 1.82
-2 -7 -8 0.68 0.38
-2 -6 13 22.67 1.55
-2 -6 12 6.23 1.03
-2 -6 12 4.31 0.71
-2 -6 11 10 1.28
-2 -6 11 10.81 1.45
-2 -6 10 1.8 1.08
-2 -6 10 2.15 0.76
-2 -6 9 2.05 0.78
-2 -6 9 1.28 0.64
-2 -6 9 1.76 0.75
-2 -6 9 1.36 0.67
-2 -6 8 86.63 4.73
-2 -6 8 82.99 4.03
-2 -6 8 78.05 4.11
-2 -6 8 93.07 4.47
-2 -6 8 87.65 4.49
-2 -6 7 75.3 4.51
-2 -6 7 71.13 3.82
-2 -6 7 64.83 8.33
2 6 -7 84.31 9.1
-2 -6 7 68.39 3.73
-2 -6 7 74.75 4.15
-2 -6 7 68.31 3.87
-2 -6 6 615.53 13.09
-2 -6 6 627.03 11.33
-2 -6 6 606.18 11.03
-2 -6 6 592.69 10.89
-2 -6 6 570.89 13.52
-2 -6 6 628.6 11.38
-2 -6 6 626.96 24.64
2 6 -6 656.45 24.88
-2 -6 6 622.5 11.71
-2 -6 5 2.78 1.1
-2 -6 5 2.74 0.74
2 6 -5 2.75 1.58
-2 -6 5 3.28 0.92
-2 -6 5 3.32 0.92
-2 -6 5 2.55 2.27
-2 -6 5 1.09 0.8
-2 -6 5 2.56 0.9
-2 -6 5 2.74 1.23
-2 -6 5 2.44 0.89
-2 -6 4 10.82 1.81
-2 -6 4 9.92 1.43
-2 -6 4 7.98 1.48
-2 -6 4 8.24 3.15
-2 -6 4 9.67 1.37
2 6 -4 8.71 2.35
-2 -6 4 11.42 3.08
-2 -6 4 8.23 1.44
-2 -6 4 10.33 1.54
-2 -6 4 7.43 1.43
-2 -6 3 38.14 3.3
-2 -6 3 37.08 2.57
-2 -6 3 36.77 5.13
-2 -6 3 35.38 2.65
-2 -6 3 30.51 5.79
-2 -6 3 31.88 2.84
2 6 -3 42.56 5.63
-2 -6 3 34.81 2.74
-2 -6 3 34.06 2.63
-2 -6 3 41.51 2.95
-2 -6 2 800.97 13.83
-2 -6 2 569.47 25.17
2 6 -2 699.68 21.78
-2 -6 2 708.11 11.55
2 6 -2 649.51 23.39
-2 -6 2 656.96 12.27
-2 -6 2 707.58 11.84
-2 -6 2 713.75 13.55
-2 -6 2 702.71 11.44
-2 -6 1 129.28 5.45
-2 -6 1 125.92 4.91
2 6 -1 123.99 9.98
-2 -6 1 118.51 4.76
-2 -6 1 121.1 11.77
-2 -6 1 125.92 5.26
-2 -6 1 102.25 4.94
-2 -6 0 1.3 0.56
-2 -6 0 0.59 0.49
-2 -6 0 1.46 0.69
-2 -6 0 1.58 1.92
2 6 0 0.55 0.87
-2 -6 0 1.87 0.85
-2 -6 0 0.97 0.36
-2 -6 -1 32.9 2.72
-2 -6 -1 28.76 2.43
-2 -6 -1 31.71 2.86
-2 -6 -1 36.22 6.92
2 6 1 30.29 5.09
-2 -6 -1 30.44 2.8
-2 -6 -1 33.87 2.93
2 6 2 2.91 1.68
-2 -6 -2 0.98 0.52
-2 -6 -2 2.16 0.74
-2 -6 -2 1.45 1.66
-2 -6 -2 1.04 0.53
-2 -6 -2 1.08 0.66
-2 -6 -2 1.55 0.58
-2 -6 -3 242.92 7.31
2 6 3 232.07 14.41
-2 -6 -3 215.71 6.5
-2 -6 -3 245.39 8.28
2 6 3 201.67 14.46
-2 -6 -3 228.34 7.42
-2 -6 -3 208.65 7.1
-2 -6 -4 42.55 3.07
-2 -6 -4 40.33 2.79
-2 -6 -4 51.83 3.85
-2 -6 -4 44.77 3.27
-2 -6 -5 39.46 2.75
-2 -6 -5 49.33 3.75
-2 -6 -5 50.37 3.34
-2 -6 -5 45.9 3.17
-2 -6 -6 22.12 2.09
-2 -6 -6 21.65 2
-2 -6 -6 23.42 2.5
-2 -6 -6 23.47 2.13
-2 -6 -7 3.31 0.79
-2 -6 -7 3.26 0.8
-2 -6 -7 3.17 0.83
-2 -6 -8 0.5 0.34
-2 -6 -8 0.15 0.22
-2 -6 -8 0.53 0.3
-2 -5 14 48.28 2.01
-2 -5 13 25.43 1.88
-2 -5 12 2.86 0.99
-2 -5 12 2.42 0.53
-2 -5 11 18.9 2
-2 -5 11 16.61 1.7
-2 -5 10 148.47 5.56
-2 -5 10 128.45 5.03
-2 -5 9 8.95 1.43
-2 -5 9 7.4 1.2
-2 -5 9 6.09 1.19
-2 -5 8 11.08 1.66
-2 -5 8 9.72 1.47
-2 -5 8 10.61 1.46
-2 -5 8 16.28 4.44
2 5 -8 9.33 2.92
-2 -5 8 9.56 1.49
-2 -5 8 10 1.59
-2 -5 7 3.87 1.02
-2 -5 7 1.64 0.54
-2 -5 7 1.92 0.77
-2 -5 7 3.95 0.88
2 5 -7 6.31 2.5
-2 -5 7 5.67 1.1
-2 -5 7 2.68 2.22
-2 -5 7 2.79 0.86
-2 -5 6 107.83 4.39
2 5 -6 136.16 10.58
-2 -5 6 115.43 4.57
-2 -5 6 123.74 5.58
-2 -5 6 121.06 10.51
-2 -5 6 129.14 5.06
-2 -5 6 104.08 5.39
-2 -5 6 88.55 9.03
-2 -5 5 19.05 4.14
-2 -5 5 22.25 4.27
2 5 -5 22.44 4.14
-2 -5 4 60.13 7.11
2 5 -4 77.91 7.22
-2 -5 4 70.27 6.95
2 5 -3 134.32 9.14
-2 -5 3 142.59 9.33
-2 -5 3 118.31 9.97
-2 -5 2 19.96 4.14
-2 -5 2 20.69 3.31
2 5 -2 27.32 3.89
2 5 -1 77.79 6.23
2 5 -1 66.4 6.53
-2 -5 1 75.12 8.21
-2 -5 0 331.49 17.91
2 5 0 281.05 13.96
2 5 1 46.93 5.65
-2 -5 -1 56.7 7.62
-2 -5 -2 18.72 2.08
-2 -5 -2 21.24 2.27
2 5 2 15.49 3.44
-2 -5 -2 21.09 3.98
-2 -5 -2 18.71 1.98
-2 -5 -2 18.72 1.93
-2 -5 -2 24.27 5.52
-2 -5 -3 23.48 2.26
-2 -5 -3 25.22 4.64
-2 -5 -3 25.73 2.25
-2 -5 -3 22.79 2.46
-2 -5 -3 23.82 2.49
2 5 3 21.56 4.19
2 5 3 25.87 4.89
-2 -5 -4 11 1.53
2 5 4 15.72 3.9
2 5 4 13.2 3.55
-2 -5 -4 12.85 3.63
-2 -5 -4 13.55 1.93
-2 -5 -4 14.63 2.04
-2 -5 -5 35.9 2.8
-2 -5 -5 45.45 3.59
-2 -5 -5 40.31 3.26
-2 -5 -6 74.08 4
-2 -5 -6 82.92 4.8
-2 -5 -6 81.67 4.56
-2 -5 -7 16.72 1.89
-2 -5 -7 17.92 1.84
-2 -5 -7 21.07 2.31
-2 -5 -7 21.07 2.18
-2 -5 -8 232.24 6.84
-2 -5 -8 232.34 5.98
-2 -5 -9 52.38 2.48
-2 -5 -9 53.01 2.85
-2 -5 -10 45.25 1.79
-2 -4 14 83.63 2.94
-2 -4 13 16.18 1.65
-2 -4 13 15.32 1.34
2 4 -13 14.68 1.35
-2 -4 12 54.24 3.22
-2 -4 12 58.78 2.89
-2 -4 11 84.79 4.27
-2 -4 11 80.31 3.67
2 4 -11 81.31 4.03
-2 -4 11 75.7 3.62
-2 -4 10 180.27 7.83
-2 -4 10 192.95 6.51
2 4 -10 189.09 6.3
-2 -4 10 184.78 5.99
-2 -4 9 35.74 2.54
-2 -4 9 35.81 2.81
-2 -4 9 35.18 6.33
2 4 -9 39.65 5.85
-2 -4 9 31.88 2.68
-2 -4 9 35.58 3.45
2 4 -9 34.74 5.53
-2 -4 8 312.43 7.47
-2 -4 8 327.08 8.01
2 4 -8 345.67 16.84
-2 -4 8 323.81 8.02
2 4 -8 338.82 15.7
-2 -4 7 1.34 1.2
2 4 -7 0.39 0.83
-2 -4 7 0.37 0.95
2 4 -7 2 1.41
2 4 -6 25.53 4.25
-2 -4 6 34.78 5.56
-2 -4 6 26.97 4.51
2 4 -6 23.38 3.79
2 4 -5 158.82 9.92
-2 -4 5 152.8 10.44
2 4 -5 151.11 8.18
-2 -4 4 47.82 5.63
-2 -4 4 57.82 4.91
-2 -4 4 54.76 5.86
2 4 -4 61.34 5.91
-2 -4 3 0.31 0.52
2 4 -3 1.72 1.19
-2 -4 3 1.13 0.9
-2 -4 3 0.86 1.12
-2 -4 2 663.04 17.59
2 4 -2 715.48 17.83
2 4 -1 4.43 1.81
2 4 -1 5.72 1.46
-2 -4 1 8.65 2.8
-2 -4 1 6.38 1.66
-2 -4 0 357.77 12.03
-2 -4 0 342.1 11.84
2 4 0 333.1 10.67
-2 -4 -1 17.41 3.87
-2 -4 -1 15.11 2.91
2 4 1 14.16 2.97
-2 -4 -2 109.16 8.67
-2 -4 -2 126.51 10.9
2 4 2 111.51 8.16
-2 -4 -3 122.79 10.33
2 4 3 153.91 11.13
2 4 3 130.68 9.33
-2 -4 -4 147.1 12.28
-2 -4 -4 159.59 6.45
2 4 4 171.16 12.34
-2 -4 -4 140.29 5.25
-2 -4 -4 173.79 6.39
2 4 4 143.01 10.45
-2 -4 -5 102.85 10.63
-2 -4 -5 90.48 4.41
-2 -4 -5 108.65 5.26
2 4 5 99.36 9.8
-2 -4 -5 104.64 5.5
2 4 5 87.72 8.67
-2 -4 -6 17.73 2
-2 -4 -6 19.36 2.32
-2 -4 -6 16.65 2.19
-2 -4 -7 4.7 1.06
-2 -4 -7 4.71 1.18
-2 -4 -7 2.75 0.94
-2 -4 -8 -0.08 0.38
-2 -4 -8 0.41 0.39
-2 -4 -8 -0.13 0.42
-2 -4 -9 63.09 3.22
-2 -4 -9 65.66 3.49
-2 -4 -9 73.81 3.5
-2 -4 -10 34.98 1.95
-2 -4 -10 35.74 2
2 3 -14 1.61 0.52
-2 -3 14 2.4 0.67
-2 -3 14 2.62 0.78
-2 -3 14 2.98 0.61
-2 -3 13 1.68 0.59
-2 -3 13 0.85 0.58
2 3 -13 3.52 0.76
-2 -3 13 2.8 0.86
-2 -3 12 96.48 4.43
-2 -3 12 88.46 3.9
2 3 -12 85.5 4.05
-2 -3 11 14.4 1.87
2 3 -11 17.63 1.97
-2 -3 11 14.78 1.61
-2 -3 11 10.13 1.48
-2 -3 10 48.75 3.32
2 3 -10 46.37 6.48
-2 -3 10 43.88 2.9
2 3 -10 41.05 3.01
-2 -3 9 37.44 2.82
2 3 -9 39.9 5.44
2 3 -9 33.74 2.8
-2 -3 9 35.31 2.67
-2 -3 9 44.95 6.82
2 3 -9 41.2 5.81
2 3 -8 107.15 8.81
-2 -3 8 90.05 9.49
2 3 -8 103.23 8.77
-2 -3 7 3.96 1.48
2 3 -7 4.07 1.98
-2 -3 7 4.05 2.37
2 3 -6 14.01 2.79
-2 -3 6 17.71 3.89
-2 -3 6 16.47 3.06
-2 -3 5 27.37 3.15
-2 -3 5 31.18 4.8
2 3 -5 28.51 3.79
-2 -3 5 28.1 3.83
-2 -3 4 2.95 1.24
-2 -3 4 1.22 0.81
-2 -3 4 2.23 1.22
2 3 -4 2 1.19
2 3 -3 738.85 14.52
-2 -3 3 766.22 18.6
-2 -3 3 753.12 16.01
-2 -3 2 1.21 0.98
-2 -3 2 1.56 0.51
2 3 -2 0.8 0.28
-2 -3 2 1.89 1.09
-2 -3 2 1.74 0.98
2 3 -2 2.46 0.77
-2 -3 1 0.01 0.56
-2 -3 1 0.15 0.69
-2 -3 1 0.26 0.31
-2 -3 1 1.05 0.79
2 3 -1 0.69 0.4
-2 -3 0 117.16 8.29
-2 -3 0 121.32 7.43
2 3 0 108.76 5.34
2 3 0 86.43 5.91
-2 -3 0 84.17 5.47
2 3 0 85.84 4.97
-2 -3 0 99.13 6.15
2 3 1 742.23 15.37
2 3 1 678.67 17.21
-2 -3 -1 868.84 23.96
-2 -3 -1 795.89 19.84
-2 -3 -2 167.72 11.29
2 3 2 136.62 7.22
2 3 2 160.37 9.77
2 3 2 136.62 8.01
-2 -3 -2 150.38 10.05
2 3 3 24.76 3.45
2 3 3 26.08 4.27
2 3 3 26.59 3.81
-2 -3 -3 22 4.59
2 3 4 87.77 8.19
2 3 4 91.06 7.6
2 3 4 80.4 7.18
-2 -3 -4 83.92 9.46
-2 -3 -5 38.08 6.44
-2 -3 -5 33.74 2.61
2 3 5 39.99 5.04
2 3 5 28.09 4.6
2 3 5 35.86 5.53
-2 -3 -5 35.05 2.87
-2 -3 -6 111.11 4.99
-2 -3 -6 125.52 11.9
2 3 6 124.27 10.75
-2 -3 -6 119.44 5.32
2 3 6 105.83 9.56
-2 -3 -7 5.68 1.17
-2 -3 -7 5.81 1.26
-2 -3 -8 109.55 5.04
-2 -3 -8 104.67 4.79
2 3 8 94.47 4.04
-2 -3 -9 2.36 0.75
-2 -3 -9 2.14 0.72
2 3 9 1.35 0.55
-2 -3 -9 0.67 0.53
-2 -3 -10 9.91 1.26
-2 -3 -10 10.39 1.24
2 3 10 8.62 0.99
-2 -3 -10 10.07 1.29
-2 -3 -11 1.18 0.4
-2 -3 -11 0.53 0.22
-2 -2 14 14.74 1.71
-2 -2 14 18.15 1.55
2 2 -14 19.85 1.51
-2 -2 14 16.7 1.42
-2 -2 13 0.13 0.35
-2 -2 13 -0.28 0.65
2 2 -13 -0.33 0.4
-2 -2 12 0.95 0.5
-2 -2 12 2.24 0.92
2 2 -12 2.7 0.88
-2 -2 11 116.1 4.79
-2 -2 11 95.25 4
-2 -2 11 115.88 5.06
2 2 -11 93.22 4.65
-2 -2 10 51.47 3.37
2 2 -10 46.01 3.3
-2 -2 10 48.29 6.91
-2 -2 10 51.81 3.17
2 2 -10 57.05 7.33
-2 -2 10 49.16 3.02
-2 -2 9 0.64 0.47
2 2 -9 -0.11 0.89
-2 -2 9 1.12 1.72
-2 -2 9 0.56 0.53
2 2 -9 0.38 0.59
-2 -2 9 0.17 0.4
2 2 -9 2.7 1.52
-2 -2 8 166.18 12.49
2 2 -8 149.38 10.5
2 2 -7 296.54 13.98
-2 -2 7 296.73 16.89
-2 -2 6 0.48 0.53
-2 -2 6 -0.77 1.06
-2 -2 6 1.05 1.06
2 2 -6 0.44 0.91
2 2 -5 8.59 2.11
-2 -2 5 11.52 2.05
-2 -2 5 7.94 1.63
-2 -2 5 14.19 3.15
2 2 -5 9.76 1.63
2 2 -4 4.58 1.4
2 2 -4 8.31 1.25
-2 -2 4 7.87 2.16
-2 -2 4 9.1 1.79
-2 -2 3 269.17 9.2
-2 -2 3 236.5 9.66
2 2 -3 239.37 7.82
-2 -2 3 272.15 9.6
2 2 -3 213.92 5.94
-2 -2 2 6.59 1.14
-2 -2 2 8.53 1.81
-2 -2 2 7.95 1.77
2 2 -2 5.97 1.15
-2 -2 2 5.9 1.5
-2 -2 1 188.52 7.76
-2 -2 1 180.96 6.61
-2 -2 1 206.92 9.18
-2 -2 1 188.86 7.71
2 2 0 211.43 7.52
2 2 0 210.02 7.48
-2 -2 0 234.91 8.75
-2 -2 0 229.51 9.02
-2 -2 0 219.48 8.18
-2 -2 -1 17.56 2.76
2 2 1 15.96 2.16
-2 -2 -1 16.61 2.59
2 2 1 14.08 2.15
2 2 1 17.66 1.57
2 2 1 16.58 2.63
-2 -2 -1 21.81 3.51
2 2 2 96.92 5.9
-2 -2 -2 106.92 7.88
2 2 2 95.48 5.92
2 2 2 103.46 7.06
2 2 3 943.82 20.65
2 2 3 966.07 20.78
2 2 3 1070.43 24.47
-2 -2 -3 1032.38 29.3
-2 -2 -4 1.93 1.71
2 2 4 2.73 1.19
2 2 4 2.15 0.74
2 2 4 0.74 1.12
2 2 5 16.07 3.45
-2 -2 -5 19.41 4.42
2 2 5 21.69 3.81
2 2 5 24.73 4.27
-2 -2 -6 64.05 8.15
-2 -2 -6 49.32 3.41
2 2 6 62.49 6.87
-2 -2 -6 53.3 3.07
2 2 6 49.15 6.4
2 2 6 49.71 2.91
2 2 6 45.29 5.84
-2 -2 -7 1.31 0.62
2 2 7 2.55 2.09
-2 -2 -7 -0.14 1.2
2 2 7 0.06 0.71
2 2 7 -1.23 1.49
-2 -2 -7 0.38 0.5
2 2 7 1.68 0.61
-2 -2 -7 0.71 0.44
-2 -2 -8 29.35 2.65
-2 -2 -8 26.09 2.5
-2 -2 -8 21.3 2.12
2 2 8 24.23 2.15
-2 -2 -9 295.93 7.74
-2 -2 -9 311.89 8.23
-2 -2 -10 29.54 2.34
2 2 10 23.85 1.88
-2 -2 -11 57.27 2.75
2 2 11 51.25 2.27
-2 -2 -12 22.7 1.22
2 1 -14 15.58 1.38
-2 -1 14 15.23 1.41
2 1 -13 14.41 1.64
-2 -1 13 12 1.49
-2 -1 13 11.13 1.25
-2 -1 13 9.36 1.3
-2 -1 12 0.66 0.65
-2 -1 12 0.64 0.5
2 1 -12 0.38 0.61
-2 -1 12 1.39 0.44
-2 -1 11 114.41 5.04
-2 -1 11 106.13 4.69
2 1 -11 112.31 5.09
-2 -1 11 105 4.12
-2 -1 11 106.57 4.53
-2 -1 10 15.68 1.74
-2 -1 10 19.06 1.97
-2 -1 10 19.97 1.97
2 1 -10 13.09 1.91
2 1 -10 16.58 4
-2 -1 10 14.79 2.09
-2 -1 9 70.46 3.77
2 1 -9 54.78 6.48
-2 -1 9 85.93 8.15
-2 -1 9 73.05 3.65
2 1 -9 58.38 3.54
2 1 -9 67.46 7.4
-2 -1 9 58.78 3.15
2 1 -8 3.88 1.45
-2 -1 8 1.36 1.06
2 1 -8 2.67 1.71
2 1 -7 279.8 13.15
-2 -1 7 286.64 11.3
-2 -1 7 294.63 14.51
2 1 -7 301.16 14.36
-2 -1 6 293.81 10.96
-2 -1 6 270.76 12.95
2 1 -6 298.09 12.59
2 1 -6 265.91 11.2
2 1 -5 351.88 10.55
-2 -1 5 355.44 12.95
2 1 -5 361.85 11.87
-2 -1 5 327.56 8.85
-2 -1 5 351.39 11.45
-2 -1 4 4.76 1.34
-2 -1 4 1.85 0.71
2 1 -4 2.68 0.81
-2 -1 4 2.41 1.14
2 1 -4 4.21 1.27
2 1 -3 1.15 0.69
-2 -1 3 0.62 0.41
-2 -1 3 1.41 0.81
2 1 -3 1.95 0.93
-2 -1 3 1.51 0.95
-2 -1 2 50.96 3.18
-2 -1 2 53.34 3.86
2 1 -2 40.67 2.74
2 1 -2 49.45 3.18
-2 -1 2 53.48 3.94
-2 -1 1 328.49 8.7
-2 -1 1 382.24 10.6
-2 -1 1 388.76 10.42
-2 -1 1 318.56 9.26
2 1 -1 330.95 8.4
-2 -1 0 1202.52 18.45
-2 -1 0 1215.64 18.27
2 1 0 1200.91 18
2 1 0 1154.44 14.02
-2 -1 0 1224.61 18.86
-2 -1 -1 72.26 4.71
2 1 1 76.08 5.02
2 1 1 77.98 4.58
2 1 1 71.33 3.86
2 1 1 63.14 2.72
-2 -1 -2 28.91 3.65
-2 -1 -2 27.12 3.18
2 1 2 28.74 3.09
2 1 2 29.2 3.38
2 1 2 25.61 2.77
-2 -1 -3 152.02 9.72
2 1 3 145.39 7.77
2 1 3 167.59 9.01
2 1 3 150 7.55
-2 -1 -4 37.4 5.26
2 1 4 39.41 4.71
2 1 4 39.98 4.4
2 1 4 35.03 4.4
-2 -1 -5 161.89 11.69
2 1 5 175.59 11.29
2 1 5 183.51 11.11
2 1 5 157.72 9.63
2 1 6 126.84 9.32
2 1 6 110.75 9.18
2 1 6 124.12 9.81
-2 -1 -6 118.27 10.47
-2 -1 -7 5.32 1.06
2 1 7 5.86 2.15
-2 -1 -7 5.78 1.16
2 1 7 5.88 2.21
-2 -1 -7 4.87 2.43
2 1 7 6.58 2.23
2 1 7 4.95 1
-2 -1 -8 140.38 5.61
-2 -1 -8 137.48 5.31
2 1 8 138.53 5.2
2 1 8 129.24 10.61
-2 -1 -9 3.11 0.95
-2 -1 -9 2.5 0.71
-2 -1 -9 1.3 0.4
2 1 9 2.87 0.79
2 1 9 1.33 0.62
-2 -1 -10 0.96 0.54
2 1 10 1.54 0.54
2 1 10 1.5 0.61
-2 -1 -11 4.78 0.87
2 1 11 6.33 0.94
2 1 12 33.21 1.62
-2 -1 -12 32.73 1.69
-2 0 14 7.69 0.88
-2 0 14 7.55 1.03
2 0 -14 9.55 1.04
-2 0 13 19.66 1.95
2 0 -13 19.3 1.8
-2 0 13 21.27 1.78
-2 0 13 24.86 2.04
-2 0 12 0.47 0.55
-2 0 12 -0.16 0.63
2 0 -12 0.22 0.52
-2 0 12 0.24 0.27
-2 0 11 5.93 1.12
-2 0 11 4.28 1.63
2 0 -11 5.46 1.25
-2 0 11 5.81 1.14
-2 0 10 76.02 3.96
-2 0 10 82.28 4.27
-2 0 10 73.38 3.86
2 0 -10 91.71 8.73
2 0 -10 81.49 4.32
-2 0 10 67.21 3.4
-2 0 9 165.91 5.81
-2 0 9 160.61 5.48
2 0 -9 165.67 5.97
-2 0 9 155.62 5.07
-2 0 9 158.68 5.51
2 0 -8 104.55 8.08
-2 0 8 87.63 7.32
2 0 -8 108.47 8.97
2 0 -8 87.55 7.33
2 0 -8 69.91 7.13
2 0 -7 27.25 3.93
-2 0 7 35.62 4.35
2 0 -7 28 4.44
2 0 -7 29.34 4.74
-2 0 6 303.63 11.68
2 0 -6 281.15 12.03
2 0 -6 304.66 12.33
2 0 -6 290.59 12.52
-2 0 6 289.42 11.65
2 0 -5 236.42 9.55
-2 0 5 279.03 9.86
-2 0 5 233.52 9.34
2 0 -5 275.85 11.09
2 0 -5 281.2 10.18
-2 0 4 96.1 5.88
2 0 -4 102.1 6.23
-2 0 4 91.68 5.34
2 0 -4 93.65 4.98
2 0 -4 89.43 5.13
-2 0 3 27.64 2.77
2 0 -3 28.46 2.52
2 0 -3 23.61 2.74
-2 0 3 23.15 2.78
2 0 -2 4.29 1.21
2 0 -2 4.51 0.99
2 0 -2 5.05 0.53
2 0 -1 504.96 10.71
2 0 -1 491.35 8.07
2 0 0 9999 45.85
2 0 0 9876.75 26.53
2 0 0 9944.51 41.36
2 0 1 177.36 6.81
-2 0 -1 186.64 7.75
-2 0 -1 173.82 6.67
2 0 1 164.21 4.44
2 0 1 177.86 7.08
-2 0 -2 1 0.56
2 0 2 2.69 0.92
2 0 2 2.1 0.76
2 0 2 3.14 1.01
-2 0 -2 3.06 1.07
2 0 3 261.09 10.27
2 0 3 262.44 9.19
2 0 3 289.86 11.16
-2 0 -4 818.94 22.85
2 0 4 790.73 20.35
2 0 4 819.13 20.63
2 0 5 268.21 12.02
2 0 5 292.99 14.47
-2 0 -5 283.38 14.4
2 0 5 301.29 13.68
-2 0 -6 37.71 5.66
2 0 6 40.78 5.47
2 0 6 41.13 5.78
2 0 6 35.22 4.75
-2 0 -7 53.07 7.15
-2 0 -7 59.79 3.49
2 0 7 64.28 7.32
-2 0 -7 56.54 3.24
2 0 7 55.14 3.27
2 0 7 62.44 7.22
2 0 7 55.59 6.58
2 0 7 50.78 2.93
2 0 8 13.28 1.55
-2 0 -8 10.66 1.55
-2 0 -8 13.79 3.89
-2 0 -8 14.13 1.68
2 0 8 10.67 1.53
2 0 8 9.71 3
2 0 8 13.53 3.45
-2 0 -8 7.97 1.37
2 0 9 56.86 3.48
-2 0 -9 58.11 3.4
2 0 9 50.15 3.04
-2 0 -9 56.08 3.49
2 0 10 4.02 0.84
-2 0 -10 4.86 1.06
-2 0 -10 4.95 0.99
2 0 10 4.52 0.92
2 0 11 29.79 1.97
-2 0 -11 32.18 2.41
2 0 11 36.13 2.31
-2 0 -11 29.58 1.96
-2 0 -12 15.7 1.32
2 0 12 13.74 1.21
-2 1 14 4.77 0.73
-2 1 14 5.29 0.74
-2 1 14 3.57 0.79
2 -1 -13 110.51 4.28
-2 1 13 103.27 4.01
-2 1 13 110.51 4.19
-2 1 12 0.62 0.49
-2 1 12 1.16 0.62
-2 1 12 0.96 0.88
2 -1 -12 1.43 0.67
-2 1 11 -0.16 0.52
-2 1 11 -0.04 0.6
-2 1 11 -0.12 0.75
-2 1 11 0.44 0.34
2 -1 -11 -0.12 0.62
-2 1 10 5.61 1.24
2 -1 -10 6.52 2.12
-2 1 10 4.28 0.99
-2 1 10 5.27 1.15
2 -1 -10 5.57 1.24
-2 1 10 2.39 0.76
-2 1 9 5.85 1.15
-2 1 9 3.09 0.74
2 -1 -9 7.22 2.49
-2 1 9 3.91 2.23
-2 1 9 4.99 1.26
2 -1 -9 4.04 0.98
-2 1 9 3.86 0.94
2 -1 -9 6.64 2.62
-2 1 8 202.13 12.32
2 -1 -8 211.43 12.29
2 -1 -8 198.31 10.9
2 -1 -7 82.48 7.44
-2 1 7 68.26 6.62
2 -1 -7 77.29 7.88
2 -1 -7 75.1 6.43
2 -1 -6 103.46 7.15
-2 1 6 103.88 7.18
-2 1 6 79.74 5.42
2 -1 -6 97.09 7.81
2 -1 -6 108.49 7.31
2 -1 -5 192.63 9.21
-2 1 5 210.04 8.84
2 -1 -5 200.55 8.62
-2 1 5 207.75 7.87
2 -1 -4 538.65 14.31
2 -1 -4 515.07 12.21
-2 1 4 527.07 11.97
-2 1 4 507.29 11.52
2 -1 -3 11.58 1.93
-2 1 3 2.88 0.87
-2 1 3 8.9 1.36
2 -1 -3 4.28 1.14
2 -1 -2 126.18 5.46
-2 1 2 124.46 5.45
2 -1 -1 3005.8 26.25
2 -1 -1 2838.35 26.05
-2 1 1 2683.91 25.69
-2 1 1 2852.74 25.5
2 -1 -1 2554.92 18.56
-2 1 0 27.64 2.45
-2 1 0 27.97 2.59
2 -1 0 25.75 2.45
2 -1 0 24.06 2.14
2 -1 1 141.64 5.94
-2 1 -1 127.72 5.32
-2 1 -1 127 5.08
2 -1 1 129.37 4.65
2 -1 1 136.01 6.02
-2 1 -1 127.66 6.12
-2 1 -2 284.95 9.98
-2 1 -2 279.52 7.82
2 -1 2 278.22 9.28
2 -1 2 267.39 9.45
2 -1 2 252.36 5.71
-2 1 -2 249.24 6.83
-2 1 -3 3.77 1.29
2 -1 3 4.51 1.41
-2 1 -3 7.14 1.4
2 -1 3 6.47 1.63
-2 1 -3 5.88 0.93
2 -1 3 6.71 1.43
-2 1 -4 71.45 6.14
2 -1 4 68.29 5.89
2 -1 4 53.59 5.18
2 -1 5 25.38 4.18
-2 1 -5 22.43 3.99
2 -1 5 24.13 3.81
-2 1 -6 483.05 18.84
2 -1 6 543.89 20.84
2 -1 6 511.19 18.98
-2 1 -7 1.79 0.59
-2 1 -7 1.55 0.59
2 -1 7 2.69 1.73
-2 1 -7 1.11 1.06
2 -1 7 0.89 0.39
-2 1 -7 1.89 0.62
2 -1 7 1.15 1.05
2 -1 7 1.03 0.46
2 -1 7 1.75 0.64
2 -1 8 54.25 3.31
2 -1 8 55.4 7.13
-2 1 -8 49.26 3.16
-2 1 -8 59.37 3.59
2 -1 8 54.85 7.04
2 -1 8 52.3 3.3
2 -1 8 45.66 2.93
2 -1 9 1.29 0.64
-2 1 -9 3.46 0.95
2 -1 9 1.7 0.76
-2 1 -9 1.63 0.69
2 -1 10 0.04 0.34
-2 1 -10 0.05 0.33
-2 1 -10 -0.03 0.49
2 -1 10 0.17 0.39
2 -1 11 5.78 0.93
-2 1 -11 7.11 1.13
-2 1 -11 6.26 1
2 -1 11 6.86 1.11
-2 1 -12 60.63 2.64
2 -1 12 57.31 2.29
-2 1 -12 59 2.32
-2 2 14 31.86 1.71
-2 2 14 30.53 1.55
-2 2 13 11.54 1.33
-2 2 13 10.1 1.34
-2 2 12 2.25 0.87
2 -2 -12 2.47 0.8
-2 2 12 3.07 0.83
-2 2 12 1.92 0.72
-2 2 11 4.12 1.49
2 -2 -11 8.7 1.31
-2 2 11 7.34 1.29
-2 2 11 8.32 1.4
-2 2 10 56.49 3.58
-2 2 10 48.91 3.42
2 -2 -10 39 6.01
2 -2 -10 65.95 3.95
-2 2 10 51.75 8.06
-2 2 10 50.01 3.39
-2 2 9 20.12 2.23
2 -2 -9 15.24 3.78
2 -2 -9 22.13 2.29
-2 2 9 19.73 4.81
2 -2 -9 22.91 4.19
-2 2 9 18.72 2.06
-2 2 9 18.77 1.96
-2 2 9 21.14 1.93
-2 2 8 220.64 13.32
2 -2 -8 239.63 12.91
-2 2 7 34.23 4.77
2 -2 -7 31.53 4.58
2 -2 -7 27.44 5.02
2 -2 -7 34.57 4.44
-2 2 6 351.11 13.76
2 -2 -6 350.29 13.06
2 -2 -6 335.41 13.2
2 -2 -5 34.77 3.68
-2 2 5 37.26 3.98
2 -2 -5 45.13 4.83
2 -2 -5 36.84 4.31
2 -2 -4 1132.41 20.95
-2 2 4 1041.05 18.51
-2 2 4 995.68 14.46
2 -2 -4 1018.52 17.25
2 -2 -4 1096.08 21.32
2 -2 -3 269.99 9.86
-2 2 3 255.5 7.81
2 -2 -2 1048.27 16.87
-2 2 2 1010.36 12.88
2 -2 -2 1053.68 18.53
2 -2 -1 9.43 1.18
-2 2 1 9.13 1.61
2 -2 -1 9.92 1.64
-2 2 1 9.85 1.1
2 -2 -1 9.28 1.37
2 -2 -1 9.2 1.55
2 -2 0 386.67 10.1
-2 2 0 363.41 10.01
2 -2 0 374.33 9.26
2 -2 0 395.41 9.54
-2 2 0 391.65 9.78
2 -2 0 367.13 9.87
-2 2 0 391.47 10.73
-2 2 -1 2.67 0.89
-2 2 -1 1.43 0.88
2 -2 1 1.19 0.62
2 -2 1 1.94 1.25
2 -2 1 2.92 0.98
-2 2 -1 2.85 1.44
-2 2 -2 191.35 8.09
2 -2 2 202.03 7.74
-2 2 -2 180.01 7.52
2 -2 2 204.7 8.34
2 -2 2 165.77 6.12
-2 2 -2 188.44 5.92
-2 2 -3 1.48 0.8
2 -2 3 1.08 0.76
2 -2 3 1.15 0.71
-2 2 -3 0.39 0.48
-2 2 -3 1.4 0.66
-2 2 -4 391.26 13.64
-2 2 -4 365.53 10.45
2 -2 4 379.48 14.01
2 -2 4 411.28 14.38
-2 2 -5 5.36 1.85
2 -2 5 5.21 2.04
2 -2 5 4.53 1.85
-2 2 -6 3.26 1.63
2 -2 6 5.35 2.34
2 -2 6 8.56 2.5
2 -2 7 2.63 0.75
2 -2 7 3.64 1.87
-2 2 -7 1.39 1
-2 2 -7 2.95 0.85
2 -2 7 4.26 0.91
2 -2 7 3.38 1.59
-2 2 -7 2.98 0.91
-2 2 -7 3.91 1.02
2 -2 8 7.43 1.23
-2 2 -8 7.33 1.34
2 -2 8 7.88 1.41
2 -2 8 8.66 3.02
-2 2 -8 10.06 1.56
2 -2 8 9.72 2.88
-2 2 -8 6.72 1.32
2 -2 8 8.6 1.35
2 -2 9 42.13 3.15
-2 2 -9 41.99 3.03
-2 2 -9 46.73 3.32
2 -2 9 41.19 2.87
2 -2 9 44.47 3.06
2 -2 10 7.96 1.23
2 -2 10 8.59 1.43
-2 2 -10 9.15 1.48
-2 2 -10 5.85 1.27
-2 2 -11 79.86 3.62
2 -2 11 86.83 3.6
-2 2 -12 1.05 0.4
-2 2 -12 1.08 0.44
2 -2 12 3.14 0.62
2 -2 12 2.52 0.5
2 -2 13 1.98 0.39
-2 3 14 20.04 1.22
2 -3 -14 18.79 1.12
2 -3 -13 40.47 2.38
-2 3 13 41.21 2.36
-2 3 13 42.27 2.1
-2 3 12 17.77 1.8
-2 3 12 16.31 1.6
2 -3 -12 14.99 1.71
-2 3 12 10.91 1.73
-2 3 12 17.05 1.84
-2 3 11 3.54 1.11
2 -3 -11 5.67 1.03
2 -3 -11 7.06 1.24
-2 3 11 5.53 1.09
2 -3 -10 154.34 5.53
2 -3 -10 158.97 6.16
-2 3 10 176.7 6.35
-2 3 10 183.79 6.53
-2 3 9 5.42 1.25
2 -3 -9 3.86 0.94
2 -3 -9 8.02 2.87
-2 3 9 5.68 1.2
2 -3 -9 3.93 1.13
-2 3 9 3.26 2.3
-2 3 8 19.11 4.16
2 -3 -8 16.54 4.01
2 -3 -8 19.46 2.08
2 -3 -8 25.67 4.17
-2 3 8 18.26 1.92
-2 3 8 20.11 2.1
2 -3 -8 20.78 4.63
2 -3 -8 19.55 2.05
2 -3 -7 79.79 6.79
2 -3 -7 75.13 6.78
-2 3 7 83.29 7.79
-2 3 6 486.74 17.2
2 -3 -6 469.38 15.84
2 -3 -6 471.14 19.78
2 -3 -6 463.98 16.02
2 -3 -5 7.96 2.43
-2 3 5 7.59 1.96
2 -3 -5 5.62 1.57
2 -3 -5 6.7 1.96
-2 3 4 805.34 17.61
2 -3 -4 791.99 19.02
2 -3 -4 844.42 20.16
2 -3 -3 88.14 6.29
-2 3 3 68.68 5.31
2 -3 -3 102.06 6.2
-2 3 3 69.82 4.71
2 -3 -3 56.37 3.35
2 -3 -2 575.73 10.79
-2 3 2 609.64 15.52
2 -3 -2 644.53 14.46
2 -3 -2 666.3 15.98
-2 3 2 609.37 12.67
-2 3 1 11.35 2.23
2 -3 -1 13.34 2.13
2 -3 -1 8.25 1.6
2 -3 -1 7.66 1.3
-2 3 1 11.62 1.66
2 -3 0 133.61 6.2
2 -3 0 137.44 6.7
2 -3 0 131.01 6.28
-2 3 0 138.12 7.25
2 -3 0 121.07 5.28
2 -3 0 124.85 5.57
2 -3 1 0.43 0.55
2 -3 1 0.92 0.91
2 -3 1 0.25 0.5
2 -3 1 0.34 0.31
2 -3 1 0.36 0.68
-2 3 -1 1.1 1.36
-2 3 -1 0.19 0.38
-2 3 -2 46.31 4.12
2 -3 2 51.24 4.08
-2 3 -2 51.11 4.9
2 -3 2 52.01 4.5
2 -3 2 47.56 3.85
-2 3 -2 49.04 2.8
-2 3 -3 511.07 14.02
2 -3 3 536.7 14.75
2 -3 3 541.69 16
2 -3 4 97.96 7.46
-2 3 -4 91.09 6.48
-2 3 -4 94 6.77
2 -3 4 100.72 7.45
-2 3 -5 3.81 1.71
2 -3 5 4.67 1.85
2 -3 5 6.98 2.22
-2 3 -6 321.97 14.2
2 -3 6 379.98 16.43
2 -3 6 357.73 16.17
2 -3 7 175.28 5.81
-2 3 -7 191.36 6.03
2 -3 7 196.74 12.65
-2 3 -7 180.08 5.98
2 -3 7 178.12 5.71
2 -3 8 92 4.64
2 -3 8 106.98 9.79
-2 3 -8 87.07 4.42
2 -3 8 100.05 9.46
-2 3 -8 92.29 4.43
-2 3 -8 97.83 4.88
2 -3 8 92.14 4.11
2 -3 8 92.83 4.44
2 -3 9 0.9 0.64
-2 3 -9 0.68 0.48
-2 3 -9 0.11 0.56
2 -3 9 1.21 0.51
2 -3 9 1.78 0.63
2 -3 10 24.43 2.23
-2 3 -10 20.21 2.07
-2 3 -10 24.33 2.3
2 -3 10 23.18 2.07
2 -3 10 23.66 2.18
2 -3 11 18.62 1.68
2 -3 11 15.11 1.6
-2 3 -12 14.07 1.27
-2 3 -12 16.34 1.4
2 -3 12 19.01 1.42
2 -3 12 17.97 1.46
2 -3 13 5.21 0.57
-2 4 13 8.51 1.02
-2 4 13 5.93 0.87
-2 4 13 8.45 0.77
2 -4 -13 9.03 0.98
-2 4 12 2.11 0.67
-2 4 12 0.76 0.51
2 -4 -12 1.47 0.45
-2 4 12 2.08 0.49
2 -4 -12 1.95 0.6
2 -4 -11 16 1.61
-2 4 11 16.71 1.93
2 -4 -11 16.97 1.81
-2 4 11 15.79 1.66
2 -4 -10 215.57 7.06
2 -4 -10 196.01 6.25
-2 4 10 198.19 6.01
-2 4 9 -0.08 0.44
2 -4 -9 0.58 0.55
-2 4 9 0.06 0.46
2 -4 -9 0.13 0.59
2 -4 -8 27.01 2.37
-2 4 8 25.14 2.44
2 -4 -8 27.67 2.55
-2 4 8 28.66 5.68
-2 4 8 23.7 2.3
2 -4 -8 23.36 4.99
-2 4 7 0.79 0.51
2 -4 -7 1.43 0.64
2 -4 -7 2.03 1.61
-2 4 7 0.79 0.55
-2 4 7 3.14 1.72
2 -4 -7 1.36 0.58
-2 4 6 10.01 2.74
2 -4 -6 5.81 2.41
2 -4 -6 10.08 2.46
2 -4 -5 6.18 1.92
2 -4 -5 4.36 1.53
2 -4 -5 4.87 1.53
-2 4 5 5.53 1.77
2 -4 -4 28.9 3.94
-2 4 4 23.92 3.54
-2 4 4 30.41 3.76
2 -4 -4 25.37 2.99
2 -4 -4 32.45 4.46
2 -4 -3 136.58 8.19
-2 4 3 119.51 7.15
2 -4 -3 130.18 7.87
-2 4 3 122.59 7.84
-2 4 2 235.93 9.7
2 -4 -2 242.69 8.93
-2 4 2 219.84 10.42
2 -4 -1 18.02 1.84
2 -4 -1 25.19 2.93
-2 4 1 21.56 2.87
-2 4 1 21.37 3.35
2 -4 -1 20.17 2.67
2 -4 -1 22.29 3.19
2 -4 0 82.87 5.27
2 -4 0 86.13 5.96
2 -4 0 74.4 3.95
-2 4 0 91.76 6.69
2 -4 0 85.8 5.15
2 -4 1 78.01 4.98
2 -4 1 77.75 4.44
-2 4 -1 80.03 6.42
-2 4 -1 69.58 4.15
2 -4 1 79.24 5.87
2 -4 1 70.33 5.47
2 -4 1 80.71 5.5
2 -4 2 55.1 4.37
2 -4 2 51.4 4.15
2 -4 2 66.42 5.25
-2 4 -2 65.76 6.22
2 -4 2 67.32 5.77
2 -4 2 59.06 5.12
2 -4 3 183.31 9.09
2 -4 3 189.54 9.97
2 -4 3 162.95 9.52
2 -4 3 173.07 8.11
2 -4 4 8.17 2.21
-2 4 -4 4.6 1.8
-2 4 -4 7.79 2.77
2 -4 4 7.45 2.46
2 -4 4 8.28 2.04
2 -4 5 240.66 12.01
2 -4 5 199.97 12.12
2 -4 5 218.11 12.29
-2 4 -5 227.93 12.34
2 -4 6 1.06 1.27
2 -4 6 0.81 0.52
2 -4 6 1.08 1.26
2 -4 7 90.63 8.48
-2 4 -7 70.07 3.69
2 -4 7 77.45 8.81
2 -4 7 54.87 3.42
-2 4 -7 70.72 3.77
2 -4 7 55.18 6.97
2 -4 7 75.8 3.81
2 -4 8 32.23 2.48
-2 4 -8 32.09 2.54
2 -4 8 26.51 5.26
2 -4 8 32.96 2.62
2 -4 8 37.27 5.79
2 -4 8 34.18 2.78
2 -4 8 27.87 5.21
-2 4 -8 31.96 2.62
-2 4 -9 196.75 6.12
-2 4 -9 197.05 6.99
2 -4 9 206.5 6.69
-2 4 -9 194.14 6.55
2 -4 9 197.58 6.17
2 -4 9 195.44 6.55
-2 4 -10 24.78 2.21
2 -4 10 29.82 2.49
-2 4 -10 31.23 2.71
2 -4 10 31.86 2.51
2 -4 10 30.98 2.35
-2 4 -11 60.27 3.2
2 -4 11 53.82 2.85
-2 4 -12 7.73 0.91
2 -4 12 11.06 1.08
2 -4 12 12.72 1.13
-2 4 -12 7.63 0.97
2 -5 -12 1.27 0.39
-2 5 12 1.82 0.43
-2 5 12 1.63 0.78
-2 5 12 1.45 0.5
2 -5 -12 1.97 0.56
2 -5 -11 19.62 1.74
2 -5 -11 23.78 2.02
-2 5 11 21.13 1.97
-2 5 11 18.69 1.53
2 -5 -10 10.5 1.41
-2 5 10 9.41 1.2
2 -5 -10 14.76 1.74
-2 5 10 10.05 1.59
2 -5 -9 2.02 0.79
-2 5 9 1.91 0.76
2 -5 -9 1.59 0.88
-2 5 9 1.84 0.67
2 -5 -8 133.29 5.5
-2 5 8 141.84 5.79
-2 5 8 120.01 4.69
2 -5 -8 128.87 5.59
2 -5 -7 13.32 1.89
2 -5 -7 16.92 4.29
2 -5 -7 13.74 3.64
2 -5 -7 15.47 1.93
-2 5 7 17.84 2.03
-2 5 7 13.65 4.08
-2 5 7 16.34 1.69
2 -5 -6 13.79 1.64
2 -5 -6 11.66 2.01
2 -5 -6 11.77 1.62
-2 5 6 16.16 3.56
2 -5 -6 16.92 3.29
-2 5 6 15.46 1.75
-2 5 6 15.85 1.62
2 -5 -6 19.92 4.75
2 -5 -5 233.17 12.11
-2 5 5 245.43 13.02
2 -5 -5 217.35 14.46
-2 5 4 94.2 7.5
2 -5 -4 96.04 7.61
2 -5 -4 78.8 8.05
-2 5 4 83.03 7.12
-2 5 3 315.83 13.85
-2 5 3 353.02 13.77
2 -5 -3 332.87 14.57
2 -5 -3 364.92 14.48
2 -5 -2 129.37 7.81
2 -5 -2 125.8 7.92
-2 5 2 162.48 9.99
2 -5 -2 177 9.83
-2 5 2 170.36 9.31
-2 5 1 304.08 12.16
2 -5 -1 314.22 12.93
-2 5 1 329.72 14.32
2 -5 -1 295.07 11.87
2 -5 0 123.41 7.99
2 -5 0 110.45 6.29
-2 5 0 122.6 8.79
2 -5 0 103.23 7.07
2 -5 1 902.96 21.56
2 -5 1 802.29 16.26
2 -5 1 803.46 19.93
-2 5 -1 925.05 24.78
-2 5 -2 13.98 3.29
2 -5 2 10.68 2.39
2 -5 3 62.16 6.6
-2 5 -3 64.41 7.69
2 -5 3 57.21 5.83
2 -5 4 43.38 5.5
2 -5 4 51.89 6.15
-2 5 -4 44.92 6.68
2 -5 5 121.22 9.84
-2 5 -5 110.84 9.87
2 -5 5 122.35 9.81
2 -5 6 5.76 1.14
2 -5 6 5.71 2.32
2 -5 6 2.62 1.51
-2 5 -6 5.08 1
2 -5 6 2.95 0.95
2 -5 7 135.74 11.08
-2 5 -7 142.02 5.43
2 -5 7 155.04 5.76
2 -5 7 134.76 5.16
2 -5 8 1.58 0.64
2 -5 8 1.65 0.66
-2 5 -8 1.51 0.72
2 -5 9 1.94 0.77
2 -5 9 0.3 0.44
-2 5 -9 1.56 0.71
2 -5 9 0.19 0.72
-2 5 -9 0.13 0.62
2 -5 10 2.57 0.71
-2 5 -10 1.77 0.82
2 -5 10 1.86 0.63
2 -5 10 1.56 0.65
-2 5 -11 30.92 2.25
2 -5 11 28.48 1.93
2 -5 11 30.11 2.03
-2 5 -12 40.72 2.07
2 -5 12 40.76 1.79
2 -5 12 39.55 1.92
2 -6 -12 0.96 0.26
-2 6 12 1.72 0.51
-2 6 12 1.08 0.29
-2 6 11 12.96 1.31
2 -6 -11 10.84 1.13
2 -6 -11 10.51 1.23
-2 6 11 10.6 1.61
2 -6 -10 127.34 4.6
-2 6 10 135.03 4.99
2 -6 -10 129.97 4.72
-2 6 10 122.15 3.73
2 -6 -9 24.28 2.29
2 -6 -9 23.76 2.24
-2 6 9 27.84 2
-2 6 9 27.31 2.45
2 -6 -8 3.29 0.98
2 -6 -8 1.85 0.92
2 -6 -8 1.99 0.84
-2 6 8 2.83 1.02
-2 6 8 3.22 0.75
2 -6 -7 50.4 3.47
2 -6 -7 44.06 4.01
-2 6 7 51.96 3.58
2 -6 -7 44.41 3.38
-2 6 7 50.78 3.1
2 -6 -6 2.16 0.79
2 -6 -6 0.62 0.5
2 -6 -6 2.71 2.01
-2 6 6 1.57 0.64
-2 6 6 1.63 0.75
2 -6 -6 1.81 1.87
2 -6 -6 1.64 0.84
-2 6 6 -1.42 0.91
2 -6 -5 0.88 0.4
2 -6 -5 0.66 0.37
-2 6 5 1.1 1.07
2 -6 -5 0.65 0.98
2 -6 -5 1.06 0.52
-2 6 5 0.35 0.27
2 -6 -5 2.65 1.86
-2 6 5 0.33 0.37
2 -6 -4 108.45 6.29
2 -6 -4 140.31 9.85
-2 6 4 119.72 9.29
-2 6 4 145.79 10.33
2 -6 -4 130.37 5.12
2 -6 -4 102.79 9.84
2 -6 -4 126.08 5.04
2 -6 -3 464.24 17.81
-2 6 3 416.25 17.29
-2 6 3 446.8 17.54
2 -6 -3 407.69 18.33
-2 6 2 332.66 14.73
2 -6 -2 322.98 14.71
-2 6 2 314.89 15.33
2 -6 -2 281.21 13.75
2 -6 -1 6.42 2.14
2 -6 -1 7.26 1.94
-2 6 1 9.72 3.03
2 -6 -1 11.04 2.88
-2 6 1 11.22 2.54
2 -6 0 2.05 1.1
-2 6 0 0.59 1.38
-2 6 0 0.04 0.74
2 -6 0 2.24 1.58
-2 6 -1 508.06 20.5
2 -6 1 446.83 17.38
2 -6 2 9.28 2.64
-2 6 -2 10.94 4.63
2 -6 3 16.07 3.54
-2 6 -3 25.2 4.89
2 -6 4 14.14 3.56
2 -6 4 11.6 1.62
-2 6 -4 12.23 3.73
2 -6 5 -0.09 0.45
2 -6 5 1.26 0.79
2 -6 5 0.61 1.37
-2 6 -5 0.15 1.36
-2 6 -5 0.59 0.53
2 -6 5 1.16 0.75
2 -6 6 322.53 8.16
2 -6 6 289.14 7.22
2 -6 6 304.55 8.03
2 -6 6 268.87 16.44
-2 6 -6 278.15 16.09
-2 6 -6 299.86 7.77
2 -6 7 296.34 7.33
2 -6 7 318.98 8.32
-2 6 -7 308.56 8.16
2 -6 7 325.79 8.24
2 -6 8 17.05 1.98
-2 6 -8 13.73 1.78
2 -6 8 15.26 1.79
2 -6 8 13.82 1.75
2 -6 9 174.17 5.91
2 -6 9 164.99 5.41
2 -6 9 157.23 5.37
-2 6 -9 149.94 5.52
-2 6 -9 168.67 6.42
-2 6 -10 35.58 2.78
2 -6 10 40.35 2.46
2 -6 10 34.68 2.51
-2 6 -11 33.98 2.22
2 -6 11 31.38 1.77
2 -6 12 0.64 0.3
-2 6 -12 -0.56 0.31
2 -7 -11 109.7 2.84
2 -7 -11 118.06 2.81
-2 7 11 110.16 3.66
2 -7 -10 0.46 0.31
2 -7 -10 0.32 0.29
-2 7 10 0.55 0.32
-2 7 10 0.57 0.47
2 -7 -9 3.84 0.83
2 -7 -9 4.71 0.94
-2 7 9 3.38 0.74
2 -7 -8 11.11 1.59
2 -7 -8 7.7 1.6
-2 7 8 9.37 1.44
2 -7 -8 9.59 1.6
2 -7 -7 156.66 7.7
-2 7 7 148.63 5.86
2 -7 -7 158.75 6.05
2 -7 -7 154.68 5.29
2 -7 -6 2.99 0.83
2 -7 -6 3.92 0.93
2 -7 -6 3.46 1.19
-2 7 6 2.71 0.9
2 -7 -6 3.82 1.05
2 -7 -5 1.42 0.76
2 -7 -5 1.22 0.89
2 -7 -5 -0.05 1.39
2 -7 -5 0.52 0.49
2 -7 -5 0.94 0.64
-2 7 5 1.63 0.75
-2 7 5 1.22 0.96
2 -7 -4 62.2 3.87
2 -7 -4 53.46 4.76
2 -7 -4 73.76 7.65
-2 7 4 56.22 3.53
-2 7 4 63.1 7.64
2 -7 -4 61.68 3.74
2 -7 -4 62.55 3.47
2 -7 -3 73.78 4.15
2 -7 -3 76.44 5.58
-2 7 3 74.46 7.97
-2 7 3 62.87 3.69
2 -7 -3 70.6 3.69
-2 7 3 77.96 8.01
2 -7 -3 72.88 4.03
2 -7 -3 77.1 7.9
2 -7 -2 93.5 4.51
2 -7 -2 85.23 5.81
-2 7 2 83.82 4.14
-2 7 2 99.88 9.35
-2 7 2 100.66 8.93
2 -7 -2 89.84 4.01
2 -7 -2 90.45 4.34
2 -7 -1 10.53 2.07
2 -7 -1 10.35 1.46
-2 7 1 8.52 2.61
-2 7 1 10.42 3.05
2 -7 -1 8.78 2.97
2 -7 -1 9.71 1.44
2 -7 0 52.09 6.72
2 -7 0 52.1 3.34
2 -7 0 54.12 4.49
-2 7 0 58.34 7.63
-2 7 0 50.86 6.14
2 -7 1 92.44 6.01
2 -7 1 107.82 4.86
-2 7 -1 98.61 8.7
2 -7 1 85.34 8.86
2 -7 2 39.56 2.97
2 -7 2 40.24 2.68
-2 7 -2 47.51 6.99
-2 7 -2 40.82 2.45
2 -7 2 35.38 5.78
2 -7 2 42.33 2.96
2 -7 3 1.7 0.75
-2 7 -3 1.8 0.69
-2 7 -3 4.77 3.31
2 -7 3 1.41 1.34
2 -7 3 2.17 0.78
2 -7 4 10.59 1.58
2 -7 4 8.61 1.36
-2 7 -4 10.58 1.42
-2 7 -4 7.82 2.9
2 -7 4 9.41 3.34
2 -7 5 162.04 13.39
2 -7 5 190 6.07
-2 7 -5 174.1 13.77
-2 7 -5 180.29 5.92
2 -7 5 205.68 6.61
2 -7 5 192.69 6.37
2 -7 6 1.01 0.52
-2 7 -6 1.53 0.77
2 -7 6 1.1 0.62
2 -7 7 69.1 3.61
2 -7 7 77.21 4.09
-2 7 -7 67.48 3.78
2 -7 7 74.6 3.98
2 -7 8 47.77 2.8
2 -7 8 51.93 3.23
-2 7 -8 45.41 3.17
2 -7 8 51.14 3.04
2 -7 8 53.73 3.28
2 -7 9 27.41 1.89
2 -7 9 31.68 2.3
2 -7 9 29.57 2.33
2 -7 9 30.25 2.06
-2 7 -9 25.46 2.39
-2 7 -9 28.67 2.5
2 -7 10 1 0.61
-2 7 -10 0.47 0.63
-2 7 -11 9.54 1.04
2 -7 11 12.31 1.11
2 -8 -10 30.61 1.54
-2 8 10 25.38 1.64
2 -8 -9 4.83 0.86
2 -8 -9 3.27 0.7
-2 8 9 3.89 0.63
2 -8 -8 45.43 2.81
2 -8 -8 34.98 2.31
2 -8 -8 40.75 2.56
2 -8 -8 38.41 3.12
-2 8 8 33.12 2.26
2 -8 -7 10.33 1.58
2 -8 -7 9.21 1.3
2 -8 -7 10.61 1.89
-2 8 7 7.45 1.2
2 -8 -7 11.26 1.64
2 -8 -6 2.72 0.89
2 -8 -6 0.88 0.57
2 -8 -6 2.69 1.16
-2 8 6 1.94 0.66
2 -8 -5 28.98 2.76
2 -8 -5 29.66 3.72
-2 8 5 23.7 2.27
2 -8 -5 27.83 2.58
2 -8 -4 0.88 0.55
2 -8 -4 0.35 0.5
-2 8 4 0.94 0.57
2 -8 -4 0.31 0.42
2 -8 -3 188.35 6.77
2 -8 -3 182.84 9.13
-2 8 3 160.33 5.87
2 -8 -3 157.32 6.31
2 -8 -2 264.15 7.96
2 -8 -2 257 10.76
-2 8 2 232.63 14.77
-2 8 2 264.16 16.03
2 -8 -1 17.82 2.13
2 -8 -1 16.87 2.78
-2 8 1 18.32 4.52
-2 8 1 16.38 3.67
2 -8 0 180.28 8.89
2 -8 0 190.94 6.76
2 -8 0 196.39 5.97
-2 8 0 176.37 12.58
-2 8 0 206.03 14.85
2 -8 1 268.53 7.99
2 -8 1 216.71 15.29
2 -8 1 275.17 7.11
-2 8 -1 310.61 18.65
-2 8 -1 212.12 14.14
2 -8 2 110.96 4.9
2 -8 2 92.79 4.77
-2 8 -2 99.46 10.59
-2 8 -2 71.58 8
2 -8 2 81.95 9.58
2 -8 2 98.9 4.29
2 -8 3 6.94 2.92
2 -8 3 8.27 1.41
2 -8 3 8.31 1.31
-2 8 -3 9.94 3.7
-2 8 -3 7.95 1.16
2 -8 4 110.89 4.78
2 -8 4 103.38 4.74
-2 8 -4 98.28 4.13
2 -8 5 26.14 2.43
2 -8 5 28.07 2.4
-2 8 -5 23.1 2.15
2 -8 5 25.27 2.43
2 -8 6 3.75 1.04
2 -8 6 2.61 0.87
2 -8 6 3.2 0.73
-2 8 -6 2.72 0.85
2 -8 7 2.8 0.79
2 -8 7 1.84 0.59
-2 8 -7 2.12 0.68
2 -8 7 1.67 0.89
2 -8 8 60.67 2.94
2 -8 8 59.93 3.14
-2 8 -8 58.21 3.19
2 -8 9 5.94 0.94
2 -8 9 4.54 0.77
2 -8 9 4.05 0.81
-2 8 -9 4.31 0.99
2 -8 10 32.84 1.84
-2 8 -10 38.47 2.23
2 -8 10 36.36 1.93
-2 8 -11 7.03 0.79
2 -8 11 8.22 0.74
2 -9 -8 19.76 1.55
-2 9 8 12.62 1.25
2 -9 -7 119 4.34
2 -9 -7 88.7 4.74
2 -9 -6 12.31 2.07
2 -9 -6 10.89 1.59
2 -9 -5 22.61 2.38
2 -9 -5 28.18 3.31
2 -9 -4 22.53 2.56
2 -9 -4 26.13 3.33
2 -9 -3 16 2.1
2 -9 -3 17.43 2.85
2 -9 -2 19.24 2.92
2 -9 -2 23.64 2.48
2 -9 -1 49.44 3.48
2 -9 -1 42.54 4.46
2 -9 0 251.15 8.08
2 -9 0 226.36 10.21
2 -9 1 4.36 1.02
2 -9 1 6.27 1.29
2 -9 1 6.03 1.02
2 -9 2 1.33 0.62
2 -9 3 17.05 1.92
2 -9 3 16.05 1.67
2 -9 4 270.34 7.41
2 -9 4 246.25 6.54
2 -9 4 251.67 6.8
2 -9 4 285.11 7.75
2 -9 5 2.05 0.62
2 -9 5 1.17 0.47
2 -9 5 1.99 0.65
2 -9 6 0.17 0.47
2 -9 6 0.03 0.52
-2 9 -6 -0.09 0.45
2 -9 6 0.25 0.58
2 -9 7 6.46 1.08
2 -9 7 6.86 1.06
2 -9 7 6.44 1.09
-2 9 -7 5.33 0.93
2 -9 7 7.5 1.19
2 -9 8 6.31 0.93
2 -9 8 5.59 0.95
2 -9 8 8.95 1.13
2 -9 8 7.33 0.94
2 -9 9 19.34 1.22
-2 9 -9 19.12 1.63
2 -9 9 15.8 1.33
2 -9 9 21.68 1.5
2 -9 10 5.17 0.58
-2 9 -10 4.49 0.62
2 -10 -7 3.26 0.58
2 -10 -7 3.57 0.53
2 -10 -6 2.45 0.67
2 -10 -6 3.7 0.66
2 -10 -5 8.94 1.27
2 -10 -5 7.66 1.53
2 -10 -4 155.52 5.43
2 -10 -4 153.09 7.13
2 -10 -3 1.82 0.87
2 -10 -3 1.18 0.61
2 -10 -2 1.94 0.85
2 -10 -2 3.08 1.1
2 -10 -2 2.74 0.75
2 -10 -1 9.99 1.6
2 -10 -1 12.25 1.5
2 -10 -1 11.24 1.51
2 -10 0 0.56 0.63
2 -10 0 0.9 0.56
2 -10 0 0.69 0.34
2 -10 1 14.18 1.66
2 -10 1 11.59 1.29
2 -10 2 0.5 0.48
2 -10 3 0.13 0.39
2 -10 3 0.02 0.41
2 -10 3 -0.12 0.56
2 -10 4 53.71 3.07
2 -10 4 51.16 2.73
2 -10 4 47.65 2.84
2 -10 5 0.47 0.37
2 -10 5 0.19 0.54
2 -10 6 35.17 2.56
2 -10 6 38.02 2.28
2 -10 6 40.71 2.32
2 -10 7 6.83 0.99
2 -10 7 6.4 0.9
2 -10 7 7.03 0.94
2 -10 8 23.22 1.28
2 -10 8 22.13 1.32
-2 10 -8 22.84 1.61
2 -11 -4 1.59 0.51
2 -11 -4 4.75 0.69
2 -11 -3 11.61 0.94
2 -11 -3 9.66 1.2
2 -11 -2 68.43 2.57
2 -11 -2 80.64 2.99
2 -11 -1 24.96 1.64
2 -11 -1 26.84 1.69
2 -11 0 59.71 2.51
2 -11 0 55.41 2.58
2 -11 1 55.68 2.99
2 -11 1 57.79 2.69
2 -11 2 6.68 1.11
2 -11 2 6.43 0.8
2 -11 2 5.82 0.96
2 -11 2 6.1 1.02
2 -11 3 91.06 3.45
2 -11 3 81.97 3.09
2 -11 3 87.02 3.15
2 -11 4 147.94 4.21
2 -11 4 133.86 3.45
2 -11 4 141.72 3.85
2 -11 5 36.72 2.3
2 -11 5 36.38 1.96
2 -11 5 35.14 1.72
2 -11 6 29.16 1.79
2 -11 6 31.23 1.58
2 -11 6 27.72 1.34
2 -12 0 0.13 0.27
2 -12 0 0 0.34
2 -12 1 1.28 0.32
2 -12 1 0.88 0.31
2 -12 2 3.83 0.63
2 -12 3 121.08 2.79
-3 -10 7 37.83 1.81
-3 -10 7 39.61 1.6
-3 -10 6 10.26 0.94
-3 -10 6 10.31 0.93
-3 -10 6 10.35 1.04
-3 -10 5 9.5 1
-3 -10 5 8.55 0.91
-3 -10 5 9.15 0.89
-3 -10 5 9.02 0.95
-3 -10 4 1.95 0.46
-3 -10 4 2.96 0.55
-3 -10 4 3.84 0.66
-3 -10 4 3.93 0.59
-3 -10 3 38.32 1.84
-3 -10 3 39.06 1.9
-3 -10 2 35.44 1.74
-3 -10 2 31.32 1.61
-3 -10 1 4.82 0.63
-3 -10 1 4.95 0.59
-3 -10 0 0.21 0.18
-3 -9 9 108.5 3.13
-3 -9 9 90.34 3.04
-3 -9 8 22.16 1.55
-3 -9 8 25.3 1.9
-3 -9 8 25.33 1.7
-3 -9 7 8.34 1.23
-3 -9 7 7.18 0.99
-3 -9 7 7.91 1.07
-3 -9 6 6.81 1.12
-3 -9 6 9.38 1.22
-3 -9 6 8.91 1.35
-3 -9 6 9.2 1.17
-3 -9 5 0.47 0.46
-3 -9 5 0.74 0.49
-3 -9 5 0.76 0.58
-3 -9 5 0.14 0.37
-3 -9 4 4.61 0.95
-3 -9 4 7.03 1.22
-3 -9 4 7.36 1.14
-3 -9 4 6.2 0.98
-3 -9 3 6.12 1.06
-3 -9 3 5.93 1.08
-3 -9 3 7.28 1.12
-3 -9 3 6.77 1.21
-3 -9 3 6.29 0.95
-3 -9 2 21.83 1.82
-3 -9 2 17.85 1.46
-3 -9 2 19.31 1.74
-3 -9 2 16.86 1.8
-3 -9 2 14.71 1.44
-3 -9 1 97.51 3.71
-3 -9 1 104.48 4.3
-3 -9 0 38 2.24
-3 -9 0 33.61 1.98
-3 -9 -1 22.3 1.37
-3 -9 -1 24.65 1.68
-3 -9 -2 18.98 1.31
-3 -9 -3 68.24 2.05
-3 -8 11 2.79 0.49
-3 -8 10 6.14 0.85
-3 -8 10 5.35 0.78
-3 -8 10 7.1 0.93
-3 -8 9 26.01 1.89
-3 -8 9 25.27 1.63
-3 -8 9 25.35 1.95
-3 -8 9 23.34 2.02
-3 -8 8 6.8 1.01
-3 -8 8 6.62 1.18
-3 -8 8 5.86 1.15
-3 -8 7 12.31 1.79
-3 -8 7 11.21 1.45
-3 -8 7 9.24 1.42
-3 -8 7 13.07 1.58
-3 -8 6 34.48 2.99
-3 -8 6 32.22 2.54
-3 -8 6 34.82 2.6
-3 -8 6 30.54 2.47
-3 -8 5 85.31 4.76
-3 -8 5 84.55 4.1
-3 -8 5 83.98 4.1
-3 -8 5 77.31 3.94
-3 -8 5 82.68 4.94
-3 -8 4 6.56 1.52
-3 -8 4 5.35 1.03
-3 -8 4 5.31 1.11
-3 -8 4 4.8 1.22
-3 -8 4 6.89 1.23
-3 -8 3 4.04 0.9
-3 -8 3 3.49 0.94
-3 -8 3 5 1.08
-3 -8 3 2.75 0.9
-3 -8 3 3.49 0.93
-3 -8 2 25.2 2.24
-3 -8 2 25.26 2.21
-3 -8 2 30.38 2.85
-3 -8 2 26.03 2.38
-3 -8 2 24.32 2.06
-3 -8 1 93.58 4.25
-3 -8 1 85.97 3.96
-3 -8 0 16.77 1.77
-3 -8 0 14.41 1.6
-3 -8 0 15.89 1.89
-3 -8 -1 50.83 2.92
-3 -8 -1 39.78 3.01
-3 -8 -1 44.49 2.55
-3 -8 -1 42.88 2.97
-3 -8 -2 2.71 0.74
-3 -8 -2 2.06 0.74
-3 -8 -2 2.97 0.6
-3 -8 -2 3.73 0.8
-3 -8 -3 10.49 1.17
-3 -8 -3 8.53 1.31
-3 -8 -3 10.5 1.19
-3 -8 -4 15.48 1.21
-3 -8 -4 13.14 1.48
-3 -8 -5 6.63 0.88
-3 -7 12 8.99 0.85
-3 -7 12 7.76 0.8
-3 -7 11 9.52 1.13
-3 -7 11 12.45 1.27
-3 -7 10 21.83 1.76
-3 -7 10 18.76 1.73
-3 -7 10 16.16 1.62
-3 -7 9 141.94 5.51
-3 -7 9 151.61 4.95
-3 -7 9 152.75 4.74
-3 -7 9 155.91 5.41
-3 -7 8 0.91 0.86
-3 -7 8 1.17 0.73
-3 -7 8 0.08 0.43
-3 -7 8 0.64 0.56
-3 -7 8 0.61 0.61
-3 -7 7 0.1 0.36
-3 -7 7 0.51 0.71
-3 -7 7 0.15 0.59
-3 -7 7 1.02 0.7
-3 -7 6 30.02 3.05
-3 -7 6 32.97 2.65
-3 -7 6 31.92 2.6
-3 -7 6 28.48 3.12
-3 -7 6 30.23 2.64
-3 -7 5 92.68 4.51
-3 -7 5 96.01 4.6
-3 -7 5 93.55 5.4
-3 -7 5 90.83 4.54
-3 -7 5 104.24 5.85
-3 -7 4 111.16 5.8
-3 -7 4 111.12 4.94
-3 -7 4 111.89 4.99
-3 -7 4 111.37 5.97
-3 -7 4 106.43 5.12
-3 -7 4 98.07 4.68
-3 -7 3 44.35 3.57
-3 -7 3 43.19 3.11
-3 -7 3 46.28 3.15
-3 -7 3 37.95 3.36
-3 -7 3 42.01 3.04
-3 -7 3 40.81 3.54
-3 -7 2 14.9 2.01
-3 -7 2 13.73 2.01
-3 -7 2 14.16 1.82
-3 -7 2 13.77 1.72
-3 -7 2 14.76 1.69
-3 -7 2 11.38 1.94
-3 -7 1 24.53 2.36
-3 -7 1 25.29 2.32
-3 -7 1 19.63 2.1
-3 -7 1 19.68 2.36
-3 -7 1 19.98 2.51
-3 -7 0 0.6 0.55
-3 -7 0 0.53 0.28
-3 -7 0 0.43 0.41
-3 -7 0 0.7 0.71
-3 -7 0 0.33 0.51
-3 -7 -1 75.16 3.94
-3 -7 -1 64.5 4.07
-3 -7 -1 64.29 4.03
-3 -7 -1 62.2 3.45
-3 -7 -1 76.45 4.2
-3 -7 -2 206.41 6.29
-3 -7 -2 207.12 7.36
-3 -7 -2 191.78 5.5
-3 -7 -2 195.1 6.8
-3 -7 -2 197.31 6.4
-3 -7 -3 41.96 2.7
-3 -7 -3 46.45 3.43
-3 -7 -3 49.83 3.18
-3 -7 -4 22.18 1.86
-3 -7 -4 25.51 2.4
-3 -7 -4 23.81 2.12
-3 -7 -5 33.19 2.48
-3 -7 -5 29.83 1.83
-3 -7 -5 34.12 2.06
-3 -7 -6 1.24 0.33
-3 -7 -6 1.51 0.51
-3 -6 13 3.42 0.58
-3 -6 12 2.92 0.66
-3 -6 12 3.27 0.77
-3 -6 11 20.9 1.79
-3 -6 11 17.84 1.65
-3 -6 10 65.37 3.33
-3 -6 10 60.32 3.41
-3 -6 10 71.66 3.74
-3 -6 10 67.73 3.4
-3 -6 9 13.83 1.85
-3 -6 9 13.83 1.6
-3 -6 9 14.24 1.67
-3 -6 9 17.81 2.01
-3 -6 8 32.25 2.95
-3 -6 8 31.34 2.61
-3 -6 8 30.6 2.63
-3 -6 8 30.29 2.41
-3 -6 8 30.24 2.65
-3 -6 8 30.59 2.41
-3 -6 7 476.59 11.89
-3 -6 7 489.3 10.15
-3 -6 7 481.95 10.29
-3 -6 7 471.24 9.39
-3 -6 7 496.81 10.81
-3 -6 7 477.89 9.93
-3 -6 6 243.08 8.78
-3 -6 6 240.31 7.1
-3 -6 6 250.13 7.45
-3 -6 6 227.89 8.63
-3 -6 6 246.57 7.56
-3 -6 6 241.44 7.32
-3 -6 5 92.11 5.49
-3 -6 5 94.28 4.42
-3 -6 5 71.13 8.12
-3 -6 5 92.22 4.51
3 6 -5 95.09 9.34
-3 -6 5 96.71 4.72
-3 -6 5 80.48 4.43
-3 -6 5 84.51 5.14
-3 -6 5 98.38 4.74
-3 -6 4 6.72 1.47
-3 -6 4 7.73 1.29
-3 -6 4 6.78 1.3
-3 -6 4 8.21 3.08
3 6 -4 8.24 2.64
-3 -6 4 7.78 1.54
-3 -6 4 8.07 2.9
-3 -6 4 7.66 1.45
-3 -6 4 6.13 1.2
-3 -6 4 8.67 1.52
-3 -6 3 28.33 2.96
-3 -6 3 28.69 2.48
-3 -6 3 27.43 2.44
-3 -6 3 25.21 2.64
-3 -6 3 22.9 2.3
-3 -6 3 24.9 2.71
-3 -6 3 30.55 2.88
-3 -6 3 22 5.14
-3 -6 2 14.92 2.04
-3 -6 2 20.62 2.09
-3 -6 2 16.21 2.18
-3 -6 2 12.94 4.08
-3 -6 2 14.81 1.81
-3 -6 2 15.09 1.83
-3 -6 2 15.58 2.21
-3 -6 1 1.23 0.71
-3 -6 1 0.74 0.51
-3 -6 1 0.39 0.4
-3 -6 1 0.47 0.37
-3 -6 1 0.32 0.54
-3 -6 1 0.39 0.5
-3 -6 1 1.64 1.9
-3 -6 0 0.95 0.64
-3 -6 0 0.73 0.51
-3 -6 0 1.93 0.81
-3 -6 0 2.13 1.17
-3 -6 0 0.42 0.77
3 6 0 1.35 1.37
-3 -6 0 0.3 0.35
-3 -6 0 1.32 0.56
-3 -6 -1 0.62 0.64
-3 -6 -1 0.55 0.45
-3 -6 -1 0.12 0.43
-3 -6 -1 0.91 0.63
-3 -6 -1 0.29 0.42
-3 -6 -2 239.85 7.12
-3 -6 -2 253.34 8.11
-3 -6 -2 267.89 8.32
-3 -6 -2 244.41 7.58
-3 -6 -3 53.26 3.31
-3 -6 -3 56.38 3.9
-3 -6 -3 48.8 3.24
-3 -6 -4 18.57 1.89
-3 -6 -4 21.75 2.39
-3 -6 -4 18.87 2.05
-3 -6 -5 52.49 2.83
-3 -6 -5 55.15 3.63
-3 -6 -5 59.55 3.36
-3 -6 -6 41.86 2.2
-3 -6 -6 52.21 3.19
-3 -6 -6 48.99 2.66
-3 -6 -7 155.28 4.76
-3 -6 -7 144.27 3.5
-3 -5 13 3.27 0.77
-3 -5 13 2.42 0.52
-3 -5 12 2.3 0.58
-3 -5 12 2.46 0.69
-3 -5 11 66.93 3.44
-3 -5 11 62.68 3.4
-3 -5 10 22.13 2.16
-3 -5 10 22.66 2.24
-3 -5 9 12.19 1.77
-3 -5 9 12.68 1.62
-3 -5 9 14.77 1.71
-3 -5 9 12.53 1.74
-3 -5 8 43.49 3.47
-3 -5 8 46.33 3.13
-3 -5 8 42.53 2.94
-3 -5 8 47.11 3.28
-3 -5 8 44.32 2.96
-3 -5 8 41.34 3.12
-3 -5 7 23.11 2.64
-3 -5 7 22.38 2.31
-3 -5 7 23.79 2.69
-3 -5 7 25.2 2.38
-3 -5 7 25.94 2.29
-3 -5 7 24.14 2.11
-3 -5 7 30.77 5.71
3 5 -7 24.19 4.82
-3 -5 7 21.58 2.15
-3 -5 6 69.58 4.71
-3 -5 6 86.29 4.32
-3 -5 6 70.49 4.54
-3 -5 6 64.83 4.51
-3 -5 6 74.81 3.92
3 5 -6 71.41 8.03
-3 -5 6 93.76 9.64
-3 -5 6 68.54 3.88
-3 -5 6 68.41 3.8
-3 -5 5 19.76 4.54
-3 -5 5 16.61 2.49
-3 -5 5 25.2 2.25
-3 -5 5 20.1 2.41
-3 -5 5 21.44 2.5
-3 -5 5 20.99 2.18
-3 -5 5 27.28 4.97
3 5 -5 16.75 3.72
-3 -5 5 17.37 1.99
-3 -5 5 24.24 2.24
-3 -5 5 17.9 1.99
-3 -5 4 42.01 4.04
-3 -5 4 39.07 2.76
-3 -5 4 49.12 3.17
-3 -5 4 29.86 5.62
-3 -5 4 41.27 2.89
-3 -5 4 36 5.3
-3 -5 4 39.38 3.23
3 5 -4 46.7 5.91
-3 -5 4 41.72 2.97
-3 -5 4 44.88 3.06
-3 -5 3 2.08 0.79
-3 -5 3 1.34 0.52
-3 -5 3 1.5 1.65
-3 -5 3 0.72 0.51
3 5 -3 2.25 1
-3 -5 3 1.02 0.43
3 5 -3 0.64 0.92
-3 -5 3 1.24 1.32
-3 -5 3 0.94 0.57
-3 -5 3 1.41 0.62
-3 -5 2 0.94 0.62
-3 -5 2 1.19 0.67
-3 -5 2 0.99 0.51
-3 -5 2 1.15 0.57
3 5 -2 -0.43 0.84
-3 -5 2 0.55 0.85
-3 -5 2 0.94 0.37
-3 -5 2 1.33 0.5
-3 -5 2 1.74 1.51
-3 -5 1 3.7 0.89
-3 -5 1 2.13 0.73
-3 -5 1 1.87 0.82
-3 -5 1 1.85 0.72
-3 -5 1 2.33 0.71
-3 -5 1 1.51 0.71
-3 -5 1 2.66 1.89
-3 -5 1 1.74 0.7
-3 -5 0 11.44 1.49
-3 -5 0 7.99 1.64
-3 -5 0 10.57 1.54
-3 -5 0 8.86 1.29
-3 -5 0 9.26 1.61
3 5 0 7.99 3.02
-3 -5 0 11.14 1.68
-3 -5 0 10.6 3.89
-3 -5 -1 45.35 3
-3 -5 -1 44.42 3.28
-3 -5 -1 52.76 3.74
3 5 1 42.36 6.47
-3 -5 -1 43.97 3.28
-3 -5 -2 158.1 5.7
-3 -5 -2 197.84 7.08
3 5 2 148.76 12.33
-3 -5 -2 198.86 7.19
-3 -5 -2 180.96 6.57
-3 -5 -3 108.6 4.75
-3 -5 -3 121.6 5.71
-3 -5 -3 117.49 4.98
-3 -5 -4 77.87 4.61
-3 -5 -4 82.71 4.64
-3 -5 -4 67.87 3.71
-3 -5 -5 54.89 3.24
-3 -5 -5 54.37 3.05
-3 -5 -5 61.9 4
-3 -5 -5 59.32 3.85
-3 -5 -6 76.52 3.41
-3 -5 -6 71.86 3.32
-3 -5 -6 85.81 4.5
-3 -5 -6 86.87 4.21
-3 -5 -7 109.44 3.45
-3 -5 -7 112.83 3.73
-3 -5 -7 139.48 4.64
-3 -5 -7 136.11 5.03
-3 -5 -8 5.09 0.73
-3 -5 -8 8.3 1.13
-3 -5 -8 8.23 0.9
-3 -4 14 17.88 1.37
-3 -4 13 0.15 0.33
-3 -4 13 -0.08 0.33
-3 -4 13 0.16 0.48
-3 -4 12 107.64 4.35
-3 -4 12 99.6 3.8
-3 -4 11 39.53 2.81
-3 -4 11 39.82 2.78
-3 -4 10 44.35 4.02
-3 -4 10 47.27 3.16
-3 -4 10 40.79 2.99
-3 -4 9 32.74 3.48
-3 -4 9 35.4 2.71
-3 -4 9 36.49 2.74
-3 -4 9 39.82 3.01
-3 -4 8 31.54 2.78
-3 -4 8 23.89 3
-3 -4 8 28.14 2.44
-3 -4 8 29.43 2.42
3 4 -8 32.78 5.5
-3 -4 8 24.46 5.53
-3 -4 8 31.75 2.67
-3 -4 8 28.25 2.52
-3 -4 8 25.26 2.43
-3 -4 7 0.55 0.94
-3 -4 7 0.51 0.45
-3 -4 7 0 0.42
-3 -4 7 3.03 1.11
-3 -4 7 0.62 0.81
-3 -4 7 0.62 0.5
3 4 -7 0.4 0.9
-3 -4 7 -0.11 1.76
-3 -4 7 0.62 0.57
-3 -4 6 362.6 9.97
-3 -4 6 369.75 8.25
-3 -4 6 373.09 8.5
-3 -4 6 352.85 9.74
-3 -4 6 358.35 8.49
-3 -4 5 39.35 5.91
-3 -4 5 58.89 7.03
3 4 -5 49.22 6
-3 -4 4 127.97 8.61
-3 -4 4 103.93 9.49
3 4 -4 133.34 9.36
-3 -4 3 41.67 5.16
-3 -4 3 32.11 5.27
-3 -4 3 35.36 4.79
3 4 -3 40.27 4.8
-3 -4 2 680.6 21
-3 -4 2 619.59 19.5
3 4 -2 645.82 18.22
-3 -4 2 660.84 24.18
-3 -4 1 314.71 13.53
3 4 -1 294.31 12.55
3 4 0 107.13 8.99
3 4 0 98.15 7.27
-3 -4 0 120.22 10.82
-3 -4 -1 40.49 5.44
3 4 1 36.3 5.52
-3 -4 -1 44.38 3.26
-3 -4 -2 12.31 1.53
-3 -4 -2 14.99 1.94
-3 -4 -2 14.11 1.84
-3 -4 -2 13.15 3.19
3 4 2 12.2 3.36
-3 -4 -2 12.2 1.81
-3 -4 -2 13.42 1.65
-3 -4 -3 1.38 0.67
-3 -4 -3 1.77 0.74
-3 -4 -3 0.49 0.69
3 4 3 1.48 1.38
-3 -4 -3 1.63 0.79
-3 -4 -3 1.18 0.46
-3 -4 -4 0.3 0.47
-3 -4 -4 -0.11 0.31
-3 -4 -4 0.47 1
-3 -4 -4 0.26 0.28
3 4 4 0.58 0.9
-3 -4 -5 28.44 2.44
-3 -4 -5 23.61 2.26
-3 -4 -5 25.37 2.61
-3 -4 -6 1.82 0.54
-3 -4 -6 0.95 0.52
-3 -4 -6 1.39 0.67
-3 -4 -6 1.71 0.67
-3 -4 -7 50.46 2.66
-3 -4 -7 51.69 3.01
-3 -4 -7 59.15 3.63
-3 -4 -8 15.06 1.39
-3 -4 -8 16.94 1.72
-3 -4 -8 17 1.66
-3 -4 -9 6.62 0.78
-3 -4 -9 7.57 0.97
-3 -4 -9 6.72 0.81
-3 -3 14 46.28 2.69
-3 -3 14 65.52 2.75
-3 -3 13 0.68 0.31
-3 -3 13 0.94 0.62
-3 -3 13 1.72 0.65
-3 -3 12 9.03 1.91
-3 -3 12 13.18 1.84
-3 -3 12 14.46 1.56
-3 -3 11 31.87 3.58
-3 -3 11 35.65 2.72
-3 -3 11 31.91 2.53
-3 -3 10 65.65 5.17
-3 -3 10 71.13 3.9
-3 -3 10 64.73 3.72
-3 -3 9 12.29 2.26
-3 -3 9 14.43 1.82
-3 -3 9 13.36 1.81
3 3 -9 12.18 3.64
-3 -3 9 11.24 3.86
3 3 -9 13.51 3.73
-3 -3 9 14.3 1.91
-3 -3 9 13.44 1.59
-3 -3 8 3.4 0.96
-3 -3 8 2.21 0.95
-3 -3 8 3.33 1.2
-3 -3 8 2.32 1.37
3 3 -8 3.38 1.91
-3 -3 8 1.68 0.95
-3 -3 8 2.78 0.88
-3 -3 7 103.07 11.07
3 3 -7 92.6 8.59
3 3 -6 53.94 6.2
-3 -3 6 57.15 7.4
-3 -3 5 18.33 3.13
3 3 -5 17.28 3.16
-3 -3 5 11.55 3.12
-3 -3 4 223.6 12.15
-3 -3 4 218.58 10.62
3 3 -4 225.85 9.71
-3 -3 3 90.72 7.3
-3 -3 3 81.07 7.38
-3 -3 3 98.39 7.11
3 3 -3 94.78 5.72
-3 -3 2 89.01 7.04
-3 -3 2 91.38 7.13
3 3 -2 72.55 6.24
-3 -3 2 98.03 8.17
3 3 -2 84.65 5.74
-3 -3 1 0.27 0.69
-3 -3 1 -0.07 0.68
-3 -3 1 0.14 0.61
3 3 -1 0.12 0.44
3 3 -1 -0.07 0.59
-3 -3 1 0.95 0.85
3 3 -1 0.77 0.45
-3 -3 0 135.22 10.41
-3 -3 0 117.24 7.82
3 3 0 111.02 6.99
3 3 0 108 8.3
-3 -3 0 123.8 8.8
3 3 0 99.94 6.31
-3 -3 -1 95.31 7.87
3 3 1 100.51 6.93
3 3 1 95.62 7.99
-3 -3 -2 0.76 0.73
3 3 2 0.52 0.42
3 3 2 0.55 0.59
-3 -3 -3 3.03 0.89
-3 -3 -3 1.31 1.24
3 3 3 3.42 2.11
-3 -3 -3 2.9 0.88
3 3 3 2.64 1.29
-3 -3 -4 11.08 1.49
-3 -3 -4 13.84 1.85
-3 -3 -4 11.85 4
-3 -3 -4 12.75 1.87
3 3 4 10.5 3.11
-3 -3 -5 188.98 15.39
-3 -3 -5 161.27 5.84
-3 -3 -5 185.58 6.8
-3 -3 -5 186.44 7.37
3 3 5 165.83 12.65
-3 -3 -6 99.86 4.65
-3 -3 -6 110.48 5.22
-3 -3 -7 11.23 1.53
-3 -3 -7 10.65 1.59
-3 -3 -7 13.38 1.89
-3 -3 -8 37.83 2.58
-3 -3 -8 42 2.82
-3 -3 -8 42.07 3.03
-3 -3 -9 6.56 0.97
-3 -3 -9 6.13 0.98
-3 -3 -9 6.58 1.04
-3 -3 -10 101.51 2.83
-3 -3 -10 73.27 2.47
-3 -2 14 12.35 1.61
-3 -2 14 16.31 1.4
3 2 -13 4.28 0.78
-3 -2 13 6.23 1.43
-3 -2 13 6.75 1.21
-3 -2 13 3.79 0.7
3 2 -12 84.89 3.89
-3 -2 12 84.73 3.69
-3 -2 11 57.74 3.58
-3 -2 11 55.9 3.26
3 2 -10 1.65 1.41
-3 -2 10 2.24 0.86
3 2 -10 0.44 1.14
-3 -2 10 2.8 1.09
-3 -2 9 0.87 0.56
3 2 -9 -1.19 1.62
-3 -2 9 0.93 1.88
3 2 -9 1.55 1.48
-3 -2 9 0.62 0.54
-3 -2 9 0.53 0.45
-3 -2 8 157.48 5.39
-3 -2 8 150.47 13.36
3 2 -8 139.54 11.37
3 2 -8 144.53 11.19
-3 -2 8 142.6 5.29
3 2 -7 21.96 4.12
3 2 -7 19.85 4.1
-3 -2 7 13.66 4.12
-3 -2 6 220.72 10.69
-3 -2 6 228.21 13.98
3 2 -6 232.18 11.8
-3 -2 5 352.61 15.39
-3 -2 5 330.08 12.9
3 2 -5 343.43 12.66
3 2 -4 -0.06 0.47
-3 -2 4 0.57 0.55
3 2 -4 1.02 0.51
-3 -2 4 1.75 1.51
-3 -2 4 1.27 1.08
3 2 -3 54.83 4.34
3 2 -3 66.5 4.45
-3 -2 3 70.05 6.04
-3 -2 3 63.91 5.68
-3 -2 3 59.5 5.4
-3 -2 2 136.59 6.86
3 2 -2 137.22 6.9
-3 -2 2 145.77 8.4
-3 -2 2 135.13 8.01
-3 -2 2 145.93 8.8
-3 -2 1 338.62 11.72
-3 -2 1 337.83 12.68
-3 -2 1 355.65 13.07
3 2 -1 315.46 11.39
3 2 -1 282.4 9.18
-3 -2 1 377.04 14.78
-3 -2 0 7.28 1.78
3 2 0 6.56 1.67
-3 -2 0 9.62 2.32
3 2 0 7.42 1.91
3 2 0 5.13 1.3
-3 -2 -1 180.08 10.34
3 2 1 195.99 9.41
-3 -2 -1 209.08 10.75
3 2 1 185.47 10.15
-3 -2 -2 65.82 7.06
3 2 2 61.61 5.66
3 2 2 61.61 6.24
-3 -2 -3 9.42 3.38
3 2 3 9.45 2.36
3 2 3 8.67 2.45
-3 -2 -4 38.49 7.51
-3 -2 -4 39.54 2.99
3 2 4 31.64 4.91
3 2 4 35.11 5.33
-3 -2 -5 248.18 18.21
-3 -2 -5 244.53 7.68
3 2 5 254.91 15.16
-3 -2 -5 232.52 6.3
3 2 5 225.42 14.17
-3 -2 -6 70.86 3.97
-3 -2 -6 76.05 9.71
-3 -2 -6 79.35 4.49
3 2 6 75.29 8.52
-3 -2 -6 67.82 3.53
-3 -2 -7 142.35 5.65
-3 -2 -7 135.02 5
-3 -2 -8 48.27 3.17
-3 -2 -8 47.09 3.14
-3 -2 -8 56.86 3.91
-3 -2 -9 2.03 0.63
-3 -2 -9 2.66 0.64
-3 -2 -9 1.75 0.77
-3 -2 -10 18.9 1.47
-3 -2 -10 19.69 1.4
-3 -2 -10 16.89 1.56
-3 -1 15 29.07 1.84
-3 -1 14 17.07 1.95
-3 -1 14 14.64 1.27
3 1 -14 17.13 1.31
-3 -1 13 62.28 3.34
3 1 -13 55.38 2.89
-3 -1 13 59.23 2.96
-3 -1 12 48.94 3.22
3 1 -12 43.88 2.89
-3 -1 12 39.82 2.47
-3 -1 12 45.26 2.84
-3 -1 11 25.75 2.47
3 1 -11 26.94 2.4
-3 -1 11 22.8 2.17
-3 -1 11 29.28 2.39
-3 -1 10 0.22 0.57
3 1 -10 -0.23 0.39
3 1 -10 -1.22 1.77
3 1 -10 -0.39 0.91
-3 -1 10 0.11 0.55
3 1 -9 155.73 11.91
-3 -1 9 174.46 5.95
-3 -1 9 189.48 13.08
3 1 -9 186.76 13.15
-3 -1 9 171.12 5.78
-3 -1 9 157.17 5.64
-3 -1 9 132.25 5.91
3 1 -8 59.07 7.11
-3 -1 8 58.74 7.16
3 1 -8 67.55 7.99
3 1 -7 68.69 7.39
-3 -1 7 62.7 6.31
-3 -1 7 75.22 7.77
3 1 -7 72.05 7.15
-3 -1 6 264.02 13.58
3 1 -6 243.36 10.34
3 1 -6 305.75 12.88
3 1 -6 305.21 14.44
-3 -1 6 299.48 13.08
-3 -1 5 41.36 4.72
3 1 -5 41.98 4.42
3 1 -5 45.66 5.25
-3 -1 5 28.87 4.15
3 1 -5 28.62 3.23
3 1 -4 1.62 0.7
3 1 -4 4.3 1.5
3 1 -4 3.62 1.67
-3 -1 4 4.03 1.62
-3 -1 4 2.29 1.17
3 1 -3 682.16 14.87
-3 -1 3 710.89 17.67
3 1 -3 663.09 17.63
-3 -1 2 131.69 7.18
-3 -1 2 128.87 6.7
-3 -1 2 127.37 7.45
3 1 -2 117.44 6.43
3 1 -2 111.89 6.65
3 1 -2 109.29 4.76
-3 -1 2 128.54 7.5
-3 -1 1 157.96 7.79
-3 -1 1 150.07 8.08
3 1 -1 142.32 6.56
-3 -1 1 167.32 8.45
-3 -1 0 118.21 7.2
-3 -1 0 113.03 7
3 1 0 103.42 5.1
3 1 0 116.65 6.93
3 1 0 120.51 7.08
-3 -1 -1 139.13 8.53
-3 -1 -1 121.21 7.46
3 1 1 130.53 7.34
-3 -1 -2 157.72 10.15
-3 -1 -2 168.44 9.26
3 1 2 155.66 8.73
3 1 2 160.03 9.36
-3 -1 -3 102.78 9.37
3 1 3 101.65 7.66
3 1 3 95.73 7.79
-3 -1 -4 1.47 1.69
3 1 4 0.67 1.17
3 1 4 1.77 1.36
-3 -1 -5 0 0.32
-3 -1 -5 0.76 0.77
3 1 5 0.89 1.44
-3 -1 -5 0.04 0.22
3 1 5 0.35 1.06
-3 -1 -6 0.16 0.36
-3 -1 -6 1.68 1.68
3 1 6 -1.11 0.88
-3 -1 -6 -0.13 0.34
3 1 6 0.16 0.92
3 1 6 0 0.37
-3 -1 -7 35.2 2.87
-3 -1 -7 33.26 2.59
3 1 7 32.01 2.42
-3 -1 -8 22.84 2.23
-3 -1 -8 20.61 2.12
-3 -1 -8 25.75 2.3
3 1 8 21.93 1.92
-3 -1 -9 256.14 6.9
-3 -1 -9 259.1 6.66
-3 -1 -10 16.66 1.83
-3 -1 -10 21.47 1.8
-3 -1 -10 20.77 1.56
3 1 10 18.69 1.39
-3 -1 -11 0 0.21
-3 -1 -11 0.39 0.24
-3 0 15 25.44 1.75
3 0 -14 1.94 0.53
-3 0 14 0.69 0.33
-3 0 13 44.12 2.44
-3 0 13 50.35 3.02
3 0 -13 53.37 2.92
-3 0 13 43.39 2.59
-3 0 12 11.87 1.4
-3 0 12 12.37 1.67
3 0 -12 13.14 1.59
-3 0 12 13.06 1.65
-3 0 12 10.61 1.42
-3 0 11 19.87 1.96
-3 0 11 26.8 2.57
3 0 -11 22.01 2.18
-3 0 11 16.03 2.28
-3 0 11 25.08 2.24
-3 0 11 27.21 2.43
-3 0 10 12.73 1.73
-3 0 10 14.61 1.84
-3 0 10 10.59 1.94
3 0 -10 13.39 1.74
3 0 -10 17.03 3.9
-3 0 10 14.1 1.64
-3 0 10 12.94 1.56
-3 0 10 12.45 1.57
-3 0 9 327.04 8.26
3 0 -9 340.27 8.49
3 0 -9 358.23 17.35
-3 0 9 267.4 8.93
3 0 -9 385.37 19.07
-3 0 9 289 7.41
-3 0 9 355.85 8.15
-3 0 9 369.59 8.67
3 0 -8 5.96 2.29
3 0 -8 5.12 2.3
-3 0 8 8.52 2.6
3 0 -8 6.33 2.51
-3 0 8 4.6 1.94
3 0 -7 106.81 8.53
-3 0 7 95.61 8.14
3 0 -7 94.56 8.22
-3 0 7 101.88 8.17
3 0 -7 98.22 8.08
3 0 -6 1.52 1.07
-3 0 6 2.13 1.19
3 0 -6 2.1 1.57
-3 0 6 1.59 1.39
3 0 -6 2.11 1
3 0 -5 101.48 7.73
3 0 -5 120.64 7
3 0 -5 105.66 6.73
-3 0 5 102.97 7.47
-3 0 5 116.18 7.62
3 0 -4 67.26 5.76
-3 0 4 58.69 5.2
3 0 -4 65.26 4.91
-3 0 4 70.26 5.99
3 0 -3 54.72 4.34
-3 0 3 60.02 5.16
3 0 -3 56.82 4.98
-3 0 3 61.39 5.02
-3 0 2 189.71 8.27
3 0 -2 174.82 7.75
3 0 -2 185.55 5.06
-3 0 2 176.08 8.54
-3 0 2 194.87 8.89
3 0 -1 615.52 12.18
-3 0 1 650.83 15.76
3 0 -1 606.35 13.94
-3 0 0 17.93 2.64
3 0 0 20.97 2.81
-3 0 0 19.05 2.7
3 0 0 20.81 2.59
3 0 0 17.56 2.18
-3 0 -1 312.31 12.43
-3 0 -1 281.63 10.52
3 0 1 296.49 11.02
-3 0 -2 9.91 2.33
3 0 2 8.27 2.01
3 0 2 9.57 2.11
-3 0 -2 8.19 1.85
-3 0 -3 137.69 9.84
3 0 3 132.19 8.52
3 0 3 124.82 8.48
-3 0 -4 96.75 9.17
3 0 4 98.16 8.17
3 0 4 101.6 8.3
-3 0 -5 10.71 3.37
3 0 5 11.4 3.23
3 0 5 9.2 2.65
-3 0 -6 34.41 6.2
3 0 6 42.79 6.48
-3 0 -6 35.67 2.68
3 0 6 32.86 2.51
3 0 6 37.89 5.83
-3 0 -7 71.86 8.86
-3 0 -7 76.25 4.2
-3 0 -7 73.07 3.84
3 0 7 69.62 3.69
3 0 7 73.59 8.47
-3 0 -8 420.16 9.21
3 0 8 410.42 8.83
-3 0 -9 195.44 6.28
-3 0 -9 192.2 5.81
-3 0 -9 176.45 5.76
3 0 9 179.79 5.49
-3 0 -10 2.48 0.77
3 0 10 1.98 0.61
-3 0 -11 48.42 2.27
3 0 11 42.26 1.89
3 -1 -14 19.26 1.39
-3 1 14 18.27 1.32
-3 1 14 16.43 1.23
-3 1 13 11.99 1.29
3 -1 -13 9.17 1.15
-3 1 13 14.08 1.56
-3 1 12 13.4 1.64
-3 1 12 15.83 1.98
3 -1 -12 16.55 1.79
-3 1 12 15.42 1.72
-3 1 12 11.6 1.32
-3 1 11 48.77 3.37
3 -1 -11 48.19 3.27
-3 1 11 44.29 3.14
-3 1 11 49.7 3.24
-3 1 11 43.31 2.83
-3 1 10 225.82 7.26
-3 1 10 234.21 7.38
-3 1 10 195.29 8.01
-3 1 10 220.41 6.89
3 -1 -10 227.27 7.18
-3 1 10 221.86 6.46
-3 1 10 204.64 6.68
-3 1 9 868.43 13.7
-3 1 9 807.23 16.05
3 -1 -9 782.09 13.11
-3 1 9 765.14 13.82
3 -1 -9 923.42 27.33
-3 1 9 600.51 23.12
3 -1 -9 968.78 29.99
-3 1 9 872.26 13.1
-3 1 9 827.54 12.4
-3 1 9 862.03 13.6
3 -1 -9 733.55 26.9
3 -1 -8 25.17 4.44
3 -1 -8 18.8 4.09
-3 1 8 21.31 4.76
3 -1 -8 28.61 4.93
3 -1 -7 0.35 0.96
-3 1 7 0.75 1.18
3 -1 -7 2.22 1.63
-3 1 7 0.99 1.01
3 -1 -7 1 0.98
3 -1 -6 -0.2 0.54
-3 1 6 0.48 0.77
3 -1 -6 0.28 0.85
3 -1 -6 0.96 1.12
-3 1 6 0.85 0.58
-3 1 5 442.39 16.54
-3 1 5 425.24 13.43
3 -1 -5 436.58 14.09
3 -1 -5 421.49 13.41
3 -1 -5 403.21 15.11
3 -1 -4 0.36 0.53
-3 1 4 0.75 0.64
3 -1 -4 1.2 1.23
-3 1 4 -0.04 0.68
-3 1 3 48.56 4.79
-3 1 3 59.58 4.98
3 -1 -3 54.12 5.01
3 -1 -3 60.29 4.67
3 -1 -2 123.72 6.69
3 -1 -2 112 6.51
3 -1 -2 103.19 3.9
-3 1 2 115.14 7.07
3 -1 -1 0.46 0.72
-3 1 1 0.37 0.54
3 -1 -1 0.59 0.64
-3 1 1 0.41 0.9
3 -1 -1 0.61 0.41
-3 1 0 3.37 1.24
3 -1 0 3.63 1.36
3 -1 0 2.38 1.84
3 -1 0 1.49 0.8
-3 1 0 1.42 0.99
-3 1 -1 85.64 6.31
3 -1 1 85.28 5.79
-3 1 -1 78.15 5.31
3 -1 1 74.04 4.12
3 -1 1 84.85 5.73
-3 1 -2 302.63 12.77
3 -1 2 307.48 11.85
-3 1 -2 275.85 9.96
-3 1 -3 1.04 1.01
3 -1 3 1.05 0.77
-3 1 -3 1.03 0.47
3 -1 3 1.11 0.83
-3 1 -4 147.32 10.48
3 -1 4 151.61 10.05
3 -1 4 155.97 10.14
-3 1 -5 6.77 2.54
3 -1 5 11.06 3.24
3 -1 5 4.75 1.72
-3 1 -6 24.19 5.11
3 -1 6 32 5.68
-3 1 -6 29.09 2.41
3 -1 6 28.44 2.4
3 -1 6 31.75 5.24
-3 1 -7 9.19 3.41
-3 1 -7 8.51 1.36
3 -1 7 10.14 3.35
3 -1 7 6.85 1.26
3 -1 7 5.2 2.16
-3 1 -8 38.44 3.07
-3 1 -8 47.71 3.23
3 -1 8 40.75 2.94
-3 1 -9 115.24 4.55
-3 1 -9 122.74 4.98
3 -1 9 114.72 4.66
-3 1 -10 35.04 2.56
-3 1 -10 37.69 2.5
3 -1 10 38.22 2.36
-3 1 -11 2.84 0.62
3 -1 11 2.8 0.55
3 -2 -14 3.94 0.63
-3 2 14 2.4 0.5
-3 2 14 3.03 0.53
3 -2 -13 35.6 2.25
-3 2 13 37.65 2.33
-3 2 13 41.65 2.33
-3 2 12 37.02 2.73
-3 2 12 38.98 2.75
3 -2 -12 42.95 2.86
-3 2 11 15.21 2.34
3 -2 -11 22.64 2.21
-3 2 11 20.25 2.18
-3 2 11 19.54 2.13
-3 2 11 18.83 1.77
-3 2 11 19.08 1.91
-3 2 10 4.06 0.94
3 -2 -10 3.14 0.88
-3 2 10 2.57 0.89
-3 2 10 2.28 1.07
-3 2 10 2.91 0.78
-3 2 10 2.63 0.74
-3 2 10 3.08 0.88
-3 2 9 193.73 6.64
3 -2 -9 205.17 6.88
-3 2 9 204.33 8.48
-3 2 9 182.77 6.77
3 -2 -9 229.47 14.25
-3 2 9 194.4 6.34
-3 2 9 201.49 6.19
-3 2 9 211.59 6.98
3 -2 -9 160.21 13.09
-3 2 8 44.91 2.99
3 -2 -8 49.15 3.16
-3 2 8 42.48 3.07
3 -2 -8 55.37 6.6
3 -2 -8 38.72 6.31
-3 2 8 55.26 6.41
3 -2 -8 49.33 6.49
-3 2 8 49.03 2.94
-3 2 8 44.04 3.23
3 -2 -7 12.89 3.3
3 -2 -7 12.93 3.27
-3 2 7 14.96 3.02
3 -2 -7 15.67 3.25
3 -2 -6 186.88 11.13
-3 2 6 159.17 8.7
3 -2 -6 186.17 9.89
3 -2 -6 165.99 10.36
3 -2 -5 215.21 11.25
-3 2 5 198.52 8.54
-3 2 5 217.08 8.79
3 -2 -5 212.78 9.65
3 -2 -4 23.91 3.9
3 -2 -4 16.59 2.8
-3 2 4 17.08 2.07
3 -2 -3 25.68 3.47
3 -2 -3 21.39 3.02
-3 2 3 24.69 3.68
3 -2 -2 4.13 1.28
3 -2 -2 6.02 2.04
-3 2 2 1.74 1.18
3 -2 -1 4.83 1.57
-3 2 1 7.75 1.75
3 -2 -1 10.39 2.28
-3 2 1 8.89 1.89
3 -2 -1 8.85 1.53
-3 2 0 362.79 11.51
-3 2 0 371.12 12.86
3 -2 0 373.16 12.44
3 -2 0 372.8 10.98
3 -2 0 372.43 11.26
3 -2 0 393.62 12.14
-3 2 -1 187.08 9.42
3 -2 1 173.01 8.18
3 -2 1 197.27 8.75
-3 2 -1 169.94 7.6
3 -2 1 174.19 7.21
-3 2 -1 147.93 7.32
-3 2 -2 94.27 7.01
3 -2 2 86.01 6.42
3 -2 2 98.59 6.78
-3 2 -2 87.42 5.44
3 -2 2 96.24 4.91
-3 2 -2 96.32 5.54
-3 2 -3 27.68 4.03
3 -2 3 35.32 4.37
-3 2 -3 31.7 3.23
3 -2 3 27.84 3.95
-3 2 -4 96.26 8.14
3 -2 4 92.95 7.88
3 -2 4 79.69 7.22
-3 2 -5 692.63 23.41
3 -2 5 754.46 25.21
3 -2 5 743.11 23.75
-3 2 -6 69.75 8.1
3 -2 6 80.5 8.36
3 -2 6 88.47 9.44
-3 2 -6 79.15 4.03
3 -2 6 75.44 3.64
-3 2 -6 63.78 3.46
3 -2 7 2.41 0.72
-3 2 -7 1.28 1.19
3 -2 7 1.14 0.66
-3 2 -7 0.53 0.42
-3 2 -7 0.84 0.44
3 -2 7 0.22 0.53
3 -2 7 -0.07 0.91
3 -2 7 1.02 0.55
-3 2 -7 0.47 0.36
3 -2 8 0.49 0.52
3 -2 8 1.29 0.68
-3 2 -8 0.96 0.45
-3 2 -8 0.36 0.45
-3 2 -8 1.53 0.52
3 -2 8 0.64 0.48
3 -2 9 1.9 0.66
-3 2 -9 1.51 0.66
-3 2 -9 0.18 0.37
3 -2 9 1.2 0.56
3 -2 10 40.81 2.51
-3 2 -10 34.74 2.53
-3 2 -10 31.17 2.07
3 -2 10 37.34 2.17
-3 2 -11 0.83 0.41
3 -2 11 0.15 0.24
3 -2 12 1.54 0.33
-3 2 -12 0.81 0.27
-3 3 14 10.61 1.17
3 -3 -14 12.2 0.95
-3 3 14 10.57 0.89
-3 3 14 12.16 0.89
-3 3 13 72.73 3.15
3 -3 -13 74.8 3.11
-3 3 13 76.85 2.95
3 -3 -12 2.37 0.65
-3 3 12 3.59 0.8
-3 3 12 2.24 1.01
-3 3 12 3.34 0.9
-3 3 11 9.46 1.56
3 -3 -11 13.81 1.68
-3 3 11 9.27 1.9
-3 3 11 11.49 1.61
-3 3 11 10.5 1.36
-3 3 11 7.75 1.29
-3 3 10 33.82 2.88
3 -3 -10 34.86 2.94
-3 3 10 30.6 2.72
-3 3 10 29.89 3.48
-3 3 10 26.35 2.55
-3 3 9 102.83 5.05
3 -3 -9 94.02 4.64
-3 3 9 102.67 4.85
3 -3 -9 113.77 9.6
-3 3 9 91.6 4.17
-3 3 9 68.61 4.17
3 -3 -9 81.26 9.85
3 -3 -8 21.52 4.29
3 -3 -8 18.15 2.04
-3 3 8 20.02 2.14
3 -3 -8 21.45 4.11
-3 3 8 22.06 4.3
-3 3 8 19.99 2.13
-3 3 8 18.72 1.88
3 -3 -8 24.62 5.36
3 -3 -7 3.27 1.79
3 -3 -7 5.48 2.29
-3 3 7 4.49 1.86
3 -3 -7 4.22 1.93
3 -3 -6 33.31 4.25
-3 3 6 34.47 4.4
3 -3 -6 21.5 4.05
3 -3 -5 12.96 2.91
-3 3 5 8.48 1.92
3 -3 -5 8.77 2.04
3 -3 -5 8.48 2.41
3 -3 -4 19.67 3.59
3 -3 -4 26.63 3.75
-3 3 4 19.78 2.61
3 -3 -3 3.97 1.46
3 -3 -3 4.71 1.45
-3 3 3 3.16 1.1
-3 3 3 3.47 0.99
-3 3 2 53.85 5.23
3 -3 -2 67.91 5.42
-3 3 2 56.61 5.31
-3 3 1 145.64 7.89
3 -3 -1 144.19 5.84
3 -3 -1 147 7.85
3 -3 -1 126.84 6.67
-3 3 1 137.59 8.12
3 -3 -1 142.79 8.07
3 -3 0 44.47 4.34
3 -3 0 54.12 4.27
3 -3 0 52.69 4.48
3 -3 0 45.21 4.04
-3 3 0 41.84 4.02
-3 3 0 44.65 4.73
3 -3 0 53.93 4.88
3 -3 1 9.68 2.18
-3 3 -1 9.32 2.18
-3 3 -1 8.52 2.3
3 -3 1 9.45 1.97
3 -3 1 9.1 2.02
3 -3 1 10.03 1.97
-3 3 -1 9.13 1.82
-3 3 -2 619.88 18.11
3 -3 2 662.77 17.22
3 -3 2 672.18 18.26
-3 3 -2 625.43 13.37
3 -3 2 613.11 14.59
-3 3 -3 22.74 3.8
3 -3 3 24.39 3.72
3 -3 3 16.33 3.33
-3 3 -3 13.62 2.67
-3 3 -4 4.01 1.75
3 -3 4 5.09 2.1
3 -3 4 1.73 1.07
-3 3 -5 28.55 4.81
3 -3 5 42.75 6.19
3 -3 5 38.98 5.6
-3 3 -6 66.08 7.56
-3 3 -6 64.73 3.83
3 -3 6 58.21 3.34
3 -3 6 62.76 7.38
-3 3 -6 60.03 3.39
3 -3 6 63.29 3.23
-3 3 -7 76.59 4.23
3 -3 7 83.8 4.06
-3 3 -7 83.5 4.39
3 -3 7 80.45 8.84
-3 3 -7 81.94 4.08
3 -3 7 74.95 3.63
3 -3 8 6.39 1.07
-3 3 -8 8.17 1.33
3 -3 8 7.98 1.34
3 -3 8 6.89 1.33
-3 3 -8 7.81 1.4
-3 3 -8 6.3 1.24
-3 3 -9 59.08 3.44
3 -3 9 55.74 3.22
-3 3 -9 54.85 3.32
3 -3 9 60.3 3.49
3 -3 9 54.59 3.05
-3 3 -10 36.13 2.45
-3 3 -10 32.82 2.28
3 -3 10 33.44 2.11
-3 3 -11 30.29 1.95
-3 3 -11 32.66 1.73
3 -3 11 31.62 1.67
3 -3 12 26.03 1.32
-3 3 -12 4.75 0.64
3 -4 -13 26.92 1.7
-3 4 13 29.89 1.61
-3 4 13 29.9 1.87
-3 4 12 3.11 1.08
-3 4 12 4.62 0.9
3 -4 -12 5.41 0.92
-3 4 12 4.18 0.78
-3 4 11 59.23 4.3
-3 4 11 61.99 3.73
3 -4 -11 57.46 3.4
-3 4 11 64.13 3.29
3 -4 -10 2.78 0.9
-3 4 10 3.44 0.97
-3 4 10 4 0.99
-3 4 10 2.02 0.77
-3 4 9 1.3 0.53
-3 4 9 1.35 0.72
3 -4 -9 1.06 0.55
3 -4 -8 41.58 3.21
3 -4 -8 44.56 3.2
-3 4 8 46.71 3.02
3 -4 -8 39.93 7.02
-3 4 8 47.97 3.41
3 -4 -7 2.72 0.9
3 -4 -7 2.5 0.73
3 -4 -7 5.65 2.71
3 -4 -7 1.57 0.91
-3 4 7 3.05 0.82
-3 4 7 4.06 1.97
-3 4 7 2.55 0.68
3 -4 -6 432.18 15.6
-3 4 6 425.8 16.38
3 -4 -6 383.58 18.92
3 -4 -6 408.06 17.44
3 -4 -5 4.51 2.01
-3 4 5 4.12 1.46
3 -4 -5 3.55 1.5
3 -4 -5 2.83 1.45
3 -4 -4 26.09 4.02
-3 4 4 21.82 3.03
3 -4 -4 21.43 3.84
3 -4 -3 1.45 1.07
3 -4 -3 0.33 0.99
-3 4 3 0.6 0.95
-3 4 3 -0.32 0.73
3 -4 -2 546.23 17.45
3 -4 -2 563.8 16.63
3 -4 -1 0.53 0.66
3 -4 -1 -0.01 0.47
3 -4 -1 0.4 0.44
-3 4 1 0.84 0.76
3 -4 -1 0.56 0.91
-3 4 1 -0.01 0.76
3 -4 0 24.6 3
3 -4 0 23.28 3.3
-3 4 0 20.94 3.03
3 -4 0 21.35 3.27
-3 4 0 21.4 3.75
3 -4 0 22.18 2.87
3 -4 1 545.38 14.49
3 -4 1 490.4 14.66
3 -4 1 502.37 15.97
3 -4 1 502.16 15.48
-3 4 -1 483.27 12.82
3 -4 1 498.2 15.25
-3 4 -1 481.79 17.32
3 -4 2 245.82 10.58
3 -4 2 221.92 10.9
3 -4 2 217.97 10.69
3 -4 2 211.68 9.78
3 -4 2 220.87 11.19
-3 4 -2 195.57 11.26
3 -4 3 8.35 2.26
3 -4 3 10.89 2.61
3 -4 3 11.64 2.57
-3 4 -3 8.51 2.61
3 -4 3 15.67 3.3
-3 4 -3 17.87 3.99
3 -4 4 0.59 0.67
-3 4 -4 0.49 0.71
3 -4 4 1.54 1.37
3 -4 4 -0.06 0.81
3 -4 5 260.04 7
3 -4 5 271.56 15.24
-3 4 -5 296.05 7.46
3 -4 5 280.89 15.32
-3 4 -5 274.18 6.95
3 -4 5 266.07 6.76
3 -4 6 6.84 1.12
3 -4 6 8.4 2.99
-3 4 -6 7.98 1.38
3 -4 6 8.87 2.93
3 -4 6 5.46 2.51
-3 4 -6 7.48 1.27
3 -4 6 5.67 1.21
-3 4 -7 80.54 4.02
3 -4 7 71.66 3.86
-3 4 -7 71.76 3.95
3 -4 7 70.91 3.69
3 -4 8 0.53 0.5
3 -4 8 1.65 0.58
-3 4 -8 0.97 0.59
-3 4 -8 0.9 0.39
3 -4 8 0.54 0.59
-3 4 -8 1.02 0.46
3 -4 9 2.76 0.7
3 -4 9 5.13 1.1
-3 4 -9 2.94 0.84
-3 4 -9 5.11 1.04
3 -4 9 4.95 1
-3 4 -10 15.06 1.54
3 -4 10 17.22 1.74
3 -4 10 18.12 1.56
-3 4 -10 13.13 1.43
3 -4 11 53.08 2.36
3 -4 11 48.42 2.09
-3 5 13 11.77 0.98
3 -5 -13 12.73 0.97
3 -5 -12 26.95 1.91
-3 5 12 24.85 1.55
-3 5 12 26.33 1.96
-3 5 11 7.05 1.23
-3 5 11 5.63 1.53
3 -5 -11 6.57 1.1
-3 5 11 6.32 0.96
-3 5 11 5.06 0.93
3 -5 -10 24.67 2.14
-3 5 10 31.16 2.7
-3 5 10 30.78 2.34
-3 5 10 24.17 2.35
3 -5 -10 25.33 2.32
3 -5 -9 76.97 4.03
-3 5 9 82.07 4.54
-3 5 9 74.61 3.82
3 -5 -9 75.11 4.23
3 -5 -8 34.51 2.83
3 -5 -8 37.31 2.98
-3 5 8 34.48 3.03
-3 5 8 32.27 2.54
3 -5 -7 125.52 5.31
3 -5 -7 133.42 5.49
-3 5 7 138.36 5.82
3 -5 -7 150.14 10.89
-3 5 7 129.93 4.93
3 -5 -7 133.88 12.83
3 -5 -6 222.29 6.87
3 -5 -6 236.52 7.02
-3 5 6 241.44 7.43
3 -5 -6 274.62 14.87
-3 5 6 285.86 14.49
-3 5 6 223.47 6.27
3 -5 -6 208.52 15.32
3 -5 -5 34.86 5.25
-3 5 5 38.57 4.9
3 -5 -5 34.19 5.75
3 -5 -4 9.92 2.73
3 -5 -4 11.87 2.87
-3 5 4 11.08 2.94
-3 5 4 11.26 2.4
-3 5 3 172.83 10.97
3 -5 -3 203.74 11.96
-3 5 3 185 9.51
3 -5 -3 157.05 10.04
3 -5 -2 213.59 11.92
-3 5 2 187.44 9.3
-3 5 2 194.44 11.75
3 -5 -1 120.31 7.87
3 -5 -1 144.91 9.55
-3 5 1 137.06 10
3 -5 0 79.5 6.34
-3 5 0 90.79 6.58
3 -5 0 105.47 7.9
3 -5 0 75.51 6
-3 5 0 100.28 8.76
3 -5 1 131.65 8.13
3 -5 1 162.36 9.7
3 -5 1 118.46 7.87
-3 5 -1 149.52 10.99
3 -5 2 46.24 4.84
3 -5 2 44.32 5.54
-3 5 -2 38.71 6.02
3 -5 2 39.13 4.85
3 -5 3 149.52 10.31
3 -5 3 172.26 11.43
-3 5 -3 163.46 12.89
-3 5 -4 31.34 2.31
3 -5 4 28.47 2.31
3 -5 4 25.68 4.58
3 -5 4 26.96 4.81
-3 5 -4 23.89 4.75
3 -5 4 29.99 2.37
3 -5 5 43.54 2.99
3 -5 5 28.62 5.06
-3 5 -5 30.59 2.49
3 -5 5 42.47 6.23
-3 5 -5 36.07 2.63
3 -5 5 31.14 2.45
3 -5 6 48.19 3.3
-3 5 -6 39.28 2.85
3 -5 6 31.14 5.58
3 -5 6 39.16 6.18
-3 5 -6 46.71 3.12
3 -5 6 40.24 2.81
-3 5 -7 69.02 3.61
3 -5 7 74.53 4.02
-3 5 -7 74.8 4.04
3 -5 7 68.34 3.61
-3 5 -8 47.17 2.88
3 -5 8 50.22 3.18
-3 5 -8 47.9 3.39
3 -5 8 48.31 3.27
-3 5 -8 45.98 3.07
3 -5 8 47.99 2.89
-3 5 -9 111.45 4.18
3 -5 9 115.37 4.65
-3 5 -9 116.31 4.85
3 -5 9 115.63 4.69
3 -5 9 109.5 4.14
3 -5 10 2.9 0.72
-3 5 -10 4.8 0.94
3 -5 10 2.93 0.68
3 -5 10 4.38 0.89
-3 5 -11 10.94 1.01
3 -5 11 11.16 1.03
3 -5 11 9.82 0.92
-3 6 12 -0.14 0.24
-3 6 12 -0.2 0.34
3 -6 -11 10.35 1.17
-3 6 11 14.01 1.53
-3 6 11 12.25 1.73
-3 6 11 13.66 1.18
3 -6 -11 10.33 1.19
-3 6 11 7.54 1.06
3 -6 -11 12.04 1.41
3 -6 -10 43.9 2.81
-3 6 10 57.27 3.39
3 -6 -10 56.59 3.28
-3 6 10 59.99 4.1
-3 6 10 51.02 2.7
-3 6 10 46.31 2.98
3 -6 -9 1.03 0.53
3 -6 -9 0.14 0.7
-3 6 9 1.27 0.56
-3 6 9 0.33 0.45
3 -6 -8 1.6 0.72
3 -6 -8 2 0.77
-3 6 8 1.15 0.7
-3 6 8 1.02 0.6
3 -6 -7 78.52 4.29
3 -6 -7 83.36 4.47
-3 6 7 74.64 3.69
-3 6 7 77.37 4.48
3 -6 -6 31.24 2.72
3 -6 -6 33.62 4.15
-3 6 6 37.68 3.01
3 -6 -6 33.68 5.32
-3 6 6 33.76 2.47
3 -6 -6 35.94 6.61
3 -6 -6 32.72 2.76
3 -6 -5 0.08 0.48
3 -6 -5 0.69 0.82
3 -6 -5 0.7 0.67
3 -6 -5 -1.54 1.52
3 -6 -5 -0.44 0.36
-3 6 5 0.48 0.38
-3 6 5 0.16 0.37
3 -6 -4 4.81 1.19
3 -6 -4 6.19 0.95
3 -6 -4 5.59 1.68
3 -6 -4 4.07 1.91
3 -6 -4 5.9 1.83
-3 6 4 5.66 1.14
-3 6 4 4.12 1.95
-3 6 4 5.46 0.92
3 -6 -4 6.89 1.18
3 -6 -3 101.91 4.44
3 -6 -3 122.07 9.76
-3 6 3 105.4 9.39
3 -6 -3 90.97 8.49
3 -6 -2 1.29 1.01
3 -6 -2 0.31 0.78
-3 6 2 0.38 1.43
3 -6 -1 7.63 2.16
3 -6 -1 7.32 2.41
-3 6 1 8.61 2.83
3 -6 0 5.06 2.25
-3 6 0 4.75 2.41
3 -6 0 5.14 1.83
3 -6 1 45.06 5.74
-3 6 -1 48.31 7.09
3 -6 1 33.95 4.79
3 -6 2 0.48 0.45
3 -6 2 1.78 0.78
3 -6 3 23.65 2.4
3 -6 3 25.92 4.56
-3 6 -3 17.57 4.97
-3 6 -3 25.13 2.01
3 -6 3 20.97 2.03
3 -6 4 12.92 3.42
3 -6 4 14.15 1.73
-3 6 -4 15.31 1.64
-3 6 -4 13.35 4.09
3 -6 4 12.38 1.75
-3 6 -5 736.14 12.02
3 -6 5 721.63 12.22
3 -6 6 19.89 2.12
-3 6 -6 21.71 2.15
3 -6 6 23.78 2.27
3 -6 7 196.83 6.53
-3 6 -7 197.92 6.5
3 -6 7 197.97 6.17
3 -6 8 0.32 0.51
3 -6 8 0.76 0.45
-3 6 -8 0.17 0.45
3 -6 8 1.28 0.63
3 -6 9 35.67 2.54
-3 6 -9 35.58 2.63
3 -6 9 39.57 2.66
-3 6 -9 36.59 2.59
3 -6 9 45.39 2.58
3 -6 10 30.64 2.11
-3 6 -10 29.69 2.09
3 -6 10 28.56 1.85
3 -6 10 29.55 2
3 -6 11 0.78 0.35
-3 6 -11 0.68 0.34
3 -6 11 0.79 0.26
-3 7 11 45.68 2.48
-3 7 11 50.86 2.2
3 -7 -11 53.75 2.25
3 -7 -10 5.85 0.93
3 -7 -10 6.09 1.06
-3 7 10 7.04 1.31
-3 7 10 7.21 1.08
-3 7 10 8.18 0.89
3 -7 -10 4.64 0.76
-3 7 10 4.7 0.88
3 -7 -9 0.24 0.36
-3 7 9 0.13 0.63
-3 7 9 0.13 0.42
3 -7 -9 0.28 0.51
-3 7 9 0.31 0.33
3 -7 -9 0.21 0.44
3 -7 -8 156.61 5.79
-3 7 8 159.79 5.97
-3 7 8 141.32 4.56
3 -7 -8 146.41 5.13
3 -7 -8 154.74 5.77
3 -7 -7 33.16 2.87
3 -7 -7 29.62 3.49
3 -7 -7 31.29 2.77
3 -7 -7 33.09 2.68
-3 7 7 38.68 3.1
-3 7 7 38.29 2.5
3 -7 -6 21.28 2.33
3 -7 -6 19.54 3.09
-3 7 6 20.61 2.36
3 -7 -6 19.47 2.21
-3 7 6 19.83 1.87
3 -7 -6 20.02 2.23
3 -7 -5 45.25 3.42
3 -7 -5 47.36 4.88
-3 7 5 43.88 3.32
3 -7 -5 47.76 3.4
3 -7 -5 45.35 3.19
-3 7 5 45.39 2.78
3 -7 -4 38.97 3.03
3 -7 -4 31.77 3.99
-3 7 4 29.79 2.76
3 -7 -4 33.96 2.7
3 -7 -4 39.42 6
-3 7 4 35.66 5.69
-3 7 4 32.02 2.32
3 -7 -4 36.61 2.87
3 -7 -3 762.38 13.44
3 -7 -3 703.12 18.05
3 -7 -3 764.34 12.95
-3 7 3 720.95 13
-3 7 3 809.11 27.42
-3 7 3 720.69 10.86
3 -7 -3 760.38 12.44
3 -7 -2 307.2 8.36
3 -7 -2 264.04 10.94
3 -7 -2 299.11 7.9
-3 7 2 297.35 8.16
-3 7 2 326.96 17.88
-3 7 2 270.89 6.56
3 -7 -2 297.86 7.63
3 -7 -1 -0.33 0.63
3 -7 -1 0.4 0.62
3 -7 -1 0.69 0.54
3 -7 -1 1.95 1.73
-3 7 1 0.29 1.75
-3 7 1 0.79 0.51
3 -7 0 8.82 1.45
3 -7 0 9.5 2.83
-3 7 0 9.62 3.57
3 -7 0 9.34 1.38
-3 7 0 8.48 1.09
3 -7 1 192.13 6.84
3 -7 1 188.42 6.06
-3 7 -1 200.6 15.25
-3 7 -1 175.77 5.29
3 -7 1 163.47 11.87
3 -7 2 4.14 1.02
3 -7 2 6.54 1.13
-3 7 -2 5.86 2.93
-3 7 -2 3.9 0.73
3 -7 2 1.95 1.08
3 -7 3 8.25 1.42
3 -7 3 5.86 1.08
-3 7 -3 7.71 3.95
3 -7 3 3.77 2.15
-3 7 -3 6.7 1.15
3 -7 4 55.95 3.08
3 -7 4 54.59 7.54
-3 7 -4 48.85 7.95
-3 7 -4 61.04 3.44
3 -7 4 55.72 3.44
3 -7 4 66.38 3.75
3 -7 5 4.78 1.1
3 -7 5 1.87 0.79
-3 7 -5 2.94 0.82
3 -7 6 152.05 5.76
-3 7 -6 137.66 5.43
3 -7 6 135.48 5.32
3 -7 7 5.73 1.18
3 -7 7 5.15 1.18
-3 7 -7 5.67 1.11
3 -7 8 48.45 2.99
3 -7 8 41.05 2.82
-3 7 -8 45.23 2.96
3 -7 8 52.91 2.96
3 -7 9 0.37 0.43
3 -7 9 0.09 0.43
3 -7 9 0.17 0.21
-3 7 -9 -0.36 0.43
3 -7 10 42.1 2.1
-3 7 -10 42.41 2.21
3 -7 10 49.18 2.16
3 -7 10 43.3 1.87
3 -8 -10 7.23 0.79
-3 8 10 6.2 0.82
-3 8 10 5.81 0.67
-3 8 10 5.45 0.74
3 -8 -9 19.73 1.74
-3 8 9 21.22 1.71
3 -8 -9 23.13 1.88
-3 8 9 18.31 1.79
-3 8 9 18.83 1.7
3 -8 -8 17.11 1.77
3 -8 -8 18.41 1.82
-3 8 8 10.8 1.6
-3 8 8 13.37 1.55
-3 8 8 13.82 1.2
3 -8 -8 17.94 1.47
3 -8 -7 67.51 3.76
3 -8 -7 57.69 4.49
-3 8 7 64 3.67
-3 8 7 65.73 2.87
3 -8 -7 64.33 3.64
3 -8 -7 60.48 3.11
3 -8 -6 42.65 3.13
3 -8 -6 31.09 3.77
3 -8 -6 40.41 3
3 -8 -6 39.19 2.72
-3 8 6 38.92 2.37
-3 8 6 33.57 2.79
3 -8 -5 4.05 1.13
3 -8 -5 4.43 1.72
3 -8 -5 2.93 0.97
3 -8 -5 3.38 0.85
-3 8 5 3.22 1.03
-3 8 5 3.65 0.86
3 -8 -4 17.4 2.17
3 -8 -4 15.29 2.73
3 -8 -4 16.87 1.81
3 -8 -4 16.11 2.01
-3 8 4 15.73 2
-3 8 4 15.61 1.61
3 -8 -3 7.87 1.51
3 -8 -3 7.64 2
3 -8 -3 6.94 1.23
3 -8 -3 6.59 1.48
-3 8 3 6.87 1.5
-3 8 3 7.46 1.11
3 -8 -2 92.63 4.83
3 -8 -2 79.17 6.32
-3 8 2 82.56 3.65
3 -8 -2 80.59 4.12
3 -8 -1 34.65 3.06
3 -8 -1 35.69 2.76
-3 8 1 36.43 6.41
-3 8 1 29.86 2.2
3 -8 0 15.77 2.06
3 -8 0 15.35 1.85
-3 8 0 17.98 4.44
-3 8 0 15.7 1.7
3 -8 1 47.9 3.33
3 -8 1 44.56 3.44
3 -8 1 44.45 3.07
-3 8 -1 50.75 8.09
-3 8 -1 41.05 2.65
3 -8 2 26.53 2.51
3 -8 2 28.09 2.46
-3 8 -2 23.81 2.08
3 -8 3 101.81 4.76
3 -8 3 112.48 4.86
-3 8 -3 98.92 4.31
3 -8 4 0.47 0.55
3 -8 4 1.59 0.49
3 -8 4 1 0.52
-3 8 -4 1 0.56
3 -8 5 84.56 4.22
3 -8 5 74.41 3.56
3 -8 5 75.23 3.97
-3 8 -5 76.03 3.89
3 -8 6 5.18 1.04
-3 8 -6 5.49 1.07
3 -8 6 4.28 1.04
-3 8 -7 23.37 2.04
3 -8 7 28.81 2.31
3 -8 7 27.5 2.13
3 -8 8 4.53 0.87
3 -8 8 4.49 0.85
-3 8 -8 5.72 0.98
3 -8 9 36.77 2.06
3 -8 9 29.24 1.49
-3 8 -9 37.23 2.17
3 -8 9 32.33 1.84
3 -8 10 0.74 0.31
-3 8 -10 1.31 0.4
-3 9 9 2.4 0.48
3 -9 -8 -0.53 0.44
3 -9 -7 38.13 2.49
3 -9 -6 1.04 0.53
3 -9 -5 2.14 0.82
3 -9 -5 2.76 1.23
3 -9 -5 2.23 0.67
3 -9 -4 62.33 3.95
3 -9 -4 60.01 3.16
3 -9 -3 1.9 0.87
3 -9 -3 1.62 0.57
-3 9 3 1.08 0.35
3 -9 -2 60.79 4.06
3 -9 -2 59.69 3.29
-3 9 2 53.73 2.74
3 -9 -1 9.44 1.77
3 -9 -1 12.14 1.52
-3 9 1 11.44 1.31
3 -9 0 28.55 2.74
3 -9 0 24.22 2.67
3 -9 0 26.03 2.23
-3 9 0 26.74 2.03
3 -9 1 14.1 1.88
3 -9 1 16.29 1.69
-3 9 -1 13.64 1.51
3 -9 2 1.1 0.71
3 -9 2 0.7 0.53
-3 9 -2 1.1 0.38
3 -9 3 0.06 0.53
3 -9 3 -0.3 0.48
-3 9 -3 -0.14 0.47
3 -9 4 103.69 4.2
-3 9 -4 104.26 4.31
3 -9 4 117.35 4.72
3 -9 4 112.4 4.74
3 -9 5 7.57 1.31
3 -9 5 7.7 1.13
3 -9 5 6.86 1.14
-3 9 -5 7.34 1.11
3 -9 6 17.39 1.49
3 -9 6 17.43 1.72
-3 9 -6 16.95 1.63
3 -9 6 21.78 1.93
3 -9 7 2.53 0.72
3 -9 7 1.41 0.52
-3 9 -7 1 0.44
-3 9 -8 262 5.8
3 -9 8 271.5 5.2
3 -9 9 3.85 0.53
3 -9 9 4.43 0.6
-3 9 -9 4.5 0.71
3 -10 -7 9.94 1.03
-3 10 7 9.95 1.01
3 -10 -6 24.09 1.8
3 -10 -5 71.93 3.39
3 -10 -4 41.29 2.78
3 -10 -3 15.23 1.9
3 -10 -2 8.07 1.6
3 -10 -2 9.6 1.29
3 -10 -1 -0.51 0.55
3 -10 -1 -0.04 0.58
3 -10 -1 0.27 0.39
3 -10 -1 -0.72 0.47
3 -10 0 141.52 5.26
3 -10 0 137.12 4.57
3 -10 1 20.4 2
3 -10 1 22.45 1.87
3 -10 2 24.23 1.93
3 -10 2 27.45 2.22
3 -10 3 3.36 0.9
3 -10 3 2.33 0.64
3 -10 3 3.98 0.81
3 -10 4 62.12 2.92
3 -10 4 61.9 2.96
-3 10 -4 61.26 2.76
3 -10 4 68.58 3.4
3 -10 5 0.21 0.43
3 -10 5 1.27 0.55
-3 10 -5 0.47 0.32
3 -10 5 1.55 0.45
3 -10 6 5.38 0.91
3 -10 6 8.1 0.81
-3 10 -6 6.91 0.83
3 -10 6 8.34 1
3 -10 6 5.96 0.82
3 -10 7 15.21 1.17
3 -10 7 24.29 1.42
3 -11 -4 19.29 1.26
3 -11 -4 16.65 1.46
3 -11 -3 65.43 2.58
3 -11 -3 75.94 2.52
3 -11 -2 4.09 0.69
3 -11 -2 3.67 0.6
3 -11 -1 87.26 3.24
3 -11 0 202.57 5.05
3 -11 1 29.68 1.96
3 -11 1 26.99 1.71
3 -11 1 30.98 1.96
3 -11 2 62.89 2.69
3 -11 2 62.16 2.36
3 -11 2 63.89 2.78
3 -11 3 12.16 1.17
3 -11 3 14.56 1.3
3 -11 4 38.04 2.29
3 -11 4 37.38 1.8
3 -11 5 15.66 1.35
3 -11 5 20.68 1.31
-4 -9 7 4.15 0.67
-4 -9 7 4.36 0.69
-4 -9 7 4.52 0.61
-4 -9 6 20.37 1.43
-4 -9 6 16.12 1.11
-4 -9 6 20.97 1.57
-4 -9 5 94.16 3.07
-4 -9 5 90.54 3.26
-4 -9 4 97.4 3.16
-4 -9 4 93.32 3.01
-4 -9 3 3.55 0.57
-4 -9 3 4.04 0.61
-4 -9 2 18.21 1.28
-4 -9 2 16.22 1.07
-4 -9 1 23.62 1.34
-4 -8 10 31.53 1.57
-4 -8 9 15.23 1.26
-4 -8 9 13.11 1.24
-4 -8 8 29.71 2.06
-4 -8 8 31.27 1.94
-4 -8 8 32.18 2.3
-4 -8 7 0.44 0.45
-4 -8 7 0.87 0.58
-4 -8 7 -0.11 0.37
-4 -8 7 0.5 0.41
-4 -8 6 2.77 0.74
-4 -8 6 1.66 0.52
-4 -8 6 2.83 0.63
-4 -8 6 1.86 0.53
-4 -8 5 1.23 0.58
-4 -8 5 0.26 0.44
-4 -8 5 0.43 0.31
-4 -8 4 15.28 1.65
-4 -8 4 17.37 1.66
-4 -8 4 14.73 1.88
-4 -8 4 15.3 1.4
-4 -8 4 17.39 1.88
-4 -8 3 68.01 3.22
-4 -8 3 58.95 3
-4 -8 3 64.18 3.86
-4 -8 3 56.5 3.12
-4 -8 2 18.01 1.7
-4 -8 2 14.98 1.46
-4 -8 2 17.15 1.92
-4 -8 1 11.93 1.36
-4 -8 1 12.83 1.27
-4 -8 1 12.17 1.56
-4 -8 0 22.82 1.67
-4 -8 0 20.95 1.88
-4 -8 -1 56.69 2.39
-4 -8 -1 55.18 2.79
-4 -8 -2 6.9 0.72
-4 -8 -2 6.21 0.79
-4 -7 11 43.22 1.96
-4 -7 10 -0.17 0.35
-4 -7 10 0.38 0.41
-4 -7 9 12.84 1.48
-4 -7 9 15.51 1.57
-4 -7 9 12.86 1.54
-4 -7 8 73.01 3.58
-4 -7 8 77.82 3.71
-4 -7 8 80.56 4.23
-4 -7 7 0.38 0.7
-4 -7 7 0.15 0.39
-4 -7 7 1.11 0.67
-4 -7 7 0.45 0.53
-4 -7 6 10.67 1.5
-4 -7 6 12.31 1.84
-4 -7 6 12.27 1.58
-4 -7 6 13.09 2.12
-4 -7 6 11.82 1.53
-4 -7 5 3.01 0.98
-4 -7 5 3.56 0.96
-4 -7 5 2.81 0.78
-4 -7 5 2.74 0.8
-4 -7 4 1.23 0.68
-4 -7 4 0.16 0.51
-4 -7 4 2.06 0.63
-4 -7 4 0.58 0.49
-4 -7 4 0.6 0.45
-4 -7 4 0.68 0.5
-4 -7 3 3.98 1.03
-4 -7 3 4.6 0.97
-4 -7 3 4.46 0.93
-4 -7 3 5.9 1.34
-4 -7 3 4.45 1.19
-4 -7 2 1.92 0.76
-4 -7 2 1.58 0.57
-4 -7 2 2.29 0.78
-4 -7 2 0.81 0.44
-4 -7 2 0.62 0.52
-4 -7 1 56.53 3.19
-4 -7 1 60.38 3.91
-4 -7 1 65.8 3.88
-4 -7 0 53.69 3.05
-4 -7 0 55.52 2.86
-4 -7 0 63.63 3.9
-4 -7 -1 17.84 1.62
-4 -7 -1 18.75 1.87
-4 -7 -1 19.4 2
-4 -7 -1 19.29 1.91
-4 -7 -2 115.91 3.82
-4 -7 -2 106.98 4.3
-4 -7 -3 3.72 0.64
-4 -7 -3 4.87 0.9
-4 -7 -3 3.98 0.81
-4 -7 -4 11.49 1.23
-4 -7 -4 12.31 1.14
-4 -6 12 0.84 0.45
-4 -6 11 56.18 2.71
-4 -6 10 4.64 0.9
-4 -6 10 5.59 1.11
-4 -6 9 2.72 0.93
-4 -6 9 1.31 0.67
-4 -6 9 3.08 0.94
-4 -6 9 1.65 0.51
-4 -6 8 146.61 5.49
-4 -6 8 147.19 5.55
-4 -6 8 153.21 5.55
-4 -6 8 143.02 6.14
-4 -6 7 110.89 4.74
-4 -6 7 111.08 4.98
-4 -6 7 107.95 4.94
-4 -6 7 117.51 5.06
-4 -6 7 115.21 5.93
-4 -6 6 128.76 6.58
-4 -6 6 118.7 5.15
-4 -6 6 83.61 4.66
-4 -6 6 156.17 7.11
-4 -6 6 136.45 5.52
-4 -6 6 111.74 5.02
-4 -6 6 131.47 5.13
-4 -6 6 124.42 5.4
-4 -6 5 -0.52 0.88
-4 -6 5 0.04 0.42
-4 -6 5 0.29 0.34
-4 -6 5 0.46 0.43
-4 -6 5 0.42 0.48
-4 -6 5 0.74 0.7
-4 -6 5 -0.26 0.77
-4 -6 5 0.32 0.55
-4 -6 4 23.42 2.75
-4 -6 4 24.89 2.28
-4 -6 4 15.97 2.1
-4 -6 4 21.44 2.17
-4 -6 4 24.46 2.71
-4 -6 4 20.56 2.14
-4 -6 4 23.73 2.49
-4 -6 4 19.67 2.27
-4 -6 3 41.85 2.96
-4 -6 3 31.04 2.88
-4 -6 3 36.12 2.91
-4 -6 3 48.38 3.76
-4 -6 3 41.23 3.38
-4 -6 3 47.22 3.35
-4 -6 3 45.19 3.63
-4 -6 2 240.61 7
-4 -6 2 245.44 7.66
-4 -6 2 206.77 6.89
-4 -6 2 203.05 7.71
-4 -6 2 252.52 8.25
-4 -6 2 233.93 7.78
-4 -6 1 90.63 4.26
-4 -6 1 100.6 4.91
-4 -6 1 77.17 4.14
-4 -6 1 120.63 5.86
-4 -6 1 108.25 5.34
-4 -6 1 97.69 4.62
-4 -6 0 40.71 2.82
-4 -6 0 45.15 3.35
-4 -6 -1 233.14 6.5
-4 -6 -1 224.82 7.04
-4 -6 -1 236.92 7.8
-4 -6 -1 237.74 7.36
-4 -6 -2 4.19 0.87
-4 -6 -2 4.11 1.01
-4 -6 -2 4.07 1.06
-4 -6 -2 3.96 0.92
-4 -6 -3 273.8 6.27
-4 -6 -3 312.82 8.06
-4 -6 -3 331.81 8.18
-4 -6 -3 278.3 6.46
-4 -6 -4 13.57 1.19
-4 -6 -4 14.81 1.63
-4 -6 -4 17.17 1.69
-4 -6 -5 2.81 0.7
-4 -6 -5 1.83 0.54
-4 -6 -6 2.96 0.59
-4 -5 13 5.97 0.73
-4 -5 12 4.02 0.81
-4 -5 12 5.18 0.83
-4 -5 11 9.21 1.43
-4 -5 11 10.06 1.29
-4 -5 11 10.26 1.39
-4 -5 10 35.48 3.07
-4 -5 10 42 2.87
-4 -5 10 35.7 2.4
-4 -5 10 38.96 2.81
-4 -5 9 5.86 1.21
-4 -5 9 7.79 1.61
-4 -5 9 4.78 1.1
-4 -5 9 5.69 1.09
-4 -5 9 6.74 1.12
-4 -5 8 9.8 1.84
-4 -5 8 7.34 1.36
-4 -5 8 7.25 1.64
-4 -5 8 10.02 1.57
-4 -5 8 11.68 1.82
-4 -5 8 11.59 1.65
-4 -5 7 68.01 3.83
-4 -5 7 51.47 4.03
-4 -5 7 61.13 3.79
-4 -5 7 50.73 3.45
-4 -5 7 54.19 3.53
-4 -5 7 65.89 4.65
-4 -5 7 56.39 4.36
-4 -5 6 51.28 4.45
-4 -5 6 51.68 3.35
-4 -5 6 40.94 3.69
-4 -5 6 58.58 3.73
-4 -5 6 48.35 3.93
-4 -5 6 50.12 3.52
-4 -5 6 55.31 3.32
-4 -5 6 61.38 3.83
-4 -5 5 47.32 4.49
-4 -5 5 42.77 3.01
-4 -5 5 38.36 3.41
-4 -5 5 45.77 3.25
-4 -5 5 47.27 3.82
-4 -5 5 41.35 3.18
-4 -5 5 46.52 3.35
-4 -5 5 46.69 3.35
-4 -5 4 1.19 0.98
-4 -5 4 0.53 0.33
-4 -5 4 0.51 0.29
-4 -5 4 0.08 0.43
-4 -5 4 0.32 0.36
-4 -5 4 -1.74 1.82
-4 -5 4 0.61 0.63
-4 -5 4 1.1 0.85
-4 -5 4 0.54 0.55
-4 -5 3 13.75 1.7
-4 -5 3 12.35 2.03
-4 -5 3 12.24 1.96
-4 -5 3 13.31 1.81
-4 -5 3 17.77 2.36
-4 -5 3 15.61 3.75
-4 -5 3 14.55 2.06
-4 -5 3 12.65 1.76
-4 -5 2 35.73 2.67
-4 -5 2 41.87 3.43
-4 -5 2 34.92 2.83
-4 -5 2 35.91 3.28
-4 -5 2 35.05 3.24
-4 -5 2 43.54 3.18
-4 -5 2 39.13 3.33
-4 -5 1 37.71 2.72
-4 -5 1 41.37 3.54
-4 -5 1 38.26 3.04
-4 -5 1 32.68 3.1
-4 -5 1 48.61 3.61
-4 -5 1 42.91 3.25
-4 -5 0 187.33 6.14
-4 -5 0 255.68 8.08
-4 -5 0 208.29 6.89
-4 -5 0 231.26 7.92
-4 -5 0 212.49 7.29
-4 -5 -1 4.57 0.95
-4 -5 -1 5.07 1.21
-4 -5 -1 6.18 1.41
-4 -5 -1 5.69 1.3
-4 -5 -1 5.97 1.24
-4 -5 -2 1.37 0.57
-4 -5 -2 1.69 0.63
-4 -5 -2 1.66 0.77
-4 -5 -2 1.36 0.56
-4 -5 -3 10.8 1.33
-4 -5 -3 12.63 1.8
-4 -5 -3 12.59 1.78
-4 -5 -3 11.47 1.44
-4 -5 -4 34.79 2.25
-4 -5 -4 42.21 3.07
-4 -5 -4 45 3.15
-4 -5 -5 6.85 1.16
-4 -5 -5 6.58 1.11
-4 -5 -6 12.72 1.44
-4 -5 -6 13.25 1.33
-4 -5 -7 3.73 0.62
-4 -5 -7 4.21 0.57
-4 -4 13 3.17 0.75
-4 -4 13 3.97 0.87
-4 -4 13 4.38 0.71
-4 -4 12 2.21 0.93
-4 -4 12 1.57 0.54
-4 -4 12 1.34 0.7
-4 -4 11 3.55 0.9
-4 -4 11 5.54 1.23
-4 -4 10 134.2 4.93
-4 -4 10 135.74 5.42
-4 -4 10 137.84 5.1
-4 -4 9 39.38 3.93
-4 -4 9 43.71 3.11
-4 -4 9 48.19 3.32
-4 -4 9 43.78 3.14
-4 -4 9 43.93 3.38
-4 -4 8 232.03 9.24
-4 -4 8 249.83 7.42
-4 -4 8 248.3 7.56
-4 -4 8 225.9 7.07
-4 -4 8 257.44 7.5
-4 -4 8 249.27 8.38
-4 -4 7 66.72 3.72
-4 -4 7 65.14 4.81
-4 -4 7 72.26 3.99
-4 -4 7 66.27 4.55
-4 -4 7 87.17 10.38
4 4 -7 63.18 8.88
4 4 -7 68.35 8.14
-4 -4 7 63.03 3.83
-4 -4 7 73.04 4.05
-4 -4 7 70.9 4.71
-4 -4 6 4.08 1.47
-4 -4 6 2.52 0.78
-4 -4 6 1.63 0.91
-4 -4 6 2 0.96
-4 -4 6 4.27 1.06
-4 -4 6 2.66 0.93
4 4 -6 3.73 1.49
-4 -4 6 1.89 0.81
-4 -4 6 3.64 0.95
-4 -4 6 4.07 0.98
-4 -4 5 139.53 7.48
-4 -4 5 136.39 5.11
-4 -4 5 146.36 6.79
-4 -4 5 130.51 5.58
-4 -4 5 143.6 5.84
-4 -4 5 145.22 11.83
4 4 -5 145.18 10.97
-4 -4 5 132.88 5.49
-4 -4 5 154.38 6.57
-4 -4 5 157.67 5.66
-4 -4 5 145.03 5.79
-4 -4 4 168.66 7.66
-4 -4 4 149.4 5.37
-4 -4 4 181.61 7.39
-4 -4 4 175.41 6.07
-4 -4 4 172.46 12.12
-4 -4 4 188.64 7.02
-4 -4 4 188.05 12.86
-4 -4 4 161.54 6.44
4 4 -4 180.11 11.55
-4 -4 4 155.57 5.86
-4 -4 4 182.19 6.29
-4 -4 4 172.07 5.98
-4 -4 3 11.68 1.53
-4 -4 3 13.19 1.97
-4 -4 3 12.72 1.62
-4 -4 3 12.39 1.94
-4 -4 3 11.27 3.33
-4 -4 3 16.25 3.83
-4 -4 3 16.42 1.9
-4 -4 3 13.14 1.69
-4 -4 3 10.63 1.64
-4 -4 3 12.27 1.99
-4 -4 2 231.13 6.46
-4 -4 2 241.46 16.77
-4 -4 2 292.28 8.98
-4 -4 2 224.59 6.96
-4 -4 2 268.6 8.22
-4 -4 2 257.58 7.62
-4 -4 2 230.4 6.77
-4 -4 2 213.55 7.52
-4 -4 1 7.23 1.35
-4 -4 1 5.15 0.98
-4 -4 1 4.64 1.24
-4 -4 1 4 0.99
-4 -4 1 6.2 1.18
-4 -4 1 5.41 1.19
-4 -4 0 8 1.21
-4 -4 0 8.92 1.73
-4 -4 0 8.79 1.39
-4 -4 0 7.14 1.42
-4 -4 0 8.31 1.46
-4 -4 0 6.75 1.25
-4 -4 -1 5.79 1.06
-4 -4 -1 4.53 1.05
-4 -4 -1 6.75 1.36
-4 -4 -1 5.86 1.26
-4 -4 -1 6.71 1.29
-4 -4 -2 65.4 3.53
-4 -4 -2 73.11 4.26
-4 -4 -2 70.28 4.03
-4 -4 -3 165.61 6.43
-4 -4 -3 153.56 5.69
-4 -4 -4 54.5 3.66
-4 -4 -4 51.44 3.64
-4 -4 -4 54.08 3.07
-4 -4 -5 1.21 0.74
-4 -4 -5 0.96 0.5
-4 -4 -6 18.94 1.87
-4 -4 -6 16.28 1.76
-4 -4 -7 87.27 3.52
-4 -4 -7 81.69 3.3
-4 -4 -8 15.98 1.24
-4 -4 -8 16.64 1.13
-4 -3 14 0.47 0.21
-4 -3 14 0.53 0.3
-4 -3 13 3.12 0.94
-4 -3 13 2.95 0.83
-4 -3 13 2.91 0.63
-4 -3 12 98.64 5.47
-4 -3 12 104.55 4.14
-4 -3 12 108.03 4.12
-4 -3 11 5.79 1.57
-4 -3 11 4.78 1.07
-4 -3 11 3.86 0.79
-4 -3 11 3.6 0.76
-4 -3 10 18.32 2.71
-4 -3 10 18.42 2.01
-4 -3 10 14.84 2.03
-4 -3 10 14.2 1.73
-4 -3 9 3.24 0.99
-4 -3 9 2.03 1.01
-4 -3 9 2.23 0.85
-4 -3 9 2.72 0.95
-4 -3 9 2.52 0.71
-4 -3 8 203.85 8.88
-4 -3 8 214.61 6.74
-4 -3 8 189.29 6.8
-4 -3 8 190.53 17.4
4 3 -8 227.46 16.3
4 3 -8 214.4 14.15
-4 -3 8 219.06 6.96
-4 -3 8 225.38 7.07
-4 -3 8 225.52 7.68
-4 -3 7 7.02 1.52
-4 -3 7 3.87 0.87
-4 -3 7 6.49 1.58
-4 -3 7 5.59 1.14
-4 -3 7 5.98 1.25
-4 -3 7 8.18 1.63
4 3 -7 7.2 2.97
-4 -3 7 3.47 2.48
4 3 -7 8.19 2.9
-4 -3 7 6.8 1.25
-4 -3 7 7.07 1.36
-4 -3 6 4.66 1.3
-4 -3 6 5.12 1.05
-4 -3 6 4.59 1.24
-4 -3 6 4.22 1.04
-4 -3 6 3.91 1.05
4 3 -6 1.5 1.08
-4 -3 6 5.57 1.16
-4 -3 6 7.85 3.16
-4 -3 6 3.3 0.77
-4 -3 6 2.37 1.5
-4 -3 6 2.86 0.89
-4 -3 5 28.39 2.25
-4 -3 5 33.76 3.28
-4 -3 5 30.21 2.5
-4 -3 5 28.72 2.62
-4 -3 5 28.47 4.47
-4 -3 5 30.2 2.67
-4 -3 5 34.52 5.62
4 3 -5 25.13 5.24
-4 -3 5 29.21 2.5
-4 -3 5 32.84 3.22
-4 -3 4 73.84 7.3
-4 -3 4 75.53 7.9
4 3 -4 56.06 7.42
-4 -3 3 53.13 6.41
-4 -3 3 54.26 6.15
4 3 -3 43.26 5.76
-4 -3 2 0.13 0.7
4 3 -2 0 0.78
-4 -3 2 0.3 1.21
-4 -3 1 104.67 5.18
4 3 -1 85.04 7.11
-4 -3 1 92.82 4.52
-4 -3 1 89.88 4.28
-4 -3 1 90.2 8.48
-4 -3 0 71.26 7.2
-4 -3 0 93.7 4.81
4 3 0 73.33 6.7
-4 -3 0 75.26 4.21
-4 -3 0 76.32 4.04
-4 -3 -1 141.46 10.98
-4 -3 -1 142.31 5.67
4 3 1 145.87 9.83
4 3 1 124.06 10.34
-4 -3 -1 142.97 5.99
-4 -3 -1 144.86 5.61
-4 -3 -2 77.14 8.77
-4 -3 -2 92.34 4.95
-4 -3 -2 79.8 4.43
4 3 2 64.95 7.69
-4 -3 -2 86.27 4.81
-4 -3 -2 72.77 4
-4 -3 -3 132.67 5.79
4 3 3 123.83 10.8
-4 -3 -3 146.95 6.39
-4 -3 -3 132.37 5.21
-4 -3 -4 30.62 2.76
-4 -3 -4 32.87 3.05
-4 -3 -4 27.59 2.3
-4 -3 -5 7.29 1.16
-4 -3 -5 9.17 1.48
-4 -3 -5 9.22 1.54
-4 -3 -6 138.54 5.42
-4 -3 -6 145.19 5.86
-4 -3 -7 7.83 1
-4 -3 -7 8.74 1.28
-4 -3 -7 11.76 1.49
-4 -3 -8 1.69 0.41
-4 -3 -8 1.58 0.45
-4 -3 -8 1.07 0.38
-4 -2 14 0.44 0.33
-4 -2 14 -0.16 0.22
-4 -2 13 2.71 0.92
-4 -2 13 3.93 0.9
-4 -2 13 3.12 0.61
-4 -2 12 60.23 4.61
-4 -2 12 64.93 3.37
-4 -2 12 70.15 3.36
-4 -2 11 30.77 3.5
-4 -2 11 33.27 2.59
-4 -2 11 29.29 2.4
-4 -2 11 27.26 2.21
-4 -2 10 10.95 2.27
-4 -2 10 11.16 1.67
-4 -2 10 11.93 1.67
-4 -2 10 9.89 1.55
-4 -2 9 0.12 0.69
-4 -2 9 0.49 0.54
4 2 -9 0.06 1.48
-4 -2 9 0.01 0.38
-4 -2 9 -0.26 1.35
4 2 -9 0.5 0.89
-4 -2 9 0.83 0.65
-4 -2 9 0.19 0.53
-4 -2 8 36 3.01
-4 -2 8 43.02 4.09
-4 -2 8 46.84 3.48
4 2 -8 31.13 5.8
-4 -2 8 38.37 7.3
4 2 -8 36.02 6.05
-4 -2 8 34.1 2.81
-4 -2 8 38.16 2.86
-4 -2 8 37.81 2.99
-4 -2 7 37.56 3.68
-4 -2 7 35.47 2.7
-4 -2 7 41.48 5.46
4 2 -7 35.7 6.32
-4 -2 7 33.26 6.18
4 2 -7 36.96 5.75
-4 -2 7 37.8 2.83
-4 -2 7 39.8 3.06
-4 -2 7 39.56 2.96
-4 -2 7 37.46 3.08
-4 -2 6 0.55 0.61
4 2 -6 1.25 1.09
-4 -2 6 2.82 1.9
4 2 -6 1.6 1.11
-4 -2 5 56.37 6.88
4 2 -5 46.47 6.46
4 2 -5 58.78 5.9
-4 -2 5 56.79 6.37
4 2 -4 122.83 9.82
-4 -2 4 151.01 10.14
4 2 -4 145.29 8.69
4 2 -3 21.14 3.19
-4 -2 3 22.11 3.92
-4 -2 3 24.19 4.22
4 2 -3 20.09 3.72
-4 -2 2 10.47 2.58
-4 -2 2 11.72 2.83
4 2 -2 9.21 1.96
-4 -2 2 12.84 3.11
4 2 -2 10.3 2.58
-4 -2 1 0.12 0.54
-4 -2 1 0.09 0.81
4 2 -1 -0.15 0.51
-4 -2 0 34.67 4.96
4 2 0 35.9 4.94
4 2 0 35.83 4.66
-4 -2 0 43.51 5.49
-4 -2 -1 18.84 3.86
-4 -2 -1 20.04 2.17
4 2 1 21.23 3.71
-4 -2 -1 19.77 3.81
4 2 1 13.2 3.01
-4 -2 -2 43.71 6.67
-4 -2 -2 52.2 3.54
-4 -2 -2 49.49 3.38
4 2 2 47.99 5.86
4 2 2 46.73 6.12
-4 -2 -2 46.35 3.43
-4 -2 -2 44.3 2.96
-4 -2 -3 518.21 25.96
-4 -2 -3 588.53 12.04
4 2 3 539.18 20.97
4 2 3 490.65 20.67
-4 -2 -3 557.01 12.42
-4 -2 -3 534.13 10.26
-4 -2 -4 13.18 1.77
-4 -2 -4 11.66 4.38
4 2 4 10.6 3.1
-4 -2 -4 13.32 1.95
-4 -2 -4 11.36 1.42
-4 -2 -5 0.19 0.4
-4 -2 -5 0.55 0.54
-4 -2 -5 0.61 0.42
-4 -2 -6 48.91 3.03
-4 -2 -6 51.7 3.47
-4 -2 -6 49.81 2.8
-4 -2 -7 47.75 2.84
-4 -2 -7 53.36 3.24
-4 -2 -7 46.37 2.48
-4 -2 -8 14.64 1.38
-4 -2 -8 16.64 1.63
-4 -2 -8 17.72 1.79
-4 -2 -9 80.43 2.55
-4 -2 -9 88.37 3.1
-4 -1 14 5.96 1.11
-4 -1 13 31.46 3.08
-4 -1 13 31.4 2.26
-4 -1 13 23.62 1.61
-4 -1 13 28.76 1.9
-4 -1 12 4.15 1.12
-4 -1 12 1.98 0.75
-4 -1 11 5.95 1.76
-4 -1 11 6.93 1.23
-4 -1 11 4.35 1.19
-4 -1 11 7.42 1.29
-4 -1 11 6.78 1.4
-4 -1 10 11.19 1.56
-4 -1 10 12.29 1.64
-4 -1 10 9.32 1.51
-4 -1 10 7.06 1.63
-4 -1 9 4.09 1.41
-4 -1 9 2.13 0.85
-4 -1 9 1.32 0.79
4 1 -9 -0.1 1.16
-4 -1 9 3.2 2.1
4 1 -9 1.89 1.71
-4 -1 9 0.98 0.55
-4 -1 9 0.77 0.39
-4 -1 8 75.57 5.41
-4 -1 8 67.95 4.39
4 1 -8 62.88 8.04
-4 -1 8 64.73 8.36
4 1 -8 65.03 7.79
-4 -1 8 61.49 3.53
-4 -1 8 51.22 3.46
-4 -1 7 158.09 7.44
-4 -1 7 157.68 5.58
-4 -1 7 142.81 10.39
-4 -1 7 147.35 11.72
4 1 -7 159.11 12.31
4 1 -7 162.78 11.16
-4 -1 7 162.7 5.6
-4 -1 7 151.41 5.76
-4 -1 6 184.61 11.87
-4 -1 6 201.55 12.81
4 1 -6 187 12.79
4 1 -6 203.32 11.44
4 1 -5 227.88 10.69
-4 -1 5 207.67 11.88
-4 -1 5 241.81 13.35
4 1 -5 200.41 12.53
4 1 -5 227.85 11.28
-4 -1 4 124.76 9.13
4 1 -4 121.08 7.67
-4 -1 4 138.91 9.67
4 1 -4 105.16 8.6
4 1 -3 13.66 2.7
-4 -1 3 15.47 3.12
4 1 -3 12.56 2.8
-4 -1 3 15.85 3.25
4 1 -2 134.55 8.25
-4 -1 2 145.59 8.88
-4 -1 2 158.95 9.88
-4 -1 2 147.97 9.72
4 1 -2 138.64 8.77
-4 -1 1 216.17 11.21
4 1 -1 222.04 11.32
-4 -1 0 214.91 11.84
-4 -1 0 240.12 12.17
4 1 0 208.61 10.59
-4 -1 -1 71.05 7.33
4 1 1 63.52 6.24
-4 -1 -1 71.79 6.73
4 1 1 61.9 6.18
-4 -1 -2 19.14 4.15
4 1 2 16.52 3.36
4 1 2 19.14 3.71
-4 -1 -3 4.73 1.24
-4 -1 -3 4.25 2.24
-4 -1 -3 4.39 1.04
-4 -1 -3 4.35 0.89
4 1 3 4.48 1.66
4 1 3 2.4 1.55
-4 -1 -3 3.46 0.88
-4 -1 -4 1.07 0.53
-4 -1 -4 2.61 1.47
4 1 4 1.31 0.94
-4 -1 -4 1.77 0.66
4 1 4 1.04 1.06
-4 -1 -4 1.96 0.75
-4 -1 -4 1.92 0.65
-4 -1 -5 74.83 4.41
-4 -1 -5 62.16 3.44
-4 -1 -5 74.29 4.67
-4 -1 -6 127.64 5.57
-4 -1 -6 119.09 4.63
-4 -1 -7 3.82 0.89
-4 -1 -7 3.54 0.91
-4 -1 -7 4.01 0.86
-4 -1 -7 4.22 1.11
-4 -1 -8 0.49 0.42
-4 -1 -8 0.43 0.36
-4 -1 -8 0.22 0.24
-4 -1 -8 0.57 0.46
-4 -1 -9 0.55 0.32
-4 -1 -9 0.6 0.33
-4 -1 -9 0.49 0.36
-4 -1 -10 13.97 1.03
-4 0 14 1.69 0.69
-4 0 14 1.17 0.29
-4 0 13 6.73 1.45
-4 0 13 4.68 0.85
-4 0 12 59.44 3.42
-4 0 12 44.12 3.04
-4 0 12 58.21 3.11
-4 0 12 63.71 3.21
-4 0 12 48.45 2.73
-4 0 11 2.54 1.02
-4 0 11 0.95 0.78
-4 0 11 1.66 0.69
-4 0 11 1.77 0.71
-4 0 10 5 1.17
-4 0 10 3.9 1.28
-4 0 10 6.68 1.29
-4 0 10 5.64 1.24
-4 0 9 103.95 4.65
-4 0 9 113.16 5.86
4 0 -9 110.65 10.48
4 0 -9 118.34 11.48
-4 0 9 116.41 4.97
-4 0 9 111.71 5.08
-4 0 8 2.5 0.95
-4 0 8 0.73 0.68
-4 0 8 1.96 1.58
4 0 -8 2.7 2.15
-4 0 8 1.81 1.74
4 0 -8 1.76 1.41
-4 0 8 3.95 1.11
-4 0 8 1.32 0.63
-4 0 7 14.48 3.66
-4 0 7 16.87 3.76
4 0 -7 19.25 4.04
4 0 -7 15.43 3.22
4 0 -7 20.71 4.05
-4 0 6 23 4.56
-4 0 6 26.44 4.35
4 0 -6 28.43 5.03
4 0 -6 30.18 4.28
4 0 -6 26.62 4.16
-4 0 5 419 16.55
4 0 -5 402.83 17.11
4 0 -5 409.19 15.05
-4 0 5 444.21 17.43
4 0 -4 0.37 0.55
-4 0 4 0.31 0.77
4 0 -4 1.21 1.03
-4 0 4 2.09 1.43
4 0 -3 1.01 0.76
-4 0 3 2.03 1.29
4 0 -3 2.21 1.25
-4 0 3 1.62 1.23
-4 0 2 19.67 3.38
4 0 -2 11.01 2.53
4 0 -2 15.11 2.66
-4 0 1 1114.79 25.46
-4 0 1 1091.88 24.99
4 0 -1 1119.58 24.99
4 0 -1 1034.54 20.77
4 0 -1 1109.02 25.18
-4 0 0 1554.69 31.18
4 0 0 1566.88 29.47
-4 0 0 1533.66 29.52
-4 0 -1 5.71 1.95
4 0 1 5.17 1.63
-4 0 -1 3.44 1.26
4 0 1 4.5 1.61
-4 0 -2 54.31 6.8
4 0 2 59.13 6.11
-4 0 -2 51.36 5.52
4 0 2 51.13 5.85
-4 0 -3 94.13 9.72
4 0 3 96.1 8.57
-4 0 -3 93.06 4.06
4 0 3 84.3 7.99
-4 0 -4 137.76 12.76
4 0 4 131.59 10.83
-4 0 -4 122.33 5.03
4 0 4 115.35 9.95
-4 0 -4 129.96 4.98
-4 0 -5 172.45 14.44
4 0 5 172.39 13.47
-4 0 -5 161.09 5.74
4 0 5 152.58 11.95
-4 0 -6 92.51 4.77
-4 0 -6 86.58 4.13
4 0 6 79.55 3.72
-4 0 -7 147.38 5.79
-4 0 -7 149.07 5.2
4 0 7 141.46 4.81
-4 0 -8 0.99 0.62
-4 0 -8 1.26 0.56
4 0 8 0.36 0.34
-4 0 -8 0.3 0.4
-4 0 -8 1.71 0.61
-4 0 -9 74.58 3.21
-4 0 -9 71.16 3.01
-4 0 -9 72.75 3.02
4 0 9 69.86 2.58
-4 0 -9 67.65 3.45
-4 0 -10 8.89 0.88
-4 0 -10 6.56 0.85
-4 1 14 0.96 0.45
-4 1 14 0.38 0.32
4 -1 -13 114.63 3.71
-4 1 13 120.44 3.93
-4 1 12 0.58 0.4
4 -1 -12 1.33 0.55
-4 1 12 0.76 0.53
-4 1 12 0.97 0.44
-4 1 12 0.76 0.52
-4 1 11 26.07 2.37
-4 1 11 20.59 2.61
4 -1 -11 23.31 2.23
-4 1 11 25.11 2.37
-4 1 11 25.85 2.21
-4 1 11 23.1 2.27
-4 1 10 35.71 2.81
-4 1 10 36.23 3.51
-4 1 10 38.89 2.79
-4 1 10 38.52 3.07
-4 1 9 50.34 3.35
-4 1 9 55.73 4.35
-4 1 9 46.21 6.8
4 -1 -9 61.14 8.15
-4 1 9 59.14 3.51
4 -1 -9 42.7 6.92
-4 1 9 64.15 3.9
-4 1 8 65.76 3.61
-4 1 8 83.64 5.36
4 -1 -8 91.02 8.87
4 -1 -8 69.77 8.25
-4 1 8 80.21 4
-4 1 8 69.76 8.38
-4 1 8 64.49 4.01
4 -1 -8 80.12 8.69
4 -1 -7 3.08 1.49
4 -1 -7 2.72 1.52
-4 1 7 1.83 1.84
-4 1 7 4.83 2.12
4 -1 -7 3.3 1.44
-4 1 6 35.28 5.59
-4 1 6 28.26 4.52
4 -1 -6 39.06 6
4 -1 -6 26.05 4.14
4 -1 -6 33.85 4.67
-4 1 5 45.48 5.33
4 -1 -5 30.54 4.51
4 -1 -5 40.97 4.94
4 -1 -5 35.03 4.41
-4 1 5 33.62 4.97
-4 1 4 20.31 3.54
-4 1 4 19.9 3.85
4 -1 -4 22.66 3.61
4 -1 -4 20.46 3.49
4 -1 -3 6.46 1.97
-4 1 3 5.91 2.11
4 -1 -3 3.87 1.68
-4 1 2 149.28 9.21
4 -1 -2 151.97 8.98
-4 1 1 1761.01 32.07
-4 1 1 1807.56 31.48
4 -1 -1 1753.64 28.44
4 -1 -1 2032.5 26.08
4 -1 -1 1981.12 32.78
4 -1 -1 1881 32.84
-4 1 0 1.03 0.86
-4 1 0 2.46 1.2
4 -1 0 2.78 1.29
4 -1 0 2.23 1.02
4 -1 0 2.21 1.02
-4 1 -1 60.17 6.49
4 -1 1 56.03 5.74
-4 1 -1 55.47 5.38
4 -1 1 54.25 5.43
-4 1 -2 0.3 1.13
-4 1 -2 -0.45 0.48
4 -1 2 0.9 0.92
4 -1 2 0.47 0.54
-4 1 -3 144.32 11.38
4 -1 3 142.33 10.28
4 -1 3 134.48 9.9
-4 1 -4 10.65 3.41
-4 1 -4 7.39 1.18
4 -1 4 7.66 2.88
4 -1 4 4.62 1.94
-4 1 -4 6.67 1.13
-4 1 -5 2.16 1.86
4 -1 5 3.26 1.79
-4 1 -5 1.45 0.59
4 -1 5 1.71 1.03
-4 1 -6 203.78 6.55
4 -1 6 196.78 6.18
-4 1 -7 35.99 2.96
-4 1 -7 41.06 2.82
4 -1 7 40.26 2.71
-4 1 -8 15.24 1.8
-4 1 -8 18.37 1.8
4 -1 8 13.91 1.48
-4 1 -9 4.78 0.81
-4 1 -9 3.93 0.79
-4 1 -9 3.11 0.65
4 -1 9 3.76 0.66
-4 1 -9 2.48 0.86
-4 1 -10 36.06 1.91
4 -1 10 32.99 1.57
-4 2 14 10.28 1.31
-4 2 14 10.93 0.92
4 -2 -13 33.49 2
-4 2 13 26.66 2.65
-4 2 13 19.17 1.82
-4 2 13 24.93 1.74
-4 2 13 28.85 1.86
-4 2 12 7.5 1.63
4 -2 -12 12.04 1.41
-4 2 12 9.9 1.41
-4 2 12 13.17 1.49
-4 2 12 9.02 1.25
-4 2 11 12.14 2.06
4 -2 -11 12.12 1.65
-4 2 11 9.81 1.63
-4 2 11 12.5 1.54
-4 2 11 13.98 1.67
-4 2 11 11.96 1.58
-4 2 10 117.07 6.53
4 -2 -10 117.81 5.1
-4 2 10 121.53 5.13
-4 2 10 135.2 5.19
-4 2 10 127.05 5.49
4 -2 -9 1.97 1.05
4 -2 -9 5.17 1.19
-4 2 9 4.24 1.35
-4 2 9 3.42 1.76
4 -2 -9 7.21 2.59
-4 2 9 3.21 1.12
4 -2 -9 5.48 2.82
-4 2 9 3.49 1.01
-4 2 9 5.22 1.09
-4 2 9 5.08 1.31
4 -2 -8 17.47 4.35
-4 2 8 18.12 2.71
-4 2 8 15.59 1.97
-4 2 8 18.72 4.61
4 -2 -8 22.51 4.76
4 -2 -8 23.55 4.53
-4 2 8 16.29 1.78
-4 2 8 24.29 2.21
-4 2 8 19.67 2.3
-4 2 7 55.15 4.51
-4 2 7 47.99 7.01
4 -2 -7 54.95 7.04
4 -2 -7 53.99 6.3
4 -2 -7 42.36 6.03
-4 2 7 50.92 3.05
-4 2 7 49.36 3.49
4 -2 -6 21.54 4.33
-4 2 6 23.15 4.34
4 -2 -6 23.74 4.01
4 -2 -6 24.53 3.87
4 -2 -5 158.01 11.44
-4 2 5 153.56 11.18
4 -2 -5 148.5 9.65
-4 2 4 525.7 19.32
4 -2 -4 517.59 18.63
4 -2 -4 476.93 17
-4 2 3 78.93 7.17
4 -2 -3 88.63 7.04
4 -2 -3 74.72 6.85
-4 2 2 131.31 8.71
4 -2 -2 139.36 8.79
4 -2 -2 158.03 9.42
4 -2 -1 204.29 10.67
4 -2 -1 219.32 11.29
-4 2 1 165.27 9.39
4 -2 -1 185.05 9.59
4 -2 -1 195.37 8.39
4 -2 0 122.57 8.01
-4 2 0 121.66 8.84
4 -2 0 129.1 9
-4 2 0 132.72 8.18
4 -2 0 127 7.34
4 -2 0 135.06 7.8
-4 2 -1 92.98 6.72
-4 2 -1 88.21 7.79
4 -2 1 96.43 7.37
4 -2 1 94.65 7.13
-4 2 -2 190.68 12.02
4 -2 2 187.81 10.99
-4 2 -2 169.05 8.97
4 -2 2 172.72 10.43
-4 2 -3 54.94 6.93
4 -2 3 58.06 6.56
4 -2 3 49.17 5.99
-4 2 -4 105.38 10.06
4 -2 4 111.85 9.77
-4 2 -4 116.17 4.78
4 -2 4 109.69 9.48
-4 2 -5 4.9 2.65
4 -2 5 6.32 2.76
-4 2 -5 6.41 1.24
4 -2 5 4 2.02
-4 2 -6 36.95 2.83
-4 2 -6 30.33 2.29
-4 2 -7 4.84 1.07
4 -2 7 4.5 0.99
-4 2 -8 0.05 0.27
-4 2 -8 0.15 0.46
4 -2 8 -0.02 0.29
-4 2 -9 57.31 2.93
4 -2 9 54.59 2.73
-4 2 -10 1.71 0.52
4 -2 10 1.76 0.44
-4 2 -10 0.95 0.4
-4 3 14 8 0.67
-4 3 13 41.99 2.96
4 -3 -13 38.21 2.01
-4 3 13 39.02 2.23
-4 3 13 48.36 2.26
-4 3 13 31.98 2.24
4 -3 -12 3.73 0.71
-4 3 12 2.31 0.99
-4 3 12 3.76 0.88
-4 3 12 4.57 0.9
-4 3 12 2.71 0.71
4 -3 -11 2.27 0.78
-4 3 11 1.36 0.94
-4 3 11 1.67 0.63
-4 3 11 1.65 0.57
-4 3 11 2.74 0.85
4 -3 -10 39.85 2.96
-4 3 10 57.02 4.56
-4 3 10 48.85 3.64
-4 3 10 56.96 3.46
-4 3 10 44.2 2.96
-4 3 10 43.83 3.2
4 -3 -9 79.81 4.27
-4 3 9 81.57 4.86
-4 3 9 100.35 4.57
-4 3 9 101.55 4.51
-4 3 9 102.64 5.21
4 -3 -8 14.7 4.16
4 -3 -8 10.55 1.49
-4 3 8 16.09 2.65
-4 3 8 12.05 1.76
-4 3 8 11.57 4.14
4 -3 -8 16.14 4.07
-4 3 8 12.27 1.64
4 -3 -8 15.07 3.59
-4 3 8 12.66 1.66
-4 3 8 15.4 1.99
4 -3 -7 1.43 1.5
4 -3 -7 0.26 0.34
-4 3 7 0.46 0.47
-4 3 7 -0.77 1.44
4 -3 -7 0.25 1.33
-4 3 7 0.22 0.28
4 -3 -7 1 1.15
-4 3 7 -0.09 0.33
-4 3 7 0.89 0.75
-4 3 7 0.49 0.64
-4 3 6 215.57 14.8
4 -3 -6 209.28 13.49
4 -3 -6 180.48 12.07
4 -3 -6 203.65 11.42
-4 3 5 101.36 9.58
4 -3 -5 113.3 9.52
4 -3 -5 101.11 8.48
4 -3 -5 107.32 7.74
-4 3 4 259.71 14.61
4 -3 -4 293.92 14.65
4 -3 -4 278.25 13.4
4 -3 -3 8.35 2.29
-4 3 3 8.45 2.75
4 -3 -3 6.98 2.39
4 -3 -2 735.22 20.8
4 -3 -2 703.52 20.58
4 -3 -1 1.14 0.77
4 -3 -1 -0.24 0.52
-4 3 1 0.42 0.54
4 -3 -1 0.46 1.07
4 -3 -1 0.31 0.58
4 -3 0 2.77 1.43
4 -3 0 1.28 0.92
-4 3 0 4.14 1.61
4 -3 0 0.97 0.55
4 -3 0 3.47 1.48
4 -3 1 19.08 3.72
-4 3 -1 21.27 4.08
4 -3 1 23.76 3.74
-4 3 -1 25.87 3.46
4 -3 1 22.75 3.23
4 -3 1 22.22 3.6
-4 3 -2 65.99 7.15
4 -3 2 72.9 7.01
4 -3 2 67.43 7.14
4 -3 2 61.08 6.31
-4 3 -3 53.22 6.71
4 -3 3 55.87 6.66
-4 3 -3 57.77 3.26
4 -3 3 52.78 6.28
-4 3 -4 7.49 2.81
-4 3 -4 7.48 1.27
4 -3 4 8.15 2.88
4 -3 4 4.58 2
-4 3 -4 5.56 0.99
4 -3 4 5.81 1.04
-4 3 -5 10.17 1.37
-4 3 -5 10.7 1.52
-4 3 -5 8.74 3.35
4 -3 5 11.09 3.71
4 -3 5 9.89 3.13
4 -3 5 10.54 1.44
-4 3 -6 131.19 5.43
4 -3 6 125.49 4.73
-4 3 -6 114.53 4.77
-4 3 -7 28.86 2.44
4 -3 7 25.8 2.1
4 -3 7 25.62 2.37
-4 3 -7 24.28 2.14
4 -3 8 23.92 1.87
4 -3 8 25.64 2.27
-4 3 -9 26.71 2.02
4 -3 9 27.4 1.97
-4 3 -10 61.01 2.56
4 -3 10 68.87 2.58
4 -4 -13 1.05 0.39
-4 4 13 0.42 0.23
-4 4 13 0.75 0.29
-4 4 13 0.1 0.31
4 -4 -12 4.23 0.75
-4 4 12 2.94 0.98
-4 4 12 4.49 0.82
-4 4 12 5.19 0.89
-4 4 12 3.62 0.72
4 -4 -11 0.72 0.57
-4 4 11 0.71 0.71
-4 4 11 0.28 0.37
-4 4 11 0.23 0.53
-4 4 11 0.49 0.47
4 -4 -10 219.9 6.86
-4 4 10 253.6 9.5
-4 4 10 224.35 7.57
-4 4 10 245.33 6.93
-4 4 10 235.58 7.34
4 -4 -9 11.67 1.72
-4 4 9 15.56 2.53
-4 4 9 10.77 1.8
-4 4 9 12.75 1.66
-4 4 9 13.89 1.93
4 -4 -8 0.55 1.37
4 -4 -8 -0.12 0.4
-4 4 8 0.48 0.96
4 -4 -8 -0.51 1.59
-4 4 8 0.25 0.59
-4 4 8 0.36 0.53
-4 4 8 0.48 0.68
4 -4 -7 28.84 2.48
-4 4 7 39.45 4.23
-4 4 7 29.5 2.78
-4 4 7 34.02 6.74
4 -4 -7 43.98 6.54
-4 4 7 33.23 2.58
4 -4 -7 44.05 5.64
4 -4 -7 39.22 6.68
4 -4 -6 100.33 4.41
-4 4 6 146.28 7.4
-4 4 6 106.47 4.92
-4 4 6 129.33 12.83
4 -4 -6 139.41 11.22
4 -4 -6 124.34 9.08
-4 4 6 109.06 4.36
4 -4 -6 114.57 10.38
-4 4 5 27.12 5.27
4 -4 -5 31.05 5.17
4 -4 -5 24.8 4.39
4 -4 -5 23.26 3.71
4 -4 -4 7.25 2.1
-4 4 4 8.86 2.85
4 -4 -4 9.49 2.8
-4 4 3 17.14 4.02
4 -4 -3 23.51 4.6
4 -4 -3 20.74 3.74
4 -4 -2 36.34 4.61
-4 4 2 40.33 5.17
4 -4 -2 40.78 5.25
4 -4 -2 40.88 5.14
-4 4 2 43.02 5.64
4 -4 -1 50.03 5.13
-4 4 1 51.86 5.51
4 -4 -1 51.25 5.82
4 -4 -1 47.89 5.48
-4 4 1 44.83 5.52
4 -4 0 27.19 4.01
4 -4 0 25.34 4.18
-4 4 0 31.74 4.06
4 -4 0 33.75 4.52
4 -4 0 24.86 3.95
-4 4 0 27.81 4.45
4 -4 1 226.38 11.27
4 -4 1 181.71 9.89
4 -4 1 205.95 11.84
4 -4 1 196.21 10.18
4 -4 1 191.27 10.9
-4 4 -1 163.88 10.61
4 -4 2 142.33 9.63
4 -4 2 107.85 8.48
4 -4 2 128.05 9.94
4 -4 2 134.8 9.72
-4 4 -2 131.22 9.47
4 -4 3 -0.56 0.58
4 -4 3 1.41 1.45
4 -4 3 0.85 0.72
-4 4 -3 1.1 0.57
4 -4 3 -0.19 0.7
-4 4 -3 1.06 0.47
4 -4 3 0.89 0.46
4 -4 4 10.71 3.24
-4 4 -4 13.42 1.65
4 -4 4 13.11 1.63
4 -4 4 14.86 3.81
4 -4 4 14.16 3.81
4 -4 4 12.49 3.51
-4 4 -4 13.45 1.56
4 -4 5 0.32 0.3
4 -4 5 0.94 1.29
4 -4 5 1.65 1.83
-4 4 -5 1.14 0.66
4 -4 5 1.08 0.72
4 -4 5 1.01 1.42
-4 4 -5 1.48 0.71
-4 4 -6 55.14 3.43
4 -4 6 48.05 3.03
-4 4 -6 50.27 3.19
4 -4 6 48.99 2.89
-4 4 -7 19.7 2.01
4 -4 7 11.56 1.47
-4 4 -7 11.86 1.57
-4 4 -7 14.51 1.83
4 -4 7 19.72 1.74
-4 4 -8 32.21 2.32
4 -4 8 24.64 1.97
4 -4 8 29.13 2.32
4 -4 8 26.89 1.91
-4 4 -9 88.32 3.48
4 -4 9 91.32 3.64
4 -4 10 84.05 2.86
-4 5 13 3.81 0.52
-4 5 13 2.86 0.39
-4 5 13 2.58 0.54
4 -5 -12 1.74 0.51
-4 5 12 1.21 0.67
-4 5 12 2.47 0.65
-4 5 12 2.06 0.49
-4 5 12 1.56 0.48
-4 5 11 1.42 0.84
-4 5 11 2.28 0.7
-4 5 11 2.19 0.52
4 -5 -11 3.25 0.75
-4 5 11 1.6 0.59
-4 5 10 49.53 3.46
4 -5 -10 58.89 3.44
-4 5 10 54 4.22
-4 5 10 47.59 2.93
-4 5 10 55.91 3.48
-4 5 9 59.28 4.86
-4 5 9 53.56 3.84
-4 5 9 57.44 3.38
-4 5 9 62.08 4.07
4 -5 -9 52.2 3.39
4 -5 -8 159.32 6.03
-4 5 8 170.23 8.84
-4 5 8 150.78 6.36
-4 5 8 163.4 5.69
4 -5 -7 -0.27 1.61
4 -5 -7 0.54 0.56
-4 5 7 -0.5 1.15
4 -5 -7 -0.04 1.23
-4 5 7 1.42 0.74
-4 5 7 0.25 0.41
4 -5 -6 0.45 0.63
4 -5 -6 0.3 0.95
4 -5 -6 0.97 0.67
-4 5 6 0.38 0.71
-4 5 6 0.46 0.55
4 -5 -6 1.01 1.03
-4 5 6 0.47 0.6
4 -5 -5 17.65 4.17
4 -5 -5 11.72 1.79
4 -5 -5 11.13 3.16
4 -5 -5 12.6 1.62
-4 5 5 16.34 2.56
-4 5 5 11.86 1.73
-4 5 5 10.86 1.32
4 -5 -4 133.21 5.15
4 -5 -4 129.91 4.93
-4 5 4 138.25 5.57
-4 5 4 139.88 12.32
4 -5 -4 129.68 10.4
-4 5 4 133.03 4.56
-4 5 3 46.63 6.2
4 -5 -3 53.93 6.63
4 -5 -3 44.02 5.75
-4 5 2 252.17 13.5
4 -5 -2 290.6 14.94
4 -5 -2 237.84 12.94
-4 5 2 264.46 14.73
-4 5 1 143.06 9.32
4 -5 -1 149.57 10.46
4 -5 -1 124.19 9.33
-4 5 1 131.21 10.61
4 -5 0 22.87 3.91
4 -5 0 27.36 4.26
-4 5 0 23.76 4.69
4 -5 1 184.12 5.7
4 -5 1 188.75 11.5
4 -5 1 191.93 11.15
-4 5 -1 175.03 12.49
-4 5 -1 185.56 5.2
4 -5 2 205.78 5.93
4 -5 2 212.75 6.22
-4 5 -2 241.47 6.67
4 -5 2 189.29 11.4
4 -5 2 223.76 12.7
4 -5 2 194.54 12.56
-4 5 -2 203.92 13.74
-4 5 -2 210.32 5.71
4 -5 3 13.74 3.38
4 -5 3 20.09 2.01
4 -5 3 17.4 3.94
-4 5 -3 18.9 1.78
-4 5 -3 17.64 1.92
4 -5 3 15.47 1.7
-4 5 -4 140.38 5.3
4 -5 4 133.84 5.15
4 -5 4 113.7 10.54
-4 5 -4 137.8 5.06
4 -5 4 120.14 4.67
-4 5 -5 83.51 4.22
4 -5 5 74.94 3.95
-4 5 -5 79.42 3.93
4 -5 5 67.46 3.52
-4 5 -6 18.63 2.01
4 -5 6 19.33 2
-4 5 -6 19.2 1.95
4 -5 6 17.42 1.96
-4 5 -7 45.17 3.01
4 -5 7 49.74 3.09
-4 5 -7 45.5 3.1
-4 5 -7 48.3 3.09
4 -5 7 47.22 2.7
-4 5 -8 8.32 1.19
4 -5 8 7.63 1.08
-4 5 -8 7.5 1.23
4 -5 8 8.02 1.29
-4 5 -8 8.52 1.27
4 -5 8 9.66 1.13
-4 5 -9 12.46 1.28
4 -5 9 8.71 1.12
-4 5 -9 8.55 1
4 -5 9 13.02 1.39
4 -5 9 14.92 1.22
4 -5 10 7.56 0.83
4 -6 -12 3 0.56
4 -6 -12 4.42 0.64
-4 6 12 3.84 0.64
-4 6 12 6.26 0.77
-4 6 12 5.51 0.59
4 -6 -11 7.12 1.01
-4 6 11 5.83 1.18
-4 6 11 9.62 1.23
-4 6 11 9.64 1
4 -6 -11 5.82 1.02
-4 6 11 6.46 0.97
4 -6 -10 102.01 4.16
4 -6 -10 103.9 4.19
-4 6 10 123.49 5.66
-4 6 10 126.47 5
-4 6 10 115.36 3.98
-4 6 10 95.67 4.18
4 -6 -9 5.55 1.19
4 -6 -9 7.54 1.21
-4 6 9 9.73 1.79
-4 6 9 10.08 1.64
-4 6 9 9.6 1.27
-4 6 9 7.9 1.52
4 -6 -8 4.95 1.22
4 -6 -8 4.1 0.95
-4 6 8 7.78 1.85
-4 6 8 6.89 1.41
-4 6 8 5.46 1.05
4 -6 -7 1.03 0.62
4 -6 -7 1.05 0.8
-4 6 7 1.53 0.98
-4 6 7 1.01 0.71
4 -6 -6 78.65 4.41
4 -6 -6 75.29 4.27
4 -6 -6 79.76 4.18
-4 6 6 79.1 6.04
-4 6 6 84.3 4
-4 6 6 77.9 4.66
4 -6 -5 8.68 1.5
4 -6 -5 8.24 1.37
4 -6 -5 7.71 2.87
4 -6 -5 7.76 1.28
-4 6 5 7.27 1.8
4 -6 -5 6.85 2.49
-4 6 5 7.28 1.36
-4 6 5 7.46 1.17
4 -6 -4 15.15 1.93
4 -6 -4 12.93 3.68
4 -6 -4 18.26 2.03
4 -6 -4 20.91 2.22
-4 6 4 16.05 2.02
-4 6 4 15.72 4.17
-4 6 4 13.9 1.62
4 -6 -3 71.74 4.17
-4 6 3 71.96 4.24
4 -6 -3 73.2 3.98
4 -6 -3 67.09 3.69
-4 6 3 65.93 7.86
-4 6 3 76.81 8.39
4 -6 -3 61.26 7.25
-4 6 3 72.3 3.53
4 -6 -2 17.86 2.1
-4 6 2 23.54 4.44
-4 6 2 20.62 4.61
4 -6 -2 25.73 4.92
4 -6 -2 19.33 3.85
-4 6 2 17.63 1.7
4 -6 -2 24.11 2.26
4 -6 -1 2 0.86
4 -6 -1 2.67 1.58
4 -6 -1 3.08 0.77
-4 6 1 1.22 0.56
4 -6 -1 2.06 0.98
-4 6 1 2.5 1.94
-4 6 1 2.57 0.69
4 -6 0 44.94 3.26
4 -6 0 47.07 2.98
-4 6 0 41.96 2.84
4 -6 0 46.17 5.86
4 -6 0 36.95 5.2
-4 6 0 41.3 6.76
-4 6 0 41.79 2.57
4 -6 1 406.48 8.94
-4 6 -1 446.15 9.24
4 -6 1 434.99 18.16
-4 6 -1 384.09 21.18
-4 6 -1 425.66 8.34
4 -6 1 414.03 8.98
4 -6 2 1.17 0.6
4 -6 2 1.13 0.57
-4 6 -2 1.67 0.6
-4 6 -2 1.47 2.03
-4 6 -2 1.07 0.33
4 -6 3 0.02 0.38
-4 6 -3 0.46 0.4
-4 6 -3 0.84 0.57
4 -6 3 0.16 0.54
-4 6 -4 56.29 3.3
4 -6 4 54.08 3.36
-4 6 -4 55.6 3.32
4 -6 4 46.97 3.21
-4 6 -5 77.38 3.93
4 -6 5 62.76 3.66
-4 6 -5 74.36 3.91
4 -6 5 69.24 3.66
-4 6 -6 95.19 4.12
-4 6 -6 103.29 4.49
4 -6 6 94.84 4.37
4 -6 6 91.39 3.97
-4 6 -7 105.26 3.94
4 -6 7 95.8 4.16
-4 6 -7 97.65 4.29
4 -6 7 93.51 3.74
4 -6 8 4.3 0.93
-4 6 -8 5.63 0.79
4 -6 8 5.26 0.98
-4 6 -8 3.69 0.89
4 -6 8 4.51 1
-4 6 -8 4.81 0.89
4 -6 9 46.29 2.28
-4 6 -9 41.38 2.08
4 -6 9 44.48 2.36
4 -6 9 39.13 1.88
4 -6 10 1.64 0.39
4 -7 -11 26.57 1.35
4 -7 -11 33.07 1.74
-4 7 11 24.61 1.71
-4 7 11 36.09 1.9
-4 7 11 35.7 1.41
-4 7 11 25.94 1.48
4 -7 -10 8.08 1.08
-4 7 10 4.92 0.98
-4 7 10 7.98 1.16
-4 7 10 7.76 0.89
4 -7 -10 7.12 0.98
-4 7 10 6.59 1.03
4 -7 -9 3.01 0.87
4 -7 -9 3.01 0.77
-4 7 9 4.55 1.1
-4 7 9 5.16 1.03
-4 7 9 4.63 0.83
4 -7 -9 2.46 0.63
-4 7 9 4.38 1.1
4 -7 -8 4.3 1.09
4 -7 -8 4.18 0.98
-4 7 8 3.34 1.04
-4 7 8 4.22 1.07
-4 7 8 4.57 0.9
4 -7 -8 3.27 0.94
4 -7 -7 143.61 5.8
4 -7 -7 152.65 5.75
4 -7 -7 156.9 5.79
-4 7 7 151.68 6.18
-4 7 7 155.11 5.14
4 -7 -6 25.18 2.46
4 -7 -6 27.14 2.54
4 -7 -6 25.41 2.39
-4 7 6 17.4 2.69
-4 7 6 27.93 2.7
-4 7 6 27.7 2.28
4 -7 -5 44.01 3.33
4 -7 -5 42.89 3.11
4 -7 -5 42.68 3.07
-4 7 5 45.17 3.53
-4 7 5 46.01 2.85
4 -7 -4 193.09 6.99
4 -7 -4 185.15 6.4
4 -7 -4 200.19 6.59
-4 7 4 186.41 6.93
-4 7 4 187.99 5.79
4 -7 -3 259.13 8.2
4 -7 -3 263.44 7.6
-4 7 3 274.59 8.36
-4 7 3 255.04 16.16
-4 7 3 252.36 6.72
4 -7 -2 20.34 2.33
4 -7 -2 23 4.78
-4 7 2 22.06 4.89
-4 7 2 22.2 2.01
4 -7 -2 18.95 2.08
4 -7 -1 0.96 0.58
4 -7 -1 0.22 0.91
-4 7 1 -0.15 1.74
-4 7 1 -0.2 0.62
4 -7 -1 1.19 0.74
4 -7 0 1.29 0.67
4 -7 0 1.07 0.6
4 -7 0 0.87 1.67
-4 7 0 2.87 2.21
-4 7 0 1.41 0.45
4 -7 1 9.53 1.53
4 -7 1 13.64 1.85
-4 7 -1 11.96 3.94
-4 7 -1 10.89 1.43
4 -7 2 2.54 0.84
4 -7 2 3.15 0.91
-4 7 -2 3.34 0.95
4 -7 3 1.72 0.79
-4 7 -3 1.97 0.8
4 -7 3 1.57 0.53
4 -7 4 42.45 3.06
-4 7 -4 45.66 2.96
4 -7 4 46.47 3.07
-4 7 -5 152.86 5.53
4 -7 5 141.02 5.13
4 -7 5 156.01 5.68
4 -7 6 80.81 4.02
-4 7 -6 72.97 3.72
-4 7 -7 40.04 2.64
4 -7 7 34.77 2.29
4 -7 7 40.99 2.62
4 -7 8 0.93 0.45
4 -7 8 1.24 0.5
-4 7 -8 0.3 0.3
4 -7 8 0.4 0.35
-4 7 -8 0.95 0.49
4 -7 9 58.72 2.31
4 -7 9 57.44 2.26
4 -7 9 57.63 2.03
-4 8 10 11.59 0.99
4 -8 -9 10.44 1.13
4 -8 -9 16.4 1.32
4 -8 -9 16.43 1.56
-4 8 9 11.87 1.36
-4 8 9 18.55 1.7
-4 8 9 18.85 1.23
-4 8 9 15.41 1.5
4 -8 -8 6.03 1.05
-4 8 8 3.78 0.85
-4 8 8 6.98 1.16
4 -8 -8 7.32 1.11
-4 8 8 6.67 0.9
4 -8 -8 6.51 1.01
-4 8 8 7.04 1.15
4 -8 -7 36.7 2.81
4 -8 -7 38.44 2.6
-4 8 7 38.6 2.82
-4 8 7 35.04 2.2
4 -8 -7 38.54 2.75
4 -8 -6 25.57 2.46
4 -8 -6 26.49 2.18
4 -8 -6 24.23 2.26
-4 8 6 27.61 2.48
-4 8 6 25.54 1.98
4 -8 -5 43.28 3.32
4 -8 -5 43.18 3.15
-4 8 5 49.27 3.5
4 -8 -5 46.87 3.09
-4 8 5 42.54 2.63
4 -8 -4 1.62 0.73
4 -8 -4 3 0.75
-4 8 4 1.87 0.64
4 -8 -3 46.27 3.51
4 -8 -3 43.1 3.06
-4 8 3 45.86 2.83
4 -8 -2 72.32 4.44
4 -8 -2 78.43 4.13
-4 8 2 69.61 3.48
4 -8 -1 69.7 4.36
4 -8 -1 70.81 3.89
-4 8 1 65.72 3.41
4 -8 0 28.34 2.4
4 -8 0 28.97 2.46
-4 8 0 27.06 2.17
4 -8 1 268.55 7.57
4 -8 1 268.63 7.57
-4 8 -1 255.23 6.78
4 -8 2 36 2.78
4 -8 2 38.65 2.85
-4 8 -2 35.34 2.58
4 -8 3 7.91 1.35
-4 8 -3 7.81 1.27
4 -8 3 9.96 1.51
4 -8 4 5.02 1.12
4 -8 4 5.06 1
-4 8 -4 5.79 1.1
4 -8 5 122.93 4.84
-4 8 -5 121.85 4.67
4 -8 5 122.76 4.59
4 -8 6 4.65 0.91
-4 8 -6 4.63 0.99
4 -8 6 5.67 1.07
4 -8 7 4.77 0.8
4 -8 7 6.35 0.97
4 -8 7 2.73 0.76
-4 8 -7 4.75 0.86
4 -8 8 25.94 1.63
4 -8 8 23.83 1.49
-4 8 -8 21.45 1.58
4 -9 -8 4.59 0.69
4 -9 -8 5.68 0.61
4 -9 -7 55 3.05
4 -9 -7 62.41 2.53
-4 9 7 62.96 2.28
-4 9 7 52.81 2.97
4 -9 -6 -0.16 0.39
4 -9 -6 -0.1 0.42
-4 9 6 0.55 0.33
4 -9 -5 17.62 2
4 -9 -5 20.05 1.79
-4 9 5 15.3 1.38
4 -9 -4 15.24 1.98
-4 9 4 14.66 1.4
4 -9 -4 15.84 1.7
4 -9 -3 139.3 5.78
-4 9 3 125.71 4.28
4 -9 -3 136.07 5.04
4 -9 -2 27.67 2.82
4 -9 -2 30.43 2.39
-4 9 2 28.73 2.11
4 -9 -1 5.2 1.36
4 -9 -1 5.02 1.11
4 -9 -1 6.5 1.23
-4 9 1 5.68 0.91
4 -9 0 50.91 3.36
4 -9 0 50.61 3.14
-4 9 0 53.73 3
4 -9 1 23 2.38
4 -9 1 23.96 2.14
-4 9 -1 22.28 1.94
4 -9 2 1.27 0.61
4 -9 2 0.97 0.44
4 -9 2 0.61 0.71
-4 9 -2 1 0.56
4 -9 3 0.57 0.52
4 -9 3 0.18 0.58
-4 9 -3 -0.01 0.48
4 -9 4 209.32 5.99
-4 9 -4 211.58 5.83
4 -9 4 224.06 6.11
4 -9 5 6.06 0.99
4 -9 5 5.68 0.99
-4 9 -5 6.22 1.01
4 -9 6 6.91 0.95
-4 9 -6 7.09 0.97
4 -9 6 8.43 1
4 -9 7 40.58 2
-4 9 -7 36.58 2.06
-4 9 -7 33.31 1.81
4 -9 7 39.31 1.84
4 -9 8 4.76 0.61
-4 10 7 20.03 1.23
4 -10 -6 6.64 1.04
-4 10 6 8.87 0.96
4 -10 -5 25.35 1.93
4 -10 -5 27.51 1.52
4 -10 -4 112.5 4.36
4 -10 -4 112.39 3.46
-4 10 4 112.28 3.15
4 -10 -3 10.93 1.4
4 -10 -3 10.2 1.39
4 -10 -3 11 1.17
-4 10 3 9.93 1.01
4 -10 -2 0.93 0.49
4 -10 -2 1.54 0.57
-4 10 2 0.63 0.38
4 -10 -1 104.78 4.33
4 -10 -1 105.58 3.91
-4 10 1 98.77 3.45
4 -10 0 19.03 1.75
-4 10 0 20.79 1.67
4 -10 1 6.5 1.03
-4 10 -1 6.08 0.9
4 -10 1 7.1 1.06
4 -10 2 8.3 1.21
4 -10 2 6.95 0.85
4 -10 2 8.91 1.21
-4 10 -2 8.11 1.09
4 -10 3 16.58 1.53
-4 10 -3 14.16 1.41
4 -10 3 13.61 1.41
4 -10 4 3.03 0.71
-4 10 -4 3.13 0.68
4 -10 5 12.43 1.14
-4 10 -5 10.82 1.05
4 -10 5 12.45 1.18
4 -10 6 44.2 1.84
4 -10 6 50.19 1.93
4 -11 -4 18.21 1.18
4 -11 -3 37.74 1.86
4 -11 -2 109.5 3.37
4 -11 -1 24.65 1.6
4 -11 0 3.34 0.58
4 -11 0 4.95 0.82
4 -11 0 3.24 0.62
4 -11 1 8.23 0.83
4 -11 1 9.76 0.93
4 -11 1 9.35 1.03
4 -11 2 28.45 1.45
4 -11 2 35.14 1.85
4 -11 3 20.28 1.11
4 -11 3 20.37 1.37
4 -11 4 69.93 2.56
4 -11 4 121.37 2.84
-5 -8 7 10.69 0.96
-5 -8 7 10 1.05
-5 -8 6 2.82 0.66
-5 -8 6 2.19 0.5
-5 -8 5 9.61 0.93
-5 -8 5 10.56 1.05
-5 -8 5 9.59 1.01
-5 -8 4 2.09 0.44
-5 -8 4 1.95 0.47
-5 -8 4 2.84 0.75
-5 -8 3 20.56 1.31
-5 -8 3 25.49 1.91
-5 -8 2 0.01 0.24
-5 -8 2 1.14 0.4
-5 -8 1 7.56 0.89
-5 -7 10 7.81 0.75
-5 -7 9 29.27 1.7
-5 -7 9 34.43 2.11
-5 -7 8 0 0.48
-5 -7 8 1 0.57
-5 -7 8 0.19 0.29
-5 -7 7 28.76 2.04
-5 -7 7 27.46 1.77
-5 -7 7 31.55 2.45
-5 -7 6 4.84 1.07
-5 -7 6 5.37 0.89
-5 -7 6 3.83 0.74
-5 -7 6 3.27 0.62
-5 -7 5 56.1 2.77
-5 -7 5 60.66 3.66
-5 -7 5 57.52 3.41
-5 -7 4 113.88 3.93
-5 -7 4 109.95 4.99
-5 -7 4 114.51 4.55
-5 -7 3 26.42 1.89
-5 -7 3 23.07 1.68
-5 -7 3 30.43 2.56
-5 -7 3 25.59 2.29
-5 -7 3 26.73 2.03
-5 -7 2 7.51 0.99
-5 -7 2 10.07 1.43
-5 -7 1 5.46 0.77
-5 -7 1 8.45 1.25
-5 -7 0 28.25 1.59
-5 -7 0 37.27 2.44
-5 -7 -1 12.01 1.28
-5 -6 11 2.13 0.56
-5 -6 10 0.54 0.47
-5 -6 10 0.17 0.42
-5 -6 9 5.85 0.89
-5 -6 9 9.69 1.17
-5 -6 9 9.27 1.22
-5 -6 9 8.68 1.35
-5 -6 8 11.49 1.6
-5 -6 8 13.04 1.56
-5 -6 8 11.81 1.38
-5 -6 8 12.79 1.48
-5 -6 7 224.15 6.29
-5 -6 7 230.44 6.48
-5 -6 7 223.17 7.47
-5 -6 7 235.3 6.21
-5 -6 6 44.91 2.84
-5 -6 6 54.3 3.21
-5 -6 6 51.85 3.81
-5 -6 6 48.33 2.88
-5 -6 6 53.43 3.26
-5 -6 6 56.11 4.04
-5 -6 5 37.96 2.58
-5 -6 5 39.13 2.75
-5 -6 5 39.35 3.31
-5 -6 5 37.25 2.83
-5 -6 5 44.92 3.07
-5 -6 5 43.73 3.56
-5 -6 4 1.44 0.49
-5 -6 4 0.36 0.44
-5 -6 4 1.02 0.51
-5 -6 4 0.76 0.52
-5 -6 4 0.65 0.46
-5 -6 3 95.11 4.08
-5 -6 3 75.46 4.16
-5 -6 3 84.99 4.06
-5 -6 3 115.11 5.54
-5 -6 3 107.86 4.96
-5 -6 3 93.9 4.66
-5 -6 2 14.84 1.56
-5 -6 2 16.47 1.88
-5 -6 2 17.4 1.69
-5 -6 2 19.92 2.28
-5 -6 2 19.73 2.13
-5 -6 2 18.06 1.9
-5 -6 1 17.29 1.66
-5 -6 1 24.06 2.51
-5 -6 1 25.02 2.3
-5 -6 0 1.42 0.58
-5 -6 0 2.53 0.85
-5 -6 0 2.94 0.84
-5 -6 -1 39.13 2.74
-5 -6 -1 43.24 2.6
-5 -6 -2 87.92 3.28
-5 -6 -2 96.17 3.88
-5 -6 -3 0.43 0.28
-5 -6 -3 0.99 0.4
-5 -5 12 13.23 1.1
-5 -5 11 77.99 3.36
-5 -5 11 72.88 2.62
-5 -5 10 0.45 0.42
-5 -5 10 0.49 0.36
-5 -5 10 0.12 0.45
-5 -5 10 -0.14 0.41
-5 -5 9 0.08 0.44
-5 -5 9 0.14 0.32
-5 -5 9 0.88 0.74
-5 -5 9 0.33 0.44
-5 -5 8 126.93 5.03
-5 -5 8 113.65 4.72
-5 -5 8 128.82 5.03
-5 -5 8 127.51 5.82
-5 -5 7 42.11 2.97
-5 -5 7 39.83 2.9
-5 -5 7 43.61 3.06
-5 -5 7 41.58 3.7
-5 -5 7 37.61 2.9
-5 -5 6 51.64 3.27
-5 -5 6 40.17 3.41
-5 -5 6 46.67 3.33
-5 -5 6 63.35 4.36
-5 -5 6 44.54 3.2
-5 -5 6 57.83 3.32
-5 -5 6 52.01 3.34
-5 -5 6 47.17 4.2
-5 -5 5 -0.93 1.13
-5 -5 5 -0.07 0.36
-5 -5 5 0.04 0.33
-5 -5 5 -0.1 0.51
-5 -5 5 -0.15 0.7
-5 -5 5 -0.2 0.75
-5 -5 5 0.1 0.58
-5 -5 5 0.78 0.58
-5 -5 4 44.78 2.94
-5 -5 4 42.2 3.58
-5 -5 4 44.67 3.32
-5 -5 4 41.85 3.52
-5 -5 4 44.44 3.17
-5 -5 4 52.43 4.16
-5 -5 3 0.18 0.63
-5 -5 3 -0.56 0.55
-5 -5 3 0.15 0.53
-5 -5 3 0.72 0.77
-5 -5 3 -0.01 0.52
-5 -5 3 0.56 0.76
-5 -5 3 -0.22 0.56
-5 -5 2 11.06 1.39
-5 -5 2 15.25 1.94
-5 -5 2 8.68 1.54
-5 -5 2 14.97 1.95
-5 -5 2 11.73 1.71
-5 -5 1 2.9 0.77
-5 -5 1 1.76 0.56
-5 -5 1 1.48 0.66
-5 -5 1 1.34 0.68
-5 -5 1 3.08 0.86
-5 -5 0 34.26 3.06
-5 -5 0 38.17 2.9
-5 -5 -1 0.74 0.46
-5 -5 -1 1.42 0.67
-5 -5 -1 1.22 0.53
-5 -5 -2 23.89 2.04
-5 -5 -2 22.74 2.26
-5 -5 -2 23.77 1.96
-5 -5 -3 82 3.63
-5 -5 -3 79.37 3.73
-5 -5 -3 74.36 2.91
-5 -5 -4 1.01 0.42
-5 -5 -4 0.67 0.31
-5 -5 -5 1.58 0.39
-5 -5 -5 2.4 0.49
-5 -4 13 0.08 0.23
-5 -4 12 29.41 2.25
-5 -4 12 39.76 2.16
-5 -4 11 88.83 4.57
-5 -4 11 107.12 3.7
-5 -4 10 0.12 0.42
-5 -4 10 0.75 0.64
-5 -4 10 0.98 0.65
-5 -4 10 0.78 0.57
-5 -4 9 24.4 2.87
-5 -4 9 33.12 2.64
-5 -4 9 33.98 2.63
-5 -4 9 31.83 2.85
-5 -4 8 54.88 4.26
-5 -4 8 63.4 3.71
-5 -4 8 51.44 3.3
-5 -4 8 60.12 3.63
-5 -4 8 60.95 3.73
-5 -4 8 65.99 4.35
-5 -4 7 1.24 0.9
-5 -4 7 1.01 0.54
-5 -4 7 0.22 0.44
-5 -4 7 2.08 0.92
-5 -4 7 0.37 0.43
-5 -4 7 0.7 0.48
-5 -4 7 2.04 0.95
-5 -4 7 1.36 0.69
-5 -4 6 64.27 3.78
-5 -4 6 77.29 5.05
-5 -4 6 72.16 4.14
-5 -4 6 75.52 4.41
-5 -4 6 70.27 4.61
-5 -4 6 69.68 4.1
-5 -4 6 86.45 4.13
-5 -4 6 77.21 4.29
-5 -4 6 80.28 5.67
-5 -4 5 4.03 1.26
-5 -4 5 4.44 1
-5 -4 5 5.23 1.35
-5 -4 5 2.68 0.98
-5 -4 5 3.87 1.22
-5 -4 5 6.66 1.47
-5 -4 5 2.72 0.87
-5 -4 5 4.52 1.04
-5 -4 5 6.22 1.22
-5 -4 4 7.93 1.88
-5 -4 4 6.94 1.22
-5 -4 4 7.58 1.66
-5 -4 4 5.42 1.14
-5 -4 4 8.41 1.58
-5 -4 4 9.1 1.5
-5 -4 4 8.71 1.33
-5 -4 3 1.08 0.75
-5 -4 3 0.63 0.46
-5 -4 3 0.7 0.39
-5 -4 3 0.16 0.47
-5 -4 3 0.04 0.37
-5 -4 3 -0.27 0.36
-5 -4 3 0.66 0.43
-5 -4 2 180.84 5.77
-5 -4 2 148.63 6.33
-5 -4 2 182.84 6.85
-5 -4 2 157.61 5.78
-5 -4 2 174.68 6.88
-5 -4 1 228.13 7.61
-5 -4 1 217.01 7.17
-5 -4 0 40.77 3.39
-5 -4 0 40.44 3.3
-5 -4 0 36.98 3.04
-5 -4 -1 11.68 1.59
-5 -4 -1 11.96 1.82
-5 -4 -1 12.63 1.69
-5 -4 -2 0.05 0.25
-5 -4 -2 0.55 0.51
-5 -4 -2 -0.38 0.57
-5 -4 -3 67.18 3.66
-5 -4 -3 74.73 4.05
-5 -4 -3 72.87 3.43
-5 -4 -4 14.5 1.58
-5 -4 -4 15.25 1.67
-5 -4 -5 0 0.2
-5 -4 -5 0.39 0.32
-5 -4 -6 0.31 0.27
-5 -4 -6 0.06 0.15
-5 -3 13 0.95 0.47
-5 -3 13 1.04 0.38
-5 -3 12 13.12 1.87
-5 -3 12 18.9 1.65
-5 -3 12 15.75 1.33
-5 -3 11 50.15 3.9
-5 -3 11 50.67 2.98
-5 -3 11 48.27 2.75
-5 -3 10 25.4 2.99
-5 -3 10 27.41 2.33
-5 -3 10 26.98 2.3
-5 -3 9 11.13 2.02
-5 -3 9 9.1 1.51
-5 -3 9 10.48 1.54
-5 -3 9 7.42 1.46
-5 -3 9 9.58 1.72
-5 -3 8 10.34 2.16
-5 -3 8 16.07 2.07
-5 -3 8 9.42 1.7
-5 -3 8 15.92 2.05
-5 -3 8 16.83 2.04
-5 -3 8 16.68 2.32
-5 -3 7 2.09 0.94
-5 -3 7 1.65 0.89
-5 -3 7 1.21 0.63
-5 -3 7 0.73 0.43
-5 -3 7 2.31 0.97
-5 -3 7 0.93 0.49
-5 -3 7 1.38 0.78
-5 -3 6 7.87 1.97
-5 -3 6 6.4 1.17
-5 -3 6 6.83 1.58
-5 -3 6 6.37 1.34
-5 -3 6 6.57 1.42
-5 -3 6 6.47 1.42
-5 -3 6 6.27 1.23
-5 -3 6 8.25 1.42
-5 -3 5 42.88 2.82
-5 -3 5 55.27 4.29
-5 -3 5 48.58 3.32
-5 -3 5 54.49 3.88
-5 -3 5 49.08 6.59
-5 -3 5 47.55 7.13
-5 -3 5 50.95 3.73
5 3 -5 37.45 6.89
-5 -3 5 52.72 3.37
-5 -3 5 50.95 3.37
-5 -3 5 56.16 4.5
-5 -3 4 129.7 6.41
-5 -3 4 100.11 4.74
5 3 -4 90.71 8.69
-5 -3 4 125.87 5.7
-5 -3 4 111.33 10.08
-5 -3 4 111.39 10.55
-5 -3 4 94.51 4.97
-5 -3 4 114.91 5.03
-5 -3 4 108.91 4.83
-5 -3 4 105.77 5.87
-5 -3 3 -0.18 0.53
-5 -3 3 0.17 0.45
-5 -3 3 -0.2 0.56
5 3 -3 -1.36 1.15
-5 -3 3 -0.76 1.75
-5 -3 3 -0.62 0.46
-5 -3 3 -0.44 0.59
-5 -3 3 0.12 0.33
-5 -3 2 37.79 5.92
-5 -3 2 28.74 2.7
-5 -3 2 38.74 3.14
-5 -3 2 37.36 2.73
-5 -3 2 36.17 3.11
-5 -3 1 40.43 3.38
-5 -3 1 34.61 2.95
-5 -3 1 35.58 2.6
-5 -3 1 39.15 3.08
-5 -3 1 34.54 2.91
-5 -3 0 212.6 6.79
-5 -3 0 213.57 7.38
-5 -3 0 230.84 7.38
-5 -3 -1 65.57 4.22
-5 -3 -1 58.37 3.62
-5 -3 -1 56.38 3.84
-5 -3 -1 62.57 3.8
-5 -3 -2 29.84 2.61
-5 -3 -2 33.79 2.95
-5 -3 -2 29.7 2.54
-5 -3 -3 0.44 0.35
-5 -3 -3 0.48 0.49
-5 -3 -3 0.12 0.29
-5 -3 -4 18.3 1.92
-5 -3 -4 18.2 1.99
-5 -3 -4 15.17 1.49
-5 -3 -5 70.59 3.53
-5 -3 -5 87.32 3.98
-5 -3 -6 8.15 1.06
-5 -3 -6 10.05 1.14
-5 -3 -7 47.19 2.02
-5 -3 -7 49 2.01
-5 -2 14 3.25 0.65
-5 -2 14 2.36 0.4
-5 -2 13 5.91 1.16
-5 -2 13 6.33 0.85
-5 -2 12 20.48 2.43
-5 -2 12 17.18 1.61
-5 -2 11 -0.55 0.72
-5 -2 11 0.22 0.31
-5 -2 11 0.98 0.91
-5 -2 11 0.52 0.47
-5 -2 10 1.97 0.95
-5 -2 10 1.06 0.55
-5 -2 10 2.14 0.76
-5 -2 10 1.57 0.72
-5 -2 9 15.01 2.58
-5 -2 9 15.07 1.93
-5 -2 9 16.34 1.91
-5 -2 9 15.23 2.01
-5 -2 9 19.51 2.16
-5 -2 8 179.89 6.79
-5 -2 8 165.12 8.18
-5 -2 8 152.82 5.88
-5 -2 8 149.84 5.94
-5 -2 8 169.68 6.87
-5 -2 7 8.8 1.76
-5 -2 7 11.88 2.13
-5 -2 7 10.84 1.72
-5 -2 7 10.83 1.76
5 2 -7 9.7 3.62
5 2 -7 8.35 3.13
-5 -2 7 9.6 1.52
-5 -2 7 9.73 1.54
-5 -2 6 71.3 5.13
-5 -2 6 67.93 3.84
-5 -2 6 70.92 4.27
-5 -2 6 78.05 9.47
5 2 -6 56.95 8.05
5 2 -6 71.11 7.69
-5 -2 6 65.73 3.78
-5 -2 6 69.66 7.92
-5 -2 6 67.5 3.91
-5 -2 6 72.43 4.81
-5 -2 6 67.84 3.53
-5 -2 5 6.65 1.75
-5 -2 5 7.36 1.6
-5 -2 5 6.53 1.14
-5 -2 5 6.92 1.32
-5 -2 5 4.89 2.07
5 2 -5 4.57 2.22
-5 -2 5 7.14 2.65
-5 -2 5 8.48 1.25
-5 -2 5 5.67 1.13
-5 -2 4 88.25 4.58
-5 -2 4 86.13 5.27
-5 -2 4 76.69 3.92
-5 -2 4 82.85 8.46
-5 -2 4 88.57 9.39
5 2 -4 65.58 7.61
-5 -2 4 75.62 4.12
-5 -2 4 81.38 4.08
-5 -2 4 73.33 3.87
-5 -2 4 77.07 4.76
-5 -2 3 54.59 4.12
5 2 -3 41.56 5.85
-5 -2 3 44.27 3.32
-5 -2 3 37.8 5.84
-5 -2 3 45.24 3.18
-5 -2 3 43.97 3.08
-5 -2 3 32.59 2.54
-5 -2 3 39.48 3.35
-5 -2 2 22.42 2.54
5 2 -2 15.2 3.46
-5 -2 2 15.21 2.01
-5 -2 2 12.26 3.35
-5 -2 2 16.36 1.95
-5 -2 2 14.09 1.58
-5 -2 2 15.22 1.91
-5 -2 2 10.66 1.84
5 2 -1 174.89 11.58
-5 -2 1 175.38 12.41
-5 -2 1 163.6 6.17
-5 -2 1 176.53 6.37
-5 -2 1 163.07 6.45
-5 -2 0 29.71 2.75
-5 -2 0 25.8 4.88
-5 -2 0 24.57 2.4
5 2 0 26 4.3
-5 -2 0 30.01 5.35
-5 -2 0 27.52 2.56
-5 -2 0 26.55 2.48
5 2 0 22.04 4.62
-5 -2 0 26.87 2.55
-5 -2 -1 35.76 3.05
-5 -2 -1 24.09 5.03
-5 -2 -1 27.61 2.68
-5 -2 -1 30.3 2.76
-5 -2 -1 30.37 2.6
-5 -2 -2 1.79 0.71
-5 -2 -2 3.43 1.18
-5 -2 -2 2.94 0.91
-5 -2 -2 2.27 0.71
-5 -2 -3 53.78 3.57
-5 -2 -3 53.15 3.71
-5 -2 -3 50.08 3.1
-5 -2 -4 8.01 1.39
-5 -2 -4 10.1 1.64
-5 -2 -4 7.98 1.21
-5 -2 -5 29.13 2.39
-5 -2 -5 33.25 2.72
-5 -2 -6 22.83 1.91
-5 -2 -6 23.7 2.04
-5 -2 -7 5.26 0.81
-5 -2 -7 4.47 0.76
-5 -1 14 7.4 1.04
-5 -1 13 2.03 0.79
-5 -1 13 1.67 0.47
-5 -1 12 83.11 5.13
-5 -1 12 80.3 3.54
-5 -1 12 69.1 3.1
-5 -1 11 14.04 2.37
-5 -1 11 10.53 1.57
-5 -1 11 15.14 1.74
-5 -1 11 14.75 1.72
-5 -1 10 3.86 1.38
-5 -1 10 3.32 1.1
-5 -1 10 4 1.09
-5 -1 10 3.92 1.02
-5 -1 9 48.08 4.61
-5 -1 9 44.38 3.07
-5 -1 9 52.14 3.67
-5 -1 9 39.09 3.04
-5 -1 8 200.13 9.1
-5 -1 8 212.59 7.56
5 1 -8 205.56 14.3
-5 -1 8 189.5 6.4
-5 -1 8 210.49 7.08
-5 -1 8 201.35 7.38
-5 -1 7 0.95 0.9
-5 -1 7 0.32 1.4
-5 -1 7 0.85 0.68
-5 -1 7 1.23 0.72
5 1 -7 2.8 2.54
-5 -1 7 1.53 1.88
5 1 -7 1.49 1.45
-5 -1 7 0.98 0.41
-5 -1 7 0.66 0.52
-5 -1 6 233.65 9.2
-5 -1 6 236.51 6.95
-5 -1 6 253.76 8.02
-5 -1 6 232.39 14.56
-5 -1 6 255 16.1
5 1 -6 216.26 15.06
5 1 -6 233.31 13.52
-5 -1 6 219.81 6.63
-5 -1 6 231.59 7.25
-5 -1 6 243.01 8.36
-5 -1 5 67.94 4.82
-5 -1 5 70.19 3.68
-5 -1 5 69.83 4.08
-5 -1 5 68.25 7.7
-5 -1 5 72.28 8.41
5 1 -5 54.99 7.16
5 1 -5 61.3 6.82
-5 -1 5 60.96 3.63
-5 -1 5 64.34 4.33
-5 -1 4 29.11 3.01
-5 -1 4 25.24 2.37
-5 -1 4 28.71 5.08
5 1 -4 19.77 3.71
5 1 -4 25.87 4.5
5 1 -4 25.42 4.07
-5 -1 4 23.36 2.2
-5 -1 4 25.51 2.23
-5 -1 4 25.49 2.7
-5 -1 3 162.5 6.87
-5 -1 3 140.89 5.61
-5 -1 3 152.06 11.14
5 1 -3 125.5 9.32
5 1 -3 113.65 9
-5 -1 3 119.05 4.61
-5 -1 3 134.37 5.34
-5 -1 3 139.55 6.03
-5 -1 2 5.58 1.23
5 1 -2 6.83 2.45
-5 -1 2 9.41 1.58
-5 -1 2 6.8 1.31
5 1 -2 6.19 2.23
-5 -1 2 5.79 2.15
-5 -1 2 7.67 1.28
5 1 -1 6.6 2.31
-5 -1 1 5.29 1.25
-5 -1 1 7.56 1.42
-5 -1 1 3.84 1.9
-5 -1 1 5.56 1.19
5 1 -1 5.68 1.95
-5 -1 1 4.12 1.47
-5 -1 1 5.62 1.11
-5 -1 1 5.64 1.22
-5 -1 0 128.07 5.63
-5 -1 0 106.38 9.98
5 1 0 121.38 9.72
5 1 0 87.35 8.98
-5 -1 0 108.1 9.42
-5 -1 0 108.75 4.89
-5 -1 0 115.97 5.14
-5 -1 0 96.19 4.97
-5 -1 -1 6.2 1.25
-5 -1 -1 6.84 2.56
5 1 1 4.2 1.94
-5 -1 -1 5.88 2.32
-5 -1 -1 5.95 1.25
-5 -1 -1 5.68 1.12
-5 -1 -2 173.36 6.75
-5 -1 -2 164.71 14.15
-5 -1 -2 159.28 6.31
-5 -1 -2 151.71 5.38
-5 -1 -2 153.97 6.32
-5 -1 -2 160.08 5.97
-5 -1 -3 22.76 2.38
-5 -1 -3 18.28 1.86
-5 -1 -3 21.49 2.41
-5 -1 -3 21.55 2.11
-5 -1 -4 67.81 4.09
-5 -1 -4 61.91 3.23
-5 -1 -4 70.42 4.31
-5 -1 -4 61.08 3.35
-5 -1 -5 19.9 2.13
-5 -1 -5 17.79 1.64
-5 -1 -5 19.76 2.27
-5 -1 -6 48.27 2.56
-5 -1 -6 58.41 3.3
-5 -1 -6 45.02 2.37
-5 -1 -6 54.13 3.34
-5 -1 -7 57.89 2.42
-5 -1 -7 64.38 3.03
-5 -1 -7 55.15 2.27
-5 -1 -7 62.65 3.14
-5 -1 -8 8.69 0.9
-5 -1 -8 9.32 0.98
-5 0 14 4.88 0.9
-5 0 13 13.66 1.89
-5 0 13 15.52 1.37
-5 0 13 13.75 1.12
-5 0 12 1.42 0.69
-5 0 12 1.59 0.59
-5 0 12 1.49 0.58
-5 0 12 1.53 0.54
-5 0 11 4.3 1.54
-5 0 11 4.03 1.02
-5 0 11 2.92 0.73
-5 0 11 3.85 0.91
-5 0 10 3.02 1.4
-5 0 10 2.66 0.88
-5 0 10 2.03 0.9
-5 0 10 2.54 0.93
-5 0 9 287.73 9.13
-5 0 9 277.4 7.7
-5 0 9 297.13 8.54
-5 0 8 30.39 3.55
-5 0 8 30.08 2.93
-5 0 8 29.28 5.62
-5 0 8 17.7 4.24
5 0 -8 21.61 5.37
5 0 -8 24.24 4.9
-5 0 8 21.81 2.16
-5 0 8 23.88 2.41
-5 0 8 25.21 2.61
-5 0 7 27.8 3.28
-5 0 7 28.31 2.86
-5 0 7 23.46 5.08
5 0 -7 26.16 5.38
-5 0 7 24.83 4.82
5 0 -7 25.07 4.71
-5 0 7 25.72 2.46
-5 0 7 20.87 2.28
-5 0 7 25.68 2.8
-5 0 6 2.93 1.12
5 0 -6 1.93 1.24
-5 0 6 2.33 1.16
-5 0 6 3 0.99
-5 0 6 6.69 2.73
5 0 -6 4.44 2.12
-5 0 6 2.66 2.18
5 0 -6 3.91 1.88
-5 0 6 2.71 0.73
-5 0 6 2.63 0.74
-5 0 5 1.71 0.78
5 0 -5 1.63 1.23
-5 0 5 1.63 0.79
-5 0 5 1.59 0.71
-5 0 5 2.33 1.74
5 0 -5 1.51 1.78
5 0 -5 2.03 1.5
-5 0 5 2.36 0.66
-5 0 4 7.54 1.62
5 0 -4 11.18 2.79
-5 0 4 13.08 1.98
-5 0 4 9.86 1.46
-5 0 4 7.47 2.41
5 0 -4 9.73 2.8
5 0 -3 3.05 1.71
-5 0 3 4.06 1.99
5 0 -3 3.94 1.97
5 0 -2 5.29 1.85
5 0 -2 4.71 2.03
-5 0 2 5.23 1.95
5 0 -1 203.16 12.22
-5 0 1 183.66 6.19
-5 0 1 197.48 12.09
5 0 -1 187.94 12.39
-5 0 1 205.47 6.86
-5 0 1 178.4 6.75
-5 0 0 14.11 1.83
-5 0 0 14.59 3.57
-5 0 0 10.99 1.42
-5 0 0 10.73 1.54
5 0 0 13.79 3.21
-5 0 0 12.59 3
-5 0 0 12.41 1.73
5 0 0 13.61 3.64
-5 0 -1 75.34 4.2
-5 0 -1 78.9 8.91
5 0 1 75.29 7.82
-5 0 -1 74 3.68
-5 0 -1 66.36 7.1
-5 0 -1 70.92 4
-5 0 -1 70.33 4.06
-5 0 -2 18.45 2.09
-5 0 -2 18.67 4.58
-5 0 -2 16.27 1.78
5 0 2 15.71 3.67
-5 0 -2 16.3 2.02
-5 0 -2 17.14 1.96
-5 0 -3 205.94 6.51
-5 0 -3 206.26 7.46
-5 0 -3 200.71 6.6
-5 0 -4 79.67 4.53
-5 0 -4 67.3 3.68
-5 0 -4 71.23 4.4
-5 0 -4 68.09 3.63
-5 0 -5 20.72 2.22
-5 0 -5 18.45 1.79
-5 0 -5 19.78 2.33
-5 0 -6 0.41 0.41
-5 0 -6 0.6 0.34
-5 0 -6 0.23 0.43
-5 0 -7 0.23 0.4
-5 0 -7 0.71 0.31
-5 0 -7 0.97 0.39
-5 0 -7 0.72 0.45
-5 0 -8 260.07 4.84
-5 0 -8 262.14 5.3
-5 1 14 36.04 2.26
-5 1 13 3.14 0.89
-5 1 13 3.3 0.71
-5 1 13 4.46 0.73
-5 1 13 4.19 0.64
-5 1 12 1.47 0.82
-5 1 12 0.68 0.58
-5 1 12 1.63 0.63
-5 1 12 1.85 0.7
-5 1 12 2.55 0.78
-5 1 11 4.79 1.43
-5 1 11 4.56 1.26
-5 1 11 4.08 0.95
-5 1 11 4.92 1.01
-5 1 11 4.87 1.09
-5 1 10 284.5 9.04
-5 1 10 285.3 7.48
-5 1 10 293.72 8.31
-5 1 9 246.11 7.5
-5 1 9 255.41 7.47
-5 1 9 244.73 7.81
5 -1 -8 19.07 4.46
-5 1 8 14.71 2.52
-5 1 8 18.18 2.42
-5 1 8 11.44 3.37
5 -1 -8 11.92 3.8
5 -1 -8 14.13 3.62
-5 1 8 12.76 1.71
-5 1 8 13.61 1.9
5 -1 -7 1.18 1.47
-5 1 7 0.7 0.72
-5 1 7 0.06 0.62
-5 1 7 -0.06 1.04
5 -1 -7 0.57 0.91
5 -1 -7 0.33 1.14
-5 1 7 0.32 0.78
-5 1 7 0.43 0.73
-5 1 6 33.7 3.4
-5 1 6 42.52 3.45
-5 1 6 35.68 6.08
5 -1 -6 35.3 6.03
5 -1 -6 32.07 5.06
5 -1 -6 37.8 5.49
-5 1 6 30.17 2.35
-5 1 6 32.94 2.77
-5 1 6 35.49 3.41
-5 1 5 279.33 9.34
-5 1 5 323.77 8.82
-5 1 5 302.28 16.28
5 -1 -5 264.03 15.17
5 -1 -5 260.34 14.13
-5 1 5 264.61 7.53
-5 1 5 300.45 9.06
-5 1 4 87.22 8.6
5 -1 -4 84.01 7.89
5 -1 -4 76.38 7.8
5 -1 -3 4.39 1.83
-5 1 3 6.56 2.38
5 -1 -3 6.01 2.23
5 -1 -2 3.08 1.53
5 -1 -2 1.89 1.36
-5 1 2 1.97 1.12
5 -1 -2 2.9 1.51
5 -1 -1 41.52 5.71
5 -1 -1 39.19 5.65
-5 1 1 38.46 5.26
-5 1 1 37.81 2.99
5 -1 0 23.42 4.57
-5 1 0 22.55 4.56
5 -1 0 24.76 4.43
-5 1 0 21.29 3.85
-5 1 0 26.81 2.25
-5 1 0 25.22 2.43
-5 1 -1 1.75 0.71
-5 1 -1 2.08 1.53
-5 1 -1 2.65 0.75
-5 1 -1 0.09 0.67
5 -1 1 1.53 1.36
5 -1 1 1.8 1.36
-5 1 -1 1.81 0.74
-5 1 -2 115.74 5.09
-5 1 -2 123.67 11.44
5 -1 2 124.35 10.4
-5 1 -2 120.64 4.85
-5 1 -2 102.57 8.7
5 -1 2 100.68 9.01
-5 1 -2 106.34 5.03
-5 1 -3 6.31 2.55
-5 1 -3 6.81 1.19
5 -1 3 4.79 1.93
-5 1 -3 5.57 1.25
-5 1 -3 6.06 1.26
-5 1 -4 25.57 2.34
-5 1 -4 21.43 2.48
-5 1 -4 22.56 2.13
-5 1 -5 69.7 3.76
-5 1 -5 65.62 4.39
-5 1 -6 27.37 2.54
-5 1 -6 29.39 2.24
5 -1 6 27.44 2
-5 1 -6 25.82 2.68
-5 1 -7 1.74 0.61
-5 1 -7 1.17 0.41
5 -1 7 0.76 0.32
-5 1 -7 0.42 0.45
-5 1 -8 0.4 0.31
-5 1 -8 0.48 0.28
-5 1 -8 1.36 0.41
-5 1 -8 1.05 0.46
-5 1 -9 29.62 1.37
-5 2 13 9.81 1.18
-5 2 13 16.13 1.85
-5 2 13 14.93 1.13
-5 2 13 9.03 0.91
-5 2 12 1.71 0.73
-5 2 12 1.07 0.59
-5 2 12 1.49 0.48
-5 2 12 1.08 0.45
-5 2 11 1.68 1
-5 2 11 1.67 0.87
-5 2 11 2 0.67
-5 2 11 2.22 0.68
-5 2 11 2.01 0.71
-5 2 10 55.91 5.38
-5 2 10 53.4 4.19
-5 2 10 51.09 3.4
-5 2 10 54 3.27
-5 2 10 46.81 3.34
-5 2 9 270.25 11.93
-5 2 9 276.31 7.49
-5 2 9 253 7.99
-5 2 8 14.5 2.56
5 -2 -8 14.73 3.95
-5 2 8 20.5 2.68
-5 2 8 13.98 1.65
5 -2 -8 16.98 3.77
-5 2 8 15.89 1.83
-5 2 8 17.39 2.11
-5 2 7 18.27 2.65
-5 2 7 21.13 2.66
-5 2 7 20.26 4.79
5 -2 -7 20.36 4.51
5 -2 -7 22.21 4.62
-5 2 7 16.7 1.8
5 -2 -7 22.04 4.44
-5 2 7 17.44 1.84
-5 2 7 19.1 2.26
-5 2 6 27.85 3.07
-5 2 6 37.07 3.34
-5 2 6 27.52 5.25
5 -2 -6 35.29 6.04
5 -2 -6 28.68 5.05
5 -2 -6 31.39 4.92
-5 2 6 30.71 2.37
-5 2 6 29.98 2.66
-5 2 5 313.57 8.93
-5 2 5 288.87 16.41
5 -2 -5 266.66 15.64
5 -2 -5 233.61 13.67
-5 2 5 262.4 7.49
5 -2 -4 0.2 0.84
-5 2 4 1.68 1.91
5 -2 -4 0.49 1.11
-5 2 3 127.55 10.06
5 -2 -3 137.15 10.26
5 -2 -3 131.93 9.94
5 -2 -2 2.85 1.68
5 -2 -2 2.18 1.53
-5 2 2 2.6 1.7
5 -2 -2 2.59 2.05
5 -2 -1 26.16 4.7
5 -2 -1 26.1 4.68
-5 2 1 27.68 4.48
5 -2 0 59.13 6.67
-5 2 0 65.62 3.69
5 -2 0 60.09 7.25
-5 2 0 59.36 6.4
5 -2 1 2.82 1.83
-5 2 -1 1.27 1.73
5 -2 1 2 1.21
-5 2 -1 2.06 0.62
-5 2 -1 0.71 0.79
-5 2 -2 -0.26 0.64
5 -2 2 -1.54 1.54
-5 2 -2 -0.4 0.41
5 -2 2 0.58 0.72
5 -2 2 -0.91 0.72
-5 2 -3 86.08 9.77
5 -2 3 89.47 9.06
-5 2 -3 84 4.16
5 -2 3 66.11 7.62
-5 2 -3 81.06 4.43
-5 2 -4 19.82 2.06
-5 2 -4 12.89 1.92
-5 2 -4 17.4 1.97
-5 2 -5 330 8.47
5 -2 5 306.5 7.59
-5 2 -5 312.64 7.54
-5 2 -6 13.78 1.6
5 -2 6 10.13 1.42
-5 2 -6 10.43 1.65
-5 2 -7 18.29 1.85
-5 2 -7 21.32 1.82
5 -2 7 16.45 1.54
-5 2 -8 19.15 1.56
-5 2 -8 22.19 1.65
5 -2 8 20.28 1.41
-5 2 -9 22 1.35
-5 2 -9 23.86 1.4
-5 3 13 95.01 3.44
-5 3 13 84.28 2.53
-5 3 12 -0.19 0.59
-5 3 12 0.26 0.55
-5 3 12 -0.32 0.38
-5 3 12 0.1 0.32
-5 3 12 0.02 0.32
-5 3 11 0.04 0.57
-5 3 11 -0.27 0.46
-5 3 11 1.02 0.54
-5 3 11 0.71 0.55
-5 3 11 0.68 0.47
-5 3 10 1.67 0.9
-5 3 10 2.05 0.86
-5 3 10 1.68 0.83
-5 3 10 1.54 0.58
-5 3 10 1.95 0.81
-5 3 9 5.48 1.69
-5 3 9 4.16 1.33
-5 3 9 2.98 1.19
-5 3 9 4.29 0.91
-5 3 9 3.71 0.77
-5 3 9 2.72 0.87
-5 3 8 2.18 1.02
-5 3 8 1.53 0.87
-5 3 8 1.65 0.85
-5 3 8 1.41 0.57
-5 3 8 1.26 0.58
-5 3 8 1.43 0.7
5 -3 -7 8.04 2.85
-5 3 7 12.61 2.27
-5 3 7 11.54 3.8
5 -3 -7 14.83 4.12
-5 3 7 6.9 1.39
-5 3 7 9.55 1.36
5 -3 -7 12.23 3.28
-5 3 7 10.91 1.51
-5 3 7 9.73 1.7
-5 3 6 35.27 3.49
-5 3 6 21.45 2.24
-5 3 6 32.12 6.2
5 -3 -6 34.59 5.94
5 -3 -6 22.7 4.51
-5 3 6 24.31 2.07
5 -3 -6 36.7 5.34
-5 3 6 30.91 2.41
-5 3 6 26.31 2.61
5 -3 -5 9.54 1.53
-5 3 5 15.89 2.14
-5 3 5 12.75 1.66
-5 3 5 11.44 3.56
5 -3 -5 14.67 3.77
5 -3 -5 16.72 3.76
-5 3 5 12.39 1.39
-5 3 5 11.34 1.54
-5 3 5 11.23 1.69
5 -3 -4 10.61 3.06
-5 3 4 10.74 1.59
-5 3 4 13.61 3.56
5 -3 -4 12.65 3.29
-5 3 4 9.47 1.41
5 -3 -3 3.13 1.64
-5 3 3 6.64 2.25
5 -3 -3 6.2 2.37
5 -3 -2 8.89 2.74
-5 3 2 8.49 1.47
5 -3 -2 7.33 2.53
-5 3 2 8.11 2.62
5 -3 -2 10.8 2.92
5 -3 -1 1.09 0.93
5 -3 -1 0.88 0.98
-5 3 1 0.47 0.38
-5 3 1 2.1 1.17
5 -3 -1 1.12 0.96
5 -3 0 2.95 1.55
5 -3 0 3.14 2.03
-5 3 0 4.75 1.06
-5 3 0 5.76 2.05
5 -3 1 4.33 2.01
5 -3 1 6.26 2.17
-5 3 -1 5.6 1.09
5 -3 2 182.53 12.76
-5 3 -2 201.38 6.48
5 -3 2 179.28 13.39
5 -3 3 4.58 2.38
-5 3 -3 3.65 2.3
5 -3 3 2.8 1.5
-5 3 -3 3.94 1.01
5 -3 3 1.64 1.28
-5 3 -4 11.02 1.56
-5 3 -4 8.4 1.54
-5 3 -5 19.82 2.09
-5 3 -5 15.5 1.72
-5 3 -6 101.26 4.42
5 -3 6 89.55 4.17
-5 3 -7 61.36 3.29
5 -3 7 68.23 3.26
-5 3 -8 0.43 0.18
-5 3 -8 1.13 0.45
5 -3 8 0.64 0.29
-5 3 -8 0.54 0.3
-5 3 -9 1.44 0.42
-5 3 -9 1 0.4
5 -3 9 1.25 0.3
-5 4 13 3.27 0.61
-5 4 13 4.67 0.55
5 -4 -12 3.26 0.55
-5 4 12 4.3 1.02
-5 4 12 4.28 0.7
-5 4 12 5.84 0.79
-5 4 12 4.31 0.75
5 -4 -11 79.37 3.44
-5 4 11 93.81 4.9
-5 4 11 86.39 3.99
-5 4 11 99.39 3.8
-5 4 11 101.8 4.2
5 -4 -10 13.52 1.65
-5 4 10 18.08 2.44
-5 4 10 12.87 1.84
-5 4 10 16 1.73
-5 4 10 15.9 2.03
5 -4 -9 4.29 0.98
-5 4 9 5.44 1.58
-5 4 9 4.36 1.29
-5 4 9 5.27 1.02
-5 4 9 5.27 1.34
5 -4 -8 4.24 0.97
-5 4 8 6.13 1.76
-5 4 8 3.7 1.11
-5 4 8 4.22 1.03
-5 4 8 4.63 1.25
-5 4 7 12.98 2.52
-5 4 7 8.22 1.5
-5 4 7 10.18 1.44
-5 4 7 11.65 1.85
-5 4 6 117.83 6.58
-5 4 6 80.35 4.5
-5 4 6 114.75 12
5 -4 -6 111.7 10.78
5 -4 -6 112.08 10.63
-5 4 6 97.99 4.16
5 -4 -6 111.88 9.44
-5 4 6 90.19 5.07
-5 4 5 45.01 3.84
-5 4 5 36.86 2.99
-5 4 5 50.91 7.67
5 -4 -5 35.75 2.79
5 -4 -5 48.33 6.85
5 -4 -5 55.12 6.98
-5 4 5 40.04 2.56
5 -4 -5 41.97 5.68
-5 4 5 37.27 3.25
5 -4 -4 5.94 2.26
5 -4 -4 3.85 0.91
-5 4 4 4.45 1.21
-5 4 4 4.68 2.21
5 -4 -4 3.96 2.29
-5 4 4 5.37 1.22
-5 4 4 5.45 0.91
-5 4 4 4.5 1.02
5 -4 -3 25.23 4.55
5 -4 -3 24.56 2.09
-5 4 3 30.85 5.21
5 -4 -3 31.45 5.24
5 -4 -3 31.5 5.25
-5 4 3 29.27 2.03
5 -4 -2 255.22 13.08
5 -4 -2 198.28 5.84
-5 4 2 278.04 8.15
-5 4 2 239.32 13.67
5 -4 -2 254.91 14.1
5 -4 -2 241.95 14.4
-5 4 2 212.78 5.57
5 -4 -1 47.45 5.71
5 -4 -1 31.13 2.29
-5 4 1 54.95 3.53
-5 4 1 38.8 5.2
5 -4 -1 46.19 6.35
5 -4 -1 40.54 5.32
-5 4 1 37 2.3
5 -4 0 17.43 3.64
5 -4 0 16.85 1.71
-5 4 0 22.58 2.19
5 -4 0 17.33 3.89
-5 4 0 14.83 1.5
5 -4 1 17.54 3.91
5 -4 1 19.41 1.89
5 -4 1 21.65 4.57
5 -4 1 18.37 3.68
-5 4 -1 20.02 1.81
-5 4 -1 22.92 2.31
5 -4 2 194.7 12.85
5 -4 2 151.81 5.22
-5 4 -2 202.04 6.49
5 -4 2 166.95 12.57
5 -4 2 134.3 10.64
-5 4 -2 154.68 5.05
-5 4 -3 18.05 2
5 -4 3 16.05 1.71
5 -4 3 15.4 3.79
-5 4 -3 15.34 1.62
-5 4 -4 2.74 0.85
-5 4 -4 3.16 0.87
5 -4 4 3.16 0.8
5 -4 5 98.78 4.03
-5 4 -5 101.08 4.23
-5 4 -5 97.44 4.45
5 -4 6 19.96 1.71
-5 4 -6 23.5 1.88
-5 4 -7 28.94 2.13
5 -4 7 25.1 2.1
-5 4 -8 28.48 1.81
5 -4 8 26.31 1.76
-5 4 -9 17.34 1.15
5 -4 9 18.81 1.15
5 -5 -12 14.99 1.28
5 -5 -12 13.98 1.06
-5 5 12 12.78 1.38
-5 5 12 15.21 1.23
-5 5 12 18.29 1.23
-5 5 12 14.13 1.17
5 -5 -11 -0.4 0.51
5 -5 -11 -0.51 0.44
-5 5 11 0.6 0.54
-5 5 11 -0.03 0.32
-5 5 11 0.2 0.36
-5 5 11 -0.03 0.45
5 -5 -10 0.39 0.35
-5 5 10 2.18 1.06
-5 5 10 0.13 0.38
-5 5 10 1.12 0.6
-5 5 10 0.65 0.63
5 -5 -9 0.57 0.46
-5 5 9 1.31 1.07
-5 5 9 0.87 0.55
-5 5 9 0.74 0.52
-5 5 9 0.92 0.63
5 -5 -8 28.36 2.5
-5 5 8 34.44 4.11
-5 5 8 27.28 2.73
-5 5 8 32.48 2.52
-5 5 8 33.17 3.04
5 -5 -7 3.42 0.96
5 -5 -7 5.71 1.21
-5 5 7 3.52 1.63
-5 5 7 2.97 0.94
-5 5 7 3.67 0.97
-5 5 7 3.35 1.12
5 -5 -6 148.53 5.84
5 -5 -6 135.94 5.32
-5 5 6 161.08 7.99
-5 5 6 145.22 6.18
-5 5 6 149.96 5.27
-5 5 6 153.49 6.6
5 -5 -5 2.9 1.81
5 -5 -5 3.57 0.89
5 -5 -5 2.53 0.82
-5 5 5 3.02 1.14
-5 5 5 2.9 1.87
5 -5 -5 3.95 2.57
-5 5 5 4.45 1.09
5 -5 -5 2.52 1.51
-5 5 5 3.69 0.8
-5 5 5 5.71 1.38
5 -5 -4 22.36 2.14
-5 5 4 21.49 2.38
-5 5 4 20.46 4.7
5 -5 -4 29.07 5.73
5 -5 -4 21.12 4.57
-5 5 4 22.04 1.96
-5 5 4 21.32 2.38
5 -5 -3 8.41 2.69
5 -5 -3 6.67 1.16
-5 5 3 8.91 2.97
5 -5 -3 9.76 3.42
-5 5 3 9 1.19
-5 5 2 279.02 8.32
5 -5 -2 235.83 6.83
-5 5 2 257.33 14.39
5 -5 -2 273.05 15.22
5 -5 -2 235.5 14.59
-5 5 2 245.56 6.26
5 -5 -1 43.94 2.88
-5 5 1 55.25 3.61
5 -5 -1 51.13 6.48
5 -5 -1 35.67 5.54
-5 5 1 42.36 2.6
5 -5 0 203.03 6.23
-5 5 0 262.59 7.63
5 -5 0 197.86 13.24
5 -5 0 242.52 13.3
-5 5 0 212.08 5.87
5 -5 1 62.64 3.47
-5 5 -1 62.82 3.7
-5 5 -1 54.66 2.98
5 -5 2 0.21 1.1
5 -5 2 0.37 0.57
-5 5 -2 1.23 0.57
-5 5 -2 1.01 0.49
-5 5 -3 61.17 3.59
5 -5 3 53.94 3.21
-5 5 -3 51.5 3.08
5 -5 4 3.06 0.85
-5 5 -4 3.63 0.99
-5 5 -4 2.89 0.85
5 -5 5 1.07 0.68
-5 5 -5 0.51 0.55
-5 5 -5 -0.06 0.49
-5 5 -6 86.25 3.86
5 -5 6 79.79 3.51
-5 5 -6 81.19 3.62
-5 5 -7 75.68 3.19
5 -5 7 67.66 2.84
5 -5 7 69.91 3.36
-5 5 -7 63.89 2.89
-5 5 -8 29.86 1.75
5 -5 8 31.26 1.87
5 -5 9 26.18 1.29
5 -6 -11 1.72 0.7
5 -6 -11 1.79 0.44
-5 6 11 1.36 0.59
-5 6 11 1.4 0.46
-5 6 11 1.63 0.48
-5 6 11 1.07 0.42
5 -6 -10 102.71 3.66
-5 6 10 97.39 4.6
5 -6 -10 108.04 4.04
-5 6 10 111.83 4.43
-5 6 10 124.6 3.92
-5 6 10 123.95 4.52
5 -6 -9 -0.04 0.68
5 -6 -9 0.15 0.5
-5 6 9 0.87 0.76
-5 6 9 0.41 0.6
-5 6 9 0.46 0.52
-5 6 9 0.38 0.7
5 -6 -8 3.88 0.88
5 -6 -8 5.07 1.05
-5 6 8 5.74 1.52
-5 6 8 8.03 1.39
-5 6 8 7.55 1.28
-5 6 8 6.92 1.54
5 -6 -7 1.1 0.56
5 -6 -7 2.21 0.78
-5 6 7 0.84 0.86
-5 6 7 1.23 0.72
-5 6 7 0.82 0.47
-5 6 7 1.32 0.54
5 -6 -6 1.04 0.66
5 -6 -6 0.85 0.38
-5 6 6 0.26 0.45
-5 6 6 1.27 0.76
-5 6 6 0.13 0.43
-5 6 6 0.93 0.65
5 -6 -5 0.13 0.53
5 -6 -5 0.25 0.75
5 -6 -5 0.33 0.4
-5 6 5 1.25 0.69
-5 6 5 0.43 0.36
-5 6 5 1.59 0.98
5 -6 -4 26.67 2.73
5 -6 -4 28.73 2.42
-5 6 4 28.28 2.28
-5 6 4 28.87 2.95
5 -6 -3 79.76 4.64
5 -6 -3 87.03 4.39
-5 6 3 70.17 4.22
5 -6 -3 71.69 8.28
-5 6 3 90.17 4.01
5 -6 -2 2.25 1.43
5 -6 -2 0.55 0.66
-5 6 2 1.51 0.69
-5 6 2 1.92 0.68
5 -6 -1 4.03 1.6
5 -6 -1 6.78 1.22
5 -6 -1 5.65 1.04
-5 6 1 4.47 1.21
5 -6 -1 8.29 2.9
-5 6 1 5.96 1.12
5 -6 0 6.58 1.2
5 -6 0 6.31 1.23
-5 6 0 5.07 1.23
-5 6 0 6.39 1.11
5 -6 1 2.6 0.75
5 -6 1 1.73 0.78
-5 6 -1 2.27 0.86
-5 6 -1 2.71 0.81
-5 6 -2 14.39 1.89
5 -6 2 16.64 1.91
-5 6 -2 17.09 1.88
5 -6 2 18.11 2.02
5 -6 3 2.94 0.67
5 -6 3 4.81 1.05
-5 6 -3 3.38 0.89
-5 6 -3 5.12 1.1
5 -6 4 5.42 0.9
5 -6 4 4.96 1.02
-5 6 -4 5.97 1.14
-5 6 -4 6.44 1.18
-5 6 -5 268.42 6.85
5 -6 5 255.86 6.69
-5 6 -5 273.16 6.95
-5 6 -6 12.84 1.39
5 -6 6 12.76 1.45
-5 6 -6 14.11 1.49
-5 6 -7 24.56 1.67
5 -6 7 21.07 1.61
5 -6 7 23.37 1.91
-5 6 -7 24.21 1.73
-5 6 -8 19.04 1.12
5 -6 8 18.46 1.16
5 -6 8 21.28 1.47
5 -7 -10 0.94 0.41
-5 7 10 0.42 0.39
-5 7 10 0.75 0.42
-5 7 10 0.29 0.31
-5 7 10 0.22 0.33
5 -7 -9 9.97 1.17
5 -7 -9 9.64 1.19
-5 7 9 8.39 1.27
-5 7 9 11.49 1.42
-5 7 9 11.98 1.19
-5 7 9 9.96 1.36
5 -7 -8 218.74 6.15
-5 7 8 230.65 7
-5 7 8 224.81 5.68
-5 7 8 222.47 6.88
5 -7 -7 0.18 0.41
5 -7 -7 0.17 0.58
-5 7 7 1.23 0.64
-5 7 7 -0.19 0.59
5 -7 -7 0.6 0.74
-5 7 7 0.2 0.53
-5 7 7 0.6 0.72
5 -7 -6 5.99 1.39
5 -7 -6 6.31 1.24
5 -7 -6 5.27 1.1
-5 7 6 7.75 1.49
-5 7 6 7.94 1.24
-5 7 6 8.88 1.76
5 -7 -5 7.75 1.48
5 -7 -5 9.11 1.37
-5 7 5 9.9 1.31
-5 7 5 10.15 2.05
5 -7 -4 72.69 4.34
5 -7 -4 75.69 4.07
-5 7 4 71.81 3.61
-5 7 4 65.79 4.62
5 -7 -3 339.9 9.38
5 -7 -3 355.76 8.77
-5 7 3 338.74 7.78
5 -7 -2 260.35 7.51
-5 7 2 257.7 6.71
5 -7 -1 0.88 0.59
5 -7 -1 1.67 0.64
-5 7 1 0.3 0.39
-5 7 1 1.36 0.45
5 -7 0 5.53 1.1
5 -7 0 6.43 1.12
-5 7 0 6.26 1.11
-5 7 0 7.4 1.23
5 -7 1 74.71 3.93
-5 7 -1 85.8 3.94
-5 7 -1 81.61 3.83
5 -7 1 82.35 3.89
-5 7 -2 56.43 3.15
5 -7 2 52.68 3.29
-5 7 -2 56.21 3.17
5 -7 2 54.97 3.11
-5 7 -3 18.01 1.74
5 -7 3 16.93 1.77
-5 7 -3 18 1.86
5 -7 3 17.12 1.66
-5 7 -4 20.03 1.8
5 -7 4 22.44 2.06
-5 7 -4 20.3 1.9
5 -7 4 17.33 1.68
-5 7 -5 37 2.17
5 -7 5 29.22 2.2
-5 7 -5 32.55 2.37
5 -7 5 31.23 2.05
5 -7 6 117.03 3.96
-5 7 -6 98.49 3.5
-5 7 -6 117.13 4.06
5 -7 6 102.85 3.21
5 -7 7 13.41 1.22
5 -7 7 12.81 1.31
-5 7 -7 12.42 1.21
5 -7 8 6.12 0.72
5 -8 -9 16.7 1.27
-5 8 9 16.37 1.11
-5 8 9 16.06 1.34
5 -8 -8 3.05 0.7
5 -8 -8 4.46 0.87
-5 8 8 3.05 0.59
-5 8 8 4.39 0.82
5 -8 -7 1.8 0.66
5 -8 -7 2.24 0.63
-5 8 7 3.14 0.7
-5 8 7 1.99 0.62
5 -8 -6 0.33 0.41
-5 8 6 0.46 0.43
5 -8 -6 0.82 0.52
-5 8 6 -0.07 0.48
5 -8 -5 8.13 1.46
-5 8 5 10.54 1.36
5 -8 -5 11.17 1.51
-5 8 5 7.56 1.5
5 -8 -4 14.97 1.97
5 -8 -4 16.83 1.97
-5 8 4 16.83 1.74
-5 8 4 11.65 1.59
5 -8 -3 1.95 0.74
5 -8 -3 0.89 0.89
-5 8 3 1.32 0.59
5 -8 -2 7.45 1.19
5 -8 -2 6.57 1.23
-5 8 2 6.62 1.09
5 -8 -1 42.22 2.87
5 -8 -1 43.29 3.01
-5 8 1 42.62 2.77
5 -8 0 4.47 0.91
5 -8 0 5.74 1.16
-5 8 0 4.88 0.94
5 -8 1 93.63 4.41
-5 8 -1 99.38 4.15
5 -8 1 93.89 4.16
5 -8 2 13.85 1.62
-5 8 -2 13.89 1.56
5 -8 2 11.27 1.38
5 -8 3 191.26 5.88
-5 8 -3 199.5 5.79
5 -8 3 182.55 5.38
5 -8 4 0.98 0.49
5 -8 4 2.71 0.79
-5 8 -4 1.89 0.6
5 -8 5 41.39 2.41
-5 8 -5 36.96 2.26
5 -8 6 4.18 0.58
5 -8 6 3.9 0.72
-5 8 -6 2.83 0.58
-5 8 -6 5.33 0.8
5 -8 7 0.28 0.31
5 -8 7 0.32 0.21
-5 9 8 17.95 1.21
5 -9 -7 61.11 2.43
-5 9 7 66.28 2.27
5 -9 -6 0.68 0.46
5 -9 -6 0.99 0.35
-5 9 6 1.42 0.45
-5 9 6 1.52 0.52
5 -9 -5 3.12 0.88
5 -9 -5 3.14 0.79
-5 9 5 5.04 0.87
-5 9 5 2.59 0.72
5 -9 -4 4.3 0.87
-5 9 4 2.72 0.58
5 -9 -3 3.15 0.78
5 -9 -3 3.36 0.89
-5 9 3 3.61 0.73
5 -9 -2 42.01 2.68
5 -9 -2 44.65 2.8
-5 9 2 44.38 2.55
5 -9 -1 39.6 2.68
5 -9 -1 41.98 2.75
-5 9 1 40.42 2.43
5 -9 0 18.49 1.77
5 -9 0 18.79 1.86
-5 9 0 18.83 1.67
5 -9 1 10.17 1.42
-5 9 -1 10.03 1.23
5 -9 1 9.13 1.3
5 -9 2 -0.42 0.46
5 -9 2 -0.22 0.49
-5 9 -2 -0.45 0.48
5 -9 3 17.34 1.68
-5 9 -3 18.89 1.62
5 -9 3 16.06 1.52
5 -9 4 2.62 0.62
-5 9 -4 3.22 0.68
5 -9 5 1.83 0.47
5 -9 5 2.13 0.52
-5 9 -5 1.44 0.41
5 -9 6 0.64 0.32
5 -9 6 0.05 0.16
-5 9 -6 0.08 0.23
5 -10 -6 20.62 1.19
5 -10 -5 117.28 3.02
-5 10 5 117.95 2.75
5 -10 -4 7.51 0.93
5 -10 -4 8.66 0.98
-5 10 4 8.08 0.86
5 -10 -3 0.25 0.37
5 -10 -3 0.79 0.41
-5 10 3 0.23 0.32
5 -10 -2 1.95 0.58
5 -10 -2 1.92 0.53
-5 10 2 1.66 0.41
5 -10 -1 3.64 0.73
5 -10 -1 5.03 0.94
-5 10 1 4.46 0.75
5 -10 0 27.34 1.89
-5 10 0 26.52 1.72
5 -10 0 25.35 1.85
5 -10 1 38.37 2.22
-5 10 -1 39.85 2.08
5 -10 1 36.7 2.12
5 -10 2 29.84 1.87
-5 10 -2 30.34 1.8
5 -10 2 31.55 1.82
5 -10 3 41.22 2.04
-5 10 -3 39.76 1.9
5 -10 3 38.55 1.9
5 -10 4 18.32 1.21
-5 10 -4 18.76 1.2
5 -10 4 18.65 1.1
5 -11 -2 1.8 0.4
5 -11 -1 7.73 0.74
5 -11 0 77.95 2.26
-6 -6 9 0.34 0.29
-6 -6 8 26.88 1.99
-6 -6 7 73.76 2.77
-6 -6 7 122.3 4.44
-6 -6 6 23.19 1.66
-6 -6 6 36.16 2.59
-6 -6 5 6.1 1.15
-6 -6 5 3.22 0.63
-6 -6 5 4.86 1.05
-6 -6 4 6.23 1.07
-6 -6 4 5.71 0.97
-6 -6 4 8.79 1.3
-6 -6 4 8.48 1.15
-6 -6 3 0.5 0.35
-6 -6 3 0.77 0.45
-6 -6 2 48.6 2.79
-6 -6 2 55.91 2.76
-6 -6 1 10.48 1.22
-6 -6 1 11.26 1.18
-6 -6 0 49.15 2.4
-6 -5 10 11.7 1.08
-6 -5 10 12.32 1.06
-6 -5 10 13.72 1.17
-6 -5 9 3.72 0.95
-6 -5 9 1.8 0.47
-6 -5 9 3.72 0.66
-6 -5 9 4.37 0.84
-6 -5 8 8.94 1.49
-6 -5 8 7.31 1.09
-6 -5 8 7.14 0.99
-6 -5 8 8.35 1.24
-6 -5 7 18.95 1.88
-6 -5 7 15.77 1.7
-6 -5 7 17 2.09
-6 -5 6 6.86 1.45
-6 -5 6 4.1 1.01
-6 -5 6 5.59 1.07
-6 -5 6 4.47 0.93
-6 -5 6 6.47 1.16
-6 -5 5 3.6 1.15
-6 -5 5 1.31 0.63
-6 -5 5 3.38 0.82
-6 -5 5 3.8 0.98
-6 -5 5 4.61 1.01
-6 -5 5 3.05 0.86
-6 -5 5 4.63 0.94
-6 -5 4 48.93 3.12
-6 -5 4 58.06 3.59
-6 -5 4 63.5 3.31
-6 -5 4 53.89 3.5
-6 -5 3 35.86 2.58
-6 -5 3 35.99 2.79
-6 -5 3 40.67 2.69
-6 -5 3 31.88 2.55
-6 -5 2 1.14 0.6
-6 -5 2 0.25 0.37
-6 -5 2 0.49 0.48
-6 -5 1 3.36 0.86
-6 -5 1 3.53 0.87
-6 -5 0 5.59 1.09
-6 -5 0 7.25 1.05
-6 -5 -1 5.72 0.97
-6 -5 -1 5.8 0.81
-6 -5 -2 19.22 1.48
-6 -4 12 5.59 0.62
-6 -4 11 1.3 0.48
-6 -4 11 2.7 0.58
-6 -4 11 2.07 0.53
-6 -4 10 31.06 1.96
-6 -4 10 34.04 2.08
-6 -4 10 29.23 2.26
-6 -4 9 1.51 0.75
-6 -4 9 1.94 0.64
-6 -4 9 2.43 0.7
-6 -4 9 2.57 0.71
-6 -4 8 27.32 2.55
-6 -4 8 25.02 2.05
-6 -4 8 30.24 2.34
-6 -4 8 33.24 2.97
-6 -4 7 82.86 4.62
-6 -4 7 99.45 4.41
-6 -4 7 94.09 5.52
-6 -4 6 1.96 1.78
-6 -4 6 0.72 0.53
-6 -4 6 2.07 1.23
-6 -4 6 0.58 0.53
-6 -4 6 1.73 0.93
-6 -4 6 1.2 0.55
-6 -4 5 79.71 4.49
-6 -4 5 63.97 4
-6 -4 5 72.11 4.19
-6 -4 5 92.1 4.13
-6 -4 5 75.78 3.84
-6 -4 5 83.11 5.6
-6 -4 4 39.73 3.21
-6 -4 4 40.52 3.14
-6 -4 4 40.45 2.95
-6 -4 4 33.24 2.46
-6 -4 4 39.15 3.43
-6 -4 3 113.74 5.25
-6 -4 3 82.55 4.43
-6 -4 3 110.85 4.87
-6 -4 3 84.99 3.77
-6 -4 3 97.29 4.92
-6 -4 2 158.56 6.02
-6 -4 2 159.9 5.84
-6 -4 2 148.88 5.63
-6 -4 1 97.4 4.65
-6 -4 1 96.94 4.47
-6 -4 0 3.38 0.87
-6 -4 0 4.38 0.88
-6 -4 -1 1.93 0.64
-6 -4 -1 1.9 0.52
-6 -4 -2 33.26 1.92
-6 -4 -2 34.45 2.37
-6 -4 -2 34.96 1.99
-6 -4 -3 15.69 1.2
-6 -4 -3 17.13 1.46
-6 -3 12 18.08 1.6
-6 -3 12 18.93 1.25
-6 -3 11 34.12 2.63
-6 -3 11 33.8 2.01
-6 -3 11 34.66 2.01
-6 -3 10 27.17 2.62
-6 -3 10 26.6 2.01
-6 -3 10 31.08 2.17
-6 -3 9 10.38 1.72
-6 -3 9 6.87 1.2
-6 -3 9 9.17 1.33
-6 -3 9 11.31 1.48
-6 -3 9 9.81 1.72
-6 -3 8 66.62 4.54
-6 -3 8 57.97 3.55
-6 -3 8 66.21 3.51
-6 -3 8 74.44 3.87
-6 -3 8 82.09 4.92
-6 -3 7 3.28 1.24
-6 -3 7 2.22 1.03
-6 -3 7 1.87 0.83
-6 -3 7 2.7 0.83
-6 -3 7 2.81 0.79
-6 -3 6 10.47 2.32
-6 -3 6 11.66 1.98
-6 -3 6 9.36 1.73
-6 -3 6 11.66 1.75
-6 -3 6 14.04 1.62
-6 -3 6 11.55 1.59
-6 -3 5 5.02 1.59
-6 -3 5 3.39 0.95
-6 -3 5 4.35 1.2
-6 -3 5 4.93 1.43
-6 -3 5 2.72 0.82
-6 -3 5 5.82 1.05
-6 -3 5 4.57 1.08
-6 -3 4 140.78 6.4
-6 -3 4 143.48 5.56
-6 -3 4 122.7 4.91
-6 -3 4 141.73 6.75
-6 -3 3 8.09 1.56
-6 -3 3 8.17 1.51
-6 -3 3 4.72 1.16
-6 -3 3 8.82 1.45
-6 -3 3 7.74 1.15
-6 -3 2 3.62 1.24
-6 -3 2 6.79 1.36
-6 -3 2 3.63 0.94
-6 -3 2 5.02 0.98
-6 -3 2 6.32 1.23
-6 -3 1 17.77 2.18
-6 -3 1 15.05 1.92
-6 -3 1 18.54 2.04
-6 -3 0 1.23 0.64
-6 -3 0 -0.2 0.33
-6 -3 0 1.48 0.67
-6 -3 -1 20.39 1.9
-6 -3 -1 21.98 2.21
-6 -3 -1 21.8 2
-6 -3 -2 0.39 0.24
-6 -3 -2 0.06 0.25
-6 -3 -2 0.48 0.37
-6 -3 -3 120.58 4.04
-6 -3 -3 130.97 3.8
-6 -3 -4 14.75 1.26
-6 -3 -4 18.12 1.47
-6 -2 13 20.06 1.51
-6 -2 13 22.06 1.23
-6 -2 12 62.31 3.44
-6 -2 12 69.77 2.66
-6 -2 12 61.4 2.41
-6 -2 11 34.59 2.94
-6 -2 11 36.22 2.19
-6 -2 11 36.13 2.27
-6 -2 10 0.66 0.78
-6 -2 10 0.71 0.38
-6 -2 10 0.59 0.63
-6 -2 9 34.15 3.49
-6 -2 9 29.18 2.5
-6 -2 9 32.32 2.45
-6 -2 9 37.1 2.76
-6 -2 9 27.41 2.94
-6 -2 8 2.11 1.03
-6 -2 8 2.78 0.94
-6 -2 8 4.33 1.15
-6 -2 8 3.55 1.09
-6 -2 7 9.31 1.84
-6 -2 7 10.73 1.74
-6 -2 7 10.67 1.53
-6 -2 7 14.09 1.84
-6 -2 7 10.8 2.25
-6 -2 6 7.65 1.92
-6 -2 6 5.08 1.37
-6 -2 6 5.44 1.34
-6 -2 6 6.06 1.27
-6 -2 5 21.53 2.65
-6 -2 5 24.21 2.6
-6 -2 5 23.12 2.17
-6 -2 5 19.67 2.09
-6 -2 5 18.33 2.61
-6 -2 4 39.81 3.5
-6 -2 4 38.74 3.36
-6 -2 4 39.47 2.96
-6 -2 4 27.78 2.39
-6 -2 4 34.81 3.38
-6 -2 3 0.74 0.78
-6 -2 3 1.14 0.34
-6 -2 3 1.83 0.86
-6 -2 3 0.6 0.45
-6 -2 3 0.67 0.52
-6 -2 3 0.47 0.53
-6 -2 2 10.09 1.78
-6 -2 2 10.8 1.74
-6 -2 2 10.05 1.54
-6 -2 2 9.65 1.62
-6 -2 1 62.55 4.07
-6 -2 1 57.63 3.69
-6 -2 0 57.18 3.78
-6 -2 0 42.54 2.86
-6 -2 0 46.63 3.28
-6 -2 0 53.75 3.46
-6 -2 -1 2.04 0.7
-6 -2 -1 2.32 0.79
-6 -2 -1 2.11 0.73
-6 -2 -2 0.62 0.41
-6 -2 -2 0.35 0.32
-6 -2 -2 0.25 0.32
-6 -2 -3 73 3.53
-6 -2 -3 69.63 3.58
-6 -2 -3 67.79 3.12
-6 -2 -4 24.06 1.85
-6 -2 -4 25.41 1.95
-6 -2 -4 21.46 1.4
-6 -2 -5 5.54 0.76
-6 -2 -5 5.22 0.77
-6 -1 13 3.72 0.79
-6 -1 13 2.57 0.46
-6 -1 12 1.43 0.63
-6 -1 12 1.39 0.5
-6 -1 12 1.93 0.66
-6 -1 12 2.29 0.55
-6 -1 11 1.23 0.61
-6 -1 11 1.17 0.54
-6 -1 11 1.16 0.58
-6 -1 11 0.65 0.41
-6 -1 10 32.02 3.38
-6 -1 10 31.94 2.54
-6 -1 10 35.13 2.41
-6 -1 10 36.18 2.62
-6 -1 9 2.03 1.08
-6 -1 9 1.35 0.63
-6 -1 9 1.01 0.49
-6 -1 9 1.54 0.6
-6 -1 8 22.98 3.03
-6 -1 8 26.09 2.63
-6 -1 8 19.82 2
-6 -1 8 21.93 2.27
-6 -1 8 23.22 2.78
-6 -1 7 34.26 3.61
-6 -1 7 34.42 3.33
-6 -1 7 35.14 2.61
-6 -1 7 35.99 2.89
-6 -1 7 31.82 3.65
-6 -1 6 6.21 1.88
-6 -1 6 10.84 1.94
-6 -1 6 9.43 1.7
-6 -1 6 6.89 1.28
-6 -1 5 17.58 2.42
-6 -1 5 16.23 2.05
-6 -1 5 18.7 2
-6 -1 5 14.33 1.75
-6 -1 5 17.23 2.49
-6 -1 4 131.07 6.44
-6 -1 4 144.79 6.08
-6 -1 4 129.42 5.34
-6 -1 4 113.28 4.7
-6 -1 4 107.97 5.97
-6 -1 3 2.03 1.14
-6 -1 3 0.38 0.46
-6 -1 3 0.61 0.53
-6 -1 3 0.83 0.51
-6 -1 3 0.93 0.47
-6 -1 2 81.77 4.79
-6 -1 2 79.73 4.55
-6 -1 2 76.36 4.26
-6 -1 1 7.68 1.45
-6 -1 1 6.46 1.28
-6 -1 0 1.14 0.62
-6 -1 0 1.68 0.73
-6 -1 0 1.3 0.6
-6 -1 0 1.51 0.51
-6 -1 -1 98.55 5.01
-6 -1 -1 87.78 4.42
-6 -1 -1 93.51 4.55
-6 -1 -1 95 4.53
-6 -1 -2 128.42 5.24
-6 -1 -2 132.31 5.36
-6 -1 -2 129.89 5.09
-6 -1 -3 5.39 1.1
-6 -1 -3 6.33 1.12
-6 -1 -3 6.12 0.99
-6 -1 -4 4.52 0.91
-6 -1 -4 4.42 0.89
-6 -1 -4 4.09 0.7
-6 -1 -5 39.05 2.26
-6 -1 -5 37.17 2.23
-6 -1 -6 13.57 1.13
-6 -1 -6 10.24 0.92
-6 0 13 0.05 0.31
-6 0 13 0.31 0.23
-6 0 12 50.67 3.47
-6 0 12 48.4 2.41
-6 0 12 44.05 2.31
-6 0 11 12.25 1.98
-6 0 11 8.53 1.38
-6 0 11 13.38 1.71
-6 0 11 13.12 1.57
-6 0 10 2.79 1.29
-6 0 10 2.21 0.89
-6 0 10 3.07 0.95
-6 0 10 3.51 0.78
-6 0 9 1.29 1.01
-6 0 9 1.11 0.44
-6 0 9 2.42 0.99
-6 0 9 1.91 0.69
-6 0 8 16.25 2.51
-6 0 8 12.78 2
-6 0 8 11.67 1.55
-6 0 8 15.33 1.89
-6 0 7 69.07 5.07
-6 0 7 59.08 3.38
-6 0 7 69.31 4.08
-6 0 6 4.02 1.69
-6 0 6 4.37 1.29
-6 0 6 4.03 1.15
-6 0 6 3.63 0.95
-6 0 6 4.01 0.93
-6 0 5 81.42 5.16
-6 0 5 102.24 5.1
-6 0 5 70.4 4.02
-6 0 5 95.29 4.39
-6 0 5 79.86 4.14
-6 0 5 77.42 5.68
6 0 -4 12.22 3.36
-6 0 4 11.44 1.87
-6 0 4 12.77 1.76
-6 0 4 12.01 1.62
6 0 -4 12.01 3.21
-6 0 4 11.13 1.46
-6 0 4 15.07 1.81
-6 0 4 8.79 2.1
6 0 -3 -0.14 0.92
-6 0 3 0.18 0.31
-6 0 3 0.1 0.4
-6 0 3 -0.41 0.53
-6 0 3 0.24 0.35
-6 0 2 74.12 4.42
-6 0 2 70.7 3.64
-6 0 2 83.34 4.39
-6 0 2 75.74 4.28
-6 0 1 870.04 14.78
-6 0 1 836.08 12.52
-6 0 1 853.99 14.52
-6 0 0 362.53 9.29
-6 0 0 334.76 7.88
-6 0 0 361.61 9.48
-6 0 -1 2.55 0.81
-6 0 -1 2.37 0.7
-6 0 -1 2.17 0.75
-6 0 -2 0.18 0.31
-6 0 -2 0.19 0.32
-6 0 -2 -0.09 0.38
-6 0 -2 0.23 0.42
-6 0 -3 0.38 0.35
-6 0 -3 0.51 0.44
-6 0 -3 0.23 0.36
-6 0 -3 1.03 0.54
-6 0 -4 31.75 2.53
-6 0 -4 31.29 2.05
-6 0 -4 33.28 2.58
-6 0 -4 33.96 2.17
-6 0 -5 15.42 1.56
-6 0 -5 14.94 1.27
-6 0 -5 15.95 1.6
-6 0 -6 36.78 1.62
-6 0 -6 36.29 1.93
-6 1 13 22.45 1.78
-6 1 13 18.08 1.1
-6 1 12 6.88 1.37
-6 1 12 6.11 1.02
-6 1 12 8.36 1.04
-6 1 11 16.19 2.38
-6 1 11 17.06 1.86
-6 1 11 15.2 1.53
-6 1 11 18.05 1.79
-6 1 10 112.58 7.07
-6 1 10 125.06 5.46
-6 1 10 110.28 4.48
-6 1 10 116.06 4.94
-6 1 9 63.75 5.23
-6 1 9 73.14 4.54
-6 1 9 66.11 3.55
-6 1 9 70.34 4.09
-6 1 8 66.46 5.2
-6 1 8 67.27 3.71
-6 1 8 72.4 4.17
-6 1 7 1.1 0.73
-6 1 7 -0.35 0.43
-6 1 7 -0.23 0.54
-6 1 7 0.14 0.53
-6 1 6 22.4 2.8
-6 1 6 32.02 2.92
-6 1 6 27.73 2.53
6 -1 -5 1.15 1.52
-6 1 5 1.2 0.64
-6 1 5 1.55 0.8
-6 1 5 1.13 0.74
6 -1 -5 0.38 1.19
-6 1 5 1.7 0.66
6 -1 -4 5.18 2.29
-6 1 4 5.88 1.31
-6 1 4 8.84 1.48
-6 1 4 5.6 1.22
6 -1 -4 8.11 2.98
-6 1 4 9 3.09
-6 1 4 7.07 1.11
-6 1 4 6.37 1.19
6 -1 -3 -0.19 1.13
-6 1 3 1.69 0.72
-6 1 3 1.91 0.77
6 -1 -3 0.55 1.09
-6 1 3 1.07 0.58
-6 1 3 1.9 1.8
-6 1 3 1.41 0.7
6 -1 -2 4.63 2.06
-6 1 2 3.96 0.96
-6 1 2 4.59 0.99
6 -1 -2 5.47 2.48
-6 1 2 4.38 1.03
-6 1 2 2.97 1.01
-6 1 2 4.29 1.06
-6 1 1 521.05 10.93
-6 1 1 536.57 10.73
-6 1 1 538.32 10.73
-6 1 1 534.48 11.64
-6 1 0 0.19 0.39
-6 1 0 0.81 0.28
-6 1 0 0.52 0.42
-6 1 -1 2.97 0.81
-6 1 -1 2.57 0.72
-6 1 -1 2.3 0.75
-6 1 -2 36.92 2.76
-6 1 -2 40.64 2.99
-6 1 -3 50.24 3.13
-6 1 -3 42.84 2.91
-6 1 -4 12.41 1.68
-6 1 -4 12.35 1.41
-6 1 -4 10.03 1.45
-6 1 -4 12.4 1.4
-6 1 -5 19.28 1.87
-6 1 -5 19.37 1.62
-6 1 -5 15.87 1.64
-6 1 -6 11.57 1.28
-6 1 -6 10.66 1.05
-6 1 -7 29.63 1.55
-6 1 -7 31.12 1.36
-6 2 13 8.55 0.91
-6 2 13 11.73 0.86
-6 2 12 2.81 0.77
-6 2 12 2.71 0.72
-6 2 12 3.59 0.65
-6 2 11 7.13 1.49
-6 2 11 9 1.41
-6 2 11 7.5 1.17
-6 2 10 34.75 4.06
-6 2 10 36.24 3.03
-6 2 10 30.46 2.36
-6 2 10 35.77 2.76
-6 2 9 10.07 2.29
-6 2 9 14.59 2.2
-6 2 9 13.39 1.66
-6 2 9 14.64 1.9
-6 2 8 1.03 1
-6 2 8 1.78 0.94
-6 2 8 1.28 0.5
-6 2 8 2.14 0.76
-6 2 7 87.38 5.55
-6 2 7 97.5 4.18
-6 2 7 99.27 4.94
-6 2 6 0.89 0.71
-6 2 6 0.78 0.72
-6 2 6 1.03 0.53
-6 2 6 1.35 0.77
6 -2 -5 15.62 3.81
-6 2 5 17.64 2.22
6 -2 -5 17.98 4.21
-6 2 5 14.12 1.82
6 -2 -4 122.72 11.01
-6 2 4 160.9 6.14
-6 2 4 149.35 6.25
-6 2 4 176.03 13.42
6 -2 -4 132.49 10.95
6 -2 -4 109.2 10.2
-6 2 4 133.75 5.11
-6 2 4 143.38 5.68
6 -2 -3 5.59 2.36
-6 2 3 7.75 1.3
6 -2 -3 8.56 2.94
-6 2 3 7.82 1.45
-6 2 3 6.83 2.28
-6 2 3 6.56 1.38
6 -2 -2 10.08 3.13
-6 2 2 10.83 1.49
-6 2 2 9.18 1.5
6 -2 -2 7.71 2.58
-6 2 2 9.91 2.92
-6 2 2 10.88 1.65
-6 2 1 227.26 7.17
-6 2 1 221.02 7.66
-6 2 0 98.01 4.58
-6 2 0 106.4 5.28
-6 2 -1 35.38 2.71
-6 2 -1 36.19 3.06
-6 2 -2 5.21 1.09
-6 2 -2 6.15 1.23
-6 2 -3 115.57 4.94
-6 2 -3 105.37 4.69
-6 2 -4 98.91 4.27
-6 2 -4 89.2 3.86
-6 2 -5 32.9 2.56
-6 2 -5 37.36 2.36
-6 2 -6 8.25 1.15
-6 2 -6 11.15 1.13
-6 2 -7 0.18 0.22
-6 2 -7 -0.38 0.28
-6 3 12 2.47 0.72
-6 3 12 2.96 0.51
-6 3 12 3.77 0.64
6 -3 -12 1.99 0.5
-6 3 11 21.16 2.16
6 -3 -11 20.04 1.81
-6 3 11 25.87 2.33
-6 3 11 23.13 1.68
-6 3 10 4.99 1.28
6 -3 -10 1.48 0.72
-6 3 10 5.65 1.2
-6 3 10 4.03 0.94
-6 3 10 4.41 0.91
-6 3 9 52.53 3.23
-6 3 9 55.75 3.62
-6 3 8 19.99 2.61
-6 3 8 16.64 1.8
-6 3 8 18.3 2.18
6 -3 -7 3.85 1.1
-6 3 7 3.84 1.23
-6 3 7 0.9 0.55
-6 3 7 2.27 0.88
-6 3 6 0.32 0.3
-6 3 6 -0.21 0.6
-6 3 5 160.68 6.5
-6 3 5 156.77 5.92
-6 3 4 155.04 6.02
-6 3 4 185.38 7.24
6 -3 -4 142.56 11.96
-6 3 4 172.3 6.38
6 -3 -3 13.96 3.69
-6 3 3 18.6 2.24
6 -3 -3 13.94 3.67
6 -3 -2 139.03 11.1
-6 3 2 154.65 6.33
-6 3 2 139.68 11.05
6 -3 -2 115.63 10.92
-6 3 1 8.3 1.46
-6 3 0 5.62 1.15
-6 3 -1 96.06 4.6
-6 3 -1 89.22 4.96
-6 3 -2 76.31 4.09
-6 3 -2 69.69 4.26
-6 3 -3 33.68 2.65
-6 3 -3 31.48 2.69
-6 3 -4 0 0.36
-6 3 -4 -0.38 0.34
-6 3 -5 12.32 1.41
6 -3 5 9.11 1.22
-6 3 -5 9.92 1.19
-6 3 -6 8.46 1.17
-6 3 -6 11.39 1.18
6 -3 6 8.87 0.96
-6 3 -7 6.96 0.77
-6 3 -7 7.13 0.82
6 -4 -12 0.14 0.29
-6 4 12 -0.21 0.35
-6 4 12 0.09 0.24
-6 4 12 0.03 0.27
6 -4 -11 0.55 0.63
-6 4 11 1 0.73
-6 4 11 0.2 0.4
-6 4 11 0.6 0.49
6 -4 -10 44.37 2.89
-6 4 10 66.13 3.98
-6 4 10 42.71 2.87
-6 4 10 57.61 2.88
-6 4 10 62.27 3.39
6 -4 -9 23.83 2.26
-6 4 9 31.14 3.17
-6 4 9 27.17 2.21
-6 4 9 30.05 2.59
6 -4 -8 2.05 1.09
-6 4 8 2.33 1.02
-6 4 8 0.83 0.65
-6 4 8 0.41 0.59
-6 4 8 1.32 0.75
-6 4 7 88.36 3.94
-6 4 7 81.27 4.67
6 -4 -6 39.28 2.94
-6 4 6 49.16 3.86
-6 4 6 45.38 2.75
-6 4 6 47.85 3.55
6 -4 -5 0.44 0.58
-6 4 5 0.82 0.52
-6 4 5 -0.47 0.5
-6 4 5 0.66 0.52
6 -4 -4 18.41 1.96
-6 4 4 18.24 2.4
-6 4 4 16.78 1.65
6 -4 -3 41.14 2.71
-6 4 3 47.17 3.86
-6 4 3 41.94 2.53
-6 4 2 0.92 0.65
-6 4 2 0.55 0.38
-6 4 1 17.81 2.15
-6 4 1 13.6 1.42
-6 4 0 12.58 1.72
-6 4 0 11.9 1.35
-6 4 -1 39.4 2.94
-6 4 -1 32.71 2.25
-6 4 -2 31.44 2.57
-6 4 -3 6.23 1.19
-6 4 -3 5.63 1.18
-6 4 -4 72.88 3.75
-6 4 -4 59.78 3.3
6 -4 5 14.04 1.5
-6 4 -5 12.22 1.32
-6 4 -6 10.07 1.21
6 -4 6 11.96 1.17
-6 4 -7 0.08 0.15
6 -4 7 -0.2 0.19
-6 5 11 8.17 1.18
-6 5 11 11 0.98
-6 5 11 10.12 1.09
6 -5 -10 25.58 2.01
-6 5 10 26.34 2.33
-6 5 10 27.56 1.83
-6 5 10 32.72 2.35
6 -5 -9 28.55 2.32
-6 5 9 30.61 3
-6 5 9 34.24 2.27
-6 5 9 36.46 2.73
6 -5 -8 80.83 4.06
-6 5 8 81.82 5.5
-6 5 8 91.54 3.92
-6 5 8 96.5 4.69
6 -5 -7 17.99 2
-6 5 7 19.13 2.49
-6 5 7 18.53 1.86
-6 5 7 19.16 2.24
6 -5 -6 24.49 2.32
-6 5 6 21.61 2.59
-6 5 6 22.95 2.02
-6 5 6 20.54 2.48
6 -5 -5 -0.45 0.66
-6 5 5 -0.49 0.6
-6 5 5 0.27 0.39
6 -5 -4 175.99 5.96
-6 5 4 190.32 5.58
6 -5 -3 23.16 2.11
-6 5 3 23.19 1.92
6 -5 -2 41.06 2.76
-6 5 2 45.29 3.44
-6 5 2 39.05 2.49
6 -5 -1 44.07 2.82
-6 5 1 48.01 3.46
-6 5 1 39.98 2.53
6 -5 0 20.87 1.96
-6 5 0 24.48 2.43
-6 5 0 20.43 1.82
-6 5 -1 12.94 1.66
6 -5 1 8.81 1.24
-6 5 -1 11.22 1.33
6 -5 2 139.7 4.75
-6 5 -2 146.99 4.86
-6 5 -3 19.01 1.93
6 -5 3 16.7 1.58
-6 5 -3 17.18 1.57
-6 5 -4 40.88 2.35
-6 5 -4 37.35 2.6
-6 5 -5 0.03 0.34
-6 5 -5 0.28 0.29
-6 5 -5 0.23 0.34
-6 5 -6 41.22 2.08
6 -5 6 34.7 1.92
-6 5 -7 48.75 1.78
6 -5 7 35.86 1.58
6 -6 -11 24.12 1.27
-6 6 11 26.9 1.45
-6 6 11 35.79 1.43
-6 6 11 31.88 1.56
6 -6 -10 12.07 1.17
-6 6 10 10.98 1.25
-6 6 10 19.6 1.36
-6 6 10 17.29 1.5
6 -6 -9 12.78 1.42
-6 6 9 11.11 1.5
-6 6 9 16.61 1.51
-6 6 9 14.5 1.63
6 -6 -8 2.58 0.87
-6 6 8 0.79 0.57
-6 6 8 1.62 0.7
-6 6 8 2.53 0.88
6 -6 -7 0.08 0.47
-6 6 7 0.93 0.57
-6 6 7 0.35 0.47
6 -6 -6 46.01 3.01
-6 6 6 52.4 2.98
-6 6 6 45.17 3.73
6 -6 -5 13.59 1.68
-6 6 5 13.03 1.89
-6 6 5 14.41 1.53
-6 6 5 16.14 2.07
-6 6 4 17.71 2.18
-6 6 4 19.73 1.85
6 -6 -3 14.48 1.71
-6 6 3 15.73 2
-6 6 3 13.16 1.47
6 -6 -2 -0.41 0.66
-6 6 2 0.09 0.32
-6 6 2 0.3 0.34
6 -6 -1 20.33 1.99
-6 6 1 23.79 2.26
-6 6 1 21.33 1.87
6 -6 0 37.78 2.61
-6 6 0 44.31 3.06
-6 6 0 39.53 2.58
-6 6 -1 70.06 3.77
6 -6 1 63.18 3.4
-6 6 -1 73.36 3.46
6 -6 2 2.73 0.82
-6 6 -2 2.94 0.82
-6 6 -2 3.12 0.78
6 -6 3 2.23 0.7
-6 6 -3 2.33 0.63
-6 6 -3 2.67 0.65
-6 6 -4 100.94 3.88
6 -6 4 93.74 3.39
-6 6 -4 101.65 3.63
-6 6 -5 47.92 2.35
-6 6 -5 44.74 2.14
-6 6 -6 69.9 2.3
6 -6 6 59.19 2.43
6 -7 -10 1.89 0.43
-6 7 10 2.69 0.44
-6 7 10 1.98 0.43
6 -7 -9 0.53 0.44
-6 7 9 0.47 0.29
-6 7 9 0.4 0.26
-6 7 9 0.34 0.26
-6 7 9 0.57 0.4
6 -7 -8 1.99 0.76
-6 7 8 1.36 0.54
-6 7 8 2.42 0.71
-6 7 8 2.33 0.66
6 -7 -7 26.34 2.1
-6 7 7 21.66 1.9
-6 7 7 27.48 1.94
-6 7 7 25.51 2.3
6 -7 -6 23.26 2.08
-6 7 6 18.66 1.85
-6 7 6 26.96 2.04
-6 7 6 23.74 2.47
6 -7 -5 24.93 2.17
-6 7 5 28.54 2.05
6 -7 -4 189.11 5.96
-6 7 4 197.4 5.58
6 -7 -3 134.7 5.02
-6 7 3 134.48 4.63
6 -7 -2 18.59 1.85
-6 7 2 20.17 1.94
-6 7 2 21.65 1.82
-6 7 1 8.76 1.29
6 -7 -1 11.02 1.41
-6 7 1 12.07 1.44
-6 7 0 59.61 3.21
6 -7 0 66.72 3.45
-6 7 0 71.99 3.36
6 -7 1 0.23 0.47
-6 7 -1 0.83 0.52
-6 7 -1 0.51 0.45
6 -7 2 0.31 0.46
-6 7 -2 0.58 0.41
-6 7 -2 -0.32 0.51
6 -7 3 -0.12 0.48
-6 7 -3 0.25 0.24
-6 7 -3 0.37 0.33
6 -7 4 0.58 0.35
-6 7 -4 1.39 0.44
-6 7 -4 0.95 0.5
-6 7 -5 38.98 1.63
6 -7 5 39.09 1.81
-6 7 -5 37.47 1.85
6 -7 6 51.84 1.94
6 -8 -8 5.64 0.8
-6 8 8 4.85 0.68
6 -8 -7 9.23 1.1
-6 8 7 8.2 0.92
-6 8 7 6.94 0.95
6 -8 -6 8.02 1.14
-6 8 6 6.63 0.87
-6 8 6 4.76 0.87
6 -8 -5 10.46 1.15
6 -8 -5 11.12 1.32
-6 8 5 7.19 0.98
-6 8 5 11.95 1.25
6 -8 -4 69.24 3.34
-6 8 4 67.17 3.05
6 -8 -3 -0.36 0.5
6 -8 -3 -0.25 0.59
-6 8 3 -0.1 0.37
-6 8 3 -0.52 0.6
6 -8 -2 34.03 2.12
6 -8 -2 38.78 2.52
-6 8 2 39.21 2.39
6 -8 -1 97.01 3.98
-6 8 1 103.66 3.81
6 -8 -1 98.58 3.53
6 -8 0 24.69 1.96
-6 8 0 25.38 1.91
6 -8 1 46.48 2.64
-6 8 -1 48.13 2.57
6 -8 2 15.34 1.44
-6 8 -2 16.21 1.46
6 -8 3 3.77 0.76
-6 8 -3 4.32 0.8
6 -8 4 4.28 0.66
-6 8 -4 3.66 0.65
6 -8 5 26.32 1.47
-6 8 -5 35.81 1.58
6 -9 -7 4.9 0.61
-6 9 7 6.62 0.62
6 -9 -6 2.28 0.52
-6 9 6 2.81 0.49
6 -9 -5 23.41 1.66
-6 9 5 22.62 1.45
6 -9 -4 32.71 2
-6 9 4 33 1.83
6 -9 -3 85.4 3.28
-6 9 3 84.75 3.08
6 -9 -2 16.83 1.5
-6 9 2 17.58 1.4
6 -9 -2 14.49 1.25
6 -9 -1 19.6 1.64
-6 9 1 17.34 1.45
6 -9 -1 16.41 1.31
6 -9 0 3.34 0.58
6 -9 0 3.95 0.72
-6 9 0 4.37 0.74
6 -9 1 22.98 1.66
-6 9 -1 25.44 1.68
6 -9 1 20.68 1.34
6 -9 2 14.38 1.24
-6 9 -2 16.05 1.32
6 -9 3 0.87 0.44
-6 9 -3 0.49 0.36
6 -10 -4 10.85 0.85
6 -10 -3 13.51 1.02
-6 10 3 14.92 0.99
6 -10 -2 -0.02 0.33
-6 10 2 -0.5 0.33
6 -10 -1 105.83 2.95
-6 10 1 107.59 2.83
6 -10 0 0.39 0.29
-6 10 0 0.81 0.35
6 -10 1 -0.04 0.33
-6 10 -1 -0.26 0.25
-7 -5 6 39.54 1.9
-7 -5 5 0.49 0.25
-7 -5 4 0.33 0.27
-7 -5 3 1.45 0.43
-7 -4 9 5.02 0.72
-7 -4 9 6.61 0.78
-7 -4 8 2.65 0.58
-7 -4 8 3.11 0.61
-7 -4 7 5.65 0.96
-7 -4 7 7.2 0.93
-7 -4 6 23.55 1.88
-7 -4 6 30.08 1.86
-7 -4 5 11.46 1.35
-7 -4 5 13.52 1.36
-7 -4 4 -0.23 0.25
-7 -4 4 0.96 0.46
-7 -4 3 6.18 1.03
-7 -4 3 4.52 0.75
-7 -4 3 7.14 1.01
-7 -4 2 32.61 1.96
-7 -4 2 47.84 2.42
-7 -4 1 17.64 1.36
-7 -4 1 24.89 1.6
-7 -4 0 0.62 0.22
-7 -3 10 11.42 1.2
-7 -3 10 13.79 1.1
-7 -3 9 3 0.69
-7 -3 9 2.45 0.57
-7 -3 8 20.57 1.95
-7 -3 8 25.02 1.81
-7 -3 7 3.09 0.85
-7 -3 7 2.61 0.69
-7 -3 6 0.99 0.53
-7 -3 6 1.56 0.61
-7 -3 5 8.61 1.29
-7 -3 5 7.12 1.15
-7 -3 5 6.72 1
-7 -3 4 4.73 0.99
-7 -3 4 5.66 0.89
-7 -3 4 5.9 0.98
-7 -3 3 4.5 0.95
-7 -3 3 3.72 0.82
-7 -3 2 1.93 0.71
-7 -3 2 1.03 0.47
-7 -3 2 1.33 0.48
-7 -3 1 26.63 1.91
-7 -3 1 42.09 2.47
-7 -3 0 46 2.37
-7 -3 0 60.47 2.67
-7 -3 -1 32.43 1.67
-7 -2 11 1.6 0.48
-7 -2 11 1.65 0.4
-7 -2 10 1.47 0.58
-7 -2 10 0.68 0.45
-7 -2 10 0.69 0.36
-7 -2 10 1.62 0.5
-7 -2 9 2.01 0.7
-7 -2 9 1.66 0.63
-7 -2 8 27.05 2.57
-7 -2 8 27.33 2.27
-7 -2 8 25.23 1.98
-7 -2 7 37.02 3.01
-7 -2 7 33.13 2.61
-7 -2 7 31.49 2.27
-7 -2 6 60.39 3.83
-7 -2 6 69.23 3.32
-7 -2 5 18.72 2.11
-7 -2 5 25.31 2.03
-7 -2 5 21.06 1.78
-7 -2 4 27.05 2.49
-7 -2 4 31.47 2.36
-7 -2 4 29.9 2.04
-7 -2 3 56.6 3.48
-7 -2 3 74.59 3.65
-7 -2 2 19.89 1.99
-7 -2 2 23.96 2.1
-7 -2 1 4.75 1.04
-7 -2 1 6.89 1.11
-7 -2 0 21.78 1.8
-7 -2 -1 33.11 2.02
-7 -2 -1 40.98 2.26
-7 -2 -2 2.99 0.54
-7 -1 11 1.37 0.54
-7 -1 11 0.44 0.29
-7 -1 11 1.11 0.46
-7 -1 11 1.47 0.49
-7 -1 10 1.23 0.53
-7 -1 10 0.66 0.38
-7 -1 10 0.95 0.41
-7 -1 10 2.02 0.55
-7 -1 9 -0.52 0.58
-7 -1 9 -0.07 0.36
-7 -1 9 -0.07 0.43
-7 -1 9 -0.75 0.63
-7 -1 8 93.91 4.98
-7 -1 8 95.89 4.09
-7 -1 7 0.62 0.41
-7 -1 7 0.79 0.49
-7 -1 7 0.9 0.4
-7 -1 6 112.8 5.1
-7 -1 6 92.59 4.06
-7 -1 5 0.06 0.52
-7 -1 5 1.98 0.69
-7 -1 5 1.06 0.5
-7 -1 5 1.39 0.45
-7 -1 4 44.11 3.27
-7 -1 4 45.49 2.89
-7 -1 4 40.81 2.48
-7 -1 3 68.59 3.91
-7 -1 3 86.09 4.06
-7 -1 2 20.36 2.1
-7 -1 2 23.58 2.15
-7 -1 1 3.88 0.98
-7 -1 1 4.51 0.98
-7 -1 0 19.11 1.83
-7 -1 -1 0.81 0.34
-7 -1 -1 1.76 0.62
-7 -1 -2 9.06 1.04
-7 -1 -2 14.69 1.29
-7 -1 -3 0.61 0.28
-7 -1 -3 0.13 0.21
-7 0 12 7.82 0.73
-7 0 11 8.97 1.26
-7 0 11 6.78 0.93
-7 0 11 10.84 1.11
-7 0 10 0.67 0.54
-7 0 10 0.6 0.39
-7 0 10 0.29 0.65
-7 0 10 0.3 0.36
-7 0 9 25.86 2.82
-7 0 9 34.19 2.66
-7 0 9 29.09 2.08
-7 0 9 36.05 2.44
-7 0 8 1.34 0.67
-7 0 8 0.36 0.67
-7 0 8 0.6 0.38
-7 0 7 21.25 2.48
-7 0 7 24.94 2.23
-7 0 6 36.04 2.91
-7 0 6 31.31 2.4
-7 0 5 9.24 1.61
-7 0 5 12.82 1.8
-7 0 5 12.24 1.48
-7 0 5 10.9 1.38
-7 0 4 3.98 0.95
-7 0 4 6.04 1.26
-7 0 4 4.99 1.03
-7 0 3 17.5 2
-7 0 3 18.72 2.13
-7 0 3 20.46 2.11
-7 0 2 15.01 1.82
-7 0 2 20.03 2.08
-7 0 1 10.21 1.49
-7 0 1 15.13 1.73
-7 0 0 1.11 0.43
-7 0 0 3.73 0.86
-7 0 -1 1.06 0.46
-7 0 -1 1.53 0.61
-7 0 -2 10.08 1.22
-7 0 -2 13.73 1.35
-7 0 -3 38.82 2.12
-7 0 -3 47.65 2.18
-7 0 -4 23.46 1.41
-7 1 12 3.69 0.6
-7 1 12 7.17 0.74
-7 1 11 0.16 0.31
-7 1 11 -0.37 0.36
-7 1 11 -0.3 0.34
-7 1 10 332.14 7.47
-7 1 10 315.96 6.76
-7 1 9 33.13 3.25
-7 1 9 36.15 2.77
-7 1 9 31.52 2.32
-7 1 8 8.56 1.61
-7 1 8 10.07 1.62
-7 1 8 6.23 1.2
-7 1 8 9.5 1.38
-7 1 7 0.75 0.57
-7 1 7 0.52 0.51
-7 1 7 -0.02 0.45
-7 1 7 0.62 0.57
-7 1 6 4.44 1.09
-7 1 6 5.11 1.12
-7 1 6 2.66 0.79
-7 1 6 3.66 0.9
-7 1 5 45.18 3.41
-7 1 5 69.83 4.04
-7 1 5 45.16 3.11
-7 1 5 63.36 3.38
-7 1 5 53.44 3.02
-7 1 4 61.12 3.79
-7 1 4 63.3 3.5
-7 1 4 87.21 4.41
-7 1 4 79.03 4.06
-7 1 3 19.12 2.02
-7 1 3 21.27 2.02
-7 1 3 24.06 2.38
-7 1 2 33.02 2.56
-7 1 2 39.52 2.66
-7 1 2 42.16 3.06
-7 1 1 4.02 0.85
-7 1 1 4.53 1.03
-7 1 0 66.1 3.28
-7 1 0 72.06 3.84
-7 1 -1 14.31 1.59
-7 1 -1 13.43 1.52
-7 1 -2 0.06 0.31
-7 1 -2 -0.2 0.32
-7 1 -2 0.16 0.28
-7 1 -3 1.85 0.54
-7 1 -3 2.44 0.53
-7 1 -3 2.47 0.56
-7 1 -4 15.47 1.27
-7 1 -4 18.62 1.14
-7 2 12 4.76 0.71
-7 2 12 6.76 0.72
-7 2 11 -0.32 0.38
-7 2 11 0.36 0.29
-7 2 11 0.63 0.33
-7 2 10 26.86 2.37
-7 2 10 29.86 2.35
-7 2 10 25 2.11
-7 2 10 28.37 2.04
-7 2 9 47.9 3.45
-7 2 9 46.67 3.29
-7 2 8 0.84 0.62
-7 2 8 1.31 0.65
-7 2 8 1.2 0.71
-7 2 8 0.98 0.44
-7 2 7 0.62 0.53
-7 2 7 1.11 0.55
-7 2 7 1.46 0.58
-7 2 6 1.33 0.67
-7 2 6 0.51 0.5
-7 2 6 0.53 0.37
-7 2 5 98.49 4.69
-7 2 5 84.21 4.57
-7 2 5 84.55 3.78
-7 2 5 87.02 4
-7 2 4 2.99 0.87
-7 2 4 2.4 0.61
-7 2 4 2.77 0.87
-7 2 3 80.9 4.14
-7 2 3 68.99 3.76
-7 2 3 77.47 4.23
-7 2 2 8.96 1.4
-7 2 2 8.01 1.47
-7 2 1 28.24 2.34
-7 2 1 28.66 2.62
-7 2 0 52.75 3.08
-7 2 0 58.14 3.56
-7 2 -1 31.24 2.31
-7 2 -1 34.67 2.6
-7 2 -2 1.03 0.52
-7 2 -2 1.1 0.56
-7 2 -2 1.22 0.42
-7 2 -3 16.12 1.58
-7 2 -3 21.01 1.61
-7 2 -3 20.22 1.61
-7 2 -4 26.06 1.55
-7 2 -4 24.71 1.38
-7 2 -5 20.79 1.28
-7 3 11 3.04 0.71
-7 3 11 2.86 0.66
-7 3 11 4.28 0.72
-7 3 10 69.43 3.45
-7 3 10 66.2 3.05
-7 3 9 1.43 0.74
-7 3 9 -0.27 0.69
-7 3 9 0.82 0.46
-7 3 8 13.88 1.89
-7 3 8 12.76 1.92
-7 3 8 11.56 1.55
-7 3 7 18 2.09
-7 3 7 15.41 2.17
-7 3 7 16 1.87
-7 3 6 2.72 0.83
-7 3 6 2.75 0.93
-7 3 6 2.3 0.74
-7 3 5 2.55 0.84
-7 3 5 1.76 0.98
-7 3 4 -0.12 0.47
-7 3 4 0.43 0.42
-7 3 4 -0.02 0.3
-7 3 3 26.05 2.86
-7 3 3 32.23 2.75
-7 3 2 8.58 1.57
-7 3 2 10.85 1.65
-7 3 1 0.51 0.55
-7 3 1 0.39 0.38
-7 3 0 11.21 1.53
-7 3 0 11.89 1.68
-7 3 -1 9.26 1.39
-7 3 -1 9.42 1.47
-7 3 -2 9.81 1.26
-7 3 -2 10.1 1.33
-7 3 -3 1.07 0.47
-7 3 -3 0.19 0.32
-7 3 -4 33.19 2.04
-7 3 -4 40.93 1.86
-7 3 -5 11.07 0.96
-7 3 -5 16.62 1.05
-7 4 11 52.77 2.38
-7 4 11 55.47 2.4
-7 4 10 4.19 0.93
-7 4 10 4.08 0.9
-7 4 10 4.32 0.78
-7 4 9 0.63 0.48
-7 4 9 0.55 0.61
-7 4 9 0.38 0.5
-7 4 8 3.33 1.01
-7 4 8 2.43 0.97
-7 4 8 3.28 0.68
-7 4 8 2.97 0.8
-7 4 7 61.08 3.76
-7 4 7 62.47 4.21
-7 4 7 57.13 3.46
-7 4 6 22.79 2.19
-7 4 6 19.33 2.44
-7 4 6 20.39 2.02
-7 4 5 4.95 1.04
-7 4 5 5.64 1.39
-7 4 4 -0.61 0.71
-7 4 4 0.4 0.34
-7 4 3 4.19 1.1
-7 4 3 3.63 1.05
-7 4 2 48.5 3.4
-7 4 2 38.98 3.22
-7 4 1 27.84 2.38
-7 4 1 21.05 2.43
-7 4 0 65.15 3.57
-7 4 0 62.33 3.89
-7 4 -1 5.62 1.04
-7 4 -1 4.7 1
-7 4 -2 30.91 2.33
-7 4 -2 31.72 2.33
-7 4 -3 15.41 1.46
-7 4 -3 12.65 1.32
-7 4 -4 5.06 0.77
-7 4 -4 5.54 0.7
-7 4 -5 2.17 0.4
-7 4 -5 5.61 0.62
-7 5 10 9.15 1.01
-7 5 10 9.54 1.11
7 -5 -9 0.09 0.42
-7 5 9 1.02 0.61
-7 5 9 -0.38 0.35
-7 5 9 0.16 0.32
-7 5 9 0.24 0.36
7 -5 -8 30.3 2.1
-7 5 8 27.37 2.34
-7 5 8 32.52 2.67
-7 5 8 30.64 1.99
-7 5 8 32.63 2.38
7 -5 -7 1.01 0.58
-7 5 7 0.08 0.32
-7 5 7 0.21 0.42
-7 5 7 0.36 0.48
-7 5 7 1.36 0.66
7 -5 -6 14.06 1.51
-7 5 6 17 2.04
-7 5 6 14.09 1.43
-7 5 6 15.26 1.64
7 -5 -5 1.64 0.38
-7 5 5 1.04 0.64
-7 5 5 0.9 0.49
-7 5 4 0.66 0.63
-7 5 4 0.53 0.32
-7 5 4 -0.01 0.37
-7 5 3 8.7 1.44
-7 5 3 7.74 0.99
-7 5 3 6.61 1.31
-7 5 2 121.3 5.06
-7 5 2 107.88 3.72
-7 5 1 28.07 2.3
-7 5 1 22.9 1.63
-7 5 1 23.73 2.62
-7 5 0 135.08 4.83
-7 5 0 128.1 5.49
-7 5 -1 100.03 4.09
-7 5 -1 95.98 4.44
-7 5 -2 9.39 1.23
-7 5 -2 8.43 1.23
-7 5 -3 59.08 2.69
-7 5 -3 44.16 2.42
7 -5 4 12.45 0.97
-7 5 -4 16.14 1.1
7 -6 -9 0.16 0.29
-7 6 9 1.22 0.4
-7 6 9 0.77 0.34
-7 6 9 0.47 0.36
7 -6 -8 0.97 0.56
-7 6 8 0.64 0.47
-7 6 8 0.47 0.31
-7 6 8 0.35 0.34
7 -6 -7 22.61 1.75
-7 6 7 26.57 2.27
-7 6 7 30.11 1.84
-7 6 7 26.6 2.08
7 -6 -6 1.81 0.37
-7 6 6 2.11 0.71
-7 6 6 2.37 0.63
7 -6 -5 4.87 0.87
-7 6 5 4.98 1
-7 6 5 5.71 0.86
-7 6 4 10.2 1.49
7 -6 -4 8.62 1.17
-7 6 4 10.23 1.18
-7 6 4 7.77 1.13
7 -6 -3 1.99 0.58
-7 6 3 2.82 0.77
-7 6 3 2.22 0.56
-7 6 3 2.36 0.82
7 -6 -2 1.14 0.57
-7 6 2 -0.02 0.32
-7 6 2 0.19 0.39
7 -6 -1 1.06 0.86
-7 6 1 0.37 0.44
-7 6 1 0.68 0.49
-7 6 0 14.21 1.5
-7 6 0 14.21 1.31
-7 6 0 11.39 1.73
-7 6 -1 0.2 0.32
-7 6 -1 0.62 0.31
-7 6 -1 0.88 0.59
-7 6 -2 2.22 0.59
-7 6 -2 2.91 0.57
-7 6 -2 2.37 0.7
-7 6 -3 4.92 0.69
-7 6 -3 3.24 0.69
-7 6 -4 41.27 1.62
7 -7 -8 108.81 2.87
-7 7 8 101.93 2.84
7 -7 -7 0.57 0.36
-7 7 7 0.82 0.38
-7 7 7 1.23 0.39
7 -7 -6 1.14 0.45
-7 7 6 1.18 0.47
-7 7 6 1.08 0.36
7 -7 -5 11.48 1.16
-7 7 5 8.77 1.08
-7 7 5 11.17 1.05
7 -7 -4 139.29 4.21
-7 7 4 146.29 4.07
7 -7 -3 143 4.31
-7 7 3 121.36 4.08
-7 7 3 155.62 4.21
-7 7 3 116.03 4.42
7 -7 -2 54.43 2.62
-7 7 2 61.09 2.66
7 -7 -1 1.99 0.37
-7 7 1 1.65 0.4
-7 7 1 1.86 0.43
7 -7 0 0.82 0.45
-7 7 0 0.09 0.22
-7 7 0 0.54 0.34
-7 7 -1 9.29 1.02
7 -7 1 8.64 0.91
-7 7 -1 10.49 1.02
-7 7 -1 6.94 1.27
-7 7 -2 22.34 1.39
-7 7 -2 23.46 1.37
-7 7 -3 23.37 1.4
7 -8 -6 0.63 0.27
-7 8 6 3.78 0.65
7 -8 -5 12.06 1.03
-7 8 5 13.27 1.07
7 -8 -4 18.95 1.44
-7 8 4 19.78 1.38
-7 8 3 11.95 0.95
7 -8 -3 17.65 1.36
-7 8 3 20.4 1.39
-7 8 3 11.49 1.07
7 -8 -2 0.85 0.38
-7 8 2 -0.11 0.28
-7 8 2 0.69 0.27
-7 8 2 0.79 0.36
7 -8 -1 2.05 0.51
-7 8 1 1.53 0.36
-7 8 1 1.97 0.45
7 -8 0 15.55 1.16
-7 8 0 18.15 1.26
7 -8 1 24.46 1.31
-7 8 -1 27.88 1.44
-7 8 -2 0.96 0.33
-7 9 3 0.07 0.24
-7 9 2 4.05 0.52
-7 9 1 12.31 0.89
-8 -2 7 4.9 0.71
-8 -2 6 0.03 0.24
-8 -2 5 3.52 0.65
-8 -2 4 6.51 0.78
-8 -2 3 0.54 0.25
-8 -2 2 17.77 1.19
-8 -1 8 1.03 0.39
-8 -1 8 0.78 0.28
-8 -1 7 16.82 1.51
-8 -1 7 24.22 1.4
-8 -1 6 6.91 0.98
-8 -1 5 3.21 0.64
-8 -1 5 5.01 0.73
-8 -1 4 14.35 1.36
-8 -1 4 21.75 1.59
-8 -1 3 -0.5 0.35
-8 -1 2 -0.1 0.29
-8 -1 1 12.55 1.09
-8 -1 0 0.03 0.18
-8 0 9 4.35 0.76
-8 0 9 3.39 0.6
-8 0 8 5.6 0.95
-8 0 8 6.57 1.07
-8 0 8 5.73 0.8
-8 0 7 34.99 2.29
-8 0 7 43.51 2.05
-8 0 6 0.47 0.27
-8 0 5 0.27 0.27
-8 0 5 0.01 0.26
-8 0 4 0.88 0.38
-8 0 4 1.58 0.5
-8 0 3 11.63 1.21
-8 0 2 26.24 1.79
-8 0 1 284.63 5.66
-8 0 0 61.18 2.35
-8 1 9 9.43 1.16
-8 1 9 9.94 0.97
-8 1 8 18.17 1.69
-8 1 8 17.9 1.41
-8 1 7 8.03 1.21
-8 1 7 5.98 0.79
-8 1 6 74.02 3.52
-8 1 5 0.76 0.38
-8 1 4 8.14 1.03
-8 1 3 25.6 1.87
-8 1 2 65.49 3.02
-8 1 1 171.72 4.68
-8 1 0 8.44 0.96
-8 1 -1 4.08 0.59
-8 2 9 0.03 0.31
-8 2 9 0.51 0.27
-8 2 8 0.82 0.5
-8 2 8 1.05 0.37
-8 2 8 1.24 0.37
-8 2 7 23.07 1.68
-8 2 7 31.18 1.83
-8 2 6 8.4 1.05
-8 2 6 16 1.6
-8 2 5 0.82 0.58
-8 2 5 0.32 0.25
-8 2 4 49.11 2.49
-8 2 4 68.51 2.99
-8 2 3 25.3 1.76
-8 2 3 34.03 2.2
-8 2 2 9.34 1.04
-8 2 2 12.77 1.37
-8 2 1 51.66 2.37
-8 2 1 66.18 3.05
-8 2 0 15.26 1.21
-8 2 0 21.28 1.62
-8 2 -1 0.96 0.29
-8 2 -1 0.66 0.31
-8 3 9 10.43 1
-8 3 9 10.79 1.2
-8 3 8 -0.57 0.55
-8 3 8 -0.21 0.36
-8 3 8 -0.6 0.4
-8 3 7 9.76 1.22
-8 3 7 12.97 1.45
-8 3 6 3.72 0.84
-8 3 6 2.28 0.53
-8 3 5 72.82 3.28
-8 3 4 39.49 2.42
-8 3 4 45.61 2.36
-8 3 3 2.86 0.67
-8 3 3 2.84 0.59
-8 3 2 1.67 0.56
-8 3 2 1.82 0.58
-8 3 1 0.15 0.24
-8 3 1 -0.41 0.4
-8 3 0 17.04 1.37
-8 3 0 16.41 1.5
-8 3 -1 24.31 1.42
-8 3 -1 27.38 1.66
-8 4 9 4.33 0.64
-8 4 8 0.41 0.44
-8 4 7 12.54 1.16
-8 4 7 20.16 1.8
-8 4 6 0.12 0.36
-8 4 5 -0.18 0.37
-8 4 4 43.81 2.56
-8 4 4 36.58 2.03
-8 4 3 69.62 3.09
-8 4 3 55.94 2.78
-8 4 2 8.94 1.06
-8 4 2 7.32 1.05
-8 4 1 1.92 0.48
-8 4 1 1.43 0.59
-8 4 0 3.35 0.66
-8 4 0 5.98 0.81
-8 4 0 5.88 0.92
-8 4 -1 2.62 0.52
-8 4 -1 2.07 0.48
-8 5 8 5.57 0.75
-8 5 7 28.36 1.9
-8 5 6 6.4 0.9
-8 5 5 0.34 0.4
-8 5 4 71.76 3.01
-8 5 4 47.64 2.07
-8 5 3 51.48 2.53
-8 5 3 35.95 2.1
-8 5 2 3.14 0.61
-8 5 2 3.14 0.73
-8 5 1 39.55 2.05
-8 5 1 30.07 2.2
-8 5 0 48.75 2.17
-8 5 0 45.26 2.39
-8 5 -1 7.17 0.77
-8 5 -1 6.52 0.8
-8 6 7 5.09 0.61
-8 6 6 12.79 1.08
-8 6 5 0.21 0.25
-8 6 4 17.33 1.32
-8 6 3 26.59 1.63
-8 6 3 19.77 1.34
-8 6 2 0 0.2
-8 6 2 0.24 0.35
-8 6 1 2.29 0.52
-8 6 1 1.38 0.55
-8 6 0 0.64 0.31
-8 6 0 0.44 0.4
loop_
_exptl_oxdiff_crystal_face_indexfrac_h
_exptl_oxdiff_crystal_face_indexfrac_k
_exptl_oxdiff_crystal_face_indexfrac_l
_exptl_oxdiff_crystal_face_x
_exptl_oxdiff_crystal_face_y
_exptl_oxdiff_crystal_face_z
-4.5017 0.4166 2.8350 0.0153 0.5527 0.8333
-0.1430 -6.0787 0.4870 -0.0179 -0.7388 0.6737
4.5273 -0.8028 -2.8261 -0.0165 -0.6035 -0.7972
0.0278 6.1113 -0.4159 0.0183 0.7556 -0.6547
-3.4495 -2.9151 1.0582 -0.1767 0.0034 0.9843
0.1191 1.1419 -7.5219 -0.9908 0.0254 -0.1328
3.4592 3.0318 -1.8420 0.0732 -0.0008 -0.9973
-0.0337 -1.0683 7.4852 0.9938 -0.0255 0.1083
