#------------------------------------------------------------------------------
#$Date: 2022-03-06 06:37:54 +0200 (Sun, 06 Mar 2022) $
#$Revision: 273468 $
#$URL: file:///home/coder/svn-repositories/cod/cif/1/56/59/1565966.cif $
#------------------------------------------------------------------------------
#
# This file is available in the Crystallography Open Database (COD),
# http://www.crystallography.net/
#
# All data on this site have been placed in the public domain by the
# contributors.
#
data_1565966
loop_
_publ_author_name
'Wildner, Manfred'
'Zakharov, Boris A.'
'Bogdanov, Nikita E.'
'Talla, Dominik'
'Boldyreva, Elena V.'
'Miletich, Ronald'
_publ_section_title
;
 Crystallography relevant to Mars and Galilean icy moons: crystal behavior
 of kieserite-type monohydrate sulfates at extraterrestrial conditions
 down to 15 K
;
_journal_issue                   2
_journal_name_full               IUCrJ
_journal_page_first              194
_journal_page_last               203
_journal_paper_doi               10.1107/S2052252521012720
_journal_volume                  9
_journal_year                    2022
_chemical_formula_sum            'H2 Ni O5 S'
_chemical_formula_weight         172.79
_space_group_crystal_system      monoclinic
_space_group_IT_number           15
_space_group_name_Hall           '-C 2yc'
_space_group_name_H-M_alt        'C 1 2/c 1'
_atom_sites_solution_hydrogens   difmap
_audit_creation_method           SHELXL-2017/1
_cell_angle_alpha                90
_cell_angle_beta                 117.724(10)
_cell_angle_gamma                90
_cell_formula_units_Z            4
_cell_length_a                   6.8252(10)
_cell_length_b                   7.6070(10)
_cell_length_c                   7.4587(10)
_cell_measurement_temperature    273(2)
_cell_volume                     342.79(9)
_computing_structure_refinement  'SHELXL-2017/1 (Sheldrick, 2017)'
_diffrn_ambient_temperature      273(2)
_diffrn_measured_fraction_theta_full 1.000
_diffrn_measured_fraction_theta_max 1.000
_diffrn_radiation_type           MoK\a
_diffrn_radiation_wavelength     0.71073
_diffrn_reflns_av_R_equivalents  0.0240
_diffrn_reflns_av_unetI/netI     0.0109
_diffrn_reflns_Laue_measured_fraction_full 1.000
_diffrn_reflns_Laue_measured_fraction_max 1.000
_diffrn_reflns_limit_h_max       12
_diffrn_reflns_limit_h_min       -12
_diffrn_reflns_limit_k_max       13
_diffrn_reflns_limit_k_min       -13
_diffrn_reflns_limit_l_max       13
_diffrn_reflns_limit_l_min       -13
_diffrn_reflns_number            10744
_diffrn_reflns_point_group_measured_fraction_full 1.000
_diffrn_reflns_point_group_measured_fraction_max 1.000
_diffrn_reflns_theta_full        25.242
_diffrn_reflns_theta_max         39.925
_diffrn_reflns_theta_min         4.289
_exptl_absorpt_coefficient_mu    6.145
_exptl_absorpt_correction_T_max  0.7482
_exptl_absorpt_correction_T_min  0.6371
_exptl_absorpt_correction_type   multi-scan
_exptl_absorpt_process_details
;
 SADABS 2016/2: Krause, L., Herbst-Irmer, R., Sheldrick G.M. & Stalke D.,
 J. Appl. Cryst. 48 (2015) 3-10
;
_exptl_crystal_density_diffrn    3.348
_exptl_crystal_F_000             344
_refine_diff_density_max         0.671
_refine_diff_density_min         -0.681
_refine_diff_density_rms         0.113
_refine_ls_extinction_coef       0.0247(13)
_refine_ls_extinction_expression Fc^*^=kFc[1+0.001xFc^2^\l^3^/sin(2\q)]^-1/4^
_refine_ls_extinction_method     'SHELXL-2017/1 (Sheldrick 2017)'
_refine_ls_goodness_of_fit_ref   1.127
_refine_ls_hydrogen_treatment    refall
_refine_ls_matrix_type           full
_refine_ls_number_parameters     40
_refine_ls_number_reflns         1064
_refine_ls_number_restraints     0
_refine_ls_restrained_S_all      1.127
_refine_ls_R_factor_all          0.0162
_refine_ls_R_factor_gt           0.0154
_refine_ls_shift/su_max          0.000
_refine_ls_shift/su_mean         0.000
_refine_ls_structure_factor_coef Fsqd
_refine_ls_weighting_details
'w=1/[\s^2^(Fo^2^)+(0.0210P)^2^+0.3400P] where P=(Fo^2^+2Fc^2^)/3'
_refine_ls_weighting_scheme      calc
_refine_ls_wR_factor_gt          0.0408
_refine_ls_wR_factor_ref         0.0411
_reflns_Friedel_coverage         0.000
_reflns_number_gt                1031
_reflns_number_total             1064
_reflns_threshold_expression     'I > 2\s(I)'
_cod_data_source_file            lt5044.cif
_cod_data_source_block           NiSO4H2O_N2_273K
_cod_depositor_comments
'Adding full bibliography for 1565934--1565967.cif.'
_cod_original_sg_symbol_H-M      'C 2/c'
_cod_database_code               1565966
_shelx_shelxl_version_number     2017/1
_shelx_space_group_comment
;
The symmetry employed for this shelxl refinement is uniquely defined
by the following loop, which should always be used as a source of
symmetry information in preference to the above space-group names.
They are only intended as comments.
;
_shelx_res_file
;
TITL 1991nikies 273K Apex in C2/c kieserite cell
    latt_corr_for_Nonius20C_nikies273K_0m.res
    created by SHELXL-2017/1 at 09:38:13 on 01-Dec-2018
REM meas. mon  6.8134(1) 7.5953(1) 7.3916(1) 90.0 116.9418(4) 90.0
REM trans. cryscomp 6.8134 7.5953 7.4446 90.0  117.733 90.0
REM meas.trcl 6.8134(1) 7.5953(1) 7.3917(1) 90.0080(5) 116.9417(4) 89.9935(5)
REM trans. cryscomp 6.8134 7.5953 7.4446 89.998 117.733 89.994
REM CELL 0.71073   6.8134 7.5953 7.4446 90.0  117.733 90.0
REM latt corr for Nonius20C +.0118 +.0117 +.0141     -.0088
CELL 0.71073   6.8252 7.6070 7.4587 90.0 117.724   90.0
ZERR    4.00   0.001   0.001   0.001   0.00   0.01   0.00
LATT  7
SYMM -X, Y, .5-Z
SFAC O H S NI
UNIT 20 8 4 4
SHEL 20 0.55285
REM DAMP 10000
L.S. 10
CONN 12 1.8 $O
EQIV $9 -x+1/2, y+1/2, -z+1/2
BOND $H
FMAP 2
PLAN 20
ACTA
HTAB O3 O2_$9
HTAB
WGHT    0.021000    0.340000
EXTI    0.024720
FVAR       0.73458
NI    4    0.000000    0.500000    0.000000    10.50000    0.00521    0.00627 =
         0.00552    0.00023    0.00223   -0.00020
S     3    0.000000    0.156809    0.250000    10.50000    0.00403    0.00542 =
         0.00597    0.00000    0.00201    0.00000
O1    1    0.172791    0.046679    0.403530    11.00000    0.00647    0.01321 =
         0.01249    0.00631    0.00356    0.00321
O2    1    0.103389    0.270059    0.154771    11.00000    0.00893    0.00856 =
         0.01225    0.00377    0.00657    0.00120
O3    1    0.000000    0.631082    0.250000    10.50000    0.00765    0.00925 =
         0.00760    0.00000    0.00372    0.00000
H     2    0.108034    0.694729    0.294470    11.00000    0.01970
HKLF 4 1  -1 0 0 0 -1 0 1 0 1




REM  1991nikies 273K Apex in C2/c kieserite cell
REM R1 =  0.0154 for    1031 Fo > 4sig(Fo)  and  0.0162 for all    1064 data
REM     40 parameters refined using      0 restraints

END

WGHT      0.0211      0.3397

REM Instructions for potential hydrogen bonds
EQIV $5 x+1/2, y+1/2, z
HTAB O3 S_$5
HTAB O3 O2_$9

REM Highest difference peak  0.671,  deepest hole -0.681,  1-sigma level  0.113
Q1    1  -0.0620  0.4294 -0.0084  11.00000  0.05    0.67
Q2    1   0.0707  0.4358  0.0079  11.00000  0.05    0.66
Q3    1   0.3387  0.1633  0.5003  11.00000  0.05    0.57
Q4    1   0.2500  0.7500  0.5000  10.50000  0.05    0.55
Q5    1   0.1862  0.6780  0.4983  11.00000  0.05    0.55
Q6    1   0.0733  0.4910  0.0947  11.00000  0.05    0.51
Q7    1   0.2500  0.2500  0.5000  10.50000  0.05    0.49
Q8    1   0.0831  0.1045  0.3427  11.00000  0.05    0.49
Q9    1   0.0749  0.2382  0.2341  11.00000  0.05    0.48
Q10   1   0.1814  0.3361  0.2429  11.00000  0.05    0.42
Q11   1   0.1418  0.0312  0.2644  11.00000  0.05    0.36
Q12   1   0.0575  0.2004  0.1638  11.00000  0.05    0.35
Q13   1   0.2477  0.3976  0.2454  11.00000  0.05    0.35
Q14   1  -0.0452  0.4781  0.0525  11.00000  0.05    0.27
Q15   1   0.1814 -0.0286  0.2494  11.00000  0.05    0.27
Q16   1   0.0460  0.3385  0.1380  11.00000  0.05    0.24
Q17   1   0.0000  0.4688  0.2500  10.50000  0.05    0.24
Q18   1   0.0390  0.2380  0.0875  11.00000  0.05    0.23
Q19   1   0.1705  0.5246  0.0869  11.00000  0.05    0.23
Q20   1   0.2218  0.1015  0.4782  11.00000  0.05    0.17
;
_shelx_res_checksum              81863
_shelx_hkl_file
;
   2   0   0 67.8784 2.94554   4
   2   0   0 81.3036 4.01567  10
  -2   0   0 69.9501 3.01674  16
  -2   0   0 70.8822 3.87118  10
  -2   0   0 75.5989 3.64435  11
  -2   0   0 71.7146 2.64626   5
  -2   0   0 73.6456 3.06775   1
  -4   0   0 9999.99 243.119   1
  -4   0   0 9555.07 242.192   8
  -4   0   0 9814.48 251.766  11
   4   0   0 9816.33 236.282   2
  -4   0   0 9738.67 240.383   5
   4   0   0 9774.79 243.547  14
   4   0   0 9463.64 244.450   4
   4   0   0 9579.62 258.768  10
   4   0   0 9864.96 244.742  12
  -4   0   0 9306.87 245.555  16
  -6   0   0 11.9121 3.76713  11
   6   0   0 10.1948 2.27053  12
  -6   0   0 13.0430 2.94119   1
  -6   0   0 11.9857 1.94632   5
  -6   0   0 11.6421 2.55789  16
  -6   0   0 16.4596 2.71031   8
   6   0   0 17.0539 2.81206  14
   6   0   0 10.2015 2.32462   4
   6   0   0 11.4878 3.70359  10
   8   0   0 1562.23 50.9501  10
   8   0   0 1621.62 45.1656  14
  -8   0   0 1659.85 46.8351   1
  -8   0   0 1622.71 44.9624   8
   8   0   0 1663.29 45.6944   4
   8   0   0 1607.23 45.4670  12
  -8   0   0 1657.38 51.6070  11
  10   0   0 7.50347 3.56333  12
  10   0   0 17.0554 3.88619  14
 -10   0   0 15.5141 7.27567  11
  10   0   0 15.4090 4.80864   4
 -10   0   0 22.8599 5.58452   1
  -1  -1   0 1602.42 39.9400  16
  -1  -1   0 1666.52 41.9261  10
   1  -1   0 1623.72 43.3611  10
  -1   1   0 1580.56 41.1309  16
  -1   1   0 1569.95 43.0528  10
   1   1   0 1683.47 40.5228  14
   1   1   0 1724.76 44.2957  10
  -1   1   0 1500.31 40.8130  13
  -3  -1   0 6.69299 1.17483   5
   3  -1   0 5.53220 0.94857   2
  -3  -1   0 8.92982 1.75285  16
  -3  -1   0 6.31924 1.49149  10
  -3  -1   0 6.07861 1.82935  11
   3  -1   0 4.41591 1.10695   4
   3  -1   0 5.41838 1.71737  10
   3  -1   0 11.3434 1.44975  12
  -3  -1   0 7.29174 1.19124   8
  -3   1   0 6.47723 0.83620   5
  -3   1   0 7.36618 1.82640  10
  -3   1   0 6.05061 1.09593  16
   3   1   0 9.11688 1.24901  12
  -3   1   0 5.64640 1.32570   1
   3   1   0 6.44358 1.64688  10
   3   1   0 6.62859 1.30543  14
   3   1   0 9.88419 1.54542   4
   5  -1   0 929.700 24.4873   2
   5  -1   0 999.859 31.1539  10
  -5  -1   0 917.236 26.1149   8
  -5  -1   0 943.342 27.7349  16
  -5  -1   0 944.124 26.9631   1
  -5  -1   0 946.213 25.9348   5
   5  -1   0 953.722 26.5899   4
  -5  -1   0 942.693 29.6047  11
   5  -1   0 938.901 26.3639  12
   5  -1   0 961.479 26.2365  14
  -5   1   0 958.680 26.1343   8
  -5   1   0 962.988 25.0585   5
   5   1   0 966.556 26.5260   4
  -5   1   0 994.045 26.5784  16
  -5   1   0 965.525 29.5321  11
   5   1   0 951.187 26.4067  12
   5   1   0 953.517 29.4220  10
  -5   1   0 961.256 27.2420   1
   5   1   0 974.521 26.5998  14
   7  -1   0 19.4502 3.82008   4
  -7  -1   0 21.0427 3.72909  16
   7  -1   0 24.8832 3.33536  14
   7  -1   0 27.5843 5.29300  10
  -7  -1   0 20.2155 3.91327   1
   7  -1   0 22.6275 3.52470  12
  -7  -1   0 26.2757 5.52288  11
  -7  -1   0 20.3895 3.40019   8
  -7  -1   0 25.5989 3.16114   5
  -7   1   0 30.6748 5.76495  11
   7   1   0 21.5943 3.50564   4
  -7   1   0 26.7169 3.40206   8
   7   1   0 23.1557 3.60425  12
   7   1   0 24.2659 3.41251  14
   7   1   0 26.0243 5.00414  10
  -7   1   0 27.6369 4.50833   1
  -9  -1   0 104.329 8.79263   1
   9  -1   0 108.537 8.05583  12
   9  -1   0 114.971 7.85701  14
  -9  -1   0 111.881 11.8155  11
   9  -1   0 108.233 8.55831   4
  -9   1   0 92.1558 8.79395   1
   9   1   0 100.203 8.00032  12
  -9   1   0 113.203 8.00893   8
   9   1   0 109.514 8.46975   4
   9   1   0 102.651 7.78437  14
  -9   1   0 108.061 11.4546  11
 -11  -1   0 58.5139 10.8587  11
 -11  -1   0 54.5244 7.04315   1
  11  -1   0 53.6095 6.60180   4
 -11   1   0 64.2006 8.66070   1
 -11   1   0 60.3412 10.6087  11
  11   1   0 59.1170 7.57627   4
   0  -2   0 2162.31 57.5668  10
   0  -2   0 2185.87 52.9057   2
   0   2   0 2193.78 54.6254  14
   0   2   0 2156.36 54.6894  13
   0   2   0 2200.14 52.8833   3
  -2  -2   0 792.088 20.9399  11
  -2  -2   0 782.972 19.9584  10
   2  -2   0 750.380 21.7926  10
  -2  -2   0 733.166 19.6194   1
   2  -2   0 733.295 19.5352   2
  -2  -2   0 769.746 20.8161  16
  -2  -2   0 770.947 19.7055   5
   2  -2   0 752.961 19.5543  12
  -2   2   0 722.904 19.0050   8
   2   2   0 747.344 19.1762   4
   2   2   0 769.480 19.6393  14
  -2   2   0 717.975 19.2158   3
   2   2   0 754.212 19.4765  12
  -2   2   0 719.740 18.6483  16
  -2   2   0 738.213 19.6359   7
  -2   2   0 758.675 21.7202  10
   2   2   0 741.466 19.6747  10
  -2   2   0 720.335 19.9102  13
   4  -2   0 2104.25 57.9979  10
  -4  -2   0 2136.33 56.5737  11
   4  -2   0 2088.39 53.6043  12
  -4  -2   0 2152.05 55.6528  16
  -4  -2   0 2174.26 53.7181   8
  -4  -2   0 2114.98 53.7026   5
   4  -2   0 2146.18 52.9392   2
   4  -2   0 2170.75 53.9328   4
  -4  -2   0 2035.06 53.9193   1
   4   2   0 2112.82 53.5770  12
   4   2   0 2126.76 53.5422   4
   4   2   0 2117.66 53.7989  14
   4   2   0 2185.19 55.7200  10
  -4   2   0 2133.02 52.8059  16
  -4   2   0 2158.17 51.9633   5
  -4   2   0 2147.40 53.2293   8
  -4   2   0 2105.76 54.3796   1
  -4   2   0 2108.11 54.4459  13
  -6  -2   0 1471.60 43.7724  11
  -6  -2   0 1470.86 41.7129  16
   6  -2   0 1445.10 39.1176  14
  -6  -2   0 1470.52 39.4952   8
   6  -2   0 1460.61 39.7413  12
  -6  -2   0 1489.19 39.3767   5
  -6  -2   0 1419.36 38.3043   6
  -6  -2   0 1443.47 40.1948   1
   6  -2   0 1465.26 45.4948  10
   6  -2   0 1453.70 39.8715   4
   6   2   0 1482.06 39.5746   4
  -6   2   0 1497.56 43.9101  11
   6   2   0 1451.02 42.5422  10
  -6   2   0 1483.81 40.8308   1
   6   2   0 1428.67 39.5772  12
   6   2   0 1482.14 39.7907  14
  -6   2   0 1485.57 39.0832   8
  -8  -2   0 840.270 31.3602  11
   8  -2   0 817.212 26.0621   4
   8  -2   0 785.759 25.7784  12
  -8  -2   0 803.496 24.9877   5
  -8  -2   0 805.523 26.6207   1
   8  -2   0 765.280 24.8561  14
  -8   2   0 805.106 31.1094  11
  -8   2   0 821.300 25.0686   8
  -8   2   0 834.065 27.2905   1
   8   2   0 835.016 25.8250   4
   8   2   0 771.323 25.4318  14
   8   2   0 827.157 26.1534  12
  10  -2   0 702.866 25.5092   4
  10  -2   0 737.160 26.7630  14
 -10  -2   0 738.791 32.2938  11
 -10  -2   0 735.377 26.6151   1
  10   2   0 690.684 25.3589  12
  10   2   0 706.071 24.9494   4
 -10   2   0 738.370 32.3946  11
 -10   2   0 740.359 27.5972   1
  -1  -3   0 136.085 5.67080  16
   1  -3   0 140.001 5.08947   2
   1  -3   0 136.420 4.57905   6
   1  -3   0 142.314 6.10112  10
  -1  -3   0 140.193 4.63336   2
  -1  -3   0 128.638 5.22386  11
  -1  -3   0 143.264 4.96245   5
   1  -3   0 146.228 5.03333  12
   1   3   0 141.077 4.89682  12
  -1   3   0 147.978 5.96914  10
  -1   3   0 138.485 5.27475  13
  -1   3   0 142.017 4.30944   8
  -1   3   0 135.632 4.65224   7
   1   3   0 133.919 4.85129   3
   1   3   0 138.423 4.73887  14
   1   3   0 138.143 5.09683  13
   1   3   0 139.162 4.23979   4
  -1   3   0 138.073 4.85786   3
   3  -3   0 959.898 26.0924  12
  -3  -3   0 1007.84 26.3373   1
   3  -3   0 958.883 26.0593   2
  -3  -3   0 1009.63 27.9110  11
  -3  -3   0 1012.83 26.4251   5
  -3  -3   0 1030.15 26.6799  10
   3  -3   0 989.647 29.6641  10
  -3  -3   0 1022.45 28.1360  16
  -3   3   0 964.816 24.6439  16
  -3   3   0 976.384 26.8230  13
  -3   3   0 970.689 26.2582   7
  -3   3   0 966.440 25.3710   8
   3   3   0 977.890 26.0970  12
  -3   3   0 958.762 25.6982   3
  -3   3   0 964.971 26.6118   1
   3   3   0 1004.89 26.2690  14
   3   3   0 986.901 25.5549   4
   5  -3   0 31.9708 3.58947   4
  -5  -3   0 27.3739 3.37818   1
   5  -3   0 20.3315 2.84740  12
  -5  -3   0 21.0098 2.82268   5
   5  -3   0 23.8283 2.77408   2
   5  -3   0 14.8778 4.11982  10
  -5  -3   0 22.6985 3.63791  16
  -5  -3   0 31.2961 4.79441  11
   5   3   0 18.3996 2.99007  10
   5   3   0 21.6209 3.02744  14
  -5   3   0 25.0879 2.62487   8
   5   3   0 23.7625 2.98370   4
  -5   3   0 16.3992 2.82550   1
   5   3   0 18.9474 2.72225  12
   7  -3   0 133.363 7.67649   4
   7  -3   0 121.333 6.85136  14
   7  -3   0 129.088 7.66637  12
   7  -3   0 126.077 11.0697  10
  -7  -3   0 135.722 8.30563   1
  -7  -3   0 141.823 7.68127   5
  -7  -3   0 150.721 11.1188  11
   7   3   0 121.438 7.47498  12
   7   3   0 135.794 7.41456   4
   7   3   0 131.761 7.89648  14
  -7   3   0 125.395 8.58195   1
  -7   3   0 133.453 10.4162  11
  -7   3   0 130.411 7.05375   8
   9  -3   0 0.40448 3.27891   4
  -9  -3   0 2.00577 4.67607  11
   9  -3   0 2.81466 2.25192  14
  -9  -3   0 1.51233 2.10861   5
   9  -3   0 2.12069 2.84822  12
  -9  -3   0 2.35995 3.48669   1
  -9   3   0 -0.6254 4.36425  11
  -9   3   0 -0.1384 2.51345   8
   9   3   0 1.88019 2.59481  12
  -9   3   0 0.19187 3.82639   1
   9   3   0 -0.2520 2.76457  14
   9   3   0 0.70809 3.21028   4
 -11  -3   0 4.35587 4.38678  11
  11  -3   0 -2.1929 3.72940   4
  11   3   0 -2.1400 3.30623   4
 -11   3   0 4.35562 5.54967  11
 -11   3   0 2.34698 4.48371   1
   0  -4   0 3284.65 80.9570   6
   0  -4   0 3294.18 80.7947  12
   0  -4   0 3347.72 89.7005  10
   0  -4   0 3375.33 81.0234   2
   0   4   0 3291.40 80.3355  14
   0   4   0 3315.34 80.8381  12
   0   4   0 3306.92 80.4932   7
   0   4   0 3295.72 81.2229  13
   0   4   0 3261.66 80.8012   3
   2  -4   0 6758.08 169.178  12
  -2  -4   0 6709.84 174.973  11
  -2  -4   0 6763.19 169.180   5
   2  -4   0 6970.06 182.395  10
  -2  -4   0 6444.46 166.403   2
   2  -4   0 6959.93 169.922   6
   2  -4   0 6920.30 173.580   2
  -2  -4   0 6876.06 178.300  16
  -2   4   0 6800.60 174.385  13
   2   4   0 7209.98 170.001   3
  -2   4   0 7089.88 174.125   7
   2   4   0 7252.61 174.616  14
  -2   4   0 6910.02 171.418   3
  -2   4   0 6746.29 170.225   8
   2   4   0 6905.98 170.888   4
  -2   4   0 6767.66 167.509  12
   2   4   0 7008.62 172.018  12
   4  -4   0 743.747 21.6018   4
   4  -4   0 742.910 21.7098   2
  -4  -4   0 824.665 24.5593  11
  -4  -4   0 798.804 24.5019  16
  -4  -4   0 780.186 22.3044   5
   4  -4   0 768.517 22.1287  12
   4  -4   0 770.231 26.6322  10
  -4  -4   0 790.698 22.3642   1
   4   4   0 739.335 21.9320  12
  -4   4   0 745.906 22.7286  13
  -4   4   0 746.114 20.8493   8
  -4   4   0 755.226 22.0746   7
   4   4   0 751.752 21.8825   3
   4   4   0 792.729 22.1182  14
  -4   4   0 740.814 22.5804   1
   4   4   0 768.639 21.1314   4
  -6  -4   0 1773.41 48.2665   6
  -6  -4   0 1763.37 52.3681  11
   6  -4   0 1778.41 48.4403   4
  -6  -4   0 1758.86 48.6195   1
  -6  -4   0 1818.93 48.8737   5
   6  -4   0 1795.65 55.6565  10
   6  -4   0 1790.89 47.3500   2
   6  -4   0 1841.83 48.9931  12
  -6   4   0 1787.49 52.4246  11
   6   4   0 1859.39 48.8293  14
   6   4   0 1849.87 48.8520  12
  -6   4   0 1820.07 47.4276   8
   6   4   0 1875.17 47.9549   4
  -6   4   0 1829.85 49.8980   1
  -8  -4   0 34.8878 7.35083  11
  -8  -4   0 35.0139 5.39125   1
  -8  -4   0 29.1507 4.46571   5
   8  -4   0 34.4820 5.25804   4
   8  -4   0 35.8863 4.92520  12
   8  -4   0 27.9367 3.68646  14
   8   4   0 37.1789 5.02346  12
  -8   4   0 38.2938 6.83727  11
  -8   4   0 25.9773 3.97476   8
   8   4   0 41.3298 5.07742  14
   8   4   0 44.0088 5.26514   3
   8   4   0 32.5685 4.82529   4
  -8   4   0 35.0688 5.92392   1
 -10  -4   0 448.597 19.5786   1
  10  -4   0 484.074 19.5660   4
 -10  -4   0 461.637 24.2874  11
  10   4   0 440.212 18.2677   3
  10   4   0 449.664 18.0753   4
 -10   4   0 457.340 24.7056  11
 -10   4   0 478.652 21.3857   1
   1  -5   0 73.7938 3.66951   6
   1  -5   0 75.7319 4.95923  10
   1  -5   0 71.2618 4.37632   2
  -1  -5   0 73.4381 4.27706   6
  -1  -5   0 76.4871 3.82575   2
  -1  -5   0 67.1733 3.74549   5
  -1  -5   0 76.5872 3.51334  10
   1  -5   0 74.6366 3.98487  12
  -1  -5   0 70.3678 4.31488  11
   1   5   0 74.2336 3.98917  12
   1   5   0 77.4110 4.29132  13
  -1   5   0 70.8685 3.55855   7
  -1   5   0 85.5481 4.49954  13
  -1   5   0 75.0931 4.04020   3
   1   5   0 73.4857 4.07695   3
  -1   5   0 71.1040 3.79854  12
  -1   5   0 72.0759 4.34777  10
   1   5   0 75.8445 3.72139  14
   3  -5   0 127.892 8.36327  10
  -3  -5   0 122.242 4.51614   2
  -3  -5   0 118.208 4.68451  10
   3  -5   0 120.904 4.42180   6
  -3  -5   0 115.000 6.71990  11
   3  -5   0 123.077 6.00386  12
   3  -5   0 124.397 6.27459   2
  -3  -5   0 133.113 6.17573   5
  -3   5   0 117.503 4.36840  16
   3   5   0 121.868 4.87781   4
  -3   5   0 116.194 5.58144   3
   3   5   0 111.565 5.70176  12
  -3   5   0 128.999 6.71713  13
  -3   5   0 126.377 5.57649   7
   3   5   0 127.002 5.77893  14
  -3   5   0 142.779 5.10689   8
   3   5   0 129.340 6.06497   3
  -5  -5   0 12.6857 2.86985   6
   5  -5   0 10.3344 2.64977  12
  -5  -5   0 12.3474 2.83757   1
   5  -5   0 10.6036 3.99862  10
  -5  -5   0 12.8303 2.48106   5
   5  -5   0 12.2891 2.68010   2
  -5  -5   0 13.3233 3.32847  11
   5  -5   0 11.1941 2.64482   4
   5   5   0 14.1030 2.76496  12
  -5   5   0 11.8149 2.10766   8
  -5   5   0 29.9583 3.89346  13
   5   5   0 11.5109 2.27553   4
  -5   5   0 12.6377 3.18934   1
  -5   5   0 26.2426 3.48099   7
   5   5   0 12.0949 2.80497   3
   5   5   0 17.4900 3.25692  14
  -7  -5   0 118.425 7.54590   6
  -7  -5   0 107.842 7.97871   1
   7  -5   0 120.045 7.54518  12
   7  -5   0 124.464 7.93959   4
   7  -5   0 123.613 7.03705   2
  -7  -5   0 112.069 9.47356  11
  -7  -5   0 111.659 7.31710   5
   7   5   0 127.472 7.06030   4
  -7   5   0 122.133 10.3886  11
   7   5   0 117.437 7.41976  12
  -7   5   0 121.402 6.82278   8
   7   5   0 120.244 7.83037   3
   7   5   0 118.719 7.99562  14
  -7   5   0 122.627 9.10695   1
  -9  -5   0 18.3623 4.80037   1
   9  -5   0 10.0650 4.06272   4
  -9  -5   0 18.3860 5.67712  11
  -9   5   0 24.0454 5.29618   1
  -9   5   0 21.1606 5.91629  11
   9   5   0 27.9847 4.85624   4
   9   5   0 12.4592 3.87208   3
   9   5   0 21.3838 3.97395  12
   0  -6   0 2586.00 64.1471   2
   0  -6   0 2462.98 63.6730  12
   0  -6   0 2517.30 64.0179   6
   0  -6   0 2567.76 64.5190  10
   0   6   0 2577.01 63.4026   7
   0   6   0 2567.03 63.9352   3
   0   6   0 2423.11 63.7288  12
   0   6   0 2576.88 63.1537  14
   0   6   0 2554.43 64.5090  13
   2  -6   0 184.091 6.91724   6
  -2  -6   0 183.043 8.26334   6
  -2  -6   0 194.603 6.04568  10
   2  -6   0 190.447 8.27803   2
  -2  -6   0 189.450 7.77519   5
   2  -6   0 188.859 7.80741  12
   2  -6   0 195.392 9.82623  10
  -2  -6   0 182.260 8.48301  11
  -2  -6   0 197.120 7.16423   2
  -2  -6   0 183.446 5.79761  10
   2   6   0 184.298 7.53057  14
  -2   6   0 191.101 7.71673   3
   2   6   0 194.312 7.97520   3
  -2   6   0 189.138 7.21148   7
   2   6   0 178.149 7.72998  12
   2   6   0 182.624 7.90847  13
  -2   6   0 189.383 6.47894   8
  -2   6   0 191.343 8.46457  13
   2   6   0 176.421 6.14037   4
   4  -6   0 2199.07 62.6689  10
  -4  -6   0 2243.07 57.9681   6
  -4  -6   0 2193.05 57.4672   5
   4  -6   0 2194.28 57.2617  12
  -4  -6   0 2129.25 59.2104  11
   4  -6   0 2157.22 55.9233   4
   4  -6   0 2221.47 57.2581   2
  -4   6   0 2200.87 56.2629   3
   4   6   0 2153.71 56.8487   3
  -4   6   0 2229.91 56.5966   7
  -4   6   0 2191.31 57.9666   1
   4   6   0 2212.65 56.8678  14
   4   6   0 2143.68 55.0093   4
  -4   6   0 2182.08 58.0558  13
  -4   6   0 2135.16 54.8549   8
   4   6   0 2171.16 57.0956  12
  -6  -6   0 235.635 13.1657  11
   6  -6   0 209.893 10.4581  12
  -6  -6   0 238.961 11.0588   5
   6  -6   0 196.548 9.57068   4
   6  -6   0 212.059 9.84054   2
  -6  -6   0 237.939 10.7525   6
   6   6   0 210.459 9.96770   3
   6   6   0 207.857 10.2882  12
   6   6   0 214.695 9.13923   4
  -6   6   0 222.546 8.97996   8
  -6   6   0 205.832 11.1051  13
   6   6   0 213.589 10.4872  14
  -6   6   0 208.981 11.3804   1
  -8  -6   0 1216.96 41.7017  11
  -8  -6   0 1020.87 35.2514   6
  -8  -6   0 1181.11 36.4156   5
   8  -6   0 1241.49 36.3313   4
   8   6   0 1165.57 36.4620  12
  -8   6   0 1197.10 38.4960   1
   8   6   0 1213.86 34.6726   4
  -8   6   0 1209.18 41.8787  11
   8   6   0 1202.53 35.9609   3
   8   6   0 1172.91 36.3217  14
 -10  -6   0 123.362 13.3282  11
  10  -6   0 142.285 10.0533   4
 -10   6   0 129.100 10.8203   1
 -10   6   0 143.911 13.9791  11
   1  -7   0 488.452 17.1242  10
  -1  -7   0 479.417 15.9177   6
  -1  -7   0 460.321 14.2268  10
   1  -7   0 471.399 15.7327   2
   1  -7   0 500.859 15.3497   6
  -1  -7   0 474.119 15.1109   2
   1   7   0 482.757 14.8664  14
   1   7   0 482.780 15.5937   3
   1   7   0 474.451 14.9645   7
  -1   7   0 487.721 16.2164  13
  -1   7   0 469.415 14.5920   7
   1   7   0 456.500 15.3421  12
   1   7   0 482.625 15.9595  13
  -1   7   0 479.672 15.4627   3
  -1   7   0 463.903 13.6213   8
   3  -7   0 727.860 25.5652  10
  -3  -7   0 699.320 19.6436   2
  -3  -7   0 730.147 22.4142   6
  -3  -7   0 697.256 21.3415   5
   3  -7   0 673.449 21.2603  12
  -3  -7   0 680.846 22.7050  11
   3  -7   0 694.541 21.6809   2
  -3   7   0 715.406 22.2296  13
  -3   7   0 718.957 21.0027   3
  -3   7   0 568.844 19.5018   8
   3   7   0 680.948 21.3439   3
   3   7   0 695.908 21.7411  13
   3   7   0 675.319 21.2825  12
   3   7   0 700.598 20.9657  14
  -3   7   0 721.405 20.6507   7
   5  -7   0 119.327 7.56030  12
   5  -7   0 114.099 6.70404   4
   5  -7   0 117.220 10.4149  10
  -5  -7   0 106.868 8.59732  11
   5  -7   0 130.903 8.02900   2
  -5  -7   0 133.033 7.89285   5
  -5  -7   0 116.944 7.51812   6
  -5   7   0 119.864 7.81809  13
   5   7   0 101.875 7.08143  14
   5   7   0 95.1638 6.28647   4
  -5   7   0 117.679 7.98687   1
   5   7   0 129.278 7.88906  13
   5   7   0 115.205 7.43960   3
  -5   7   0 124.730 6.88923   7
   5   7   0 104.592 7.01843  12
  -7  -7   0 301.975 13.7015   5
  -7  -7   0 318.088 16.9502  11
  -7  -7   0 295.158 13.5110   6
   7  -7   0 278.846 12.7464   2
   7  -7   0 270.014 12.1874   4
  -7   7   0 267.467 15.8837  11
  -7   7   0 279.614 14.7749   1
   7   7   0 260.577 13.0916  14
   7   7   0 276.101 13.1030   3
   7   7   0 279.377 13.2480  12
  -9  -7   0 31.8010 7.63502  11
   9  -7   0 44.3449 5.68105   4
   9   7   0 43.0858 6.08256   3
  -9   7   0 40.5677 8.24453  11
  -9   7   0 56.3444 8.47021   1
   0  -8   0 1279.17 35.0198   2
   0  -8   0 1289.61 35.0794   6
   0   8   0 1226.37 34.7205  12
   0   8   0 1247.98 34.8461   3
   0   8   0 1262.41 35.5662  13
   0   8   0 1235.15 33.8420   7
   0   8   0 1243.09 33.7121  14
  -2  -8   0 1437.62 39.2298   6
   2  -8   0 1379.13 38.4848   2
   2  -8   0 1394.83 36.8409   6
   2  -8   0 1353.57 41.2097  10
  -2  -8   0 1348.97 36.8103   2
  -2   8   0 1372.14 37.7697   3
   2   8   0 1383.82 37.6713   7
   2   8   0 1345.76 37.1214  14
   2   8   0 1365.57 38.0044   3
  -2   8   0 1366.51 38.8431  13
   2   8   0 1343.42 38.2344  13
   2   8   0 1337.00 37.9944  12
   4  -8   0 756.987 24.1789   2
  -4  -8   0 712.557 25.1005  11
  -4  -8   0 787.168 24.9181   6
  -4  -8   0 736.438 23.8618   5
   4  -8   0 727.466 27.9445  10
   4  -8   0 639.448 22.3069   4
   4   8   0 711.490 23.3220   3
  -4   8   0 743.177 24.2379  13
   4   8   0 734.303 23.8071  13
  -4   8   0 734.611 22.8096   3
   4   8   0 752.850 23.1555  14
   4   8   0 710.578 23.4246  12
   6  -8   0 457.050 17.7821   2
  -6  -8   0 462.861 18.3025   6
  -6  -8   0 436.928 19.8597  11
   6  -8   0 440.271 16.0683   4
   6   8   0 433.486 17.3316  12
  -6   8   0 466.678 18.7493  13
   6   8   0 424.978 17.1199  14
   6   8   0 438.024 17.0568   3
   6   8   0 442.472 17.7171  13
  -6   8   0 442.431 18.5748   1
  -8  -8   0 255.928 13.0794   6
  -8  -8   0 278.049 16.9116  11
   8  -8   0 244.224 16.3694   2
  -8   8   0 250.219 15.2653   1
  -8   8   0 270.819 16.9906  11
   8   8   0 257.216 13.3791   3
  -1  -9   0 91.9152 6.22908   2
  -1  -9   0 84.8093 6.65760   6
   1  -9   0 92.6173 6.16560   6
   1  -9   0 97.0006 6.54588   2
   1   9   0 89.6996 6.59445  13
  -1   9   0 96.0463 6.81779  13
  -1   9   0 93.2290 6.62431   3
   1   9   0 82.5292 6.03309   3
   1   9   0 91.2135 5.78104  14
   3  -9   0 26.2567 4.78503   2
  -3  -9   0 32.6884 4.78371   6
  -3  -9   0 24.8608 4.49644  11
   3   9   0 22.9455 4.35274   3
   3   9   0 26.1610 3.95439   7
  -3   9   0 25.8252 4.46927  13
   3   9   0 25.3769 3.56459  14
   3   9   0 23.9463 3.64056  13
  -3   9   0 25.9111 3.89758   3
   3   9   0 20.3204 3.68711  12
  -5  -9   0 68.0618 7.39348   6
  -5  -9   0 72.1315 8.02843  11
   5  -9   0 63.7655 7.04223   2
   5   9   0 66.0196 5.80799  14
   5   9   0 68.9846 6.56588  12
   5   9   0 72.7351 6.39486   3
  -5   9   0 71.5278 7.25670  13
   5   9   0 73.5027 6.55844  13
  -5   9   0 67.1525 5.79419   3
  -5   9   0 70.9502 7.94507   1
  -7  -9   0 7.73154 3.91810   6
   7  -9   0 2.92353 3.58964   2
   7   9   0 2.30145 3.65086   3
  -7   9   0 8.91827 4.05420   1
   0 -10   0 7.99605 3.06602   6
   0 -10   0 4.47231 2.70671   2
   0  10   0 9.26632 2.83580   3
   0  10   0 2.22136 2.50099  13
  -2 -10   0 1776.26 49.4279   6
   2 -10   0 1746.97 48.7140   2
  -2 -10   0 1722.55 46.6284   2
  -2  10   0 1713.36 48.9160  13
   2  10   0 1694.56 46.6799  14
  -2  10   0 1674.20 47.5832   3
   2  10   0 1682.04 48.3282  13
   2  10   0 1720.38 48.1359   3
   4 -10   0 12.1641 3.73801   2
  -4 -10   0 7.09206 3.82908   6
   4  10   0 5.08876 2.69581   3
   4  10   0 10.0702 3.37212  14
  -4  10   0 13.7458 3.85892   3
  -4  10   0 7.88001 3.30545  13
   6 -10   0 1028.59 33.5672   2
  -6 -10   0 1026.70 35.0409   6
   6  10   0 1041.38 33.3297   3
  -6  10   0 1061.28 35.8037   1
  -8 -10   0 25.7516 5.29368   6
   8 -10   0 30.2158 4.85062   2
   8  10   0 26.4191 4.60923   3
  -1 -11   0 199.906 11.5361   6
  -1 -11   0 218.185 10.9037   2
   1 -11   0 214.299 10.7918   6
   1 -11   0 204.043 11.4765   2
  -1  11   0 219.519 11.4580   3
   1  11   0 210.703 11.2293  13
   1  11   0 209.872 11.4315   3
  -1  11   0 198.689 11.1456  13
  -3 -11   0 142.230 10.8926   6
   3 -11   0 157.000 10.0405   2
   3  11   0 155.431 9.55228   3
  -3  11   0 158.066 10.1391  13
   3  11   0 145.472 8.80484  14
  -3  11   0 146.364 9.62537   3
  -5 -11   0 167.338 11.1420   6
   5 -11   0 158.789 11.2594   2
  -5  11   0 167.755 12.3174   1
  -5  11   0 171.989 10.5112   3
   5  11   0 172.019 10.5067   3
   7 -11   0 67.0723 8.10307   2
  -7 -11   0 65.3645 7.57391   6
   7  11   0 58.8607 7.19512   3
  -7  11   0 61.4120 9.76423   1
   0 -12   0 429.778 17.4894   6
   0 -12   0 428.947 17.7041   2
   0  12   0 437.885 17.7826   3
   2 -12   0 335.524 15.4288   2
  -2 -12   0 320.044 15.9496   6
   2  12   0 308.211 14.8271   3
   2  12   0 297.230 13.1740  14
  -2  12   0 309.388 14.9536  13
  -2  12   0 306.847 14.2688   3
   4 -12   0 362.740 17.2024   2
  -4 -12   0 358.735 17.9071   6
  -4  12   0 364.698 16.2029   3
   4  12   0 345.075 16.4210   3
  -4  12   0 352.074 17.8820   1
   6  12   0 194.582 13.6937   3
   1 -13   0 4.68016 3.52131   2
  -1 -13   0 5.08590 3.97614   6
  -1  13   0 1.17711 3.83703   3
   1  13   0 2.80116 3.79251   3
   3 -13   0 8.27976 4.22056   2
  -3 -13   0 7.92592 3.91486   6
   3  13   0 9.28332 4.40530   3
  -3  13   0 7.22037 3.37012   3
   0 -14   0 311.681 15.0453   2
   0  14   0 319.814 15.8492   3
 -10   0   1 1.06072 3.59207   1
  10   0  -1 1.40319 2.59819   4
 -10   0   1 3.17611 4.11296  11
 -10   0   1 0.52642 2.99758   8
  10   0  -1 1.61742 2.01760  14
   8   0  -1 4.03987 2.73853  10
  -8   0   1 4.90516 2.70616   8
  -8   0   1 2.45789 4.05680  16
   8   0  -1 0.76913 1.94848  14
  -8   0   1 0.49056 2.64829   1
  -8   0   1 -4.4104 3.40804  11
   8   0  -1 -0.1251 1.39932  12
   8   0  -1 0.06569 2.71090   4
  -8   0   1 8.92137 2.22418   5
  -6   0   1 0.46488 1.56441   8
   6   0  -1 1.43096 1.86718  10
   6   0  -1 0.36324 1.49117  12
  -6   0   1 0.59625 0.82760   5
  -6   0   1 0.93816 2.26394  11
   6   0  -1 3.44969 1.34026  14
  -6   0   1 1.40590 1.59418   1
  -6   0   1 0.24771 1.49058  16
   6   0  -1 -1.1657 1.16378   4
  -4   0   1 -0.2358 0.89799   8
  -4   0   1 0.73642 1.13043  16
  -4   0   1 -0.3119 1.22571  11
   4   0  -1 3.83046 1.13346  14
   4   0  -1 0.52087 1.57376  10
   4   0  -1 -0.2324 0.81825  12
   4   0  -1 -0.4839 1.05969   4
  -4   0   1 0.36021 0.73593   5
  -4   0   1 0.96374 0.89226   1
   2   0  -1 13.0564 1.89662  10
   2   0  -1 19.0341 1.44061   4
  -2   0  -1 0.56624 0.71047   1
  -2   0  -1 7.17295 1.18877   7
  -2   0  -1 0.66164 0.45361   8
   2   0   1 0.40962 0.39193  12
  -2   0  -1 2.81841 1.26386  11
   2   0   1 2.02202 0.93874  10
  -4   0  -1 0.75378 1.07963   1
   4   0   1 1.21925 0.53920   2
  -4   0  -1 1.77984 1.10602  16
  -4   0  -1 3.73753 1.33118   8
   4   0   1 0.43143 0.94570   4
  -4   0  -1 2.34765 0.75021   5
   4   0   1 -0.2639 0.86058  12
  -4   0  -1 1.02202 1.84234  11
   4   0   1 0.71197 1.15441  14
  -4   0  -1 0.64587 0.51557   6
  -6   0  -1 3.82622 1.33232   5
  -6   0  -1 -0.5066 2.57578  11
   6   0   1 -0.2835 1.13773  14
   6   0   1 11.9791 3.74243  10
   6   0   1 -0.2474 1.45086  12
  -6   0  -1 0.91083 2.16986   1
  -6   0  -1 1.80119 1.37187   8
   6   0   1 2.78123 1.73063   4
   8   0   1 -2.5645 2.04653  14
   8   0   1 0.93664 2.33663  12
   8   0   1 2.54409 3.24502   4
  -8   0  -1 -0.7368 2.30740   1
  -8   0  -1 5.04912 4.40375  11
 -10   0  -1 -0.4954 4.33223   1
 -10   0  -1 1.24831 3.67226  11
  10   0   1 4.12066 3.01322   4
  10   0   1 2.64358 2.89007  12
  11  -1  -1 270.355 13.6363   4
 -11  -1   1 272.451 18.5609  11
 -11   1   1 306.582 20.2042  11
  11   1  -1 241.873 13.6251   4
 -11   1   1 275.612 14.9188   1
  -9  -1   1 430.747 16.1862   8
   9  -1  -1 414.792 15.5861  14
   9  -1  -1 423.175 16.5720   4
  -9  -1   1 401.889 16.9196   1
  -9  -1   1 450.542 21.4975  11
   9  -1  -1 394.493 16.4800  12
  -9   1   1 421.700 15.9137   8
   9   1  -1 407.631 16.5484  12
   9   1  -1 436.656 16.6730   4
  -9   1   1 435.772 17.4171   1
  -9   1   1 392.148 20.4711  11
   9   1  -1 413.492 15.9881  14
  -7  -1   1 1261.22 34.6648   5
  -7  -1   1 1262.69 37.0244  16
   7  -1  -1 1251.74 34.8362  14
  -7  -1   1 1302.11 35.3921   8
   7  -1  -1 1264.42 35.6670   4
   7  -1  -1 1276.83 41.1270  10
   7  -1  -1 1234.67 35.6755  12
  -7  -1   1 1304.65 35.9518   1
  -7  -1   1 1326.30 40.2437  11
   7   1  -1 1220.30 35.4153  12
  -7   1   1 1280.45 39.6650  11
   7   1  -1 1250.83 35.1930  14
  -7   1   1 1275.36 35.0256   8
  -7   1   1 1273.16 33.7560   5
   7   1  -1 1278.39 35.6142   4
   7   1  -1 1226.16 39.4170  10
  -7   1   1 1271.67 35.7736  16
  -7   1   1 1256.85 36.0726   1
   5  -1  -1 1483.60 39.6796  12
  -5  -1   1 1501.59 39.1678   5
  -5  -1   1 1511.73 41.1082  16
   5  -1  -1 1556.62 39.1201  14
   5  -1  -1 1542.44 39.7689   4
   5  -1  -1 1490.07 37.9392   2
  -5  -1   1 1535.74 42.4069  11
   5  -1  -1 1544.37 44.0509  10
  -5  -1   1 1494.16 39.6132   1
  -5  -1   1 1485.00 39.2493   8
   5   1  -1 1498.11 39.7066  12
   5   1  -1 1466.39 37.9404   9
  -5   1   1 1512.80 39.8907   1
  -5   1   1 1521.59 42.2759  11
   5   1  -1 1526.12 39.6170   4
  -5   1   1 1505.68 39.2432   8
  -5   1   1 1577.98 40.1587  16
   5   1  -1 1512.34 42.8474  10
  -5   1   1 1544.98 38.5515   5
   5   1  -1 1493.48 39.3790  14
   3  -1  -1 5247.08 132.115   4
  -3  -1   1 5536.48 131.460   1
   3  -1  -1 5374.50 146.187  10
   3  -1  -1 5317.96 127.968  12
   3  -1  -1 5392.12 132.096   2
  -3  -1   1 5142.85 137.089  10
  -3  -1   1 4976.13 129.466   5
  -3  -1   1 5067.34 136.131  16
  -3  -1   1 5169.18 136.000  11
  -3  -1   1 5043.43 131.409   8
   3   1  -1 5303.51 132.155  14
  -3   1   1 5439.41 132.194   1
  -3   1   1 5240.71 137.190  16
   3   1  -1 5458.98 133.971  12
   3   1  -1 5571.70 130.069   4
  -3   1   1 5229.52 131.574   5
   3   1  -1 5424.97 132.451   9
  -3   1   1 5242.83 135.398  10
  -3   1   1 5244.05 137.595  13
  -3   1   1 5413.35 133.034   8
   3   1  -1 5468.53 145.061  10
   1  -1  -1 2623.30 72.1061  10
  -1  -1   1 2557.30 68.7920  16
  -1   1   1 2557.72 70.9604  10
   1   1  -1 2869.58 67.4093  14
  -1   1   1 2674.90 67.0136  13
   1  -1   1 7779.99 196.850   2
  -1  -1  -1 8031.71 198.594   6
   1  -1   1 7280.80 203.019  10
  -1  -1  -1 7942.61 198.236   5
  -1  -1  -1 8469.35 201.986  10
   1  -1   1 7352.73 195.995  12
  -1  -1  -1 9019.70 208.008  11
  -1  -1  -1 9202.03 202.053   1
  -1   1  -1 7053.33 204.868  10
  -1   1  -1 7745.98 201.749  11
  -1   1  -1 7930.40 199.930   1
   1   1   1 8612.63 199.498  14
  -1   1  -1 8319.02 200.983   7
   1   1   1 8109.91 198.812   4
   1   1   1 8176.46 202.534  10
  -3  -1  -1 722.808 21.1131   1
   3  -1   1 803.877 23.7624  10
  -3  -1  -1 732.405 19.8501   6
   3  -1   1 782.529 20.7642   4
  -3  -1  -1 747.768 22.8461  11
  -3  -1  -1 750.286 20.4263   8
   3  -1   1 773.594 19.7436   2
  -3  -1  -1 763.964 21.4623  16
   3  -1   1 774.438 20.1351  12
  -3  -1  -1 772.594 22.3603  10
  -3  -1  -1 785.211 20.3692   5
   3   1   1 785.399 22.4484  10
  -3   1  -1 763.319 19.3035   5
   3   1   1 769.827 20.6039   4
  -3   1  -1 742.607 20.1108   8
   3   1   1 772.043 20.0302  12
  -3   1  -1 763.099 21.3512   7
  -3   1  -1 728.312 22.3478  11
  -3   1  -1 754.848 21.2777   1
   3   1   1 757.816 20.7004  14
  -5  -1  -1 2943.65 77.0781  11
   5  -1   1 2937.10 77.6486  10
  -5  -1  -1 2925.44 71.9083   5
  -5  -1  -1 2831.46 72.2844   8
   5  -1   1 2930.66 72.1936  12
  -5  -1  -1 2718.96 70.6322   6
  -5  -1  -1 2902.37 73.6329   1
   5  -1   1 2988.40 73.0442   4
  -5   1  -1 2898.61 76.4722  11
  -5   1  -1 2521.21 70.6425   5
  -5   1  -1 2899.75 73.7030   1
   5   1   1 2883.33 72.1187  12
   5   1   1 2824.69 75.6342  10
   5   1   1 2947.49 72.7620  14
   5   1   1 2961.01 72.7141   4
  -5   1  -1 2913.29 72.0649   8
   7  -1   1 165.711 8.52112  12
  -7  -1  -1 168.846 11.7440  11
  -7  -1  -1 174.357 9.95559   1
   7  -1   1 172.315 8.75985  14
   7  -1   1 159.446 11.3196  10
   7  -1   1 162.016 9.13612   4
  -7  -1  -1 163.272 7.55813   5
  -7   1  -1 160.587 9.41639   1
   7   1   1 174.302 9.10388   4
   7   1   1 170.013 8.60524  12
  -7   1  -1 177.798 12.2349  11
   7   1   1 171.663 8.89443  14
   7   1   1 159.954 10.4776  10
  -7   1  -1 163.295 8.08619   8
  -9  -1  -1 806.537 33.6098  11
  -9  -1  -1 836.742 28.8619   1
   9  -1   1 817.110 27.3170   4
   9  -1   1 773.076 26.7621  12
   9  -1   1 778.755 26.3365  14
   9   1   1 759.652 26.4788  14
   9   1   1 816.706 26.9850   4
  -9   1  -1 841.084 29.3209   1
   9   1   1 806.817 27.1024  12
  -9   1  -1 815.489 33.5094  11
  10  -2  -1 107.492 8.61879  14
 -10  -2   1 113.499 11.6786  11
 -10  -2   1 111.125 9.02516   1
  10  -2  -1 120.790 8.55356   4
  10   2  -1 107.213 8.36312  14
 -10   2   1 123.089 8.69107   8
 -10   2   1 128.809 13.1022  11
  10   2  -1 107.599 8.04511   4
 -10   2   1 122.185 10.0972   1
   8  -2  -1 351.699 14.3619  12
  -8  -2   1 350.442 15.5964  16
  -8  -2   1 343.177 13.2836   5
  -8  -2   1 327.728 13.5494   8
   8  -2  -1 367.235 14.2423   4
  -8  -2   1 347.226 14.2560   1
  -8  -2   1 337.974 17.5522  11
   8  -2  -1 350.557 13.2529  14
   8   2  -1 320.324 16.2265  10
  -8   2   1 365.090 18.1952  11
  -8   2   1 361.888 13.6995   8
  -8   2   1 346.809 14.7797   1
   8   2  -1 359.576 14.3225  12
   8   2  -1 369.092 14.3501   4
   8   2  -1 360.707 14.1273  14
  -6  -2   1 407.733 14.1909   1
   6  -2  -1 427.740 14.4533  12
   6  -2  -1 413.755 13.4567  14
  -6  -2   1 423.287 17.0090  11
   6  -2  -1 440.182 14.6259   4
   6  -2  -1 428.385 18.7205  10
  -6  -2   1 427.158 13.9674   8
   6  -2  -1 421.076 12.7303   2
  -6  -2   1 414.021 15.9032  16
  -6  -2   1 424.032 14.1021   5
  -6   2   1 423.257 12.5782   5
  -6   2   1 419.358 13.8454   8
   6   2  -1 421.749 14.0706   4
   6   2  -1 424.061 14.4113  12
  -6   2   1 443.223 17.1238  11
  -6   2   1 424.579 14.6710   1
  -6   2   1 433.995 14.0340  16
   6   2  -1 419.505 16.6326  10
   6   2  -1 423.919 14.2964  14
   4  -2  -1 1263.78 32.1238   2
   4  -2  -1 1312.60 37.0455  10
  -4  -2   1 1178.95 34.8485  10
   4  -2  -1 1254.11 32.6362   4
  -4  -2   1 1222.78 32.4662   1
  -4  -2   1 1248.09 32.7798   5
   4  -2  -1 1240.79 32.8465  12
  -4  -2   1 1262.00 34.7658  11
  -4  -2   1 1280.75 32.5449   8
  -4  -2   1 1237.94 34.4017  16
  -4   2   1 1263.73 32.3653   8
   4   2  -1 1241.91 31.0208   9
   4   2  -1 1309.98 32.9045  14
  -4   2   1 1286.52 32.5219  16
   4   2  -1 1239.03 32.8191  12
   4   2  -1 1254.81 32.5786   4
  -4   2   1 1239.29 32.9577   1
  -4   2   1 1278.87 33.4128  13
  -4   2   1 1251.91 31.4724   5
   4   2  -1 1237.79 34.5242  10
  -2  -2   1 3267.62 82.6420  10
   2  -2  -1 2965.31 74.7654   2
   2  -2  -1 3054.31 74.8607  12
   2  -2  -1 3078.83 82.1589  10
  -2  -2   1 3052.74 75.9453  16
  -2  -2   1 3058.27 75.8297   8
   2  -2  -1 2948.87 74.2949   4
  -2  -2   1 3288.72 74.5133   1
  -2  -2   1 3208.20 77.6008  11
  -2  -2   1 3127.33 74.9029   5
   2  -2  -1 2988.75 76.0663   6
   2   2  -1 3249.10 76.0221   3
   2   2  -1 3053.12 74.4776   4
  -2   2   1 3026.26 75.2637  13
  -2   2   1 2970.65 74.4725   8
   2   2  -1 3142.14 77.1787  14
   2   2  -1 3178.30 74.8807  12
  -2   2   1 2977.85 76.1910  12
  -2   2   1 2997.49 75.5786   3
  -2   2   1 2938.30 76.5481  10
   0  -2   1 3153.38 74.0234   2
   0  -2  -1 2995.63 75.6485  11
   0  -2  -1 2848.04 73.2226   2
   0  -2   1 3000.70 74.3992  12
   0  -2  -1 2851.04 74.1398   6
   0  -2   1 2936.24 74.6709  16
   0  -2   1 3120.32 75.9824  10
   0   2  -1 2886.66 76.0861  13
   0   2  -1 3063.77 72.5882   7
   0   2   1 3071.17 75.4864  12
   0   2   1 2909.44 75.0798  10
   0   2   1 3024.91 75.2721  13
   0   2   1 3004.13 72.2676   3
   0   2  -1 2985.21 72.1927   3
   0   2   1 3032.18 75.2940  14
  -2  -2  -1 3586.68 84.9973   5
  -2  -2  -1 3413.27 84.7718   6
  -2  -2  -1 3468.43 86.0043  15
  -2  -2  -1 3684.23 86.8744  11
  -2  -2  -1 3625.47 85.3506   1
   2  -2   1 3257.50 86.3462  12
   2  -2   1 3391.05 84.6004   2
  -2  -2  -1 3589.55 91.1108  10
   2  -2   1 3356.27 87.6098  10
  -2   2  -1 3421.85 88.6798  13
  -2   2  -1 3357.93 87.5136  10
   2   2   1 3595.71 93.3541  10
   2   2   1 3546.23 84.3877   4
  -2   2  -1 3540.45 85.3915   7
   2   2   1 3577.04 87.3741  12
  -2   2  -1 3401.54 85.2606   1
  -2   2  -1 3316.41 85.1782   8
   2   2   1 3566.99 84.8885  14
  -4  -2  -1 1076.15 29.1770   6
   4  -2   1 1107.46 28.8465   2
  -4  -2  -1 1063.66 30.4002   1
   4  -2   1 1143.14 30.1216   4
  -4  -2  -1 1089.96 33.0379  11
  -4  -2  -1 1120.75 29.7770   5
   4  -2   1 1131.91 29.5709  12
   4  -2   1 1139.39 34.2792  10
  -4   2  -1 1120.03 29.1280   8
   4   2   1 1108.39 29.9660  14
  -4   2  -1 1083.75 32.3835  11
   4   2   1 1141.93 29.4766  12
   4   2   1 1099.49 31.3905  10
  -4   2  -1 1148.32 30.9110   7
   4   2   1 1106.67 29.5710   4
  -4   2  -1 1086.13 30.6548   1
  -6  -2  -1 670.689 20.7236   5
  -6  -2  -1 672.056 21.9930   1
   6  -2   1 661.116 20.9114  14
   6  -2   1 690.323 21.6695   4
   6  -2   1 662.461 20.9693  12
  -6  -2  -1 700.524 25.9132  11
   6  -2   1 672.304 26.1438  10
  -6   2  -1 692.756 25.2361  11
   6   2   1 703.623 21.1430   4
   6   2   1 674.792 23.7071  10
  -6   2  -1 693.633 22.7789   1
   6   2   1 787.686 21.5651  12
  -6   2  -1 668.408 20.4432   8
   6   2   1 671.746 21.3814  14
   8  -2   1 430.078 17.0357   4
  -8  -2  -1 424.713 17.4091   1
   8  -2   1 410.096 16.0369  14
  -8  -2  -1 443.359 21.9308  11
   8  -2   1 415.729 16.2818  12
  -8   2  -1 436.559 16.0093   8
  -8   2  -1 429.069 20.9208  11
   8   2   1 409.068 16.4022  14
  -8   2  -1 420.915 18.3436   1
   8   2   1 405.744 16.2210   4
   8   2   1 420.068 16.5498  12
 -10  -2  -1 153.401 15.0853  11
 -10  -2  -1 151.743 11.6653   1
  10  -2   1 146.859 10.4785   4
  10  -2   1 135.190 9.70375  12
 -10   2  -1 155.965 11.4563   1
 -10   2  -1 154.169 14.6876  11
  10   2   1 156.490 9.78928   4
 -11  -3   1 85.7152 11.2612  11
  11  -3  -1 92.9788 9.21099   4
 -11   3   1 94.1474 7.79004   8
  11   3  -1 101.032 9.19972   4
 -11   3   1 82.8215 8.42649   1
 -11   3   1 94.0187 12.5843  11
  -9  -3   1 1203.17 35.2727   5
  -9  -3   1 1178.40 35.7565   1
  -9  -3   1 1153.58 41.3907  11
   9  -3  -1 1124.94 34.0225  14
   9  -3  -1 1220.06 36.0704   4
   9   3  -1 1206.37 35.6847   4
  -9   3   1 1214.34 42.0712  11
   9   3  -1 1211.52 35.8316  14
  -9   3   1 1202.21 37.4059   1
  -9   3   1 1191.53 34.8299   8
   9   3  -1 1096.32 35.6056  12
   7  -3  -1 195.473 7.93918   2
  -7  -3   1 220.500 9.45485   8
  -7  -3   1 225.643 12.8907  11
  -7  -3   1 196.567 9.43952   1
  -7  -3   1 200.467 11.1876  16
   7  -3  -1 197.033 8.46921  14
   7  -3  -1 205.624 9.77079  12
   7  -3  -1 192.358 12.9978  10
  -7  -3   1 215.372 9.57761   5
   7  -3  -1 200.521 9.42982   4
   7   3  -1 215.164 9.83803  14
  -7   3   1 216.821 10.5024   1
  -7   3   1 207.747 12.4546  11
  -7   3   1 223.541 9.25556   8
   7   3  -1 214.227 9.89670  12
   7   3  -1 203.167 9.27182   4
   5  -3  -1 2537.47 65.1354   4
   5  -3  -1 2620.88 65.6607  12
  -5  -3   1 2538.28 65.4542   5
  -5  -3   1 2590.41 65.2881   1
  -5  -3   1 2537.91 67.7665  16
   5  -3  -1 2514.84 64.5214   2
   5  -3  -1 2603.84 70.8974  10
  -5  -3   1 2583.26 68.2452  11
  -5  -3   1 2601.89 65.1211   8
   5   3  -1 2634.35 65.1001   4
   5   3  -1 2641.15 65.5566  14
  -5   3   1 2536.86 64.3050  16
  -5   3   1 2647.69 64.8298   8
  -5   3   1 2605.13 66.0068   1
  -5   3   1 2629.20 66.3823  13
   5   3  -1 2487.02 65.4229  12
   3  -3  -1 1046.27 27.6859  12
  -3  -3   1 1037.05 26.0911   2
   3  -3  -1 1037.39 27.5358   2
   3  -3  -1 1052.64 30.7148  10
  -3  -3   1 1058.35 27.0483   8
  -3  -3   1 1103.17 29.5194  16
  -3  -3   1 1125.96 28.9081  11
   3  -3  -1 1040.92 27.0499   4
  -3  -3   1 1078.67 27.2908   1
  -3  -3   1 1095.54 27.8250   5
  -3  -3   1 1062.56 28.3178  10
   3  -3  -1 1006.64 26.2170   6
   3   3  -1 1078.63 27.6019  14
  -3   3   1 998.835 27.0086  16
   3   3  -1 1052.90 27.2204   3
  -3   3   1 1028.98 27.0768   7
  -3   3   1 997.977 26.9021   8
   3   3  -1 1073.36 27.6703  12
  -3   3   1 1030.12 28.1405  13
   3   3  -1 1026.73 27.0158   4
  -3   3   1 1009.51 26.8321   3
  -3   3   1 1049.64 27.2607  12
   1  -3  -1 3347.13 92.2133  10
  -1  -3   1 3402.57 82.6587  12
   1  -3  -1 3349.29 82.8517   2
  -1  -3   1 3276.77 89.3122  16
  -1  -3   1 3464.29 82.5595   2
  -1  -3   1 3412.01 84.3973   5
   1  -3  -1 3347.00 82.6197   6
   1   3  -1 3365.28 84.7219  14
  -1   3   1 3366.97 92.6862  10
   1   3  -1 3319.08 88.1081  13
  -1   3   1 3538.59 83.3812  13
   1   3  -1 3453.95 83.4582   4
   1   3  -1 3464.31 82.7058  12
   1   3  -1 3464.78 82.6190   3
  -1   3   1 3485.54 84.6017  12
  -1   3   1 3416.22 82.4986   3
  -1   3   1 3408.88 85.1709  14
   1  -3   1 2862.54 71.5867  10
  -1  -3  -1 2777.43 69.5105   6
  -1  -3  -1 2702.56 68.2614  15
   1  -3   1 2812.28 68.9867  12
  -1  -3  -1 2775.48 68.3960   2
  -1  -3  -1 2837.12 69.3315   5
   1  -3   1 2873.85 69.3674   2
  -1  -3  -1 2820.32 70.5605  11
  -1   3  -1 2857.39 69.0654   3
   1   3   1 2806.50 68.8525  14
  -1   3  -1 2800.41 69.2971  13
   1   3   1 2886.09 68.9353  12
   1   3   1 2799.43 69.2087   3
  -1   3  -1 2804.70 71.0917  10
  -1   3  -1 2880.04 69.4584   7
   1   3   1 2927.12 71.1312   4
  -3  -3  -1 3366.80 80.9499   5
  -3  -3  -1 3197.89 80.6145   6
  -3  -3  -1 3261.95 78.9213  15
   3  -3   1 3214.19 80.3355  12
  -3  -3  -1 3356.54 80.6682  10
  -3  -3  -1 3440.90 83.4919  11
   3  -3   1 3152.07 80.3380   2
  -3  -3  -1 3303.32 81.1544   1
   3  -3   1 3236.46 85.0186  10
   3   3   1 3241.88 83.1733  10
   3   3   1 3338.49 80.6904  14
  -3   3  -1 3224.32 81.3044  13
  -3   3  -1 3174.57 79.4154   8
  -3   3  -1 3287.18 81.2676   7
  -3   3  -1 3120.85 81.1863   1
   3   3   1 3328.23 80.2003  12
   3   3   1 3206.42 79.7984   4
  -5  -3  -1 990.207 29.5203   1
  -5  -3  -1 986.112 28.2177   6
   5  -3   1 1041.64 29.0879   4
   5  -3   1 1026.63 34.5157  10
   5  -3   1 1029.01 27.7303   2
  -5  -3  -1 985.893 32.4220  11
   5  -3   1 1066.93 28.9194  12
  -5  -3  -1 1048.32 29.0222   5
  -5   3  -1 1034.29 30.1286   1
   5   3   1 1007.18 29.9430  10
  -5   3  -1 1031.79 27.8458   8
   5   3   1 1013.54 29.0696  14
  -5   3  -1 1036.61 32.3170  11
   5   3   1 1033.98 28.4434   4
   5   3   1 1034.17 28.6675  12
  -5   3  -1 1063.36 30.1413   7
   7  -3   1 1259.18 36.1872   4
   7  -3   1 1174.72 34.9479  14
   7  -3   1 1234.54 35.6971  12
  -7  -3  -1 1220.22 36.7950   1
  -7  -3  -1 1253.26 35.3279   5
  -7  -3  -1 1174.79 40.3308  11
  -7   3  -1 1229.37 34.5319   8
   7   3   1 1242.52 35.1597   4
   7   3   1 1266.77 35.9843  14
  -7   3  -1 1254.66 41.0806  11
  -7   3  -1 1256.91 37.6039   1
   7   3   1 1228.75 35.5932  12
   9  -3   1 232.887 11.6814  14
  -9  -3  -1 222.809 15.9306  11
   9  -3   1 230.433 12.2924  12
   9  -3   1 233.053 12.7760   4
  -9  -3  -1 243.596 13.5919   1
   9   3   1 241.908 12.4280  14
   9   3   1 256.974 12.7775  12
   9   3   1 236.937 12.1917   4
  -9   3  -1 247.335 17.2438  11
  -9   3  -1 273.333 15.2180   1
 -10  -4   1 60.0125 9.89873  11
  10  -4  -1 58.3276 6.90241   4
 -10  -4   1 70.9176 6.61327   5
 -10   4   1 61.6170 6.27690   8
  10   4  -1 76.9324 7.76920   4
 -10   4   1 69.4567 7.93848   1
  10   4  -1 64.8239 6.75835   3
 -10   4   1 61.0004 10.2839  11
  -8  -4   1 281.657 12.5826   1
  -8  -4   1 265.836 15.6506  11
  -8  -4   1 290.958 12.7561   5
   8  -4  -1 276.293 12.6445  12
   8  -4  -1 313.966 13.2198   4
   8  -4  -1 270.037 11.3212  14
  -8  -4   1 289.928 14.8767  16
   8   4  -1 286.929 12.2134   3
  -8   4   1 304.181 12.0225   8
  -8   4   1 292.155 16.7331  11
   8   4  -1 281.337 12.4369   4
   8   4  -1 281.722 12.7924  14
   8   4  -1 275.556 12.7814  12
  -8   4   1 283.861 13.9083   1
  -6  -4   1 91.0459 7.53724  16
  -6  -4   1 82.7755 7.31818  11
   6  -4  -1 89.3097 5.67202  12
   6  -4  -1 103.400 5.62574   2
   6  -4  -1 86.5046 5.83908   4
  -6  -4   1 83.4983 5.88804   5
  -6  -4   1 86.1672 5.57397   1
   6  -4  -1 97.8748 9.03103  10
   6   4  -1 89.5419 5.64626  12
   6   4  -1 83.5636 5.45845   3
  -6   4   1 90.3082 5.15515   8
  -6   4   1 93.8021 6.53224   1
   6   4  -1 89.1996 5.34368   4
   6   4  -1 95.6381 6.19561  14
  -6   4   1 101.658 6.87117  13
   4  -4  -1 308.580 10.7089   2
  -4  -4   1 284.330 11.9939  10
  -4  -4   1 336.671 12.2309  11
   4  -4  -1 285.749 10.5446  12
   4  -4  -1 323.719 14.3018  10
  -4  -4   1 320.564 10.9226   5
  -4  -4   1 342.151 13.0387  16
  -4  -4   1 332.480 10.6858   1
   4  -4  -1 303.694 8.81042   6
   4  -4  -1 304.230 10.2088   4
  -4   4   1 313.454 10.0339   8
   4   4  -1 304.833 10.3580   3
  -4   4   1 318.675 11.4962  13
   4   4  -1 322.129 10.8967  12
  -4   4   1 311.113 10.3303   7
  -4   4   1 295.528 9.53271  16
   4   4  -1 312.657 10.7874  14
  -4   4   1 303.906 9.94406   3
   4   4  -1 311.197 10.0366   4
  -4   4   1 293.838 8.78224   5
  -2  -4   1 267.586 8.82774   5
  -2  -4   1 256.925 8.92103  11
  -2  -4   1 262.722 8.24825   2
   2  -4  -1 298.136 8.43794   6
   2  -4  -1 276.211 9.15432   2
   2  -4  -1 287.658 10.7723  10
  -2  -4   1 263.330 10.0154  16
  -2  -4   1 275.648 8.69008  12
   2  -4  -1 268.031 8.76471  12
   2   4  -1 263.654 8.58672  13
   2   4  -1 259.820 8.73893  12
  -2   4   1 275.190 8.74115  12
  -2   4   1 269.017 8.23918   8
  -2   4   1 275.174 9.49293  13
   2   4  -1 263.775 8.72750  14
  -2   4   1 267.329 8.47822   3
   2   4  -1 263.526 8.06391   4
  -2   4   1 271.626 10.2290  10
  -2   4   1 271.278 7.94395   7
   2   4  -1 255.329 8.62549   3
   0  -4   1 1.94562 1.08844   2
   0  -4   1 2.72286 1.05902  10
   0  -4  -1 1.22051 0.75044   6
   0  -4  -1 0.75345 0.84733   2
   0  -4   1 0.73276 0.79042  12
   0  -4   1 8.59848 1.07559   5
   0  -4  -1 1.14183 0.87530  11
   0  -4  -1 3.25647 0.76595  10
   0   4  -1 0.86996 0.60615  14
   0   4   1 1.08779 0.56435  14
   0   4  -1 0.12543 0.78667  13
   0   4   1 5.59053 1.09596  12
   0   4  -1 0.59608 0.65259   3
   0   4  -1 1.05629 0.67850   7
   0   4   1 5.15800 1.25309   3
  -2  -4  -1 254.355 8.99664   6
  -2  -4  -1 233.235 9.82707  11
   2  -4   1 253.152 8.71694   2
   2  -4   1 246.046 7.09526   6
  -2  -4  -1 252.036 8.71070   5
   2  -4   1 274.066 11.4581  10
  -2  -4  -1 245.903 7.16090  15
   2  -4   1 249.376 8.51934  12
  -2  -4  -1 244.916 7.27696   2
   2   4   1 233.381 8.52513   3
  -2   4  -1 250.592 8.77018   7
   2   4   1 250.686 8.38005  14
  -2   4  -1 250.231 8.93362  13
  -2   4  -1 255.119 8.39387   3
   2   4   1 242.413 7.35984   4
  -2   4  -1 248.351 7.21875   8
   2   4   1 236.145 8.29026  12
   4  -4   1 2.60772 2.63148  10
  -4  -4  -1 0.85956 1.52195  11
  -4  -4  -1 -0.5128 1.35299   6
  -4  -4  -1 1.33629 1.61340   1
  -4  -4  -1 1.66559 1.44693   5
   4  -4   1 0.77270 1.05559   2
  -4   4  -1 1.10248 1.83427   1
   4   4   1 3.22834 1.49382  12
  -4   4  -1 -0.6631 0.84872   8
  -4   4  -1 7.96430 2.18500   7
   4   4   1 -0.2019 1.09330  14
  -4   4  -1 6.43400 1.81648  13
   6  -4   1 43.1174 4.99516   4
  -6  -4  -1 33.7835 4.02747   6
   6  -4   1 35.9437 6.38999  10
  -6  -4  -1 32.2552 4.02596   5
  -6  -4  -1 30.7091 4.53923   1
  -6  -4  -1 35.1345 6.39934  11
   6  -4   1 38.2591 4.18608  12
   6  -4   1 31.6118 3.63406   2
   6   4   1 34.4814 4.19339  12
  -6   4  -1 25.9284 4.68959   1
   6   4   1 32.3442 4.12469  14
  -6   4  -1 31.7039 3.56413   8
   6   4   1 33.7721 3.76200   4
  -6   4  -1 38.4026 6.16818  11
   8  -4   1 26.4308 5.01178   4
  -8  -4  -1 24.5933 6.89282  11
   8  -4   1 24.1136 3.87328  14
  -8  -4  -1 33.3082 5.85487   1
   8  -4   1 26.1600 4.36974  12
   8   4   1 22.9532 4.24218  12
   8   4   1 22.4138 4.43159  14
  -8   4  -1 22.8941 5.51346   1
  -8   4  -1 27.8614 6.85565  11
   8   4   1 26.1345 4.46788   4
 -10  -4  -1 -2.2867 5.53932  11
  10  -4   1 -1.1159 3.46174   4
 -10  -4  -1 1.47260 4.27942   1
  10   4   1 1.22613 2.97783  12
  10   4   1 0.47811 3.36328   4
  10   4   1 1.72266 3.08948   3
 -10   4  -1 2.39588 4.76654   1
 -10   4  -1 2.72083 4.84978  11
 -11  -5   1 202.566 18.0548  11
  -9  -5   1 194.491 14.4906  11
  -9  -5   1 200.923 10.9074   5
   9  -5  -1 185.790 11.0339   4
   9   5  -1 206.401 10.8862   3
  -9   5   1 210.813 13.0771   1
  -9   5   1 213.486 15.4269  11
  -9   5   1 260.039 11.2153   8
   9   5  -1 205.065 11.5275  14
   9   5  -1 198.381 10.8599   4
  -7  -5   1 1009.97 34.2077  11
   7  -5  -1 1056.37 30.6469   4
  -7  -5   1 1035.29 30.7887   1
  -7  -5   1 1035.64 31.2601   5
   7  -5  -1 996.706 31.0860  12
   7  -5  -1 1048.53 29.8534   2
  -7  -5   1 1041.78 34.5595  16
   7   5  -1 992.197 31.0118  12
   7   5  -1 1007.01 30.0904   3
   7   5  -1 1025.41 29.8486   4
   7   5  -1 1022.73 30.9803  14
  -7   5   1 1065.71 29.6577   8
  -7   5   1 1048.71 32.2645   1
   5  -5  -1 1097.85 30.8365   4
  -5  -5   1 1190.00 35.0046  16
  -5  -5   1 1173.57 33.8593  11
   5  -5  -1 1109.92 31.5409   2
   5  -5  -1 1124.68 37.2652  10
  -5  -5   1 1190.77 32.1213   5
   5  -5  -1 1084.54 31.7128  12
   5   5  -1 1131.34 31.8590  12
  -5   5   1 1113.77 32.7279  13
   5   5  -1 1127.06 31.1944   3
   5   5  -1 1143.91 31.6982  14
  -5   5   1 1095.11 32.2600   1
   5   5  -1 1131.97 30.6231   4
  -5   5   1 1078.98 30.2776   8
   3  -5  -1 3554.34 89.7655  12
   3  -5  -1 3610.82 88.2020   6
   3  -5  -1 3612.07 90.0053   2
  -3  -5   1 3559.95 90.4880  11
  -3  -5   1 3556.68 88.2132   2
  -3  -5   1 3623.71 89.3841  10
  -3  -5   1 3656.31 89.7897   5
   3  -5  -1 3649.57 93.5272  10
   3  -5  -1 3608.10 88.3561   4
  -3  -5   1 3590.66 92.0116  16
   3   5  -1 3700.30 89.6178  14
  -3   5   1 3663.32 88.5556   7
  -3   5   1 3710.56 89.1689   3
   3   5  -1 3618.64 89.3772   3
   3   5  -1 3586.74 89.7160  12
  -3   5   1 3589.35 89.2095  12
  -3   5   1 3641.13 90.7242  13
  -3   5   1 3591.44 88.5379   8
   3   5  -1 3620.35 88.4392   4
  -1  -5   1 2179.96 54.1751   5
  -1  -5   1 2205.07 55.3533  10
  -1  -5   1 2111.11 55.5351  16
   1  -5  -1 2221.45 55.6945  10
  -1  -5   1 2178.00 54.4960   2
   1  -5  -1 2158.11 54.8000   2
  -1  -5   1 2158.15 54.5891  12
   1  -5  -1 2122.48 54.4926   6
  -1   5   1 2195.99 54.4956   3
   1   5  -1 2153.09 54.5611  12
  -1   5   1 2155.32 53.3667  14
  -1   5   1 2151.05 55.4283  13
   1   5  -1 2173.85 54.4883  13
   1   5  -1 2175.12 54.7985   7
  -1   5   1 2205.78 55.0724  10
  -1   5   1 2134.58 53.2685   7
   1   5  -1 2211.76 54.3589  14
  -1   5   1 2175.42 54.5676  12
   1   5  -1 2163.42 54.4904   3
   1  -5   1 3510.31 88.9860  10
   1  -5   1 3468.99 86.2142  12
  -1  -5  -1 3519.06 86.8883   6
   1  -5   1 3531.45 85.4618   6
  -1  -5  -1 3343.39 85.4156   2
   1  -5   1 3593.10 86.6745   2
  -1  -5  -1 3540.00 88.0287  11
  -1   5  -1 3524.25 86.2158   7
   1   5   1 3441.19 83.9628   4
   1   5   1 3518.43 87.0629  13
   1   5   1 3542.81 86.2161  12
  -1   5  -1 3460.43 86.0231   3
   1   5   1 3547.46 86.3140   3
  -1   5  -1 3414.54 86.4088  13
   1   5   1 3562.30 85.6363  14
  -1   5  -1 3386.01 84.1490   8
  -3  -5  -1 723.195 21.9258   6
   3  -5   1 757.891 25.8438  10
  -3  -5  -1 722.334 21.4958   5
  -3  -5  -1 709.486 23.5937  11
   3  -5   1 732.674 21.3382  12
   3  -5   1 754.236 21.7419   2
   3   5   1 736.272 21.2537  14
  -3   5  -1 731.640 19.5121   8
   3   5   1 713.638 19.6603   4
   3   5   1 735.913 21.5780   3
   3   5   1 720.479 21.2093  12
  -3   5  -1 742.815 21.6378   7
  -3   5  -1 723.702 22.0997   1
  -3   5  -1 736.340 21.0228   3
  -3   5  -1 783.374 22.3469  13
  -5  -5  -1 1136.38 32.0603   5
   5  -5   1 1095.24 31.7380  12
   5  -5   1 1061.06 37.8020  10
  -5  -5  -1 1149.66 32.5213   1
  -5  -5  -1 1150.14 32.1008   6
   5  -5   1 1112.62 31.5215   4
  -5  -5  -1 1155.97 35.4507  11
   5  -5   1 1045.07 30.9589   2
   5   5   1 1118.87 32.0665   3
  -5   5  -1 1087.37 33.0642   1
   5   5   1 1159.55 31.8700  12
  -5   5  -1 1057.34 29.6411   8
  -5   5  -1 1095.74 32.2808   7
  -5   5  -1 1089.29 34.6318  11
   5   5   1 1132.05 31.8112  14
   5   5   1 1100.40 30.2278   4
  -7  -5  -1 188.564 9.36311   6
  -7  -5  -1 163.938 12.6066  11
  -7  -5  -1 166.138 10.3765   1
   7  -5   1 178.225 9.94990   4
   7  -5   1 155.600 9.31793  12
  -7   5  -1 180.422 10.9646   1
  -7   5  -1 188.782 12.5856  11
   7   5   1 153.711 9.55334   3
   7   5   1 165.677 9.77180  14
   7   5   1 167.174 8.76190   4
   7   5   1 170.982 9.41608  12
   9  -5   1 314.649 18.5304  12
  -9  -5  -1 375.184 17.6628   1
   9  -5   1 392.278 17.1094   4
  -9  -5  -1 376.168 21.6970  11
  -9   5  -1 391.341 18.6830   1
   9   5   1 417.310 16.9660   3
   9   5   1 372.590 15.6791   4
   9   5   1 392.453 16.9101  12
  -9   5  -1 375.056 21.5064  11
 -10  -6   1 112.725 12.4455  11
  10  -6  -1 121.516 9.22357   4
 -10  -6   1 126.362 9.26142   5
  10   6  -1 120.960 8.83252   4
 -10   6   1 125.335 11.2758   1
 -10   6   1 137.883 13.7833  11
   8  -6  -1 34.3820 4.59513   2
  -8  -6   1 36.8848 4.91647   6
  -8  -6   1 29.7870 4.94958   5
   8  -6  -1 25.4282 4.19162   4
  -8  -6   1 35.0870 6.75215  11
  -8   6   1 32.5497 4.25867   8
   8   6  -1 32.5830 4.36008   4
  -8   6   1 33.9871 6.13295   1
   8   6  -1 30.4497 4.97895  14
   8   6  -1 41.7719 5.33814   3
  -8   6   1 37.7209 7.44094  11
   8   6  -1 31.7426 4.60474  12
  -6  -6   1 300.963 12.4770   5
   6  -6  -1 274.602 11.2497   4
   6  -6  -1 270.679 11.6229   2
  -6  -6   1 302.737 14.1545  11
  -6  -6   1 301.055 14.9460  16
   6  -6  -1 267.337 16.0078  10
  -6   6   1 275.499 12.6379  13
  -6   6   1 298.286 12.9750   1
   6   6  -1 285.164 10.8084   4
   6   6  -1 300.210 11.7641   3
   6   6  -1 276.527 11.9866  12
   6   6  -1 292.167 12.0550  14
  -6   6   1 274.891 10.6771   8
  -4  -6   1 74.1128 6.84268  16
  -4  -6   1 85.6648 5.35105   5
   4  -6  -1 83.2325 7.62815  10
   4  -6  -1 85.6984 4.57924   4
   4  -6  -1 84.1443 5.23680  12
  -4  -6   1 76.8112 5.77203  11
   4  -6  -1 84.6468 5.82488   2
   4   6  -1 80.8722 5.11891  12
   4   6  -1 82.9620 5.26568  13
  -4   6   1 78.7621 4.91425   3
   4   6  -1 98.4049 4.73547   4
   4   6  -1 83.0713 5.33286   3
   4   6  -1 109.911 5.77458  14
  -4   6   1 91.3846 4.69099   8
  -4   6   1 84.6746 4.57469   7
  -2  -6   1 47.4196 3.41268   2
   2  -6  -1 48.1277 3.77597   2
  -2  -6   1 45.9575 3.24751  10
  -2  -6   1 43.4370 3.50515  11
   2  -6  -1 45.7336 3.25733   6
   2  -6  -1 41.3225 4.33830  10
  -2  -6   1 42.8642 3.49973   5
   2   6  -1 39.2987 3.37485  12
  -2   6   1 40.5433 2.84065   8
   2   6  -1 52.5764 3.86419  14
  -2   6   1 41.8241 3.28190  12
  -2   6   1 41.2847 3.55501   3
  -2   6   1 50.5710 2.84242   7
   2   6  -1 50.4229 3.96628   3
   2   6  -1 41.2467 3.39402  13
  -2   6   1 62.3634 4.78738  13
   0  -6   1 241.108 9.92430  10
   0  -6   1 235.839 9.03377   2
   0  -6  -1 239.344 8.01522  10
   0  -6  -1 236.598 8.65672   2
   0  -6  -1 246.320 9.17748   6
   0  -6   1 235.621 8.68650  12
   0   6  -1 230.362 8.78784  13
   0   6  -1 240.393 8.36524  14
   0   6   1 225.903 7.70708   7
   0   6   1 232.268 9.31610  13
   0   6  -1 235.497 8.59403   7
   0   6  -1 219.206 8.30858  12
   0   6  -1 226.393 8.66835   3
   0   6   1 233.803 8.72257  12
   0   6   1 223.244 8.54483   3
   0   6   1 223.929 7.79668  14
   2  -6   1 27.4199 2.25015   6
  -2  -6  -1 26.9506 3.81994  11
   2  -6   1 25.4853 3.02946  12
   2  -6   1 25.0344 3.17053   2
  -2  -6  -1 27.5143 2.38285   2
   2  -6   1 24.5221 4.20011  10
  -2  -6  -1 31.2634 3.87099   6
  -2   6  -1 26.9799 3.16581   3
  -2   6  -1 38.2233 3.07607   7
   2   6   1 31.9889 3.63735   3
   2   6   1 24.6812 2.01698   4
  -2   6  -1 26.8885 3.39347  13
   2   6   1 28.5942 3.22230  12
   2   6   1 26.8577 3.45187  13
   2   6   1 25.1679 2.92088  14
  -4  -6  -1 62.5876 6.53953  11
  -4  -6  -1 77.5249 5.95620   6
   4  -6   1 89.0550 5.71678  12
   4  -6   1 68.5963 7.67772  10
  -4  -6  -1 76.5688 5.40914   5
   4  -6   1 73.7760 5.62824   2
   4   6   1 72.3810 4.01609   4
   4   6   1 62.3458 5.20551  14
  -4   6  -1 69.2284 6.07813   1
   4   6   1 70.2709 5.18514  12
  -4   6  -1 62.2110 4.87540   3
  -4   6  -1 75.9070 5.54725  13
   4   6   1 74.9678 5.64618   3
  -4   6  -1 75.4183 5.36819   7
  -6  -6  -1 6.25950 4.36198  11
   6  -6   1 4.38767 2.84730   4
   6  -6   1 9.19734 2.91573  12
   6  -6   1 7.26024 2.41450   2
  -6  -6  -1 4.05435 2.77886   6
   6   6   1 7.58381 2.28263   4
   6   6   1 13.3902 3.31860  12
   6   6   1 9.27648 3.31616   3
  -6   6  -1 9.65046 4.13448  11
   6   6   1 9.48939 2.87961  14
  -6   6  -1 9.88260 3.99586   1
   8  -6   1 4.73098 2.65795   4
  -8  -6  -1 1.78972 5.04572  11
   8  -6   1 3.24926 3.02822  12
   8   6   1 0.60107 2.72356  12
  -8   6  -1 2.16875 4.50779   1
   8   6   1 2.82402 3.24366   3
  -8   6  -1 1.17233 2.84116  11
   8   6   1 2.13139 3.37698  14
  -9  -7   1 174.938 11.1036   5
   9  -7  -1 170.083 10.2174   4
  -9   7   1 176.025 13.8550  11
  -9   7   1 185.842 12.9250   1
  -7  -7   1 933.496 31.5722  11
   7  -7  -1 827.585 26.6569   4
  -7  -7   1 900.967 28.6522   5
  -7  -7   1 931.797 28.7123   6
   7  -7  -1 871.299 27.6487   2
  -7   7   1 850.486 29.3298   1
   7   7  -1 895.616 27.7198   3
   7   7  -1 823.859 27.4295  14
  -7   7   1 860.790 29.3341  13
   7   7  -1 810.983 29.9615  12
   5  -7  -1 207.592 13.0387  10
  -5  -7   1 183.583 9.51402   5
   5  -7  -1 194.879 9.76541   2
  -5  -7   1 177.656 9.94356  11
   5  -7  -1 186.107 8.00167   4
   5   7  -1 176.010 8.65945  13
   5   7  -1 160.832 8.68441  12
  -5   7   1 176.352 8.44346   3
   5   7  -1 179.040 7.67979   4
  -5   7   1 169.691 7.53182   8
   5   7  -1 175.043 8.97916  14
  -5   7   1 173.630 9.47602   1
   5   7  -1 175.163 8.86948   3
  -5   7   1 184.726 10.0846  13
  -3  -7   1 1169.19 30.8577   2
   3  -7  -1 1137.51 35.6064  10
  -3  -7   1 1138.12 32.7492  11
   3  -7  -1 1137.47 30.6023   6
  -3  -7   1 1180.94 32.3501   5
   3  -7  -1 1188.41 32.8477   2
  -3   7   1 1154.54 33.2503  13
   3   7  -1 1122.12 32.1309  12
   3   7  -1 1135.27 30.0667   4
  -3   7   1 1165.41 31.6041   3
   3   7  -1 1137.60 31.9082   3
   3   7  -1 1145.07 31.8254  14
   3   7  -1 1130.77 31.9909  13
  -3   7   1 1086.50 30.2072   8
   1  -7  -1 451.964 14.7834   2
   1  -7  -1 451.409 15.0823  10
  -1  -7   1 450.683 14.4483   2
   1  -7  -1 458.731 14.5594   6
  -1  -7   1 434.253 14.6716  10
  -1  -7   1 428.097 13.6188   5
  -1   7   1 435.320 15.2706  13
   1   7  -1 419.535 14.2129  13
   1   7  -1 435.624 14.2731   7
   1   7  -1 435.043 13.9135  14
   1   7  -1 346.460 15.1164  12
   1   7  -1 428.483 14.2682   3
  -1   7   1 439.806 14.3737   3
  -1   7   1 434.141 14.1949  12
   1  -7   1 1680.78 43.6566   6
   1  -7   1 1684.55 47.3535  10
   1  -7   1 1621.25 44.3420  12
  -1  -7  -1 1683.78 45.1172   6
  -1  -7  -1 1707.30 43.8497   2
  -1  -7  -1 1667.90 46.3409  11
   1  -7   1 1733.75 45.1160   2
   1   7   1 1690.98 45.4919  13
   1   7   1 1674.32 43.3909   7
  -1   7  -1 1679.36 44.1374   7
  -1   7  -1 1686.70 44.2675   3
   1   7   1 1680.50 43.4863  14
  -1   7  -1 1675.54 44.8470  13
   1   7   1 1629.57 44.3319   3
   1   7   1 1649.38 44.4256  12
  -3  -7  -1 741.688 25.2854  11
   3  -7   1 744.431 27.4225  10
  -3  -7  -1 752.822 23.8821   6
   3  -7   1 781.220 23.7050   2
   3  -7   1 751.952 23.1772  12
  -3   7  -1 795.051 22.9599   7
   3   7   1 738.931 23.8215  13
   3   7   1 760.342 22.5572  14
  -3   7  -1 770.829 22.7535   3
  -3   7  -1 746.520 23.5952  13
   3   7   1 737.501 23.1010   3
   3   7   1 725.877 22.8879  12
   5  -7   1 1358.59 37.6809   4
  -5  -7  -1 1364.99 39.4867   6
   5  -7   1 1288.88 38.4590  12
  -5  -7  -1 1296.22 41.7384  11
   5  -7   1 1358.08 38.5291   2
   5   7   1 1324.74 38.4487  12
  -5   7  -1 1310.09 39.7589   1
  -5   7  -1 1386.23 38.6903   7
  -5   7  -1 1386.36 39.9546  13
   5   7   1 1340.72 38.6434   3
   5   7   1 1296.57 37.8921  14
  -7  -7  -1 485.765 22.8673  11
   7  -7   1 429.081 16.9813   2
  -7  -7  -1 496.384 18.7117   6
   7  -7   1 430.362 18.2275  12
   7  -7   1 438.415 17.4881   4
  -7   7  -1 458.499 20.2094   1
   7   7   1 466.113 18.1361  14
   7   7   1 463.479 18.2231  12
  -7   7  -1 441.544 21.2744  11
   7   7   1 476.620 18.4972   3
   9  -7   1 433.230 18.3085   4
  -9  -7  -1 423.633 23.3788  11
  -9   7  -1 477.061 23.9460  11
  -9   7  -1 420.405 20.3494   1
   9   7   1 444.366 18.7108   3
   9   7   1 417.815 18.8198  12
   8  -8  -1 15.7138 4.24955   2
  -8  -8   1 24.4505 4.68643   5
  -8  -8   1 21.0288 4.73991   6
   8   8  -1 24.3212 4.24979   3
  -8   8   1 18.7953 5.91535  11
  -8   8   1 27.7200 6.25203   1
   6  -8  -1 396.120 15.9776   2
  -6  -8   1 377.931 15.6642   5
  -6  -8   1 385.517 16.0745   6
   6   8  -1 366.829 14.9534   3
  -6   8   1 386.952 16.5410  13
  -6   8   1 378.344 16.9660   1
   6   8  -1 365.892 15.0311  14
   4  -8  -1 251.765 11.4254   2
  -4  -8   1 204.130 10.6838  11
  -4  -8   1 236.103 10.6511   5
  -4  -8   1 225.163 11.2621   6
   4   8  -1 230.078 10.3524   3
   4   8  -1 204.431 9.92495  14
  -4   8   1 220.499 9.85464   3
   4   8  -1 226.616 10.2228  13
  -4   8   1 235.833 11.5789  13
   4   8  -1 212.128 10.2318  12
  -2  -8   1 330.559 12.3443   2
  -2  -8   1 357.272 13.8259   6
   2  -8  -1 353.866 13.6151   2
   2  -8  -1 358.086 12.5879   6
   2  -8  -1 345.225 14.5357  10
  -2  -8   1 355.114 12.6071   5
   2   8  -1 342.654 12.8492  13
   2   8  -1 356.612 12.9460   3
  -2   8   1 340.004 11.3442   8
  -2   8   1 340.311 13.6723  13
   2   8  -1 346.566 13.0187   7
  -2   8   1 342.871 12.8297   3
   2   8  -1 358.065 12.7337  14
   0  -8   1 914.134 26.9106   6
   0  -8  -1 919.339 26.9342   2
   0  -8  -1 939.462 27.5223   6
   0  -8   1 889.239 28.3333  10
   0  -8   1 969.918 27.7680   2
   0   8   1 893.639 25.5909  14
   0   8  -1 928.145 27.2818  13
   0   8  -1 929.597 26.7708   7
   0   8   1 926.372 27.1696  12
   0   8   1 942.317 28.1993  13
   0   8   1 950.495 27.2134   3
   0   8  -1 943.346 27.2303   3
   2  -8   1 241.458 10.8319   2
  -2  -8  -1 226.902 11.4312  11
   2  -8   1 214.354 12.1496  10
  -2  -8  -1 219.528 8.70177   2
  -2  -8  -1 223.091 10.5627   6
   2  -8   1 210.814 9.74536  12
   2   8   1 217.806 9.82813   3
   2   8   1 228.789 10.5987  13
  -2   8  -1 233.884 10.0313   3
  -2   8  -1 245.160 9.82761   7
  -2   8  -1 225.274 10.3824  13
   2   8   1 221.442 10.0516  12
   2   8   1 220.916 9.30962  14
  -4  -8  -1 695.409 25.5457  11
  -4  -8  -1 699.906 23.6872   6
   4  -8   1 640.391 22.2830  12
   4  -8   1 720.012 23.2745   2
  -4   8  -1 716.828 22.3533   3
  -4   8  -1 692.941 23.4441  13
   4   8   1 622.872 22.6743  13
   4   8   1 701.358 22.9725   3
   4   8   1 660.103 21.8878  14
  -4   8  -1 724.904 22.4459   7
   4   8   1 680.898 22.6713  12
  -4   8  -1 674.886 23.5889   1
   6  -8   1 260.974 11.6721   4
  -6  -8  -1 254.170 15.5801  11
   6  -8   1 268.629 12.4522   2
  -6  -8  -1 250.919 12.7350   6
   6   8   1 248.714 12.2713  14
   6   8   1 246.894 12.7124   3
  -6   8  -1 264.070 14.4189   1
   6   8   1 237.773 12.6344  13
   6   8   1 240.176 12.2942  12
  -6   8  -1 283.348 18.9720  11
   8  -8   1 139.873 9.50812   4
  -8  -8  -1 143.390 13.2287  11
   8   8   1 131.886 9.59385  12
  -8   8  -1 139.608 11.3336   1
   8   8   1 154.820 10.5977   3
  -9  -9   1 443.292 18.7996   6
  -9   9   1 373.167 22.2241  11
   9   9  -1 432.783 17.9985   3
  -9   9   1 459.842 21.6570   1
  -7  -9   1 118.425 8.94504   6
   7  -9  -1 111.990 8.40843   2
  -7  -9   1 117.733 9.22143   5
  -7   9   1 100.383 10.0856   1
   7   9  -1 108.078 7.98147  14
  -7   9   1 129.107 9.90116  13
   7   9  -1 107.284 7.95933   3
  -5  -9   1 1607.42 46.1915   5
  -5  -9   1 1551.36 46.6985   6
   5  -9  -1 1673.59 46.6689   2
  -5   9   1 1621.25 44.5901   3
   5   9  -1 1574.75 45.1352  14
  -5   9   1 1557.46 46.9167  13
   5   9  -1 1611.53 45.3613   3
  -5   9   1 1644.49 47.4294   1
  -3  -9   1 290.808 13.1909   6
  -3  -9   1 294.802 11.4033   2
   3  -9  -1 321.596 13.4262   2
   3   9  -1 296.585 12.8423   7
  -3   9   1 298.032 13.5220  13
  -3   9   1 313.806 12.6601   3
   3   9  -1 318.104 12.7366  13
   3   9  -1 308.440 12.4777  14
   3   9  -1 309.747 12.6795   3
  -1  -9   1 2818.56 71.9611   6
   1  -9  -1 2779.17 71.3844   6
  -1  -9   1 2700.76 71.1084   2
   1  -9  -1 2744.29 71.6534   2
   1   9  -1 2760.60 71.1965   3
  -1   9   1 2847.51 71.5165   3
  -1   9   1 2665.64 69.0122   8
  -1   9   1 2707.66 72.5374  13
   1   9  -1 2696.39 71.2559  13
   1   9  -1 2689.16 70.2154  14
   1  -9   1 106.817 7.08477   2
  -1  -9  -1 103.655 6.49466   2
  -1  -9  -1 98.6605 6.90096   6
   1  -9   1 102.729 6.37291   6
   1   9   1 100.966 6.00529  14
   1   9   1 90.7365 6.89865   3
   1   9   1 88.1463 6.39132  12
   1   9   1 111.462 7.62249  13
  -1   9  -1 103.680 6.30654   7
  -1   9  -1 95.6228 6.77252   3
  -1   9  -1 101.129 6.84471  13
  -3  -9  -1 1569.08 47.0964  11
  -3  -9  -1 1667.87 46.2624   6
   3  -9   1 1592.44 44.9128   2
   3  -9   1 1531.35 49.4345  10
   3   9   1 1575.12 45.4027  13
   3   9   1 1506.29 44.2362  12
  -3   9  -1 1562.75 43.7170   3
  -3   9  -1 1556.33 44.7815  13
   3   9   1 1584.57 43.2668  14
   3   9   1 1570.83 44.4154   3
  -5  -9  -1 3.26070 4.08098  11
   5  -9   1 10.2643 3.98456   2
  -5  -9  -1 8.66140 3.16483   6
   5   9   1 8.25676 3.31351  14
   5   9   1 5.86873 3.15454  13
   5   9   1 14.0326 4.12288   3
  -5   9  -1 11.1197 3.90166   1
  -5   9  -1 3.18405 2.21033  13
  -7  -9  -1 625.183 27.5236  11
   7  -9   1 674.791 23.5425   2
  -7  -9  -1 610.168 24.1787   6
  -7   9  -1 666.265 26.4591   1
   7   9   1 632.468 23.5540   3
   8 -10  -1 5.71285 3.15949   2
  -8 -10   1 6.24183 4.38232   6
   8  10  -1 3.93156 3.54685   3
  -8  10   1 3.44251 3.70453   1
  -6 -10   1 44.1543 6.74735   6
   6 -10  -1 48.8394 6.41089   2
  -6  10   1 42.1566 6.46773  13
  -6  10   1 49.6113 7.97283   1
   6  10  -1 44.1034 6.02974  14
   6  10  -1 49.0036 6.37782   3
  -4 -10   1 2.49471 2.78001   6
   4 -10  -1 2.51412 2.66380   2
   4  10  -1 0.46532 2.56575  14
  -4  10   1 -0.3949 2.50623  13
   4  10  -1 0.92560 2.82859   3
  -4  10   1 0.15738 1.99050   3
   4  10  -1 -0.8973 2.33678   7
   2 -10  -1 1.11179 3.00602   2
   2 -10  -1 1.01160 2.17226   6
  -2 -10   1 0.04316 2.77132   6
  -2 -10   1 -0.4916 2.06431   2
   2  10  -1 3.08591 2.35702  14
   2  10  -1 1.09467 2.28936   7
  -2  10   1 -1.2884 2.49647  13
   2  10  -1 -3.3031 2.45810   3
  -2  10   1 -0.7135 2.70373   3
   0 -10  -1 62.3866 6.49703   6
   0 -10   1 65.9642 6.46065   2
   0 -10  -1 63.9760 6.23653   2
   0 -10   1 58.2069 5.90274   6
   0  10  -1 60.5728 5.28503  13
   0  10  -1 60.3953 6.14462   3
   0  10   1 60.5984 6.33284   3
   0  10   1 56.9410 5.65738  13
   2 -10   1 41.4002 5.77255   2
  -2 -10  -1 36.4294 5.72795   6
   2  10   1 39.1809 4.55117  14
   2  10   1 19.5181 6.26341  12
  -2  10  -1 38.0878 5.33240   3
   2  10   1 36.2607 4.90066   3
   2  10   1 44.6695 5.75515  13
  -2  10  -1 34.9210 4.86026  13
  -4 -10  -1 31.8845 5.98130   6
   4 -10   1 29.6954 4.91754   2
  -4 -10  -1 34.5280 6.50438  11
  -4  10  -1 44.3960 6.21340   1
   4  10   1 21.2070 4.19862  12
  -4  10  -1 21.7096 4.02326  13
   4  10   1 23.6770 4.32031  14
   4  10   1 28.3286 4.97229  13
   4  10   1 31.8375 4.95851   3
  -4  10  -1 28.1070 4.87980   3
   6 -10   1 2.01525 3.75920   2
  -6 -10  -1 -0.0018 2.55032   6
   6  10   1 4.18009 3.80434   3
  -6  10  -1 0.56780 4.40836   1
   7 -11  -1 259.320 14.3142   2
  -7 -11   1 262.761 15.1011   6
   7  11  -1 256.734 13.6593   3
  -7  11   1 270.723 15.5508   1
  -5 -11   1 159.490 11.2387   6
   5 -11  -1 157.501 11.2999   2
  -5  11   1 152.793 9.79866   3
   5  11  -1 149.851 11.0760  14
   5  11  -1 165.551 9.95269   3
  -5  11   1 152.948 10.9409  13
  -5  11   1 187.871 12.5495   1
  -3 -11   1 193.657 11.2343   6
   3 -11  -1 183.223 11.3534   2
   3  11  -1 191.874 10.9988   3
  -3  11   1 185.722 10.9985  13
  -3  11   1 199.395 10.4111   3
   3  11  -1 180.447 9.70559  14
   1 -11  -1 334.913 14.5907   2
  -1 -11   1 311.191 14.5496   6
  -1 -11   1 307.968 13.7535   2
   1 -11  -1 282.520 13.5115   6
  -1  11   1 305.768 14.5456  13
   1  11  -1 309.984 13.8068   3
  -1  11   1 318.223 14.1495   3
  -1 -11  -1 277.080 12.0606   2
  -1 -11  -1 272.788 13.5188   6
   1 -11   1 266.386 13.5861   2
  -1  11  -1 293.069 13.0148   3
   1  11   1 289.873 13.6614   3
   1  11   1 258.925 13.1093  13
   3 -11   1 603.653 22.7426   2
  -3 -11  -1 601.287 23.3891   6
   3  11   1 598.090 22.8859  13
   3  11   1 619.431 22.5932   3
  -3  11  -1 596.547 22.4367  13
  -3  11  -1 623.261 22.1032   3
   3  11   1 605.436 20.8961  14
  -5 -11  -1 371.188 18.0656   6
   5 -11   1 362.280 16.8343   2
  -5  11  -1 364.913 18.4250   1
   5  11   1 360.153 16.7966   3
  -6 -12   1 6.82118 3.50025   6
   6 -12  -1 4.35648 3.21312   2
   6  12  -1 4.07427 3.65292   3
  -6  12   1 8.94720 5.67795   1
   4 -12  -1 106.796 9.56681   2
  -4 -12   1 109.730 9.49016   6
   4  12  -1 96.8223 8.81203   3
  -4  12   1 106.271 8.72005   3
   2 -12  -1 121.434 9.47647   2
  -2 -12   1 121.537 9.80803   6
  -2  12   1 122.396 9.27900   3
  -2  12   1 114.870 9.19513  13
   2  12  -1 149.064 10.0717   3
   0 -12  -1 19.6485 4.74335   6
   0 -12   1 21.4993 4.94122   2
   0 -12   1 24.6123 4.89509   6
   0 -12  -1 26.2414 4.84013   2
   0  12  -1 23.0697 4.88211   3
   0  12   1 25.0867 4.66858   3
   0  12   1 18.1544 4.46272  13
  -2 -12  -1 240.424 13.9218   6
   2 -12   1 226.744 12.7015   2
  -2  12  -1 217.350 11.8440   3
   2  12   1 252.724 13.2837   3
  -4 -12  -1 27.2940 6.42943   6
   4 -12   1 22.9160 4.89757   2
  -4  12  -1 15.9942 5.06839   3
  -4  12  -1 24.5000 5.44182   1
   4  12   1 13.0491 3.89963   3
  -3 -13   1 878.009 31.9573   6
   3 -13  -1 933.334 32.0045   2
  -3  13   1 928.390 30.8273   3
   3  13  -1 943.339 31.3174   3
  -1 -13   1 161.409 10.5299   6
  -1 -13   1 162.827 9.91351   2
   1 -13  -1 169.019 10.8006   2
   1  13  -1 161.248 10.8788   3
  -1  13   1 175.294 11.3187   3
   1 -13   1 667.905 24.9886   2
  -1 -13  -1 660.364 25.4922   6
   1  13   1 665.945 24.8880   3
  -1  13  -1 639.864 24.1257   3
   3 -13   1 71.7987 8.61294   2
  -3 -13  -1 57.2108 7.52579   6
  -3  13  -1 49.8787 7.14679   1
  -3  13  -1 44.5316 6.06650   3
   3  13   1 46.4448 6.25310   3
   2 -14  -1 34.5835 6.42036   2
  -2 -14   1 32.7370 6.37047   6
   0 -14  -1 1.50655 3.69447   6
   0 -14   1 2.78166 3.19394   2
   0  14   1 -1.5769 3.78314   3
   0  14  -1 4.90803 3.72773   3
  12   0  -2 42.8222 6.85568   4
 -10   0   2 1002.82 30.9013   8
 -10   0   2 959.781 37.2079  11
  10   0  -2 1001.32 31.7600   4
  10   0  -2 982.959 30.3821  14
   8   0  -2 542.558 18.5272   4
  -8   0   2 551.157 19.7344  16
   8   0  -2 532.188 23.0075  10
  -8   0   2 556.463 22.4619  11
  -8   0   2 548.358 18.6818   1
  -8   0   2 531.431 17.3271   5
   8   0  -2 547.156 17.9418  14
   8   0  -2 527.190 18.5481  12
  -8   0   2 553.060 18.1423   8
   6   0  -2 4422.10 109.433   4
  -6   0   2 4525.56 109.265   1
  -6   0   2 4440.90 110.932  16
  -6   0   2 4463.38 108.754   5
   6   0  -2 4296.66 109.574  12
   6   0  -2 4465.15 108.741  14
  -6   0   2 4425.70 109.086   8
   6   0  -2 4467.39 108.439   9
   6   0  -2 4385.49 114.193  10
  -6   0   2 4347.44 112.523  11
   4   0  -2 2683.02 67.1172   9
  -4   0   2 2719.09 67.2744   8
  -4   0   2 2748.74 68.6647  16
  -4   0   2 2768.59 66.9936   1
  -4   0   2 2756.69 67.2350   5
   4   0  -2 2781.95 70.7448  10
   4   0  -2 2712.26 67.6474  12
   4   0  -2 2701.65 66.8686  14
   4   0  -2 2712.90 67.3987   4
   2   0  -2 8962.42 220.433   6
  -2   0   2 8544.10 222.455  16
   2   0  -2 9049.12 219.298   4
  -2   0   2 8797.42 218.575  12
  -2   0   2 9219.84 231.661  10
  -2   0   2 9155.10 218.686   8
   2   0  -2 8975.94 217.583  14
  -2   0   2 8593.88 219.825   5
   2   0  -2 8985.14 219.416   9
  -2   0   2 9235.23 219.831  13
   0   0  -2 162.927 5.02143   9
   0   0  -2 155.917 5.10322  15
   0   0  -2 167.702 5.42748  11
   0   0  -2 154.213 4.86166   6
   0   0  -2 166.942 5.14533   7
   0   0  -2 163.388 5.04241   1
   2   0   2 4966.74 118.709  12
  -2   0  -2 4857.18 118.104   1
  -2   0  -2 4917.06 118.045   7
   2   0   2 5049.70 118.822  12
   2   0   2 4849.38 125.555  10
  -2   0  -2 4659.06 120.104   6
  -2   0  -2 4757.60 120.093  15
  -2   0  -2 4882.54 124.382  11
  -2   0  -2 4752.36 119.324  10
   2   0   2 4746.98 117.638   2
   4   0   2 25.3060 2.36396  12
  -4   0  -2 21.4376 3.76549  11
   4   0   2 22.1091 2.88491   4
   4   0   2 23.1741 3.99860  10
  -4   0  -2 20.1987 3.18637   1
   6   0   2 2087.05 60.8494  10
   6   0   2 2149.88 56.0452   4
  -6   0  -2 2118.53 57.6924   1
  -6   0  -2 2145.22 61.5575  11
   6   0   2 2088.81 55.1201  12
   6   0   2 2083.14 55.8474  14
   8   0   2 3.08444 3.40314   4
   8   0   2 6.24001 2.88375  12
  -8   0  -2 5.74148 4.07837   1
  -8   0  -2 16.6720 6.23150  11
   8   0   2 6.99036 3.01721  14
 -10   0  -2 1032.19 36.3651   1
  10   0   2 1058.86 34.1800   4
  10   0   2 1066.89 34.4920  12
 -10   0  -2 1065.72 41.7945  11
 -11  -1   2 123.312 12.3808  11
  11  -1  -2 113.520 9.29334   4
 -11   1   2 119.128 9.07807   8
  11   1  -2 112.947 9.54254   4
 -11   1   2 117.073 13.5306  11
  -9  -1   2 4.16260 2.92279  16
  -9  -1   2 1.03364 2.59604   1
  -9  -1   2 0.86639 1.85440   5
  -9  -1   2 -2.3923 2.47071   8
  -9  -1   2 5.48756 4.65353  11
   9  -1  -2 0.48883 1.94747  14
   9  -1  -2 -0.3175 1.95145   4
   9   1  -2 -0.4082 2.93596   4
  -9   1   2 -0.0470 1.96832   1
   9   1  -2 0.13205 1.47034  14
  -9   1   2 -0.6132 4.23425  11
  -9   1   2 -1.4608 1.76097   8
  -7  -1   2 140.702 6.93137   8
  -7  -1   2 130.468 6.91901   1
   7  -1  -2 140.087 6.74451  14
  -7  -1   2 159.836 8.81564  16
   7  -1  -2 138.751 10.3661  10
   7  -1  -2 130.356 7.29442  12
  -7  -1   2 148.643 9.72285  11
  -7  -1   2 168.695 7.37634   5
   7  -1  -2 138.999 6.55862   9
   7  -1  -2 141.718 7.56245   4
   7   1  -2 142.148 7.34392   4
  -7   1   2 139.526 7.34142   1
  -7   1   2 140.828 7.26371   8
   7   1  -2 135.899 9.55052  10
  -7   1   2 140.021 7.68868  16
   7   1  -2 132.333 6.77287  14
  -7   1   2 141.554 6.31701   5
  -7   1   2 156.936 9.72536  11
   7   1  -2 134.133 7.41289  12
   5  -1  -2 210.858 7.32031  14
  -5  -1   2 208.000 7.54115   1
   5  -1  -2 212.485 8.01289   4
   5  -1  -2 213.455 7.10560   2
  -5  -1   2 206.530 7.68833   8
   5  -1  -2 195.292 7.97526  12
  -5  -1   2 221.502 7.93459   5
   5  -1  -2 223.712 11.0327  10
  -5  -1   2 215.207 8.45333  12
  -5  -1   2 218.608 9.59594  11
  -5  -1   2 218.325 9.38512  16
  -5   1   2 215.820 8.25516  13
   5   1  -2 208.625 8.03275   4
  -5   1   2 201.978 7.70080   1
   5   1  -2 204.315 7.68017  14
  -5   1   2 227.443 8.72684  16
   5   1  -2 196.912 7.99706  12
  -5   1   2 214.017 7.39640   5
   5   1  -2 208.675 7.12776   9
   5   1  -2 210.092 10.0083  10
  -5   1   2 202.616 7.75679   8
  -3  -1   2 249.415 9.35567  10
  -3  -1   2 260.102 7.64661   8
  -3  -1   2 252.780 8.84815  16
   3  -1  -2 255.233 9.85016  10
   3  -1  -2 256.228 7.67537   4
  -3  -1   2 253.837 7.65917  12
   3  -1  -2 251.754 7.01548  14
  -3  -1   2 245.627 7.29841   1
   3  -1  -2 253.092 7.51142   6
   3  -1  -2 250.720 7.62002   2
  -3  -1   2 244.987 7.83807   5
  -3   1   2 252.138 9.70766  10
   3   1  -2 243.522 7.80726  12
   3   1  -2 241.718 7.75555   4
   3   1  -2 248.995 7.50109   9
  -3   1   2 263.626 7.83507   8
  -3   1   2 251.482 7.49813   1
  -3   1   2 250.374 7.64363  12
   3   1  -2 257.357 7.63545  14
  -3   1   2 255.377 7.59031   5
  -3   1   2 264.940 8.11090  13
  -3   1   2 248.693 8.41124  16
   1  -1  -2 2070.69 52.2240   6
   1  -1  -2 2077.91 52.1664   9
  -1  -1   2 2123.12 53.1736   5
  -1  -1   2 2195.00 52.9014  12
   1  -1  -2 2018.44 52.1936  15
  -1  -1   2 2327.60 51.9794  13
  -1  -1   2 2146.07 56.5233  16
   1   1  -2 2142.94 52.3011   9
   1   1  -2 2259.70 52.0391   4
  -1   1   2 2079.69 52.2730  13
   1   1  -2 2082.10 52.0075  15
   1   1  -2 2208.99 52.4633   7
   1   1  -2 2260.35 54.3457  14
  -1   1   2 2004.44 52.7894  12
  -1  -1  -2 228.124 8.08431  11
  -1  -1  -2 232.558 7.35968   1
  -1  -1  -2 219.823 6.30794   9
   1  -1   2 223.288 5.58114  12
  -1  -1  -2 229.470 6.83277   6
  -1  -1  -2 230.367 7.10894   7
   1  -1   2 224.772 8.53833  10
  -1  -1  -2 224.921 6.92640  15
  -1   1  -2 213.206 7.06688  15
  -1   1  -2 215.557 6.90462   9
  -1   1  -2 205.479 7.08942   1
  -1   1  -2 216.829 7.52186  11
  -1   1  -2 218.465 7.29385   7
   1   1   2 238.981 7.57781  10
   3  -1   2 252.191 7.73191  12
  -3  -1  -2 235.952 9.18904   1
  -3  -1  -2 241.901 10.6860  11
   3  -1   2 258.746 7.74380   2
  -3  -1  -2 239.468 7.71931   6
   3  -1   2 271.163 11.4276  10
   3   1   2 237.528 7.49404  12
  -3   1  -2 245.965 9.24200   1
  -3   1  -2 237.033 10.2480  11
  -3   1  -2 242.335 9.23726   7
   3   1   2 263.521 10.2696  10
  -3   1  -2 245.998 8.01218   8
   3   1   2 237.333 8.36065   4
   3   1   2 252.409 8.74915  14
   5  -1   2 275.260 14.0526  10
   5  -1   2 260.654 10.6043   4
  -5  -1  -2 267.955 11.5686   1
  -5  -1  -2 261.304 13.6041  11
   5  -1   2 276.966 9.92470  12
  -5   1  -2 263.046 11.3281   1
   5   1   2 274.524 12.7670  10
  -5   1  -2 268.312 13.2909  11
   5   1   2 272.108 9.76769  12
   5   1   2 270.827 10.5647  14
   5   1   2 274.047 10.4971   4
  -5   1  -2 271.623 9.89256   8
   7  -1   2 7.77802 3.58602   4
  -7  -1  -2 8.06138 4.44918  11
  -7  -1  -2 10.9551 4.03665   1
   7  -1   2 11.3115 3.17267  14
   7  -1   2 9.39732 2.89482  12
  -7   1  -2 5.71326 3.46621  11
   7   1   2 7.71291 2.66807  12
   7   1   2 8.35689 2.97361  14
  -7   1  -2 7.16749 3.05683   1
   7   1   2 13.0161 3.22583   4
  -9  -1  -2 165.126 14.6573  11
   9  -1   2 158.499 10.7670   4
   9  -1   2 168.812 10.2912  12
  -9  -1  -2 173.204 11.4746   1
  -9   1  -2 175.804 12.7572   1
   9   1   2 175.226 10.4828  12
  -9   1  -2 164.258 15.0025  11
   9   1   2 170.106 10.8662   4
 -10  -2   2 75.2147 6.26893   5
 -10  -2   2 86.0211 7.69257   8
  10  -2  -2 73.1680 7.63925   4
 -10  -2   2 79.7370 10.3007  11
 -10   2   2 82.1244 7.68352   8
 -10   2   2 71.9578 6.96533   1
  10   2  -2 74.1555 7.61819   4
  10   2  -2 69.8854 6.86263  14
 -10   2   2 73.3734 10.6616  11
  -8  -2   2 1123.35 31.8773   1
   8  -2  -2 1060.22 30.7621  14
   8  -2  -2 1040.74 38.3942  10
  -8  -2   2 1056.67 31.4271   5
  -8  -2   2 1092.15 34.4996  16
   8  -2  -2 1139.26 32.5133   4
  -8  -2   2 1087.53 31.6880   8
   8  -2  -2 1080.74 32.5701  12
  -8  -2   2 1162.04 36.9369  11
  -8   2   2 1110.27 31.7862   8
   8   2  -2 1064.47 31.6596  14
  -8   2   2 1112.68 37.0401  11
   8   2  -2 1017.50 32.1485  12
   8   2  -2 1127.15 32.3053   4
  -8   2   2 1104.40 32.6814   1
  -6  -2   2 74.9986 4.69726   8
   6  -2  -2 69.2091 4.49327   4
   6  -2  -2 71.1100 7.23676  10
   6  -2  -2 62.1536 4.47721  12
  -6  -2   2 72.0939 5.64473  16
  -6  -2   2 68.1194 4.23112   1
   6  -2  -2 63.4185 3.86192  14
  -6  -2   2 69.8821 4.66228   5
  -6  -2   2 97.1262 6.90042  11
   6  -2  -2 69.6804 3.73643   2
   6   2  -2 63.4702 3.30989   9
   6   2  -2 60.7601 4.47392  14
  -6   2   2 71.4891 4.42283   8
   6   2  -2 77.3239 5.06338   4
  -6   2   2 68.7789 4.69115   1
  -6   2   2 71.4574 4.89809  13
   6   2  -2 68.1653 4.66886  12
  -6   2   2 69.6810 4.70979  16
  -6   2   2 64.1042 3.58311   5
  -4  -2   2 2929.24 75.6093  12
   4  -2  -2 3155.18 80.1392  10
  -4  -2   2 2975.36 75.1629   1
   4  -2  -2 3116.08 75.8003   2
  -4  -2   2 3095.45 78.1111  16
   4  -2  -2 2966.77 74.7774  14
   4  -2  -2 3168.70 75.0441   6
  -4  -2   2 3117.64 77.5551  11
   4  -2  -2 2992.52 76.1981  12
   4  -2  -2 3085.96 75.7932   4
  -4  -2   2 3029.18 75.6781   8
  -4  -2   2 3094.95 76.2966   5
   4   2  -2 3147.17 76.0167  14
  -4   2   2 3066.47 75.2524   5
  -4   2   2 3081.64 76.4640  16
  -4   2   2 3145.87 76.6506  13
   4   2  -2 3098.84 76.0238   4
   4   2  -2 3174.48 75.0585   9
   4   2  -2 3081.71 76.3004  12
  -4   2   2 3107.90 75.8680   8
  -4   2   2 3041.08 75.6937  12
  -4   2   2 3168.59 76.0825   1
   2  -2  -2 702.172 19.1061   2
  -2  -2   2 757.170 20.1769  16
  -2  -2   2 747.400 18.4205   8
   2  -2  -2 720.172 20.7157  10
   2  -2  -2 701.362 18.8882   6
  -2  -2   2 752.536 19.1287   5
  -2  -2   2 738.102 18.9304  12
   2  -2  -2 696.644 18.2191   4
   2   2  -2 754.342 18.9606   4
   2   2  -2 741.354 18.4399   3
   2   2  -2 731.820 18.8560   9
  -2   2   2 709.809 18.8569  12
  -2   2   2 726.943 19.5081  13
   2   2  -2 746.931 18.9841  14
  -2   2   2 702.732 20.5280  10
  -2   2   2 703.775 18.3252   3
  -2   2   2 748.137 19.0224   8
   0  -2  -2 7724.21 194.171   2
   0  -2  -2 8099.25 197.377  15
   0  -2  -2 7488.68 195.651   6
   0  -2  -2 8020.95 194.416   9
   0  -2   2 7713.67 193.307  12
   0  -2  -2 8349.18 199.243   1
   0  -2   2 7565.80 193.763  16
   0  -2  -2 8256.04 201.864  11
   0   2  -2 7171.81 195.182   9
   0   2  -2 7925.04 194.762   3
   0   2  -2 7770.48 196.081   1
   0   2  -2 8401.20 199.827   7
   0   2  -2 7732.31 194.694  15
   0   2   2 8104.84 193.383   3
   0   2  -2 7844.70 194.643  13
   0   2   2 8106.27 192.959  14
  -2  -2  -2 3455.52 84.6793  15
  -2  -2  -2 3656.01 87.8553  11
  -2  -2  -2 3545.45 85.2393   6
   2  -2   2 3418.90 88.5966  10
  -2  -2  -2 3539.98 85.9862   1
   2  -2   2 3391.36 84.8623   2
   2  -2   2 3351.34 84.2783  12
  -2   2  -2 3380.50 85.8350   1
  -2   2  -2 3368.12 84.0976   8
   2   2   2 3663.59 85.7881  10
  -2   2  -2 3344.33 86.5181  11
  -2   2  -2 3401.30 85.9830   7
   2   2   2 3687.41 85.3754  14
   2   2   2 3562.13 84.7133   4
   2   2   2 3466.10 86.3540  12
  -4  -2  -2 3355.52 88.8597  11
  -4  -2  -2 3290.81 85.7241   1
   4  -2   2 3522.38 84.0645  12
   4  -2   2 3424.02 85.0134   4
  -4  -2  -2 3195.28 83.7463   6
   4  -2   2 3318.89 83.5303   2
   4  -2   2 3371.60 89.7962  10
   4   2   2 3434.95 84.4390   4
   4   2   2 3480.32 85.0617  14
  -4   2  -2 3480.60 86.1748   7
  -4   2  -2 3429.46 86.1939   1
  -4   2  -2 3369.36 83.8191   8
  -4   2  -2 3368.51 88.0560  11
   4   2   2 3572.93 84.0129  12
  -6  -2  -2 970.747 33.9822  11
   6  -2   2 993.458 29.4243   4
   6  -2   2 965.253 34.3782  10
  -6  -2  -2 965.144 30.2315   1
   6  -2   2 978.981 28.3668  12
  -6   2  -2 993.432 27.9493   8
  -6   2  -2 983.434 30.6700   1
   6   2   2 961.842 28.1856  12
   6   2   2 974.589 28.4798   4
  -6   2  -2 1000.76 33.6707  11
   6   2   2 979.069 29.0811  14
  -8  -2  -2 562.151 21.8695   1
   8  -2   2 574.470 20.4057  12
  -8  -2  -2 569.912 25.9782  11
   8  -2   2 543.451 20.1537  14
   8  -2   2 578.589 21.0040   4
  -8   2  -2 595.563 23.3498   1
  -8   2  -2 560.846 26.0129  11
   8   2   2 584.800 20.5893   4
   8   2   2 549.403 20.3670  14
   8   2   2 582.348 20.6890  12
  10  -2   2 157.992 10.1020  12
  10  -2   2 169.730 11.4458   4
 -10  -2  -2 174.769 12.6149   1
 -10  -2  -2 161.542 15.3093  11
  10   2   2 156.142 10.5860   4
  10   2   2 146.464 10.2105  12
 -10   2  -2 171.286 15.4302  11
 -10   2  -2 178.314 13.4284   1
  11  -3  -2 99.8390 8.64228   4
 -11  -3   2 82.5987 11.8223  11
 -11   3   2 82.7179 11.7239  11
  11   3  -2 81.6568 8.11458   4
 -11   3   2 101.528 8.12566   8
  -9  -3   2 0.73411 1.61655   5
   9  -3  -2 4.41968 2.64612   9
  -9  -3   2 5.50876 3.31150  16
  -9  -3   2 1.85942 2.95144   8
   9  -3  -2 2.47178 2.37039   4
  -9  -3   2 -0.2496 2.86125  11
  -9   3   2 1.43716 3.10694   1
   9   3  -2 3.84112 2.18090   3
   9   3  -2 -1.6604 2.85499   4
  -9   3   2 0.38423 2.98338  11
  -9   3   2 -0.2757 2.58138   8
   9   3  -2 0.23827 1.68380  14
   7  -3  -2 99.3197 9.51317  10
   7  -3  -2 93.3150 5.16337  14
  -7  -3   2 103.564 8.00328  16
  -7  -3   2 100.751 8.20425  11
  -7  -3   2 106.086 6.45212   5
   7  -3  -2 99.7984 5.26030   2
  -7  -3   2 96.2080 5.82534   1
  -7  -3   2 94.9722 6.13142   8
   7  -3  -2 94.4696 6.18634  12
   7  -3  -2 100.893 6.05300   4
   7   3  -2 90.6501 5.96837  12
  -7   3   2 94.7420 5.67793   8
  -7   3   2 99.9168 6.62756   1
   7   3  -2 90.6739 5.85809   4
   7   3  -2 89.7680 6.19098  14
  -5  -3   2 206.574 7.78868   8
   5  -3  -2 205.204 7.01455  14
  -5  -3   2 209.761 9.57512  11
   5  -3  -2 211.965 8.41338  12
   5  -3  -2 205.035 7.83325   2
  -5  -3   2 224.612 10.2997  16
  -5  -3   2 216.263 8.37293   5
   5  -3  -2 220.552 11.7454  10
  -5  -3   2 195.689 7.42296   1
   5  -3  -2 200.949 7.87474   4
   5   3  -2 214.974 8.34470  14
   5   3  -2 208.231 8.10352   4
   5   3  -2 201.715 8.21713  12
   5   3  -2 195.157 7.49236   3
   5   3  -2 199.903 6.48158   9
  -5   3   2 209.692 8.74834  13
  -5   3   2 209.920 7.70248  12
  -5   3   2 204.077 8.02008  16
  -5   3   2 216.907 8.54178   1
  -5   3   2 212.496 7.92533   8
  -5   3   2 206.337 7.04998   5
  -3  -3   2 13.0849 1.69637  12
  -3  -3   2 12.1081 1.46175   8
  -3  -3   2 15.2650 2.27909  10
  -3  -3   2 10.5844 2.04730  16
   3  -3  -2 11.9871 1.40131   4
   3  -3  -2 10.7659 1.60325   2
   3  -3  -2 12.3663 1.85925  12
   3  -3  -2 15.4754 1.49449   6
  -3  -3   2 9.59719 1.48476   5
   3  -3  -2 11.3112 2.34647  10
  -3  -3   2 13.8633 1.90686  11
  -3   3   2 11.2982 1.54770   8
   3   3  -2 11.2806 1.68167  12
   3   3  -2 10.4507 1.64044  14
  -3   3   2 11.2386 1.85725  13
   3   3  -2 11.9916 1.53716   3
  -3   3   2 12.3881 1.65864  12
   3   3  -2 10.1462 1.23554   9
  -1  -3   2 1626.29 39.8597   5
   1  -3  -2 1607.17 40.6231  10
  -1  -3   2 1627.16 40.8727  16
   1  -3  -2 1579.99 40.2905   2
   1  -3  -2 1580.57 40.4302   6
  -1  -3   2 1627.89 40.3292   2
  -1  -3   2 1649.88 40.1772  12
   1   3  -2 1590.88 40.7822   7
   1   3  -2 1633.67 40.2110  14
  -1   3   2 1599.82 39.9577   3
  -1   3   2 1622.87 39.0285  14
  -1   3   2 1574.99 40.5828  10
   1   3  -2 1604.99 39.3587  13
  -1   3   2 1644.08 39.9802  12
   1   3  -2 1599.19 39.9146   3
   1   3  -2 1590.76 40.2532   9
  -1   3   2 1608.30 41.0179  13
  -1  -3  -2 124.389 5.38039   1
   1  -3   2 129.519 4.65159  12
  -1  -3  -2 126.468 5.25175   6
  -1  -3  -2 127.519 6.19894  11
  -1  -3  -2 127.548 4.60028  15
  -1  -3  -2 119.198 4.19337   2
   1  -3   2 126.429 6.75044  10
   1  -3   2 123.980 5.02391   2
   1   3   2 125.199 3.97380   4
   1   3   2 115.230 4.91481   3
  -1   3  -2 121.510 5.13233   1
   1   3   2 123.721 4.38179  12
  -1   3  -2 127.354 4.96001  13
   1   3   2 134.527 3.59967  10
   1   3   2 123.336 4.63908  14
  -1   3  -2 126.650 4.84895   3
  -1   3  -2 122.045 5.38530   7
  -3  -3  -2 22.8845 3.09430   1
   3  -3   2 19.6058 2.22617  12
  -3  -3  -2 23.2686 2.27082   6
  -3  -3  -2 23.2314 3.86334  11
   3  -3   2 20.7874 4.00044  10
  -3  -3  -2 20.5223 1.79867  15
   3  -3   2 18.3900 2.24225   2
   3   3   2 22.2489 2.54760  14
   3   3   2 22.3421 2.04101   4
  -3   3  -2 28.1553 3.36758  11
  -3   3  -2 18.5170 2.67981   1
   3   3   2 20.7615 2.37214  10
  -3   3  -2 20.8213 1.77248   8
   3   3   2 17.3400 2.05729  12
  -3   3  -2 20.3715 2.97440   7
   5  -3   2 3.09560 3.30842  10
   5  -3   2 3.49707 1.76873  12
  -5  -3  -2 6.56781 2.24552   1
   5  -3   2 9.07454 2.06344   2
  -5  -3  -2 1.61543 1.42379   6
   5  -3   2 6.59319 2.10095   4
  -5  -3  -2 0.27741 2.14640  11
  -5   3  -2 4.15544 2.11646   1
  -5   3  -2 6.92163 2.34214   7
   5   3   2 2.42860 2.13653  14
   5   3   2 3.66216 1.73850  12
  -5   3  -2 3.08232 1.54650   8
  -5   3  -2 2.96132 2.23250  11
   5   3   2 4.29225 2.06575   4
   7  -3   2 61.5263 6.52100   4
   7  -3   2 65.9539 5.80424  12
  -7  -3  -2 63.4347 7.34132   1
  -7  -3  -2 53.6134 8.56195  11
   7  -3   2 53.7473 5.61326  14
   7   3   2 61.5660 5.63042  12
  -7   3  -2 70.3050 8.99368  11
   7   3   2 57.5126 5.79836  14
  -7   3  -2 64.7723 7.51879   1
   7   3   2 61.4511 5.90411   4
  -9  -3  -2 2.12517 4.24456   1
   9  -3   2 10.0229 3.51274  12
   9  -3   2 11.5706 4.47916   4
  -9  -3  -2 3.32468 5.67298  11
  -9   3  -2 10.1311 5.47911   1
   9   3   2 5.97508 3.88637   4
  -9   3  -2 14.4471 5.26966  11
   9   3   2 8.41175 3.39058  12
 -10  -4   2 70.1089 9.96876  11
 -10  -4   2 64.4967 6.86801   5
  10  -4  -2 72.7625 6.36774   9
  10  -4  -2 65.8915 7.60272   4
 -10   4   2 72.5684 6.85217   8
  10   4  -2 59.1102 6.33955  14
 -10   4   2 69.2020 9.90265  11
 -10   4   2 72.1016 8.26721   1
  10   4  -2 57.1690 6.77002   4
  -8  -4   2 2301.06 60.6168   1
  -8  -4   2 2254.00 65.3593  11
  -8  -4   2 2263.95 61.2968   5
   8  -4  -2 2206.70 60.7240   4
  -8  -4   2 2253.98 64.8760  16
   8   4  -2 2290.95 61.1781  14
   8   4  -2 2237.42 61.6197  12
  -8   4   2 2351.52 60.4692   8
   8   4  -2 2188.52 59.7087   3
  -8   4   2 2346.96 66.8582  11
   8   4  -2 2284.06 60.8184   4
  -8   4   2 2395.16 62.4525   1
  -6  -4   2 415.463 14.0218   1
   6  -4  -2 450.057 14.4021   2
  -6  -4   2 447.660 15.2209   5
   6  -4  -2 429.187 14.9408  12
  -6  -4   2 441.940 17.4786  16
  -6  -4   2 411.248 16.6106  11
   6  -4  -2 435.258 19.3920  10
   6  -4  -2 405.055 13.0794  14
  -6  -4   2 439.647 14.3187   8
   6  -4  -2 446.096 14.5053   4
   6   4  -2 417.690 13.9031   3
   6   4  -2 425.773 14.4130   4
  -6   4   2 462.897 15.5375   1
  -6   4   2 454.929 15.9538  13
   6   4  -2 410.199 14.7845  12
   6   4  -2 422.135 14.8140  14
  -6   4   2 430.739 14.2015   8
  -4  -4   2 6759.25 164.058  16
   4  -4  -2 6708.48 163.497   6
   4  -4  -2 6299.86 161.424  12
   4  -4  -2 6593.36 165.971  10
  -4  -4   2 6373.53 160.910   2
   4  -4  -2 6498.79 161.495   2
   4  -4  -2 6414.07 160.330   4
  -4  -4   2 6627.67 161.081  12
  -4  -4   2 6732.74 160.496   8
  -4  -4   2 6845.49 161.726   5
  -4  -4   2 6984.86 162.415  11
  -4   4   2 6193.45 163.670  16
  -4   4   2 6668.90 160.286   3
  -4   4   2 6519.53 160.774   8
   4   4  -2 6905.07 160.788   3
   4   4  -2 6949.75 160.972   4
   4   4  -2 7062.50 161.560  14
   4   4  -2 6759.01 161.541  12
  -4   4   2 6507.97 161.046  12
  -4   4   2 6595.39 162.393  13
   4   4  -2 6513.94 163.394   9
   2  -4  -2 630.269 18.8929  10
  -2  -4   2 595.117 16.3822  11
   2  -4  -2 619.956 17.4087   2
  -2  -4   2 614.744 18.4389  16
  -2  -4   2 610.678 17.0596   5
   2  -4  -2 611.305 17.0422   6
  -2  -4   2 624.179 16.9300   2
  -2  -4   2 617.977 17.1695  12
  -2   4   2 599.759 16.7063   3
   2   4  -2 601.754 16.3194  13
   2   4  -2 610.752 16.6591   4
  -2   4   2 638.851 18.2055  13
   2   4  -2 620.856 17.2118  14
   2   4  -2 631.509 16.7115   9
  -2   4   2 601.444 16.8472   8
  -2   4   2 625.640 18.5980  10
   2   4  -2 596.400 17.0023  12
   2   4  -2 593.364 16.7857   3
  -2   4   2 615.224 17.0833  12
   0  -4  -2 5186.89 127.747   6
   0  -4   2 5339.86 141.306  10
   0  -4   2 5525.67 127.589   2
   0  -4   2 5184.07 129.454  16
   0  -4   2 5031.86 128.005   5
   0  -4  -2 5105.93 126.809   2
   0  -4   2 5088.82 129.675  12
   0  -4  -2 5170.74 134.676  11
   0   4   2 5347.19 131.765  12
   0   4   2 5339.85 131.239  14
   0   4   2 5457.09 128.391  13
   0   4  -2 5044.88 131.065  13
   0   4  -2 5558.68 131.642   7
   0   4  -2 5239.57 127.005   3
   0   4   2 5262.78 130.361   3
   0   4   2 5059.51 127.932  10
   2  -4   2 76.1634 6.22249  10
  -2  -4  -2 75.6666 5.62721  11
  -2  -4  -2 78.2368 3.49433  15
   2  -4   2 73.7502 4.28998   2
  -2  -4  -2 81.5490 4.77075   6
   2  -4   2 89.6207 4.34381  12
  -2  -4  -2 74.6735 4.59352   1
  -2   4  -2 80.0198 4.61702   7
   2   4   2 84.5368 4.07118  12
   2   4   2 75.9693 4.06725  14
   2   4   2 76.6793 3.28113   4
  -2   4  -2 97.7647 4.88820  13
  -2   4  -2 77.8269 4.58612   1
   2   4   2 94.6692 4.75836   3
  -2   4  -2 78.0301 4.20823   3
  -4  -4  -2 1932.07 53.2394  11
  -4  -4  -2 1900.64 49.3613   6
   4  -4   2 1870.98 48.8819  12
  -4  -4  -2 1949.52 50.4823   1
   4  -4   2 1845.06 55.1274  10
   4  -4   2 1806.40 48.6446   2
  -4   4  -2 1857.53 50.6168   1
   4   4   2 1940.84 49.4293  14
  -4   4  -2 1892.10 50.3959   7
  -4   4  -2 1851.01 47.3986   8
  -4   4  -2 1797.83 51.8225  11
   4   4   2 1818.59 47.8587   4
   4   4   2 1970.88 48.8716  12
  -6  -4  -2 51.0868 4.62785   6
  -6  -4  -2 55.2150 6.29046   1
   6  -4   2 53.1871 5.19926  12
   6  -4   2 72.4968 6.70523   4
  -6  -4  -2 57.6392 8.48509  11
   6   4   2 55.6263 5.73321  14
  -6   4  -2 67.9585 7.53495   1
   6   4   2 56.3664 5.09823   4
  -6   4  -2 58.6510 4.40195   8
   6   4   2 57.7278 5.13593  12
  -6   4  -2 70.6213 7.79646  11
  -8  -4  -2 724.087 31.3765  11
   8  -4   2 782.539 26.2182   4
   8  -4   2 740.436 25.3301  12
   8  -4   2 705.378 24.2171  14
  -8  -4  -2 745.655 26.9281   1
   8   4   2 740.022 24.3473   4
   8   4   2 719.569 25.4282  14
   8   4   2 755.359 25.3656  12
  -8   4  -2 776.462 28.0048   1
  -8   4  -2 770.191 31.2059  11
 -11  -5   2 41.5125 8.73362  11
  11  -5  -2 37.7201 6.10554   4
 -11  -5   2 39.5596 5.54412   5
 -11   5   2 43.0512 5.53267   8
  11   5  -2 40.5749 5.98675   4
 -11   5   2 45.3929 8.46634  11
 -11   5   2 41.1534 7.15863   1
  -9  -5   2 358.044 18.1243  16
  -9  -5   2 368.966 15.5621   5
   9  -5  -2 353.818 15.2363   4
  -9  -5   2 359.722 18.8401  11
   9   5  -2 390.215 15.7187   4
  -9   5   2 373.931 14.6580   8
   9   5  -2 358.271 15.4894  14
  -9   5   2 366.895 19.6862  11
  -9   5   2 369.399 16.9594   1
   7  -5  -2 288.802 17.0912  10
   7  -5  -2 311.467 12.2742   4
  -7  -5   2 313.808 15.5490  16
  -7  -5   2 289.056 14.4838  11
  -7  -5   2 313.421 13.1512   5
   7  -5  -2 322.583 12.2034   2
   7   5  -2 318.378 12.8794  14
  -7   5   2 312.145 13.6852  13
  -7   5   2 315.236 13.3352   1
  -7   5   2 313.974 12.0839   8
   7   5  -2 302.299 12.9469  12
   7   5  -2 313.489 12.0757   3
   7   5  -2 317.496 12.4246   4
  -5  -5   2 425.223 15.1214  11
  -5  -5   2 425.856 14.4624   5
  -5  -5   2 438.401 16.8034  16
   5  -5  -2 400.711 14.0948   2
   5  -5  -2 376.049 16.4143  12
   5  -5  -2 417.257 18.2408  10
   5  -5  -2 392.634 13.0163   4
  -5   5   2 401.030 13.2148   8
   5   5  -2 410.004 14.0636  12
   5   5  -2 393.099 13.2463   4
  -5   5   2 474.722 13.6754   5
  -5   5   2 390.838 13.1035  16
   5   5  -2 407.713 13.4037   3
   5   5  -2 400.767 13.9403  14
  -5   5   2 396.031 12.8402   3
  -5   5   2 407.468 15.0825  13
   3  -5  -2 1266.47 32.4620   6
  -3  -5   2 1243.61 32.3002   2
   3  -5  -2 1269.67 36.3348  10
   3  -5  -2 1246.89 33.6164   2
   3  -5  -2 1216.08 31.3730   4
  -3  -5   2 1279.78 33.3661   5
  -3  -5   2 1269.80 33.0818  12
  -3  -5   2 1218.38 32.9124  11
  -3  -5   2 1266.22 35.3188  16
  -3   5   2 1290.77 34.4306  13
   3   5  -2 1246.71 32.3232   4
   3   5  -2 1186.48 33.0706  12
  -3   5   2 1198.94 31.1382   7
   3   5  -2 1233.78 32.7025   3
  -3   5   2 1288.13 32.5665   3
   3   5  -2 1171.34 32.1119  13
  -3   5   2 1241.47 32.5402   8
  -3   5   2 1255.34 32.9781  12
   3   5  -2 1282.93 33.2160  14
  -1  -5   2 67.4540 3.84100  12
  -1  -5   2 68.6772 4.13120   2
   1  -5  -2 70.9420 4.14262   6
  -1  -5   2 72.9247 4.38890  16
   1  -5  -2 74.1216 4.11405   2
  -1  -5   2 76.3072 3.62340   5
   1  -5  -2 72.3826 3.89771  10
  -1  -5   2 70.0955 4.53901  10
  -1   5   2 67.9669 4.62850  13
   1   5  -2 73.2746 3.92499   3
  -1   5   2 65.4798 2.96383  14
   1   5  -2 70.3604 3.79451  14
  -1   5   2 65.5561 3.67000   3
   1   5  -2 65.0739 3.43970  13
  -1   5   2 67.4786 3.66280  10
   1   5  -2 70.6814 4.23871   7
  -1   5   2 69.7762 3.86037  12
  -1  -5  -2 797.595 24.8697  11
   1  -5   2 834.745 26.0287  10
  -1  -5  -2 778.774 21.5446  15
   1  -5   2 835.789 23.2258   2
  -1  -5  -2 805.104 23.3333   6
   1  -5   2 830.440 22.6008  12
  -1  -5  -2 811.689 21.7900   2
  -1  -5  -2 783.092 20.8183   9
  -1   5  -2 831.092 22.7997  13
   1   5   2 809.668 22.3860  12
   1   5   2 823.734 22.8885   3
   1   5   2 824.960 22.0362  14
  -1   5  -2 797.245 23.1511   7
  -1   5  -2 852.992 22.7180   3
   1   5   2 806.513 23.7997  13
  -3  -5  -2 123.151 8.04755  11
  -3  -5  -2 166.593 7.74051   6
   3  -5   2 130.822 6.40824  12
   3  -5   2 135.627 6.67183   2
   3  -5   2 129.707 9.35091  10
  -3  -5  -2 124.501 7.02666   1
  -3   5  -2 129.915 6.96396  13
   3   5   2 124.782 6.74741   3
   3   5   2 133.655 6.35332  12
  -3   5  -2 129.787 7.23929  11
   3   5   2 137.597 6.60814  14
   3   5   2 118.106 4.97728   4
  -3   5  -2 128.170 6.99641   7
  -3   5  -2 132.231 7.32053   1
   5  -5   2 48.5537 7.42115  10
  -5  -5  -2 52.4811 7.31544  11
   5  -5   2 49.1405 4.62385   2
   5  -5   2 47.5138 5.04023   4
   5  -5   2 59.8035 5.13701  12
  -5  -5  -2 52.7376 4.62483   6
  -5  -5  -2 56.9214 6.00560   1
  -5   5  -2 52.9688 5.59680   7
   5   5   2 48.4870 4.64372  12
  -5   5  -2 50.9598 5.90006   1
  -5   5  -2 54.6613 6.29498  11
   5   5   2 48.2897 5.28233   3
   5   5   2 46.7439 5.05954  14
   5   5   2 49.1460 4.01005   4
   7  -5   2 134.436 8.85008  12
  -7  -5  -2 133.161 10.0356   1
  -7  -5  -2 129.225 12.5647  11
   7  -5   2 143.958 8.92256   4
   7   5   2 138.681 7.98190   4
  -7   5  -2 144.021 11.8401  11
   7   5   2 137.319 9.25404   3
   7   5   2 132.428 8.99870  14
   7   5   2 133.454 8.62823  12
  -7   5  -2 143.686 10.8328   1
  -9  -5  -2 2.15461 4.26107   1
   9  -5   2 3.48082 2.41642  12
  -9  -5  -2 7.81377 6.58710  11
   9  -5   2 2.05965 2.77652   4
   9   5   2 -0.1058 3.44553   3
   9   5   2 2.61833 2.98088  12
  -9   5  -2 5.76997 5.11637   1
  -9   5  -2 0.39241 4.17006  11
 -10  -6   2 691.196 25.1922   5
 -10  -6   2 648.560 28.1113  11
  10  -6  -2 687.527 25.4510   9
  10  -6  -2 676.289 24.3059   4
 -10   6   2 741.586 31.7595  11
 -10   6   2 739.137 27.3695   1
  10   6  -2 746.376 24.8675   4
   8  -6  -2 11.3957 3.30978   2
  -8  -6   2 18.0836 5.23174  16
   8  -6  -2 13.8580 3.56085   4
  -8  -6   2 19.9559 4.13139   5
  -8  -6   2 13.2366 4.81466  11
   8   6  -2 19.5216 3.53449   4
  -8   6   2 18.3776 4.93348   1
  -8   6   2 23.3621 4.85171  13
   8   6  -2 18.2995 4.07514  14
  -8   6   2 20.3942 3.68351   8
   8   6  -2 21.2562 3.84595   3
   6  -6  -2 1535.75 49.8841  10
   6  -6  -2 1528.99 42.0657   4
  -6  -6   2 1612.99 43.8959   5
  -6  -6   2 1687.49 47.9179  16
  -6  -6   2 1599.91 45.0351  11
   6  -6  -2 1569.74 43.4992   2
   6   6  -2 1612.07 43.6610  14
   6   6  -2 1572.91 42.4323   4
  -6   6   2 1619.93 44.6187   1
  -6   6   2 1557.43 44.8731  13
   6   6  -2 1573.31 42.7547   3
   6   6  -2 1536.51 43.7201  12
  -6   6   2 1529.77 42.1475   8
  -4  -6   2 72.9733 6.11344  16
   4  -6  -2 71.4635 4.87728   2
  -4  -6   2 67.5120 4.74924   5
   4  -6  -2 74.5784 6.86521  10
  -4  -6   2 71.2544 4.04672   2
   4  -6  -2 67.5435 3.83766   6
   4  -6  -2 79.5472 3.85167   4
   4   6  -2 66.4360 3.95469   4
   4   6  -2 69.2538 4.96879  14
  -4   6   2 71.0996 4.42998   8
   4   6  -2 64.8400 4.54881   3
  -4   6   2 67.5857 4.33680   3
   4   6  -2 65.5746 4.67065  12
  -4   6   2 71.7478 4.50706  12
  -4   6   2 74.3479 5.91439  13
   4   6  -2 67.3137 4.19031  13
  -2  -6   2 3406.39 88.3590  16
  -2  -6   2 3452.19 86.4531   2
  -2  -6   2 3354.70 86.6161  12
  -2  -6   2 3400.02 86.2073   5
   2  -6  -2 3463.25 86.6806   6
   2  -6  -2 3519.10 88.5508  10
   2  -6  -2 3534.90 87.4056   2
   2   6  -2 3532.30 86.6126   3
  -2   6   2 3485.32 86.0551   8
   2   6  -2 3521.68 87.6329   7
   2   6  -2 3424.05 85.9180  13
  -2   6   2 3524.49 86.4075   3
   2   6  -2 3587.66 86.7419  14
  -2   6   2 3567.36 88.3012  13
  -2   6   2 3536.39 86.7690  12
   0  -6   2 466.344 15.0441   2
   0  -6  -2 500.705 15.4774   6
   0  -6   2 452.020 14.4766  12
   0  -6  -2 473.461 14.3836   2
   0  -6   2 469.732 16.9766  10
   0  -6   2 454.162 13.0503   5
   0   6  -2 467.951 14.5969   3
   0   6   2 462.012 14.6552   3
   0   6   2 484.213 15.9402  13
   0   6   2 452.376 13.4111  14
   0   6  -2 456.872 14.2842  13
   0   6  -2 442.919 14.8024   7
   0   6   2 440.923 12.9597   7
   0   6   2 471.151 14.6033  12
  -2  -6  -2 3870.88 101.457  11
  -2  -6  -2 3969.50 99.4157   6
   2  -6   2 3842.56 98.2719  12
   2  -6   2 3998.52 98.8830   2
   2  -6   2 3903.69 103.322  10
  -2  -6  -2 3809.79 96.2842   2
  -2   6  -2 4005.63 99.2893   1
   2   6   2 4018.72 98.2129  12
   2   6   2 3910.74 97.5181  14
   2   6   2 3968.87 98.6141   3
   2   6   2 3977.52 100.022  13
  -2   6  -2 4037.76 98.8685  13
  -2   6  -2 3926.81 98.0576   3
  -2   6  -2 4057.96 99.0813   7
  -4  -6  -2 345.227 16.3926  11
  -4  -6  -2 346.887 13.7247   6
   4  -6   2 346.001 17.6723  10
   4  -6   2 347.463 13.2011  12
   4  -6   2 361.037 13.3885   2
   4   6   2 329.856 12.9067  14
  -4   6  -2 347.510 14.8560  11
   4   6   2 336.896 13.2549   3
  -4   6  -2 363.775 14.0431  13
  -4   6  -2 352.900 14.2959   1
  -4   6  -2 349.545 13.6048   7
   4   6   2 340.928 12.9281  12
  -6  -6  -2 1792.12 49.7478   1
   6  -6   2 1604.41 46.7606   2
   6  -6   2 1711.05 48.1212   4
  -6  -6  -2 1839.76 54.7677  11
   6  -6   2 1655.04 47.9613  12
  -6   6  -2 1721.31 49.3979   7
  -6   6  -2 1680.76 50.2932   1
   6   6   2 1727.52 48.5262   3
   6   6   2 1789.30 48.3386  12
  -6   6  -2 1640.02 51.9958  11
   6   6   2 1758.40 48.3090  14
   8  -6   2 95.0788 7.74893   4
   8  -6   2 79.3985 7.58471  12
  -8  -6  -2 86.0160 11.7254  11
   8   6   2 79.5087 8.15481   3
  -8   6  -2 85.0720 10.1545  11
   8   6   2 82.2553 7.47915  12
  -8   6  -2 81.2442 9.77193   1
  -9  -7   2 38.8469 5.61666   5
  -9  -7   2 38.8176 5.35827   6
   9   7  -2 33.1903 4.99284   4
  -9   7   2 42.1400 7.81035  11
  -9   7   2 38.4543 6.14270   1
   7  -7  -2 12.1854 3.47324   2
  -7  -7   2 8.21872 2.66691   5
  -7  -7   2 13.3834 4.93803  16
  -7  -7   2 6.41546 4.17579  11
  -7   7   2 7.39363 2.23560   8
   7   7  -2 6.59700 2.83617   3
  -7   7   2 5.32118 3.22301  13
  -7   7   2 11.3759 4.39203   1
   7   7  -2 18.0610 3.51937  14
   5  -7  -2 10.8198 3.96407  10
  -5  -7   2 11.8650 4.12054  16
   5  -7  -2 13.6865 3.06221   2
  -5  -7   2 8.98834 2.79202   5
   5   7  -2 13.7635 3.14958  14
  -5   7   2 11.1116 2.49036   8
   5   7  -2 15.6581 2.69926   4
  -5   7   2 19.9763 4.12171  13
   5   7  -2 29.8911 3.93195   3
  -5   7   2 14.4489 2.83245   3
   5   7  -2 9.80775 2.18038  13
  -3  -7   2 174.955 7.82137   5
  -3  -7   2 195.216 7.73410   2
   3  -7  -2 169.319 7.39160   6
   3  -7  -2 174.084 9.67023  10
  -3  -7   2 168.123 7.83153  10
  -3  -7   2 166.534 9.42781  16
   3  -7  -2 177.270 8.40665   2
  -3   7   2 163.798 7.44372  12
  -3   7   2 169.354 7.42577   3
   3   7  -2 167.332 8.49272   7
   3   7  -2 168.085 7.86014  14
   3   7  -2 160.768 7.04472  13
   3   7  -2 171.367 7.88235   3
  -3   7   2 168.764 7.10637   8
  -3   7   2 173.431 9.06772  13
  -1  -7   2 4.81018 2.08397   2
  -1  -7   2 5.04238 1.44965   5
   1  -7  -2 4.62358 1.99221   2
  -1  -7   2 2.59232 1.46536  12
   1  -7  -2 5.15192 2.06326   6
  -1  -7   2 6.87163 2.09909  10
   1   7  -2 10.7831 2.09026  13
   1   7  -2 4.58968 1.94063   7
   1   7  -2 4.51129 1.85208  14
  -1   7   2 5.91495 2.24082   3
   1   7  -2 4.38522 1.98474   3
  -1   7   2 6.93855 2.11764  13
  -1   7   2 4.26212 1.74391  12
  -1   7   2 5.10133 1.29354  14
  -1  -7  -2 276.228 11.5056   6
  -1  -7  -2 286.814 10.3085   2
  -1  -7  -2 267.348 9.48371  15
   1  -7   2 315.023 11.9274   2
   1  -7   2 301.560 13.9475  10
  -1  -7  -2 300.634 13.2453  11
   1  -7   2 295.758 10.2700   6
   1  -7   2 295.964 11.2215  12
  -1   7  -2 305.999 11.1304   3
  -1   7  -2 283.768 11.2718   7
   1   7   2 306.245 12.4394  13
   1   7   2 281.582 10.1070  14
  -1   7  -2 310.151 11.2840  13
   1   7   2 298.015 11.2003  12
   1   7   2 294.156 11.2301   3
   3  -7   2 102.003 6.71356   2
  -3  -7  -2 99.3788 8.23901  11
   3  -7   2 96.2539 9.00652  10
   3  -7   2 102.645 6.43852  12
  -3  -7  -2 97.8066 6.97327   6
  -3   7  -2 100.063 6.29338   7
  -3   7  -2 110.616 7.37159   1
  -3   7  -2 99.3605 6.34948   3
   3   7   2 100.492 7.21003  13
   3   7   2 92.9158 6.60389   3
  -3   7  -2 93.7148 6.21915  13
   3   7   2 92.8971 6.03243  14
   3   7   2 99.5756 6.25674  12
   5  -7   2 122.527 7.35779   4
  -5  -7  -2 106.833 10.3000  11
  -5  -7  -2 122.529 8.54591   6
   5  -7   2 119.705 7.93956  12
   5  -7   2 125.080 7.68850   2
  -5   7  -2 129.093 9.74256  11
  -5   7  -2 129.379 8.98269   1
   5   7   2 121.951 7.76756  12
   5   7   2 120.045 7.77076   3
   5   7   2 115.942 7.87690  14
  -5   7  -2 117.344 7.95275   7
   7  -7   2 167.504 10.4728  12
  -7  -7  -2 201.851 15.2389  11
  -7  -7  -2 169.990 10.3690   6
   7  -7   2 161.072 10.3869   4
   7   7   2 182.724 10.8603  14
  -7   7  -2 171.140 12.4274   1
   7   7   2 177.687 10.3572  12
   7   7   2 164.176 10.7323   3
 -10  -8   2 392.421 19.7014   5
 -10   8   2 455.195 27.7860  11
  -8  -8   2 285.033 14.0723   6
  -8  -8   2 279.508 13.9775   5
   8  -8  -2 250.333 12.5043   2
  -8   8   2 253.705 14.3234  13
   8   8  -2 258.569 12.2049   3
   8   8  -2 256.985 13.1857  14
  -8   8   2 285.669 15.2314   1
  -6  -8   2 1220.96 36.3692   5
   6  -8  -2 1230.86 36.2440   2
  -6   8   2 1225.84 37.3907  13
  -6   8   2 1180.79 33.4169   8
  -6   8   2 1231.05 36.8792   1
   6   8  -2 1111.23 34.4307   3
  -6   8   2 1188.26 33.9476   3
   6   8  -2 1156.40 35.2295  14
  -4  -8   2 534.717 18.5651   5
   4  -8  -2 551.114 18.9410   2
   4  -8  -2 509.518 21.1971  10
  -4   8   2 547.269 17.6359   3
   4   8  -2 540.887 18.1248  14
  -4   8   2 545.132 16.9496   8
   4   8  -2 536.472 19.1631   7
  -4   8   2 561.202 20.0944  13
   4   8  -2 534.822 18.0939   3
   2  -8  -2 1612.91 43.7031   6
  -2  -8   2 1591.21 42.9304   5
   2  -8  -2 1659.17 44.5443   2
  -2  -8   2 1627.49 43.6115   2
  -2   8   2 1540.03 42.3227   8
  -2   8   2 1597.74 45.3401  13
   2   8  -2 1688.56 43.9248   3
  -2   8   2 1608.85 43.7393  12
   2   8  -2 1624.10 43.4894  14
   2   8  -2 1603.64 44.2418   7
  -2   8   2 1628.11 43.5707   3
   0  -8   2 529.445 17.9041   2
   0  -8  -2 527.405 17.9308   6
   0  -8   2 499.611 19.1984  10
   0  -8   2 488.035 16.9133  12
   0  -8   2 526.016 16.9003   6
   0  -8  -2 512.883 16.8760   2
   0   8   2 532.023 17.4578   3
   0   8  -2 531.479 17.0085  13
   0   8  -2 515.280 17.3365   7
   0   8   2 495.223 15.5780  14
   0   8  -2 527.219 17.0982   3
   0   8   2 511.778 17.2747  12
   0   8   2 507.833 18.5156  13
   2  -8   2 831.698 25.9823  12
   2  -8   2 896.978 27.2741   2
  -2  -8  -2 883.439 29.4660  11
   2  -8   2 866.796 30.8044  10
  -2  -8  -2 881.000 27.3629   6
   2   8   2 856.302 27.7617  13
   2   8   2 846.928 25.1018  14
   2   8   2 849.189 26.1695  12
  -2   8  -2 851.995 25.9179   3
   2   8   2 858.840 26.3792   3
  -2   8  -2 867.205 26.3961  13
  -2   8  -2 868.156 26.3601   7
   4  -8   2 251.497 11.9356  12
   4  -8   2 273.404 12.7026   2
  -4  -8  -2 269.366 13.1061   6
  -4  -8  -2 270.449 15.1761  11
   4   8   2 250.528 12.8351  13
  -4   8  -2 277.939 13.6501   1
   4   8   2 246.024 11.0040  14
   4   8   2 265.927 12.0167  12
   4   8   2 263.037 12.4992   3
  -4   8  -2 283.403 12.9095  13
  -4   8  -2 279.647 12.5430   7
   6  -8   2 333.356 14.7287   2
  -6  -8  -2 332.049 15.4959   6
   6  -8   2 303.162 14.4607  12
  -6  -8  -2 322.899 18.7557  11
   6  -8   2 317.219 14.1635   4
   6   8   2 321.301 15.0408   3
   6   8   2 326.132 14.5936  12
   6   8   2 328.674 15.9486  13
  -6   8  -2 324.374 16.6003   1
   6   8   2 318.289 14.4283  14
  -6   8  -2 345.052 15.5804   7
  -8  -8  -2 200.804 16.1954  11
   8  -8   2 173.321 11.0514   4
   8   8   2 194.128 12.0299   3
  -8   8  -2 184.814 14.0244   1
   8   8   2 194.390 11.4648  12
  -9  -9   2 1.38646 3.53001   5
  -9  -9   2 0.53621 3.16571   6
   9  -9  -2 -0.0309 3.14594   2
  -9   9   2 8.38117 5.30189  11
  -9   9   2 6.38514 4.92337   1
   7  -9  -2 1.03919 2.32792   2
  -7  -9   2 3.89341 2.86580   6
  -7  -9   2 1.24404 3.17150   5
   7   9  -2 -1.6390 2.89236  14
  -7   9   2 0.36175 4.17013   1
  -7   9   2 1.77471 3.23355  13
   7   9  -2 0.96987 2.88195   3
   5  -9  -2 6.08701 3.65383   2
  -5  -9   2 12.8880 3.76542   5
  -5  -9   2 7.68524 3.07412   6
  -5   9   2 9.11983 3.18043   3
  -5   9   2 6.81922 3.36925  13
   5   9  -2 10.4735 3.42443   3
   5   9  -2 8.26151 3.16673  14
   5   9  -2 9.41635 3.55363   7
   3  -9  -2 2.47791 1.53697   6
  -3  -9   2 0.01969 1.88833   5
   3  -9  -2 6.96929 2.58267   2
  -3  -9   2 15.5507 3.08438   2
  -3  -9   2 -0.1044 2.58670   6
  -3   9   2 0.93360 2.07573  13
  -3   9   2 3.24614 1.99212   3
   3   9  -2 0.74679 2.35675   3
   3   9  -2 1.10479 1.76439   7
  -3   9   2 2.03004 1.67437   8
   3   9  -2 2.85030 1.95425  14
   1  -9  -2 48.6428 5.40878   6
  -1  -9   2 48.6882 5.27483   6
   1  -9  -2 59.9825 5.44082   2
  -1  -9   2 68.3730 5.84041   2
   1   9  -2 49.0429 4.92904   7
  -1   9   2 44.6199 5.62249  13
   1   9  -2 60.4899 5.74372   3
  -1   9   2 48.7010 4.88825  12
   1   9  -2 46.1248 4.40886  13
  -1   9   2 43.5607 4.82831   3
  -1  -9  -2 7.46274 2.39283   2
  -1  -9  -2 4.62228 3.14990   6
   1  -9   2 7.16484 3.37897   2
   1  -9   2 1.38082 1.77107   6
   1  -9   2 2.11765 2.38242  10
  -1   9  -2 3.02240 2.01403  13
   1   9   2 -0.1143 2.76805   3
   1   9   2 3.08296 1.85439  14
   1   9   2 2.54773 2.09778  13
  -1   9  -2 2.22104 2.41247   3
   1   9   2 4.40283 2.31828  12
  -1   9  -2 6.87269 2.63114   7
   3  -9   2 41.2957 5.32975   2
  -3  -9  -2 43.0531 5.69122   6
   3  -9   2 39.7497 5.13783  12
  -3  -9  -2 39.9966 6.70106  11
   3   9   2 36.5170 4.87564  12
  -3   9  -2 29.9130 4.58397   7
  -3   9  -2 36.0459 5.60955   1
   3   9   2 37.0871 4.13235  14
  -3   9  -2 49.5289 5.64331  13
  -3   9  -2 38.3449 5.05830   3
   3   9   2 39.3449 5.57931   3
   3   9   2 29.6883 4.99762  13
  -5  -9  -2 34.9607 5.39375   6
   5  -9   2 33.8779 5.13710   2
   5  -9   2 26.3547 4.38996   4
  -5  -9  -2 34.7088 7.20298  11
  -5   9  -2 26.9146 5.15529   1
   5   9   2 23.6868 4.49135  12
   5   9   2 24.3242 4.51902  13
   5   9   2 28.9495 4.39061  14
   5   9   2 32.9856 5.16555   3
   7  -9   2 1.37643 3.27175   2
   7  -9   2 0.60278 3.29294   4
  -7  -9  -2 2.67039 5.35541  11
  -7  -9  -2 3.13454 2.55649   6
   7   9   2 4.18894 3.87581   3
  -7   9  -2 4.33474 3.64732   1
   7   9   2 3.42665 2.85226  12
   8 -10  -2 388.801 17.7662   2
  -8 -10   2 380.048 18.1395   6
  -8  10   2 430.036 19.5112   1
  -6 -10   2 121.918 9.83390   6
  -6 -10   2 98.4259 8.01623   5
   6 -10  -2 113.620 9.63678   2
   6  10  -2 111.123 8.02118  14
  -6  10   2 100.885 9.86037   1
   6  10  -2 110.206 8.40896   3
  -6  10   2 113.957 7.45602   3
  -6  10   2 117.644 9.60117  13
   6  10  -2 106.921 8.56072   7
   4 -10  -2 859.970 28.4248   2
  -4 -10   2 823.981 27.0670   5
  -4 -10   2 835.895 28.5100   6
  -4  10   2 854.699 28.9598  13
   4  10  -2 855.640 28.1131   7
   4  10  -2 810.972 26.9280   3
  -4  10   2 825.874 26.4910   3
   4  10  -2 863.145 27.0714  14
   2 -10  -2 176.388 9.62992   2
  -2 -10   2 171.628 8.86799   2
  -2 -10   2 163.430 9.89236   6
   2 -10  -2 172.465 9.48155   6
  -2  10   2 150.924 10.1004  13
  -2  10   2 163.660 9.36581   3
   2  10  -2 169.281 9.51119   7
   2  10  -2 159.312 8.51387  14
   2  10  -2 162.758 9.36524   3
   0 -10   2 1276.06 36.7495   6
   0 -10  -2 1289.36 37.1114   2
   0 -10   2 1269.20 37.7890   2
   0 -10  -2 1293.69 38.4040   6
   0  10   2 1246.43 37.5586  12
   0  10  -2 1286.51 37.3933   7
   0  10   2 1306.81 39.4511  13
   0  10   2 1314.47 37.8924   3
   0  10  -2 1280.27 37.4471   3
   2 -10   2 126.161 9.27328   2
  -2 -10  -2 142.428 9.86359   6
   2  10   2 131.488 8.42835   3
   2  10   2 112.448 8.89055  13
   2  10   2 130.715 8.21456  12
  -2  10  -2 121.716 8.38451   3
  -2  10  -2 127.394 8.29858  13
  -4 -10  -2 1050.65 37.7566  11
   4 -10   2 1118.88 35.0497   2
  -4 -10  -2 1092.17 35.7743   6
  -4  10  -2 1138.45 36.2966   1
  -4  10  -2 1068.36 34.4125  13
   4  10   2 1066.09 32.7039  14
   4  10   2 1052.08 34.1403   3
   4  10   2 1094.43 34.3783  12
   6 -10   2 51.6221 6.87707   2
  -6 -10  -2 59.2472 8.91266  11
  -6 -10  -2 41.0514 6.75414   6
  -6  10  -2 73.9789 8.78247   1
   6  10   2 53.7651 6.61954  12
   6  10   2 61.8437 7.53340   3
  -7 -11   2 92.9243 9.30026   6
   7 -11  -2 95.0647 8.56858   2
  -7  11   2 106.343 9.84907   1
   7  11  -2 90.8844 8.06113   3
   5 -11  -2 137.202 10.5690   2
  -5 -11   2 145.980 10.4406   6
   5  11  -2 151.384 9.84942   3
  -5  11   2 134.151 9.10239   3
   5  11  -2 121.916 9.08515  14
  -5  11   2 133.262 9.90208  13
   5  11  -2 132.833 9.80519   7
  -3 -11   2 131.465 9.31260   6
   3 -11  -2 132.461 9.18868   2
  -3  11   2 145.586 10.3419  13
   3  11  -2 126.110 8.41081  14
   3  11  -2 133.869 8.63276   3
  -3  11   2 135.422 8.49001   3
  -1 -11   2 187.454 10.2408   6
   1 -11  -2 201.229 10.9039   2
  -1 -11   2 192.878 10.3569   2
   1 -11  -2 206.305 10.9240   6
  -1  11   2 183.561 11.6414  13
   1  11  -2 197.027 10.9308   3
  -1  11   2 203.944 11.1991   3
   1 -11   2 116.513 9.26027   2
  -1 -11  -2 108.690 9.48098   6
  -1  11  -2 129.144 8.95627   3
   1  11   2 134.811 9.59686   3
   1  11   2 122.501 8.92703  13
   3 -11   2 148.453 10.8545   2
  -3 -11  -2 145.949 10.9705   6
   3  11   2 138.433 10.3643  13
   3  11   2 142.110 10.0873   3
  -3  11  -2 143.716 9.15848   3
  -3  11  -2 150.625 10.9503   1
  -5 -11  -2 75.6741 8.71213   6
   5 -11   2 61.4323 7.66092   2
   5  11   2 69.1768 8.07267   3
  -5  11  -2 64.9824 8.10667   1
  -6 -12   2 546.491 23.2985   6
   6 -12  -2 542.638 22.7337   2
  -6  12   2 573.309 24.2237   1
   4 -12  -2 100.740 9.15070   2
  -4 -12   2 90.0723 8.34133   6
  -4  12   2 102.507 8.53108   3
   4  12  -2 93.7818 7.74260   3
  -2 -12   2 711.272 25.4438   6
   2 -12  -2 691.457 25.1660   2
  -2 -12   2 711.316 24.2927   2
  -2  12   2 696.777 26.3797  13
   2  12  -2 705.845 24.7147   3
  -2  12   2 706.147 24.5525   3
   0 -12  -2 142.153 10.3782   6
   0 -12  -2 136.234 8.49036   2
   0 -12   2 143.973 9.56581   2
   0  12  -2 138.311 9.21530   3
   0  12   2 172.927 10.8088  13
   0  12   2 148.953 10.3950   3
   2 -12   2 514.105 20.9651   2
  -2 -12  -2 508.822 21.5033   6
  -2  12  -2 502.875 21.0750   1
   2  12   2 527.244 21.0060   3
  -2  12  -2 518.133 20.1619   3
  -4 -12  -2 130.016 10.3612   6
   4 -12   2 129.477 10.9703   2
  -4  12  -2 132.875 11.3358   1
   4  12   2 142.375 10.5323   3
  -5  13   2 39.1001 5.33741   3
   5  13  -2 42.8266 6.26875   3
  -3 -13   2 44.7620 7.66502   6
   3 -13  -2 35.2785 5.92656   2
  -3  13   2 36.5426 6.24132   3
   3  13  -2 38.1631 6.12972   3
   1 -13  -2 42.4586 5.91852   6
  -1 -13   2 45.1950 6.27417   2
  -1 -13   2 39.2981 6.00742   6
   1 -13  -2 32.4244 5.36440   2
   1  13  -2 27.0786 5.13407   3
   1 -13   2 38.4138 6.60720   2
  -1 -13  -2 35.8431 6.71295   6
  -1  13  -2 44.3997 6.19665   3
   1  13   2 30.5683 5.34033   3
  -3 -13  -2 29.6066 6.78495   6
   3 -13   2 25.4229 5.10333   2
   3  13   2 33.6298 6.29269   3
  -3  13  -2 22.6425 5.77176   1
  -3  13  -2 26.1494 5.81647   3
   0 -14   2 113.060 10.2901   2
   0 -14  -2 70.8420 9.05445   6
  12   0  -3 1.03940 3.69803   4
 -12   0   3 5.44571 6.55620  11
 -12   0   3 1.45486 3.56488   8
 -10   0   3 0.68472 4.77260  11
  10   0  -3 4.01239 1.91664  14
 -10   0   3 -1.2658 2.63782   8
  10   0  -3 0.58683 3.40400   4
  -8   0   3 3.50839 2.56550  16
   8   0  -3 4.43559 1.78752   9
  -8   0   3 -0.2511 1.65146   1
   8   0  -3 2.08473 1.77812   4
   8   0  -3 1.79643 2.13843  10
  -8   0   3 0.67008 1.53895   8
   8   0  -3 1.22016 1.60814  14
  -8   0   3 3.84279 3.52979  11
  -8   0   3 3.76399 1.92960   5
   6   0  -3 0.40241 1.26971  12
   6   0  -3 -0.9724 0.96354   4
   6   0  -3 0.78703 1.12034   9
  -6   0   3 -0.2221 1.15097   5
  -6   0   3 1.35966 1.07621   1
  -6   0   3 1.69364 1.25159   8
   6   0  -3 0.75097 2.10521  10
   6   0  -3 1.36407 1.14529  14
  -6   0   3 0.05506 1.14014  16
   4   0  -3 2.72959 1.13106   4
  -4   0   3 1.14303 0.52801   1
   4   0  -3 2.18194 0.78493  14
  -4   0   3 0.16379 0.73255  12
  -4   0   3 2.76719 1.39771  16
  -4   0   3 -0.3368 0.61980  13
   4   0  -3 8.92160 1.45561   9
  -4   0   3 0.88213 0.86465   5
  -4   0   3 2.60409 1.13033   8
   2   0  -3 5.57454 1.02723  15
  -2   0   3 8.50488 0.86026  12
   2   0  -3 6.03808 1.01447   7
   2   0  -3 10.3376 1.11563   4
   0   0  -3 1.88461 0.71357   6
   0   0  -3 7.26892 1.14021   7
   0   0  -3 1.51641 0.79111  15
   0   0  -3 2.54388 0.82375   1
   0   0  -3 2.81125 0.97899  11
   0   0  -3 0.46816 0.60341   9
  -2   0  -3 -0.0007 1.30580  11
  -2   0  -3 1.08628 0.64198   6
  -2   0  -3 -0.1159 0.55405  15
   2   0   3 1.95191 0.27547  12
  -2   0  -3 -0.5859 0.71817   7
   2   0   3 1.31200 1.46001  10
  -2   0  -3 0.37778 1.14006   1
   4   0   3 0.00018 1.72097   4
   4   0   3 4.12546 2.51160  10
  -4   0  -3 5.58324 2.37039   1
  -4   0  -3 -0.9430 2.18765  11
   4   0   3 2.69651 1.14003  12
   6   0   3 2.49705 2.28594  14
   6   0   3 -0.3910 2.59174  10
   6   0   3 0.97577 2.53953   4
   6   0   3 0.25913 1.60417  12
  -6   0  -3 11.6049 4.62453  11
  -6   0  -3 0.50121 3.12948   1
  -8   0  -3 -0.4679 2.70336   1
  -8   0  -3 1.83610 3.56398  11
   8   0   3 -0.0002 2.45563   4
   8   0   3 1.43573 2.54820  12
   8   0   3 -1.0354 2.63896  14
  11  -1  -3 307.921 14.6892   4
 -11  -1   3 313.716 14.9770   8
 -11  -1   3 323.619 19.2624  11
 -11   1   3 331.212 20.6174  11
  11   1  -3 309.835 14.8208   4
 -11   1   3 320.068 14.7487   8
   9  -1  -3 643.137 21.0459  14
   9  -1  -3 664.878 22.6662   4
   9  -1  -3 644.239 21.1880   9
  -9  -1   3 660.989 21.6105   5
  -9  -1   3 702.495 22.4613   8
  -9  -1   3 665.514 24.4330  16
  -9  -1   3 682.986 27.1112  11
  -9   1   3 699.206 27.3383  11
   9   1  -3 663.773 21.7295  14
   9   1  -3 680.572 22.6887   4
  -9   1   3 690.854 22.3028   8
  -9   1   3 672.751 22.3667   1
  -7  -1   3 1413.57 39.6006  16
  -7  -1   3 1347.76 36.1547   1
   7  -1  -3 1333.23 36.5893   9
  -7  -1   3 1374.84 36.7828   5
   7  -1  -3 1345.73 42.7903  10
   7  -1  -3 1412.19 37.3370   4
  -7  -1   3 1354.40 36.8138   8
   7  -1  -3 1315.62 35.7179  14
  -7  -1   3 1366.63 40.2514  11
   7  -1  -3 1258.43 36.9440  12
  -7   1   3 1370.01 36.2423   5
  -7   1   3 1349.75 36.8100   8
   7   1  -3 1261.53 37.0805  12
  -7   1   3 1350.80 38.4149  16
   7   1  -3 1423.32 37.4548   4
   7   1  -3 1352.53 35.7468   9
   7   1  -3 1332.63 36.3775  14
  -7   1   3 1372.48 36.7398   1
  -5  -1   3 1353.59 35.6563   5
  -5  -1   3 1360.76 34.5347   1
   5  -1  -3 1391.97 35.8721   9
   5  -1  -3 1357.87 35.8292  12
   5  -1  -3 1345.72 34.4415  14
  -5  -1   3 1360.30 37.5271  16
  -5  -1   3 1341.75 35.2844  12
   5  -1  -3 1411.70 40.1289  10
  -5  -1   3 1353.33 35.3934   8
  -5  -1   3 1343.13 37.2580  11
   5  -1  -3 1388.39 35.6017   4
   5   1  -3 1329.25 35.0964  14
  -5   1   3 1347.82 35.2974  12
  -5   1   3 1362.24 35.7430  13
  -5   1   3 1370.19 35.4784   8
  -5   1   3 1351.07 35.0100   1
   5   1  -3 1302.03 35.7043  12
   5   1  -3 1384.99 35.2486   9
  -5   1   3 1376.52 36.9829  16
  -5   1   3 1365.05 35.2627   5
   5   1  -3 1408.68 35.8652   4
   3  -1  -3 5185.80 127.115  14
   3  -1  -3 5035.65 128.383   9
  -3  -1   3 4976.56 127.758   5
  -3  -1   3 4999.55 127.789   8
   3  -1  -3 5246.43 129.713   6
  -3  -1   3 5115.08 134.421  16
   3  -1  -3 5331.57 130.888   4
  -3   1   3 5129.91 127.874  12
  -3   1   3 5122.52 129.252   5
   3   1  -3 5225.80 131.488   9
   3   1  -3 5252.32 129.839  15
   3   1  -3 5196.49 125.000   4
  -3   1   3 5422.58 129.725   8
  -3   1   3 5304.56 131.693  13
  -3   1   3 5173.79 132.293  10
   3   1  -3 5056.65 128.273  14
  -3   1   3 5229.59 133.448  16
  -1  -1   3 1336.46 31.7957   5
  -1  -1   3 1391.91 31.2996   8
   1  -1  -3 1224.11 32.2256   6
  -1  -1   3 1313.65 31.1374  12
   1  -1  -3 1214.18 31.4579   7
   1  -1  -3 1242.47 32.1087   9
   1  -1  -3 1220.42 32.2665  15
   1  -1  -3 1235.75 32.9750  11
   1  -1  -3 1217.81 31.7002   1
  -1  -1   3 1340.29 32.7197  16
   1   1  -3 1302.33 32.4457   7
   1   1  -3 1258.06 32.3252   9
   1   1  -3 1280.33 32.2228  15
  -1   1   3 1254.69 32.1732  13
   1  -1   3 4237.81 113.938  10
  -1  -1  -3 4384.25 105.405   7
  -1  -1  -3 4569.96 105.843   1
  -1  -1  -3 4351.63 108.418  15
  -1  -1  -3 4536.67 107.053  11
  -1  -1  -3 4421.45 107.549   9
  -1  -1  -3 4438.90 107.281   6
  -1   1  -3 4252.35 105.553   1
  -1   1  -3 4088.49 106.247   6
  -1   1  -3 4190.52 106.134  11
   1   1   3 4539.82 117.863  10
  -1   1  -3 4227.94 105.782   7
  -1   1  -3 4115.06 105.413  15
  -1   1  -3 4231.32 105.134   9
  -3  -1  -3 1230.63 37.2142  11
  -3  -1  -3 1231.10 33.1839   6
  -3  -1  -3 1303.67 35.6928   1
   3  -1   3 1340.96 38.3083  10
   3  -1   3 1308.71 33.1282   2
   3  -1   3 1347.81 32.7635  12
  -3  -1  -3 1305.92 34.3115  15
   3   1   3 1300.19 32.4940  12
  -3   1  -3 1275.84 35.5485   1
  -3   1  -3 1241.60 36.8820  11
   3   1   3 1311.17 34.1016   4
   3   1   3 1331.24 36.8056  10
   3   1   3 1294.01 34.3898  14
  -3   1  -3 1322.00 35.5870   7
  -5  -1  -3 891.851 28.0713   1
   5  -1   3 918.366 26.7818   4
   5  -1   3 913.935 25.3931  12
  -5  -1  -3 890.163 31.0349  11
   5  -1   3 867.379 30.7981  10
  -5   1  -3 935.257 28.5852   1
   5   1   3 921.496 26.8648  14
   5   1   3 914.655 26.2523   4
   5   1   3 850.997 29.1246  10
  -5   1  -3 900.472 30.7861  11
   5   1   3 907.405 25.3079  12
  -7  -1  -3 606.465 22.8072   1
  -7  -1  -3 613.861 26.7029  11
   7  -1   3 603.279 21.1592  14
   7  -1   3 607.536 21.5419   4
   7  -1   3 650.488 20.9601  12
   7   1   3 597.908 20.8535   4
   7   1   3 593.067 21.3067  14
  -7   1  -3 609.580 26.7859  11
  -7   1  -3 620.122 23.5757   1
   7   1   3 622.074 20.6955  12
   9  -1   3 223.152 12.3962  12
   9  -1   3 230.022 12.9473   4
  -9  -1  -3 220.174 14.2897   1
  -9  -1  -3 212.701 16.1233  11
   9   1   3 236.597 12.3958  12
   9   1   3 226.053 11.9911   4
  -9   1  -3 228.109 17.0169  11
  -9   1  -3 237.245 14.2415   1
  12  -2  -3 68.8542 7.80929   4
 -12  -2   3 75.4142 11.8406  11
 -12   2   3 71.0537 7.74811   8
 -12   2   3 86.0891 12.9644  11
  12   2  -3 68.4410 7.50071   4
 -10  -2   3 188.510 9.72917   5
  10  -2  -3 162.194 10.3301   4
 -10  -2   3 193.797 10.7765   8
 -10  -2   3 176.730 11.7665  16
 -10  -2   3 188.159 14.4624  11
 -10   2   3 186.130 10.3782   8
  10   2  -3 184.661 10.8603   4
 -10   2   3 191.786 14.0706  11
 -10   2   3 154.503 11.3373   1
  -8  -2   3 279.354 14.6353  11
   8  -2  -3 284.381 11.7896   4
   8  -2  -3 259.872 15.4837  10
  -8  -2   3 279.672 11.5527   8
  -8  -2   3 271.357 11.2660   5
   8  -2  -3 275.660 11.2831   9
  -8  -2   3 275.377 13.5347  16
   8  -2  -3 266.832 10.2125  14
  -8   2   3 262.841 10.2588   5
   8   2  -3 262.842 11.7679   4
  -8   2   3 271.410 14.3896  11
   8   2  -3 290.909 11.3679  14
  -8   2   3 291.582 11.8921   1
  -8   2   3 287.807 11.6763   8
  -8   2   3 272.371 11.9996  16
   6  -2  -3 244.400 8.31076  14
   6  -2  -3 249.544 13.1773  10
   6  -2  -3 249.844 9.46873   4
   6  -2  -3 249.777 9.71935   9
  -6  -2   3 259.150 9.81705   5
   6  -2  -3 246.257 8.87412   2
  -6  -2   3 251.885 9.33959   8
  -6  -2   3 240.074 11.0179  11
  -6  -2   3 237.977 8.47141   1
  -6  -2   3 246.121 11.3273  16
   6   2  -3 242.220 8.39188   9
   6   2  -3 236.563 9.54334  12
  -6   2   3 258.479 9.44289   8
   6   2  -3 263.007 9.86457   4
   6   2  -3 243.248 9.20052  14
  -6   2   3 250.684 8.87053   5
  -6   2   3 255.277 10.3292  16
  -6   2   3 248.473 9.84785  13
  -6   2   3 253.637 9.44747   1
   4  -2  -3 684.810 19.3664   9
   4  -2  -3 680.317 18.9372   2
   4  -2  -3 693.207 22.3259  10
   4  -2  -3 671.825 18.3816   4
  -4  -2   3 676.902 18.4182   8
  -4  -2   3 679.322 19.5560  11
  -4  -2   3 663.849 17.4268   1
   4  -2  -3 711.757 18.6722   6
  -4  -2   3 656.209 18.6428  12
   4  -2  -3 672.835 17.2194  14
  -4  -2   3 692.152 19.1314   5
  -4  -2   3 671.632 20.5889  16
  -4   2   3 704.370 20.1690  16
   4   2  -3 673.278 17.4814  15
  -4   2   3 676.777 18.7402  12
   4   2  -3 645.646 17.5795   3
   4   2  -3 641.990 18.7932  12
  -4   2   3 696.527 18.6965   5
   4   2  -3 664.686 18.4647   9
   4   2  -3 721.693 18.7818  14
   4   2  -3 678.469 18.9177   4
  -4   2   3 683.033 18.9073   8
  -4   2   3 709.759 19.4412  13
   2  -2  -3 372.670 11.3719   9
  -2  -2   3 411.774 11.2708   5
  -2  -2   3 389.782 10.8115  12
   2  -2  -3 370.037 10.1513   4
   2  -2  -3 380.099 11.3413   2
   2  -2  -3 374.547 11.3142   6
  -2  -2   3 406.476 12.3181  16
  -2  -2   3 407.477 10.3368   8
  -2   2   3 370.609 12.5355  10
  -2   2   3 373.011 10.3049   3
  -2   2   3 374.940 10.6699  12
  -2   2   3 382.727 11.1946   8
   2   2  -3 407.147 10.3504   3
   2   2  -3 381.592 11.3215   9
   2   2  -3 413.842 11.1092  14
   2   2  -3 409.083 11.1949   4
  -2   2   3 393.421 11.6458  13
   2   2  -3 395.260 10.8227  15
   2   2  -3 379.451 11.7620   7
   0  -2   3 649.519 16.5159   5
   0  -2   3 646.591 16.2993  12
   0  -2  -3 640.736 17.6401  15
   0  -2  -3 661.507 17.9343   1
   0  -2  -3 652.070 17.0245   7
   0  -2  -3 654.206 17.8520   6
   0  -2   3 644.524 17.1389  16
   0  -2  -3 638.416 19.0805  11
   0  -2  -3 640.407 17.0635   9
   0   2  -3 642.244 18.1945   7
   0   2  -3 635.373 17.7973   9
   0   2   3 654.420 16.8560  14
   0   2  -3 648.131 17.4225   1
   0   2  -3 659.339 17.8357  15
   2  -2   3 622.344 21.0790  10
   2  -2   3 592.583 16.0786  16
   2  -2   3 604.922 17.4513   2
  -2  -2  -3 639.517 17.8687   6
  -2  -2  -3 613.375 17.6101  15
  -2  -2  -3 607.436 16.3167   9
  -2  -2  -3 642.216 18.7781   1
   2  -2   3 639.952 16.5713  12
  -2  -2  -3 635.885 20.3260  11
  -2   2  -3 624.798 18.8926   7
  -2   2  -3 605.825 18.5847   1
   2   2   3 673.515 18.8399  10
   2   2   3 650.031 17.9109  14
   2   2   3 645.006 16.0392  12
  -2   2  -3 606.721 19.2122  11
   2   2   3 652.294 15.9298  12
   2   2   3 646.822 17.3038   4
  -4  -2  -3 217.308 12.0051  11
   4  -2   3 256.446 8.66265  12
  -4  -2  -3 237.706 10.3889   1
  -4  -2  -3 225.173 8.47441   6
   4  -2   3 236.201 12.6901  10
   4  -2   3 243.630 8.44902   2
  -4   2  -3 228.641 10.4661   1
  -4   2  -3 227.110 10.4088   7
   4   2   3 232.143 9.37955  14
   4   2   3 244.863 10.7478  10
   4   2   3 240.568 8.35438  12
   4   2   3 233.953 8.89030   4
  -4   2  -3 227.269 11.6096  11
   6  -2   3 305.725 13.2358   4
   6  -2   3 280.983 16.7572  10
  -6  -2  -3 297.092 16.2534  11
  -6  -2  -3 325.500 14.4400   1
   6  -2   3 316.890 12.2925  12
   6   2   3 303.598 12.7085  14
  -6   2  -3 316.063 16.5642  11
   6   2   3 328.228 12.5483   4
   6   2   3 307.290 11.9243  12
  -6   2  -3 317.587 14.7765   1
   8  -2   3 126.226 9.44555   4
  -8  -2  -3 117.193 12.4157  11
   8  -2   3 115.137 8.11277  12
  -8  -2  -3 121.957 9.60099   1
   8  -2   3 108.127 7.89241  14
  -8   2  -3 117.013 12.2910  11
   8   2   3 106.761 7.87899  12
   8   2   3 122.647 8.88123   4
   8   2   3 114.864 8.61214  14
  -8   2  -3 128.813 10.9882   1
 -11  -3   3 596.386 22.2082   5
  11  -3  -3 649.999 23.5954   4
 -11   3   3 668.589 30.3716  11
 -11   3   3 634.519 22.8583   8
  11   3  -3 620.742 23.4632   4
  -9  -3   3 55.1401 8.03468  11
   9  -3  -3 57.4793 5.99104   4
  -9  -3   3 55.2329 5.57444   8
   9  -3  -3 48.0651 5.60077   9
  -9  -3   3 55.7440 5.96687   5
  -9  -3   3 48.3550 6.74791  16
  -9   3   3 49.5299 5.69444   8
  -9   3   3 59.5848 9.04104  11
  -9   3   3 54.3195 5.90950   1
   9   3  -3 57.8682 5.81598  14
   9   3  -3 49.7463 5.96836   4
   7  -3  -3 2086.75 53.9917  14
   7  -3  -3 2191.58 55.0730   2
  -7  -3   3 2126.15 56.1508   5
   7  -3  -3 2129.29 62.9814  10
  -7  -3   3 2136.73 59.2345  16
  -7  -3   3 2109.64 58.8439  11
   7  -3  -3 2161.54 55.7437   4
  -7  -3   3 2156.19 55.5178   8
  -7   3   3 2101.33 56.2351  16
   7   3  -3 2042.71 54.2746   3
   7   3  -3 2011.25 56.4815  12
  -7   3   3 2174.56 57.1411  13
   7   3  -3 2134.00 55.8643  14
   7   3  -3 2154.49 56.0026   4
  -7   3   3 2166.59 56.1961   1
  -7   3   3 2216.25 55.8443   8
  -7   3   3 2095.78 54.2243   5
  -5  -3   3 249.357 11.0620  16
   5  -3  -3 243.532 8.53212   4
  -5  -3   3 247.706 9.91946  11
   5  -3  -3 243.699 8.85614   2
  -5  -3   3 230.955 7.70542   1
  -5  -3   3 247.818 9.19133   5
  -5  -3   3 238.830 8.66058  12
   5  -3  -3 248.678 8.20242   6
  -5  -3   3 235.386 8.41804   8
   5  -3  -3 243.016 12.3877  10
   5  -3  -3 228.188 7.27660  14
  -5   3   3 249.029 8.26717   5
   5   3  -3 228.478 7.86049   3
  -5   3   3 256.075 9.11273   8
   5   3  -3 228.586 8.96931  12
  -5   3   3 254.861 9.67346  16
   5   3  -3 232.502 7.87897   9
   5   3  -3 228.951 8.80797  14
  -5   3   3 255.530 9.83256  13
   5   3  -3 233.312 8.81546   4
  -5   3   3 243.384 8.92321   1
  -5   3   3 235.341 8.64303  12
  -3  -3   3 6675.67 180.119  16
   3  -3  -3 6617.46 164.904   2
   3  -3  -3 6579.29 180.189  10
  -3  -3   3 6923.79 164.495   5
   3  -3  -3 6765.53 168.428   6
   3  -3  -3 6451.08 163.655   4
  -3  -3   3 6983.99 167.481  11
  -3  -3   3 6098.45 164.946  12
  -3  -3   3 6612.57 163.757   8
   3   3  -3 6968.95 166.831   4
   3   3  -3 7068.69 164.595   3
  -3   3   3 6576.91 160.979   8
  -3   3   3 6445.94 164.488   3
   3   3  -3 7078.81 167.472  14
  -3   3   3 6572.50 166.089  13
  -3   3   3 6530.44 165.556  12
   3   3  -3 6357.62 164.165  15
   3   3  -3 6747.64 167.211   9
   1  -3  -3 947.755 25.5033  15
  -1  -3   3 976.372 25.7269  16
   1  -3  -3 952.815 25.7299   6
   1  -3  -3 959.151 27.1414  11
  -1  -3   3 947.234 24.7808  12
  -1  -3   3 987.666 24.7398   5
   1  -3  -3 934.375 25.0704   9
   1  -3  -3 950.307 25.2898   2
   1   3  -3 976.050 25.1572  15
   1   3  -3 964.547 25.6038   9
  -1   3   3 972.135 24.6042  12
   1   3  -3 974.906 26.1826   7
  -1   3   3 978.736 25.6991  10
   1   3  -3 986.098 24.8395   3
  -1   3   3 958.569 24.9079   3
   1   3  -3 970.821 23.9068  13
  -1   3   3 976.287 23.9132  14
  -1   3   3 997.650 26.3125  13
  -1  -3  -3 6021.94 147.342   9
  -1  -3  -3 5881.10 150.296   1
   1  -3   3 6135.81 148.418   2
   1  -3   3 5724.64 146.926  16
  -1  -3  -3 5907.12 145.289   6
  -1  -3  -3 6006.50 147.578  11
   1  -3   3 6025.44 156.903  10
  -1  -3  -3 6094.72 147.583  15
   1  -3   3 5958.54 148.380  12
   1   3   3 5903.28 151.003  10
   1   3   3 6119.09 149.616  14
   1   3   3 6059.33 148.528  12
  -1   3  -3 6230.29 145.987   7
  -1   3  -3 5994.45 149.060   1
   1   3   3 5902.50 147.581   4
   1   3   3 5898.88 146.397  12
  -1   3  -3 5784.97 147.373  11
  -3  -3  -3 501.246 14.9257  15
   3  -3   3 499.389 19.6294  10
  -3  -3  -3 521.474 16.8997   1
  -3  -3  -3 521.032 18.8590  11
   3  -3   3 489.204 15.2587   2
  -3  -3  -3 510.460 15.7072   6
   3  -3   3 510.024 14.8812  12
  -3   3  -3 505.193 16.9540   7
   3   3   3 501.755 14.3943  12
  -3   3  -3 488.532 17.4935  11
   3   3   3 531.125 15.8366  14
  -3   3  -3 491.781 16.7072   1
   3   3   3 492.079 15.6945  10
   3   3   3 522.489 14.9460   4
   5  -3   3 1875.56 50.8607   4
  -5  -3  -3 1856.99 52.3161   1
   5  -3   3 1926.11 49.8596  12
  -5  -3  -3 1864.90 55.9709  11
   5  -3   3 1869.91 57.3338  10
  -5   3  -3 1936.53 52.6806   7
   5   3   3 1902.48 49.4809  12
  -5   3  -3 1901.95 52.7697   1
   5   3   3 1883.88 49.7320   4
  -5   3  -3 1898.29 54.9770  11
   5   3   3 1897.68 50.8796  14
   7  -3   3 85.9246 7.02593  14
   7  -3   3 94.9636 7.02466  12
  -7  -3  -3 88.0597 10.4903  11
  -7  -3  -3 82.3944 8.44158   1
   7  -3   3 102.127 8.03544   4
   7   3   3 90.6676 6.76285  12
  -7   3  -3 103.752 9.48384   1
   7   3   3 89.3959 7.54058  14
  -7   3  -3 100.257 10.3290  11
   7   3   3 112.415 7.66775   4
  -9  -3  -3 434.230 23.9528  11
  -9  -3  -3 445.716 20.5026   1
   9  -3   3 437.708 18.2592  12
   9  -3   3 437.897 18.8085   4
   9   3   3 424.724 17.2238   4
  -9   3  -3 454.874 21.3864   1
   9   3   3 424.302 17.9623  12
  -9   3  -3 445.619 24.4913  11
 -10  -4   3 171.927 12.4692  16
 -10  -4   3 182.244 13.7405  11
  10  -4  -3 176.187 10.5152   4
  10  -4  -3 177.730 10.5304   9
 -10  -4   3 172.661 10.1857   5
  10   4  -3 167.864 10.8061   4
  10   4  -3 173.345 9.95683  14
 -10   4   3 177.243 14.7303  11
 -10   4   3 181.810 11.3280   1
 -10   4   3 201.740 10.7342   8
  -8  -4   3 322.159 15.6149  16
   8  -4  -3 324.794 12.3214   2
  -8  -4   3 319.526 13.2149   5
  -8  -4   3 322.046 12.5577   8
  -8  -4   3 325.195 15.8963  11
   8  -4  -3 318.109 12.9459   4
  -8   4   3 322.085 13.0549   8
  -8   4   3 325.534 14.1512  13
  -8   4   3 320.298 13.6113   1
   8   4  -3 312.486 13.0427  14
   8   4  -3 311.434 12.9083   4
   6  -4  -3 334.706 16.5600  10
   6  -4  -3 330.205 11.8172   2
  -6  -4   3 323.245 11.3420   8
  -6  -4   3 336.062 14.3626  16
   6  -4  -3 331.963 11.4574   4
  -6  -4   3 314.955 13.1774  11
  -6  -4   3 331.617 12.2774   5
   6   4  -3 328.392 11.8797   4
  -6   4   3 329.350 10.7067   5
   6   4  -3 312.118 12.6497  12
  -6   4   3 327.406 11.7219   8
  -6   4   3 330.217 12.1530  16
  -6   4   3 336.322 13.0476  13
   6   4  -3 321.106 11.8347  14
  -6   4   3 331.455 12.1891   1
   6   4  -3 303.982 10.7871   3
   4  -4  -3 1451.86 42.2945  10
  -4  -4   3 1538.68 40.9443  16
   4  -4  -3 1400.83 36.8744   4
  -4  -4   3 1509.75 37.2205   8
  -4  -4   3 1535.90 38.4236  11
  -4  -4   3 1541.26 38.7597   5
  -4  -4   3 1433.69 38.1429  12
   4  -4  -3 1446.99 38.6489   2
   4  -4  -3 1419.02 37.5702   6
  -4   4   3 1404.91 36.9562   3
   4   4  -3 1496.66 37.4341   3
   4   4  -3 1432.41 37.1429   9
  -4   4   3 1469.40 39.3739  16
   4   4  -3 1502.84 38.4430  14
  -4   4   3 1409.78 37.9916  12
  -4   4   3 1481.41 39.4597  13
   4   4  -3 1430.26 38.1892  12
  -4   4   3 1398.40 37.9156   8
   4   4  -3 1494.16 38.0890   4
   2  -4  -3 891.159 24.1287   2
  -2  -4   3 871.796 23.4863   5
  -2  -4   3 867.570 24.9133  16
   2  -4  -3 873.789 24.0381   6
  -2  -4   3 895.621 23.8074   2
  -2  -4   3 897.665 23.7014  12
  -2   4   3 886.501 23.5210  12
   2   4  -3 882.590 24.7755   7
  -2   4   3 886.964 24.8350  13
   2   4  -3 909.116 23.8360  14
  -2   4   3 878.709 25.0296  10
   2   4  -3 865.263 22.0298  13
   2   4  -3 877.843 23.2197   3
  -2   4   3 872.534 23.1665   3
   2   4  -3 870.256 23.6594   9
   0  -4   3 1333.70 33.3934   5
   0  -4  -3 1322.38 34.0072   9
   0  -4   3 1387.70 38.1558  10
   0  -4   3 1366.06 34.5724  12
   0  -4   3 1390.07 35.4278   2
   0  -4  -3 1321.45 34.7821  15
   0  -4  -3 1369.22 35.7283   6
   0  -4  -3 1323.79 34.4753   2
   0  -4   3 1321.62 34.2155  16
   0  -4  -3 1351.10 37.3744  11
   0   4  -3 1343.17 34.9249   1
   0   4  -3 1329.29 34.1810  13
   0   4   3 1357.54 34.1999  12
   0   4  -3 1368.82 35.9606   7
   0   4   3 1361.02 33.9163  14
   0   4  -3 1356.52 34.6785   3
   0   4   3 1362.05 36.2485  13
   0   4   3 1295.07 33.1480  10
   0   4   3 1355.85 34.9505   3
   2  -4   3 970.510 25.0806  12
  -2  -4  -3 906.897 24.7434  15
  -2  -4  -3 903.266 26.1074   6
   2  -4   3 950.569 25.9142   2
   2  -4   3 939.302 29.9005  10
  -2  -4  -3 917.561 28.7606  11
  -2  -4  -3 886.370 26.4124   1
   2   4   3 928.593 25.2898  14
  -2   4  -3 948.934 26.7394   7
  -2   4  -3 927.229 26.4265   1
   2   4   3 904.226 22.9403  10
   2   4   3 907.277 23.9017   4
  -2   4  -3 920.800 26.4849  11
   2   4   3 932.201 24.6048  12
  -4  -4  -3 268.401 10.6461   6
   4  -4   3 264.724 10.0938  12
  -4  -4  -3 281.351 14.1734  11
   4  -4   3 244.690 14.1570  10
   4  -4   3 251.593 9.96438   2
  -4  -4  -3 273.470 11.7647   1
   4   4   3 253.119 9.40981   4
  -4   4  -3 262.055 11.5836   1
   4   4   3 273.922 9.87947  12
  -4   4  -3 261.765 11.6203   7
  -4   4  -3 242.752 12.1996  11
   4   4   3 276.939 10.8004  14
  -6  -4  -3 290.644 16.9347  11
   6  -4   3 279.016 12.0103  12
   6  -4   3 294.927 13.1700   4
  -6  -4  -3 278.232 13.8607   1
   6   4   3 277.496 11.8324  12
  -6   4  -3 276.327 15.5882  11
  -6   4  -3 313.152 14.8648   1
   6   4   3 277.748 11.2795   4
   6   4   3 295.660 12.9443  14
   8  -4   3 63.7517 6.82168  12
  -8  -4  -3 74.8505 11.5446  11
  -8  -4  -3 77.8429 9.03660   1
   8  -4   3 69.4056 7.12186   4
   8   4   3 52.4840 6.05204  12
  -8   4  -3 75.6461 10.5275  11
   8   4   3 62.3886 6.62125   4
  -8   4  -3 70.3892 9.08712   1
  11  -5  -3 243.223 12.7442   4
  11  -5  -3 230.200 12.6304   9
 -11  -5   3 261.766 13.3180   5
 -11   5   3 230.651 12.0612   8
  11   5  -3 231.380 12.9707   4
 -11   5   3 252.327 18.1732  11
  -9  -5   3 836.260 30.6194  11
   9  -5  -3 849.022 26.7713   4
  -9  -5   3 813.022 27.4745   5
  -9  -5   3 815.505 30.9426  16
   9  -5  -3 881.088 28.5549   9
   9   5  -3 862.749 27.6805  14
  -9   5   3 876.223 27.0277   8
  -9   5   3 875.646 28.7348   1
   9   5  -3 838.131 27.3712   4
   7  -5  -3 733.456 22.5304   2
   7  -5  -3 704.733 21.6336   4
  -7  -5   3 671.452 23.9750  11
  -7  -5   3 733.358 23.1659   5
   7  -5  -3 712.071 28.9562  10
  -7  -5   3 735.062 26.2220  16
   7   5  -3 692.226 22.1157   4
   7   5  -3 705.186 22.4949  14
  -7   5   3 743.514 22.1332   8
   7   5  -3 675.049 21.2237   3
  -7   5   3 697.444 23.1044   1
  -7   5   3 740.770 24.1471  13
   5  -5  -3 1922.73 49.4229   6
   5  -5  -3 1853.86 49.2083   4
  -5  -5   3 2010.44 51.3628   5
  -5  -5   3 2053.13 54.4381  16
   5  -5  -3 1945.32 51.2109   2
  -5  -5   3 1959.59 49.0347   2
  -5  -5   3 2027.11 51.3697  11
   5  -5  -3 1957.40 56.4539  10
  -5   5   3 1892.72 50.3929  12
   5   5  -3 1980.21 50.4488   4
  -5   5   3 1876.22 50.8865  16
  -5   5   3 1887.57 50.2557   8
  -5   5   3 1884.26 49.2413   3
   5   5  -3 1962.83 49.9306   3
  -5   5   3 1941.70 52.1880  13
   5   5  -3 1982.66 51.0121  14
  -3  -5   3 958.292 27.8262  16
  -3  -5   3 931.992 25.3931   2
   3  -5  -3 930.530 25.6290   6
  -3  -5   3 936.534 25.7589   5
   3  -5  -3 935.186 28.2494  10
  -3  -5   3 938.333 25.7928  12
   3  -5  -3 940.087 26.2879   2
   3   5  -3 934.206 25.0819   9
   3   5  -3 916.956 25.1249   3
   3   5  -3 935.546 25.3315   4
  -3   5   3 965.807 27.2384  13
  -3   5   3 904.831 24.9338   3
  -3   5   3 928.782 25.5062   8
  -3   5   3 947.705 25.7648  12
   3   5  -3 903.832 24.0784  13
   3   5  -3 955.094 27.0281   7
   3   5  -3 926.731 25.7507  14
  -1  -5   3 1845.20 46.8654   5
  -1  -5   3 1873.97 48.3134  16
  -1  -5   3 1839.11 47.7579  12
   1  -5  -3 1842.68 47.4704   9
   1  -5  -3 1826.53 47.9314   2
   1  -5  -3 1863.75 48.6157   6
  -1  -5   3 1828.14 50.4786  10
  -1  -5   3 1972.53 48.4559   2
  -1   5   3 1938.35 49.4981  13
  -1   5   3 1882.70 47.7453   3
  -1   5   3 1856.01 46.1119  14
  -1   5   3 1842.84 47.0123  10
   1   5  -3 1855.18 47.5673   3
   1   5  -3 1921.29 49.0833   7
   1   5  -3 1898.97 46.7110  13
  -1   5   3 1918.31 47.7164  12
  -1  -5  -3 636.918 21.5726  11
   1  -5   3 634.832 18.4426  12
  -1  -5  -3 644.113 19.6442   6
   1  -5   3 681.888 22.9561  10
  -1  -5  -3 532.338 17.0834   9
  -1  -5  -3 607.436 17.9011  15
   1  -5   3 650.316 19.2431   2
  -1  -5  -3 647.614 17.7372   2
   1   5   3 658.934 19.1056   3
  -1   5  -3 639.442 19.7838   7
   1   5   3 662.910 20.4854  13
  -1   5  -3 641.542 18.5724  13
  -1   5  -3 641.504 18.5527   3
   1   5   3 649.851 18.0170  14
   1   5   3 651.016 18.2113  12
  -1   5  -3 632.822 19.1726   1
  -3  -5  -3 1195.06 37.1509  11
   3  -5   3 1180.29 38.4217  10
   3  -5   3 1171.79 32.9782   2
  -3  -5  -3 1170.75 34.1287   1
  -3  -5  -3 1162.44 33.3410   6
   3  -5   3 1189.27 32.3481  12
  -3   5  -3 1161.01 34.3024  11
   3   5   3 1179.46 32.5315  14
   3   5   3 1152.96 31.9298  12
  -3   5  -3 1221.86 34.2782   7
  -3   5  -3 1171.43 34.1222   1
   3   5   3 1218.35 33.5918   3
   5  -5   3 391.321 15.2672   4
  -5  -5  -3 444.771 20.4632  11
   5  -5   3 382.498 14.4915   2
  -5  -5  -3 426.659 17.0691   1
  -5  -5  -3 423.131 15.6177   6
   5  -5   3 403.943 15.0515  12
  -5   5  -3 412.478 18.1624  11
   5   5   3 405.725 15.4681  14
   5   5   3 421.214 14.9322  12
   5   5   3 425.128 15.7585   3
  -5   5  -3 396.546 16.6286   7
  -5   5  -3 423.747 17.4179   1
  -7  -5  -3 680.871 25.6398   1
   7  -5   3 682.341 24.3351   4
  -7  -5  -3 673.552 29.4737  11
   7  -5   3 693.832 23.9038  12
   7   5   3 689.153 24.3913   3
  -7   5  -3 657.141 28.1265  11
  -7   5  -3 695.742 26.0160   1
   7   5   3 686.645 23.5304  12
   7   5   3 675.290 23.8654  14
   9  -5   3 189.723 11.5499  12
   9  -5   3 200.341 13.9311   4
  -9  -5  -3 174.976 14.7894   1
   9   5   3 201.765 12.4053   3
   9   5   3 179.726 11.2587  12
  10  -6  -3 76.7457 7.05886   4
 -10  -6   3 70.6107 7.63265   5
  10  -6  -3 68.6651 7.57981   9
 -10   6   3 67.6134 9.68395  11
 -10   6   3 68.5819 7.73923   1
 -10   6   3 70.4995 6.21707   8
  10   6  -3 67.5336 6.88760   4
   8  -6  -3 138.526 8.50181   2
   8  -6  -3 137.394 7.80588   4
  -8  -6   3 147.725 9.16807   5
  -8  -6   3 140.765 10.6063  16
  -8   6   3 129.434 8.16337   8
   8   6  -3 132.511 8.81157  14
  -8   6   3 141.365 9.50619  13
  -8   6   3 153.457 9.93831   1
   8   6  -3 134.937 8.01960   4
   6  -6  -3 572.149 24.5910  10
  -6  -6   3 640.139 20.2434   5
  -6  -6   3 621.122 23.0168  16
   6  -6  -3 583.345 19.8669   2
  -6   6   3 588.953 18.6918   8
   6   6  -3 585.774 18.5581   3
  -6   6   3 573.388 20.7291  13
  -6   6   3 593.663 20.1428   1
   6   6  -3 575.537 18.8005   4
   6   6  -3 610.480 19.7858  14
  -4  -6   3 235.527 9.32887  12
  -4  -6   3 233.657 9.63217   5
   4  -6  -3 240.801 10.1052   2
   4  -6  -3 245.455 12.3215  10
  -4  -6   3 226.196 8.54508   2
   4  -6  -3 234.480 8.87836   6
  -4  -6   3 237.928 11.3054  16
  -4   6   3 226.851 8.57221   3
   4   6  -3 230.733 8.83789   4
  -4   6   3 239.559 9.16685   8
  -4   6   3 226.566 10.3725  13
   4   6  -3 227.534 8.93336   3
  -4   6   3 232.601 9.12430  12
   4   6  -3 226.785 9.55947  14
  -2  -6   3 1099.80 29.8438   2
  -2  -6   3 1046.52 30.7547  16
  -2  -6   3 1075.61 29.1319   5
  -2  -6   3 1049.82 29.6836  12
   2  -6  -3 1087.82 30.1749   6
   2  -6  -3 1109.46 30.5839  10
   2  -6  -3 1068.69 30.1497   2
   2   6  -3 1110.45 30.9379   7
  -2   6   3 1077.04 29.3287   3
   2   6  -3 1079.96 29.4505   3
   2   6  -3 1119.56 29.8639  14
  -2   6   3 1075.77 29.6520  12
  -2   6   3 1104.71 31.3938  13
   0  -6   3 540.448 16.6661  12
   0  -6   3 536.099 17.1997   2
   0  -6  -3 535.297 17.5196   6
   0  -6  -3 540.756 16.1033  15
   0  -6   3 538.433 19.5690  10
   0  -6  -3 506.566 15.2378   9
   0  -6   3 483.434 15.6113   5
   0  -6  -3 542.003 16.2303   2
   0  -6  -3 554.787 19.4184  11
   0   6   3 541.482 16.4883  12
   0   6   3 558.178 16.9083   3
   0   6   3 550.628 18.2792  13
   0   6  -3 549.507 16.6138   3
   0   6  -3 547.115 16.0254  13
   0   6  -3 542.939 17.5518   7
   0   6   3 525.032 15.1838  14
  -2  -6  -3 282.982 11.5165   6
   2  -6   3 274.583 10.4196  12
  -2  -6  -3 263.773 13.2053  11
   2  -6   3 268.931 14.0822  10
   2  -6   3 280.919 11.0157   2
  -2   6  -3 285.154 10.8848  13
   2   6   3 267.285 10.0304  14
   2   6   3 269.340 10.1900  12
   2   6   3 258.701 10.6227   3
  -2   6  -3 278.063 11.3990   1
  -2   6  -3 266.354 10.4862   3
  -2   6  -3 276.595 11.4934   7
   2   6   3 259.003 11.7181  13
   4  -6   3 458.900 15.9821  12
  -4  -6  -3 454.640 16.7525   6
   4  -6   3 426.024 20.8103  10
  -4  -6  -3 433.152 19.8447  11
   4  -6   3 455.596 16.2836   2
   4   6   3 447.444 15.6372  12
   4   6   3 429.510 15.7077  14
  -4   6  -3 452.550 17.6213   1
  -4   6  -3 435.226 16.7661   7
   4   6   3 437.240 16.2327   3
   6  -6   3 28.4463 5.06517   4
  -6  -6  -3 44.9090 6.60977   1
  -6  -6  -3 41.7665 8.61100  11
  -6  -6  -3 40.0944 5.31028   6
   6  -6   3 34.7525 4.88982  12
  -6   6  -3 33.0684 5.75052   1
  -6   6  -3 43.4416 6.34513   7
   6   6   3 29.7192 5.17699   3
   6   6   3 39.2342 5.37705  14
   6   6   3 41.7762 5.29830  12
  -8  -6  -3 83.9207 11.8525  11
   8  -6   3 96.3667 8.35015  12
   8  -6   3 103.539 9.02846   4
   8   6   3 103.736 8.42830  12
  -8   6  -3 90.0494 10.2888   1
   8   6   3 105.389 9.19485   3
  -9  -7   3 578.184 28.0414  16
   9  -7  -3 490.833 18.7038   2
  -9  -7   3 473.615 19.6475   5
   9   7  -3 494.658 18.5413   4
  -9   7   3 472.586 20.3125   1
   9   7  -3 430.419 20.8152  14
  -9   7   3 469.455 17.8960   8
  -7  -7   3 71.5126 8.51604  16
  -7  -7   3 71.2888 6.71413   5
   7  -7  -3 77.8751 6.33033   2
  -7   7   3 58.7246 6.75263  13
  -7   7   3 64.5886 7.14581   1
   7   7  -3 70.2233 5.34706   4
   7   7  -3 68.3614 6.59078  14
   7   7  -3 62.1767 5.54666   3
  -7   7   3 63.9453 5.64798   8
   5  -7  -3 1571.23 43.6433   2
  -5  -7   3 1556.46 43.2976   5
  -5  -7   3 1585.64 46.6990  16
  -5   7   3 1574.94 41.9510   8
   5   7  -3 1534.29 42.0836   3
  -5   7   3 1571.19 44.6556  13
  -5   7   3 1561.31 41.5247   3
   5   7  -3 1563.75 41.7475   4
   5   7  -3 1536.36 42.9498  14
  -3  -7   3 515.680 15.9539  12
  -3  -7   3 452.900 15.2336   2
   3  -7  -3 476.349 15.5993   6
   3  -7  -3 465.626 17.2830  10
  -3  -7   3 458.955 17.4338  16
   3  -7  -3 504.096 16.5538   2
  -3  -7   3 459.765 15.3736   5
   3   7  -3 460.758 15.7330  14
  -3   7   3 452.701 14.9464   8
  -3   7   3 472.623 15.1419   3
  -3   7   3 477.066 17.3350  13
  -3   7   3 453.176 15.5389  12
   3   7  -3 467.635 15.4124   3
   3   7  -3 481.675 16.8972   7
  -1  -7   3 3079.80 82.3121  10
   1  -7  -3 3190.43 80.1831   6
  -1  -7   3 3086.42 77.5456   5
   1  -7  -3 3047.02 79.1528   2
  -1  -7   3 3205.79 79.7285   2
  -1  -7   3 2998.09 79.1691  12
  -1   7   3 3238.90 79.3562  12
   1   7  -3 3196.97 80.3446   7
   1   7  -3 3114.80 78.9392   3
   1   7  -3 3058.87 77.9287  13
  -1   7   3 3280.94 81.4863  13
  -1   7   3 3170.64 79.0927   3
  -1   7   3 3048.13 76.7322  14
  -1  -7  -3 639.837 20.8967   6
  -1  -7  -3 575.070 18.0225  15
   1  -7   3 640.448 20.3332   2
   1  -7   3 624.058 19.6759  12
  -1  -7  -3 599.746 18.3899   2
   1  -7   3 618.035 23.5850  10
  -1  -7  -3 631.725 23.0124  11
  -1   7  -3 643.879 19.4796  13
   1   7   3 599.566 18.3257  14
  -1   7  -3 702.626 20.0129   3
   1   7   3 640.488 19.5798  12
  -1   7  -3 649.128 20.7761   7
   1   7   3 608.941 19.8187   3
   1   7   3 625.316 21.3816  13
   3  -7   3 1849.36 57.3993  10
   3  -7   3 1891.64 50.7667  12
   3  -7   3 1900.89 51.5779   2
  -3  -7  -3 1841.35 51.8966   6
  -3  -7  -3 1857.34 55.5195  11
   3   7   3 1853.34 50.0062  14
   3   7   3 1941.36 53.3952  13
   3   7   3 1861.85 51.3786   3
  -3   7  -3 1947.93 52.1701   7
  -3   7  -3 1899.97 52.4809   1
   3   7   3 1883.42 50.5375  12
   5  -7   3 147.054 9.02662  12
   5  -7   3 154.882 9.26004   4
   5  -7   3 156.383 9.40182   2
  -5  -7  -3 159.736 10.0153   6
  -5  -7  -3 167.592 13.2913  11
   5   7   3 143.745 8.90350  14
  -5   7  -3 155.044 10.7182   1
  -5   7  -3 175.147 10.7032   7
   5   7   3 156.563 8.94779  12
   5   7   3 148.572 9.66779   3
   7  -7   3 460.610 19.4488   4
  -7  -7  -3 548.068 25.6189  11
   7  -7   3 476.582 19.5681  12
   7   7   3 489.334 20.1590   3
  -7   7  -3 521.504 22.7976   1
   7   7   3 497.017 19.4379  12
 -10  -8   3 24.5106 4.80182   5
 -10  -8   3 26.5158 5.05520   6
  10  -8  -3 24.3812 5.81482   9
 -10   8   3 27.8129 5.67528   1
 -10   8   3 53.6466 9.69742  11
   8  -8  -3 71.4320 7.16813   2
  -8  -8   3 71.5500 6.84707   5
  -8   8   3 66.5531 7.93308   1
  -8   8   3 63.4163 7.40125  13
   8   8  -3 61.2152 6.44871  14
   8   8  -3 64.8726 5.57433   4
  -8   8   3 79.2379 6.45516   8
   6  -8  -3 258.393 12.3634   2
  -6  -8   3 251.831 11.7772   5
  -6  -8   3 239.913 14.2762  16
  -6   8   3 241.649 12.8166  13
   6   8  -3 234.450 10.2616   4
   6   8  -3 228.879 10.6577   3
  -6   8   3 241.690 10.3451   3
   6   8  -3 230.552 11.5013  14
  -6   8   3 239.610 10.2249   8
  -4  -8   3 26.4491 3.45421   2
   4  -8  -3 16.3562 3.71287   2
  -4  -8   3 14.4036 3.60716  16
   4  -8  -3 16.3316 2.83305   6
  -4  -8   3 25.3230 3.58489   5
   4   8  -3 21.1361 4.11228   7
  -4   8   3 24.9277 4.52417  13
  -4   8   3 23.4218 3.40692   8
   4   8  -3 21.3921 3.41375   3
  -4   8   3 15.4815 3.02637   3
   4   8  -3 14.4740 2.83549  14
  -2  -8   3 299.696 13.3443  10
   2  -8  -3 321.533 12.5847   6
  -2  -8   3 306.359 12.2010   2
  -2  -8   3 302.289 11.2511   5
  -2  -8   3 296.930 12.0010  12
   2  -8  -3 335.829 12.8842   2
  -2   8   3 307.694 11.5601   8
   2   8  -3 319.281 12.1863   3
   2   8  -3 292.488 11.8173  14
  -2   8   3 321.986 12.0694   3
   2   8  -3 319.014 13.1623   7
  -2   8   3 305.035 12.0705  12
  -2   8   3 320.462 13.7971  13
   0  -8  -3 121.314 7.51152   6
   0  -8   3 123.802 8.59198  10
   0  -8   3 134.975 7.61052   2
   0  -8  -3 116.084 6.04481  15
   0  -8  -3 120.056 6.48274   2
   0  -8   3 111.874 6.53536  12
   0   8  -3 129.261 6.56182  13
   0   8   3 127.397 8.28067  13
   0   8  -3 132.358 7.32927   3
   0   8  -3 131.679 7.50324   7
   0   8   3 125.292 7.14287   3
   0   8   3 114.332 6.64850  12
   0   8   3 109.218 5.48211  14
   2  -8   3 76.0518 6.03305  12
  -2  -8  -3 73.5493 8.04523  11
   2  -8   3 83.7498 8.48702  10
  -2  -8  -3 82.6584 6.98206   6
   2  -8   3 83.2604 6.54918   2
   2   8   3 64.8879 6.43597   3
  -2   8  -3 86.5503 6.39711   7
   2   8   3 74.3712 5.95758  12
   2   8   3 85.0557 5.56789  14
   2   8   3 73.2587 6.47386  13
  -2   8  -3 86.9458 6.39395   3
  -2   8  -3 81.4949 5.93792  13
  -2   8  -3 90.4890 7.03013   1
  -4  -8  -3 262.017 16.1882  11
  -4  -8  -3 259.274 13.0167   6
   4  -8   3 280.717 12.6877  12
   4  -8   3 273.072 13.0004   2
  -4   8  -3 276.721 13.3143   7
   4   8   3 250.225 13.2676  13
  -4   8  -3 295.290 14.5270   1
   4   8   3 265.677 12.6265   3
   4   8   3 280.605 12.2360  12
   4   8   3 263.251 11.8361  14
   6  -8   3 34.0468 4.88660   4
  -6  -8  -3 34.4556 5.64607   6
   6  -8   3 41.0746 5.75389  12
  -6  -8  -3 37.5029 8.50489  11
   6  -8   3 23.4499 4.66480   2
  -6   8  -3 29.5870 6.41057   1
   6   8   3 35.2775 6.27689  13
   6   8   3 34.8543 5.12105  12
  -6   8  -3 33.0532 5.85888   7
   6   8   3 26.7151 4.86408   3
   9  -9  -3 217.063 12.2549   2
  -9  -9   3 247.466 13.5094   5
  -9  -9   3 255.745 13.9426   6
  -9   9   3 249.452 14.2534   1
  -7  -9   3 978.616 32.5153   6
  -7  -9   3 972.979 31.7867   5
   7  -9  -3 985.174 31.7670   2
  -7   9   3 1016.49 33.1347   1
   7   9  -3 948.571 31.0431  14
  -7   9   3 959.488 33.0567  13
   7   9  -3 944.466 29.9051   3
   5  -9  -3 307.290 14.0423   2
  -5  -9   3 298.232 13.3465   5
  -5   9   3 286.132 12.0432   3
  -5   9   3 303.035 14.6121  13
  -5   9   3 289.411 11.7679   8
   5   9  -3 287.520 12.3124   3
   5   9  -3 302.663 14.4442   7
   5   9  -3 285.518 12.9417  14
  -3  -9   3 940.476 28.3651   2
   3  -9  -3 972.002 28.7856   6
   3  -9  -3 966.092 29.7213   2
  -3  -9   3 937.629 28.0310   5
   3   9  -3 958.958 30.0590   7
  -3   9   3 954.511 30.7932  13
  -3   9   3 924.396 28.8785  12
   3   9  -3 969.397 28.6207   3
  -3   9   3 942.099 27.5930   8
   3   9  -3 914.799 28.3978  14
  -3   9   3 941.196 28.2454   3
   1  -9  -3 134.651 7.86380   2
   1  -9  -3 140.800 8.63227   6
  -1  -9   3 123.800 8.16997   2
  -1   9   3 140.237 8.01529  12
  -1   9   3 132.923 8.14938   3
   1   9  -3 138.127 7.94013   3
   1   9  -3 131.950 8.23806   7
  -1   9   3 131.094 8.65351  13
  -1  -9  -3 663.003 23.2724   6
   1  -9   3 687.711 22.9879   2
   1  -9   3 654.255 21.9367  12
   1  -9   3 611.493 25.3926  10
  -1   9  -3 653.542 21.7145   3
   1   9   3 681.380 22.3588   3
  -1   9  -3 642.894 22.0060   7
   1   9   3 657.456 21.9848  12
   1   9   3 644.425 23.3920  13
  -3  -9  -3 92.8994 8.29071   6
   3  -9   3 100.546 7.58773  12
   3  -9   3 94.4957 8.23073   2
  -3  -9  -3 94.5885 10.1525  11
  -3   9  -3 96.4313 7.47533   3
   3   9   3 98.6479 8.14996   3
   3   9   3 105.609 8.69112  13
  -3   9  -3 104.663 7.64302   7
  -3   9  -3 94.5088 8.53984   1
  -3   9  -3 94.1224 7.21312  13
   3   9   3 100.679 7.40619  12
   3   9   3 93.5764 6.69487  14
   5  -9   3 600.442 22.3407  12
  -5  -9  -3 602.792 27.2908  11
   5  -9   3 636.694 22.4867   2
  -5  -9  -3 592.339 23.4496   6
   5   9   3 593.401 23.8299  13
   5   9   3 572.955 20.9665  14
   5   9   3 615.457 22.9426   3
   5   9   3 609.007 22.3449  12
  -5   9  -3 609.407 23.1234   7
  -5   9  -3 607.779 24.2496   1
   7  -9   3 138.649 9.03908   4
  -7  -9  -3 127.204 13.7372  11
   7   9   3 122.727 9.31034  12
   7   9   3 130.823 10.2296   3
  -7   9  -3 146.167 12.1574   1
   8 -10  -3 0.01110 2.63813   2
  -8 -10   3 2.08705 2.83028   5
  -8 -10   3 0.37471 3.83060   6
   8  10  -3 3.39128 4.13775   7
  -8  10   3 -2.0342 4.17610   1
  -6 -10   3 64.8766 8.14955   6
   6 -10  -3 73.0620 7.70437   2
  -6 -10   3 60.4232 6.65796   5
   6  10  -3 75.4136 6.66399  14
   6  10  -3 69.9640 7.17510   7
   6  10  -3 51.3937 6.05168   3
  -6  10   3 66.2294 6.46336   3
  -6  10   3 64.6436 7.81298  13
  -4 -10   3 11.9952 4.34861   6
   4 -10  -3 12.8186 4.02879   2
  -4 -10   3 17.0497 3.75257   5
   4  10  -3 15.0507 3.20407   3
  -4  10   3 10.7587 4.14291  13
   4  10  -3 9.83347 2.81585  14
  -4  10   3 25.8124 3.94036   3
   4  10  -3 10.7382 3.71318   7
  -2 -10   3 93.9263 6.81967   2
   2 -10  -3 88.8690 7.35254   6
   2 -10  -3 94.2126 7.42282   2
  -2 -10   3 80.2876 7.29956   6
  -2  10   3 92.4493 7.27649   3
  -2  10   3 93.0126 6.34189   8
  -2  10   3 100.660 8.58201  13
   2  10  -3 86.3979 7.46966   7
   2  10  -3 90.2017 6.61886   3
   0 -10   3 5.88510 3.70246   2
   0 -10  -3 1.07027 3.10497   6
   0 -10  -3 5.86553 2.60258   2
   0 -10   3 2.79067 2.43381   6
   0  10  -3 2.56001 2.80558   7
   0  10  -3 6.48743 3.21399   3
   0  10   3 2.38013 3.13740  13
   0  10   3 6.99997 2.48243  12
   0  10   3 3.41600 3.37961   3
   2 -10   3 2.70214 3.69132   2
  -2 -10  -3 1.00913 2.60119   6
   2  10   3 1.07464 2.37335  12
   2  10   3 2.50786 3.53618   3
   2  10   3 -1.6848 2.62118  13
  -2  10  -3 0.94028 3.28848   1
  -2  10  -3 1.38550 2.79173   7
  -2  10  -3 2.00543 2.99980   3
  -4 -10  -3 49.6204 8.83898  11
  -4 -10  -3 64.1261 8.01067   6
   4 -10   3 46.5799 6.69728   2
   4  10   3 49.6410 6.71306  13
   4  10   3 49.7190 6.91286   3
   4  10   3 58.4728 6.70149  12
  -4  10  -3 51.2216 6.95190   1
   6 -10   3 15.1546 4.02388   2
  -6 -10  -3 31.1668 6.05147   6
  -6 -10  -3 13.2776 6.61995  11
   6  10   3 16.7130 5.24564   3
   6  10   3 18.2629 4.24443  12
  -6  10  -3 10.4905 5.07880   1
  -7 -11   3 58.0169 8.09489   6
   7 -11  -3 61.0322 7.49265   2
   7  11  -3 66.8730 8.31928   7
   5 -11  -3 531.119 21.1139   2
  -5 -11   3 479.269 20.3545   6
   5  11  -3 503.735 22.4348  14
   5  11  -3 493.213 18.7744   3
   3 -11  -3 269.382 13.1019   2
   3 -11  -3 242.096 12.2939   6
  -3 -11   3 248.212 12.8742   6
  -3 -11   3 259.183 12.1539   2
  -3  11   3 262.949 12.6229   3
  -3  11   3 271.723 14.6018  13
   3  11  -3 252.579 13.2292   7
   3  11  -3 269.798 12.7815   3
  -1 -11   3 1028.63 32.9906   2
  -1 -11   3 1052.85 32.5358   6
   1 -11  -3 1045.55 33.3433   6
   1 -11  -3 1029.42 32.3648   2
  -1  11   3 1062.49 32.7416   3
   1  11  -3 1040.08 33.1945   7
   1  11  -3 1048.42 32.5448   3
  -1  11   3 1071.05 35.1365  13
   1 -11   3 409.703 17.6914   2
  -1 -11  -3 402.828 18.0862   6
  -1  11  -3 384.208 17.1566   1
   1  11   3 363.176 16.2014  12
  -1  11  -3 401.403 16.4855   3
   1  11   3 393.655 16.8305   3
   1  11   3 382.992 17.8833  13
  -3 -11  -3 696.815 26.4748   6
   3 -11   3 701.952 25.5358   2
   3  11   3 680.352 25.0413  12
   3  11   3 692.415 25.5243   3
  -3  11  -3 721.581 26.8695   1
  -5 -11  -3 143.963 13.5635  11
   5 -11   3 169.600 10.9256   2
  -5 -11  -3 160.696 11.7950   6
   5  11   3 155.214 11.2496   3
  -5  11  -3 152.252 11.5182   1
   5  11   3 161.743 10.6612  12
   6 -12  -3 4.26801 4.30032   2
  -6 -12   3 5.40012 4.70041   6
  -6  12   3 1.57528 3.51737   3
   6  12  -3 3.09502 3.14151   3
  -6  12   3 12.6406 5.73678   1
  -4 -12   3 135.805 10.9271   6
   4 -12  -3 130.976 9.72118   2
   4  12  -3 166.059 10.2917   3
  -4  12   3 134.231 8.89934   3
   2 -12  -3 10.3004 3.95327   2
  -2 -12   3 9.39043 4.04213   6
  -2 -12   3 13.9359 3.93668   2
   2 -12  -3 10.5354 4.14878   6
  -2  12   3 9.59297 4.16096  13
   2  12  -3 10.5546 4.00120   3
  -2  12   3 8.75330 3.97591   3
   0 -12  -3 48.9416 6.95551   6
   0 -12   3 55.7872 6.50338   2
   0  12   3 60.4361 7.12223   3
   0  12   3 47.2267 7.60851  13
   0  12  -3 56.7898 6.77849   3
  -2 -12  -3 56.6862 8.03037   6
   2 -12   3 59.7448 7.57977   2
  -2  12  -3 64.5235 6.76189   3
   2  12   3 71.6192 8.22329   3
  -2  12  -3 62.0316 8.19362   1
  -4 -12  -3 4.90653 4.49152   6
   4 -12   3 6.94888 4.59125   2
   4  12   3 -0.1619 2.68212   3
  -4  12  -3 1.40217 3.84969   1
   5 -13  -3 725.048 27.3278   9
   5  13  -3 720.857 31.5278   3
  -5  13   3 855.861 30.2240   3
  -3 -13   3 5.40357 3.50070   6
   3 -13  -3 5.59728 3.72041   2
  -3  13   3 12.4706 3.66054   3
   3  13  -3 3.55581 3.45136   3
  -1 -13   3 603.471 23.2474   2
   1 -13  -3 643.984 24.4897   6
  -1  13   3 621.740 23.3611   3
   1  13  -3 596.040 22.8952   3
  -1 -13  -3 3.05467 4.44056   6
   1 -13   3 3.97919 3.09293   2
  -1  13  -3 8.26046 3.94887   3
  -1  13  -3 6.19213 3.94624   1
   1  13   3 8.02548 4.57188   3
  12   0  -4 1331.80 41.4859   4
 -12   0   4 1368.40 41.1551   8
  10   0  -4 69.5329 6.42243   4
 -10   0   4 64.3200 7.09307  16
 -10   0   4 83.9898 10.7479  11
 -10   0   4 80.6084 7.25680   8
 -10   0   4 71.9469 5.52739   5
  -8   0   4 2924.70 74.1474   5
  -8   0   4 2877.27 74.2386   8
   8   0  -4 2934.80 74.9009   4
  -8   0   4 2942.97 78.8789  11
   8   0  -4 2732.98 72.9400  14
  -8   0   4 2919.67 77.2819  16
   8   0  -4 2901.76 73.7989   9
   6   0  -4 88.2789 4.31408  14
  -6   0   4 80.0749 3.92845   1
   6   0  -4 93.9213 4.95899   9
   6   0  -4 91.2425 5.23996   4
  -6   0   4 80.8606 4.54151  12
  -6   0   4 87.8379 5.02280   8
  -6   0   4 89.1343 6.00040  16
  -6   0   4 97.1689 5.20766   5
   4   0  -4 3371.87 79.7655  14
  -4   0   4 3311.26 82.8943  16
  -4   0   4 3312.06 80.7769   8
   4   0  -4 3244.42 80.7625   4
   4   0  -4 3288.81 80.8439  15
  -4   0   4 3261.34 80.5718  12
  -4   0   4 3246.84 81.0970   5
  -4   0   4 3275.76 80.1529  13
   4   0  -4 3308.50 81.3875   9
   2   0  -4 54.3940 2.92716   7
   2   0  -4 64.2749 3.25151  15
  -2   0   4 63.4756 2.94332   8
  -2   0   4 52.4246 3.71192  16
   2   0  -4 58.2424 3.20546   9
  -2   0   4 61.1622 2.28298  12
   2   0  -4 59.1944 3.19987   6
   0   0  -4 3506.24 84.9253  11
   0   0  -4 3421.80 83.6143   6
   0   0  -4 3412.86 84.1096   7
   0   0  -4 3318.06 84.1741  15
   0   0  -4 3388.20 83.7653   9
   0   0  -4 3455.50 83.8485   1
  -2   0  -4 517.318 18.0376  11
  -2   0  -4 526.614 16.9324   1
  -2   0  -4 531.735 15.0806   6
  -2   0  -4 539.426 16.8719   7
  -2   0  -4 531.776 16.4187  15
   2   0   4 574.973 18.9249  10
   4   0   4 2479.78 62.8955   4
  -4   0  -4 2351.86 67.0701  11
   4   0   4 2418.78 60.6453  12
  -4   0  -4 2516.79 65.0796   1
   4   0   4 2410.04 66.9894  10
   6   0   4 358.582 14.2086   4
  -6   0  -4 367.729 16.4205   1
   6   0   4 356.269 14.4759  14
  -6   0  -4 361.147 18.4602  11
   6   0   4 349.191 13.2020  12
   8   0   4 983.017 30.6636  12
  -8   0  -4 978.882 34.3177   1
  -8   0  -4 928.664 37.4004  11
   8   0   4 954.046 31.1571   4
  11  -1  -4 108.317 8.25466   4
 -11  -1   4 96.5464 11.6537  11
 -11  -1   4 106.348 7.93954   8
 -11   1   4 96.1372 12.2739  11
 -11   1   4 105.083 7.94648   8
  11   1  -4 106.798 8.22450   4
  -9  -1   4 6.66975 2.46077   8
  -9  -1   4 6.14380 4.32099  11
   9  -1  -4 12.0406 3.10119   4
  -9  -1   4 13.3526 3.54864  16
   9  -1  -4 8.32017 2.69277   9
  -9  -1   4 8.10916 2.82244   5
  -9   1   4 9.94972 5.11782  11
  -9   1   4 16.1918 2.98289   5
   9   1  -4 8.74051 2.60501  14
  -9   1   4 11.6828 3.10734  16
   9   1  -4 8.65329 3.30854   4
  -9   1   4 9.85669 3.37010   8
  -7  -1   4 501.056 16.4677   5
  -7  -1   4 505.804 18.9504  11
   7  -1  -4 497.237 16.5507   9
   7  -1  -4 528.483 16.7326   4
  -7  -1   4 494.330 16.2837   8
  -7  -1   4 526.001 19.0711  16
   7  -1  -4 496.342 15.0843  14
  -7   1   4 516.244 16.2689   5
  -7   1   4 496.701 15.6774   1
   7   1  -4 491.593 15.7674  14
  -7   1   4 518.173 18.3955  16
  -7   1   4 512.886 16.6129   8
   7   1  -4 516.123 16.0082   9
   7   1  -4 528.557 16.8992   4
   5  -1  -4 0.48967 0.58329  14
   5  -1  -4 0.25106 0.77035   4
  -5  -1   4 1.23236 0.99383  12
  -5  -1   4 2.38478 1.85301  16
  -5  -1   4 1.29276 1.00512   5
   5  -1  -4 1.46300 1.00510   9
  -5  -1   4 0.80832 1.17643   8
   5   1  -4 0.97732 0.80942   9
   5   1  -4 0.34955 0.90534  14
  -5   1   4 1.14791 1.10642  13
   5   1  -4 -0.2835 1.20020   4
   5   1  -4 0.84118 0.70669  15
  -5   1   4 0.16181 0.76204   5
  -5   1   4 2.24371 1.08801  12
  -5   1   4 -0.4741 0.97298  16
  -5   1   4 1.70488 1.47367   8
  -5   1   4 0.41393 0.85626   1
   3  -1  -4 260.975 7.98449   4
  -3  -1   4 265.390 9.77110  16
  -3  -1   4 267.259 8.03086   8
   3  -1  -4 258.744 8.69807   6
   3  -1  -4 252.179 8.63509  15
  -3  -1   4 262.801 7.97982  12
   3  -1  -4 256.664 7.91378   7
   3  -1  -4 263.802 8.90329   9
  -3  -1   4 253.979 7.01277  13
  -3  -1   4 266.923 8.58082   5
   3   1  -4 250.152 8.28680   4
   3   1  -4 266.837 8.32347  15
   3   1  -4 255.239 7.80553  14
   3   1  -4 273.417 8.93417   9
  -3   1   4 263.408 8.41965   8
  -3   1   4 267.115 9.80339  16
  -3   1   4 266.604 8.41361  13
  -3   1   4 265.008 7.96971  12
   3   1  -4 261.983 8.87388   7
   1  -1  -4 346.372 10.7728   9
   1  -1  -4 339.621 10.9922  15
  -1  -1   4 381.499 11.5482  16
   1  -1  -4 344.455 10.3839   1
   1  -1  -4 340.070 10.8270   6
   1  -1  -4 346.794 11.6503  11
   1  -1  -4 347.592 10.3056   7
   1   1  -4 359.114 11.0992   7
   1   1  -4 361.427 11.0854   9
   1   1  -4 366.266 10.4902  11
  -1   1   4 359.473 10.9037  13
   1   1  -4 360.273 10.6691   6
   1   1  -4 362.364 11.0474  15
   1   1  -4 364.830 10.0994   1
  -1  -1  -4 73.2516 5.05423  11
  -1  -1  -4 76.5324 4.11266  15
   1  -1   4 78.5201 5.47048  10
  -1  -1  -4 75.2623 4.16989   7
  -1  -1  -4 76.6831 3.90689   6
  -1  -1  -4 78.7619 3.66220   9
  -1  -1  -4 74.6353 4.35859   1
  -1   1  -4 72.7754 4.29137   1
  -1   1  -4 69.3154 3.33614   6
  -1   1  -4 72.1238 4.47108  11
  -1   1  -4 69.9309 4.39610   7
  -1   1  -4 80.2401 4.15342   9
  -1   1  -4 73.3606 4.28461  15
  -3  -1  -4 389.172 13.1595  15
  -3  -1  -4 380.022 15.8016  11
   3  -1   4 409.308 16.6293  10
  -3  -1  -4 380.160 14.1983   1
   3  -1   4 396.866 11.8676   2
   3  -1   4 399.308 11.1203  12
  -3  -1  -4 369.982 11.8637   6
  -3   1  -4 366.242 15.2037  11
  -3   1  -4 376.281 13.9690   7
  -3   1  -4 385.506 14.1627   1
   3   1   4 393.381 13.1253  14
   3   1   4 380.918 12.6746   4
   3   1   4 387.366 10.7885  12
   3   1   4 395.104 15.1020  10
  -5  -1  -4 0.26340 3.17853  11
  -5  -1  -4 4.93951 2.95801   1
   5  -1   4 0.43511 2.31875   4
   5  -1   4 3.25933 1.72838  12
   5  -1   4 1.42964 2.12950  10
   5   1   4 -0.6305 2.12913  14
  -5   1  -4 1.10065 2.94877  11
   5   1   4 0.77837 1.65962   4
  -5   1  -4 1.42336 2.79973   1
   5   1   4 0.04436 1.67522  12
   5   1   4 3.91551 2.85066  10
   7  -1   4 37.2263 5.42847  14
   7  -1   4 42.0564 4.99080  12
  -7  -1  -4 39.4093 8.25834  11
  -7  -1  -4 35.8282 6.45431   1
   7  -1   4 46.0074 6.33959   4
   7   1   4 35.8090 5.56213  14
   7   1   4 41.4551 5.79868   4
   7   1   4 41.9996 4.87504  12
  -7   1  -4 43.5385 8.06020  11
  -7   1  -4 38.9156 6.98891   1
   9  -1   4 32.2700 5.01744  12
  -9  -1  -4 46.1590 7.92411   1
  -9  -1  -4 35.2471 7.96194  11
   9  -1   4 32.2152 6.09466   4
  -9   1  -4 33.9739 7.05417   1
   9   1   4 35.7817 5.24846   4
   9   1   4 42.3186 6.01302  12
  -9   1  -4 21.3353 6.93887  11
 -12  -2   4 78.4843 8.13804   8
 -12  -2   4 76.1596 11.0191  11
  12  -2  -4 97.7267 8.81764   4
 -12   2   4 117.453 14.6729  11
 -12   2   4 95.5746 7.89292   8
  12   2  -4 99.9416 9.65725   4
 -10  -2   4 365.611 17.8238  16
 -10  -2   4 376.442 15.1612   5
 -10  -2   4 351.872 15.0175   8
  10  -2  -4 361.110 14.8993   9
  10  -2  -4 370.968 15.3588   4
 -10  -2   4 385.782 19.5924  11
  10   2  -4 354.682 15.5968   4
 -10   2   4 379.178 15.2122   8
 -10   2   4 354.932 19.9257  11
  10   2  -4 320.654 13.9942  14
  -8  -2   4 390.691 14.1656   8
  -8  -2   4 401.648 17.2782  11
   8  -2  -4 413.248 14.9654   9
   8  -2  -4 380.527 19.5112  10
   8  -2  -4 388.516 14.5191   4
  -8  -2   4 403.539 17.1178  16
  -8  -2   4 414.781 14.8749   5
   8   2  -4 404.503 14.1209  14
  -8   2   4 399.740 14.7408   8
  -8   2   4 378.772 15.4854  16
   8   2  -4 401.278 15.0337   4
  -8   2   4 382.684 13.5566   5
  -8   2   4 397.593 14.1919   1
   6  -2  -4 2511.53 64.6024   4
  -6  -2   4 2569.74 67.9952  16
   6  -2  -4 2575.41 71.1444  10
  -6  -2   4 2554.71 65.3215   5
  -6  -2   4 2504.03 64.4405   8
  -6  -2   4 2588.59 66.8801  11
  -6  -2   4 2455.50 64.5023  12
   6  -2  -4 2647.69 65.9187   9
  -6   2   4 2557.22 64.2674   1
  -6   2   4 2611.32 65.0489   8
   6   2  -4 2509.20 64.4245  14
  -6   2   4 2571.57 66.7547  16
  -6   2   4 2477.31 64.5786  12
   6   2  -4 2591.77 64.3693   9
  -6   2   4 2578.67 65.4271  13
   6   2  -4 2591.31 65.3083   4
  -6   2   4 2590.28 64.5634   5
   4  -2  -4 2193.33 54.6675   6
   4  -2  -4 2157.38 53.7790   4
  -4  -2   4 2151.23 54.7907   5
  -4  -2   4 2107.86 54.2221  12
  -4  -2   4 2161.58 56.7028  16
  -4  -2   4 2138.21 53.7844   8
   4  -2  -4 2102.91 55.1188   9
  -4   2   4 2173.75 52.4262   3
   4   2  -4 2140.45 54.5687   4
   4   2  -4 2142.96 54.1199  14
   4   2  -4 2192.45 53.5721  15
  -4   2   4 2216.11 56.4713  16
  -4   2   4 2242.00 55.0410  13
   4   2  -4 2184.52 54.6661   9
  -4   2   4 2192.86 54.3864  12
  -4   2   4 2206.44 54.6272   8
  -2  -2   4 7954.61 201.066  12
  -2  -2   4 8434.63 207.510  16
  -2  -2   4 8541.40 199.636   8
   2  -2  -4 7924.57 207.863  15
   2  -2  -4 7520.52 196.376   9
   2  -2  -4 7923.96 203.344   6
  -2  -2   4 8425.70 202.575   5
   2   2  -4 8217.52 197.726   3
  -2   2   4 8394.21 205.750  13
  -2   2   4 7974.47 199.802  12
  -2   2   4 8056.54 210.249  10
  -2   2   4 8248.30 199.538   3
  -2   2   4 8120.47 196.478  14
   2   2  -4 8174.40 204.211  15
   2   2  -4 8555.81 209.148   7
   2   2  -4 8144.43 203.710   9
   0  -2  -4 1551.64 40.3754   1
   0  -2   4 1613.95 38.0137  12
   0  -2   4 1605.62 38.7920   5
   0  -2  -4 1501.57 41.8723  11
   0  -2   4 1584.72 38.0327  12
   0  -2  -4 1550.29 39.4995   9
   0  -2  -4 1541.64 39.4457   7
   0  -2  -4 1548.91 40.3062  15
   0  -2   4 1574.20 39.7615  16
   0  -2  -4 1568.15 40.3325   6
   0   2  -4 1586.63 40.4214   9
   0   2  -4 1487.37 39.4687  11
   0   2  -4 1588.96 40.9947   7
   0   2  -4 1551.21 39.8986   1
   0   2   4 1608.38 39.1729  14
   0   2  -4 1559.55 40.3963  15
   2  -2   4 3776.67 95.6140   2
   2  -2   4 3787.81 100.630  10
  -2  -2  -4 3945.86 96.2715  15
  -2  -2  -4 4099.95 97.6441   1
   2  -2   4 3636.27 94.2984  16
  -2  -2  -4 4157.91 100.249  11
   2  -2   4 3825.35 97.6074  12
  -2  -2  -4 3918.58 94.5921   9
  -2  -2  -4 3971.59 96.1051   6
   2   2   4 3883.74 94.9762  12
   2   2   4 3942.78 95.3524   4
   2   2   4 3971.27 95.9374  14
  -2   2  -4 3827.67 97.2345   1
  -2   2  -4 3572.53 97.6771  11
   2   2   4 3970.86 93.8974  12
   2   2   4 3985.49 97.5086  10
  -2   2  -4 3923.28 97.7471   7
  -4  -2  -4 172.572 9.21266   1
   4  -2   4 151.348 6.62015   2
   4  -2   4 150.130 6.48408  12
  -4  -2  -4 147.598 10.0476  11
   4  -2   4 146.291 10.5486  10
  -4   2  -4 150.612 8.73514   7
  -4   2  -4 150.074 9.75870  11
  -4   2  -4 170.994 9.21180   1
   4   2   4 152.851 7.97016  14
   4   2   4 156.309 6.29414  12
   4   2   4 162.698 7.32217   4
  -6  -2  -4 712.577 29.3607  11
   6  -2   4 718.942 22.8612  12
   6  -2   4 742.139 24.2428   4
   6  -2   4 731.552 24.1776  14
  -6  -2  -4 736.877 26.0036   1
  -6   2  -4 757.824 26.6876   1
   6   2   4 704.938 23.8169  14
   6   2   4 719.010 23.4441   4
  -6   2  -4 732.473 28.8031  11
   6   2   4 731.732 22.6556  12
  -8  -2  -4 27.3372 6.70885  11
  -8  -2  -4 27.2931 6.76569   1
   8  -2   4 21.2205 5.35588   4
   8  -2   4 34.2096 5.09888  12
   8   2   4 34.9503 5.69195   4
   8   2   4 21.9147 4.12125  12
  -8   2  -4 25.2469 7.02323  11
  -8   2  -4 22.5458 6.32017   1
 -11  -3   4 -0.4624 3.35134   8
  11  -3  -4 2.62069 3.39485   4
 -11  -3   4 -0.0737 1.93533   5
 -11  -3   4 5.84920 5.65002  11
  11   3  -4 -1.6082 2.10637  14
 -11   3   4 5.06322 6.16896  11
  11   3  -4 2.78733 2.89340   4
 -11   3   4 2.19147 2.62042   8
  -9  -3   4 64.0460 7.59127  16
  -9  -3   4 49.8590 5.69318   5
  -9  -3   4 50.8908 7.19544  11
   9  -3  -4 61.2028 6.14582   4
   9  -3  -4 63.2544 6.25246   9
  -9  -3   4 63.8746 6.14802   8
   9   3  -4 59.6201 5.52419  14
  -9   3   4 58.1509 6.20543   8
  -9   3   4 61.9989 6.02990   1
   9   3  -4 60.9403 6.13826   4
   7  -3  -4 94.9099 8.93202  10
  -7  -3   4 95.0031 7.81805  16
  -7  -3   4 86.2185 5.75089   5
   7  -3  -4 93.1829 5.49909   4
  -7  -3   4 90.6202 5.31643   8
  -7  -3   4 97.0211 7.10528  11
   7  -3  -4 101.812 6.33290   9
   7   3  -4 96.8044 6.37909   4
  -7   3   4 93.7080 5.78494   8
  -7   3   4 96.5297 6.65075  16
   7   3  -4 94.2531 5.76861  14
  -7   3   4 98.2990 5.25153   5
  -7   3   4 94.1998 5.76710   1
  -7   3   4 104.667 6.40617  13
  -5  -3   4 42.8913 3.53735  11
  -5  -3   4 45.1600 5.08816  16
   5  -3  -4 37.9345 3.24541   2
   5  -3  -4 45.9469 3.33531   6
  -5  -3   4 38.9651 3.18682  12
  -5  -3   4 40.5857 3.66820   5
   5  -3  -4 41.5854 3.00022   4
   5  -3  -4 49.6402 5.63048  10
  -5  -3   4 46.0318 3.19939   8
   5  -3  -4 45.8662 3.98311   9
  -5   3   4 42.7428 3.31306  12
  -5   3   4 42.2739 3.65550  13
  -5   3   4 41.5800 3.23919   5
   5   3  -4 36.6595 2.42918   3
   5   3  -4 48.1670 3.75071   4
  -5   3   4 41.5158 3.68763   8
  -5   3   4 40.8487 4.08793  16
   5   3  -4 43.8600 3.08554   9
  -3  -3   4 183.368 8.10094  16
   3  -3  -4 169.848 7.05410   9
   3  -3  -4 170.422 6.79389   6
  -3  -3   4 179.965 6.74862   5
   3  -3  -4 168.120 6.93163   2
   3  -3  -4 168.123 5.37413   4
  -3  -3   4 179.136 5.64159   8
  -3  -3   4 171.923 6.39734  12
   3   3  -4 184.541 6.71442   4
   3   3  -4 173.839 6.76431   9
   3   3  -4 189.645 6.74260  14
  -3   3   4 170.171 6.34343  12
  -3   3   4 183.085 6.85828   8
   3   3  -4 173.150 5.92158  15
   3   3  -4 173.995 7.48648   7
  -3   3   4 172.986 5.57525   3
  -3   3   4 167.700 7.23907  13
   3   3  -4 178.407 5.66369   3
   1  -3  -4 346.509 12.8007  11
  -1  -3   4 343.680 11.1926  16
   1  -3  -4 341.607 10.7685   9
  -1  -3   4 356.383 10.2954   5
   1  -3  -4 361.893 11.6535   6
  -1  -3   4 358.117 10.2149  12
   1  -3  -4 340.185 11.2940  15
  -1   3   4 347.416 9.59725  14
  -1   3   4 331.628 11.3136  10
   1   3  -4 343.713 11.3370   9
   1   3  -4 362.206 11.9163   7
  -1   3   4 410.875 10.3294  12
  -1   3   4 355.427 11.9039  13
  -1   3   4 356.600 9.84078  12
   1   3  -4 343.303 10.3697   1
  -1   3   4 363.334 10.6521   3
   1   3  -4 346.607 11.0106  15
   1   3  -4 348.486 10.3313   3
   1  -3   4 6.84987 1.57449   2
   1  -3   4 8.64107 2.83030  10
  -1  -3  -4 5.26128 1.32507  15
  -1  -3  -4 8.00352 2.19697   1
  -1  -3  -4 11.9961 1.45956   9
   1  -3   4 7.45714 1.18802  12
   1  -3   4 11.9646 1.22676  16
  -1  -3  -4 8.30193 2.36745  11
  -1  -3  -4 8.30130 1.72860   6
   1   3   4 6.75755 1.44272  10
   1   3   4 7.33377 1.57494  14
  -1   3  -4 10.0850 2.11041   1
   1   3   4 5.65436 1.16455   4
   1   3   4 7.74212 0.91203  12
   1   3   4 6.09745 0.88239  12
  -1   3  -4 8.69791 1.84327  11
  -1   3  -4 15.3493 2.53071   7
   3  -3   4 293.193 14.5626  10
  -3  -3  -4 289.409 10.3197  15
  -3  -3  -4 283.976 11.8702   1
   3  -3   4 287.183 9.66709  12
   3  -3   4 278.437 10.3082   2
  -3  -3  -4 318.193 14.5022  11
  -3  -3  -4 289.246 10.7499   6
   3   3   4 281.340 9.75037   4
  -3   3  -4 258.385 12.0586  11
  -3   3  -4 288.830 12.0151   1
  -3   3  -4 276.314 11.8536   7
   3   3   4 300.484 9.26319  12
   3   3   4 289.067 10.7080  14
  -5  -3  -4 -0.2410 2.80973   1
   5  -3   4 0.63602 1.67632  12
   5  -3   4 1.24038 1.88782   4
  -5  -3  -4 -2.3356 3.22112  11
  -5   3  -4 -0.4574 2.62128  11
   5   3   4 1.11203 1.61682  12
   5   3   4 5.15482 2.40148   4
  -5   3  -4 2.19238 2.97280   1
  -5   3  -4 1.34421 2.26459   7
   5   3   4 -0.9487 2.25298  14
   7  -3   4 27.1979 4.39139  14
   7  -3   4 19.2011 4.93389   4
  -7  -3  -4 15.7403 5.50179  11
  -7  -3  -4 13.7669 4.98866   1
   7  -3   4 22.9605 4.15670  12
  -7   3  -4 22.9514 6.10991   1
   7   3   4 16.9029 3.66593  12
   7   3   4 24.4558 4.87211  14
   7   3   4 22.8288 4.52074   4
  -7   3  -4 25.5035 6.53713  11
 -12  -4   4 157.420 9.83488   5
  12  -4  -4 159.993 10.0681   4
  12   4  -4 184.907 13.7934   4
 -12   4   4 159.315 11.4592   8
  10  -4  -4 1192.58 36.3923   4
 -10  -4   4 1196.21 36.2411   8
 -10  -4   4 1208.86 37.1004   5
 -10  -4   4 1191.84 40.9596  16
  10  -4  -4 1253.45 37.7613   9
 -10  -4   4 1177.76 40.9547  11
  10   4  -4 1255.14 37.5172   4
 -10   4   4 1234.75 43.2458  11
 -10   4   4 1243.55 36.6404   8
  -8  -4   4 174.393 8.45683   8
  -8  -4   4 188.677 11.4535  16
   8  -4  -4 173.608 8.73039   4
  -8  -4   4 179.808 10.9607  11
   8  -4  -4 176.692 9.89845   9
  -8  -4   4 174.467 9.10410   5
   8   4  -4 171.233 9.27531   4
  -8   4   4 177.014 9.75465  13
  -8   4   4 185.072 9.29939   8
   8   4  -4 180.705 9.14238  14
  -8   4   4 176.660 9.27406   1
   6  -4  -4 2277.05 59.3745   4
  -6  -4   4 2316.92 61.0120   5
  -6  -4   4 2333.69 63.9387  16
  -6  -4   4 2254.20 61.2906  11
   6  -4  -4 2360.40 66.9166  10
   6  -4  -4 2384.49 61.8091   9
  -6  -4   4 2302.10 59.4946   8
   6  -4  -4 2385.04 60.9496   2
   6  -4  -4 2456.41 59.5792   6
  -6   4   4 2453.42 60.7813   8
  -6   4   4 2256.73 59.3758   5
   6   4  -4 2387.37 60.6989   4
  -6   4   4 2388.31 61.8605  13
   6   4  -4 2363.34 60.5610  14
  -6   4   4 2283.18 60.1690  12
  -4  -4   4 45.8176 4.97128  16
   4  -4  -4 46.1468 3.44917   6
   4  -4  -4 41.9627 2.36525   4
   4  -4  -4 40.7432 3.59417   2
  -4  -4   4 46.5604 2.69187   8
   4  -4  -4 43.5128 3.81831   9
   4  -4  -4 41.7785 4.81060  10
  -4  -4   4 46.0877 3.76920   5
  -4  -4   4 41.5279 3.25217  12
   4   4  -4 46.5768 3.53656  14
  -4   4   4 39.5212 2.48611   3
   4   4  -4 43.5966 3.43308   4
   4   4  -4 44.3018 2.83508   3
  -4   4   4 44.1797 3.56500   8
  -4   4   4 41.1635 4.12883  13
  -4   4   4 46.9352 3.36597  12
   4   4  -4 41.6639 2.93578   9
   2  -4  -4 3253.88 81.3712   2
   2  -4  -4 3250.88 81.1713   9
   2  -4  -4 3284.99 81.7320   6
   2  -4  -4 3203.26 81.5832  15
  -2  -4   4 3416.09 82.4336  16
  -2  -4   4 3249.05 80.6387  12
  -2  -4   4 3299.43 80.5278   5
   2   4  -4 3315.42 80.2144   3
   2   4  -4 3285.09 80.3530  15
   2   4  -4 3304.51 80.9818  14
  -2   4   4 3335.08 80.2197   3
  -2   4   4 3156.95 82.0829  10
   2   4  -4 3337.51 82.4722   7
  -2   4   4 3138.77 78.7327  14
  -2   4   4 3276.13 80.3531  12
  -2   4   4 3394.44 82.4590  13
   2   4  -4 3170.64 81.2421   9
   0  -4  -4 29.6784 2.32089   9
   0  -4   4 32.6178 3.38469   2
   0  -4   4 33.5666 2.59555  12
   0  -4  -4 35.2462 3.43746   6
   0  -4  -4 35.0175 4.29578  11
   0  -4   4 33.5318 4.00400  10
   0  -4   4 35.3223 2.55625  16
   0  -4  -4 35.7281 2.80473  15
   0  -4   4 36.4897 2.09412   5
   0   4   4 35.2290 3.04027   3
   0   4   4 41.1616 2.43727  12
   0   4   4 33.2698 2.26675  10
   0   4  -4 33.5290 2.73091   3
   0   4  -4 33.4961 2.87709   1
   0   4   4 34.8310 2.40001  14
   0   4  -4 33.3337 3.27061   7
   0   4   4 36.2773 3.81787  13
  -2  -4  -4 3080.70 79.0481   6
  -2  -4  -4 3125.81 82.6895  11
  -2  -4  -4 3065.58 79.5719   1
   2  -4   4 3164.97 78.4974   2
  -2  -4  -4 3044.81 77.6556  15
   2  -4   4 3101.22 83.9243  10
   2  -4   4 3178.12 77.2041  12
  -2   4  -4 3098.01 79.3751   1
   2   4   4 3249.56 76.6647  12
   2   4   4 3193.76 77.8777  14
   2   4   4 3047.11 76.3068   4
  -2   4  -4 3196.86 80.1253   7
  -2   4  -4 2930.56 78.9687  11
  -4  -4  -4 159.445 8.07006   6
   4  -4   4 157.392 7.75606   2
  -4  -4  -4 175.227 11.8335  11
  -4  -4  -4 174.329 9.38767   1
   4  -4   4 155.425 7.47216  12
   4  -4   4 144.370 11.0805  10
   4   4   4 174.289 7.41801  12
  -4   4  -4 159.458 9.14175   7
  -4   4  -4 150.516 9.58183  11
   4   4   4 172.106 8.49555  14
   4   4   4 162.345 7.20570   4
  -4   4  -4 158.845 9.52829   1
   6  -4   4 1580.26 45.5656   4
  -6  -4  -4 1557.40 47.0731   1
  -6  -4  -4 1533.40 51.8774  11
   6  -4   4 1549.04 44.0600  12
   6   4   4 1598.42 45.2798  14
   6   4   4 1639.62 44.2160  12
  -6   4  -4 1591.17 50.5497  11
  -6   4  -4 1624.40 48.2222   1
   6   4   4 1582.19 43.5152   4
  -8  -4  -4 112.515 11.1944   1
  -8  -4  -4 116.135 13.2731  11
   8  -4   4 114.747 8.52407  12
   8  -4   4 104.488 8.50393   4
  -8   4  -4 124.203 11.4867   1
   8   4   4 108.982 8.29041  12
 -11  -5   4 9.20219 3.78059   5
  11  -5  -4 8.92076 3.58309   4
  11  -5  -4 12.8871 4.45838   9
 -11   5   4 10.7291 6.69771  11
 -11   5   4 6.68048 3.78464   8
  11   5  -4 14.1746 4.47544   4
   9  -5  -4 169.363 10.6602   9
   9  -5  -4 161.654 8.72569   4
  -9  -5   4 170.960 12.2873  16
  -9  -5   4 166.364 9.70936   5
  -9   5   4 180.386 10.4157   1
   9   5  -4 173.977 9.55399  14
   9   5  -4 169.316 10.0057   4
  -9   5   4 165.576 10.5211  13
  -9   5   4 166.312 9.74882   8
   7  -5  -4 26.7406 3.84014   2
  -7  -5   4 25.4956 4.00431   5
  -7  -5   4 26.7520 5.22825  16
  -7  -5   4 25.0039 3.46139   8
   7  -5  -4 25.3874 4.46570   9
   7  -5  -4 20.7987 3.04963   4
   7  -5  -4 25.9188 5.72827  10
  -7   5   4 24.7736 4.09491   1
   7   5  -4 26.8889 3.76500   4
   7   5  -4 26.0412 3.91415  14
  -7   5   4 27.4549 3.60865   8
  -7   5   4 22.1922 4.24658  13
  -5  -5   4 609.866 21.1260  16
  -5  -5   4 587.274 17.9747  12
   5  -5  -4 576.874 18.5315   2
  -5  -5   4 571.115 16.5030   8
   5  -5  -4 553.041 16.3395   4
   5  -5  -4 568.030 21.8853  10
   5  -5  -4 564.707 17.3671   6
  -5  -5   4 600.317 18.5758   5
  -5   5   4 543.311 16.2963   3
   5   5  -4 602.919 16.9109   9
  -5   5   4 556.229 18.8973  16
  -5   5   4 579.688 18.0173   8
   5   5  -4 581.388 17.8555   4
  -5   5   4 536.508 17.5990  12
   5   5  -4 598.867 18.3375  14
  -5   5   4 580.361 19.3302  13
   5   5  -4 582.948 16.8554   3
  -3  -5   4 325.646 11.0558   2
   3  -5  -4 319.791 11.3790   6
  -3  -5   4 318.704 12.5275  16
  -3  -5   4 312.330 11.0301  12
   3  -5  -4 329.519 11.5843   2
  -3  -5   4 326.137 11.0088   5
   3  -5  -4 321.512 11.5625   9
   3   5  -4 331.572 11.2742  14
  -3   5   4 301.143 10.0912   3
  -3   5   4 343.519 12.5744  13
   3   5  -4 313.247 10.3602   3
  -3   5   4 316.040 11.1556   8
   3   5  -4 316.026 12.1936   7
   3   5  -4 319.976 10.9276   9
  -3   5   4 315.578 10.8481  12
  -1  -5   4 366.456 11.7204  12
  -1  -5   4 348.599 14.4091  10
   1  -5  -4 366.178 12.8239   6
   1  -5  -4 349.451 11.4057   9
  -1  -5   4 358.825 11.9826  16
  -1  -5   4 353.336 10.7630   5
   1  -5  -4 353.718 12.0766  15
   1  -5  -4 355.522 11.9081   2
  -1  -5   4 378.323 12.5247   2
   1   5  -4 362.657 11.5469   3
  -1   5   4 377.162 13.5318  13
   1   5  -4 341.546 11.3647   1
  -1   5   4 369.103 11.8207   3
  -1   5   4 343.697 10.0695  14
   1   5  -4 364.175 12.9830   7
  -1   5   4 359.720 11.4848  12
   1  -5   4 964.268 27.5338   2
   1  -5   4 981.032 31.8891  10
   1  -5   4 965.910 26.5919  12
  -1  -5  -4 973.000 28.2705   6
  -1  -5  -4 978.276 30.8951  11
  -1  -5  -4 928.631 26.4940  15
  -1   5  -4 958.957 28.3269   7
  -1   5  -4 950.683 27.6087   1
   1   5   4 990.261 26.1499  12
  -1   5  -4 948.701 26.7306   3
   1   5   4 980.931 27.4248   3
   1   5   4 967.729 29.0326  13
   1   5   4 954.751 26.0468  14
   3  -5   4 162.319 7.42570  12
   3  -5   4 170.263 8.24349   2
  -3  -5  -4 151.508 8.29188   6
   3  -5   4 158.488 11.0270  10
  -3  -5  -4 133.507 10.3396  11
  -3  -5  -4 140.116 8.72945   1
   3   5   4 148.238 6.89528  12
  -3   5  -4 153.144 8.97878   7
   3   5   4 148.276 7.58577  14
   3   5   4 141.982 7.87407   3
  -3   5  -4 155.825 8.85492   1
   5  -5   4 446.952 16.3694   2
   5  -5   4 463.770 17.6931   4
  -5  -5  -4 493.328 17.3985   6
  -5  -5  -4 499.714 19.1943   1
   5  -5   4 453.652 16.6273  12
  -5  -5  -4 471.100 22.6346  11
   5   5   4 480.083 16.5349  12
  -5   5  -4 447.940 20.4758  11
  -5   5  -4 456.539 18.6192   7
   5   5   4 466.511 17.3521  14
   5   5   4 445.827 17.3619   3
  -5   5  -4 469.212 19.4998   1
   7  -5   4 109.065 9.07474   4
  -7  -5  -4 94.8977 10.0731   1
   7  -5   4 120.517 8.56497  12
  -7  -5  -4 98.9546 11.4730  11
   7   5   4 113.328 8.63898  12
   7   5   4 98.1122 8.89760   3
  -7   5  -4 110.266 10.5803   1
  10  -6  -4 21.8468 5.09223   9
 -10  -6   4 24.6243 4.56803   5
  10   6  -4 26.4683 5.04139   4
 -10   6   4 18.3431 7.13292  11
 -10   6   4 28.7286 4.43029   8
 -10   6   4 22.2908 5.31629   1
  -8  -6   4 1175.30 36.1455   5
   8  -6  -4 1221.11 37.1700   9
  -8  -6   4 1182.84 39.9170  16
   8  -6  -4 1220.46 35.8217   2
   8   6  -4 1198.99 35.8640  14
   8   6  -4 1175.66 35.2467   4
  -8   6   4 1222.00 35.0829   8
  -8   6   4 1161.67 36.9722  13
  -8   6   4 1245.12 36.5144   1
  -6  -6   4 271.569 13.7363  16
  -6  -6   4 253.672 10.9955   5
   6  -6  -4 214.061 10.5435   2
   6  -6  -4 220.922 13.5148  10
  -6   6   4 220.791 8.81917   5
   6   6  -4 223.553 10.0648  14
   6   6  -4 230.534 9.94709   4
  -6   6   4 223.884 10.4898  16
  -6   6   4 222.659 9.68734   8
  -6   6   4 236.595 8.75567   3
   6   6  -4 233.458 9.21972   3
  -6   6   4 228.000 11.4109  13
   4  -6  -4 3395.30 84.2166   6
  -4  -6   4 3196.36 84.0045  12
   4  -6  -4 3318.08 88.0617  10
  -4  -6   4 3299.60 86.9515  16
  -4  -6   4 3261.86 83.5903   2
  -4  -6   4 3323.84 84.2053   5
   4  -6  -4 3429.34 85.3069   2
   4   6  -4 3366.36 84.4434  14
   4   6  -4 3360.28 83.2783   9
  -4   6   4 3372.05 84.3057  12
  -4   6   4 3416.17 86.2135  13
   4   6  -4 3297.77 83.2873   3
   4   6  -4 3469.47 86.5002   7
  -4   6   4 3369.65 84.1095   8
   4   6  -4 3366.27 83.8146   4
  -4   6   4 3272.20 82.8035   3
   2  -6  -4 650.738 20.2297   6
  -2  -6   4 623.012 20.1294  16
   2  -6  -4 646.248 19.7611   2
  -2  -6   4 617.742 18.4205   5
  -2  -6   4 618.427 19.5245   2
   2  -6  -4 612.763 19.1973   9
  -2  -6   4 630.878 19.3168  12
   2   6  -4 634.827 20.7468   7
  -2   6   4 660.109 18.9682   3
   2   6  -4 659.982 18.9597   3
  -2   6   4 645.595 21.0652  13
  -2   6   4 698.018 19.5210  12
   0  -6  -4 3482.50 87.7546   2
   0  -6   4 3539.16 88.1853  12
   0  -6   4 3555.57 93.5173  10
   0  -6  -4 3556.14 89.9107   6
   0  -6  -4 3406.51 86.6570   9
   0  -6   4 3605.98 89.2437   2
   0  -6  -4 3591.78 92.5896  11
   0  -6  -4 3377.06 87.9055  15
   0   6   4 3536.81 88.4455   3
   0   6   4 3650.74 90.8412  13
   0   6  -4 3597.77 90.1002   7
   0   6   4 3512.63 86.5130  14
   0   6  -4 3442.09 88.4272   1
   0   6   4 3573.58 87.8573  12
   0   6  -4 3502.15 88.0319   3
   2  -6   4 191.451 8.50971  12
  -2  -6  -4 194.288 11.9406  11
   2  -6   4 200.094 12.4559  10
  -2  -6  -4 185.198 9.54501   6
  -2  -6  -4 180.134 7.75882  15
   2  -6   4 191.265 9.44691   2
  -2   6  -4 192.715 9.86786   7
   2   6   4 193.069 8.25731  14
   2   6   4 188.360 8.97037   3
   2   6   4 190.096 8.37103  12
   2   6   4 203.930 10.4062  13
  -2   6  -4 194.152 9.69488   1
  -4  -6  -4 1355.17 40.0079   6
   4  -6   4 1372.05 38.7421  12
   4  -6   4 1367.27 39.1811   2
  -4  -6  -4 1329.11 44.7623  11
   4   6   4 1399.96 38.4785  12
  -4   6  -4 1392.29 41.3871   1
   4   6   4 1411.15 40.0948   3
   4   6   4 1332.12 38.5395  14
  -4   6  -4 1380.39 41.0447   7
   6  -6   4 24.2880 4.49807   4
  -6  -6  -4 21.9409 7.03033  11
   6  -6   4 15.1118 3.79252  12
  -6   6  -4 24.2932 5.10330   1
   6   6   4 20.8412 4.57009  14
   6   6   4 19.0174 4.13310   3
  -6   6  -4 20.7670 4.77390   7
   6   6   4 19.9225 3.94956  12
   8  -6   4 414.110 18.0262  12
   8  -6   4 439.032 20.9174   4
  -8  -6  -4 492.389 30.3549  11
   8   6   4 354.878 18.9599  12
 -11  -7   4 61.8691 11.1453   5
  -9  -7   4 158.236 9.93570   5
   9  -7  -4 149.713 10.3953   9
  -9  -7   4 140.186 12.2871  16
   9  -7  -4 163.458 10.1461   2
   9   7  -4 154.917 9.93363  14
  -9   7   4 140.576 10.7435  13
   9   7  -4 141.879 9.27258   4
  -9   7   4 159.487 10.8567   1
  -9   7   4 152.965 9.36794   8
   7  -7  -4 43.1557 5.70883   2
  -7  -7   4 34.4515 4.80418   5
  -7  -7   4 30.5361 6.41035  16
  -7   7   4 26.0135 5.01263  13
   7   7  -4 24.5667 4.10554   4
   7   7  -4 31.5250 4.75516  14
  -7   7   4 28.2845 4.99822   1
  -7   7   4 30.6234 4.38626   8
  -5  -7   4 198.479 8.37264   2
  -5  -7   4 196.088 9.47334   5
  -5  -7   4 189.723 11.3521  16
   5  -7  -4 199.338 10.1183   2
   5  -7  -4 189.682 11.6971  10
   5  -7  -4 195.407 8.52605   6
   5   7  -4 190.548 8.52026   3
  -5   7   4 191.633 10.5510  13
   5   7  -4 177.925 8.48981   4
   5   7  -4 185.979 10.4738   7
  -5   7   4 199.106 8.17065   3
   5   7  -4 192.701 9.16564  14
  -5   7   4 208.627 10.1629  16
  -5   7   4 183.513 8.58721   8
  -5   7   4 182.047 8.81636  12
  -3  -7   4 54.3462 4.64751   2
   3  -7  -4 51.3053 4.60024   2
  -3  -7   4 55.1963 4.33048  12
   3  -7  -4 51.2275 4.60875   9
  -3  -7   4 53.7337 3.96659   5
  -3  -7   4 52.3737 4.96833  16
   3  -7  -4 56.2105 4.90429   6
   3   7  -4 52.3707 4.29755  14
   3   7  -4 55.4994 5.38696   7
  -3   7   4 49.6174 4.36776  12
  -3   7   4 50.4454 5.67155  13
  -3   7   4 53.7603 4.28109   3
  -3   7   4 55.8846 4.31675   8
   3   7  -4 55.3240 4.36946   3
   1  -7  -4 20.9782 3.20867   2
  -1  -7   4 17.6482 3.90890  10
  -1  -7   4 18.0833 2.97520  16
  -1  -7   4 21.0650 3.23417   2
   1  -7  -4 17.8680 2.50505   9
   1  -7  -4 18.4814 2.76349  15
   1  -7  -4 39.1742 4.67601   6
  -1  -7   4 19.0811 3.05442  12
   1   7  -4 20.9958 3.73040   7
   1   7  -4 25.8873 3.31951   3
  -1   7   4 17.8701 2.93229  12
  -1   7   4 20.0149 3.94476  13
  -1   7   4 21.6628 3.37536   3
  -1  -7  -4 86.5539 5.06784  15
  -1  -7  -4 109.637 9.14098  11
   1  -7   4 97.2423 8.61896  10
   1  -7   4 99.1307 7.08518   2
  -1  -7  -4 100.569 6.80081   6
   1  -7   4 95.7005 6.01066  12
   1   7   4 92.8452 5.93473  12
  -1   7  -4 102.043 6.52492   1
  -1   7  -4 93.0788 6.10151   3
   1   7   4 90.5511 5.10805  14
  -1   7  -4 106.951 6.91036   7
   1   7   4 101.529 7.63698  13
   1   7   4 100.757 6.82081   3
   3  -7   4 -2.3586 1.79910  12
  -3  -7  -4 6.30578 4.26069  11
  -3  -7  -4 -0.0481 2.52616   6
   3  -7   4 -0.4760 2.07863   2
   3   7   4 -1.8402 1.66083  12
   3   7   4 2.54838 1.79783  14
  -3   7  -4 5.13330 2.79272   7
   3   7   4 0.50718 2.85709   3
   3   7   4 -0.2137 2.60729  13
  -3   7  -4 0.94010 1.98381   1
  -5  -7  -4 46.2236 6.24260   6
   5  -7   4 45.7688 5.58862   4
  -5  -7  -4 37.1338 7.60789  11
   5  -7   4 48.3291 5.88918  12
   5  -7   4 37.5466 5.40848   2
   5   7   4 45.4517 5.88765   3
   5   7   4 46.4699 5.57435  12
   5   7   4 33.4741 4.64890  14
  -5   7  -4 48.5142 7.34689   1
  -5   7  -4 42.9442 6.03495   7
   7  -7   4 6.95313 3.92183   4
   7  -7   4 10.6848 3.66236  12
  -7  -7  -4 13.4507 7.25695  11
  -7   7  -4 7.47661 4.94176   1
   7   7   4 9.81746 4.49924   3
   7   7   4 7.85044 3.26375  12
 -10  -8   4 301.031 15.2804   5
  10  -8  -4 305.404 16.3370   9
 -10  -8   4 284.441 14.8983   6
   8  -8  -4 523.776 20.4370   2
   8  -8  -4 527.535 21.4280   9
  -8  -8   4 504.849 23.2062  16
  -8  -8   4 543.508 20.7029   5
  -8   8   4 482.071 21.0514  13
   8   8  -4 533.145 19.0482   4
   8   8  -4 533.452 20.2063  14
  -8   8   4 513.826 20.5458   1
  -6  -8   4 336.957 13.9859   5
  -6  -8   4 332.168 16.5492  16
   6  -8  -4 350.061 14.8093   2
  -6   8   4 322.318 12.9124   8
   6   8  -4 315.215 12.7714   3
   6   8  -4 322.222 12.7520   4
   6   8  -4 355.471 16.0352   7
   6   8  -4 337.308 14.1088  14
  -6   8   4 331.695 15.5432  13
  -6   8   4 350.803 12.4569   3
  -4  -8   4 751.688 23.9185   5
  -4  -8   4 790.297 23.8675   2
   4  -8  -4 790.361 24.3445   6
  -4  -8   4 742.688 26.4151  16
   4  -8  -4 826.071 25.7429   2
  -4   8   4 767.081 24.3871  12
   4   8  -4 811.975 26.4576   7
  -4   8   4 771.312 26.3414  13
   4   8  -4 791.099 23.8097   3
  -4   8   4 765.940 23.3015   3
  -4   8   4 822.055 24.0434   8
   4   8  -4 780.870 24.5626  14
  -2  -8   4 270.067 10.4386   5
  -2  -8   4 280.279 13.8444  10
   2  -8  -4 305.060 12.4209   2
  -2  -8   4 298.952 12.2669   2
  -2  -8   4 298.004 11.9856  12
  -2  -8   4 285.291 12.2558  16
   2  -8  -4 330.459 13.1820   6
  -2   8   4 298.784 11.5523   3
  -2   8   4 307.979 13.8462  13
   2   8  -4 285.408 12.7278   7
   2   8  -4 294.982 11.6580   3
  -2   8   4 289.308 11.8496  12
   0  -8   4 902.006 31.8954  10
   0  -8  -4 917.822 29.0708   6
   0  -8   4 864.735 27.2183  12
   0  -8  -4 944.110 27.0641   2
   0  -8   4 942.839 28.4618   2
   0  -8  -4 894.981 26.5635  15
   0   8  -4 908.839 27.8597   1
   0   8   4 944.259 27.8212   3
   0   8   4 941.420 27.5768  12
   0   8  -4 936.279 27.5112   3
   0   8  -4 914.514 28.8168   7
   0   8   4 915.564 29.5928  13
   2  -8   4 260.629 11.5220  12
   2  -8   4 242.791 12.1921   2
  -2  -8  -4 246.398 12.4790   6
  -2  -8  -4 250.172 15.0153  11
  -2   8  -4 259.080 12.4291   1
  -2   8  -4 240.414 11.8700   7
   2   8   4 240.477 11.7420   3
   2   8   4 238.049 11.0742  12
   2   8   4 252.016 13.1412  13
  -2   8  -4 253.653 11.3379   3
  -4  -8  -4 748.077 26.5098   6
  -4  -8  -4 711.552 30.4056  11
   4  -8   4 738.997 24.9541  12
   4  -8   4 756.360 25.7237   2
   4   8   4 733.233 27.1103  13
  -4   8  -4 779.945 26.7501   7
   4   8   4 712.777 23.8551  14
  -4   8  -4 777.182 27.4054   1
   4   8   4 728.590 24.4783  12
   4   8   4 749.768 25.7821   3
   6  -8   4 174.195 11.0242   4
  -6  -8  -4 166.239 12.6200   6
  -6  -8  -4 185.090 14.9878  11
   6  -8   4 171.191 10.8419  12
  -6   8  -4 189.324 11.9816   7
  -6   8  -4 198.799 13.6153   1
   6   8   4 182.891 11.7146   3
   6   8   4 184.779 10.7929  12
  -9  -9   4 2.15985 2.86147   5
  -9  -9   4 1.42895 3.88183   6
   9  -9  -4 0.53305 3.56824   2
   9  -9  -4 2.15739 3.02962   9
  -9   9   4 4.50192 4.62666   1
   9   9  -4 9.76686 5.19677   7
  -7  -9   4 45.0764 5.89855   5
  -7  -9   4 26.7810 6.46548  16
   7  -9  -4 34.0248 5.50215   2
  -7   9   4 27.4460 5.83721  13
   7   9  -4 36.2514 5.93090   7
   7   9  -4 36.4880 5.08496  14
  -7   9   4 37.3438 4.77017   8
  -7   9   4 42.1069 6.49576   1
   5  -9  -4 -0.0560 2.94454   2
  -5  -9   4 0.18169 2.69457   5
  -5  -9   4 1.41416 3.40375  16
   5   9  -4 1.77967 2.38334   3
  -5   9   4 1.22977 1.87908   8
   5   9  -4 4.79488 2.91194  14
   5   9  -4 0.96463 2.21952   7
  -5   9   4 -0.2036 2.15014  13
  -5   9   4 4.96770 2.62641   3
   3  -9  -4 12.4605 3.40981   6
  -3  -9   4 9.49445 2.75607   5
   3  -9  -4 11.1886 2.72288   9
  -3  -9   4 7.94715 2.54324   2
   3  -9  -4 11.0392 3.00469   2
  -3   9   4 12.6293 4.12604  13
   3   9  -4 10.4814 3.13644   7
  -3   9   4 11.3836 3.12101   8
  -3   9   4 10.2800 2.58292   3
  -3   9   4 11.8516 3.07572  12
   3   9  -4 13.0143 3.12194   3
   1  -9  -4 3.76800 2.78981   6
  -1  -9   4 0.95073 2.86926   2
   1  -9  -4 3.63534 1.90084   2
  -1  -9   4 7.04066 3.55150  10
  -1  -9   4 3.53855 2.38400  12
   1  -9  -4 9.39303 2.47490  15
   1   9  -4 0.99710 2.34975   3
  -1   9   4 1.70234 3.09765  13
   1   9  -4 0.84575 2.68110   7
  -1   9   4 5.78758 2.16870  12
  -1   9   4 3.48893 2.35922   3
  -1  -9  -4 5.17069 3.52336   6
   1  -9   4 1.45790 2.28731   2
   1  -9   4 1.27343 2.31487  12
  -1   9  -4 0.46717 2.92651   7
  -1   9  -4 1.74335 1.97933   1
   1   9   4 2.22939 2.29152   3
   1   9   4 2.79331 3.22386  13
   1   9   4 1.75672 2.28016  12
  -1   9  -4 2.01993 1.95268   3
   3  -9   4 14.2896 4.59393   2
  -3  -9  -4 13.4736 4.49477   6
  -3  -9  -4 16.8962 6.11708  11
   3  -9   4 11.7823 3.49460  12
   3   9   4 11.0716 4.42845   3
  -3   9  -4 12.6667 4.44246   1
   3   9   4 12.1349 4.24723  13
   3   9   4 15.1151 3.61718  12
  -3   9  -4 13.5636 4.27497   7
  -5  -9  -4 9.26303 5.29123  11
   5  -9   4 6.13820 3.28723  12
   5  -9   4 5.63308 3.95380   2
   5  -9   4 8.12018 3.52216   4
  -5  -9  -4 5.61376 3.59005   6
   5   9   4 12.8512 3.72578  12
  -5   9  -4 2.93178 3.19445   1
   5   9   4 5.71506 4.25187   3
  -5   9  -4 7.81997 4.21340   7
  -8 -10   4 57.5473 7.97445   6
  -8 -10   4 52.6990 7.14002   5
   8 -10  -4 44.2360 7.34712   9
   8 -10  -4 36.7848 6.31604   2
  -8  10   4 37.0487 7.04018   1
   8  10  -4 45.9606 7.87899   7
   6 -10  -4 957.347 31.5394   2
  -6 -10   4 911.091 30.0780   5
   6  10  -4 896.920 28.5602   3
  -6  10   4 918.613 27.9577   3
   6  10  -4 890.854 29.7461  14
   6  10  -4 904.622 31.6706   7
  -6  10   4 948.502 32.5407  13
   4 -10  -4 147.124 9.96372   2
  -4 -10   4 145.051 8.69873   2
  -4 -10   4 142.601 8.17158   5
   4 -10  -4 151.193 9.06764   6
   4 -10  -4 146.600 9.32994   9
  -4  10   4 154.958 10.8395  13
  -4  10   4 146.356 8.61250   3
   4  10  -4 150.353 10.3386   7
   4  10  -4 142.607 9.06166  14
   4  10  -4 152.361 8.89998   3
  -4  10   4 147.700 8.52950   8
   2 -10  -4 1179.25 36.2243   6
   2 -10  -4 1163.85 35.4847   2
  -2 -10   4 1157.87 35.5786   2
  -2  10   4 1145.95 37.6452  13
  -2  10   4 1161.00 35.4267  12
  -2  10   4 1178.41 34.8568   3
   2  10  -4 1203.16 36.8226   7
  -2  10   4 1191.06 34.5338   8
   2  10  -4 1211.90 35.0822   3
   0 -10   4 221.640 11.8362   2
   0 -10  -4 213.753 11.8595   6
   0 -10  -4 224.232 10.6637   2
   0  10  -4 219.852 10.9157   3
   0  10  -4 230.963 12.4741   7
   0  10   4 218.574 11.1805   3
   0  10  -4 242.512 11.9340   1
   0  10   4 232.073 13.2902  13
   0  10   4 222.353 11.4000  12
  -2 -10  -4 731.813 27.4328   6
   2 -10   4 781.714 27.3873   2
   2 -10   4 743.409 25.8695  12
  -2  10  -4 785.884 27.4754   1
   2  10   4 781.071 26.5406   3
   2  10   4 735.355 27.9618  13
  -2  10  -4 775.214 25.6392   3
   2  10   4 799.152 26.4547  12
  -2  10  -4 790.609 27.1303   7
   4 -10   4 127.541 10.2168   2
  -4 -10  -4 141.314 10.9818   6
  -4 -10  -4 132.600 13.2321  11
  -4  10  -4 151.735 11.4556   1
   4  10   4 133.598 9.38262  12
  -4  10  -4 125.020 10.0495   7
   4  10   4 135.431 9.66642   3
  -7 -11   4 110.683 8.94380   5
   7 -11  -4 108.939 9.11445   2
  -7 -11   4 121.030 10.5889   6
   7 -11  -4 114.296 10.0518   9
   7  11  -4 119.342 9.77563   7
  -7  11   4 110.853 10.6737   1
  -5 -11   4 118.849 8.44110   5
   5 -11  -4 121.520 8.95793   9
   5 -11  -4 130.677 10.1903   2
  -5 -11   4 136.922 10.0095   6
   5  11  -4 141.900 10.8059   7
   5  11  -4 127.496 8.78170   3
  -5  11   4 125.310 8.54765   3
  -3 -11   4 171.135 11.0292   6
   3 -11  -4 182.990 10.2712   9
   3 -11  -4 174.184 10.4502   2
  -3 -11   4 165.523 10.1608   2
   3 -11  -4 174.962 10.7034   6
   3  11  -4 162.686 10.5866   7
  -3  11   4 181.335 11.9745  13
  -3  11   4 174.710 9.39437   8
   3  11  -4 179.827 9.82153   3
   1 -11  -4 168.563 9.52071   2
   1 -11  -4 177.457 10.9612   6
  -1 -11   4 177.982 11.1210   2
   1  11  -4 167.373 10.4188   7
   1  11  -4 167.702 9.66498   3
  -1  11   4 161.633 11.5902  13
  -1  11   4 173.301 9.74999   8
  -1  11   4 173.462 9.99600   3
  -1  11   4 172.008 10.2483  12
  -1 -11  -4 137.980 9.99490   6
   1 -11   4 118.756 10.0513   2
   1  11   4 143.954 10.9418  13
   1  11   4 129.747 9.04082   3
   1  11   4 123.931 8.98623  12
  -1  11  -4 127.737 9.79782   7
  -1  11  -4 129.593 9.68823   1
  -1  11  -4 113.194 8.66116   3
  -3 -11  -4 127.549 10.7589   6
   3 -11   4 128.826 9.56514   2
   3  11   4 145.372 9.78309  12
  -3  11  -4 131.924 10.7952   1
   3  11   4 118.084 10.1337   3
   6 -12  -4 105.635 9.61050   9
  -6 -12   4 120.837 9.84831   6
   6  12  -4 127.472 9.99102   7
  -4 -12   4 555.787 22.4695   6
   4 -12  -4 532.095 21.1095   9
   4 -12  -4 559.426 22.2995   2
   4  12  -4 536.839 20.5687   3
  -4  12   4 564.810 20.7361   3
   4  12  -4 565.792 22.7796   7
  -2 -12   4 104.810 8.02829   2
   2 -12  -4 87.9885 7.93929   2
   2 -12  -4 98.5920 9.05945   6
  -2 -12   4 94.5796 8.29018   6
  -2  12   4 92.1176 7.50413   3
   2  12  -4 96.0951 8.07985   3
   2  12  -4 81.4697 13.0484   7
   0 -12  -4 588.086 23.8187   6
   0 -12   4 607.935 23.6089   2
   0  12  -4 598.241 22.2960   3
   0  12   4 626.419 23.1474   3
  -2 -12  -4 40.7840 7.35779   6
   2 -12   4 56.3314 7.92683   2
   2  12   4 51.1635 7.19947   3
  -2  12  -4 53.0076 7.21029   1
   2  12   4 35.3266 5.52984  12
  -3 -13   4 21.0964 5.36644   6
   3 -13  -4 27.1107 4.85619   2
   3  13  -4 37.4510 5.22918   3
   1 -13  -4 20.6996 5.64266   6
  -1 -13   4 21.3433 5.18505   2
   1  13  -4 27.7714 4.70729   3
  -1  13   4 22.6267 5.44102   3
   1 -13   4 41.6400 6.85887   2
  -1 -13  -4 46.3135 7.93713   6
   1  13   4 30.7177 5.96098   3
  -1  13  -4 39.1635 5.44380   3
  12   0  -5 1.99696 2.71493   4
 -12   0   5 4.16861 3.24862   8
 -12   0   5 -0.5510 3.93345  11
 -10   0   5 -0.4067 2.71862  16
 -10   0   5 1.84329 2.38686   5
  10   0  -5 0.40828 2.90647   4
 -10   0   5 0.97096 4.52023  11
 -10   0   5 -0.7001 3.14575   8
   8   0  -5 0.94644 2.14926   4
  -8   0   5 0.94121 1.92834   5
  -8   0   5 2.99037 2.79698  16
   8   0  -5 -0.1617 1.59841   9
  -8   0   5 1.58738 3.07611  11
   8   0  -5 -0.7226 1.11725  14
  -8   0   5 1.43208 2.35747   8
  -6   0   5 2.07461 1.67439   8
   6   0  -5 0.83125 0.84058  14
   6   0  -5 1.54092 1.50614   4
   6   0  -5 -0.2528 1.26508   9
  -6   0   5 10.3705 3.09333  16
  -6   0   5 0.55553 0.95613  13
  -6   0   5 1.25440 1.28980  12
   6   0  -5 0.18368 1.04176  15
  -6   0   5 9.91364 2.20137   5
   4   0  -5 1.53646 1.00616   7
   4   0  -5 0.88390 0.84233   9
  -4   0   5 0.92823 1.10294   5
  -4   0   5 1.33563 1.57167  16
  -4   0   5 2.25770 0.90472  13
   4   0  -5 0.48703 0.93165  15
  -4   0   5 1.85772 0.99495   8
   4   0  -5 0.30780 0.57976  14
   4   0  -5 9.74315 1.68996   4
  -4   0   5 0.66472 0.76511  12
   2   0  -5 10.3542 1.77720  15
  -2   0   5 2.49711 0.56018  12
   2   0  -5 2.61537 1.01273   6
  -2   0   5 1.86571 0.75795  13
   2   0  -5 2.22013 1.22068   9
  -2   0   5 0.86673 0.40953  12
  -2   0   5 7.59614 1.87366  16
  -2   0   5 9.45904 1.46261   8
   2   0  -5 -0.1100 0.74570   7
   2   0  -5 1.23061 0.66761   1
   0   0  -5 0.45334 0.94038   9
   0   0  -5 -0.0005 0.98982  11
   0   0  -5 1.41140 1.21308   7
   0   0  -5 0.74411 0.96606   6
   0   0  -5 0.52078 1.07408  15
   0   0  -5 1.85286 1.09614   1
  -2   0  -5 0.99189 0.95756   6
  -2   0  -5 1.52164 1.57503  15
  -2   0  -5 0.42679 1.69015   7
  -2   0  -5 0.63408 1.78029  11
   2   0   5 0.63447 1.88439  10
  -2   0  -5 -0.3920 1.13357   1
   4   0   5 0.45480 2.44793  10
   4   0   5 10.6754 2.99726   4
  -4   0  -5 7.57509 3.13050   1
   4   0   5 0.28740 0.97278  12
  -4   0  -5 1.70148 2.73335  11
  -6   0  -5 0.69743 3.53142   1
   6   0   5 -1.7383 1.97314   4
   6   0   5 -0.7366 2.71034  14
   6   0   5 2.57088 2.16710  12
  -6   0  -5 3.86625 4.24089  11
  -8   0  -5 1.60611 3.32439  11
   8   0   5 0.94458 2.57923   4
   8   0   5 1.56623 2.88892  12
  -8   0  -5 3.07671 5.02035   1
 -11  -1   5 799.256 26.9457   5
 -11  -1   5 860.941 33.5948  11
 -11  -1   5 813.377 30.4599  16
  11  -1  -5 833.622 28.3074   4
 -11  -1   5 836.168 27.6745   8
 -11   1   5 869.214 34.4060  11
 -11   1   5 864.932 28.0919   8
  11   1  -5 847.680 28.7286   4
   9  -1  -5 142.253 8.50467   4
  -9  -1   5 135.505 8.29836   8
  -9  -1   5 150.798 10.8743  11
  -9  -1   5 133.599 9.89002  16
  -9  -1   5 138.155 8.11325   5
   9  -1  -5 151.921 8.37299   9
  -9   1   5 152.505 11.4902  11
  -9   1   5 128.871 7.53129   5
  -9   1   5 136.170 8.43813   8
  -9   1   5 130.682 9.38359  16
   9   1  -5 106.891 6.67164  14
   9   1  -5 140.415 8.60198   4
   7  -1  -5 2137.42 55.1169   9
  -7  -1   5 2038.90 53.9450  12
  -7  -1   5 2096.32 57.4780  16
  -7  -1   5 2084.81 54.0611   8
  -7  -1   5 2113.32 54.6754   5
  -7  -1   5 2066.03 56.6286  11
   7  -1  -5 2089.79 54.3050   4
  -7   1   5 2102.35 54.3204   5
  -7   1   5 2054.88 54.0616  12
   7   1  -5 2042.96 52.8573  15
   7   1  -5 2037.13 53.1027  14
  -7   1   5 2078.01 54.2563   8
  -7   1   5 2040.12 53.9899  13
  -7   1   5 2098.52 57.0840  16
   7   1  -5 2073.66 54.6640   4
   7   1  -5 2114.47 54.3391   9
   5  -1  -5 549.697 16.2928   4
   5  -1  -5 568.046 16.9146  15
  -5  -1   5 571.496 19.0588  16
   5  -1  -5 536.830 14.4490  14
  -5  -1   5 561.188 16.1572   8
   5  -1  -5 547.665 17.2538   9
  -5  -1   5 553.283 16.8714   5
  -5   1   5 568.084 16.8923   5
   5   1  -5 562.995 17.0418   9
   5   1  -5 563.353 16.2083  15
   5   1  -5 541.154 16.6308   4
  -5   1   5 538.656 14.9671   1
  -5   1   5 544.199 16.2647  12
  -5   1   5 567.535 16.6525   8
   5   1  -5 562.503 15.6709  14
  -5   1   5 549.294 16.2293  13
  -5   1   5 578.210 18.9170  16
   3  -1  -5 3486.43 86.6156   6
  -3  -1   5 3536.70 88.0772  16
   3  -1  -5 3347.21 85.2350   7
   3  -1  -5 3522.18 86.8173   9
  -3  -1   5 3510.53 84.9997  12
   3  -1  -5 3424.26 85.1339   4
  -3  -1   5 3453.00 86.0591   5
  -3  -1   5 3474.39 84.4885  13
  -3  -1   5 3533.78 85.2401   8
   3  -1  -5 3489.56 86.6221  15
   3   1  -5 3536.21 86.2150  15
   3   1  -5 3479.92 86.7287   9
   3   1  -5 3449.26 85.7500   4
  -3   1   5 3587.21 85.9464   8
  -3   1   5 3570.70 87.1110  12
  -3   1   5 3525.85 85.7020  13
  -3   1   5 3611.46 88.5951  16
   3   1  -5 3413.01 86.4675   7
   1  -1  -5 1385.74 36.9529   9
   1  -1  -5 1373.50 36.4017   7
   1  -1  -5 1359.56 37.0519   6
   1  -1  -5 1391.10 36.4794   1
   1  -1  -5 1420.95 37.4996  15
  -1  -1   5 1512.10 37.9887  16
   1  -1  -5 1365.44 38.1334  11
   1   1  -5 1430.17 36.7465   6
   1   1  -5 1437.15 36.0658   1
   1   1  -5 1442.52 37.4469  15
   1   1  -5 1436.02 37.3307   9
   1   1  -5 1452.77 37.4756   7
  -1   1   5 1417.06 37.1023  13
   1   1  -5 1469.38 36.8286  11
  -1  -1  -5 2357.89 58.8730   1
  -1  -1  -5 2361.07 57.9373   6
  -1  -1  -5 2308.89 58.5805  15
  -1  -1  -5 2281.84 57.2562   9
   1  -1   5 2328.03 61.9628  10
  -1  -1  -5 2439.57 61.2037  11
  -1  -1  -5 2260.05 58.3515   7
  -1   1  -5 2218.81 58.6438   1
  -1   1  -5 2259.86 58.9837   7
  -1   1  -5 2263.43 58.7649  15
   1   1   5 2405.00 60.5821  10
  -1   1  -5 2138.16 56.8237   6
  -1   1  -5 2247.26 58.0266   9
  -1   1  -5 2093.95 59.0903  11
   3  -1   5 862.469 22.4259  12
  -3  -1  -5 811.133 28.5345  11
   3  -1   5 878.238 29.5144  10
  -3  -1  -5 938.539 25.7974   6
  -3  -1  -5 860.313 25.4639  15
   3  -1   5 850.942 23.6109   2
  -3  -1  -5 836.392 26.5679   1
   3   1   5 852.814 22.0667  12
   3   1   5 835.292 24.9639  14
   3   1   5 877.202 24.7057   4
  -3   1  -5 795.242 27.6125  11
  -3   1  -5 877.632 26.9649   1
   3   1   5 850.953 27.8400  10
  -3   1  -5 865.153 26.7944   7
  -5  -1  -5 688.014 24.7037   1
   5  -1   5 674.983 22.8601  14
   5  -1   5 683.782 22.5256   4
   5  -1   5 699.495 20.7488  12
  -5  -1  -5 666.066 27.1656  11
  -5   1  -5 698.357 24.7214   1
   5   1   5 695.621 22.2436   4
  -5   1  -5 659.959 26.6289  11
   5   1   5 694.366 20.5362  12
   5   1   5 675.163 22.7803  14
  -7  -1  -5 313.772 16.8296   1
   7  -1   5 335.383 13.7532  12
   7  -1   5 337.857 15.3520   4
  -7  -1  -5 304.410 18.9867  11
   7   1   5 330.397 14.7270   4
  -7   1  -5 313.427 19.0765  11
  -7   1  -5 313.569 16.4341   1
   7   1   5 318.179 13.4429  12
  12  -2  -5 156.708 10.6588   4
 -12  -2   5 164.866 11.0799   8
 -12  -2   5 161.229 10.9110   5
 -12  -2   5 167.658 14.6225  11
  12   2  -5 172.480 11.3331   4
 -12   2   5 183.593 16.1999  11
 -12   2   5 167.385 10.8825   8
 -10  -2   5 422.941 16.7933   8
  10  -2  -5 455.529 17.3477   9
 -10  -2   5 422.558 20.0343  11
 -10  -2   5 391.334 19.0581  16
  10  -2  -5 445.797 17.2947   4
 -10  -2   5 433.899 16.9922   5
  10   2  -5 455.586 17.6751   4
 -10   2   5 438.503 17.2518   8
 -10   2   5 445.431 22.0775  11
  -8  -2   5 486.506 16.7982   8
  -8  -2   5 517.229 19.7454  11
   8  -2  -5 519.370 18.0852   9
   8  -2  -5 506.408 17.1798   4
  -8  -2   5 497.033 17.6041   5
  -8  -2   5 504.060 20.3249  16
  -8   2   5 501.463 19.0274  16
  -8   2   5 500.780 17.3907  13
   8   2  -5 495.376 16.2656   9
   8   2  -5 500.188 17.5526   4
   8   2  -5 469.024 16.2460  14
  -8   2   5 507.246 17.3652   8
  -8   2   5 486.640 16.5956   5
   6  -2  -5 887.354 25.6622   9
  -6  -2   5 862.903 25.6521  11
  -6  -2   5 861.898 24.3442  12
  -6  -2   5 887.004 24.1938   8
  -6  -2   5 867.266 27.3238  16
  -6  -2   5 852.985 25.0154   5
   6  -2  -5 855.536 24.1226   4
  -6   2   5 856.345 24.5013   5
  -6   2   5 840.299 23.3616   1
  -6   2   5 874.092 24.8218   8
  -6   2   5 865.352 24.7159  13
   6   2  -5 791.253 23.1082  15
  -6   2   5 867.175 26.7322  16
   6   2  -5 859.258 23.9259  14
   6   2  -5 853.661 24.8523   4
  -6   2   5 858.459 24.4142  12
   6   2  -5 868.323 24.6062   9
   4  -2  -5 1209.18 30.9152   4
  -4  -2   5 1220.85 31.4479  12
   4  -2  -5 1220.89 32.3668   6
  -4  -2   5 1196.56 32.1135   5
  -4  -2   5 1172.21 30.8074   8
  -4  -2   5 1212.02 34.1897  16
   4  -2  -5 1154.83 32.5050   9
   4  -2  -5 1140.82 30.3668   7
   4  -2  -5 1212.01 32.5777  15
   4   2  -5 1196.85 32.3192   9
   4   2  -5 1199.01 31.8908   4
   4   2  -5 1185.25 31.2524  15
   4   2  -5 1179.13 32.7991   7
   4   2  -5 1197.14 31.2067  14
  -4   2   5 1211.38 31.8914   8
  -4   2   5 1260.36 31.4912  12
  -4   2   5 1211.74 32.0635  13
  -4   2   5 1231.59 34.2590  16
  -2  -2   5 951.461 24.3940   5
  -2  -2   5 932.012 23.3116  12
   2  -2  -5 903.131 25.2963   6
   2  -2  -5 835.758 23.2568   7
   2  -2  -5 901.083 25.3017  15
  -2  -2   5 956.224 23.1804   8
  -2  -2   5 952.107 25.8897  16
  -2  -2   5 934.797 22.1355  13
   2  -2  -5 885.201 24.9217   9
   2   2  -5 912.039 25.2681   9
   2   2  -5 897.583 24.8282  15
  -2   2   5 880.118 23.2880   3
  -2   2   5 885.744 23.0245  12
  -2   2   5 921.405 25.1048  13
   2   2  -5 944.192 25.6365   7
  -2   2   5 890.990 22.9674  12
   0  -2  -5 995.967 28.2635   1
   0  -2   5 1046.92 27.9178  16
   0  -2   5 1073.12 25.4845  12
   0  -2   5 1047.02 26.6871   5
   0  -2  -5 985.900 27.3632   7
   0  -2  -5 1054.41 30.5040  11
   0  -2   5 1051.64 25.3936  12
   0  -2  -5 1035.43 28.5476  15
   0  -2   5 1065.59 31.6552  10
   0  -2  -5 1040.92 28.4422   6
   0  -2  -5 1032.53 27.5472   9
   0   2  -5 1024.48 28.4285   9
   0   2  -5 1024.82 28.5384  15
   0   2  -5 994.614 27.7119  11
   0   2  -5 1030.22 28.9203   7
   0   2  -5 1011.93 27.8628   1
  -2  -2  -5 452.525 14.6507   6
  -2  -2  -5 482.091 16.2606   1
  -2  -2  -5 450.606 13.3293   9
  -2  -2  -5 488.789 18.4331  11
   2  -2   5 448.209 14.2749   2
   2  -2   5 444.540 18.4239  10
   2  -2   5 455.538 12.5239  12
  -2  -2  -5 472.141 15.2480  15
   2   2   5 469.373 11.4299  12
   2   2   5 455.872 16.1273  10
   2   2   5 453.631 13.9932   4
   2   2   5 440.410 14.3806  14
   2   2   5 459.868 11.4499  12
  -2   2  -5 432.695 15.9626   7
  -2   2  -5 448.170 15.8252   1
  -2   2  -5 407.075 15.7655  11
   4  -2   5 303.694 10.5592  12
  -4  -2  -5 299.567 16.0419  11
  -4  -2  -5 299.512 13.7002   1
   4  -2   5 288.380 15.6833  10
  -4   2  -5 303.120 13.6041   1
   4   2   5 316.127 10.3622  12
  -4   2  -5 295.771 14.7064  11
  -4   2  -5 294.002 13.6717   7
   4   2   5 317.622 12.6823  14
   4   2   5 321.364 12.0135   4
  -6  -2  -5 174.364 14.1382  11
   6  -2   5 182.145 9.09148  12
   6  -2   5 187.567 10.5528  14
  -6  -2  -5 168.745 11.6959   1
   6  -2   5 192.438 10.9854   4
  -6   2  -5 168.666 12.7857  11
   6   2   5 180.347 8.91978  12
   6   2   5 175.002 9.86708   4
  -6   2  -5 177.864 12.0474   1
   6   2   5 158.284 9.90816  14
  -8  -2  -5 51.2933 7.36586   1
   8  -2   5 84.0193 9.10933   4
   8  -2   5 68.9247 6.80285  12
  -8  -2  -5 49.1925 9.49535  11
  -8   2  -5 56.5118 8.78030  11
  -8   2  -5 65.8651 8.42255   1
   8   2   5 53.2650 6.14719  12
   8   2   5 63.4968 7.22754   4
 -11  -3   5 176.840 10.2196   8
 -11  -3   5 167.852 13.6213  11
  11  -3  -5 167.605 10.4700   4
 -11  -3   5 165.677 9.91201   5
 -11   3   5 176.234 10.8653   8
  11   3  -5 179.824 10.7881   4
 -11   3   5 179.606 15.5084  11
  -9  -3   5 929.864 32.0668  11
  -9  -3   5 942.328 28.7356   8
   9  -3  -5 970.241 30.2210   9
   9  -3  -5 949.425 28.9847   4
  -9  -3   5 944.666 29.6441   5
  -9  -3   5 938.806 33.0482  16
  -9   3   5 983.877 29.4415   8
  -9   3   5 966.646 34.0629  16
   9   3  -5 930.731 28.6340  14
   9   3  -5 975.652 29.8519   4
   7  -3  -5 644.381 19.9232   4
  -7  -3   5 651.187 21.9251  11
   7  -3  -5 726.636 22.1221   9
  -7  -3   5 655.026 19.8948   8
  -7  -3   5 659.690 21.1939   5
  -7  -3   5 651.250 23.7973  16
   7   3  -5 665.932 20.2410  14
  -7   3   5 647.959 19.9793   5
  -7   3   5 633.527 19.6535   1
   7   3  -5 667.644 19.7675   9
  -7   3   5 689.572 20.8967   8
  -7   3   5 646.499 22.1941  16
   7   3  -5 628.526 20.7322   4
  -7   3   5 631.300 20.0993  12
  -7   3   5 656.712 21.1191  13
   5  -3  -5 2796.89 69.4246   9
  -5  -3   5 2670.42 66.9042   8
  -5  -3   5 2666.22 70.9023  16
   5  -3  -5 2715.37 68.1759   6
  -5  -3   5 2658.22 68.4054   5
  -5  -3   5 2657.95 67.7465  11
   5  -3  -5 2636.93 66.7824   4
  -5  -3   5 2649.12 67.8543  12
   5   3  -5 2608.35 66.3049  15
   5   3  -5 2678.87 68.1692   4
  -5   3   5 2717.56 70.4178  16
   5   3  -5 2694.35 68.0802   9
   5   3  -5 2741.13 67.7723  14
  -5   3   5 2704.23 68.2502   8
  -5   3   5 2758.98 68.8209  13
  -5   3   5 2758.21 67.9343  12
  -5   3   5 2710.47 68.0967   5
   3  -3  -5 1249.73 34.2276   6
  -3  -3   5 1313.04 33.0426  12
   3  -3  -5 1214.04 34.0605   9
   3  -3  -5 1217.62 34.2249  15
  -3  -3   5 1340.95 35.5045  16
  -3  -3   5 1296.04 31.8461   8
  -3  -3   5 1315.14 33.5662   5
   3   3  -5 1311.64 35.0430   7
   3   3  -5 1288.62 31.8594   3
  -3   3   5 1311.56 32.9090  12
  -3   3   5 1268.96 33.8227   8
  -3   3   5 1217.00 31.8470   3
   3   3  -5 1228.30 32.9707  15
   3   3  -5 1270.38 34.1037   9
  -3   3   5 1260.31 34.3070  13
   1  -3  -5 3048.14 77.1186   9
   1  -3  -5 2918.05 75.6130   7
  -1  -3   5 3085.09 77.5741  16
  -1  -3   5 3132.32 76.2532   5
   1  -3  -5 3055.40 77.9790  15
   1  -3  -5 3118.51 78.2485   6
  -1  -3   5 3210.85 75.8942  12
   1  -3  -5 3124.54 80.3334  11
   1   3  -5 3202.93 78.9114   7
   1   3  -5 2996.21 76.4727   1
  -1   3   5 3187.28 75.2117  12
  -1   3   5 3118.61 75.5540  14
   1   3  -5 3037.77 77.9610   9
  -1   3   5 3178.53 78.4548  13
  -1   3   5 3198.94 76.7446   3
   1   3  -5 3101.65 77.6684  15
  -1   3   5 3164.34 75.1424  12
  -1  -3  -5 396.607 13.7250   6
  -1  -3  -5 424.114 14.5276   1
   1  -3   5 417.309 17.2810  10
  -1  -3  -5 392.851 13.4699  15
   1  -3   5 412.262 11.6933  12
   1  -3   5 407.374 13.4403   2
  -1  -3  -5 414.393 16.4430  11
  -1  -3  -5 390.834 12.0471   9
   1   3   5 396.881 10.5546  12
  -1   3  -5 406.568 13.8621   1
   1   3   5 411.788 12.7720  14
   1   3   5 397.371 11.8994   4
   1   3   5 403.656 10.4991  12
  -1   3  -5 408.648 14.6561   7
   1   3   5 417.141 13.6826  10
   3  -3   5 1713.26 42.6946  12
  -3  -3  -5 1680.29 44.1788  15
   3  -3   5 1553.35 50.0158  10
  -3  -3  -5 1659.13 44.3451   6
   3  -3   5 1609.75 43.6159   2
  -3  -3  -5 1738.43 50.1384  11
  -3  -3  -5 1751.22 46.5585   1
  -3   3  -5 1603.00 46.1826   7
   3   3   5 1724.76 41.9277  12
   3   3   5 1651.14 43.1601   4
   3   3   5 1714.49 44.4713  14
  -3   3  -5 1420.04 45.7132  11
  -3   3  -5 1619.84 46.1154   1
   5  -3   5 68.9648 6.19408   4
  -5  -3  -5 77.0999 8.67616  11
   5  -3   5 65.8805 5.34506  12
  -5  -3  -5 75.0423 7.58875   1
  -5   3  -5 70.5806 7.85203  11
   5   3   5 81.4532 6.15098   4
   5   3   5 69.9249 6.50487  14
  -5   3  -5 81.3867 8.03645   7
  -5   3  -5 76.2170 8.29593   1
   5   3   5 75.7418 5.30093  12
   7  -3   5 668.071 24.2081   4
   7  -3   5 649.895 22.5600  12
  -7  -3  -5 634.741 25.6746   1
  -7  -3  -5 664.761 30.5142  11
  -7   3  -5 597.802 27.5294  11
  -7   3  -5 659.078 26.5312   1
   7   3   5 666.237 22.2857  12
  12  -4  -5 -0.3815 2.66039   4
 -12  -4   5 -2.2116 2.59248   5
  12   4  -5 0.32457 3.71775   4
 -12   4   5 0.83272 2.39589   8
 -12   4   5 3.20552 6.47833  11
 -10  -4   5 42.4411 5.63849   8
 -10  -4   5 38.3435 5.20703   5
  10  -4  -5 44.2000 6.32109   9
 -10  -4   5 46.6705 7.53448  16
  10  -4  -5 43.7989 5.53942   4
  10   4  -5 43.8850 5.28763  14
 -10   4   5 53.8392 6.35661   8
  10   4  -5 46.0581 6.49894   4
  -8  -4   5 5.21318 2.92709   5
  -8  -4   5 3.27978 3.43812  16
   8  -4  -5 3.27877 2.99328   9
   8  -4  -5 2.47802 2.00338   4
  -8  -4   5 4.59425 1.93493   8
  -8   4   5 1.58434 2.15215   1
  -8   4   5 1.57746 1.73081   5
   8   4  -5 7.60052 2.55872  14
  -8   4   5 4.01727 2.19010  13
  -8   4   5 0.38985 2.17161  16
   8   4  -5 4.37942 2.75319   4
  -8   4   5 3.16703 2.14360   8
   6  -4  -5 48.7467 4.08372   6
   6  -4  -5 51.4606 5.24781   9
  -6  -4   5 56.9300 4.32961  12
  -6  -4   5 65.4583 4.82365   5
  -6  -4   5 61.0203 6.60447  16
  -6  -4   5 56.9077 3.80775   8
   6  -4  -5 57.4162 3.74513   4
  -6   4   5 55.6817 4.78599  13
  -6   4   5 61.3333 4.56400  12
  -6   4   5 58.7645 4.31896   5
  -6   4   5 53.2414 4.80793   8
   6   4  -5 51.7717 4.61881   4
  -6   4   5 59.2894 5.48385  16
   6   4  -5 55.2824 3.97405   9
   6   4  -5 54.7880 4.52406  14
   4  -4  -5 128.007 6.47519   6
  -4  -4   5 130.015 4.91953   8
   4  -4  -5 131.277 6.84397   9
  -4  -4   5 138.084 8.03807  16
  -4  -4   5 141.612 6.59820   5
  -4  -4   5 132.182 6.09541  12
   4   4  -5 137.657 6.35517  14
  -4   4   5 137.730 6.64055   8
   4   4  -5 133.370 5.02105   3
   4   4  -5 130.789 6.14228   9
   4   4  -5 135.686 6.39744   4
   4   4  -5 128.308 5.08035  15
  -4   4   5 126.342 4.82714   3
  -4   4   5 128.829 6.10180  12
   4   4  -5 125.391 7.17217   7
  -4   4   5 131.862 6.86838  13
  -2  -4   5 25.8927 3.20049  16
   2  -4  -5 27.1448 2.73500   9
   2  -4  -5 25.7386 3.13806  15
  -2  -4   5 25.6607 2.52442  12
   2  -4  -5 28.6637 3.47001   6
  -2  -4   5 26.3422 2.54199   5
   2   4  -5 24.7814 2.17411   3
   2   4  -5 29.1999 3.37229   9
   2   4  -5 28.7566 2.64535  15
  -2   4   5 32.2381 2.52381  12
   2   4  -5 28.1411 3.60347   7
  -2   4   5 28.4300 3.41041  13
  -2   4   5 26.0065 2.55226   3
   0  -4   5 354.061 11.3210  16
   0  -4   5 378.880 11.3609  12
   0  -4  -5 356.521 11.4344   9
   0  -4   5 377.342 12.8375   2
   0  -4  -5 367.967 12.5443  15
   0  -4   5 369.564 15.8891  10
   0  -4  -5 358.165 13.0951   6
   0  -4  -5 366.417 15.1660  11
   0   4  -5 377.880 13.9029   7
   0   4   5 371.780 11.1892  14
   0   4  -5 356.521 12.2679   1
   0   4   5 373.002 10.7892  12
   0   4   5 372.839 13.8166  13
   0   4   5 371.136 12.3269   3
   0   4   5 373.730 11.6755  10
  -2  -4  -5 129.053 6.55489  15
   2  -4   5 136.438 5.96865  12
  -2  -4  -5 150.232 7.67281   6
   2  -4   5 138.430 7.08800   2
  -2  -4  -5 132.571 7.98201   1
   2  -4   5 128.386 9.54607  10
  -2  -4  -5 126.353 9.49523  11
   2   4   5 131.181 5.48277  12
  -2   4  -5 135.512 7.72710   1
  -2   4  -5 137.224 8.22943   7
   2   4   5 138.463 6.78589  14
  -4  -4  -5 146.777 7.90902   6
   4  -4   5 160.243 7.68839  12
  -4  -4  -5 171.033 10.3985   1
   4  -4   5 148.541 7.91103   2
  -4  -4  -5 159.894 12.2770  11
   4   4   5 157.873 7.38863  12
   4   4   5 152.884 8.48994  14
  -4   4  -5 148.992 9.84914   7
  -4   4  -5 145.276 9.70260   1
  -6  -4  -5 175.626 11.8630   1
  -6  -4  -5 174.432 14.0212  11
   6  -4   5 184.921 9.84323  12
   6  -4   5 174.509 10.9320   4
  -6   4  -5 183.713 12.5225   1
   6   4   5 178.981 10.6365  14
   6   4   5 171.087 9.55255  12
  11  -5  -5 497.664 20.7192   9
 -11  -5   5 490.770 19.8675   5
 -11   5   5 492.576 25.9302  11
  11   5  -5 491.688 20.1958   4
 -11   5   5 513.541 19.8332   8
  -9  -5   5 223.382 14.3578  16
   9  -5  -5 236.755 12.7392   9
   9  -5  -5 208.414 10.8281   4
  -9  -5   5 216.777 10.4658   8
  -9  -5   5 219.909 11.6881   5
  -9   5   5 210.880 12.0031  13
  -9   5   5 229.354 11.4498   8
   9   5  -5 214.156 10.6364  14
   9   5  -5 218.494 11.5348   4
  -7  -5   5 825.317 29.1093  16
   7  -5  -5 852.385 27.0584   9
  -7  -5   5 833.599 24.1151   8
  -7  -5   5 830.128 26.1104   5
  -7   5   5 831.761 25.4876   8
  -7   5   5 826.438 26.6075  16
   7   5  -5 822.243 25.4290  14
  -7   5   5 799.934 24.2254   5
   7   5  -5 841.518 25.5058   4
  -7   5   5 849.382 26.8212  13
  -7   5   5 843.782 25.4208   1
  -5  -5   5 384.585 15.5999  16
   5  -5  -5 392.621 14.2326   2
   5  -5  -5 348.860 13.8511   9
  -5  -5   5 403.182 13.8103   5
  -5  -5   5 375.368 11.5325   8
  -5  -5   5 356.648 13.0714  12
   5  -5  -5 373.112 13.2219   6
  -5   5   5 386.552 13.5012   8
   5   5  -5 390.195 15.1332   7
  -5   5   5 369.821 13.1000  12
   5   5  -5 401.403 13.5984  14
  -5   5   5 375.569 14.3544  13
   5   5  -5 382.218 13.3566   4
   5   5  -5 384.252 12.7806   9
  -5   5   5 366.362 14.9422  16
   3  -5  -5 1526.86 41.7005   9
   3  -5  -5 1598.53 42.2086   6
  -3  -5   5 1539.42 40.9543  12
   3  -5  -5 1524.08 41.8344   2
   3  -5  -5 1597.61 42.3889  15
  -3  -5   5 1565.54 43.0723  16
  -3  -5   5 1566.06 41.3890   2
  -3  -5   5 1562.38 40.8678   5
   3   5  -5 1522.41 39.9226   3
  -3   5   5 1609.55 41.6261   8
  -3   5   5 1526.08 39.8421   3
  -3   5   5 1584.58 42.8781  13
  -3   5   5 1472.19 40.6845  12
   3   5  -5 1558.66 41.4778   9
   3   5  -5 1580.79 43.0103   7
   3   5  -5 1582.24 41.3387  14
  -1  -5   5 831.445 22.6379  12
  -1  -5   5 779.562 21.5256   5
   1  -5  -5 769.676 22.4435   9
  -1  -5   5 808.011 23.7700   2
  -1  -5   5 784.923 22.8863  16
   1  -5  -5 802.435 24.3316   6
   1  -5  -5 824.843 23.7845  15
  -1  -5   5 780.768 26.9414  10
  -1   5   5 809.397 22.7769   3
  -1   5   5 841.839 25.2408  13
   1   5  -5 780.406 22.3778   3
  -1   5   5 812.268 22.2172  12
   1   5  -5 808.606 22.6149   1
   1   5  -5 814.795 24.8145   7
   1  -5   5 1656.44 41.9585  12
  -1  -5  -5 1600.35 44.1610   6
   1  -5   5 1562.29 48.4365  10
   1  -5   5 1595.46 43.2166   2
  -1  -5  -5 1601.32 47.5502  11
  -1  -5  -5 1563.68 42.5310  15
   1   5   5 1610.86 41.2155  12
   1   5   5 1620.43 41.6749  14
  -1   5  -5 1552.70 43.3280   1
   1   5   5 1602.05 45.1889  13
   1   5   5 1572.16 42.9153   3
  -1   5  -5 1624.51 44.7279   7
   3  -5   5 706.264 21.3442  12
  -3  -5  -5 704.670 23.0990   6
  -3  -5  -5 661.806 23.7151   1
  -3  -5  -5 676.014 26.8959  11
   3  -5   5 730.687 22.5244   2
   3   5   5 697.467 20.7950  12
   3   5   5 707.616 23.0708   3
  -3   5  -5 702.522 24.0667   7
   3   5   5 682.488 21.6880  14
  -3   5  -5 724.960 24.1624   1
   5  -5   5 744.799 24.7188  12
   5  -5   5 749.283 25.9220   4
  -5  -5  -5 815.668 28.5614   1
  -5  -5  -5 843.408 32.6158  11
   5   5   5 840.137 24.9417  12
   5   5   5 778.137 25.7061  14
  -5   5  -5 734.056 27.9969   1
   5   5   5 799.817 26.7258   3
  -5   5  -5 770.469 28.0238   7
   7  -5   5 233.431 12.1557  12
   7  -5   5 219.942 12.9260   4
  -7  -5  -5 238.265 15.0421   1
  -7  -5  -5 231.849 16.9971  11
   7   5   5 220.631 11.8813  12
   7   5   5 220.793 13.3719   3
  -7   5  -5 249.301 15.5214   1
 -10  -6   5 9.12485 4.11789   5
  10  -6  -5 9.15165 4.38981   9
 -10   6   5 10.5353 3.83419   8
  10   6  -5 9.88906 4.10509   4
   8  -6  -5 37.6681 5.90993   9
  -8  -6   5 37.4313 6.88452  16
  -8  -6   5 37.4750 5.17671   5
   8   6  -5 33.1035 4.82435  14
  -8   6   5 32.9900 5.35893  13
  -8   6   5 36.7606 4.92851   8
   8   6  -5 44.7595 5.54916   4
  -8   6   5 55.6068 5.85900   1
  -6  -6   5 9.21354 2.57907   5
   6  -6  -5 10.9306 2.49269   6
  -6  -6   5 10.5292 2.32497   2
  -6  -6   5 7.34290 3.74780  16
   6  -6  -5 15.0985 3.67767   9
   6  -6  -5 9.37584 2.68606   2
   6   6  -5 9.95709 2.84481  14
  -6   6   5 8.76901 2.96537   8
   6   6  -5 13.8057 3.93127   7
  -6   6   5 9.71054 2.17075   5
  -6   6   5 7.68324 2.36002  12
   6   6  -5 9.66506 2.87820   4
  -6   6   5 8.92885 2.90008  16
  -6   6   5 12.7351 3.65401  13
   4  -6  -5 11.0014 2.69320   6
   4  -6  -5 20.7127 3.54389   2
   4  -6  -5 10.9818 2.83013   9
  -4  -6   5 19.4692 4.03531  16
  -4  -6   5 10.6775 2.57874   2
  -4  -6   5 15.7299 2.95835   5
  -4  -6   5 7.22096 1.93623  12
  -4   6   5 16.2176 3.63191  13
   4   6  -5 6.55752 2.79592   7
   4   6  -5 12.6464 2.52104   9
   4   6  -5 11.0817 2.61127  14
  -4   6   5 9.77724 2.32223   8
  -4   6   5 10.5143 2.37289  12
  -4   6   5 6.33483 1.76775   3
   4   6  -5 10.8758 2.07054   3
   2  -6  -5 225.123 10.3305   6
  -2  -6   5 226.478 9.24416  12
   2  -6  -5 224.986 9.21613   9
   2  -6  -5 223.792 9.66115   2
  -2  -6   5 249.035 10.1533  16
  -2  -6   5 225.989 9.65425   2
  -2  -6   5 252.168 8.69683   5
   2  -6  -5 221.012 9.63891  15
  -2   6   5 217.604 10.7664  13
  -2   6   5 229.807 9.05955  12
  -2   6   5 218.988 8.87870   3
   2   6  -5 238.707 10.8904   7
   2   6  -5 231.999 8.78582   3
   0  -6  -5 12.1270 2.43098  15
   0  -6   5 13.0102 3.20152   2
   0  -6  -5 19.3360 4.51816  11
   0  -6  -5 23.4192 3.88952   6
   0  -6   5 19.1062 2.89174  12
   0   6  -5 14.2656 2.66442   3
   0   6  -5 16.8936 3.26903   7
   0   6   5 16.0812 3.69903  13
   0   6  -5 9.70343 2.45246   1
   0   6   5 18.9562 3.14142   3
   0   6   5 19.9577 2.83773  12
   2  -6   5 221.733 9.46713  12
  -2  -6  -5 208.290 10.7352   6
   2  -6   5 210.160 13.6876  10
  -2  -6  -5 204.986 8.87472  15
   2  -6   5 224.214 10.5838   2
  -2  -6  -5 221.162 13.7004  11
  -2   6  -5 219.099 11.1270   7
   2   6   5 219.923 10.5421   3
   2   6   5 211.264 8.99024  12
   2   6   5 201.175 8.98753  14
  -2   6  -5 226.827 10.9654   1
   2   6   5 208.197 11.6999  13
   4  -6   5 89.2971 6.75818  12
  -4  -6  -5 107.040 7.99494   6
  -4  -6  -5 91.7540 9.94224  11
   4  -6   5 102.674 7.65961   2
  -4   6  -5 104.424 9.02709   7
   4   6   5 97.4810 6.60273  12
  -4   6  -5 94.6810 8.69160   1
   4   6   5 79.8734 7.83655   3
   4   6   5 86.3502 6.89626  14
  -6  -6  -5 60.2426 9.96546  11
   6  -6   5 47.2139 6.58574   4
   6  -6   5 65.6102 6.86171  12
   6   6   5 60.4073 6.11996  12
  -6   6  -5 59.8604 8.35358   1
  -6   6  -5 57.9143 8.14359   7
   6   6   5 54.8765 7.55879   3
  11  -7  -5 289.894 15.8703   9
 -11   7   5 322.651 14.2466   8
  11   7  -5 292.698 14.4420   4
  -9  -7   5 295.650 14.1262   5
  -9  -7   5 275.227 16.3744  16
   9  -7  -5 289.409 14.7392   9
  -9   7   5 302.218 13.4550   8
  -9   7   5 273.253 13.9289   1
  -9   7   5 259.013 14.0288  13
   9   7  -5 296.571 13.6256   4
   9   7  -5 269.419 13.4843  14
  -7  -7   5 1179.89 34.7973   5
   7  -7  -5 1149.20 35.0766   2
  -7  -7   5 1154.15 38.3564  16
   7  -7  -5 1143.42 35.9808   9
  -7   7   5 1111.11 33.5809   8
   7   7  -5 1139.80 33.6298   4
  -7   7   5 1131.08 35.8386  13
  -7   7   5 1123.63 34.4068   1
   7   7  -5 1166.61 34.3524  14
   7   7  -5 1138.99 36.9345   7
  -5  -7   5 747.373 22.9385   2
  -5  -7   5 749.439 26.7724  16
   5  -7  -5 789.544 23.8176   6
  -5  -7   5 751.810 23.8943   5
   5  -7  -5 776.229 25.2021   9
   5  -7  -5 742.360 24.8013   2
   5   7  -5 750.761 23.8821  14
  -5   7   5 755.922 22.0535   3
   5   7  -5 763.066 26.1348   7
  -5   7   5 772.421 25.6878  16
  -5   7   5 769.898 25.6500  13
  -5   7   5 782.008 23.8495  12
   5   7  -5 749.229 22.4753   3
  -5   7   5 777.415 23.9015   8
  -3  -7   5 1689.79 45.5013   2
  -3  -7   5 1629.62 46.7913  16
   3  -7  -5 1691.37 46.1374   2
  -3  -7   5 1644.64 44.2695   5
  -3  -7   5 1629.39 45.1810  12
   3  -7  -5 1749.16 45.9870   9
   3  -7  -5 1708.75 46.3822   6
   3  -7  -5 1654.89 46.2304  15
  -3   7   5 1661.55 44.1576   3
  -3   7   5 1672.52 47.5501  13
   3   7  -5 1634.58 44.2447   3
  -3   7   5 1721.93 45.3111  12
   3   7  -5 1686.86 47.5408   7
  -3   7   5 1665.68 45.3987   8
   1  -7  -5 505.034 18.4990   6
  -1  -7   5 483.623 20.7269  10
  -1  -7   5 522.880 17.9524   2
   1  -7  -5 508.207 17.1476  15
   1  -7  -5 520.239 16.1051   9
  -1  -7   5 502.172 16.9384  12
  -1   7   5 503.159 16.6294  12
   1   7  -5 548.536 16.8927   3
  -1   7   5 495.560 18.9078  13
   1   7  -5 494.493 16.6715   1
  -1   7   5 509.307 16.8613   3
   1   7  -5 501.703 18.6186   7
   1  -7   5 902.482 32.9878  10
   1  -7   5 907.991 26.8644  12
   1  -7   5 875.836 27.7837   2
  -1  -7  -5 891.632 26.2761  15
  -1  -7  -5 923.028 29.1921   6
  -1  -7  -5 912.739 32.3641  11
   1   7   5 939.379 27.8488   3
   1   7   5 885.535 29.7418  13
   1   7   5 917.793 26.7308  12
  -1   7  -5 889.513 29.0549   7
  -1   7  -5 886.220 28.0059   1
   3  -7   5 110.021 7.53793   2
   3  -7   5 97.4011 6.90529  12
  -3  -7  -5 98.5217 10.7555  11
  -3  -7  -5 98.0450 8.11192   6
   3   7   5 93.2501 6.59222  14
  -3   7  -5 107.123 8.49304   1
  -3   7  -5 102.811 8.12210   7
   3   7   5 106.861 8.54600  13
   3   7   5 93.1527 7.21712   3
   3   7   5 104.580 6.71521  12
  -5  -7  -5 374.251 16.8221   6
  -5  -7  -5 402.951 22.8077  11
   5  -7   5 402.823 16.2341   2
   5  -7   5 405.884 16.3999  12
   5  -7   5 392.370 16.5568   4
  -5   7  -5 401.910 19.0456   1
   5   7   5 368.847 15.5445  12
   5   7   5 411.357 17.2575   3
  -5   7  -5 392.275 18.4484   7
   5   7   5 358.278 15.6402  14
 -10  -8   5 59.2631 7.44149   5
  10  -8  -5 82.7016 9.74809   9
 -10   8   5 87.9595 7.65398   8
  10   8  -5 86.8074 7.86739   4
   8  -8  -5 398.273 17.3181   2
  -8  -8   5 404.346 20.0584  16
   8  -8  -5 416.360 18.3059   9
  -8  -8   5 408.376 17.2872   5
   8   8  -5 407.718 16.9964  14
  -8   8   5 402.227 17.5881   1
  -8   8   5 382.389 17.7483  13
   8   8  -5 414.766 19.0925   7
   8   8  -5 410.314 16.3865   4
  -8   8   5 403.335 16.1050   8
  -6  -8   5 287.378 12.8147   5
  -6  -8   5 273.144 15.4631  16
   6  -8  -5 299.785 14.2920   9
   6  -8  -5 303.446 14.1849   2
  -6   8   5 298.366 14.6579  13
   6   8  -5 285.397 14.8047   7
   6   8  -5 285.375 12.9424  14
  -6   8   5 308.619 12.9083   8
   4  -8  -5 248.053 11.4470   9
  -4  -8   5 222.720 10.6816  12
   4  -8  -5 232.769 11.5391   2
  -4  -8   5 235.353 10.1952   5
  -4  -8   5 231.283 12.3964  16
   4  -8  -5 243.234 11.0517   6
  -4  -8   5 233.756 10.6890   2
  -4   8   5 239.535 10.7379  12
  -4   8   5 233.504 10.7102   8
   4   8  -5 241.976 10.1771   3
   4   8  -5 225.497 12.1876   7
  -4   8   5 237.020 12.5876  13
   4   8  -5 227.134 10.7473  14
  -4   8   5 234.540 9.76937   3
   2  -8  -5 616.386 21.3011   6
   2  -8  -5 587.981 19.9618  15
   2  -8  -5 598.190 20.3018   2
  -2  -8   5 606.821 20.5300   2
   2  -8  -5 594.095 19.2270   9
  -2  -8   5 578.113 19.7343  12
  -2  -8   5 571.688 23.1183  10
  -2   8   5 604.190 19.4026   3
   2   8  -5 582.903 21.3946   7
  -2   8   5 590.614 19.6994  12
   2   8  -5 610.233 19.4139   3
  -2   8   5 601.650 21.9502  13
   0  -8  -5 76.7929 5.45841  15
   0  -8   5 80.9847 6.15551  12
   0  -8   5 72.5271 8.05102  10
   0  -8   5 78.8715 7.09284   2
   0  -8  -5 75.0790 6.58001   6
   0   8  -5 90.2480 6.35416   3
   0   8  -5 85.6730 6.99212   7
   0   8  -5 85.4745 6.32941   1
   0   8   5 77.4615 6.00465   3
   0   8   5 82.1142 7.74917  13
   0   8   5 74.8350 5.79404  12
  -2  -8  -5 242.674 12.7810   6
   2  -8   5 267.620 11.9992  12
  -2  -8  -5 245.437 15.8864  11
   2  -8   5 241.360 12.5738   2
   2   8   5 251.348 11.5556  12
  -2   8  -5 262.915 13.6460   7
   2   8   5 245.668 12.3135   3
  -2   8  -5 270.324 13.1899   1
   2   8   5 255.625 13.9985  13
  -4  -8  -5 96.0011 8.11776   6
   4  -8   5 104.493 8.84377   2
   4  -8   5 94.9062 7.67646  12
  -4  -8  -5 103.303 12.6779  11
   4   8   5 102.888 7.59861  12
  -4   8  -5 93.7760 8.39130   7
   4   8   5 91.6577 8.99248   3
  -4   8  -5 99.0963 9.45934   1
   4   8   5 87.1166 8.90243  13
   6  -8   5 14.9404 3.92967   4
  -6  -8  -5 11.0074 7.44498  11
   6  -8   5 14.2440 3.98062  12
   6   8   5 10.4618 3.89868   3
  -6   8  -5 14.7526 5.41521   7
  -6   8  -5 16.3855 5.45887   1
   6   8   5 9.93307 3.78122  12
  -9  -9   5 817.213 28.1108   5
   9  -9  -5 816.227 29.3644   9
  -9   9   5 620.103 24.6269   8
   9   9  -5 806.539 30.4290   7
  -9   9   5 762.440 27.5006   1
  -7  -9   5 0.92921 4.08886  16
   7  -9  -5 6.23930 3.97695   9
  -7  -9   5 2.40014 3.42478   5
   7  -9  -5 5.82211 4.02274   2
   7   9  -5 13.8028 4.94129   7
  -7   9   5 5.35363 4.14257  13
   7   9  -5 4.42453 3.04773  14
  -7   9   5 8.52509 3.44364   8
   5  -9  -5 1038.60 32.7600   9
  -5  -9   5 1006.61 30.4201   2
   5  -9  -5 1058.33 32.8616   2
  -5  -9   5 989.256 30.8881   5
   5  -9  -5 1045.45 31.3435   6
  -5  -9   5 995.734 34.1141  16
  -5   9   5 968.151 29.5321   3
  -5   9   5 1045.83 31.0678   8
  -5   9   5 1040.41 34.1797  13
   5   9  -5 1024.23 30.2699   3
   5   9  -5 1041.45 33.9973   7
   5   9  -5 1058.80 31.8739  14
   3  -9  -5 8.79221 3.41624   2
   3  -9  -5 12.6693 3.31688   6
   3  -9  -5 9.00476 2.95720   9
   3  -9  -5 16.2548 3.55084  15
  -3  -9   5 11.9663 3.06603   2
  -3   9   5 14.9446 3.86201  13
  -3   9   5 12.4481 3.18171  12
   3   9  -5 10.4350 2.91709   3
  -3   9   5 12.0764 3.37036   8
  -3   9   5 9.72391 3.13674   3
   3   9  -5 11.9889 4.11760   7
  -1  -9   5 1382.44 41.1982   2
   1  -9  -5 1430.16 42.5531   6
   1  -9  -5 1478.18 40.6049   2
  -1  -9   5 1349.51 40.2624  12
  -1   9   5 1404.17 40.4267  12
   1   9  -5 1396.68 40.0315   3
   1   9  -5 1417.41 42.5666   7
  -1   9   5 1461.60 40.5498   3
  -1   9   5 1403.64 43.4231  13
   1  -9   5 127.140 9.51610   2
  -1  -9  -5 124.626 9.79501   6
   1  -9   5 143.496 8.88363  12
   1   9   5 140.333 10.0002  13
  -1   9  -5 150.420 8.86000   3
  -1   9  -5 137.640 10.0312   7
   1   9   5 136.700 9.23436   3
  -1   9  -5 153.849 9.55783   1
   1   9   5 141.277 8.67231  12
  -3  -9  -5 1091.46 36.2942   6
   3  -9   5 1081.52 35.0747   2
  -3  -9  -5 1082.36 40.8502  11
   3  -9   5 1045.35 33.7567  12
   3   9   5 1121.62 34.9386   3
  -3   9  -5 1133.52 36.2051   7
   3   9   5 1042.73 36.8890  13
   3   9   5 1126.51 34.0837  12
  -3   9  -5 1149.02 36.5719   1
   5  -9   5 155.181 10.3574  12
   5  -9   5 149.300 9.79533   2
  -5  -9  -5 162.658 15.4940  11
   5  -9   5 151.746 10.2611   4
  -5  -9  -5 155.529 11.2459   6
  -5   9  -5 165.377 12.0059   7
  -5   9  -5 169.044 12.5909   1
   5   9   5 166.011 10.3363  12
   5   9   5 156.958 11.5431   3
   8 -10  -5 21.0941 5.55868   9
   8 -10  -5 27.7863 6.08850   2
  -8 -10   5 29.2585 5.78711   5
   8  10  -5 28.9169 6.70573   7
  -8  10   5 20.3681 6.01255   1
   6 -10  -5 -0.0164 3.01830   9
  -6 -10   5 4.50763 3.36116   5
   6 -10  -5 0.10856 2.66026   2
   6  10  -5 2.37350 2.06127  14
  -6  10   5 -0.3727 3.78983  13
   6  10  -5 1.20964 3.56410   7
  -6  10   5 -1.5365 1.85412   8
   4 -10  -5 0.04797 2.76875   2
   4 -10  -5 0.87673 2.47732   9
  -4 -10   5 -3.2689 2.35331   2
  -4 -10   5 -2.9236 2.04746   5
   4 -10  -5 2.44497 2.12413   6
  -4  10   5 -3.8598 2.87787  13
   4  10  -5 0.94803 2.29467   3
  -4  10   5 0.28388 2.51813   3
   4  10  -5 2.62512 2.72443   7
  -4  10   5 -0.9811 2.59913   8
   2 -10  -5 65.3923 6.04376  15
   2 -10  -5 74.7631 7.90286   6
  -2 -10   5 63.9439 6.66839   2
   2 -10  -5 65.8296 6.18041   2
   2  10  -5 68.3461 5.78458   3
   2  10  -5 75.2503 8.40360   7
  -2  10   5 75.2006 7.03001   3
  -2  10   5 67.4488 6.46904  12
  -2  10   5 59.1681 6.26494   8
  -2  10   5 78.7674 8.23693  13
   0 -10  -5 9.03337 4.50831   6
   0 -10   5 8.06492 4.09937   2
   0 -10   5 9.14199 3.29573  12
   0  10   5 7.12854 3.10820  12
   0  10   5 5.48619 3.04489   3
   0  10  -5 10.1907 3.43441   7
   0  10   5 8.83370 4.52943  13
   0  10  -5 12.2925 3.67039   3
   2 -10   5 54.3039 6.28317  12
   2 -10   5 49.4435 7.13489   2
  -2 -10  -5 45.7512 6.86782   6
  -2  10  -5 41.1483 6.24984   1
   2  10   5 58.0028 6.72082   3
  -2  10  -5 36.0476 6.09966   7
   2  10   5 48.9238 5.93251  12
   4 -10   5 5.32392 3.23123   2
  -4 -10  -5 1.95336 3.33523   6
  -4 -10  -5 4.50485 5.99503  11
   4 -10   5 4.19822 3.14095  12
  -4  10  -5 2.20635 3.98764   1
  -4  10  -5 7.69657 4.11933   7
   4  10   5 7.65260 3.32394  12
   4  10   5 5.23815 4.49240   3
   7 -11  -5 339.469 16.4383   9
  -7 -11   5 325.294 17.0759   6
   7 -11  -5 307.036 16.0716   2
  -7 -11   5 302.940 15.0406   5
  -7  11   5 352.027 16.8295   1
   7  11  -5 324.379 17.3338   7
   5 -11  -5 636.847 23.5402   9
  -5 -11   5 632.525 21.7940   5
   5 -11  -5 631.687 23.8474   2
  -5  11   5 552.897 21.2812   8
   3 -11  -5 474.779 19.4155   2
   3 -11  -5 472.210 19.5928   6
  -3 -11   5 446.540 18.5914   2
  -3  11   5 468.479 18.0003   8
   3  11  -5 472.300 19.9512   7
  -3  11   5 483.393 18.1609   3
  -3  11   5 451.378 20.4364  13
   3  11  -5 470.852 18.0843   3
  -1 -11   5 386.335 16.9883   2
   1 -11  -5 376.099 17.8451   6
  -1  11   5 374.455 18.6964  13
  -1  11   5 373.744 15.9267   8
   1  11  -5 382.083 15.9367   3
  -1  11   5 371.013 15.8893   3
  -1  11   5 385.248 16.5330  12
  -1 -11  -5 270.022 15.3886   6
   1 -11   5 252.272 13.9233   2
   1  11   5 268.179 13.8890   3
   1  11   5 259.676 13.3062  12
  -1  11  -5 270.746 14.0737   7
   3 -11   5 95.8930 9.75609   2
  -3 -11  -5 69.7682 8.47505   6
  -3  11  -5 75.8821 8.72057   1
   3  11   5 77.0693 8.79647   3
   3  11   5 80.6657 7.61503  12
   6 -12  -5 84.3252 8.68106   2
  -6 -12   5 77.1895 9.35060   6
   6 -12  -5 85.4924 7.98093   9
   6  12  -5 68.2101 8.31409   7
  -4 -12   5 135.135 10.8603   6
   4 -12  -5 136.308 10.5385   2
  -4  12   5 127.548 9.21574   3
   4  12  -5 142.369 11.1238   7
   4  12  -5 140.434 9.25904   3
   2 -12  -5 18.9042 5.22690   6
  -2 -12   5 23.9922 5.42921   2
   2 -12  -5 17.9661 3.76504   2
  -2  12   5 16.9808 4.12089   8
   2  12  -5 17.3269 4.42408   7
  -2  12   5 14.9660 3.88120   3
   2  12  -5 20.9339 4.43505   3
   0 -12  -5 187.454 12.4817   6
   0 -12   5 195.127 12.6038   2
   0  12  -5 210.759 14.0817   7
   0  12  -5 187.417 11.2340   3
   0  12   5 193.523 11.5684  12
  -2 -12  -5 16.5334 5.65165   6
   2 -12   5 20.1107 5.61034   2
   2  12   5 28.1067 4.97155  12
   2  12   5 20.2573 4.65432   3
  -3 -13   5 352.457 16.6769   2
   3 -13  -5 409.598 18.4570   6
   3 -13  -5 404.014 17.6357   2
   3  13  -5 369.106 16.0450   3
  -1 -13   5 32.5200 5.37123   2
   1 -13  -5 31.5560 6.55114   6
  -1  13   5 22.0870 5.48570   3
   1  13  -5 26.5667 4.52230   3
 -12   0   6 9.54016 6.38111  11
  12   0  -6 4.78899 3.66358   4
 -12   0   6 3.08038 3.99425   8
 -10   0   6 1433.70 41.0827   8
  10   0  -6 1380.07 40.3161   9
 -10   0   6 1394.42 44.4118  16
 -10   0   6 1420.71 45.7313  11
  10   0  -6 1409.05 41.4517   4
  -8   0   6 127.828 7.44944   5
  -8   0   6 125.320 9.20004  16
  -8   0   6 132.302 7.61631   8
  -8   0   6 118.169 6.79126  12
   8   0  -6 121.863 6.54798  15
   8   0  -6 131.633 7.51494   4
   8   0  -6 127.083 7.60546   9
  -6   0   6 3769.95 95.2236  12
   6   0  -6 3826.09 95.5473   4
  -6   0   6 3892.51 96.1365   5
  -6   0   6 3752.67 94.0465  13
  -6   0   6 3929.22 95.4072   8
   6   0  -6 3879.85 96.6089   9
  -6   0   6 3839.81 98.9310  16
   6   0  -6 3824.12 93.3866  14
   6   0  -6 3801.44 95.4943  15
   4   0  -6 24.5059 2.47235   7
   4   0  -6 23.8722 2.51482   4
  -4   0   6 28.3082 2.79951   8
   4   0  -6 23.3328 3.07373   9
  -4   0   6 23.4674 2.19965  12
  -4   0   6 29.6697 4.07136  16
   4   0  -6 24.9475 2.96684  15
  -4   0   6 30.1884 2.84312   5
  -2   0   6 7600.97 185.020  12
   2   0  -6 7601.79 184.705   6
   2   0  -6 7508.55 190.371   7
   2   0  -6 7433.27 185.591   1
  -2   0   6 7582.94 184.400  12
  -2   0   6 7986.63 193.158  16
   2   0  -6 7554.21 184.831   9
   2   0  -6 7622.14 184.946  15
  -2   0   6 7533.78 191.333  13
   0   0  -6 160.350 7.23255   9
   0   0  -6 171.032 8.30319  11
   0   0  -6 179.317 8.01808  15
   0   0  -6 175.429 7.28218   6
   0   0  -6 174.051 7.36459   1
   0   0   6 175.238 9.33961  10
   0   0  -6 169.583 7.63499   7
  -2   0  -6 4460.53 112.006   6
  -2   0  -6 4550.29 113.071   7
  -2   0  -6 4406.04 115.179  11
  -2   0  -6 4496.56 112.499  15
  -2   0  -6 4490.17 113.126   1
   2   0   6 4491.57 115.898  10
  -4   0  -6 58.3294 7.84490  11
   4   0   6 69.9558 4.28778  12
   4   0   6 68.9154 6.43835   4
  -4   0  -6 54.7964 6.64861   1
   4   0   6 68.8849 6.16915  14
   4   0   6 64.8759 8.45420  10
  -6   0  -6 1088.06 37.2454   1
   6   0   6 1035.74 37.6974  14
   6   0   6 1145.23 32.5334  12
   6   0   6 1151.18 34.6561   4
  -6   0  -6 1152.72 41.4934  11
  11  -1  -6 6.85875 2.68825   4
 -11  -1   6 10.9922 3.66317   5
 -11  -1   6 9.68380 4.42757  16
 -11  -1   6 9.55072 4.07113   8
 -11  -1   6 13.0970 5.94400  11
  11   1  -6 10.2016 4.20414   4
 -11   1   6 10.2521 4.28343   8
 -11   1   6 10.7955 6.05998  11
 -11   1   6 10.1731 3.18492   5
   9  -1  -6 173.804 9.36301   4
  -9  -1   6 167.814 11.4691  16
  -9  -1   6 179.437 9.42965   8
   9  -1  -6 166.973 9.39791   9
   9  -1  -6 167.306 8.65341  15
  -9  -1   6 159.980 8.80446   5
  -9  -1   6 161.114 11.1312  11
  -9   1   6 163.793 8.90674   5
   9   1  -6 173.877 9.26694   4
  -9   1   6 170.664 10.9103  16
  -9   1   6 167.488 9.50803   8
   9   1  -6 173.767 8.90371   9
   7  -1  -6 327.581 12.1820  15
  -7  -1   6 331.993 12.6573   5
  -7  -1   6 328.867 11.9788   8
   7  -1  -6 327.975 12.8001   9
  -7  -1   6 304.219 11.7596  12
  -7  -1   6 340.877 15.0330  16
   7  -1  -6 326.338 11.9784   4
   7   1  -6 332.313 12.5458   9
   7   1  -6 327.237 11.0418  14
   7   1  -6 311.423 11.1604  15
  -7   1   6 319.148 11.9147  12
  -7   1   6 316.301 12.2305   5
   7   1  -6 330.020 12.5063   4
  -7   1   6 335.230 12.3043   8
  -7   1   6 329.574 11.6952  13
  -7   1   6 317.874 14.3424  16
  -5  -1   6 26.6637 3.04785   5
   5  -1  -6 28.3964 3.44141   9
   5  -1  -6 25.9042 2.83170   4
  -5  -1   6 28.4733 2.91211   8
   5  -1  -6 25.0689 3.01218  15
  -5  -1   6 26.2120 2.83070  12
   5  -1  -6 24.7722 2.45408   7
  -5  -1   6 25.6781 4.13853  16
   5   1  -6 24.8928 3.26718   7
   5   1  -6 23.3190 2.74559   4
  -5   1   6 30.0400 3.31507   5
  -5   1   6 30.4106 3.17399   8
   5   1  -6 30.9922 3.14329   9
  -5   1   6 30.2122 2.82250  12
  -5   1   6 25.9161 4.14751  16
   5   1  -6 25.6333 2.21034  14
   5   1  -6 22.4148 2.68311  15
  -5   1   6 25.4037 2.55817  13
   3  -1  -6 979.502 27.5957   6
  -3  -1   6 958.662 24.7226  13
  -3  -1   6 1005.41 25.5020  12
  -3  -1   6 1010.91 27.0807   5
  -3  -1   6 1007.00 29.0710  16
  -3  -1   6 1007.28 26.0206   8
   3  -1  -6 979.943 27.6654   9
   3  -1  -6 936.634 26.1259   7
   3  -1  -6 977.464 27.6661  15
  -3   1   6 1014.45 25.3968  12
  -3   1   6 979.336 26.5922   8
  -3   1   6 1008.09 29.6000  16
   3   1  -6 982.988 27.3293  15
  -3   1   6 1001.61 26.5306  13
   3   1  -6 991.742 27.7963   9
   3   1  -6 953.334 27.3023   7
   1  -1  -6 41.2579 3.85603  11
   1  -1  -6 47.6513 3.67398   9
   1  -1  -6 47.2469 3.75352  15
   1  -1  -6 49.2736 3.40552   7
   1  -1  -6 47.1485 3.81895   6
  -1  -1   6 55.3772 4.36349  16
   1  -1  -6 52.5093 3.50653   1
   1   1  -6 45.7217 3.88285  15
   1   1  -6 45.0418 2.99028   1
   1   1  -6 49.4358 3.92120   7
   1   1  -6 47.4245 3.83675   9
   1   1  -6 48.0105 3.49363   6
  -1   1   6 44.6380 3.63584  13
   1   1  -6 47.9552 3.60930  11
  -1  -1  -6 228.980 9.63610  15
  -1  -1  -6 241.791 9.20323   6
  -1  -1  -6 232.437 9.57632   7
   1  -1   6 226.226 11.9509  10
  -1  -1  -6 241.029 11.4232  11
  -1  -1  -6 235.030 9.88882   1
  -1  -1  -6 239.840 8.79893   9
   1   1   6 237.445 11.1884  10
  -1   1  -6 220.422 9.69865  15
  -1   1  -6 214.838 9.56848   1
  -1   1  -6 211.371 8.13852   6
  -1   1  -6 226.996 10.1713   7
  -1   1  -6 213.447 10.1334  11
  -1   1  -6 231.330 9.33965   9
  -3  -1  -6 208.797 10.9111   1
  -3  -1  -6 217.120 10.1690  15
   3  -1   6 202.830 12.6274  10
  -3  -1  -6 221.547 12.8591  11
   3  -1   6 213.154 7.28798  12
  -3   1  -6 200.095 11.5677  11
   3   1   6 223.289 9.98531  14
   3   1   6 219.432 9.50563   4
  -3   1  -6 231.028 11.4118   7
   3   1   6 213.711 6.92436  12
  -3   1  -6 219.174 11.2305   1
   3   1   6 191.368 11.3768  10
  -5  -1  -6 7.44063 3.26958   1
  -5  -1  -6 1.16496 3.88499  11
   5  -1   6 2.05096 3.07106  14
   5  -1   6 6.99473 2.28865  12
   5  -1   6 8.34478 3.66659   4
   5   1   6 4.12952 3.30208  14
  -5   1  -6 10.4824 4.37179   1
   5   1   6 7.56053 3.32694   4
  -5   1  -6 9.71701 4.23642  11
   5   1   6 6.23458 2.37237  12
  -7  -1  -6 91.8620 12.1748  11
   7  -1   6 103.776 8.28041   4
   7  -1   6 95.7193 7.32191  12
  -7  -1  -6 92.5774 10.1846   1
  -7   1  -6 116.872 12.2266  11
   7   1   6 96.1173 7.22431  12
  -7   1  -6 116.375 10.8876   1
   7   1   6 92.5283 8.33354   4
 -12  -2   6 390.660 17.0146   8
 -12  -2   6 358.626 16.2928   5
  12  -2  -6 387.505 16.9437   4
  12   2  -6 406.872 18.0566   4
 -12   2   6 421.377 17.6702   8
 -12   2   6 390.869 21.8210  11
 -10  -2   6 677.067 22.5104   8
  10  -2  -6 683.455 23.4206   9
  10  -2  -6 634.692 22.3826   4
 -10  -2   6 641.480 25.9527  11
 -10  -2   6 657.715 26.2505  16
 -10  -2   6 672.359 22.9241   5
 -10   2   6 663.774 22.9497   8
 -10   2   6 679.405 27.7898  11
 -10   2   6 646.236 21.8312   5
 -10   2   6 625.242 24.6276  16
  10   2  -6 665.505 23.5144   4
  -8  -2   6 1235.91 34.2679   8
   8  -2  -6 1248.19 35.9855   9
  -8  -2   6 1202.01 35.1117   5
  -8  -2   6 1184.75 36.5280  11
  -8  -2   6 1236.05 38.8298  16
   8  -2  -6 1196.40 34.3686   4
  -8   2   6 1213.34 34.6289   5
  -8   2   6 1174.31 34.3022  12
  -8   2   6 1209.19 37.4533  16
   8   2  -6 1217.29 35.1656   4
   8   2  -6 1246.55 34.4261   9
  -8   2   6 1248.48 35.0286   8
   8   2  -6 1169.25 33.4265  14
  -8   2   6 1215.24 34.6581  13
   6  -2  -6 1853.55 49.6046   9
   6  -2  -6 1829.15 47.6353   4
  -6  -2   6 1824.79 48.8997   5
  -6  -2   6 1890.58 52.0032  16
  -6  -2   6 1793.13 47.4253   8
   6  -2  -6 1839.69 49.1569  15
  -6  -2   6 1844.76 48.1461  12
  -6   2   6 1836.33 48.5260   5
  -6   2   6 1904.89 51.6442  16
   6   2  -6 1773.80 48.3432   4
  -6   2   6 1869.97 48.0909  12
  -6   2   6 1840.95 48.2520  13
  -6   2   6 1921.63 48.7021   8
   6   2  -6 1783.48 47.0124  15
   6   2  -6 1797.17 47.2857  14
   6   2  -6 1859.51 48.8820   9
  -4  -2   6 1453.98 37.5126   8
   4  -2  -6 1465.06 39.5434   6
   4  -2  -6 1349.08 37.0458   7
   4  -2  -6 1450.36 37.5310   4
  -4  -2   6 1484.17 38.0879  12
  -4  -2   6 1518.65 41.4265  16
   4  -2  -6 1477.15 39.7961  15
   4  -2  -6 1461.09 39.7644   9
  -4  -2   6 1535.43 39.2079   5
  -4   2   6 1465.08 41.5027  16
  -4   2   6 1511.88 38.9787  13
   4   2  -6 1421.04 39.7979   7
  -4   2   6 1533.43 38.0799  12
  -4   2   6 1507.45 38.9881   8
   4   2  -6 1497.59 39.7310   9
   4   2  -6 1431.89 38.7471   4
   4   2  -6 1500.47 38.6972  15
   2  -2  -6 1371.61 38.0882  15
  -2  -2   6 1484.43 36.9131   5
   2  -2  -6 1379.13 37.6495   9
  -2  -2   6 1427.47 35.3735   8
  -2  -2   6 1495.25 38.7533  16
   2  -2  -6 1393.91 38.0802   6
   2  -2  -6 1309.92 35.8579   7
  -2   2   6 1428.21 34.9641  12
  -2   2   6 1422.66 37.7905  13
   2   2  -6 1405.85 37.6653  15
  -2   2   6 1440.93 34.9371  12
   2   2  -6 1439.37 38.3939   7
   2   2  -6 1422.18 38.1674   9
  -2   2   6 1370.88 35.6761   3
   0  -2   6 699.440 19.2195   5
   0  -2   6 690.037 20.5663  16
   0  -2  -6 717.577 23.4231  11
   0  -2  -6 673.449 20.9855   1
   0  -2  -6 709.080 20.2787   7
   0  -2  -6 685.379 20.0772   9
   0  -2  -6 688.442 21.0382   6
   0  -2   6 692.492 24.3031  10
   0  -2  -6 706.477 21.3733  15
   0  -2   6 693.012 17.6171  12
   0  -2   6 697.662 17.5569  12
   0   2  -6 670.020 20.4731   1
   0   2   6 702.175 22.1461  10
   0   2  -6 714.678 21.1650   9
   0   2  -6 716.524 21.5228  15
   0   2  -6 691.709 21.7902   7
   0   2   6 695.470 19.5490  14
   2  -2   6 386.037 13.6629   2
  -2  -2  -6 428.627 14.9032  15
   2  -2   6 467.728 12.0556  12
  -2  -2  -6 407.424 14.2384   6
  -2  -2  -6 454.616 18.3609  11
   2  -2   6 396.014 18.3170  10
  -2  -2  -6 418.827 15.5425   1
   2   2   6 410.774 10.5573  12
   2   2   6 410.756 13.5282   4
  -2   2  -6 395.431 15.2928   1
   2   2   6 431.731 18.9242  10
  -2   2  -6 340.863 15.3627  11
   2   2   6 423.258 14.1316  14
  -2   2  -6 403.351 15.9384   7
   4  -2   6 491.039 15.2105  12
  -4  -2  -6 481.836 22.3537  11
  -4  -2  -6 484.268 19.4358   1
  -4   2  -6 478.710 19.1862   7
  -4   2  -6 452.928 20.0282  11
   4   2   6 477.377 14.7254  12
  -4   2  -6 477.721 19.3301   1
   4   2   6 480.930 16.7591   4
   4   2   6 465.302 17.0883  14
  -6  -2  -6 205.734 15.2323  11
   6  -2   6 208.487 10.5270  12
   6  -2   6 213.186 12.1968   4
  -6  -2  -6 220.245 13.5609   1
  -6   2  -6 183.314 13.9125  11
  -6   2  -6 217.066 13.7857   1
   6   2   6 198.532 10.8903   4
   6   2   6 219.088 9.92145  12
  11  -3  -6 65.7588 7.52118   9
  11  -3  -6 55.4403 6.06653   4
 -11  -3   6 59.1457 7.00381   5
 -11  -3   6 56.0506 6.61696   8
  11   3  -6 68.8125 7.91791   4
 -11   3   6 69.8438 10.7518  11
 -11   3   6 65.8567 7.45298   8
  -9  -3   6 14.1903 4.77836  16
   9  -3  -6 15.2085 4.09659   9
  -9  -3   6 9.87350 2.93284   5
  -9  -3   6 13.9032 2.90197   8
   9  -3  -6 15.1697 3.35133   4
   9   3  -6 15.3748 3.88121   4
  -9   3   6 18.4902 4.08061   8
  -9   3   6 15.0776 4.09438  16
  -9   3   6 13.4334 3.59444  13
  -9   3   6 13.5410 3.06546   5
   9   3  -6 12.6179 2.88369  14
  -7  -3   6 12.7434 2.69962   5
  -7  -3   6 10.3697 2.40904  12
  -7  -3   6 14.9778 4.30428  16
   7  -3  -6 12.6696 3.34353   9
   7  -3  -6 15.9064 2.64998   4
  -7  -3   6 13.3264 2.65589   8
  -7   3   6 12.0228 2.71845   8
  -7   3   6 11.6586 3.56028  16
   7   3  -6 11.4148 2.42404  14
  -7   3   6 9.09490 2.48515   5
   7   3  -6 8.76878 2.75078   4
  -7   3   6 15.8053 3.16398  13
   7   3  -6 9.86979 2.32917   9
  -7   3   6 9.92520 2.45408  12
  -5  -3   6 314.556 11.4774   5
   5  -3  -6 305.121 11.9031   9
  -5  -3   6 292.939 9.74792   8
   5  -3  -6 295.270 9.66425   4
   5  -3  -6 293.815 11.2983   6
  -5  -3   6 317.270 13.5759  16
  -5  -3   6 305.010 10.7476  12
   5  -3  -6 290.092 11.7906  15
  -5   3   6 316.658 10.9427  12
  -5   3   6 305.702 11.2580   8
   5   3  -6 299.680 12.3434   7
   5   3  -6 301.502 10.6285  14
   5   3  -6 290.519 9.89310  15
  -5   3   6 296.950 13.0534  16
   5   3  -6 303.138 11.3508   9
   5   3  -6 287.563 11.0344   4
  -5   3   6 314.373 11.5910  13
  -3  -3   6 12.4132 2.01432   5
   3  -3  -6 27.4842 3.40521  15
   3  -3  -6 11.2065 2.24378   6
  -3  -3   6 11.4029 2.74316  16
  -3  -3   6 9.00831 1.65643  12
   3  -3  -6 10.5531 2.07240   9
  -3   3   6 14.1144 2.61965  13
   3   3  -6 10.7445 2.02033  15
  -3   3   6 16.2244 1.95117  12
  -3   3   6 23.5511 2.82723   8
   3   3  -6 13.9438 2.40802   9
  -3   3   6 8.92879 1.45668   3
  -1  -3   6 243.545 9.47817  16
   1  -3  -6 239.738 9.16054   9
   1  -3  -6 244.464 9.91676  15
  -1  -3   6 251.095 7.85842  12
  -1  -3   6 243.307 8.28288   5
   1  -3  -6 246.477 11.5569  11
   1  -3  -6 245.961 10.1712   6
  -1   3   6 255.612 8.89970   3
  -1   3   6 239.476 9.90916  13
  -1   3   6 243.328 7.01519  12
  -1   3   6 238.940 7.79419  14
   1   3  -6 239.714 8.63158   1
  -1   3   6 245.415 7.05039  12
   1   3  -6 246.874 10.0498   9
   1   3  -6 248.516 9.72192  15
   1   3  -6 260.584 10.5465   7
  -1  -3  -6 25.2027 2.46288   9
  -1  -3  -6 31.3795 3.72391  15
   1  -3   6 28.9014 3.64343   2
   1  -3   6 28.5699 5.22170  10
  -1  -3  -6 23.3811 4.45297  11
  -1  -3  -6 31.0665 4.02240   1
  -1   3  -6 23.0705 3.50696   1
   1   3   6 33.3938 2.70724   4
  -1   3  -6 30.6532 4.32102   7
   1   3   6 30.5539 1.64324  12
   1   3   6 29.0863 1.48785  12
   1   3   6 24.2905 2.99660  14
  -3  -3  -6 0.82824 1.71368  15
   3  -3   6 0.27288 1.93052   2
  -3  -3  -6 0.41489 2.35998  11
   3  -3   6 1.67422 1.34668  12
   3  -3   6 5.36925 3.48612  10
  -3  -3  -6 -0.0949 2.45756   1
  -3  -3  -6 2.81251 1.91471   6
  -3   3  -6 0.00937 1.83022   7
  -3   3  -6 2.37028 2.69972   1
   3   3   6 -1.6196 1.68376   4
   3   3   6 1.27205 1.24994  12
   3   3   6 -0.4975 2.08172  14
  -5  -3  -6 63.0551 10.0668  11
   5  -3   6 55.8352 5.21560  12
  -5  -3  -6 58.1427 7.64213   1
   5  -3   6 57.0917 6.95830   4
  -5   3  -6 63.5273 7.50507   7
  -5   3  -6 60.7590 7.92058   1
   5   3   6 56.1359 5.23594  12
   5   3   6 60.1803 6.55254  14
  -7  -3  -6 16.5188 5.98587   1
  -7  -3  -6 11.3349 5.25135  11
   7  -3   6 14.7160 3.68360  12
   7  -3   6 11.1172 3.83804   4
   7   3   6 10.9410 3.74917  12
  -7   3  -6 11.5900 5.47744   1
 -12  -4   6 466.012 19.1468   5
  12  -4  -6 461.098 20.2385   9
  12   4  -6 445.066 19.7719   4
 -12   4   6 487.665 19.1279   8
 -12   4   6 463.923 25.4324  11
 -10  -4   6 33.4035 6.62052  16
 -10  -4   6 30.7370 4.32506   8
 -10  -4   6 33.0552 5.26018   5
  10  -4  -6 36.3726 4.83976   4
  10  -4  -6 27.4457 5.44508   9
  10   4  -6 35.3016 5.18156   4
  10   4  -6 34.3483 4.67726  14
 -10   4   6 35.0854 5.43079   8
  -8  -4   6 830.235 26.7508   5
   8  -4  -6 832.347 25.0832   4
  -8  -4   6 814.001 24.9678   8
  -8  -4   6 857.212 30.3299  16
   8  -4  -6 885.017 27.9644   9
   8   4  -6 844.981 25.9015  14
  -8   4   6 830.179 26.0843   8
  -8   4   6 829.835 26.9123  13
  -8   4   6 852.255 25.6103   5
   8   4  -6 877.330 26.9697   4
  -8   4   6 847.265 28.3190  16
  -6  -4   6 125.161 5.86692   8
   6  -4  -6 130.214 7.94952   9
  -6  -4   6 123.140 6.70244  12
  -6  -4   6 133.695 7.16419   5
   6  -4  -6 133.353 6.95385   6
  -6  -4   6 136.821 9.03364  16
   6   4  -6 127.870 6.82042  14
   6   4  -6 129.515 8.01509   7
   6   4  -6 130.768 7.30315   4
  -6   4   6 135.420 6.92130   5
  -6   4   6 127.378 6.81340  12
  -6   4   6 137.147 7.48763   8
   6   4  -6 128.753 6.71121   9
  -6   4   6 137.738 7.81752  13
  -6   4   6 142.534 8.80674  16
   4  -4  -6 2215.97 59.3134   6
  -4  -4   6 2265.11 58.0215  12
  -4  -4   6 2319.43 58.5937   5
  -4  -4   6 2360.23 61.2025  16
   4  -4  -6 2277.63 59.8546  15
   4  -4  -6 2241.39 59.5638   9
  -4   4   6 2265.97 57.9911  12
   4   4  -6 2428.69 60.9327   7
  -4   4   6 2220.99 58.7747   8
  -4   4   6 2240.80 59.5352  13
   4   4  -6 2266.96 59.0008   9
   4   4  -6 2232.10 57.2822  15
  -2  -4   6 654.077 18.5016  12
  -2  -4   6 631.436 18.4986   5
   2  -4  -6 646.523 19.6352   9
   2  -4  -6 662.872 20.7211   6
   2  -4  -6 651.094 20.3606  15
  -2  -4   6 625.909 20.1440  16
   2   4  -6 647.722 21.0322   7
   2   4  -6 641.675 20.2598   9
  -2   4   6 652.576 20.8333  13
   2   4  -6 659.939 19.5197  15
  -2   4   6 640.754 18.3340   3
  -2   4   6 670.166 18.2004  12
   0  -4   6 2933.95 81.1212  10
   0  -4   6 3034.69 73.3420  12
   0  -4  -6 2994.18 75.8136  15
   0  -4  -6 2885.30 73.8677   9
   0  -4  -6 2951.96 79.5410  11
   0  -4  -6 2962.50 76.4471   6
   0  -4   6 2965.39 75.4979   2
   0   4  -6 2811.97 74.8920   1
   0   4   6 2965.64 77.1789  13
   0   4   6 2952.54 73.3058  14
   0   4  -6 2962.51 76.9848   7
   0   4   6 3098.79 75.1320   3
   0   4   6 2954.37 72.3964  12
  -2  -4  -6 421.811 15.1879  15
   2  -4   6 416.696 20.0904  10
  -2  -4  -6 442.210 19.8523  11
   2  -4   6 452.217 13.9552  12
  -2  -4  -6 426.247 15.9825   6
   2  -4   6 442.893 15.5020   2
  -2  -4  -6 416.182 16.7390   1
   2   4   6 445.760 14.9221  14
  -2   4  -6 456.497 16.7769   1
   2   4   6 439.294 13.0550  12
  -2   4  -6 440.683 17.2509   7
   4  -4   6 1459.30 40.6140  12
  -4  -4  -6 1554.98 49.7994  11
  -4  -4  -6 1533.13 45.2651   1
  -4   4  -6 1401.59 44.6009   1
   4   4   6 1464.68 41.9777  14
   4   4   6 1552.47 40.1853  12
  -4   4  -6 1451.22 45.0178   7
  -6  -4  -6 69.3832 11.0231  11
   6  -4   6 83.4025 6.75890  12
  -6  -4  -6 77.9778 9.25480   1
   6  -4   6 75.0088 8.26031   4
   6   4   6 73.6537 6.29990  12
  -6   4  -6 67.0755 8.90433   1
 -11  -5   6 51.5882 6.49584   5
  11  -5  -6 50.2984 6.91329   9
 -11   5   6 58.9999 10.5439  11
  11   5  -6 58.8042 7.18055   4
 -11   5   6 51.2894 6.10381   8
   9  -5  -6 11.6556 4.03102   9
  -9  -5   6 5.64742 2.85615   8
  -9  -5   6 5.50422 4.22258  16
  -9  -5   6 9.32015 3.69919   5
  -9   5   6 8.31576 3.05433   8
   9   5  -6 5.96790 3.43601   4
   9   5  -6 7.03195 2.81349  14
  -9   5   6 14.0095 3.48916  13
   7  -5  -6 1.20823 2.06718   9
   7  -5  -6 0.91145 1.82475   6
  -7  -5   6 1.28241 1.60399   8
   7   5  -6 2.07362 1.58997  14
  -7   5   6 1.52223 1.92437  12
  -7   5   6 1.01181 1.83051   5
  -7   5   6 -0.9611 2.44267  13
  -7   5   6 3.49739 2.85705   8
   7   5  -6 1.94936 1.92592   4
  -7   5   6 0.40024 2.46437  16
  -7   5   6 2.91898 2.13009   1
   5  -5  -6 110.568 6.43670   6
  -5  -5   6 107.380 8.11320  16
   5  -5  -6 91.6864 6.38317   9
  -5  -5   6 105.960 6.09984  12
  -5  -5   6 120.495 6.82680   5
  -5   5   6 109.232 7.25768  13
  -5   5   6 104.126 7.83998  16
  -5   5   6 96.2258 6.36563   8
   5   5  -6 112.504 7.80180   7
   5   5  -6 107.032 6.12112   9
   5   5  -6 119.778 6.61059  14
  -5   5   6 101.802 6.03172  12
   3  -5  -6 35.1823 4.23205  15
   3  -5  -6 27.5060 3.91820   6
  -3  -5   6 23.7075 3.88738  16
  -3  -5   6 33.2926 3.34867  12
   3  -5  -6 29.7374 3.70961   9
  -3  -5   6 29.9060 3.06416   5
  -3   5   6 23.4837 3.56010  13
  -3   5   6 27.2282 3.06246  12
   3   5  -6 29.6910 2.82143   3
   3   5  -6 28.4457 3.70808   9
  -3   5   6 30.7330 2.74916   3
   3   5  -6 27.1896 3.95361   7
  -3   5   6 29.4094 3.75975   8
   1  -5  -6 91.3687 5.94583  15
  -1  -5   6 93.6015 8.01364  10
  -1  -5   6 95.4859 5.10584  12
  -1  -5   6 91.8387 6.15655   2
   1  -5  -6 89.4385 6.50803   6
   1  -5  -6 87.3430 5.00938   9
   1   5  -6 85.0141 6.28878   7
  -1   5   6 97.6869 6.73147  13
  -1   5   6 98.5433 5.50814   3
  -1   5   6 95.4237 4.73281  12
   1  -5   6 11.3808 4.24032  10
  -1  -5  -6 14.6478 4.48602  11
   1  -5   6 13.4041 3.22205   2
   1  -5   6 9.26328 2.17532  12
  -1  -5  -6 24.6236 3.81545   6
  -1  -5  -6 12.6039 2.64537  15
   1   5   6 14.5465 3.87576  13
  -1   5  -6 15.8906 3.50415   7
   1   5   6 8.37590 1.89312  12
   1   5   6 10.1901 2.24780  14
   1   5   6 11.8831 3.01627   3
  -1   5  -6 10.7187 2.78214   1
  -3  -5  -6 8.22984 2.96022   6
   3  -5   6 15.8969 2.95342  12
  -3  -5  -6 17.6027 4.62112   1
  -3  -5  -6 14.5501 5.34714  11
   3  -5   6 21.3097 4.02819   2
  -3   5  -6 17.5023 4.07849   7
   3   5   6 18.1829 3.56756  14
   3   5   6 16.1977 3.68544   3
   3   5   6 14.7060 2.76771  12
  -3   5  -6 8.17245 3.38024   1
   5  -5   6 84.6653 6.79249  12
  -5  -5  -6 84.6268 11.7582  11
   5  -5   6 86.5199 8.73223   4
  -5  -5  -6 85.1453 9.34779   1
  -5   5  -6 80.7455 9.26480   7
   5   5   6 71.2892 7.17632  14
   5   5   6 84.9978 8.45764   3
  -5   5  -6 85.7018 8.28100   1
   5   5   6 79.8519 6.25539  12
 -10  -6   6 1007.87 33.1515   5
  10  -6  -6 1008.00 34.0375   9
 -10   6   6 1002.94 32.2080   8
  10   6  -6 1022.90 32.6792   4
  -8  -6   6 220.317 11.2363   5
  -8  -6   6 217.905 14.1055  16
   8  -6  -6 236.696 12.8203   9
  -8   6   6 228.001 11.9232  13
  -8   6   6 233.420 11.5052   8
   8   6  -6 221.347 11.0220  14
   8   6  -6 202.326 11.0452   4
  -8   6   6 229.631 12.4862   1
  -6  -6   6 2143.59 59.8282  16
  -6  -6   6 2015.33 55.5337  12
   6  -6  -6 2035.25 55.4290   6
  -6  -6   6 2117.83 56.1314   5
  -6  -6   6 2082.54 54.5980   2
   6  -6  -6 2108.82 57.5790   9
  -6   6   6 2009.34 57.9797  16
  -6   6   6 2068.15 55.8028   8
   6   6  -6 2118.47 54.6369   9
  -6   6   6 2029.89 57.1541  13
   6   6  -6 2103.39 55.7438  14
   6   6  -6 2130.85 55.7048   4
   6   6  -6 2138.66 58.7813   7
  -6   6   6 2034.44 55.5251  12
   4  -6  -6 270.349 11.7280  15
  -4  -6   6 249.127 12.0923  16
  -4  -6   6 271.130 10.8080  12
  -4  -6   6 253.450 10.2840   5
   4  -6  -6 256.534 11.3833   9
  -4  -6   6 247.222 10.3952   2
   4  -6  -6 240.310 10.9288   6
  -4   6   6 260.438 12.1536  13
  -4   6   6 252.600 10.3267  12
   4   6  -6 256.785 10.7206   9
  -4   6   6 249.064 10.8504   8
   4   6  -6 246.500 12.2926   7
  -2  -6   6 1709.67 46.1476  12
  -2  -6   6 1531.29 44.8189   5
  -2  -6   6 1674.52 46.8331  16
   2  -6  -6 1787.67 47.8078  15
   2  -6  -6 1705.71 46.3659   9
   2  -6  -6 1806.32 48.6594   6
  -2  -6   6 1826.61 47.6534   2
  -2  -6   6 1710.25 51.7084  10
  -2   6   6 1822.87 49.2406  13
   2   6  -6 1770.80 49.0494   7
  -2   6   6 1791.67 45.9018  12
  -2   6   6 1761.47 45.7502   3
   2   6  -6 1795.40 45.6241   3
   0  -6   6 75.8068 8.10949  10
   0  -6  -6 80.8927 8.25328  11
   0  -6   6 83.8808 5.36215  12
   0  -6   6 80.1645 6.46466   2
   0  -6  -6 86.9064 5.86863  15
   0  -6  -6 78.2098 6.66961   6
   0   6   6 82.6693 6.00249   3
   0   6   6 82.0717 7.26407  13
   0   6  -6 78.3359 5.55318   1
   0   6  -6 73.9726 6.84456   7
   0   6   6 86.2250 5.25651  12
   2  -6   6 924.230 26.9598  12
  -2  -6  -6 907.970 33.6562  11
   2  -6   6 877.325 27.9187   2
  -2  -6  -6 890.491 29.0870   6
  -2   6  -6 896.750 29.9512   7
   2   6   6 868.015 30.3223  13
   2   6   6 916.760 28.7859  14
   2   6   6 954.490 26.4545  12
  -2   6  -6 881.000 29.0065   1
   2   6   6 908.623 28.4095   3
  -4  -6  -6 46.2124 8.67308  11
  -4  -6  -6 34.6467 5.21782   6
   4  -6   6 53.3629 5.73220  12
   4  -6   6 50.6497 6.09211   2
   4   6   6 39.2097 4.73916  12
   4   6   6 51.1969 6.65264   3
  -4   6  -6 41.2087 6.42139   1
   4   6   6 40.9465 5.28703  14
  -4   6  -6 43.5577 6.89435   7
  -6  -6  -6 534.064 26.8083  11
   6  -6   6 474.719 20.4934   4
   6  -6   6 508.801 19.5952  12
   6   6   6 540.577 19.6770  12
  -6   6  -6 512.340 23.0885   1
   6   6   6 523.297 21.0541   3
  11  -7  -6 124.853 12.7008   9
  -9  -7   6 128.389 8.94294   5
   9  -7  -6 121.444 10.3875   9
   9   7  -6 136.352 9.42830   4
  -9   7   6 128.942 9.35137   8
  -9   7   6 114.655 9.68981  13
   9   7  -6 130.677 11.0003   7
   9   7  -6 123.138 8.76539  14
  -7  -7   6 211.886 13.4653  16
   7  -7  -6 204.063 11.7342   9
  -7  -7   6 205.139 10.8891   5
  -7   7   6 175.917 8.94433   5
   7   7  -6 200.166 10.3525   4
   7   7  -6 192.487 12.2860   7
  -7   7   6 183.436 11.3440  13
   7   7  -6 204.970 10.5895  14
  -7   7   6 210.639 16.6474  16
  -7   7   6 176.037 10.0400   8
   5  -7  -6 497.226 18.6173   9
  -5  -7   6 451.164 19.0565  16
  -5  -7   6 511.031 17.2001   2
  -5  -7   6 467.162 16.9795   5
   5  -7  -6 514.731 18.0387   6
  -5  -7   6 474.484 17.1227  12
   5   7  -6 507.077 16.7818   9
  -5   7   6 504.928 19.2453  13
  -5   7   6 519.093 17.6827   8
  -5   7   6 491.632 19.7010  16
  -5   7   6 489.841 17.2748  12
   5   7  -6 476.189 17.1844  14
   5   7  -6 472.290 19.1751   7
  -3  -7   6 161.195 7.60119   5
  -3  -7   6 175.495 8.65162  12
   3  -7  -6 169.001 9.66104   6
   3  -7  -6 171.990 8.92457   9
  -3  -7   6 160.755 9.13168  16
  -3  -7   6 176.878 9.17873   2
   3  -7  -6 175.509 9.44656  15
  -3   7   6 178.751 8.93035   8
   3   7  -6 168.373 10.1743   7
  -3   7   6 172.926 10.3068  13
  -3   7   6 170.175 7.79863   3
  -3   7   6 173.895 8.55574  12
   3   7  -6 176.006 7.89650   3
  -1  -7   6 428.749 20.2298  10
  -1  -7   6 453.455 16.9483   2
   1  -7  -6 470.738 17.9116   6
   1  -7  -6 453.606 16.5453  15
  -1  -7   6 443.833 15.8059  12
   1   7  -6 479.238 15.8069   3
  -1   7   6 457.569 15.9833   3
  -1   7   6 454.437 18.1473  13
   1   7  -6 445.715 18.0817   7
  -1   7   6 466.181 15.6195  12
  -1  -7  -6 154.089 10.1319   6
   1  -7   6 184.385 10.3116   2
   1  -7   6 174.411 8.75655  12
  -1  -7  -6 173.930 12.9785  11
  -1  -7  -6 164.599 8.35152  15
  -1   7  -6 172.362 10.8370   7
   1   7   6 172.008 8.69266  12
   1   7   6 176.262 11.2312  13
   1   7   6 167.880 9.17354   3
  -1   7  -6 174.073 9.63436   1
   3  -7   6 85.4281 6.72021  12
  -3  -7  -6 88.0676 11.3102  11
   3  -7   6 76.6485 7.47433   2
  -3  -7  -6 79.4514 7.14964   6
   3   7   6 86.6195 6.40758  12
  -3   7  -6 87.8740 8.19946   1
  -3   7  -6 80.6193 8.52225   7
   3   7   6 95.2617 8.10388   3
   3   7   6 87.3428 9.07370  13
   5  -7   6 115.614 8.53173  12
   5  -7   6 111.423 9.14489   4
  -5  -7  -6 115.038 12.6813  11
  -5   7  -6 131.611 11.2118   7
  -5   7  -6 117.370 10.6852   1
   5   7   6 129.623 8.49885  12
   5   7   6 110.923 9.85877   3
  10  -8  -6 193.801 13.3770   9
 -10  -8   6 177.309 11.3835   5
  10   8  -6 200.490 11.8331   4
  10   8  -6 197.139 13.4474   7
 -10   8   6 220.413 11.7765   8
  -8  -8   6 295.761 17.4601  16
  -8  -8   6 308.657 14.3063   5
   8  -8  -6 303.079 15.6996   9
  -8   8   6 284.707 13.5894   8
   8   8  -6 311.044 14.2072  14
   8   8  -6 290.114 16.1832   7
  -8   8   6 284.101 14.0406   1
  -8   8   6 289.187 15.1478  13
   6  -8  -6 331.679 15.1808   2
   6  -8  -6 325.405 13.6184   6
  -6  -8   6 299.660 15.9355  16
   6  -8  -6 304.352 14.7522   9
  -6  -8   6 302.584 13.5671   5
  -6   8   6 305.374 14.8775  16
  -6   8   6 336.441 15.7986  13
  -6   8   6 340.109 14.0976   8
   6   8  -6 321.433 15.6614   7
  -6   8   6 310.384 13.5391  12
   6   8  -6 307.901 13.7098  14
  -4  -8   6 602.163 20.4091   2
   4  -8  -6 592.668 21.0805   9
  -4  -8   6 602.948 20.6312  12
  -4  -8   6 571.994 19.5309   5
   4  -8  -6 631.725 21.8652   6
   4  -8  -6 630.101 21.9731  15
  -4  -8   6 572.819 21.8832  16
  -4   8   6 606.028 20.8124   8
  -4   8   6 612.105 22.9413  13
   4   8  -6 608.859 23.0126   7
  -4   8   6 625.161 20.5770  12
  -2  -8   6 577.557 19.4851  12
  -2  -8   6 564.037 20.2155   2
   2  -8  -6 573.488 20.9059   6
   2  -8  -6 546.384 19.6479  15
  -2  -8   6 504.733 25.3722  10
   2   8  -6 572.165 21.6355   7
  -2   8   6 557.213 18.4909   3
  -2   8   6 547.762 21.2831  13
   2   8  -6 555.387 18.4606   3
  -2   8   6 578.376 19.0989  12
   0  -8   6 734.617 24.6434   2
   0  -8   6 740.016 23.5891  12
   0  -8  -6 749.512 26.0396   6
   0  -8  -6 719.383 23.1557  15
   0   8   6 699.641 26.1502  13
   0   8   6 697.159 23.0474  12
   0   8  -6 723.229 25.6170   7
   0   8   6 739.478 23.9099   3
  -2  -8  -6 534.113 25.2174  11
   2  -8   6 508.960 18.6873  12
  -2  -8  -6 513.312 20.8311   6
   2  -8   6 489.451 19.4091   2
   2   8   6 498.809 18.1982  12
  -2   8  -6 487.915 19.9408   1
  -2   8  -6 512.954 21.1177   7
   2   8   6 515.005 19.5185   3
   2   8   6 477.239 21.3762  13
   4  -8   6 363.281 16.6441   2
   4  -8   6 373.004 16.0824  12
  -4  -8  -6 389.958 22.8755  11
  -4  -8  -6 342.715 17.0345   6
  -4   8  -6 404.390 18.8642   7
   4   8   6 378.952 17.3710   3
  -4   8  -6 376.957 18.4441   1
   4   8   6 403.022 16.0787  12
   9  -9  -6 32.3076 6.59658   9
  -9  -9   6 31.8596 5.95410   5
  -9   9   6 32.1001 5.33513   8
   9   9  -6 34.4751 7.38670   7
   7  -9  -6 41.5542 6.34475   9
  -7  -9   6 44.7506 6.97652  16
  -7  -9   6 41.6737 5.49000   5
   7   9  -6 45.8349 6.21559  14
   7   9  -6 43.3209 6.59219   7
  -7   9   6 37.0228 5.49281   8
  -7   9   6 41.5392 6.16573  13
   5  -9  -6 22.1395 4.82858   2
   5  -9  -6 15.5023 4.16788  15
  -5  -9   6 21.5456 3.94529   2
  -5  -9   6 16.1548 3.62455   5
   5  -9  -6 28.5347 4.87548   9
   5  -9  -6 26.9656 4.78362   6
  -5  -9   6 13.3304 4.33728  16
  -5   9   6 20.3092 4.41859   8
  -5   9   6 29.9846 5.81049  13
  -5   9   6 33.7226 4.46785  12
   5   9  -6 28.0113 5.36930   7
  -3  -9   6 74.6425 7.19879   2
  -3  -9   6 73.8758 6.55753  12
   3  -9  -6 83.7166 6.66387   9
   3  -9  -6 88.3692 7.47720   6
   3  -9  -6 92.8235 7.47648  15
  -3   9   6 88.9717 7.39170   8
  -3   9   6 86.5834 8.69924  13
  -3   9   6 85.4362 6.35809   3
   3   9  -6 95.3540 7.99975   7
   3   9  -6 82.9886 6.21722   3
  -3   9   6 87.7016 6.49482  12
   1  -9  -6 13.5922 3.26125  15
  -1  -9   6 13.8630 3.43127  12
  -1  -9   6 13.5206 3.58653   2
   1  -9  -6 8.65172 4.15123   6
   1   9  -6 16.6116 3.52036   3
   1   9  -6 12.9845 3.88968   7
  -1   9   6 11.0097 4.60759  13
  -1   9   6 7.94493 3.06363  12
  -1   9   6 10.7344 3.65315   3
   1  -9   6 31.2410 5.21131   2
  -1  -9  -6 25.0019 5.54770   6
   1  -9   6 36.8060 5.18420  12
   1   9   6 35.0110 5.18224  12
   1   9   6 37.5529 5.96286   3
   1   9   6 25.3085 5.21101  13
  -1   9  -6 39.7674 6.83361   7
   3  -9   6 8.63334 4.43254   2
   3  -9   6 8.45247 3.45327  12
  -3  -9  -6 6.00849 4.80095  11
  -3  -9  -6 4.43640 3.71674   6
   3   9   6 12.1219 3.52441  12
  -3   9  -6 7.91270 3.85113   7
  -3   9  -6 5.16300 3.08131   1
   3   9   6 9.85526 4.63847   3
  -8 -10   6 881.454 31.4043   5
   8 -10  -6 972.602 33.8912   9
  -8  10   6 996.001 32.5928   1
  -8  10   6 964.892 30.3879   8
   8  10  -6 958.056 34.9136   7
   6 -10  -6 35.8087 5.97101   9
  -6 -10   6 21.9524 4.42161   5
  -6 -10   6 12.3377 4.69744  16
   6 -10  -6 16.5797 5.04385   2
   6  10  -6 13.7269 5.08386   7
  -6  10   6 20.5718 4.47487   8
   4 -10  -6 1402.06 41.8696   9
  -4 -10   6 1419.36 41.5534   2
   4 -10  -6 1454.84 42.9797   6
   4 -10  -6 1406.84 42.5995  15
   4  10  -6 1423.21 44.4897   7
  -4  10   6 1361.02 41.4683  12
  -4  10   6 1367.38 41.1298   8
  -4  10   6 1429.48 44.7384  13
  -2 -10   6 9.15751 3.59587  12
   2 -10  -6 11.7522 4.46841   6
  -2 -10   6 6.31542 3.92457   2
   2 -10  -6 9.48499 3.16386  15
   2  10  -6 13.4372 4.65131   7
   2  10  -6 14.6953 3.10776   3
  -2  10   6 15.0687 3.77203  12
  -2  10   6 10.5411 3.75425   3
  -2  10   6 8.12894 4.63424  13
  -2  10   6 8.44816 3.64588   8
   0 -10   6 1043.62 33.5023  12
   0 -10   6 1034.69 34.3873   2
   0 -10  -6 1065.10 35.7975   6
   0  10   6 1058.40 36.7919  13
   0  10   6 1101.38 33.6827   3
   0  10   6 1100.67 33.6266  12
   2 -10   6 5.05284 3.27960  12
   2 -10   6 7.07935 3.59857   2
  -2 -10  -6 4.23315 4.04297   6
  -2  10  -6 14.1699 4.40524   7
   2  10   6 7.65223 3.25295  12
   2  10   6 13.5725 4.79202   3
   7 -11  -6 111.301 9.80196   9
  -7 -11   6 103.020 8.48895   5
   7  11  -6 98.2162 9.42862   7
   5 -11  -6 102.135 8.82096  15
   5 -11  -6 98.5331 8.49621   9
  -5  11   6 105.123 8.31718   8
   5  11  -6 99.5022 10.0609   7
  -3 -11   6 162.015 10.7241   2
   3 -11  -6 181.236 10.6555  15
   3 -11  -6 187.606 12.2049   6
   3  11  -6 144.885 9.29638   3
  -3  11   6 179.038 10.1793   3
  -3  11   6 170.685 10.6256  12
   3  11  -6 182.530 11.9649   7
  -3  11   6 179.839 10.6264   8
   1 -11  -6 111.940 10.4687   6
  -1 -11   6 96.4281 8.55732   2
   1  11  -6 112.984 10.1968   7
  -1  11   6 111.864 8.86768   3
  -1  11   6 101.350 8.28617  12
  -1  11   6 96.8166 8.43182   8
   1  11  -6 109.543 8.19788   3
  -1 -11  -6 144.930 11.5923   6
   1 -11   6 132.215 11.0070   2
   1  11   6 141.164 9.64110  12
  -1  11  -6 138.016 11.2923   7
   1  11   6 140.557 10.4885   3
   6 -12  -6 207.850 13.9092   9
   6  12  -6 228.716 16.5824   7
   4 -12  -6 215.549 13.1209   6
   4 -12  -6 215.977 12.3209  15
  -4 -12   6 212.845 12.9566   6
  -4  12   6 215.145 11.7982   8
   4  12  -6 223.713 14.2222   7
  -2 -12   6 270.023 13.9730   2
   2 -12  -6 281.552 15.7575   6
   2  12  -6 278.218 15.6812   7
   2  12  -6 274.246 13.2356   3
  -2  12   6 249.910 13.1635   8
  -2  12   6 266.567 13.4317   3
   0 -12  -6 210.039 14.2221   6
   0 -12   6 202.511 13.1813   2
   0  12   6 189.019 12.0562   3
   0  12   6 196.149 11.7514  12
   0  12  -6 206.532 13.3750   7
 -12   0   7 -0.3418 3.61257   8
 -12   0   7 -2.5409 4.99948  11
 -12   0   7 -1.4458 2.59099   5
  12   0  -7 2.52663 3.35014   4
  10   0  -7 6.43838 3.22835   9
 -10   0   7 0.31755 2.76711   5
 -10   0   7 2.28872 3.71348  16
 -10   0   7 3.20244 4.38054  11
 -10   0   7 4.75868 3.54209   8
  10   0  -7 1.59683 2.89838   4
  -8   0   7 2.23495 2.43267   8
  -8   0   7 2.58813 2.43428   5
   8   0  -7 0.87731 1.63030  15
   8   0  -7 3.59653 2.32762   4
  -8   0   7 2.82839 3.22691  16
  -8   0   7 0.20907 1.71472  12
   8   0  -7 2.28965 2.28000   9
   6   0  -7 -0.1847 1.38417   7
  -6   0   7 -0.6654 1.15187   5
   6   0  -7 0.26626 1.74873   9
  -6   0   7 1.60175 1.85377  16
   6   0  -7 1.25866 1.53972   4
  -6   0   7 -0.0346 1.28459  12
   6   0  -7 0.03092 1.32111  15
  -6   0   7 5.54104 2.16517   8
   4   0  -7 1.14555 1.33765   9
  -4   0   7 -0.4768 1.05261  12
  -4   0   7 0.35817 1.38114   8
  -4   0   7 2.07946 1.70831   5
  -4   0   7 1.45732 2.25461  16
   4   0  -7 10.2305 2.35239  15
   4   0  -7 7.02890 1.81033   7
  -2   0   7 1.93553 0.61759  12
  -2   0   7 3.38719 1.44912   8
   2   0  -7 1.60253 1.39420   7
  -2   0   7 1.39127 1.96403  16
  -2   0   7 1.67067 0.61650  12
   2   0  -7 2.59366 1.71093   9
  -2   0   7 2.50353 1.38337  13
   2   0  -7 -0.6621 1.41087   6
   2   0  -7 -0.5005 1.43161  15
   0   0  -7 3.94567 1.70000   6
   0   0  -7 13.2844 3.11786  11
   0   0  -7 -0.3772 1.13846  15
   0   0  -7 1.23788 1.76717   7
   0   0   7 0.40984 1.40367  10
   0   0  -7 0.55523 1.42027   1
   0   0  -7 12.2927 2.45856   9
  -2   0  -7 1.37201 2.37314   7
  -2   0  -7 3.40687 2.52125  15
  -2   0  -7 0.57784 2.43086  11
   2   0   7 1.47692 2.64281  10
  -2   0  -7 -1.0907 2.06890   1
   4   0   7 -1.4585 2.54519  14
   4   0   7 1.91423 2.93544   4
  -4   0  -7 3.66876 2.57787   1
  -4   0  -7 0.13598 3.25255  11
   4   0   7 0.19589 1.49941  12
  -6   0  -7 -0.0707 4.01070  11
  -6   0  -7 0.58130 2.92679   1
   6   0   7 -1.4214 2.66417  12
   6   0   7 1.60390 2.72404   4
 -11  -1   7 214.340 14.9476  11
  11  -1  -7 233.242 12.3553   9
  11  -1  -7 228.693 12.2755   4
 -11  -1   7 238.212 12.2936   5
 -11  -1   7 237.071 12.4347   8
 -11  -1   7 216.683 14.3127  16
 -11   1   7 228.560 14.1805  16
 -11   1   7 223.949 15.8454  11
 -11   1   7 227.114 11.7768   5
 -11   1   7 234.065 12.0333   8
  11   1  -7 254.604 13.0730   4
   9  -1  -7 771.941 25.0564   4
  -9  -1   7 760.937 28.5246  16
  -9  -1   7 780.490 24.6102   8
  -9  -1   7 781.983 27.7963  11
   9  -1  -7 777.659 24.8216  15
   9  -1  -7 804.005 26.3028   9
  -9  -1   7 776.907 25.5450   5
   9   1  -7 770.928 25.5135   4
   9   1  -7 785.333 25.2769   9
  -9   1   7 797.851 25.2959   8
  -9   1   7 796.880 25.2186   5
  -9   1   7 767.455 28.3338  16
  -7  -1   7 422.308 15.4404   5
  -7  -1   7 410.118 14.5843  12
   7  -1  -7 393.381 15.7114   7
   7  -1  -7 433.830 14.7129   4
  -7  -1   7 430.104 14.4578   8
   7  -1  -7 448.103 15.4826  15
  -7  -1   7 408.507 17.4319  16
   7  -1  -7 427.380 16.0314   9
   7   1  -7 408.927 15.6908   7
  -7   1   7 420.701 15.1548   5
   7   1  -7 414.861 14.2187  15
  -7   1   7 438.722 17.7364  16
  -7   1   7 428.239 14.7306  12
   7   1  -7 424.868 15.7015   9
   7   1  -7 421.716 15.0137   4
  -7   1   7 426.890 15.0095   8
  -5  -1   7 2132.69 54.5099   8
   5  -1  -7 2049.30 54.4722   7
   5  -1  -7 2119.40 56.1063   6
   5  -1  -7 2153.54 56.1889  15
   5  -1  -7 2143.73 54.5974   4
  -5  -1   7 2160.69 58.6822  16
  -5  -1   7 2207.01 54.7103  12
  -5  -1   7 2153.59 55.8479   5
   5  -1  -7 2117.53 56.6307   9
   5   1  -7 2058.56 55.8900   7
   5   1  -7 2105.02 56.4364   9
  -5   1   7 2145.56 55.9279   5
  -5   1   7 2208.13 55.3059   8
   5   1  -7 2133.05 55.1551   4
  -5   1   7 2137.24 54.2027  13
   5   1  -7 2099.46 55.3649  15
  -5   1   7 2181.90 58.9531  16
  -5   1   7 2184.51 54.5735  12
  -3  -1   7 560.850 16.2922   8
   3  -1  -7 559.152 18.2930   9
   3  -1  -7 584.814 18.5295   6
  -3  -1   7 590.511 15.8265  12
   3  -1  -7 574.890 18.4536  15
  -3  -1   7 581.080 19.7866  16
  -3  -1   7 568.868 17.5906   5
   3  -1  -7 545.570 16.8314   7
   3   1  -7 556.457 17.9813   7
   3   1  -7 566.749 18.1371  15
   3   1  -7 567.773 18.4197   9
  -3   1   7 588.299 20.4625  16
  -3   1   7 601.708 17.3878   8
  -3   1   7 569.245 17.0309  13
  -3   1   7 581.874 15.6294  12
   1  -1  -7 2592.43 67.2493  15
   1  -1  -7 2587.44 66.7673   6
  -1  -1   7 2822.09 68.0780  16
   1  -1  -7 2555.64 68.3924  11
   1  -1  -7 2453.76 65.4737   1
   1  -1  -7 2493.79 66.2122   9
   1  -1  -7 2457.00 65.7049   7
  -1   1   7 2629.69 66.4823  13
   1   1  -7 2674.18 67.1787   7
   1   1  -7 2650.95 67.1800  15
   1   1  -7 2643.32 66.8401   9
   1   1  -7 2495.80 64.9838   1
  -1  -1  -7 322.310 12.6359   1
  -1  -1  -7 300.680 12.2124   7
   1  -1   7 299.347 15.0233  10
  -1  -1  -7 285.626 10.9465   9
  -1  -1  -7 321.526 14.5024  11
  -1  -1  -7 309.256 12.5729  15
  -1  -1  -7 321.007 11.7718   6
  -1   1  -7 300.051 12.8018   7
   1   1   7 294.372 13.7424  10
  -1   1  -7 285.523 12.1565  15
  -1   1  -7 270.075 12.8683  11
  -1   1  -7 292.667 11.6480   9
  -1   1  -7 276.006 11.9586   1
  -3  -1  -7 1153.23 34.2575  15
  -3  -1  -7 1128.50 35.5289   1
  -3  -1  -7 1131.06 38.3825  11
   3  -1   7 1176.08 29.8143  12
  -3   1  -7 1179.73 35.8669   7
   3   1   7 1143.13 29.2922  12
  -3   1  -7 1144.53 35.4669   1
   3   1   7 1086.92 33.0466  14
   3   1   7 1167.72 32.8779   4
  -3   1  -7 1065.44 36.7212  11
   5  -1   7 105.081 6.34507  12
   5  -1   7 102.243 8.48529  14
   5  -1   7 115.776 8.97741   4
  -5  -1  -7 110.382 9.26256   1
  -5  -1  -7 108.396 11.4235  11
  -5   1  -7 92.0696 10.0666  11
  -5   1  -7 108.344 9.84706   1
   5   1   7 100.897 7.70285  14
   5   1   7 100.763 7.88264   4
   5   1   7 112.229 6.58734  12
 -12  -2   7 113.984 8.69602   5
  12  -2  -7 111.906 8.80251   4
 -12  -2   7 103.659 9.01336   8
 -12   2   7 134.510 13.5625  11
 -12   2   7 107.528 8.66201   8
  12   2  -7 111.823 9.25258   4
  10  -2  -7 245.257 12.7501   9
  10  -2  -7 245.487 11.6698   4
 -10  -2   7 218.193 11.7540   5
 -10  -2   7 220.621 11.3950   8
 -10  -2   7 204.555 13.4960  16
 -10   2   7 235.012 13.5275  16
 -10   2   7 212.170 10.9561   5
 -10   2   7 232.779 12.1195   8
  10   2  -7 237.173 12.3160   4
  -8  -2   7 269.087 11.5344  12
   8  -2  -7 291.583 13.2040   9
  -8  -2   7 266.710 11.0338   8
   8  -2  -7 284.473 12.1782  15
  -8  -2   7 287.811 12.2950   5
  -8  -2   7 294.336 15.1009  16
   8  -2  -7 299.513 11.7553   4
  -8   2   7 290.206 12.1236   5
   8   2  -7 268.352 12.0706   4
  -8   2   7 268.114 14.0908  16
  -8   2   7 291.977 12.2219   8
  -8   2   7 281.640 11.6971  12
   8   2  -7 266.755 11.8445   9
   6  -2  -7 648.464 21.4958   9
  -6  -2   7 636.909 19.0371   8
   6  -2  -7 664.435 21.2222  15
  -6  -2   7 660.702 19.8942  12
  -6  -2   7 649.812 20.5869   5
  -6  -2   7 665.122 23.1833  16
   6  -2  -7 642.530 19.1212   4
   6   2  -7 642.285 20.2135   4
   6   2  -7 644.401 20.8663   9
   6   2  -7 643.395 21.3915   7
   6   2  -7 627.074 19.2830  15
  -6   2   7 660.348 19.7457  12
  -6   2   7 660.632 23.2636  16
  -6   2   7 639.020 20.4641   5
  -6   2   7 648.297 20.2656   8
   6   2  -7 648.583 18.8843  14
   4  -2  -7 615.268 19.6174  15
   4  -2  -7 594.188 19.4883   9
  -4  -2   7 596.558 20.6807  16
  -4  -2   7 617.011 17.6302  12
   4  -2  -7 613.092 19.4831   6
  -4  -2   7 612.267 18.7290   5
  -4  -2   7 578.906 17.0047   8
   4   2  -7 596.094 19.5854   7
   4   2  -7 606.066 18.6818  15
  -4   2   7 613.595 17.4614  12
  -4   2   7 613.128 21.3170  16
   4   2  -7 605.064 19.5002   9
  -4   2   7 610.898 18.4060  13
  -4   2   7 611.710 18.6361   8
   2  -2  -7 749.060 23.3914   6
  -2  -2   7 783.817 20.1335  12
   2  -2  -7 771.870 23.5868  15
   2  -2  -7 760.129 22.9026   9
  -2  -2   7 808.247 24.0074  16
   2  -2  -7 711.018 21.1141   7
  -2  -2   7 784.715 21.8800   5
   2   2  -7 788.050 23.6924   7
  -2   2   7 765.616 19.5667  12
   2   2  -7 772.035 23.0873  15
  -2   2   7 712.541 20.8566   3
  -2   2   7 759.730 22.8458  13
   2   2  -7 783.561 23.4059   9
   0  -2  -7 706.509 22.2864  15
   0  -2   7 711.534 17.7753  12
   0  -2  -7 696.268 24.2985  11
   0  -2   7 655.415 21.0460  16
   0  -2  -7 715.138 21.9267   6
   0  -2  -7 653.071 20.4937   9
   0  -2  -7 669.889 21.6180   1
   0  -2   7 690.320 25.4644  10
   0  -2  -7 665.794 20.7408   7
   0   2  -7 692.917 22.4276   7
   0   2   7 691.592 23.1225  10
   0   2  -7 719.288 22.3761  15
   0   2   7 765.387 20.3308  14
   0   2  -7 642.936 20.9147   1
   0   2  -7 705.568 21.8712   9
  -2  -2  -7 423.124 15.6181  15
   2  -2   7 391.988 19.1862  10
   2  -2   7 411.077 14.4561   2
   2  -2   7 400.269 11.9226  12
  -2  -2  -7 421.079 16.4037   1
  -2  -2  -7 444.429 19.3526  11
  -2  -2  -7 423.212 14.9101   6
   2   2   7 408.564 14.6511  14
   2   2   7 413.889 10.7806  12
  -2   2  -7 381.685 16.1416   7
   2   2   7 412.406 13.9475   4
  -2   2  -7 386.276 15.9554   1
   4  -2   7 342.327 11.9236  12
  -4  -2  -7 318.831 17.9837  11
  -4  -2  -7 329.319 15.6509   1
   4  -2   7 329.256 14.7001   4
   4   2   7 330.674 11.3902  12
   4   2   7 333.937 13.2546   4
  -4   2  -7 342.721 16.0587   7
  -4   2  -7 306.328 15.6537   1
   4   2   7 331.792 14.2659  14
  -6  -2  -7 151.378 14.0741  11
   6  -2   7 165.045 11.1131   4
   6  -2   7 167.023 9.56591  12
  -6  -2  -7 165.442 12.3605   1
  -6   2  -7 157.656 12.1436   1
   6   2   7 160.806 9.04594  12
  11  -3  -7 871.426 29.6158   9
 -11  -3   7 840.176 27.4809   8
  11  -3  -7 781.036 27.3021   4
 -11  -3   7 828.184 28.6404   5
 -11   3   7 895.085 28.8732   8
  11   3  -7 889.830 29.5607   4
 -11   3   7 828.380 33.3870  11
   9  -3  -7 206.654 11.6431   9
   9  -3  -7 197.906 9.51471   4
  -9  -3   7 210.799 13.5887  16
  -9  -3   7 198.429 10.5976   5
   9  -3  -7 215.536 11.2941  15
  -9  -3   7 198.617 9.83410   8
  -9   3   7 194.612 12.0724  16
  -9   3   7 180.069 9.99104  13
   9   3  -7 196.141 10.6818   4
  -9   3   7 199.526 9.85525   5
  -9   3   7 195.880 10.2112   8
  -7  -3   7 1421.53 38.7346   8
   7  -3  -7 1506.49 41.7957  15
   7  -3  -7 1467.92 42.1763   9
  -7  -3   7 1449.91 40.8841   5
   7  -3  -7 1468.48 39.0722   4
  -7  -3   7 1472.14 44.3917  16
  -7  -3   7 1461.18 40.1135  12
   7   3  -7 1442.01 39.2056  14
  -7   3   7 1477.03 40.5659   8
   7   3  -7 1511.23 40.6632   9
   7   3  -7 1448.34 42.4356   7
  -7   3   7 1421.78 40.2693   5
  -7   3   7 1421.62 39.8564  12
  -7   3   7 1415.76 43.2292  16
  -7   3   7 1395.93 40.1205  13
   7   3  -7 1452.13 40.6271   4
  -5  -3   7 375.794 12.2573   8
  -5  -3   7 391.288 16.1295  16
   5  -3  -7 415.388 15.1134   9
   5  -3  -7 408.515 15.0654  15
   5  -3  -7 403.799 14.5342   6
  -5  -3   7 395.108 13.4353  12
  -5  -3   7 403.381 14.2605   5
  -5   3   7 397.829 14.1028  13
   5   3  -7 403.737 13.2878  15
   5   3  -7 407.773 14.7203   9
   5   3  -7 389.079 15.1286   7
  -5   3   7 419.965 14.1140   8
  -5   3   7 418.219 13.6158  12
  -5   3   7 422.919 17.0492  16
   3  -3  -7 1617.32 44.2009   6
  -3  -3   7 1627.04 41.4582  12
  -3  -3   7 1663.10 42.4427   5
  -3  -3   7 1646.07 44.8467  16
   3  -3  -7 1643.57 44.3390  15
   3  -3  -7 1566.14 43.5183   9
   3   3  -7 1642.02 44.5453   7
  -3   3   7 1571.60 41.0270  12
  -3   3   7 1569.70 43.4192  13
  -3   3   7 1576.20 43.0173   8
   3   3  -7 1612.68 43.8679   9
   3   3  -7 1597.88 42.9608  15
  -1  -3   7 452.514 19.2273  10
   1  -3  -7 455.541 16.0384  15
   1  -3  -7 473.172 16.3050   6
  -1  -3   7 432.664 12.8078  12
   1  -3  -7 437.784 14.8077   9
  -1  -3   7 436.670 13.5878   5
  -1  -3   7 437.374 15.0761  16
   1  -3  -7 439.582 17.8076  11
   1   3  -7 447.213 15.7247  15
  -1   3   7 447.288 14.2849   3
  -1   3   7 430.923 15.8122  13
   1   3  -7 453.495 15.9854   9
  -1   3   7 452.289 11.9076  12
   1   3  -7 459.989 16.5350   7
  -1  -3  -7 1052.82 35.1860  11
   1  -3   7 1072.46 30.5082   2
  -1  -3  -7 1025.39 31.4891   1
   1  -3   7 1004.38 35.7712  10
   1  -3   7 1087.72 27.6855  12
  -1  -3  -7 1058.79 31.2367   6
  -1  -3  -7 1065.75 31.2034  15
  -1   3  -7 1032.91 31.2159   1
   1   3   7 1052.34 29.4308  14
  -1   3  -7 1055.21 32.4871   7
   1   3   7 1059.55 26.0393  12
  -3  -3  -7 343.616 18.3613  11
  -3  -3  -7 316.107 13.1907  15
   3  -3   7 310.310 10.9971  12
  -3  -3  -7 321.638 15.2909   1
   3   3   7 307.917 12.9773  14
  -3   3  -7 288.229 14.3624   1
   3   3   7 325.680 10.3937  12
  -3   3  -7 307.279 15.0753   7
   5  -3   7 573.473 21.5729   4
  -5  -3  -7 534.487 26.0419  11
  -5  -3  -7 543.959 23.3658   1
   5  -3   7 562.123 18.8245  12
   5   3   7 560.640 18.2200  12
  -5   3  -7 553.657 23.0657   1
 -12  -4   7 79.9871 7.28328   5
 -12  -4   7 90.1422 7.93548   8
 -12   4   7 83.8870 12.4185  11
  12   4  -7 74.5006 8.70231   4
 -12   4   7 84.8286 7.74159   8
  10  -4  -7 138.481 9.66140   9
 -10  -4   7 109.493 8.85085   5
 -10  -4   7 121.191 10.6701  16
 -10  -4   7 117.635 8.06601   8
  10   4  -7 128.719 9.31035   4
 -10   4   7 125.875 9.23417   8
   8  -4  -7 62.6754 6.94783  15
  -8  -4   7 45.8176 7.33800  16
   8  -4  -7 77.4142 6.74546   9
  -8  -4   7 51.4259 4.26113   8
  -8  -4   7 51.7594 5.64457   5
   8   4  -7 52.0169 6.80050   7
  -8   4   7 59.6625 5.81875   5
   8   4  -7 51.8216 4.85175  14
  -8   4   7 48.1747 5.69217   8
  -8   4   7 53.1027 6.51264  16
   8   4  -7 45.9442 4.70439   9
  -8   4   7 48.9507 4.99507  12
   8   4  -7 54.6437 6.15623   4
  -8   4   7 44.1234 5.23345  13
  -6  -4   7 195.033 8.88325  12
  -6  -4   7 199.328 11.7210  16
  -6  -4   7 198.899 9.39540   5
   6  -4  -7 187.386 10.0759  15
   6  -4  -7 195.253 9.40086   6
   6  -4  -7 204.146 10.1583   9
   6   4  -7 197.037 8.72237  14
  -6   4   7 190.879 8.78305  12
  -6   4   7 194.271 9.63108  13
  -6   4   7 187.686 9.12163   5
  -6   4   7 202.882 9.69356   8
   6   4  -7 183.882 8.90184   9
   6   4  -7 199.921 9.20031   4
   6   4  -7 200.829 10.5790   7
  -6   4   7 191.502 11.1791  16
   4  -4  -7 35.7209 4.42275   9
  -4  -4   7 37.3840 5.07698  16
  -4  -4   7 37.7339 3.48926   5
   4  -4  -7 35.7190 4.29639   6
   4  -4  -7 30.8269 4.28013  15
  -4  -4   7 39.1563 3.51583  12
  -4   4   7 35.5320 4.19680   8
  -4   4   7 31.4557 3.21064  12
   4   4  -7 34.2418 3.18519  15
   4   4  -7 37.2202 4.68224   7
  -4   4   7 38.4321 4.56820  13
   4   4  -7 35.7378 4.33516   9
   2  -4  -7 48.2425 5.25294   6
  -2  -4   7 51.1506 3.45345   5
   2  -4  -7 38.9419 4.12598  15
  -2  -4   7 44.4318 4.44508  16
   2  -4  -7 48.3962 4.24052   9
  -2  -4   7 50.0030 3.70850  12
  -2   4   7 43.6182 3.42904   3
   2   4  -7 53.2067 5.37265   7
  -2   4   7 55.0417 3.44073  12
   2   4  -7 48.9999 4.94441   9
   2   4  -7 47.3386 4.31361  15
  -2   4   7 45.0421 5.04124  13
   0  -4   7 74.5750 5.44235   2
   0  -4  -7 74.2393 7.18445  11
   0  -4  -7 77.7287 6.27184   6
   0  -4   7 77.2311 8.21322  10
   0  -4   7 69.0550 4.09683  12
   0  -4  -7 72.1638 5.66021  15
   0   4   7 74.5444 3.61856  12
   0   4  -7 71.5273 6.54763   7
   0   4   7 67.4779 6.37110  13
   0   4  -7 69.6703 5.39521   1
   0   4   7 74.4568 5.35548   3
  -2  -4  -7 2.05028 2.02396  15
  -2  -4  -7 -0.4668 3.53115  11
   2  -4   7 -0.0353 1.35045  12
  -2  -4  -7 -0.5670 2.76771   1
   2  -4   7 3.09019 2.53220   2
  -2  -4  -7 3.02458 2.28852   6
  -2   4  -7 2.57742 3.11007   7
   2   4   7 4.35826 1.53798  12
   2   4   7 2.49563 2.18195  14
  -2   4  -7 -1.6045 2.17220   1
   4  -4   7 46.9621 4.80683  12
  -4  -4  -7 46.2634 6.91295   1
  -4  -4  -7 53.5302 8.61462  11
  -4   4  -7 45.9382 6.80749   1
  -4   4  -7 44.5971 6.83638   7
   4   4   7 45.3788 4.19349  12
   6  -4   7 0.09786 3.10000  12
   6  -4   7 0.16683 2.63143   4
  -6  -4  -7 0.01487 5.04523  11
  -6  -4  -7 0.40033 4.41569   1
   6   4   7 3.92605 3.20451   3
   6   4   7 -0.6743 2.76245  12
  -6   4  -7 4.93714 4.42983   1
 -11  -5   7 90.4454 7.89458   5
  11  -5  -7 108.573 9.14206   9
 -11  -5   7 90.3662 7.61906   8
 -11   5   7 93.8841 8.66186   8
  11   5  -7 102.518 9.23969   4
   9  -5  -7 527.521 21.3839   9
  -9  -5   7 517.742 19.9601   5
  -9  -5   7 499.006 23.1223  16
   9   5  -7 519.455 19.4885   4
  -9   5   7 524.497 19.3774   8
   9   5  -7 532.235 22.1849   7
  -9   5   7 496.197 19.6183  13
   9   5  -7 509.285 18.4591  14
  -9   5   7 487.474 17.8832   5
   7  -5  -7 307.437 12.8329   6
   7  -5  -7 318.107 14.5506  15
   7  -5  -7 305.762 14.5019   9
  -7  -5   7 314.758 16.0166  16
  -7  -5   7 310.750 13.1571   5
   7   5  -7 303.304 13.0041   4
  -7   5   7 315.096 13.3640   8
  -7   5   7 315.316 12.7483  12
  -7   5   7 308.927 15.0769  16
   7   5  -7 316.450 12.7806  14
  -7   5   7 315.401 12.6502   5
   7   5  -7 309.105 15.0259   7
  -7   5   7 318.180 13.5558  13
   7   5  -7 307.219 12.3103   9
  -5  -5   7 1604.22 42.6751  12
  -5  -5   7 1633.47 46.4531  16
  -5  -5   7 1627.30 43.0283   5
   5  -5  -7 1550.63 43.8943   6
   5  -5  -7 1590.78 44.8270  15
   5  -5  -7 1515.17 44.0977   9
   5   5  -7 1575.50 45.2927   7
  -5   5   7 1541.30 42.3807  12
  -5   5   7 1485.31 43.8460  13
   5   5  -7 1576.53 43.2269   9
  -5   5   7 1611.26 47.2851  16
  -5   5   7 1516.13 43.0996   8
  -3  -5   7 660.481 22.3520  16
   3  -5  -7 694.097 22.8222   6
  -3  -5   7 683.441 20.5990  12
   3  -5  -7 714.246 22.8804  15
   3  -5  -7 692.082 21.9473   9
  -3  -5   7 677.837 20.4227   5
   3   5  -7 694.276 22.1378   9
  -3   5   7 671.541 22.7422  13
   3   5  -7 657.124 23.1321   7
   3   5  -7 686.332 20.6981  15
  -3   5   7 687.327 20.3203  12
  -3   5   7 696.271 21.9825   8
  -1  -5   7 1566.00 50.1000  10
  -1  -5   7 1630.00 44.9906   2
  -1  -5   7 1637.28 42.8426  12
   1  -5  -7 1630.81 46.1347   6
   1  -5  -7 1647.51 45.2478  15
  -1   5   7 1636.24 46.6203  13
   1   5  -7 1652.34 46.9487   7
  -1   5   7 1605.48 43.3209   3
  -1   5   7 1655.58 42.2299  12
  -1  -5  -7 430.046 20.3532  11
  -1  -5  -7 427.921 16.0329  15
  -1  -5  -7 448.927 17.3431   6
   1  -5   7 457.836 14.7317  12
   1  -5   7 416.255 16.1174   2
  -1   5  -7 410.348 16.2104   1
   1   5   7 436.222 16.0565   3
   1   5   7 426.138 18.0880  13
   1   5   7 425.571 13.6575  12
  -1   5  -7 436.866 17.8340   7
  -3  -5  -7 593.201 21.9276   6
   3  -5   7 621.433 19.9683  12
  -3  -5  -7 630.591 27.8774  11
   3  -5   7 592.949 21.1670   2
  -3   5  -7 625.004 24.2078   7
   3   5   7 635.884 19.3772  12
  -3   5  -7 607.175 23.3038   1
   3   5   7 634.808 22.6478   3
  -5  -5  -7 130.042 13.5506  11
   5  -5   7 129.177 8.27552  12
   5  -5   7 118.228 9.75359   4
  -5   5  -7 134.850 11.6826   7
   5   5   7 127.047 8.22959  12
   5   5   7 129.329 10.3681   3
  -5   5  -7 132.208 10.4488   1
  10  -6  -7 29.7436 6.32172   9
 -10  -6   7 27.7837 4.92991   5
  10   6  -7 27.4037 5.09914   4
 -10   6   7 21.4918 4.98530   8
  10   6  -7 27.3080 6.38025   7
  -8  -6   7 142.950 11.6882  16
   8  -6  -7 139.958 10.2834   9
  -8  -6   7 127.072 8.98091   5
   8   6  -7 118.327 7.92367  14
   8   6  -7 128.949 10.3414   7
  -8   6   7 120.568 9.02624  13
  -8   6   7 114.975 7.42274   5
  -8   6   7 121.384 8.14189   8
   8   6  -7 133.344 8.50358   4
  -8   6   7 122.237 9.20628  16
   6  -6  -7 0.15668 2.72230  15
  -6  -6   7 19.3835 5.00302  16
   6  -6  -7 7.32413 2.76406   9
   6  -6  -7 2.66773 2.53458   6
  -6  -6   7 0.13024 1.83804  12
  -6  -6   7 19.3671 3.86572   5
  -6  -6   7 1.62279 1.66918   2
  -6   6   7 3.37084 2.32747  12
  -6   6   7 5.89013 3.23213  13
   6   6  -7 0.87714 1.93909  14
   6   6  -7 3.58653 3.13151   7
  -6   6   7 1.06622 2.93423  16
   6   6  -7 3.05825 1.86001   9
  -6   6   7 1.51813 2.80474   8
   4  -6  -7 73.0397 6.60487   6
   4  -6  -7 75.1928 5.88762   9
  -4  -6   7 87.8318 5.73838   5
   4  -6  -7 67.6563 5.92377  15
  -4  -6   7 66.1596 5.39947  12
  -4  -6   7 76.6442 6.00643   2
  -4   6   7 66.1672 6.71936  13
  -4   6   7 76.9689 6.32224   8
  -4   6   7 69.0101 5.35116  12
   4   6  -7 75.2891 6.65230   7
   4   6  -7 72.4594 6.03696   9
  -2  -6   7 21.2769 3.23395  12
   2  -6  -7 13.7995 3.69142   6
  -2  -6   7 11.5476 3.52784  10
   2  -6  -7 23.1912 3.48488   9
   2  -6  -7 15.5616 3.40303  15
  -2  -6   7 14.7139 3.58185   2
   2   6  -7 12.9843 3.75794   7
  -2   6   7 16.1814 2.87188   3
  -2   6   7 12.0882 2.55972  12
  -2   6   7 12.0709 3.64657  13
   0  -6  -7 2.31094 2.60256  11
   0  -6   7 -2.2799 2.45697   2
   0  -6   7 0.36254 1.68035  12
   0  -6  -7 -1.1656 2.51552   6
   0  -6  -7 0.33131 1.78331  15
   0   6   7 0.46731 1.73567  12
   0   6  -7 5.16384 3.38994   7
   0   6   7 1.36142 1.87612   3
   0   6   7 -0.8227 1.88324  13
  -2  -6  -7 30.8169 7.04135  11
  -2  -6  -7 26.5499 4.82357   6
   2  -6   7 39.4926 5.58389   2
   2  -6   7 37.0059 4.41576  12
  -2   6  -7 38.0643 5.42227   1
   2   6   7 32.1922 5.19933   3
  -2   6  -7 52.7815 7.25187   7
   2   6   7 30.9282 3.88474  12
   2   6   7 33.7763 5.81220  13
  -4  -6  -7 -2.4612 4.87350  11
   4  -6   7 0.34389 2.36903  12
  -4   6  -7 3.80395 4.47334   7
   4   6   7 0.65588 2.61004  12
  -4   6  -7 1.40030 2.55111   1
   4   6   7 -1.0996 3.46446   3
  -9  -7   7 768.841 27.7860   5
   9  -7  -7 850.059 30.0875   9
   9   7  -7 819.732 30.9428   7
   9   7  -7 793.907 27.3110   4
  -9   7   7 824.179 27.3479   8
   7  -7  -7 245.988 13.4321  15
   7  -7  -7 220.846 10.9686   6
   7  -7  -7 230.052 12.5893   9
  -7  -7   7 216.202 11.3896   5
  -7  -7   7 228.357 13.5428  16
  -7   7   7 228.563 11.3055   8
   7   7  -7 218.555 10.8688  14
  -7   7   7 215.488 12.6911  16
  -7   7   7 209.398 10.4364   5
  -7   7   7 217.547 12.3855  13
  -7   7   7 214.555 10.8703  12
   7   7  -7 239.625 13.6800   7
   5  -7  -7 834.506 26.9701   6
  -5  -7   7 782.855 25.2028   5
  -5  -7   7 828.328 25.8873   2
  -5  -7   7 791.610 28.1560  16
   5  -7  -7 843.760 27.4498   9
  -5  -7   7 788.758 25.5593  12
   5  -7  -7 834.274 27.7924  15
   5   7  -7 840.422 28.7820   7
  -5   7   7 799.731 25.4874  12
  -5   7   7 849.870 28.0875  13
  -5   7   7 822.955 26.2487   8
   5   7  -7 806.779 25.5717   9
  -5   7   7 816.034 29.2884  16
   3  -7  -7 171.315 9.68999  15
   3  -7  -7 160.531 10.0474   6
  -3  -7   7 168.331 9.43389   2
  -3  -7   7 154.163 8.36909  12
   3  -7  -7 147.689 8.23344   9
   3   7  -7 163.608 10.4478   7
  -3   7   7 152.485 8.83077   8
  -3   7   7 170.494 8.59073  12
  -3   7   7 156.426 10.2938  13
  -1  -7   7 593.910 19.7970  12
   1  -7  -7 633.125 22.7329   6
   1  -7  -7 592.954 20.6817  15
  -1  -7   7 559.960 20.7156   2
  -1   7   7 575.255 22.5984  13
  -1   7   7 614.421 19.4843  12
  -1   7   7 614.661 19.8376   3
   1   7  -7 613.562 22.8592   7
   1  -7   7 175.060 10.7384   2
   1  -7   7 194.264 9.52264  12
  -1  -7  -7 184.896 11.3770   6
  -1  -7  -7 183.670 13.9365  11
   1   7   7 191.395 10.5395   3
   1   7   7 176.162 11.9169  13
  -1   7  -7 191.133 11.9569   7
   1   7   7 181.785 8.86700  12
  -3  -7  -7 480.413 24.9906  11
  -3  -7  -7 467.753 19.8366   6
   3  -7   7 483.154 17.8678  12
   3  -7   7 458.077 18.6774   2
  -3   7  -7 475.694 20.4367   1
   3   7   7 477.832 19.4195   3
   3   7   7 477.839 17.2031  12
  -3   7  -7 459.973 20.8299   7
  -5  -7  -7 254.811 21.9623  11
   5  -7   7 211.698 14.5108   4
   5  -7   7 232.527 12.2751  12
   5   7   7 229.543 13.1000  12
  -5   7  -7 226.928 13.9237   1
  -5   7  -7 219.587 16.6490   7
 -10  -8   7 57.6649 7.56446   5
  10   8  -7 67.2347 9.38257   7
 -10   8   7 54.8197 6.72935   8
   8  -8  -7 302.715 16.3046   9
  -8  -8   7 342.142 15.4366   5
   8   8  -7 313.164 17.2138   7
   8   8  -7 380.000 17.8136  14
  -8   8   7 309.111 14.2752   8
   6  -8  -7 111.667 9.12123   9
   6  -8  -7 116.168 8.83757  15
  -6  -8   7 102.167 9.70472  16
  -6  -8   7 114.476 7.52529   2
  -6  -8   7 109.453 7.85186   5
   6  -8  -7 113.482 7.84279   6
  -6   8   7 110.845 8.46741   8
  -6   8   7 103.688 8.90985  16
   6   8  -7 94.3554 9.48278   7
  -6   8   7 99.6584 8.99030  13
  -6   8   7 100.024 7.41171  12
  -4  -8   7 466.179 17.6906   2
   4  -8  -7 489.713 19.2383  15
   4  -8  -7 472.650 19.1320   6
   4  -8  -7 486.098 18.3170   9
  -4  -8   7 473.276 17.5927  12
  -4   8   7 464.539 17.7821   8
  -4   8   7 468.413 17.4213  12
  -4   8   7 482.869 20.0961  13
   4   8  -7 468.699 19.7774   7
   2  -8  -7 334.905 15.8482   6
   2  -8  -7 328.644 14.4586  15
  -2  -8   7 333.293 14.7542   2
  -2  -8   7 336.533 13.8219  12
  -2   8   7 327.019 13.3840  12
  -2   8   7 329.767 13.1547   3
  -2   8   7 313.520 15.9231  13
   2   8  -7 317.386 15.8887   7
   2   8  -7 339.751 12.9202   3
   0  -8  -7 172.375 9.64931  15
   0  -8   7 199.071 10.1445  12
   0  -8  -7 201.496 12.2479   6
   0  -8   7 208.296 11.7563   2
   0   8  -7 208.029 12.1352   7
   0   8   7 188.989 10.4739   3
   0   8   7 202.558 9.86303  12
   0   8   7 179.215 11.8065  13
   2  -8   7 392.088 16.9695   2
   2  -8   7 375.152 15.7066  12
  -2  -8  -7 374.447 17.8635   6
  -2  -8  -7 372.663 21.8524  11
  -2   8  -7 398.217 19.0226   7
   2   8   7 393.083 15.3264  12
   2   8   7 388.471 16.9660   3
   4  -8   7 67.1287 6.78865  12
  -4  -8  -7 53.9525 11.2404  11
   4   8   7 68.5467 6.42516  12
   4   8   7 53.7882 7.26998   3
  -4   8  -7 54.0231 7.76475   1
  -4   8  -7 65.4806 9.27031   7
  -9  -9   7 20.5592 5.06656   5
   9  -9  -7 16.3115 4.62892   9
   9   9  -7 29.4695 6.60461   7
  -7  -9   7 788.225 27.3744   5
   7  -9  -7 823.098 29.8870  15
   7  -9  -7 836.730 29.8653   9
  -7   9   7 835.905 27.6474   8
   7   9  -7 813.494 30.8289   7
   5  -9  -7 97.2526 8.03052  15
  -5  -9   7 97.1509 7.08874   5
   5  -9  -7 94.6195 8.26171   6
   5  -9  -7 95.1031 8.12706   9
  -5  -9   7 82.4538 7.40263   2
  -5   9   7 105.322 7.71399  12
   5   9  -7 88.9812 9.16771   7
  -5   9   7 99.3905 8.07130   8
  -5   9   7 71.8999 8.21492  13
   3  -9  -7 1622.46 48.1090   6
  -3  -9   7 1563.94 45.9370  12
   3  -9  -7 1618.10 47.1492  15
  -3  -9   7 1615.93 46.8517   2
  -3   9   7 1580.90 48.8465  13
  -3   9   7 1611.22 45.8340  12
  -3   9   7 1610.84 46.5986   8
   3   9  -7 1640.75 49.4279   7
   1  -9  -7 105.807 9.74353   6
  -1  -9   7 105.412 9.00057   2
  -1  -9   7 105.003 7.72656  12
   1  -9  -7 109.605 7.34210  15
   1   9  -7 114.368 9.28205   7
  -1   9   7 100.979 7.79783   3
  -1   9   7 105.633 7.61199  12
  -1   9   7 116.692 10.3893  13
   1  -9   7 1137.58 35.5927  12
   1  -9   7 1118.92 36.8703   2
  -1  -9  -7 1134.12 38.3246   6
   1   9   7 1182.91 36.2074   3
   1   9   7 1198.98 35.4737  12
  -1   9  -7 1172.17 38.6268   7
  -3  -9  -7 20.4754 7.88867  11
  -3  -9  -7 17.6328 4.40765   6
   3  -9   7 12.2753 4.80703   2
   3  -9   7 21.9381 4.44635  12
   3   9   7 20.5267 4.19709  12
  -3   9  -7 19.0809 5.80446   7
   3   9   7 15.7602 4.36431   3
   8 -10  -7 23.1858 5.28516   9
   8 -10  -7 22.5671 5.68670  15
  -8 -10   7 17.7988 5.01816   5
   8  10  -7 18.6444 5.83512   7
  -8  10   7 20.5678 4.15593   8
  -6 -10   7 15.5421 3.94516   5
   6 -10  -7 22.1769 5.03522  15
   6 -10  -7 21.0579 4.94715   9
   6  10  -7 20.0832 5.05992   7
  -6  10   7 17.1385 4.73206   8
   4 -10  -7 11.0533 3.78964   6
  -4 -10   7 7.64041 2.95345   2
   4 -10  -7 25.2764 4.94850  15
  -4  10   7 10.5369 3.37617   8
  -4  10   7 7.04270 3.39944  12
   4  10  -7 6.76590 4.44637   7
   2 -10  -7 0.79571 2.46527  15
  -2 -10   7 -0.5193 2.42803  12
  -2 -10   7 -0.2157 2.31620   2
   2 -10  -7 -1.7681 3.75176   6
  -2  10   7 1.73526 2.67951  12
   2  10  -7 1.77417 2.45680   3
   2  10  -7 3.34061 4.15598   7
  -2  10   7 1.98000 3.30409   3
  -2  10   7 1.23839 3.52043   8
   0 -10  -7 6.59502 4.54185   6
   0 -10   7 6.87176 3.30048  12
   0 -10   7 6.85580 4.43567   2
   0  10  -7 8.87471 5.03371   7
   0  10   7 6.37906 3.28403   3
   0  10   7 8.20828 3.17151  12
  -2 -10  -7 11.7806 4.79398   6
   2 -10   7 16.9594 4.13283  12
   2 -10   7 10.6833 4.09612   2
   2  10   7 19.3615 4.32143  12
  -2  10  -7 16.7477 5.77256   7
   2  10   7 15.1180 5.09112   3
   7 -11  -7 271.185 14.7921  15
   7  11  -7 264.551 15.7994   7
   5 -11  -7 176.964 11.5587  15
  -5 -11   7 146.630 10.3122   2
   5 -11  -7 182.410 11.7461   6
  -5  11   7 174.469 10.8691   8
   5  11  -7 166.029 11.9651   7
   3 -11  -7 207.478 11.7067  15
  -3 -11   7 194.799 11.6608   2
   3 -11  -7 203.989 13.4295   6
  -3  11   7 217.092 12.2383   8
  -3  11   7 228.172 12.3305  12
   3  11  -7 206.431 13.2247   7
  -1 -11   7 91.1479 9.59137   2
   1 -11  -7 81.7812 9.26841   6
   1  11  -7 67.7489 8.98427   7
  -1  11   7 74.0924 7.83467   8
  -1  11   7 81.8847 7.49213  12
  -1  11   7 65.7851 7.07600   3
   1 -11   7 206.936 14.3031   2
  -1 -11  -7 218.357 13.7847   6
   1  11   7 218.809 12.0315  12
  -1  11  -7 217.923 13.5163   7
  -4 -12   7 11.0920 4.58390   6
  -4 -12   7 6.78538 3.02288   2
   4 -12  -7 9.73462 4.56564   6
   4  12  -7 11.3169 5.09196   7
  -4  12   7 5.37790 3.66325   8
   2 -12  -7 67.9385 9.21848   6
  -2 -12   7 55.9476 7.68105   2
  -2  12   7 57.9117 6.59886   8
  -2  12   7 61.5204 7.26481  12
 -12   0   8 347.537 15.7434   5
 -12   0   8 375.590 16.6457   8
  12   0  -8 349.978 16.3633   4
 -10   0   8 81.5377 9.33881  11
  10   0  -8 97.1983 7.32597   4
 -10   0   8 102.724 10.1447  16
 -10   0   8 96.7215 7.93200   8
  10   0  -8 98.1800 8.23110   9
 -10   0   8 105.021 8.06649   5
   8   0  -8 1683.75 45.9846  15
   8   0  -8 1705.45 47.6948   9
   8   0  -8 1647.41 46.5712   7
  -8   0   8 1643.53 46.7427   5
   8   0  -8 1695.16 46.1627   4
  -8   0   8 1617.10 45.7137  12
  -8   0   8 1690.62 45.7948   8
  -8   0   8 1693.24 50.7642  16
   6   0  -8 444.011 16.6401   9
  -6   0   8 455.502 14.9466   8
   6   0  -8 439.823 14.8312   4
  -6   0   8 435.969 18.4454  16
   6   0  -8 423.144 15.2301   7
  -6   0   8 440.088 14.7100  12
   6   0  -8 442.719 15.7832  15
  -6   0   8 433.860 15.7468   5
   4   0  -8 3599.38 91.1467   9
  -4   0   8 3595.61 93.3629  16
  -4   0   8 3587.65 90.2188   5
   4   0  -8 3632.14 90.8380  15
  -4   0   8 3567.67 87.6950  12
  -4   0   8 3557.57 88.7027   8
   4   0  -8 3406.63 89.4373   7
   2   0  -8 270.756 11.5923  15
  -2   0   8 278.013 10.0418   8
   2   0  -8 268.120 10.9157   7
  -2   0   8 280.832 12.7197  16
  -2   0   8 275.064 7.73993  12
   2   0  -8 282.791 11.5487   9
   2   0  -8 270.133 11.0883   6
   0   0  -8 2610.05 68.1475   7
   0   0  -8 2546.06 69.4266  11
   0   0  -8 2555.42 66.9129   6
   0   0   8 2663.23 69.4987  16
   0   0  -8 2601.07 68.6464  15
   0   0  -8 2600.77 67.3037   9
   0   0  -8 2437.59 66.7877   1
   0   0   8 2641.82 72.4555  10
  -2   0  -8 8.34802 3.54213  15
  -2   0  -8 4.76093 3.00615   1
  -2   0  -8 19.9685 4.32267   7
   2   0   8 6.45850 1.07507  12
  -2   0  -8 9.50755 3.60839  11
   4   0   8 872.619 24.1290  12
  -4   0  -8 794.453 31.9881  11
   4   0   8 825.286 27.8413  14
  -4   0  -8 853.499 30.3510   1
   4   0   8 877.349 27.7178   4
 -11  -1   8 2.57193 3.39312   5
  11  -1  -8 0.90010 3.10615   9
 -11  -1   8 0.85521 3.30783   8
  11  -1  -8 2.30591 2.13911   4
 -11   1   8 3.89197 3.79258   8
 -11   1   8 -0.1071 2.69476   5
 -11   1   8 1.55071 4.62260  11
  11   1  -8 -1.3360 2.93391   4
   9  -1  -8 195.855 11.1248   9
  -9  -1   8 183.780 9.81290   8
  -9  -1   8 191.079 12.8506  16
   9  -1  -8 179.201 9.77351  15
  -9  -1   8 183.128 10.4208   5
   9  -1  -8 193.466 9.92963   4
  -9   1   8 172.276 9.43801  12
  -9   1   8 190.615 10.2916   8
   9   1  -8 196.322 10.3100   4
   9   1  -8 181.000 10.3669   9
  -9   1   8 189.998 12.6483  16
   9   1  -8 180.868 10.5723   7
  -9   1   8 180.861 10.1445   5
  -7  -1   8 6.75151 3.85230  16
  -7  -1   8 2.70603 2.00152  12
  -7  -1   8 7.67469 2.98932   5
   7  -1  -8 5.39150 2.16657  15
   7  -1  -8 10.8024 2.59166   4
  -7  -1   8 4.94263 2.42761   8
   7  -1  -8 8.17957 2.67826   9
  -7   1   8 18.2342 4.14648  16
   7   1  -8 8.13212 2.63204   4
  -7   1   8 15.3053 2.96488   5
   7   1  -8 6.27346 2.16741  15
  -7   1   8 7.62260 2.37888  12
   7   1  -8 21.4125 3.82904   7
  -7   1   8 7.21527 2.84067   8
   7   1  -8 8.57698 3.02569   9
  -5  -1   8 105.945 5.67111   8
  -5  -1   8 103.822 6.65522   5
   5  -1  -8 115.051 7.12194  15
  -5  -1   8 110.609 5.71988  12
   5  -1  -8 115.444 7.14797   9
  -5  -1   8 114.461 8.55332  16
  -5   1   8 118.275 6.98770   5
  -5   1   8 139.125 6.11447  12
   5   1  -8 99.7167 6.34707  15
  -5   1   8 120.247 8.82084  16
  -5   1   8 114.775 6.33767   8
   5   1  -8 120.627 7.50127   9
   5   1  -8 107.267 6.54119   7
  -3  -1   8 223.791 7.49641  12
   3  -1  -8 200.652 8.46667   7
  -3  -1   8 209.399 7.99257   8
  -3  -1   8 231.362 9.43264   5
  -3  -1   8 221.612 11.1499  16
   3  -1  -8 224.930 10.3149  15
   3  -1  -8 228.833 10.1942   9
   3  -1  -8 211.431 10.0361   6
   3   1  -8 229.284 10.3781   9
   3   1  -8 234.026 10.2075  15
  -3   1   8 215.393 8.86695   8
  -3   1   8 210.175 8.77069  13
  -3   1   8 218.050 11.4956  16
  -3   1   8 229.069 7.34791  12
   3   1  -8 206.847 9.50227   7
   1  -1  -8 7.04556 2.30751  15
   1  -1  -8 3.71966 2.07255   9
  -1  -1   8 6.27067 1.85324   5
  -1  -1   8 4.67070 2.98857  10
   1  -1  -8 7.57430 1.94774   7
   1  -1  -8 7.23132 2.88491  11
  -1  -1   8 5.99905 2.16775  16
  -1  -1   8 7.15757 0.78135  12
   1  -1  -8 3.50771 1.78522   1
   1   1  -8 8.61349 2.57450   9
   1   1  -8 6.92054 2.12987   7
   1   1  -8 5.57489 2.56349  15
  -1   1   8 14.2654 2.82438  13
  -1  -1  -8 257.566 11.7348   7
  -1  -1  -8 265.821 13.9690  11
  -1  -1  -8 272.204 10.9202   9
  -1  -1  -8 271.199 12.3199  15
  -1  -1  -8 255.530 10.8465   6
  -1  -1  -8 256.453 11.7116   1
   1  -1   8 247.475 14.2573  10
   1  -1   8 260.672 7.03133  12
  -1   1  -8 249.150 11.9404   7
  -1   1  -8 229.351 11.0362   1
  -1   1  -8 241.771 11.8372  15
  -3  -1  -8 14.5388 4.37928   1
   3  -1   8 19.4943 2.59017  12
  -3  -1  -8 18.6710 5.51498  11
   3   1   8 15.8892 2.10698  12
  -3   1  -8 13.5576 4.03248   1
   3   1   8 19.9217 3.61864  14
   3   1   8 20.2175 3.57272   4
  -3   1  -8 19.4961 4.84245   7
  -5  -1  -8 36.4600 7.75655  11
  -5  -1  -8 30.2210 6.29727   1
   5  -1   8 30.5977 5.87258   4
   5  -1   8 34.8891 4.49209  12
  -5   1  -8 38.9740 6.79077   1
   5   1   8 43.7317 4.53824  12
  12  -2  -8 135.548 9.31218   4
 -12  -2   8 133.174 8.96565   8
 -12  -2   8 119.887 8.83421   5
 -12   2   8 131.605 13.3992  11
 -12   2   8 144.173 10.6919   8
  12   2  -8 128.668 9.94588   4
  10  -2  -8 904.535 29.5252   4
 -10  -2   8 944.524 35.1977  16
 -10  -2   8 968.043 31.2117   5
 -10  -2   8 941.178 29.4634   8
  10  -2  -8 973.844 32.1146   9
 -10   2   8 947.045 33.9065  16
 -10   2   8 975.428 30.4719   8
 -10   2   8 950.147 30.3102   5
  10   2  -8 969.690 30.9867   4
  -8  -2   8 79.7723 6.94994   5
   8  -2  -8 106.436 7.76472  15
   8  -2  -8 109.373 6.58183   4
  -8  -2   8 110.879 7.04461  12
   8  -2  -8 113.478 8.51647   9
  -8  -2   8 98.5476 6.58210   8
  -8  -2   8 95.2544 8.56257  16
   8   2  -8 113.814 8.26594   7
  -8   2   8 107.409 7.35949   5
  -8   2   8 104.174 6.85296  12
   8   2  -8 104.183 7.45401   9
   8   2  -8 105.064 7.42676   4
  -8   2   8 102.428 9.08933  16
  -8   2   8 101.224 7.49300   8
   6  -2  -8 983.039 30.8854   9
   6  -2  -8 1013.25 28.1828   4
  -6  -2   8 1011.98 28.9073  12
  -6  -2   8 989.049 32.8614  16
   6  -2  -8 1049.99 31.0066  15
  -6  -2   8 1022.10 30.1913   5
  -6   2   8 1016.72 28.7966  12
  -6   2   8 1024.98 33.2563  16
   6   2  -8 1027.56 29.1176  15
  -6   2   8 1027.44 30.2509   5
   6   2  -8 1043.96 30.8578   9
  -6   2   8 986.973 29.3988   8
   6   2  -8 974.352 30.5835   7
  -4  -2   8 166.039 9.75245  16
   4  -2  -8 170.855 8.71321   9
   4  -2  -8 172.849 8.79425   6
  -4  -2   8 161.233 6.84723  12
  -4  -2   8 166.987 8.03282   5
   4  -2  -8 179.651 9.19729  15
  -4   2   8 170.957 8.08511   8
   4   2  -8 167.192 8.87126   9
   4   2  -8 170.150 8.27356  15
  -4   2   8 166.136 6.74618  12
  -4   2   8 153.865 7.57479  13
  -4   2   8 184.342 10.6902  16
   4   2  -8 153.862 8.45172   7
   2  -2  -8 1028.54 31.2134   9
   2  -2  -8 1057.49 32.2001  15
  -2  -2   8 1130.87 30.2725   5
   2  -2  -8 1080.36 32.1841   6
  -2  -2   8 1100.84 32.4361  16
  -2  -2   8 1097.00 28.0841  12
   2   2  -8 1108.29 32.1208  15
   2   2  -8 1089.49 32.3157   7
   2   2  -8 1117.02 32.1982   9
  -2   2   8 1064.04 31.3020  13
  -2   2   8 1077.05 27.3989  12
   0  -2  -8 437.673 15.4603   9
   0  -2  -8 482.473 19.6145  11
   0  -2  -8 432.210 15.6034   7
   0  -2  -8 437.166 16.5914   6
   0  -2  -8 461.769 17.1575  15
   0  -2   8 449.648 20.6660  10
   0  -2   8 469.643 12.5625  12
   0  -2  -8 438.110 16.3727   1
   0   2  -8 479.002 17.0304   9
   0   2   8 448.358 17.3016  13
   0   2  -8 473.615 17.4038  15
   0   2  -8 474.752 17.6675   7
   2  -2   8 850.879 26.3530   2
  -2  -2  -8 932.352 29.6030   1
   2  -2   8 874.462 23.4958  12
  -2  -2  -8 929.441 32.8535  11
  -2  -2  -8 874.909 28.2196  15
   2   2   8 876.020 26.8668  14
   2   2   8 880.185 22.2316  12
  -2   2  -8 866.761 29.4773   7
  -2   2  -8 806.864 28.2522   1
  -4  -2  -8 433.462 22.7251  11
   4  -2   8 430.219 18.1319   4
  -4  -2  -8 440.931 19.4520   1
   4  -2   8 458.076 15.0704  12
  -4   2  -8 486.919 20.6428   7
  -4   2  -8 447.942 19.7336   1
   4   2   8 436.834 14.3450  12
   4   2   8 417.777 17.4593  14
 -11  -3   8 6.04176 3.52747   8
  11  -3  -8 -0.9597 3.58727   9
 -11  -3   8 4.58604 3.66328   5
  11   3  -8 2.07106 3.27497   4
 -11   3   8 -1.2868 3.66563   8
 -11   3   8 -3.5577 2.23091   5
   9  -3  -8 119.685 9.34090   9
  -9  -3   8 107.014 7.21727   8
  -9  -3   8 120.299 10.8563  16
   9  -3  -8 127.302 9.06884  15
  -9  -3   8 104.286 8.20747   5
  -9   3   8 94.3039 8.00301   8
   9   3  -8 118.048 7.99268   4
  -9   3   8 115.625 9.83444  16
  -9   3   8 111.146 7.78347   5
   9   3  -8 116.275 8.82241   7
   9   3  -8 103.957 7.49876   9
  -7  -3   8 -0.1954 1.70183  12
  -7  -3   8 2.36539 1.81963   8
  -7  -3   8 1.87247 2.46134  16
   7  -3  -8 1.45389 2.57162  15
  -7  -3   8 -0.4187 1.78609   5
   7  -3  -8 -2.2105 1.50900   9
   7   3  -8 1.51076 1.95910   7
  -7   3   8 0.39872 2.63796   8
   7   3  -8 1.80761 2.46037   4
   7   3  -8 3.72490 2.41830   9
  -7   3   8 -0.3491 2.78510  16
  -7   3   8 2.02386 2.31647  13
  -7   3   8 0.17510 1.72023  12
  -7   3   8 0.92894 1.63063   5
   5  -3  -8 22.1401 3.89088   9
   5  -3  -8 20.0023 3.85939   6
  -5  -3   8 22.5607 3.31013   5
  -5  -3   8 27.2959 4.65941  16
   5  -3  -8 25.8347 4.03201  15
  -5  -3   8 21.0126 2.95290  12
  -5   3   8 27.5200 3.31301  12
  -5   3   8 26.7716 5.25354  16
   5   3  -8 23.9527 3.97926   9
  -5   3   8 24.7989 3.85488   8
  -5   3   8 23.5128 3.51773  13
   5   3  -8 22.1042 4.08343   7
   5   3  -8 22.4827 3.03496  15
  -3  -3   8 37.8193 4.96310  16
  -3  -3   8 53.3277 3.57350  12
  -3  -3   8 48.7684 4.06663   5
   3  -3  -8 47.3363 4.74617   9
   3  -3  -8 51.7563 5.63742  15
   3  -3  -8 44.1439 5.28603   6
  -3   3   8 55.8404 4.95903   8
   3   3  -8 42.1010 4.31683  15
  -3   3   8 41.8456 4.73507  13
  -3   3   8 47.2910 3.23724  12
   3   3  -8 48.9981 5.29877   7
   3   3  -8 44.4354 4.55754   9
   1  -3  -8 42.1020 6.32476  11
   1  -3  -8 42.4370 4.21671   9
  -1  -3   8 34.0077 6.11085  10
   1  -3  -8 40.2938 5.01761  15
  -1  -3   8 42.9988 3.05675  12
   1  -3  -8 41.2843 4.97336   6
   1   3  -8 38.8266 4.90467  15
  -1   3   8 41.9282 2.34331  12
  -1   3   8 44.1980 5.18913  13
   1   3  -8 40.3360 4.84216   9
  -1   3   8 36.9984 3.80539   3
   1   3  -8 64.7554 6.19638   7
   1  -3   8 32.9288 3.00486  12
   1  -3   8 35.2131 4.74359   2
  -1  -3  -8 31.6019 5.08656   1
  -1  -3  -8 30.2087 6.15410  11
  -1  -3  -8 54.9144 5.60608  15
   1   3   8 36.1222 5.69421  13
  -1   3  -8 27.0255 4.94772   7
  -1   3  -8 44.5649 5.10323   1
   1   3   8 33.9877 2.10364  12
  -3  -3  -8 32.2425 5.99583   1
  -3  -3  -8 22.8654 6.23389  11
  -3  -3  -8 36.2693 5.27126  15
   3  -3   8 31.5873 3.59820  12
   3   3   8 36.2298 4.92303  14
   3   3   8 30.3177 3.08990  12
  -3   3  -8 33.3192 5.61998   1
  -3   3  -8 25.6574 5.72503   7
   5  -3   8 0.38647 2.79401  12
  -5  -3  -8 1.37545 3.95887   1
  -5  -3  -8 0.88093 5.01494  11
   5  -3   8 1.87784 3.82386   4
  -5   3  -8 4.52474 3.92543   1
   5   3   8 1.30094 2.25179  12
 -12  -4   8 11.1146 3.99988   8
 -12  -4   8 6.67983 3.13426   5
  12  -4  -8 12.0675 5.73166   9
 -12   4   8 7.42764 5.62094  11
  10  -4  -8 978.646 32.8196   9
 -10  -4   8 900.724 28.6275   8
  10  -4  -8 984.235 31.9773  15
 -10  -4   8 949.590 31.0970   5
  10   4  -8 926.644 30.9751   4
 -10   4   8 882.259 29.2731   5
 -10   4   8 945.713 30.2520   8
  10   4  -8 951.823 33.4413   7
  -8  -4   8 106.525 9.63805  16
   8  -4  -8 134.179 8.90330  15
  -8  -4   8 111.909 8.37575   5
  -8  -4   8 114.467 7.52233  12
   8  -4  -8 110.587 8.39434   9
   8   4  -8 112.161 8.13644   4
  -8   4   8 113.460 7.78298  13
   8   4  -8 115.866 9.42486   7
  -8   4   8 117.225 9.55871  16
  -8   4   8 112.862 7.14607  12
  -8   4   8 119.595 7.84692   8
  -8   4   8 116.922 7.68741   5
  -6  -4   8 2263.47 60.3739   5
   6  -4  -8 2308.37 62.2719   9
  -6  -4   8 2230.51 59.5769  12
   6  -4  -8 2306.65 62.3912  15
   6  -4  -8 2378.64 61.6396   6
  -6  -4   8 2280.81 64.0227  16
  -6   4   8 2238.36 60.3597   8
   6   4  -8 2201.75 62.3820   7
  -6   4   8 2215.88 60.4717   5
  -6   4   8 2282.40 64.3096  16
   6   4  -8 2312.25 61.0447   9
  -6   4   8 2205.47 60.4084  13
  -6   4   8 2303.27 59.6138  12
   4  -4  -8 411.636 15.8163  15
   4  -4  -8 395.900 15.8629   6
  -4  -4   8 436.772 13.8633  12
  -4  -4   8 395.107 14.0183   5
  -4  -4   8 406.688 16.5421  16
   4  -4  -8 383.504 15.2440   9
  -4   4   8 385.460 14.7593   8
  -4   4   8 399.121 17.7849  16
   4   4  -8 390.693 15.9377   7
  -4   4   8 392.373 13.4006  12
   4   4  -8 406.363 15.5031   9
   4   4  -8 394.550 14.0049  15
  -4   4   8 382.572 15.1444  13
   2  -4  -8 2154.78 58.7660  15
   2  -4  -8 2183.78 59.0866   6
   2  -4  -8 2131.76 57.2618   9
  -2  -4   8 2175.28 55.2091  12
  -2   4   8 2147.60 58.7721  13
   2   4  -8 2204.51 58.7495   9
   2   4  -8 2169.00 57.8620  15
  -2   4   8 2149.63 54.4514  12
   2   4  -8 2154.01 59.5882   7
   0  -4  -8 183.970 10.2016   6
   0  -4  -8 169.958 9.29034  15
   0  -4  -8 185.046 12.5941  11
   0  -4   8 172.785 7.34407  12
   0  -4   8 173.568 9.42154   2
   0   4   8 179.381 8.82731   3
   0   4   8 169.651 10.1553  13
   0   4   8 178.611 6.41125  12
   0   4  -8 165.424 10.3553   7
  -2  -4  -8 809.642 26.1133  15
   2  -4   8 765.659 25.2462   2
  -2  -4  -8 773.437 26.1298   6
  -2  -4  -8 766.831 31.4771  11
   2  -4   8 819.021 23.3053  12
   2   4   8 779.466 28.4452  13
  -2   4  -8 800.725 27.0546   1
   2   4   8 788.738 25.9478   3
   2   4   8 805.799 22.0868  12
  -2   4  -8 799.059 28.5725   7
  -4  -4  -8 42.6781 8.92313  11
  -4  -4  -8 45.1050 7.19467   1
   4  -4   8 34.9352 4.23185  12
   4   4   8 40.3938 4.40452  12
  -4   4  -8 29.2813 6.22459   7
   4   4   8 31.4918 5.10594   3
  -4   4  -8 29.5937 5.45356   1
  11  -5  -8 267.214 15.3948   9
 -11  -5   8 271.001 14.3306   5
  11  -5  -8 270.000 14.7771  15
 -11   5   8 265.734 13.9049   8
  11   5  -8 258.358 15.8512   7
  11   5  -8 258.620 13.6690   4
   9  -5  -8 94.8411 8.91211  15
  -9  -5   8 102.039 8.38708   5
  -9  -5   8 87.1207 10.1331  16
   9  -5  -8 91.4323 8.35358   9
  -9   5   8 86.5122 7.85100   8
   9   5  -8 93.0603 9.22062   7
  -9   5   8 82.1237 9.54917  13
   9   5  -8 99.9137 8.46471   4
  -9   5   8 89.4683 6.93972   5
   7  -5  -8 405.519 17.2969   9
   7  -5  -8 388.908 15.6518   6
  -7  -5   8 377.281 18.4637  16
  -7  -5   8 358.384 14.6854  12
  -7  -5   8 390.001 15.8640   5
   7  -5  -8 414.731 17.4227  15
  -7   5   8 406.365 15.8717   8
  -7   5   8 375.025 15.6984  13
   7   5  -8 398.466 17.7147   7
  -7   5   8 373.535 14.8498  12
   7   5  -8 383.870 15.0314   9
  -7   5   8 363.473 17.7067  16
   7   5  -8 382.402 14.6338  14
  -7   5   8 402.454 15.5624   5
   5  -5  -8 216.539 10.8714   6
  -5  -5   8 212.529 12.0396  16
   5  -5  -8 203.673 10.5723   9
   5  -5  -8 209.167 11.3194  15
  -5  -5   8 210.418 9.68276   5
  -5  -5   8 208.444 9.55024  12
  -5   5   8 214.853 13.0236  16
   5   5  -8 226.584 12.1056   7
  -5   5   8 202.413 10.8107  13
  -5   5   8 214.792 10.2828   8
   5   5  -8 207.687 10.1407   9
  -5   5   8 206.071 9.44470  12
   3  -5  -8 111.733 7.19217   9
   3  -5  -8 118.462 7.67642  15
   3  -5  -8 110.892 8.24237   6
  -3  -5   8 121.293 6.45525  12
  -3  -5   8 104.157 6.06675   5
  -3  -5   8 93.3087 7.56761  16
   3   5  -8 114.453 6.85559  15
   3   5  -8 107.334 8.42488   7
   3   5  -8 121.335 8.06251   9
  -3   5   8 110.452 8.06159  13
  -3   5   8 105.793 7.53235   8
  -3   5   8 111.381 6.07489  12
   1  -5  -8 250.635 11.9282  15
   1  -5  -8 244.377 12.4871   6
  -1  -5   8 256.516 11.6278   2
  -1  -5   8 257.049 9.96133  12
   1   5  -8 238.369 12.6991   7
  -1   5   8 264.000 13.0920  13
  -1   5   8 234.815 10.2494   3
  -1   5   8 255.110 9.34260  12
  -1  -5  -8 8.04997 4.61904  11
   1  -5   8 7.05259 2.20183  12
   1  -5   8 9.74647 3.00419   2
  -1  -5  -8 10.7975 3.04810  15
  -1  -5  -8 11.4448 3.69720   6
   1   5   8 16.0903 4.36728  13
   1   5   8 10.0154 3.62426   3
   1   5   8 13.4125 2.32640  12
  -1   5  -8 16.8240 4.15387   7
   3  -5   8 57.6481 5.32391  12
  -3  -5  -8 75.2320 11.3571  11
  -3   5  -8 62.3205 7.63138   7
   3   5   8 56.0782 4.63556  12
  -3   5  -8 45.1920 6.72657   1
   3   5   8 58.9063 7.19046   3
  -5   5  -8 -0.4562 3.98310   1
  10  -6  -8 47.9962 7.44723  15
 -10  -6   8 51.1422 6.84363   5
  10  -6  -8 52.1475 7.68477   9
  10   6  -8 53.1736 7.15250   4
 -10   6   8 46.7316 6.47232   8
  10   6  -8 46.5221 7.29265   7
   8  -6  -8 1052.63 34.0206   9
   8  -6  -8 1044.85 33.6957  15
  -8  -6   8 987.043 31.6081   5
  -8  -6   8 976.819 35.5355  16
  -8   6   8 976.956 30.7476  12
  -8   6   8 969.521 32.0468  13
  -8   6   8 964.653 33.8087  16
   8   6  -8 1006.54 34.6273   7
  -8   6   8 995.892 30.6876   5
  -8   6   8 969.976 31.4187   8
   8   6  -8 985.614 30.5818  14
  -6  -6   8 16.1091 3.29732  12
   6  -6  -8 17.2401 4.20942   6
   6  -6  -8 12.6372 3.86566   9
   6  -6  -8 21.0200 4.84626  15
  -6  -6   8 19.6274 5.03194  16
  -6  -6   8 16.7566 3.63249   2
  -6  -6   8 17.2614 3.86014   5
  -6   6   8 18.4765 4.39080  13
  -6   6   8 27.2369 4.83573   8
   6   6  -8 21.0714 5.09826   7
   6   6  -8 16.6367 3.84467   9
  -6   6   8 16.8123 3.51374  12
  -6   6   8 18.1745 4.41967  16
  -4  -6   8 1232.22 36.3181   2
  -4  -6   8 1196.78 34.7476   5
   4  -6  -8 1278.76 38.0980  15
   4  -6  -8 1316.94 37.4484   9
   4  -6  -8 1277.99 38.0297   6
  -4  -6   8 1200.12 35.3433  12
  -4  -6   8 1183.56 37.4465  16
  -4   6   8 1261.16 35.1116  12
  -4   6   8 1216.22 37.6484  13
   4   6  -8 1224.97 38.6443   7
   4   6  -8 1256.96 36.9821   9
  -4   6   8 1243.80 36.4583   8
  -2  -6   8 31.6423 4.07329  12
   2  -6  -8 34.1262 4.88273  15
   2  -6  -8 30.7857 4.07540   9
   2  -6  -8 39.6563 5.41475   6
  -2  -6   8 30.6093 4.91266   2
  -2   6   8 28.5115 3.61558  12
   2   6  -8 29.3166 5.40201   7
  -2   6   8 23.3042 4.74478  13
   0  -6   8 1132.45 35.5584   2
   0  -6  -8 1182.30 35.6204  15
   0  -6   8 1187.50 33.5904  12
   0  -6  -8 1177.47 37.2851   6
   0   6   8 1180.89 38.0110  13
   0   6   8 1188.28 34.5623   3
   0   6   8 1206.44 32.6974  12
   0   6  -8 1166.50 37.7834   7
  -2  -6  -8 88.8911 12.0421  11
   2  -6   8 94.6101 7.03267  12
   2  -6   8 86.8876 7.93870   2
  -2  -6  -8 91.8283 7.82447   6
   2   6   8 75.8281 7.64880   3
   2   6   8 92.7844 8.37799  13
  -2   6  -8 86.6383 8.36919   7
   2   6   8 87.2359 5.72091  12
   4  -6   8 756.518 24.7521  12
  -4  -6  -8 749.543 33.5451  11
  -4   6  -8 746.249 28.2993   1
   4   6   8 751.713 27.0797   3
  -4   6  -8 739.301 28.5679   7
   4   6   8 713.937 23.5330  12
   9  -7  -8 -0.3727 3.55424   9
  -9  -7   8 3.32855 2.73245   5
   9  -7  -8 0.63400 3.94509  15
   9   7  -8 1.53615 3.89008   7
  -9   7   8 2.29262 3.62799   8
  -7  -7   8 75.0439 6.36997   2
  -7  -7   8 72.9982 8.77726  16
   7  -7  -8 81.9774 8.51838  15
  -7  -7   8 78.0129 7.16636   5
   7  -7  -8 55.9311 6.38182   6
   7  -7  -8 81.1699 7.54753   9
  -7   7   8 66.8092 7.75806  16
  -7   7   8 72.4110 6.10504   5
  -7   7   8 74.3824 8.06222  13
  -7   7   8 74.6842 6.66752   8
  -7   7   8 71.2650 6.39996  12
   7   7  -8 77.9870 8.46184   7
  -5  -7   8 36.8546 5.17600   2
   5  -7  -8 46.1793 6.19371   9
   5  -7  -8 38.2718 5.89229   6
  -5  -7   8 35.0275 5.80868  16
  -5  -7   8 39.7540 4.86230  12
   5  -7  -8 44.7684 6.05476  15
  -5  -7   8 43.4056 4.99872   5
   5   7  -8 35.1954 5.71600   7
   5   7  -8 30.4830 4.83560   9
  -5   7   8 36.1505 6.13545  16
  -5   7   8 44.1334 5.76802   8
  -5   7   8 43.4346 5.14253  12
  -5   7   8 39.7010 6.04809  13
   3  -7  -8 67.8723 6.89450  15
  -3  -7   8 49.9821 5.42369  12
  -3  -7   8 57.7953 6.46949   2
   3  -7  -8 59.3834 5.57328   9
   3  -7  -8 59.7910 7.21685   6
  -3   7   8 56.9867 5.31347  12
  -3   7   8 50.4177 6.47983  13
   3   7  -8 53.4683 7.17720   7
  -3   7   8 66.3856 6.90941   8
  -1  -7   8 165.220 8.90436  12
   1  -7  -8 167.952 11.1826   6
   1  -7  -8 171.312 9.62155  15
  -1  -7   8 164.563 9.84675   2
  -1   7   8 177.262 8.66089  12
  -1   7   8 165.362 10.8659  13
  -1   7   8 167.671 9.15627   3
   1   7  -8 158.403 11.2042   7
   1  -7   8 33.9693 6.00325   2
  -1  -7  -8 36.0960 6.00467   6
  -1  -7  -8 43.0594 8.73267  11
   1  -7   8 39.1746 4.89961  12
   1   7   8 34.6336 4.54183  12
  -1   7  -8 34.6529 6.58450   7
   1   7   8 35.9149 6.75718  13
   1   7   8 23.3351 4.97906   3
   3  -7   8 118.358 9.35870   2
   3  -7   8 131.607 8.98434  12
  -3  -7  -8 120.434 9.78204   6
  -3  -7  -8 137.250 14.3093  11
  -3   7  -8 144.521 11.9653   7
   3   7   8 127.372 10.1666   3
   3   7   8 134.977 8.46197  12
 -10   8   8 88.6428 9.27342   8
   8  -8  -8 609.226 24.6842  15
   8  -8  -8 620.768 24.9821   9
  -8  -8   8 644.356 23.2855   5
  -8   8   8 616.244 23.0174   8
   8   8  -8 616.503 25.4427   7
  -6  -8   8 258.874 14.9884  16
   6  -8  -8 304.457 14.9614   9
  -6  -8   8 276.852 12.8897   2
   6  -8  -8 287.497 15.1073  15
  -6  -8   8 272.824 12.6917   5
   6  -8  -8 289.986 14.1660   6
   6   8  -8 285.209 15.7582   7
  -6   8   8 280.012 14.9046  13
  -6   8   8 268.494 12.8036  12
  -6   8   8 260.491 15.1610  16
  -6   8   8 261.358 13.2864   8
   4  -8  -8 867.931 29.7732   6
   4  -8  -8 861.652 28.3345   9
   4  -8  -8 893.715 29.9039  15
  -4  -8   8 829.139 27.3972  12
  -4  -8   8 872.059 28.4235   2
  -4   8   8 856.684 30.2944  13
   4   8  -8 836.123 30.3622   7
  -4   8   8 880.026 28.4160   8
  -4   8   8 848.456 27.2118  12
  -2  -8   8 353.491 14.5596  12
   2  -8  -8 357.237 15.5383  15
   2  -8  -8 354.166 17.1712   6
  -2  -8   8 320.657 15.1966   2
  -2   8   8 354.903 14.1173  12
   2   8  -8 343.743 17.2525   7
  -2   8   8 312.864 16.7526  13
   0  -8  -8 527.219 22.1648   6
   0  -8   8 508.597 18.9463  12
   0  -8   8 530.841 20.9689   2
   0   8   8 520.088 22.7129  13
   0   8  -8 530.868 22.3368   7
   0   8   8 527.517 18.7040  12
   0   8   8 515.814 19.1832   3
   2  -8   8 191.574 11.5445   2
  -2  -8  -8 193.694 12.7301   6
   2  -8   8 187.817 10.4944  12
   2   8   8 191.135 10.1662  12
  -2   8  -8 192.948 12.8486   7
   2   8   8 202.972 12.0065   3
   9  -9  -8 9.97775 4.13578  15
   9  -9  -8 7.29526 4.81065   9
  -9  -9   8 14.8979 4.87473   5
  -9   9   8 9.79190 4.10548   8
  -7  -9   8 2.11800 3.05269   5
   7  -9  -8 -2.9837 2.88027  15
   7  -9  -8 -1.0269 2.08999   9
   7   9  -8 2.35644 3.13087   7
  -7   9   8 -6.0467 3.19532   8
  -7   9   8 0.60897 2.89371   5
   5  -9  -8 15.3099 4.17983   9
   5  -9  -8 14.5593 4.75610   6
  -5  -9   8 9.89017 3.83216   2
   5  -9  -8 17.4085 4.79207  15
  -5   9   8 21.9762 4.27331  12
  -5   9   8 17.1549 4.98572  16
  -5   9   8 13.7470 3.65949   8
   5   9  -8 11.4010 5.04323   7
  -5   9   8 16.7509 4.42074  13
  -3  -9   8 23.4713 4.36975  12
   3  -9  -8 21.7833 4.89865  15
  -3  -9   8 18.7956 4.23419   2
   3  -9  -8 21.2104 4.98206   6
  -3   9   8 15.6792 5.05202  13
  -3   9   8 22.1739 4.92311   8
   3   9  -8 19.8516 4.95768   7
  -3   9   8 16.9138 3.76337  12
  -1  -9   8 4.38685 4.13115   2
  -1  -9   8 9.75559 3.21761  12
   1  -9  -8 0.84975 3.94330   6
  -1   9   8 2.33956 2.88400  12
   1   9  -8 10.6208 5.10648   7
  -1  -9  -8 40.3782 6.88673   6
   1  -9   8 34.1774 5.10177  12
   1  -9   8 39.8189 6.65615   2
  -1   9  -8 38.3020 6.50133   7
   1   9   8 41.0277 5.30548  12
   1   9   8 33.0457 5.72842   3
  -8 -10   8 95.8062 11.0411   5
   8 -10  -8 78.6358 9.40274   9
  -8  10   8 83.7297 8.98706   8
   6 -10  -8 503.095 22.0240  15
   6 -10  -8 521.131 21.2479   6
   6 -10  -8 531.267 21.7539   9
   6  10  -8 529.053 23.5073   7
  -6  10   8 486.784 19.8849   8
  -4 -10   8 70.9609 7.68398   2
   4 -10  -8 47.5166 6.67821  15
   4 -10  -8 46.9229 7.06673   6
  -4  10   8 74.7837 7.87624   8
   4  10  -8 62.8512 8.80386   7
  -4  10   8 74.2115 6.97156  12
  -2 -10   8 605.036 23.5080   2
  -2 -10   8 538.495 21.5716  12
   2 -10  -8 665.282 25.9434   6
   2  10  -8 588.762 24.8143   7
  -2  10   8 614.183 22.3445  12
  -2  10   8 606.847 23.3074   8
   0 -10   8 21.8869 5.69680   2
   0 -10  -8 34.9051 7.14334   6
   0 -10   8 29.3752 5.12765  12
   0  10   8 38.0906 6.06630   3
   0  10  -8 31.3778 6.69959   7
   0  10   8 33.5922 5.34321  12
  -5 -11   8 72.5229 7.89716   2
   5 -11  -8 83.1847 7.87791  15
   5 -11  -8 84.4784 8.20804   6
   5  11  -8 74.7765 9.88282   7
  -5  11   8 88.3475 7.86156   8
   3 -11  -8 50.1338 7.91459   6
  -3 -11   8 62.7159 7.96923   2
   3  11  -8 44.4469 8.07603   7
  -3  11   8 55.1450 6.90545  12
  -3  11   8 53.5319 6.95264   8
  -1 -11   8 48.9143 7.94738   2
   1 -11  -8 47.5675 8.60552   6
   1  11  -8 54.0899 8.32155   7
  -1  11   8 55.5649 6.55712  12
  -1  11   8 57.1764 7.55557   8
 -12   0   9 0.03416 2.48981   8
  12   0  -9 -2.7240 2.61290   4
 -12   0   9 -0.1589 3.12290   5
 -10   0   9 -1.2094 3.51297  16
  10   0  -9 -0.9112 2.12183   9
  10   0  -9 3.44583 2.88852   4
 -10   0   9 -1.7052 1.99060   5
 -10   0   9 5.19279 3.64361   8
   8   0  -9 0.00903 2.14439  15
  -8   0   9 2.88605 2.72545   8
  -8   0   9 1.38832 2.58493   5
  -8   0   9 0.21691 1.93069  12
   8   0  -9 0.63606 2.77208   9
   8   0  -9 4.77234 2.62881   4
  -8   0   9 -2.6091 3.21878  16
  -6   0   9 -0.5375 2.24719   5
  -6   0   9 -0.4368 2.13791  16
  -6   0   9 6.33080 2.49500   8
   6   0  -9 7.06167 2.80179  15
   6   0  -9 3.64666 2.88453   9
  -6   0   9 5.92558 2.07557  12
  -4   0   9 0.92752 1.66820   8
  -4   0   9 0.70052 1.13872  12
   4   0  -9 1.22423 1.64404   7
   4   0  -9 2.02714 2.26029   9
   4   0  -9 0.60011 2.15469  15
  -4   0   9 2.47070 2.95806  16
  -4   0   9 2.31352 1.79806   5
  -2   0   9 2.56682 2.74157  16
  -2   0   9 1.28940 0.78341  12
   2   0  -9 3.06733 2.21678   6
   2   0  -9 0.09876 1.64502   7
   2   0  -9 1.60177 2.37085  15
  -2   0   9 9.74336 2.34121   8
   2   0  -9 2.09292 2.16317   9
   0   0  -9 0.82853 1.82817   6
   0   0  -9 2.10964 2.59730  15
   0   0  -9 0.05329 2.08553   1
   0   0  -9 -2.0316 1.94789   7
   0   0  -9 -0.6942 2.02761   9
  -2   0  -9 2.33986 2.81098   1
   2   0   9 1.74013 2.82832  14
   2   0   9 1.69351 1.14214  12
   4   0   9 1.35592 1.82594  12
  -4   0  -9 -1.0628 2.15020   1
   4   0   9 0.49469 3.32778   4
  11  -1  -9 301.656 15.2195   9
 -11  -1   9 276.504 14.3529   5
  11  -1  -9 284.650 13.7035   4
 -11  -1   9 298.827 14.0110   8
  11   1  -9 294.370 14.3456   4
 -11   1   9 278.366 14.0914   5
 -11   1   9 292.646 14.1421   8
  -9  -1   9 541.072 19.5965  12
   9  -1  -9 556.459 19.5758   4
   9  -1  -9 560.701 21.6048   9
  -9  -1   9 566.644 20.7890   5
  -9  -1   9 539.009 24.0326  16
  -9  -1   9 526.588 19.1329   8
   9  -1  -9 560.494 20.2843  15
  -9   1   9 543.023 19.5290  12
  -9   1   9 521.035 19.5409   8
   9   1  -9 599.754 21.5911   9
   9   1  -9 556.864 20.1738   4
  -9   1   9 547.084 23.6261  16
  -9   1   9 562.424 20.6585   5
   7  -1  -9 576.703 19.9515  15
  -7  -1   9 516.816 19.3853   5
  -7  -1   9 533.786 22.3434  16
   7  -1  -9 547.525 20.6543   9
  -7  -1   9 564.408 18.5159  12
  -7  -1   9 527.987 17.7633   8
  -7   1   9 537.858 22.4654  16
   7   1  -9 543.027 18.8176  15
   7   1  -9 540.440 20.1892   9
   7   1  -9 521.886 19.3259   7
  -7   1   9 546.193 19.5665   5
  -7   1   9 572.926 18.9229   8
  -7   1   9 551.106 18.3463  12
  -5  -1   9 944.016 28.0378   5
  -5  -1   9 897.891 25.9295   8
   5  -1  -9 927.691 28.7326  15
  -5  -1   9 926.370 31.1002  16
   5  -1  -9 916.526 28.9630   9
  -5   1   9 918.634 31.2647  16
   5   1  -9 945.172 28.2960  15
   5   1  -9 917.897 29.0189   9
   5   1  -9 867.497 27.6602   7
  -5   1   9 913.122 25.8921  12
  -5   1   9 905.238 28.1216   5
  -5   1   9 949.840 26.9741   8
   3  -1  -9 665.193 22.5114   9
  -3  -1   9 701.727 24.4097  16
   3  -1  -9 674.969 22.7427   6
  -3  -1   9 681.424 18.9247  12
  -3  -1   9 681.656 21.4221   5
   3  -1  -9 685.933 23.0569  15
   3   1  -9 675.761 22.8360   9
  -3   1   9 665.794 24.9125  16
  -3   1   9 697.616 18.7381  12
   3   1  -9 645.899 21.9381   7
   3   1  -9 699.086 22.7954  15
  -3   1   9 696.461 21.0528   8
   1  -1  -9 641.034 22.1737   6
   1  -1  -9 654.203 22.9323  15
  -1  -1   9 728.665 30.8702  10
   1  -1  -9 653.709 21.7911   9
  -1  -1   9 676.026 20.8886   5
  -1  -1   9 682.767 23.3955  16
   1  -1  -9 621.309 21.1772   7
   1   1  -9 661.742 22.9467  15
   1   1  -9 671.564 22.6488   7
  -1   1   9 650.158 24.3599  16
   1   1  -9 701.034 22.6738   9
  -1  -1  -9 516.355 19.6082  15
  -1  -1  -9 509.389 19.0506   7
  -1  -1  -9 535.855 19.7012   1
   1  -1   9 482.915 17.5023   2
   1  -1   9 515.594 13.5707  12
  -1  -1  -9 533.615 22.0486  11
  -1   1  -9 444.547 18.2798   1
   1   1   9 525.277 17.9184  14
  -1   1  -9 493.178 19.4725   7
  -1   1  -9 509.206 20.0979  15
   3  -1   9 263.803 9.41116  12
  -3  -1  -9 257.661 16.1702  11
  -3  -1  -9 246.650 13.8202   1
   3  -1   9 250.350 12.8866   4
   3   1   9 268.583 8.92096  12
  -3   1  -9 264.067 14.5154   7
   3   1   9 250.274 12.7078  14
  12  -2  -9 111.324 9.74222   9
 -12  -2   9 103.173 7.83109   8
 -12  -2   9 101.668 8.81207   5
 -12   2   9 112.944 12.3158  11
 -12   2   9 92.8264 7.86884   5
  12   2  -9 105.467 9.11758   4
 -12   2   9 89.3984 8.86034   8
  10  -2  -9 109.943 9.44763   9
 -10  -2   9 86.3906 9.36356  16
  10  -2  -9 95.5685 7.13180   4
 -10  -2   9 96.7674 8.24579   5
 -10  -2   9 93.5746 6.89552   8
  10   2  -9 85.8041 7.22781   4
  10   2  -9 96.0960 8.49460   7
  10   2  -9 86.3612 7.74075   9
 -10   2   9 93.7335 7.54733   8
 -10   2   9 100.053 7.51236   5
   8  -2  -9 161.817 10.1168   9
  -8  -2   9 157.190 9.75654   5
   8  -2  -9 162.330 9.92231  15
  -8  -2   9 165.458 8.93331  12
  -8  -2   9 153.011 8.21028   8
   8  -2  -9 152.423 8.09762   4
  -8  -2   9 152.048 11.3151  16
  -8   2   9 169.724 11.9002  16
   8   2  -9 153.965 9.75681   9
  -8   2   9 154.049 9.34337   5
  -8   2   9 162.971 8.86093  12
  -8   2   9 151.267 9.27910   8
   8   2  -9 148.240 8.92639   4
   8   2  -9 146.528 9.64340   7
  -6  -2   9 213.814 12.9611  16
   6  -2  -9 220.823 11.4799   9
  -6  -2   9 206.953 9.35583  12
  -6  -2   9 214.484 10.3583   5
   6  -2  -9 212.490 10.7651  15
  -6   2   9 225.246 10.8060   5
  -6   2   9 227.308 10.1681   8
   6   2  -9 198.446 10.5938   7
  -6   2   9 227.411 13.2528  16
  -6   2   9 213.186 9.32260  12
   6   2  -9 208.759 11.0229   9
   6   2  -9 215.477 9.96121  15
   4  -2  -9 157.888 9.10112   9
  -4  -2   9 153.805 9.96838  16
  -4  -2   9 154.260 8.11864   5
  -4  -2   9 148.504 6.73695  12
   4  -2  -9 147.908 9.12385  15
   4  -2  -9 159.222 9.02898   6
   4   2  -9 160.447 9.32412   9
   4   2  -9 149.967 8.47226  15
   4   2  -9 144.080 8.65330   7
  -4   2   9 147.837 10.5773  16
  -4   2   9 150.801 6.69056  12
  -4   2   9 153.144 8.12193   8
  -2  -2   9 253.194 10.0903   5
   2  -2  -9 237.952 11.5590   6
   2  -2  -9 243.511 10.9565   9
  -2  -2   9 239.620 11.7023  16
  -2  -2   9 253.957 8.25147  12
   2  -2  -9 246.860 12.0577  15
   2   2  -9 243.489 11.5137   7
   2   2  -9 244.425 11.3420   9
  -2   2   9 182.868 11.2760  13
  -2   2   9 241.746 7.55158  12
   2   2  -9 249.617 11.6866  15
  -2   2   9 243.969 13.1174  16
   0  -2  -9 144.830 8.57893   6
   0  -2  -9 145.787 8.62743   1
   0  -2  -9 155.006 11.0328  11
   0  -2   9 150.532 5.60151  12
   0  -2  -9 151.497 8.04485   9
   0  -2  -9 160.383 9.36624  15
   0   2  -9 150.871 9.20615   9
   0   2  -9 152.380 9.85293  15
   0   2   9 141.783 8.84049  13
  -2  -2  -9 122.157 11.1715  11
   2  -2   9 129.263 5.77460  12
  -2  -2  -9 133.572 9.67147   1
  -2  -2  -9 141.516 9.48837  15
  -2   2  -9 107.870 8.48320   1
   2   2   9 127.678 4.71825  12
  -2   2  -9 140.130 10.3746   7
  -4  -2  -9 113.041 9.56777   1
   4  -2   9 114.614 8.76408   4
   4  -2   9 114.860 6.82913  12
  -4   2  -9 107.993 9.59450   1
   4   2   9 123.803 6.44056  12
 -11  -3   9 24.5025 4.11459   8
 -11  -3   9 27.3971 5.58772   5
  11  -3  -9 27.9283 5.73014   9
 -11   3   9 28.0486 5.10392   8
  11   3  -9 30.5574 5.92163   7
  11   3  -9 33.0023 5.19993   4
 -11   3   9 25.6485 4.87678   5
   9  -3  -9 1066.16 33.4977  15
  -9  -3   9 1013.38 36.8891  16
   9  -3  -9 1071.41 34.2952   9
  -9  -3   9 971.186 32.3338   5
   9   3  -9 1004.47 33.9807   7
  -9   3   9 984.824 31.2512  12
   9   3  -9 1050.31 32.2317   9
  -9   3   9 990.254 31.6112   8
  -9   3   9 1004.88 35.6582  16
  -9   3   9 1000.52 32.0317   5
   9   3  -9 1026.21 32.3447   4
  -7  -3   9 33.4446 4.74279   5
  -7  -3   9 33.7123 4.18799  12
   7  -3  -9 35.8034 5.52347  15
  -7  -3   9 35.4657 6.52590  16
   7  -3  -9 42.1365 5.85576   9
  -7   3   9 34.5950 4.30154  12
  -7   3   9 33.0452 4.77496   5
  -7   3   9 40.4465 6.30532  16
   7   3  -9 27.3591 4.79408   7
   7   3  -9 27.0743 4.80192   9
  -7   3   9 35.9299 5.28933   8
  -5  -3   9 1668.49 46.2504   5
   5  -3  -9 1672.88 47.8480   9
  -5  -3   9 1638.80 44.7767  12
  -5  -3   9 1631.10 49.2153  16
   5  -3  -9 1733.91 48.1399   6
   5  -3  -9 1725.04 48.2612  15
   5   3  -9 1627.69 47.8578   7
  -5   3   9 1701.39 44.8396  12
  -5   3   9 1685.44 50.7402  16
  -5   3   9 1676.90 46.0074   8
   5   3  -9 1687.80 45.9249  15
   5   3  -9 1717.38 47.7060   9
   3  -3  -9 122.509 8.49437   6
  -3  -3   9 124.911 8.51967  16
  -3  -3   9 129.855 6.04725  12
  -3  -3   9 126.995 6.90312   5
   3  -3  -9 109.544 7.42353   9
   3  -3  -9 115.675 8.16633  15
  -3   3   9 129.852 7.82831  13
  -3   3   9 106.186 7.45901   8
   3   3  -9 127.920 7.56411  15
  -3   3   9 117.928 5.67905  12
  -3   3   9 118.263 9.24758  16
   3   3  -9 109.435 7.84636   9
   3   3  -9 133.049 8.64465   7
  -1  -3   9 1551.24 39.9084  12
   1  -3  -9 1522.10 42.8743   9
   1  -3  -9 1541.69 44.9935  15
   1  -3  -9 1558.10 45.0233   6
   1   3  -9 1558.26 44.9111  15
  -1   3   9 1535.48 38.6234  12
   1   3  -9 1528.02 45.3914   7
   1   3  -9 1599.52 44.9703   9
  -1  -3  -9 155.429 9.54489   6
  -1  -3  -9 167.288 12.7019  11
  -1  -3  -9 160.734 9.81918  15
   1  -3   9 153.666 9.20697   2
   1  -3   9 163.327 6.79961  12
   1   3   9 141.018 10.1672  13
   1   3   9 160.611 5.42492  12
  -1   3  -9 149.079 10.6452   7
  -3  -3  -9 778.795 28.2255   1
  -3  -3  -9 776.866 32.1536  11
   3  -3   9 731.030 22.2541  12
  -3   3  -9 715.983 27.9432   7
   3   3   9 765.550 21.1701  12
  -3   3  -9 696.520 26.5697   1
  10  -4  -9 140.546 10.5841   9
  10  -4  -9 140.541 10.6336  15
 -10  -4   9 130.085 9.26880   5
 -10   4   9 130.407 10.0487   8
  10   4  -9 128.474 10.2756   7
 -10   4   9 129.827 8.51911   5
  10   4  -9 139.692 9.48976   4
  -8  -4   9 240.198 12.5533   5
  -8  -4   9 245.366 11.7289  12
   8  -4  -9 278.605 14.1372  15
  -8  -4   9 252.346 15.0528  16
   8  -4  -9 266.974 13.9088   9
  -8   4   9 244.008 12.1801   5
  -8   4   9 250.882 14.3140  16
   8   4  -9 246.159 13.5244   7
   8   4  -9 261.316 12.4891   9
  -8   4   9 242.548 11.6168  12
  -8   4   9 267.269 12.4947   8
   6  -4  -9 409.456 16.7503   6
  -6  -4   9 378.658 17.8701  16
  -6  -4   9 394.613 14.7004  12
   6  -4  -9 420.553 16.9679   9
   6  -4  -9 421.571 17.3561  15
  -6  -4   9 384.994 15.3851   5
   6   4  -9 379.572 16.8137   7
   6   4  -9 389.887 16.0392   9
  -6   4   9 400.642 15.7829   5
  -6   4   9 379.703 15.5085   8
  -6   4   9 390.175 14.5258  12
  -6   4   9 380.398 18.3956  16
  -4  -4   9 223.795 9.95973   5
  -4  -4   9 205.365 11.3405  16
   4  -4  -9 214.357 11.5601  15
   4  -4  -9 211.375 11.0010   9
   4  -4  -9 217.081 11.4465   6
  -4  -4   9 227.549 9.34266  12
   4   4  -9 223.584 10.3097  15
  -4   4   9 205.950 10.7078  13
  -4   4   9 228.972 13.9624  16
   4   4  -9 219.743 11.9110   7
  -4   4   9 218.908 10.7921   8
   4   4  -9 224.096 11.0367   9
  -4   4   9 212.701 9.20379  12
   2  -4  -9 382.540 16.2662  15
   2  -4  -9 388.704 16.7260   6
   2  -4  -9 387.447 14.9869   9
  -2  -4   9 386.629 13.0937  12
  -2   4   9 395.719 12.5116  12
   2   4  -9 381.443 16.7802   7
   2   4  -9 408.503 16.5341   9
  -2   4   9 379.854 16.0515  13
   2   4  -9 390.977 15.6551  15
   0  -4  -9 140.095 9.14037  15
   0  -4   9 151.893 6.91770  12
   0  -4  -9 141.160 9.59132   6
   0  -4   9 147.884 9.31238   2
   0  -4  -9 156.854 11.7101  11
   0   4   9 143.474 5.86543  12
   0   4  -9 143.584 10.1924   7
   0   4   9 166.236 11.0834   3
   0   4   9 137.852 9.85426  13
  -2  -4  -9 101.586 11.4081  11
  -2  -4  -9 107.213 8.21342  15
   2  -4   9 120.100 6.75352  12
   2  -4   9 95.7568 10.1297   2
   2   4   9 105.959 5.37204  12
   2   4   9 101.388 8.55690   3
  -2   4  -9 97.6708 9.68936   7
   4  -4   9 74.7083 6.20680  12
   4  -4   9 73.1855 8.23238   4
  -4  -4  -9 82.7646 11.3308  11
   4   4   9 79.9297 5.64285  12
  -4   4  -9 91.1160 9.88484   7
   4   4   9 86.2054 9.16253   3
  11  -5  -9 426.765 20.1983   9
  11  -5  -9 386.895 18.3866  15
 -11  -5   9 395.575 17.8697   5
 -11   5   9 415.244 18.0870   8
  11   5  -9 410.002 18.1364   4
  11   5  -9 426.205 20.7405   7
  -9  -5   9 324.439 15.4704   5
   9  -5  -9 374.187 17.3209  15
   9  -5  -9 367.809 17.8376   9
  -9   5   9 364.608 15.4380   5
   9   5  -9 357.955 17.7291   7
  -9   5   9 360.932 16.0857   8
   7  -5  -9 816.014 27.7104   6
  -7  -5   9 845.840 27.5699   5
  -7  -5   9 832.159 26.6629  12
  -7  -5   9 808.166 30.5950  16
   7  -5  -9 881.171 29.7512   9
   7  -5  -9 892.232 29.8214  15
  -7   5   9 825.012 31.1072  16
   7   5  -9 853.072 30.2433   7
   7   5  -9 847.742 27.2989   9
  -7   5   9 823.118 27.2901   8
  -7   5   9 801.204 27.3036   5
  -7   5   9 853.792 26.7627  12
  -5  -5   9 461.546 16.8483   5
  -5  -5   9 484.459 16.4901  12
   5  -5  -9 460.684 18.8378  15
   5  -5  -9 481.608 19.0069   6
  -5  -5   9 471.288 19.5794  16
   5  -5  -9 460.637 18.3609   9
  -5   5   9 443.118 20.9439  16
   5   5  -9 483.045 19.6627   7
  -5   5   9 417.586 17.5104  13
  -5   5   9 461.632 16.2223  12
  -5   5   9 437.994 17.4580   8
   5   5  -9 468.980 17.8609   9
  -3  -5   9 797.928 23.9773  12
   3  -5  -9 805.770 27.4429   6
  -3  -5   9 787.319 26.1046   2
   3  -5  -9 825.522 27.2996  15
   3  -5  -9 790.773 25.7599   9
  -3   5   9 806.513 23.5707  12
  -3   5   9 779.446 26.0765   8
   3   5  -9 767.290 27.6454   7
   3   5  -9 805.000 26.9402   9
  -3   5   9 783.029 26.6672  13
   1  -5  -9 219.259 11.4154  15
  -1  -5   9 205.293 9.12927  12
  -1  -5   9 198.530 11.2584   2
   1  -5  -9 207.439 11.6915   6
  -1   5   9 214.148 12.3493  13
   1   5  -9 217.516 12.3832   7
  -1   5   9 216.411 8.48637  12
  -1  -5  -9 418.773 21.5722  11
  -1  -5  -9 416.891 18.0288   6
  -1  -5  -9 418.549 17.2727  15
   1  -5   9 433.415 14.9521  12
   1  -5   9 399.828 16.8550   2
   1   5   9 397.190 16.4852   3
  -1   5  -9 408.445 18.7120   7
   1   5   9 429.744 13.7020  12
   1   5   9 402.684 18.5202  13
   3  -5   9 98.5934 7.32893  12
  -3  -5  -9 80.2726 11.4107  11
  -3   5  -9 79.0716 9.32533   7
   3   5   9 101.246 8.12214   3
   3   5   9 104.605 6.45136  12
  10  -6  -9 196.999 13.2858  15
  10  -6  -9 179.471 13.0422   9
 -10  -6   9 167.937 11.3687   5
 -10   6   9 184.631 11.7169   8
  10   6  -9 180.497 12.7019   7
  -8  -6   9 162.392 12.6535  16
  -8  -6   9 172.678 10.1462   5
  -8  -6   9 165.351 9.01995   2
   8  -6  -9 185.026 12.1309   9
   8  -6  -9 177.062 10.4351   6
   8  -6  -9 181.648 12.3599  15
  -8   6   9 144.922 9.56131   8
   8   6  -9 178.763 12.5271   7
  -8   6   9 158.325 9.41189   5
  -8   6   9 164.737 9.39199  12
  -8   6   9 155.079 12.0053  16
  -6  -6   9 161.154 9.17632   5
   6  -6  -9 150.970 10.1060   6
   6  -6  -9 156.991 10.1659   9
  -6  -6   9 160.384 10.8835  16
  -6  -6   9 142.707 9.11278   2
   6  -6  -9 149.673 10.7965  15
  -6   6   9 145.243 8.74041  12
   6   6  -9 149.198 9.55898   9
  -6   6   9 144.778 9.90526  13
   6   6  -9 148.442 10.4378   7
  -6   6   9 155.782 11.9218  16
  -6   6   9 147.353 9.36547   8
   4  -6  -9 332.887 14.8922   9
  -4  -6   9 358.493 14.0945  12
   4  -6  -9 353.520 15.8686  15
  -4  -6   9 327.662 14.8629   2
   4  -6  -9 365.794 16.6984   6
  -4   6   9 346.440 15.9786  13
  -4   6   9 360.792 13.6572  12
  -4   6   9 340.315 15.2559   8
   4   6  -9 365.759 15.8435   9
   4   6  -9 364.433 17.1555   7
  -2  -6   9 84.3518 6.13510  12
   2  -6  -9 84.7493 7.16721  15
   2  -6  -9 94.6305 8.61771   6
  -2  -6   9 77.1680 6.87495   2
   2   6  -9 90.1553 8.75060   7
  -2   6   9 97.7160 8.64395  13
  -2   6   9 93.5188 5.88930  12
   0  -6  -9 146.858 9.52788  15
   0  -6   9 150.560 8.36570  12
   0  -6   9 148.019 10.0426   2
   0  -6  -9 133.786 10.4064   6
   0   6   9 152.235 7.59202  12
   0   6  -9 158.899 10.9590   7
   0   6   9 152.113 11.2463  13
   2  -6   9 73.7009 7.06606   2
  -2  -6  -9 87.0061 10.3217  11
  -2  -6  -9 73.8220 8.19153   6
   2  -6   9 88.0266 6.70146  12
   2   6   9 82.9614 8.16689   3
   2   6   9 81.3873 5.90123  12
  -2   6  -9 87.1094 8.57375   7
   9  -7  -9 25.8927 5.82424   9
  -9  -7   9 37.0659 6.03092   5
   9  -7  -9 31.9260 6.86336  15
   9   7  -9 46.9237 7.04144   7
  -9   7   9 23.9924 4.50998   5
  -9   7   9 27.7868 5.39323   8
   7  -7  -9 584.821 22.3663   6
  -7  -7   9 591.186 21.1716   5
  -7  -7   9 654.282 21.6996   2
   7  -7  -9 592.887 23.5778   9
  -7  -7   9 574.544 24.7093  16
   7  -7  -9 591.669 23.8178  15
  -7  -7   9 503.640 23.2487  12
  -7   7   9 557.791 21.4699   5
  -7   7   9 598.885 21.2782  12
  -7   7   9 539.901 24.2316  16
  -7   7   9 599.536 22.1862   8
  -7   7   9 568.304 22.6282  13
   7   7  -9 608.885 21.3686   9
   7   7  -9 620.843 25.0671   7
   5  -7  -9 78.7316 7.89019  15
   5  -7  -9 69.5186 7.04812   9
  -5  -7   9 60.6988 5.98911  12
   5  -7  -9 73.2510 8.34249   6
  -5  -7   9 55.8950 6.49829   2
  -5   7   9 60.4040 7.02514  13
   5   7  -9 63.6109 8.11448   7
  -5   7   9 70.1283 8.23359  16
   5   7  -9 58.7823 6.46973   9
  -5   7   9 68.3415 7.33153   8
  -5   7   9 67.5944 6.55105  12
   3  -7  -9 926.795 31.8615   6
   3  -7  -9 932.279 31.1827  15
  -3  -7   9 950.493 30.6411   2
  -3  -7   9 904.681 28.7020  12
  -3   7   9 932.601 30.6511   8
  -3   7   9 939.116 28.4179  12
  -3   7   9 904.893 31.7882  13
   3   7  -9 943.417 32.6574   7
   1  -7  -9 166.312 10.1894  15
   1  -7  -9 174.782 11.3118   6
  -1  -7   9 165.676 10.8992   2
  -1  -7   9 161.722 9.06908  12
  -1   7   9 151.604 8.19992  12
  -1   7   9 170.265 11.7597  13
   1   7  -9 172.994 12.1935   7
   1  -7   9 810.258 25.5122  12
   1  -7   9 731.451 26.6138   2
  -1  -7  -9 771.992 28.3491   6
   1   7   9 744.769 25.8781   3
  -1   7  -9 811.999 30.2105   7
   1   7   9 773.211 24.2378  12
   8  -8  -9 51.1668 7.57379   9
   8  -8  -9 38.2869 7.28075  15
  -8  -8   9 38.4139 6.02008   5
  -8   8   9 44.2054 5.99473   8
   8   8  -9 40.5146 7.18999   7
  -8   8   9 35.7798 5.23734   5
   6  -8  -9 27.6332 5.86557  15
  -6  -8   9 28.7352 4.67843  12
   6  -8  -9 27.8063 5.25215   6
  -6  -8   9 18.6367 3.99308   5
   6  -8  -9 29.2130 5.68004   9
  -6  -8   9 20.2176 4.41626   2
  -6   8   9 19.0459 4.08576  12
  -6   8   9 31.1891 5.62264   8
   6   8  -9 22.1013 5.49156   7
   4  -8  -9 180.487 11.5279  15
   4  -8  -9 176.581 12.1608   6
  -4  -8   9 162.792 10.7136   2
  -4  -8   9 169.169 9.87863  12
  -4   8   9 164.604 10.3338   8
   4   8  -9 162.273 12.0697   7
  -4   8   9 177.505 12.1048  13
  -4   8   9 157.483 9.41063  12
   2  -8  -9 16.7786 4.18786  15
  -2  -8   9 27.4764 5.54612   2
   2  -8  -9 16.8704 5.31695   6
  -2  -8   9 23.3678 4.26673  12
   2   8  -9 14.3947 5.09726   7
  -2   8   9 14.9907 3.42545  12
  -2   8   9 26.1835 6.64207  13
  -2   8   9 16.7572 5.03349   8
   0  -8  -9 116.704 10.4628   6
   0  -8   9 117.405 8.12809  12
   0  -8   9 118.432 9.08338   2
   0   8  -9 107.896 10.4893   7
   0   8   9 105.996 7.69495  12
   2  -8   9 52.7508 7.72986   2
   2   8   9 59.8321 8.88229   3
   7  -9  -9 247.705 14.4772   9
   7  -9  -9 266.109 13.9930   6
   7  -9  -9 253.435 15.0332  15
  -7   9   9 258.232 13.3283  12
  -7   9   9 249.904 13.1691   8
   7   9  -9 232.752 15.1443   7
   5  -9  -9 667.935 25.7289   6
   5  -9  -9 654.115 25.2819  15
   5  -9  -9 640.176 23.9992   9
  -5  -9   9 605.726 22.8508  12
  -5  -9   9 628.092 23.5323   2
  -5   9   9 636.629 23.0893  12
  -5   9   9 652.814 23.7576   8
   5   9  -9 620.151 26.0535   7
  -3  -9   9 122.300 8.75147  12
  -3  -9   9 130.297 9.48971   2
   3  -9  -9 146.842 10.1492  15
   3  -9  -9 135.230 10.7018   6
  -3   9   9 138.648 9.05451  12
  -3   9   9 145.077 10.4193   8
   3   9  -9 152.778 12.0926   7
  -1  -9   9 344.371 16.8766   2
   1  -9  -9 351.421 18.2054   6
  -1  -9   9 330.065 15.0078  12
  -1   9   9 354.686 14.8451  12
   1   9  -9 348.201 18.5435   7
  -6 -10   9 1.60799 2.20655   2
   6 -10  -9 -0.6079 3.02776   9
   6 -10  -9 0.70546 3.26657  15
   6 -10  -9 2.30322 4.05014   6
  -6  10   9 -3.6072 3.26093   8
  -6  10   9 1.20403 2.70862  12
   6  10  -9 0.35931 2.84803   7
   4 -10  -9 45.0722 7.74167   6
   4 -10  -9 36.5236 5.83769  15
  -4 -10   9 37.2121 5.55066   2
  -4  10   9 36.5900 6.26343   8
  -4  10   9 46.7529 6.25521  12
   4  10  -9 33.4998 6.90408   7
  -2 -10   9 7.87334 4.57313   2
   2 -10  -9 7.05537 3.90376   6
  -2 -10   9 9.31257 3.51674  12
  -2  10   9 6.57307 3.13333  12
  -2  10   9 6.69846 3.30078   8
   2  10  -9 9.54944 5.34102   7
  12   0 -10 63.3795 6.95087   4
 -10   0  10 1305.59 41.3412   5
  10   0 -10 1393.69 40.8093   4
  10   0 -10 1392.81 42.4884   9
 -10   0  10 1338.88 40.0330   8
   8   0 -10 143.249 10.1883   9
   8   0 -10 135.760 8.93715  15
  -8   0  10 142.710 11.2306  16
  -8   0  10 148.198 9.62249   5
  -8   0  10 144.283 8.49648   8
  -8   0  10 135.997 8.25605  12
  -6   0  10 1388.78 40.7754   5
  -6   0  10 1331.29 38.5378   8
  -6   0  10 1382.16 44.4019  16
  -6   0  10 1428.46 38.8807  12
   6   0 -10 1406.46 42.0591   9
   6   0 -10 1494.69 41.7254  15
  -4   0  10 73.7531 7.33868  16
  -4   0  10 82.6240 6.49975   5
   4   0 -10 75.8607 6.96182   9
  -4   0  10 75.3347 4.70601  12
   4   0 -10 90.2814 7.42001  15
   2   0 -10 813.790 26.9620   9
  -2   0  10 827.062 28.8842  16
  -2   0  10 826.600 26.0142   5
   2   0 -10 832.416 27.7968  15
  -2   0  10 836.417 21.6664  12
   0   0 -10 42.1272 5.24698   9
   0   0 -10 46.8133 5.58183   7
   0   0 -10 45.8776 6.00031  15
   2   0  10 543.923 15.0325  12
 -11  -1  10 39.4195 6.09387   5
  11  -1 -10 47.0895 5.46532   4
 -11  -1  10 50.4220 6.40238   8
  11  -1 -10 52.4248 7.62378   9
 -11   1  10 37.9830 5.69701   5
  11   1 -10 57.5872 7.08142   4
  11   1 -10 51.3746 6.55869   9
 -11   1  10 51.6209 6.51896   8
  -9  -1  10 105.108 10.7730  16
  -9  -1  10 98.1422 6.88198   8
   9  -1 -10 119.949 9.18020   9
  -9  -1  10 104.625 7.61564  12
  -9  -1  10 102.336 8.53184   5
  -9   1  10 92.7160 8.19361   5
  -9   1  10 98.5908 7.40363  12
  -9   1  10 116.822 8.42475   8
  -9   1  10 100.524 9.73091  16
   9   1 -10 108.473 9.21479   9
  -7  -1  10 4.61713 2.51898   8
  -7  -1  10 3.79507 2.99500   5
   7  -1 -10 8.07184 3.66387   9
  -7  -1  10 1.48290 2.12638  12
  -7  -1  10 1.47375 3.82838  16
   7  -1 -10 3.79133 2.97763  15
  -7   1  10 6.51033 2.50115  12
   7   1 -10 17.1183 3.90462   9
   7   1 -10 4.46375 2.62934  15
  -7   1  10 2.01379 2.81234   8
  -7   1  10 7.59394 4.40131  16
  -7   1  10 5.38565 2.71118   5
   5  -1 -10 198.852 10.7908  15
  -5  -1  10 203.243 10.3739   5
   5  -1 -10 213.612 11.1686   9
  -5  -1  10 195.990 12.5425  16
  -5   1  10 192.342 10.3690   5
  -5   1  10 208.234 8.82283  12
   5   1 -10 191.402 10.0132   7
   5   1 -10 211.071 10.9747  15
  -5   1  10 200.958 12.8893  16
  -5   1  10 202.517 9.56806   8
   5   1 -10 211.087 11.1518   9
   3  -1 -10 11.2130 3.30704  15
  -3  -1  10 8.64022 2.87746   5
   3  -1 -10 13.8099 3.52135   9
   3  -1 -10 11.6017 3.16281   6
  -3  -1  10 11.2767 3.89197  16
  -3   1  10 11.1020 1.84336  12
   3   1 -10 11.7442 3.24079   9
   3   1 -10 12.6553 3.34363   7
  -3   1  10 13.8718 3.51747   5
   3   1 -10 14.8265 3.55005  15
  -3   1  10 7.75555 3.70770  16
  -3   1  10 10.9306 2.95244   8
   1  -1 -10 55.0168 6.80194  15
   1  -1 -10 43.8479 5.35988   9
  -1  -1  10 45.0801 2.58029  12
   1  -1 -10 46.0066 5.49781   6
   1   1 -10 52.9117 6.34683   7
  -1   1  10 38.4984 6.15762  16
   1   1 -10 41.5011 5.96294  15
   1   1 -10 51.6104 6.12661   9
  -1   1  10 39.9370 1.81208  12
  -1  -1 -10 84.6812 8.14619  15
   1  -1  10 69.4852 3.47780  12
  -1   1 -10 66.4501 6.82765   7
   3  -1  10 -0.1150 3.45909   4
  -3  -1 -10 1.27477 3.18272   1
   3  -1  10 0.61468 1.66199  12
   3   1  10 -1.3397 1.20938  12
 -10  -2  10 63.2594 7.40854   5
  10  -2 -10 69.6314 8.43544   9
 -10   2  10 58.6162 6.90240   8
 -10   2  10 55.7155 6.86872   5
  10   2 -10 57.6253 6.63113   9
  10   2 -10 51.3984 6.10994   4
   8  -2 -10 577.188 23.0937   9
   8  -2 -10 614.786 22.5647  15
  -8  -2  10 590.601 21.6841   5
  -8  -2  10 601.034 25.6542  16
  -8   2  10 599.127 20.6079  12
  -8   2  10 575.831 21.4633   5
  -8   2  10 578.764 25.0504  16
  -8   2  10 591.327 20.9585   8
   8   2 -10 570.563 21.9049   7
   8   2 -10 633.921 22.8459   9
   6  -2 -10 179.630 10.9063   9
  -6  -2  10 189.010 8.98206  12
  -6  -2  10 182.437 9.83371   5
   6  -2 -10 174.044 10.6111  15
  -6  -2  10 170.357 12.1703  16
  -6   2  10 176.625 10.0716   5
  -6   2  10 177.109 8.55204  12
   6   2 -10 158.348 9.67321   7
   6   2 -10 179.732 10.6396   9
   6   2 -10 203.147 10.1610  15
  -6   2  10 174.662 11.9448  16
  -6   2  10 200.719 9.73862   8
   4  -2 -10 1402.67 41.6957   9
   4  -2 -10 1455.50 42.5162  15
  -4  -2  10 1408.32 43.2105  16
  -4  -2  10 1465.53 38.0043  12
  -4  -2  10 1381.78 39.9032   5
   4  -2 -10 1414.81 42.0033   6
  -4   2  10 1455.64 37.5944  12
  -4   2  10 1375.73 44.7275  16
   4   2 -10 1408.96 41.6171   7
  -4   2  10 1394.54 39.8592   8
   4   2 -10 1393.24 41.0536  15
   4   2 -10 1399.34 41.7442   9
   2  -2 -10 345.189 14.5879   9
   2  -2 -10 366.335 15.7327   6
  -2  -2  10 351.585 11.1143  12
   2  -2 -10 344.931 15.4837  15
  -2   2  10 332.602 13.8106   8
  -2   2  10 348.461 10.4599  12
   2   2 -10 344.219 14.9991   7
   2   2 -10 369.857 15.4920  15
   2   2 -10 359.880 15.2486   9
  -2   2  10 331.915 16.9083  16
   0  -2  10 1223.29 30.7935  12
   0  -2 -10 1144.73 35.9981   6
   0  -2 -10 1149.11 36.8945  15
   0  -2  10 1206.83 35.5559   2
   0   2 -10 1185.24 37.3482  15
   0   2 -10 1175.10 37.5294   7
  -2  -2 -10 164.139 10.4653  15
   2  -2  10 166.429 7.02564  12
  -2   2 -10 175.999 11.9748   7
   2   2  10 175.405 6.00779  12
 -11  -3  10 3.26170 3.75508   5
  11  -3 -10 1.91112 3.00909   9
 -11   3  10 -0.8155 2.82079   8
  11   3 -10 1.03882 2.29723   4
 -11   3  10 -0.9351 2.76829   5
  -9  -3  10 11.1296 3.28170  12
   9  -3 -10 18.4120 4.81131  15
  -9  -3  10 16.5703 4.90981   5
   9  -3 -10 10.5650 4.64140   9
  -9  -3  10 8.73444 5.35177  16
  -9   3  10 16.6280 4.19981   5
  -9   3  10 11.6673 3.39362  12
   9   3 -10 11.8439 3.91008   9
   9   3 -10 9.91256 4.05222   7
  -9   3  10 10.0204 4.10839   8
  -9   3  10 14.1741 4.30408  16
   7  -3 -10 13.9584 3.68135  15
   7  -3 -10 13.7928 4.19294   9
  -7  -3  10 15.3654 4.14153   5
  -7  -3  10 19.0085 5.41384  16
  -7  -3  10 13.7619 3.28163  12
  -7   3  10 9.60449 3.94992  16
   7   3 -10 12.0912 3.85634   7
   7   3 -10 13.7122 3.61180   9
  -7   3  10 10.5553 2.96215  12
  -7   3  10 9.82135 3.26671   8
  -7   3  10 17.9404 4.10778   5
   5  -3 -10 82.6352 7.17317   6
  -5  -3  10 75.5828 5.60351  12
   5  -3 -10 87.2112 7.58423   9
  -5  -3  10 97.6119 8.78189  16
   5  -3 -10 90.7326 8.02294  15
  -5  -3  10 85.9409 6.72745   5
   5   3 -10 86.9519 6.40096  15
  -5   3  10 82.3840 8.97655  16
   5   3 -10 80.5608 7.44967   7
  -5   3  10 99.0181 7.61822   5
   5   3 -10 85.4833 7.09289   9
  -5   3  10 83.8125 6.92188   8
  -5   3  10 74.7522 5.32426  12
  -3  -3  10 0.99776 1.44967  12
   3  -3 -10 3.09809 3.17056   6
   3  -3 -10 -0.1586 2.25866   9
   3  -3 -10 0.50066 2.65349  15
  -3   3  10 2.63194 2.08049   8
  -3   3  10 -0.1704 3.40866  16
   3   3 -10 -2.9304 2.44244   9
   3   3 -10 3.39519 2.42832   7
   3   3 -10 -0.1686 2.72223  15
  -3   3  10 1.60586 1.52864  12
  -1  -3  10 22.2278 4.57734   2
   1  -3 -10 21.0934 4.41064   6
  -1  -3  10 22.7966 2.80924  12
   1  -3 -10 22.5910 4.60740  15
   1   3 -10 24.2109 5.02206  15
  -1   3  10 21.2350 2.10937  12
   1   3 -10 16.6185 4.34639   7
   1   3 -10 22.4453 4.33345   9
   1  -3  10 39.1370 3.62834  12
   1  -3  10 42.1406 5.53173   2
  -1  -3 -10 43.5536 6.33571  15
  -1  -3 -10 27.9114 6.51773  11
   1   3  10 33.3809 2.48609  12
  -1   3 -10 32.8037 5.58926   7
  -3  -3 -10 -0.6907 3.98788  11
   3  -3  10 0.19210 1.98185  12
   3   3  10 0.75809 1.51815  12
  -3   3 -10 5.62253 4.27760   7
   3   3  10 0.46522 3.59831   3
  10  -4 -10 126.701 10.4768  15
 -10  -4  10 112.404 8.88846   5
  10  -4 -10 139.665 11.2996   9
  10   4 -10 115.976 10.1391   7
 -10   4  10 122.548 9.08238   8
 -10   4  10 109.339 8.30061   5
  -8  -4  10 1248.64 38.9151   5
   8  -4 -10 1325.85 41.4472   9
  -8  -4  10 1294.70 38.2482  12
   8  -4 -10 1331.84 41.0149  15
  -8  -4  10 1241.79 43.2729  16
   8   4 -10 1307.13 41.6373   7
  -8   4  10 1324.28 39.0371   8
  -8   4  10 1214.90 42.5810  16
   8   4 -10 1318.37 39.3394   9
  -8   4  10 1304.67 38.1180  12
  -8   4  10 1269.53 39.1228   5
  -6  -4  10 54.0940 5.31172  12
  -6  -4  10 59.3219 5.57511   5
   6  -4 -10 59.9465 7.40699  15
  -6  -4  10 61.9966 8.08719  16
   6  -4 -10 74.4539 7.47421   9
   6  -4 -10 56.7342 7.16930   6
  -6   4  10 57.9218 8.00991  16
  -6   4  10 63.6648 6.78852   5
   6   4 -10 63.6566 7.35923   7
  -6   4  10 64.6768 5.54179  12
  -6   4  10 57.2435 6.41140   8
   6   4 -10 54.3202 6.26794   9
   4  -4 -10 1227.98 37.7178   9
  -4  -4  10 1261.81 35.6098   5
   4  -4 -10 1226.10 38.6576  15
  -4  -4  10 1223.90 34.6433  12
   4  -4 -10 1205.36 38.4035   6
  -4   4  10 1232.46 42.1440  16
   4   4 -10 1272.96 39.0967   7
  -4   4  10 1249.23 34.4603  12
  -4   4  10 1259.69 37.0689   8
   4   4 -10 1214.42 36.4405  15
   4   4 -10 1260.42 38.2504   9
   2  -4 -10 15.1771 4.37959  15
  -2  -4  10 7.34532 3.00377   2
   2  -4 -10 10.0513 2.97829   9
  -2  -4  10 10.4831 2.61266  12
   2  -4 -10 15.5211 4.45585   6
  -2   4  10 10.4028 3.73108   8
   2   4 -10 11.8395 3.53371   9
   2   4 -10 18.8322 4.76970   7
   2   4 -10 8.85481 3.68353  15
  -2   4  10 12.2909 2.29202  12
   0  -4  10 731.917 25.1542   2
   0  -4  10 766.607 22.1601  12
   0  -4 -10 702.990 26.1960   6
   0  -4 -10 738.086 26.0841  15
   0   4 -10 744.522 27.6924   7
   0   4  10 743.792 20.4276  12
   2  -4  10 16.6193 3.26697  12
  -2  -4 -10 15.8491 4.32342  15
  -2  -4 -10 20.4183 6.50899  11
  -2   4 -10 16.0269 5.24470   7
   2   4  10 19.6799 2.62788  12
   9  -5 -10 65.6154 8.35719  15
  -9  -5  10 48.2939 6.89890   5
   9  -5 -10 53.4199 7.58587   9
  -9   5  10 50.2096 6.16559   8
  -9   5  10 51.5446 6.07891  12
   9   5 -10 68.8150 9.00834   7
  -9   5  10 40.9602 5.69324   5
  -7  -5  10 254.461 15.5464  16
  -7  -5  10 264.531 12.8804   5
   7  -5 -10 246.362 13.6889   9
   7  -5 -10 256.264 13.5414   6
   7  -5 -10 245.964 13.7397  15
  -7  -5  10 255.838 12.1122  12
   7   5 -10 253.324 13.1178   9
  -7   5  10 243.933 15.6232  16
   7   5 -10 266.529 14.7814   7
  -7   5  10 268.328 13.4702   8
  -7   5  10 268.948 13.3421   5
  -7   5  10 264.383 12.1178  12
  -5  -5  10 85.6191 8.45459  16
   5  -5 -10 84.9065 8.17745  15
   5  -5 -10 78.5567 7.39884   6
   5  -5 -10 84.7105 7.83879   9
  -5  -5  10 76.7326 6.56710   5
  -5  -5  10 86.0730 6.38309  12
  -5   5  10 82.4511 6.08554  12
  -5   5  10 81.9413 9.30916  16
  -5   5  10 78.9971 6.89085   8
   5   5 -10 99.2365 8.94697   7
   5   5 -10 81.1792 7.91473   9
  -3  -5  10 291.889 13.9872   2
   3  -5 -10 274.056 12.8409   9
   3  -5 -10 303.863 14.9798   6
  -3  -5  10 286.021 12.0198  12
   3  -5 -10 276.128 14.3853  15
  -3   5  10 289.250 14.0442   8
  -3   5  10 288.590 14.2831  13
  -3   5  10 304.980 11.4776  12
   3   5 -10 297.134 15.0431   7
   3   5 -10 285.462 13.9921   9
  -1  -5  10 159.390 10.4419   2
  -1  -5  10 169.123 8.51477  12
   1  -5 -10 165.072 10.3267  15
   1  -5 -10 147.241 10.8320   6
  -1   5  10 164.765 7.24390  12
  -1   5  10 157.784 11.0896  13
   1   5 -10 152.139 11.2750   7
   1  -5  10 78.0532 6.13445  12
  -1  -5 -10 77.5849 7.26090  15
   1  -5  10 77.5019 7.08777   2
  -1  -5 -10 80.3198 8.61710   6
   1   5  10 68.8086 4.69431  12
  -1   5 -10 62.6448 8.40545   7
  10  -6 -10 449.866 21.3479   9
  10  -6 -10 426.537 20.6446  15
 -10  -6  10 441.868 19.3383   5
  10   6 -10 453.079 21.5040   7
 -10   6  10 457.598 18.7033   8
   8  -6 -10 42.5141 7.54817  15
  -8  -6  10 38.1775 5.97560   5
   8  -6 -10 36.7270 6.82765   9
  -8  -6  10 27.0662 4.55847   2
   8   6 -10 28.0074 6.16294   7
  -8   6  10 40.1077 5.40842  12
  -8   6  10 38.5469 5.61038   5
  -8   6  10 49.3349 6.84614   8
   8   6 -10 32.4436 5.49986   9
   6  -6 -10 980.819 33.2285  15
  -6  -6  10 965.308 30.5843   2
  -6  -6  10 936.172 29.4408  12
   6  -6 -10 922.296 31.8929   6
   6  -6 -10 920.504 31.8225   9
  -6  -6  10 934.278 29.5061   5
  -6   6  10 888.336 34.2933  16
   6   6 -10 944.511 30.9229   9
  -6   6  10 911.492 29.1950  12
  -6   6  10 893.146 30.3103   8
   6   6 -10 954.349 33.1565   7
   4  -6 -10 106.600 9.13899  15
  -4  -6  10 117.239 7.68934  12
   4  -6 -10 114.579 8.52643   9
   4  -6 -10 112.957 9.21267   6
  -4  -6  10 124.293 8.61634   2
  -4   6  10 126.450 7.62390  12
  -4   6  10 122.570 8.73529   8
   4   6 -10 117.756 10.0129   7
  -4   6  10 111.114 9.14306  13
   4   6 -10 99.9879 8.99175   9
  -4   6  10 109.203 11.0159  16
   2  -6 -10 1113.84 36.7825   6
  -2  -6  10 1113.45 32.3803  12
   2  -6 -10 1128.77 35.6631  15
  -2  -6  10 1070.23 34.6596   2
   2   6 -10 1054.45 36.6857   7
  -2   6  10 1022.45 35.8177  13
  -2   6  10 1129.41 31.6258  12
  -2   6  10 1149.01 35.4721   8
   0  -6  10 116.639 7.45564  12
   0  -6 -10 124.943 10.2305   6
   0  -6 -10 136.383 8.98059  15
   0  -6  10 102.245 9.19908   2
   0   6  10 117.430 6.61561  12
   0   6 -10 105.580 10.1308   7
  -9  -7  10 12.9962 4.48708   5
   9  -7 -10 13.2539 5.77265  15
   9  -7 -10 20.0750 5.81916   9
  -9   7  10 18.9426 5.09895   8
  -9   7  10 6.33761 3.15723   5
   9   7 -10 16.2869 4.72143   7
  -7  -7  10 47.7060 6.06593   2
   7  -7 -10 60.1336 7.82479   6
  -7  -7  10 65.4388 7.19872  12
   7  -7 -10 64.8065 8.57689  15
  -7  -7  10 59.3260 6.57751   5
   7  -7 -10 58.2599 7.49557   9
   7   7 -10 66.6916 9.07959   7
  -7   7  10 51.4095 6.28370   5
  -7   7  10 45.7147 6.29810   8
  -7   7  10 52.5399 5.92491  12
   7   7 -10 51.8809 6.09958   9
  -5  -7  10 0.59661 2.37638  12
   5  -7 -10 0.96184 2.13812   9
   5  -7 -10 4.24193 3.55210  15
  -5  -7  10 -2.0066 1.93830   2
   5  -7 -10 -1.0643 2.59469   6
  -5   7  10 2.30663 2.69023  13
  -5   7  10 0.89572 2.19983  12
   5   7 -10 -3.5379 3.16943   7
  -5   7  10 0.33661 2.65503   8
  -3  -7  10 35.8508 5.46169   2
   3  -7 -10 39.1902 6.30972   6
  -3  -7  10 33.2838 4.73770  12
   3  -7 -10 35.7163 5.87778  15
  -3   7  10 32.1333 4.71026  12
  -3   7  10 42.0811 6.65012   8
   3   7 -10 38.1815 6.36003   7
  -3   7  10 35.9313 6.48745  13
   1  -7 -10 0.08346 2.67382  15
  -1  -7  10 8.68674 4.40808   2
  -1  -7  10 3.42075 2.67481  12
   1  -7 -10 -1.9643 3.44492   6
   1   7 -10 2.14937 2.88801   7
  -1   7  10 2.66897 2.08045  12
   1  -7  10 6.77137 2.93230  12
   1  -7  10 4.98440 3.38165   2
  -1  -7 -10 6.27222 3.98505   6
  -1   7 -10 5.29476 4.39074   7
   1   7  10 2.97875 2.04988  12
   8  -8 -10 214.853 12.8339   6
   8  -8 -10 254.996 15.6435  15
  -8  -8  10 245.417 13.0115   5
   8  -8 -10 239.063 14.6887   9
  -8   8  10 239.046 12.4389   5
   8   8 -10 241.282 15.4692   7
  -8   8  10 241.533 13.4528   8
   6  -8 -10 486.310 21.1918  15
  -6  -8  10 442.741 18.3151  12
   6  -8 -10 441.374 20.2642   6
  -6  -8  10 432.289 18.6605   2
   6  -8 -10 460.253 19.7495   9
  -6   8  10 462.561 19.6862   8
  -6   8  10 464.173 18.5309  12
   6   8 -10 472.506 21.9273   7
  -4  -8  10 154.642 10.7474   2
  -4  -8  10 142.059 9.35013  12
   4  -8 -10 179.714 12.9852   6
   4  -8 -10 150.331 10.4862  15
  -4   8  10 154.477 9.41483  12
  -4   8  10 156.917 10.9964   8
   4   8 -10 146.708 12.0231   7
   2  -8 -10 386.359 18.9737   6
  -2  -8  10 347.543 16.8199   2
  -2  -8  10 377.401 15.9245  12
   2  -8 -10 370.958 17.0768  15
   2   8 -10 386.932 19.4776   7
  -2   8  10 388.475 15.3916  12
  -2   8  10 394.502 17.6266   8
   0  -8 -10 75.5187 9.04018   6
   0  -8  10 70.9939 8.49222   2
   0  -8  10 65.1611 6.46632  12
   0   8 -10 79.5977 10.1022   7
   0   8  10 68.5563 6.35995  12
   7  -9 -10 -1.0600 3.28883  15
   7  -9 -10 4.68259 3.50733   9
   7  -9 -10 2.42102 4.07158   6
  -7  -9  10 5.11111 3.25795   2
  -7   9  10 1.17843 4.36223   8
   7   9 -10 0.73951 4.17904   7
  -7   9  10 0.13977 2.58391  12
  -7   9  10 3.84002 2.56818   5
   5  -9 -10 5.15697 2.88504  15
   5  -9 -10 6.30353 3.60281   6
  -5  -9  10 8.81323 4.10401   2
  -5  -9  10 2.95066 2.10673  12
  -5   9  10 6.14663 3.20993   8
   5   9 -10 2.77465 4.05179   7
  -5   9  10 4.38217 2.98010  12
   3  -9 -10 5.53534 4.76022   6
   3  -9 -10 3.51241 2.62663  15
  -3  -9  10 5.96605 3.05229  12
  -3  -9  10 2.05742 2.73580   2
  -3   9  10 5.79408 3.16304   8
  -3   9  10 6.26363 2.97963  12
   3   9 -10 3.50371 3.28306   7
 -10   0  11 0.91962 3.43603   5
 -10   0  11 -1.7668 1.61939  12
  10   0 -11 0.67891 3.70542   9
 -10   0  11 2.18807 3.17393   8
   8   0 -11 -0.2426 2.35100   9
  -8   0  11 2.46158 3.57891   5
   8   0 -11 0.97875 2.97768  15
  -8   0  11 5.04052 3.80973  16
  -8   0  11 -1.5168 2.62242   8
  -8   0  11 -0.7668 2.22273  12
  -6   0  11 3.57473 3.23717   5
   6   0 -11 -0.0737 2.93265   9
  -6   0  11 5.94714 4.35238  16
   6   0 -11 -1.2190 2.70681  15
  -4   0  11 0.20825 1.62419  12
   4   0 -11 1.04325 2.31479  15
  -4   0  11 -0.8168 3.13923  16
   4   0 -11 2.46654 3.04166   9
  -4   0  11 0.12375 1.79244   5
   0   0 -11 2.45312 2.52542  15
 -11  -1  11 74.6096 7.84028   5
  11  -1 -11 102.470 10.5098   9
  11   1 -11 67.1390 7.94186   9
 -11   1  11 74.2950 7.14887   5
 -11   1  11 71.7225 7.58570   8
  -9  -1  11 664.302 23.5462  12
  -9  -1  11 680.171 24.8802   5
   9  -1 -11 733.216 27.0941   9
  -9   1  11 668.594 23.5872  12
  -9   1  11 702.304 25.3659   5
  -9   1  11 685.586 23.7355   8
   9   1 -11 682.033 25.9595   9
   7  -1 -11 169.287 11.3727   9
  -7  -1  11 174.590 13.1118  16
  -7  -1  11 170.849 9.11857  12
   7  -1 -11 179.179 11.1737  15
  -7  -1  11 161.961 10.2844   5
  -7   1  11 169.268 10.5298   5
  -7   1  11 167.699 12.8621  16
   7   1 -11 178.565 11.4398   9
   7   1 -11 164.969 10.1207  15
  -7   1  11 166.120 8.97481  12
  -7   1  11 153.117 9.26104   8
  -5  -1  11 752.319 22.0974  12
  -5  -1  11 704.608 27.6240  16
   5  -1 -11 719.689 25.5607   9
   5  -1 -11 733.918 25.7539  15
  -5  -1  11 699.443 24.0012   5
  -5   1  11 723.139 28.3772  16
  -5   1  11 679.663 24.3766   5
  -5   1  11 672.768 22.6640   8
   5   1 -11 716.106 25.1686  15
  -5   1  11 721.080 21.6830  12
   5   1 -11 728.603 25.8323   9
   3  -1 -11 284.120 14.3903  15
  -3  -1  11 286.416 9.79841  12
   3  -1 -11 272.769 13.1934   9
  -3  -1  11 274.627 12.3471   5
   3   1 -11 275.056 13.7239   9
  -3   1  11 273.199 15.6735  16
   3   1 -11 292.317 14.4725  15
  -3   1  11 251.922 12.7554   5
  -3   1  11 282.261 9.52997  12
   1  -1 -11 436.308 17.9651   9
  -1  -1  11 506.770 13.6223  12
   1  -1 -11 468.812 19.8070  15
   1   1 -11 486.318 19.2041   9
  -1   1  11 460.527 12.6168  12
   1   1 -11 496.383 19.2523   7
   1   1 -11 469.933 19.6238  15
   1  -1  11 257.500 8.32930  12
  -1  -1 -11 266.201 14.4933  15
  -1   1 -11 249.667 14.0135   7
 -10  -2  11 160.819 11.2757   5
  10  -2 -11 172.684 12.4774   9
 -10   2  11 173.307 11.1556   5
 -10   2  11 163.044 10.1600  12
  -8  -2  11 294.367 13.1860  12
  -8  -2  11 304.708 14.2205   5
   8  -2 -11 302.207 15.0360  15
   8  -2 -11 300.218 15.7888   9
  -8  -2  11 262.639 16.4839  16
  -8   2  11 287.662 14.2357   5
   8   2 -11 295.541 15.1385   9
  -8   2  11 302.693 13.1746  12
  -8   2  11 238.474 16.2763  16
  -8   2  11 282.138 13.4311   8
  -6  -2  11 246.486 12.5115   5
   6  -2 -11 249.928 13.6607  15
  -6  -2  11 248.402 10.9214  12
   6  -2 -11 260.170 13.8006   9
  -6  -2  11 254.250 15.2624  16
   6   2 -11 256.141 14.7337   7
  -6   2  11 237.369 15.3246  16
  -6   2  11 244.585 12.7645   5
  -6   2  11 240.369 11.8713   8
   6   2 -11 241.576 12.2269  15
   6   2 -11 249.728 13.5195   9
  -6   2  11 245.702 10.8625  12
   4  -2 -11 235.462 12.7052   6
  -4  -2  11 229.828 11.1698   5
   4  -2 -11 224.878 12.8587  15
  -4  -2  11 215.249 13.1069  16
  -4  -2  11 225.686 9.24249  12
   4  -2 -11 221.080 12.1692   9
   4   2 -11 222.827 12.4592   9
  -4   2  11 250.578 11.4065   8
   4   2 -11 213.211 12.0282  15
   4   2 -11 216.054 11.9243   7
  -4   2  11 221.642 14.4013  16
  -4   2  11 215.607 11.7524   5
  -4   2  11 221.274 9.05968  12
   2  -2 -11 221.242 12.6543  15
   2  -2 -11 212.741 11.7406   6
   2  -2 -11 218.920 11.4953   9
  -2  -2  11 225.262 8.25502  12
   2   2 -11 225.643 12.1279   9
  -2   2  11 198.628 13.5875  16
  -2   2  11 215.028 7.46419  12
   2   2 -11 211.557 11.7154   7
   2   2 -11 226.338 12.7585  15
   0  -2 -11 105.601 9.13606  15
   0  -2  11 110.136 5.16762  12
   0  -2  11 99.6483 8.08034   2
   0   2 -11 92.2342 8.77614   7
   2  -2  11 103.722 6.09136  12
  -2   2 -11 92.2587 9.67232   7
   9  -3 -11 158.624 11.3614  15
  -9  -3  11 158.879 10.7744   5
   9  -3 -11 146.077 11.6255   9
  -9  -3  11 138.300 9.11325  12
  -9   3  11 146.368 10.2022   5
   9   3 -11 154.547 10.8242   9
  -9   3  11 159.839 10.5682   8
  -9   3  11 151.158 9.44126  12
  -7  -3  11 796.385 31.2173  16
   7  -3 -11 878.157 29.9152  15
   7  -3 -11 836.519 29.8086   9
  -7  -3  11 825.210 26.4710  12
  -7  -3  11 843.870 28.0393   5
  -7   3  11 810.338 28.0605   5
  -7   3  11 832.947 27.3658   8
  -7   3  11 831.530 26.3773  12
   7   3 -11 813.739 28.8873   7
   7   3 -11 845.969 29.0722   9
  -7   3  11 787.080 31.7403  16
   5  -3 -11 196.751 11.8933   6
  -5  -3  11 186.170 12.3795  16
  -5  -3  11 200.799 9.32613  12
   5  -3 -11 206.168 12.0022   9
  -5  -3  11 191.564 10.0385   5
   5  -3 -11 208.087 12.5173  15
   5   3 -11 203.842 11.0435  15
  -5   3  11 195.693 13.4233  16
   5   3 -11 179.149 11.2978   7
  -5   3  11 185.908 10.0472   8
  -5   3  11 196.665 11.4133   5
   5   3 -11 178.489 11.4448   9
  -5   3  11 199.030 9.10317  12
   3  -3 -11 1005.63 32.0469   9
   3  -3 -11 1044.16 33.9584  15
   3  -3 -11 994.152 33.5419   6
  -3  -3  11 1016.88 28.4205  12
  -3   3  11 966.983 36.0400  16
  -3   3  11 1020.98 27.7482  12
  -3   3  11 950.037 31.0129   8
   3   3 -11 1005.02 33.5247   7
   3   3 -11 1018.07 32.4389  15
   3   3 -11 1033.86 33.1886   9
  -1  -3  11 114.378 8.86227   2
   1  -3 -11 108.033 8.42236   6
   1  -3 -11 104.099 9.01028  15
  -1  -3  11 106.202 5.70928  12
  -1   3  11 107.061 8.21820   8
   1   3 -11 114.896 9.50954   7
  -1   3  11 103.253 10.1615  16
  -1   3  11 109.096 4.71773  12
   1  -3  11 570.772 17.5816  12
  -1   3 -11 579.367 23.9087   7
 -10  -4  11 -0.4517 3.80994   5
  10  -4 -11 -1.9888 2.52141   9
  10  -4 -11 -0.5682 3.82072  15
  10   4 -11 0.75203 3.57706   7
 -10   4  11 0.67485 3.18120   5
 -10   4  11 2.50465 4.15796   8
  -8  -4  11 50.7253 6.33494   5
   8  -4 -11 57.8088 7.43702  15
   8  -4 -11 62.9891 7.76182   9
  -8  -4  11 55.0871 6.23952  12
   8   4 -11 50.8375 6.78811   9
  -8   4  11 56.6389 6.02899  12
  -8   4  11 55.5733 6.94991   8
   8   4 -11 48.9984 7.00944   7
  -8   4  11 55.5043 6.87464   5
  -6  -4  11 24.6521 4.67086   5
   6  -4 -11 23.1862 5.21161   9
  -6  -4  11 21.4897 3.99370  12
   6  -4 -11 25.4230 5.56664  15
  -6  -4  11 20.8036 5.67335  16
   6  -4 -11 33.0494 5.99984   6
   6   4 -11 27.4030 5.44254   9
  -6   4  11 21.2648 6.20948  16
   6   4 -11 27.4491 5.69939   7
  -6   4  11 18.7113 4.14492   8
  -6   4  11 30.1930 4.44292  12
  -6   4  11 25.8381 5.39175   5
   4  -4 -11 54.3340 6.67970   9
  -4  -4  11 51.3874 4.91770  12
   4  -4 -11 50.9846 6.65481  15
   4  -4 -11 52.2785 7.19948   6
   4   4 -11 55.1422 6.86956   9
   4   4 -11 55.3870 7.24451   7
   4   4 -11 58.6398 6.79705  15
  -4   4  11 54.4384 4.88654  12
  -4   4  11 66.1435 7.10690   8
  -4   4  11 47.4816 7.92432  16
   2  -4 -11 86.3758 8.58478   6
   2  -4 -11 98.1753 8.91800  15
  -2  -4  11 105.123 6.51365  12
  -2  -4  11 97.1140 8.74417   2
  -2   4  11 99.4025 8.45728   8
  -2   4  11 102.803 5.61845  12
   2   4 -11 99.5835 9.11384   7
   2   4 -11 107.519 9.02800   9
  -2   4  11 93.3802 10.4528  16
   0  -4  11 38.5849 4.18191  12
   0  -4 -11 37.2446 6.13683   6
   0  -4  11 37.0218 5.91496   2
   0  -4 -11 45.9714 6.49632  15
   0   4 -11 35.3908 6.00703   7
   0   4  11 37.8413 3.03587  12
  -9  -5  11 368.042 16.8478   5
   9  -5 -11 399.213 19.4129   9
   9  -5 -11 428.126 20.1256  15
  -9   5  11 367.763 17.0680   5
   9   5 -11 397.308 17.2593   9
  -9   5  11 392.816 17.5243   8
   9   5 -11 388.779 18.9823   7
   7  -5 -11 186.080 12.4517   9
   7  -5 -11 179.878 12.6182  15
   7  -5 -11 167.072 11.7039   6
  -7  -5  11 181.201 10.1366  12
  -7  -5  11 171.049 10.5066   5
   7   5 -11 177.133 12.2602   7
  -7   5  11 188.210 10.3361  12
   7   5 -11 167.818 10.7066   9
  -7   5  11 174.353 11.4019   8
  -7   5  11 185.187 11.0223   5
   5  -5 -11 394.414 18.6053   6
  -5  -5  11 417.456 15.5045  12
   5  -5 -11 366.409 17.0938   9
   5  -5 -11 381.992 17.9268  15
   5   5 -11 366.465 17.8347   7
   5   5 -11 387.788 17.6719   9
  -5   5  11 370.943 14.7046  12
  -5   5  11 356.829 16.2476   8
   3  -5 -11 192.329 12.4840   6
   3  -5 -11 192.557 12.1512  15
  -3  -5  11 175.790 11.3607   2
  -3  -5  11 187.689 9.45031  12
   3   5 -11 196.503 12.1905   9
   3   5 -11 166.189 11.5382   7
  -3   5  11 197.940 11.6038   8
  -3   5  11 179.138 8.73918  12
   1  -5 -11 351.436 17.1838   6
  -1  -5  11 341.878 13.2989  12
   1  -5 -11 333.084 16.1471  15
  -1  -5  11 346.196 16.2312   2
   1   5 -11 325.152 17.2707   7
  -1   5  11 333.875 11.8328  12
   8  -6 -11 0.75162 4.16411  15
  -8  -6  11 -1.7653 3.20642   5
   8  -6 -11 -1.5152 3.56062   9
  -8  -6  11 1.54251 2.10402   2
  -8  -6  11 -1.6065 2.53986  12
  -8   6  11 -1.8227 2.20425  12
  -8   6  11 -3.5820 3.83095   8
   8   6 -11 4.33275 3.70098   9
   8   6 -11 0.73645 2.57039   7
  -8   6  11 -0.0789 2.16929   5
  -6  -6  11 48.5425 5.74816  12
   6  -6 -11 42.5668 6.10161   9
  -6  -6  11 41.4760 5.69992   2
   6  -6 -11 51.6941 7.64573  15
   6  -6 -11 40.1449 7.11022   6
  -6   6  11 42.8574 6.27988   5
  -6   6  11 45.0943 5.42892  12
  -6   6  11 45.8387 6.91463   8
   6   6 -11 45.6030 7.60166   7
   6   6 -11 58.3877 7.30438   9
   4  -6 -11 46.3304 7.06352   9
  -4  -6  11 49.9112 5.64774  12
   4  -6 -11 49.3689 7.23515  15
  -4  -6  11 44.1784 6.24594   2
   4  -6 -11 49.6260 7.01093   6
  -4   6  11 45.0599 5.05394  12
  -4   6  11 46.6385 6.76071   8
   4   6 -11 44.3811 7.24395   7
  -2  -6  11 28.5640 5.26179   2
  -2  -6  11 21.4710 4.22088  12
   2  -6 -11 13.7620 4.95763   6
   2  -6 -11 23.8325 4.68129  15
   2   6 -11 16.0029 5.15226   7
  -2   6  11 20.1051 5.34544   8
  -2   6  11 22.6904 3.49813  12
   0  -6  11 105.280 7.15790  12
   0  -6 -11 105.023 9.65787   6
   0  -6  11 100.027 9.25748   2
   0  -6 -11 103.110 9.50543  15
   0   6 -11 98.6133 9.31126   7
   0   6  11 97.0587 5.95568  12
  -7  -7  11 258.135 13.4840   2
   7  -7 -11 271.118 15.7482  15
  -7  -7  11 237.961 12.6090  12
   7  -7 -11 240.759 14.0396   9
   7  -7 -11 249.103 14.7227   6
  -7   7  11 213.458 13.0250   5
  -7   7  11 257.664 12.8663  12
   7   7 -11 264.114 15.8876   7
  -7   7  11 257.281 14.4366   8
   7   7 -11 257.288 13.6365   9
   5  -7 -11 634.929 24.8210  15
   5  -7 -11 597.201 24.6563   6
  -5  -7  11 569.324 21.2923  12
  -5  -7  11 587.853 22.9948   2
   5  -7 -11 604.507 23.1955   9
   5   7 -11 604.055 25.5627   7
  -5   7  11 571.956 20.8305  12
  -5   7  11 584.458 22.9314   8
   3  -7 -11 275.936 14.4037  15
  -3  -7  11 233.236 13.7944   2
  -3  -7  11 257.082 12.2456  12
   3  -7 -11 249.180 15.1962   6
   3   7 -11 257.680 15.6727   7
  -3   7  11 236.652 13.6254   8
  -3   7  11 250.395 11.4280  12
  -1  -7  11 407.764 19.0672   2
  -1  -7  11 430.456 16.6265  12
   1  -7 -11 412.189 20.1695   6
   1  -7 -11 445.538 26.5984  15
  -1   7  11 456.245 16.0012  12
  -1   7  11 420.157 18.6846   8
   6  -8 -11 140.465 10.5885   9
  -6  -8  11 147.356 9.67960  12
   6  -8 -11 139.927 10.8045  15
   6  -8 -11 137.107 11.7428   6
  -6  -8  11 133.902 10.0664   2
  -6   8  11 128.579 9.43519  12
  -6   8  11 116.536 10.4040   8
   6   8 -11 144.845 12.1072   7
  -4  -8  11 75.8728 8.00348   2
   4  -8 -11 85.4664 8.71417  15
  -4  -8  11 78.6342 7.17407  12
   4  -8 -11 81.6210 9.77401   6
  -4   8  11 101.042 9.92783   8
  -4   8  11 80.2911 6.71594  12
   4   8 -11 80.6597 10.0262   7
 -10   0  12 9.75477 4.34354   5
 -10   0  12 18.8928 4.12162  12
  10   0 -12 23.6424 6.08856   9
  -8   0  12 1100.02 33.0379  12
   8   0 -12 1016.83 35.8017   9
  -8   0  12 1041.15 34.6027   5
   8   0 -12 1100.56 34.9450  15
   6   0 -12 40.4259 6.24806  15
  -6   0  12 28.9557 5.38428   5
  -6   0  12 17.1780 7.12702  16
  -6   0  12 38.2680 4.58928  12
   6   0 -12 39.5210 6.34076   9
  -4   0  12 1110.83 39.3927  16
   4   0 -12 1228.32 38.2511  15
   4   0 -12 1207.67 37.7590   9
  -4   0  12 1157.05 36.0916   5
   2   0 -12 3.12106 3.06574   9
   2   0 -12 8.61706 4.52394  15
  -2   0  12 11.0285 1.82238  12
   0   0 -12 1066.64 36.0374  15
  -9  -1  12 30.2596 4.79438  12
   9  -1 -12 22.1506 5.40450  15
   9  -1 -12 25.8810 5.44278   9
  -9  -1  12 22.1976 4.74870   5
  -9   1  12 28.8103 5.25660   8
   9   1 -12 26.4879 5.72711   9
  -9   1  12 23.8098 4.27554  12
  -9   1  12 30.3125 5.66483   5
  -7  -1  12 77.6395 7.26283   5
   7  -1 -12 79.7579 7.87629   9
   7  -1 -12 87.8435 9.23207  15
  -7  -1  12 73.8778 6.29393  12
   7   1 -12 79.9802 8.98066   9
   7   1 -12 64.8197 7.16805  15
  -7   1  12 81.0324 7.36989   5
   5  -1 -12 117.274 9.66918   9
  -5  -1  12 131.069 8.66747   5
  -5  -1  12 135.483 7.50909  12
  -5  -1  12 126.516 11.0866  16
   5  -1 -12 128.374 10.3346  15
   5   1 -12 131.930 9.47537   9
  -5   1  12 122.798 9.16316   5
  -5   1  12 128.515 7.01384  12
   5   1 -12 125.331 9.72976  15
   3  -1 -12 10.9810 3.70771  15
   3  -1 -12 8.57516 3.51743   9
  -3  -1  12 11.3335 2.26903  12
   3   1 -12 11.9750 4.16395   9
  -3   1  12 11.5093 3.31210   5
  -3   1  12 12.1516 2.11585  12
   3   1 -12 9.32456 4.52873  15
  -3   1  12 11.1492 4.86948  16
   1  -1 -12 118.094 9.43917  15
  -1  -1  12 126.267 5.34858  12
  -1  -1  12 121.866 9.08064   2
   1   1 -12 116.376 9.80013  15
 -10  -2  12 226.831 18.0924  12
  10  -2 -12 325.223 16.8682   9
 -10  -2  12 289.693 15.0640   5
 -10   2  12 308.443 15.4178   5
  10   2 -12 323.661 16.2763   9
 -10   2  12 301.367 14.2040  12
 -10   2  12 295.309 14.3040   8
   8  -2 -12 556.026 22.8408   9
  -8  -2  12 501.499 19.1938  12
   8  -2 -12 530.630 21.8987  15
  -8  -2  12 505.279 20.4376   5
  -8   2  12 515.605 21.0432   5
  -8   2  12 498.057 19.0584  12
   8   2 -12 519.149 21.9652   9
  -6  -2  12 507.900 20.0516   5
  -6  -2  12 534.361 18.6308  12
   6  -2 -12 535.944 22.2508  15
   6  -2 -12 561.709 22.5051   9
   6   2 -12 528.848 21.5833   9
  -6   2  12 524.896 21.0501   5
  -6   2  12 565.794 18.7304  12
   6   2 -12 539.329 20.9416  15
  -6   2  12 524.682 19.3051   8
  -4  -2  12 421.446 14.7520  12
   4  -2 -12 436.804 18.5857   9
   4  -2 -12 438.185 19.3438  15
   4   2 -12 442.922 18.8797  15
  -4   2  12 442.182 14.4977  12
  -4   2  12 419.125 18.0680   5
   4   2 -12 441.432 19.1102   9
  -2  -2  12 385.949 12.4369  12
   2  -2 -12 369.818 17.5088  15
   2   2 -12 376.171 16.8525   9
   2   2 -12 388.191 18.1771  15
  -2   2  12 331.654 15.4670   5
  -2   2  12 357.416 11.1813  12
   0  -2  12 136.240 5.96782  12
   0  -2 -12 133.362 10.4835  15
   9  -3 -12 51.4516 7.82123   9
  -9  -3  12 44.2753 6.39408   5
   9  -3 -12 50.6691 7.79791  15
  -9  -3  12 54.5436 6.03955  12
  -9   3  12 35.9173 5.98767   5
  -9   3  12 53.1184 6.06233  12
  -9   3  12 46.7208 6.50500   8
   9   3 -12 47.2934 7.31045   9
   7  -3 -12 24.4910 5.65738   9
  -7  -3  12 17.9025 3.71213  12
  -7  -3  12 18.8751 4.19597   5
   7  -3 -12 16.3066 5.55979  15
   7   3 -12 23.2161 5.36200   9
  -7   3  12 16.3085 4.17485   5
  -7   3  12 16.6013 4.66686   8
  -7   3  12 13.0754 3.27348  12
   5  -3 -12 3.56940 4.15830  15
  -5  -3  12 1.59331 2.17028  12
  -5  -3  12 5.04708 3.28834   5
   5  -3 -12 1.13779 2.42279   9
   5   3 -12 2.53392 3.59463   9
   5   3 -12 1.84599 3.16628   7
  -5   3  12 3.29499 2.12767  12
  -5   3  12 5.43018 2.87019   8
   5   3 -12 4.40927 3.50382  15
  -5   3  12 0.34088 2.39126   5
  -3  -3  12 63.2711 5.01845  12
   3  -3 -12 49.1359 6.77124   6
   3  -3 -12 48.6303 6.01067   9
   3  -3 -12 64.2937 8.04874  15
   3   3 -12 66.3481 7.91125   7
   3   3 -12 48.5336 6.93446  15
   3   3 -12 53.0172 6.80781   9
  -3   3  12 49.2754 3.94058  12
  -3   3  12 47.4895 5.53035   8
   1  -3 -12 2.72507 3.14509   6
   1  -3 -12 4.85966 3.55985  15
  -1  -3  12 -0.3823 3.30597   2
  -1  -3  12 0.10426 2.07528  12
  -1   3  12 1.84043 1.22127  12
   1   3 -12 7.10935 3.88365   7
   8  -4 -12 37.9303 6.31112   9
   8  -4 -12 37.1004 6.17810  15
  -8  -4  12 38.4237 5.46557  12
  -8  -4  12 45.6665 6.13523   5
  -8   4  12 42.9220 5.89717   5
   8   4 -12 40.5062 6.64760   9
  -8   4  12 41.4136 6.50860   8
  -8   4  12 41.4604 5.56877  12
  -6  -4  12 456.450 18.4546   5
   6  -4 -12 485.478 21.5760  15
  -6  -4  12 471.353 17.7392  12
   6  -4 -12 520.621 21.3891   9
  -6   4  12 481.525 20.3254   5
  -6   4  12 464.034 19.0776   8
  -6   4  12 475.324 17.3254  12
   6   4 -12 481.696 20.6846   9
   6   4 -12 471.356 20.6698   7
   4  -4 -12 58.0941 7.40151  15
   4  -4 -12 49.3744 7.31865   6
   4  -4 -12 48.2588 6.36964   9
  -4  -4  12 65.1103 5.57851  12
  -4   4  12 54.1488 4.62021  12
  -4   4  12 44.7171 6.26312   8
   4   4 -12 51.4706 7.28705   7
   4   4 -12 57.4022 7.33350   9
   4   4 -12 46.7426 6.26017  15
   2  -4 -12 608.564 24.1294  15
   2  -4 -12 638.907 24.9085   6
  -2  -4  12 592.012 23.2473   2
  -2  -4  12 618.893 19.7597  12
  -2   4  12 629.440 23.0676   8
   2   4 -12 637.924 25.2192   7
  -2   4  12 595.009 18.2323  12
  -9  -5  12 16.7914 5.11565   5
  -9   5  12 15.1438 4.25331  12
   9   5 -12 17.7599 5.79439   7
  -7  -5  12 5.04739 2.92094  12
   7  -5 -12 1.47892 4.37320  15
   7  -5 -12 4.40264 3.94308   9
  -7  -5  12 4.64149 3.53037   5
   7   5 -12 1.96394 3.46734   7
  -7   5  12 6.61816 3.78154   5
   7   5 -12 -1.4361 3.72480   9
  -7   5  12 2.88124 2.35740  12
  -7   5  12 2.89438 2.99942   8
   5  -5 -12 3.02497 3.35873   9
  -5  -5  12 4.57721 3.65519   2
  -5  -5  12 -1.5760 1.93217  12
   5  -5 -12 -1.8030 3.64058   6
   5  -5 -12 -2.0710 2.31296  15
   5   5 -12 0.44891 3.27801   7
  -5   5  12 -0.2010 3.19796   5
   5   5 -12 4.46261 3.26173   9
  -5   5  12 -4.6102 3.43153   8
  -5   5  12 0.37476 2.02646  12
   3  -5 -12 44.3180 6.94189  15
   3  -5 -12 49.4670 7.35931   6
  -3  -5  12 38.3651 4.93729  12
  -3  -5  12 38.2603 5.77644   2
  -3   5  12 36.2135 5.55527   8
   3   5 -12 33.1106 5.67622   7
  -3   5  12 37.0119 4.11181  12
   1  -5 -12 0.68764 3.34425   6
  -8  -6  12 618.453 24.8679   5
  -6  -6  12 144.641 9.50660  12
  -6  -6  12 151.944 10.1657   2
   6  -6 -12 154.462 11.8901  15
   6  -6 -12 145.266 10.9927   9
   6  -6 -12 149.863 11.9967   6
  -6   6  12 141.137 10.0282   8
   6   6 -12 167.736 12.5502   7
  -6   6  12 130.388 9.94363   5
   6   6 -12 157.356 10.7803   9
  -6   6  12 153.691 9.18089  12
   4  -6 -12 681.847 26.5105  15
  -4  -6  12 668.493 22.5664  12
   4  -6 -12 679.317 27.1467   6
  -4  -6  12 618.078 24.3981   2
  -4   6  12 656.515 24.5104   8
   4   6 -12 636.227 26.6680   7
  -4   6  12 642.155 21.5910  12
   2  -6 -12 70.0749 8.53360  15
  -8   0  13 -3.2353 3.42357   5
   8   0 -13 0.65220 2.86805   9
  -8   0  13 1.14876 2.32450  12
   8   0 -13 -0.2881 3.41204  15
  -6   0  13 1.30125 2.65806  12
   6   0 -13 8.31166 4.37562  15
   6   0 -13 0.74988 3.59010   9
  -6   0  13 -2.7353 2.81655   5
  -4   0  13 -0.0917 1.73172  12
   4   0 -13 1.64195 3.86119  15
   4   0 -13 -0.5224 2.18280   9
   2   0 -13 -0.2541 2.94243  15
  -2   0  13 1.44266 1.36530  12
   2   0 -13 0.67527 2.11110   9
  -9  -1  13 91.2254 7.39704  12
  -9  -1  13 92.6240 13.4299   5
  -9   1  13 90.0672 8.46515   5
   9   1 -13 84.3415 10.0948   9
  -9   1  13 78.6363 8.01882  12
  -7  -1  13 525.210 21.2491   5
   7  -1 -13 563.570 23.0917  15
   7  -1 -13 571.825 23.3411   9
  -7  -1  13 543.346 19.6897  12
   7   1 -13 569.322 23.0709   9
   7   1 -13 556.248 21.9721  15
  -7   1  13 552.514 19.5624  12
  -7   1  13 529.956 21.5457   5
  -5  -1  13 92.9196 8.15763   5
   5  -1 -13 113.196 9.65349   9
   5  -1 -13 114.995 10.2767  15
  -5  -1  13 106.059 6.57274  12
   5   1 -13 109.315 9.63689   9
  -5   1  13 98.0084 7.96416   5
   5   1 -13 107.038 8.84895  15
  -3  -1  13 547.251 16.9241  12
   3  -1 -13 557.139 23.1791  15
   3   1 -13 587.213 23.5554  15
  -3   1  13 537.550 16.3850  12
   3   1 -13 555.301 22.2080   9
   8  -2 -13 188.442 12.3516   9
   8  -2 -13 176.158 12.4838  15
  -8  -2  13 160.066 11.0775   5
  -8  -2  13 169.450 9.94371  12
   8   2 -13 181.834 12.5337   9
  -8   2  13 158.798 11.2427   5
   6  -2 -13 153.295 11.0224  15
  -6  -2  13 143.327 9.38592   5
  -6  -2  13 144.038 8.55144  12
   6  -2 -13 147.184 10.5582   9
   6   2 -13 133.214 10.0585  15
  -6   2  13 142.927 8.19853  12
  -6   2  13 152.263 10.6915   5
   6   2 -13 149.366 11.1844   9
   4  -2 -13 201.976 13.1465  15
   4  -2 -13 175.107 11.5290   9
  -4  -2  13 198.858 9.04311  12
  -4   2  13 185.237 11.0922   5
  -4   2  13 183.225 8.29166  12
   4   2 -13 202.419 12.2650   9
  -2  -2  13 157.920 10.8086   2
  -7  -3  13 151.153 9.15998  12
   7  -3 -13 157.962 12.1923  15
  -7  -3  13 156.968 10.5443   5
   7  -3 -13 170.023 12.1184   9
  -7   3  13 159.849 10.6032   8
  -7   3  13 159.390 9.35257  12
  -7   3  13 155.837 10.5596   5
   7   3 -13 144.222 11.4231   9
   5  -3 -13 382.907 19.2924  15
   5  -3 -13 426.780 18.8882   9
  -5  -3  13 407.659 15.3470  12
  -5   3  13 403.801 14.8827  12
   5   3 -13 406.488 19.0155   9
   5   3 -13 424.042 18.4258  15
  -5   3  13 416.550 18.5615   5
  -3  -3  13 142.864 10.4968   2
   3  -3 -13 136.254 10.2564  15
  -3  -3  13 131.668 7.29370  12
  -3   3  13 128.367 9.77602   5
  -3   3  13 119.972 6.00270  12
   3   3 -13 131.371 10.0018   9
   6  -4 -13 4.09141 4.60637  15
  -6  -4  13 5.04151 2.51575  12
   6  -4 -13 5.37426 3.19155   9
  -6   4  13 2.43639 2.39866  12
   6   4 -13 4.83686 4.31370   9
  -6   4  13 4.09300 3.22401   5
  -6   4  13 5.11830 4.05378   8
  -4  -4  13 15.8481 3.71822  12
   4  -4 -13 20.6291 5.21220  15
  -4  -4  13 20.9963 5.16993   2
   4   4 -13 13.8483 4.70444   9
  -4   4  13 23.8845 3.53352  12
  -4   4  13 15.6366 4.15667   5
   0   0   0    0.00    0.00   0

 _exptl_absorpt_process_details
)
 SADABS 2016/2: Krause, L., Herbst-Irmer, R., Sheldrick G.M. & Stalke D.,
 J. Appl. Cryst. 48 (2015) 3-10
)
 _exptl_absorpt_correction_type   multi-scan
 _exptl_absorpt_correction_T_max  0.7482
 _exptl_absorpt_correction_T_min  0.6371
 _exptl_special_details
)
 The following wavelength and cell were deduced by SADABS from the
 direction cosines etc. They are given here for emergency use only:
 CELL 0.71073    6.814    7.596    7.391   89.981  116.946   90.007
)

;
_shelx_hkl_checksum              20087
loop_
_space_group_symop_operation_xyz
'x, y, z'
'-x, y, -z+1/2'
'x+1/2, y+1/2, z'
'-x+1/2, y+1/2, -z+1/2'
'-x, -y, -z'
'x, -y, z-1/2'
'-x+1/2, -y+1/2, -z'
'x+1/2, -y+1/2, z-1/2'
loop_
_atom_site_label
_atom_site_type_symbol
_atom_site_fract_x
_atom_site_fract_y
_atom_site_fract_z
_atom_site_U_iso_or_equiv
_atom_site_adp_type
_atom_site_occupancy
_atom_site_site_symmetry_order
_atom_site_calc_flag
_atom_site_refinement_flags_posn
_atom_site_refinement_flags_adp
_atom_site_refinement_flags_occupancy
_atom_site_disorder_assembly
_atom_site_disorder_group
Ni Ni 0.000000 0.500000 0.000000 0.00577(5) Uani 1 2 d S . P . .
S S 0.000000 0.15681(3) 0.250000 0.00527(5) Uani 1 2 d S T P . .
O1 O 0.17279(10) 0.04668(9) 0.40353(10) 0.01106(10) Uani 1 1 d . . . . .
O2 O 0.10339(10) 0.27006(8) 0.15477(9) 0.00926(10) Uani 1 1 d . . . . .
O3 O 0.000000 0.63108(12) 0.250000 0.00810(12) Uani 1 2 d S T P . .
H H 0.108(3) 0.695(2) 0.294(3) 0.020(4) Uiso 1 1 d . . . . .
loop_
_atom_site_aniso_label
_atom_site_aniso_U_11
_atom_site_aniso_U_22
_atom_site_aniso_U_33
_atom_site_aniso_U_23
_atom_site_aniso_U_13
_atom_site_aniso_U_12
Ni 0.00521(6) 0.00627(7) 0.00552(6) 0.00023(3) 0.00223(4) -0.00020(3)
S 0.00403(9) 0.00542(9) 0.00597(9) 0.000 0.00201(7) 0.000
O1 0.0065(2) 0.0132(3) 0.0125(2) 0.00631(19) 0.00356(18) 0.00321(18)
O2 0.0089(2) 0.0086(2) 0.0122(2) 0.00377(17) 0.00657(18) 0.00120(16)
O3 0.0076(3) 0.0092(3) 0.0076(3) 0.000 0.0037(2) 0.000
loop_
_atom_type_symbol
_atom_type_description
_atom_type_scat_dispersion_real
_atom_type_scat_dispersion_imag
_atom_type_scat_source
O O 0.0106 0.0060 'International Tables Vol C Tables 4.2.6.8 and 6.1.1.4'
H H 0.0000 0.0000 'International Tables Vol C Tables 4.2.6.8 and 6.1.1.4'
S S 0.1246 0.1234 'International Tables Vol C Tables 4.2.6.8 and 6.1.1.4'
Ni Ni 0.3393 1.1124 'International Tables Vol C Tables 4.2.6.8 and 6.1.1.4'
loop_
_geom_angle_atom_site_label_1
_geom_angle_atom_site_label_2
_geom_angle_atom_site_label_3
_geom_angle
_geom_angle_site_symmetry_1
_geom_angle_site_symmetry_3
_geom_angle_publ_flag
O2 Ni O2 180.0 . 5_565 ?
O2 Ni O1 94.85(3) . 8_455 ?
O2 Ni O1 85.15(3) 5_565 8_455 ?
O2 Ni O1 85.15(3) . 4 ?
O2 Ni O1 94.85(3) 5_565 4 ?
O1 Ni O1 180.0 8_455 4 ?
O2 Ni O3 87.28(3) . 5_565 ?
O2 Ni O3 92.72(3) 5_565 5_565 ?
O1 Ni O3 93.22(2) 8_455 5_565 ?
O1 Ni O3 86.78(2) 4 5_565 ?
O2 Ni O3 92.72(3) . . ?
O2 Ni O3 87.28(3) 5_565 . ?
O1 Ni O3 86.78(2) 8_455 . ?
O1 Ni O3 93.22(2) 4 . ?
O3 Ni O3 180.0 5_565 . ?
O2 Ni O2 98.353(14) . 4 ?
O2 Ni O2 81.647(14) 5_565 4 ?
O1 Ni O2 136.52(2) 8_455 4 ?
O1 Ni O2 43.48(2) 4 4 ?
O3 Ni O2 128.505(16) 5_565 4 ?
O3 Ni O2 51.495(16) . 4 ?
O2 Ni O2 81.648(15) . 8_455 ?
O2 Ni O2 98.353(15) 5_565 8_455 ?
O1 Ni O2 43.48(2) 8_455 8_455 ?
O1 Ni O2 136.52(2) 4 8_455 ?
O3 Ni O2 51.495(16) 5_565 8_455 ?
O3 Ni O2 128.505(16) . 8_455 ?
O2 Ni O2 180.00(2) 4 8_455 ?
O2 Ni O2 43.67(2) . 2 ?
O2 Ni O2 136.33(2) 5_565 2 ?
O1 Ni O2 66.60(2) 8_455 2 ?
O1 Ni O2 113.40(2) 4 2 ?
O3 Ni O2 120.23(2) 5_565 2 ?
O3 Ni O2 59.77(2) . 2 ?
O2 Ni O2 96.189(18) 4 2 ?
O2 Ni O2 83.811(19) 8_455 2 ?
O2 Ni O2 136.33(2) . 6_565 ?
O2 Ni O2 43.67(2) 5_565 6_565 ?
O1 Ni O2 113.40(2) 8_455 6_565 ?
O1 Ni O2 66.60(2) 4 6_565 ?
O3 Ni O2 59.77(2) 5_565 6_565 ?
O3 Ni O2 120.23(2) . 6_565 ?
O2 Ni O2 83.811(18) 4 6_565 ?
O2 Ni O2 96.189(19) 8_455 6_565 ?
O2 Ni O2 180.000(18) 2 6_565 ?
O1 S O1 110.26(6) . 2 ?
O1 S O2 110.25(4) . 2 ?
O1 S O2 108.44(3) 2 2 ?
O1 S O2 108.44(4) . . ?
O1 S O2 110.25(4) 2 . ?
O2 S O2 109.19(5) 2 . ?
S O1 Ni 136.75(4) . 4_545 ?
S O1 O2 36.08(2) . . ?
Ni O1 O2 100.77(3) 4_545 . ?
S O1 O1 34.87(3) . 2 ?
Ni O1 O1 140.00(5) 4_545 2 ?
O2 O1 O1 60.61(3) . 2 ?
S O1 O2 35.16(2) . 2 ?
Ni O1 O2 145.16(4) 4_545 2 ?
O2 O1 O2 60.41(3) . 2 ?
O1 O1 O2 59.50(2) 2 2 ?
S O1 O2 128.17(4) . 4_545 ?
Ni O1 O2 47.412(19) 4_545 4_545 ?
O2 O1 O2 110.15(3) . 4_545 ?
O1 O1 O2 102.72(3) 2 4_545 ?
O2 O1 O2 162.02(4) 2 4_545 ?
S O1 O3 170.39(4) . 7_556 ?
Ni O1 O3 47.790(15) 4_545 7_556 ?
O2 O1 O3 145.90(3) . 7_556 ?
O1 O1 O3 150.59(2) 2 7_556 ?
O2 O1 O3 135.37(3) 2 7_556 ?
O2 O1 O3 61.44(2) 4_545 7_556 ?
S O1 O2 114.94(4) . 8_556 ?
Ni O1 O2 42.560(19) 4_545 8_556 ?
O2 O1 O2 86.41(3) . 8_556 ?
O1 O1 O2 146.95(3) 2 8_556 ?
O2 O1 O2 103.94(3) 2 8_556 ?
O2 O1 O2 89.97(3) 4_545 8_556 ?
O3 O1 O2 61.75(3) 7_556 8_556 ?
S O1 O3 92.89(3) . 3_545 ?
Ni O1 O3 44.445(17) 4_545 3_545 ?
O2 O1 O3 57.94(2) . 3_545 ?
O1 O1 O3 102.12(4) 2 3_545 ?
O2 O1 O3 115.75(3) 2 3_545 ?
O2 O1 O3 62.55(3) 4_545 3_545 ?
O3 O1 O3 92.23(2) 7_556 3_545 ?
O2 O1 O3 56.90(2) 8_556 3_545 ?
S O1 O2 126.85(4) . 6_556 ?
Ni O1 O2 95.63(3) 4_545 6_556 ?
O2 O1 O2 162.20(4) . 6_556 ?
O1 O1 O2 102.10(3) 2 6_556 ?
O2 O1 O2 108.45(3) 2 6_556 ?
O2 O1 O2 76.26(3) 4_545 6_556 ?
O3 O1 O2 51.880(19) 7_556 6_556 ?
O2 O1 O2 110.57(3) 8_556 6_556 ?
O3 O1 O2 135.72(3) 3_545 6_556 ?
S O1 O2 112.14(4) . 7_556 ?
Ni O1 O2 78.12(2) 4_545 7_556 ?
O2 O1 O2 108.24(3) . 7_556 ?
O1 O1 O2 139.45(3) 2 7_556 ?
O2 O1 O2 80.78(3) 2 7_556 ?
O2 O1 O2 117.20(3) 4_545 7_556 ?
O3 O1 O2 58.74(2) 7_556 7_556 ?
O2 O1 O2 45.62(2) 8_556 7_556 ?
O3 O1 O2 102.29(3) 3_545 7_556 ?
O2 O1 O2 81.795(19) 6_556 7_556 ?
S O1 O1 89.16(3) . 5_556 ?
Ni O1 O1 133.27(4) 4_545 5_556 ?
O2 O1 O1 123.80(4) . 5_556 ?
O1 O1 O1 80.50(3) 2 5_556 ?
O2 O1 O1 65.33(3) 2 5_556 ?
O2 O1 O1 117.25(4) 4_545 5_556 ?
O3 O1 O1 85.50(3) 7_556 5_556 ?
O2 O1 O1 120.69(4) 8_556 5_556 ?
O3 O1 O1 177.37(3) 3_545 5_556 ?
O2 O1 O1 43.126(19) 6_556 5_556 ?
O2 O1 O1 75.39(3) 7_556 5_556 ?
S O2 Ni 130.79(4) . . ?
S O2 O1 35.48(2) . . ?
Ni O2 O1 160.34(4) . . ?
S O2 O1 34.58(2) . 2 ?
Ni O2 O1 117.78(3) . 2 ?
O1 O2 O1 59.89(4) . 2 ?
S O2 O2 35.41(3) . 2 ?
Ni O2 O2 100.95(2) . 2 ?
O1 O2 O2 60.35(3) . 2 ?
O1 O2 O2 59.24(2) 2 2 ?
S O2 O3 106.89(3) . 3_545 ?
Ni O2 O3 122.12(3) . 3_545 ?
O1 O2 O3 72.72(3) . 3_545 ?
O1 O2 O3 112.16(3) 2 3_545 ?
O2 O2 O3 129.59(4) 2 3_545 ?
S O2 O1 160.13(4) . 4 ?
Ni O2 O1 47.44(2) . 4 ?
O1 O2 O1 137.80(3) . 4 ?
O1 O2 O1 162.02(4) 2 4 ?
O2 O2 O1 127.60(2) 2 4 ?
O3 O2 O1 77.09(3) 3_545 4 ?
S O2 O3 135.81(4) . 5_565 ?
Ni O2 O3 47.54(2) . 5_565 ?
O1 O2 O3 150.02(4) . 5_565 ?
O1 O2 O3 101.86(3) 2 5_565 ?
O2 O2 O3 133.87(4) 2 5_565 ?
O3 O2 O3 96.10(2) 3_545 5_565 ?
O1 O2 O3 60.99(2) 4 5_565 ?
S O2 O1 91.32(3) . 8_455 ?
Ni O2 O1 42.585(17) . 8_455 ?
O1 O2 O1 126.72(4) . 8_455 ?
O1 O2 O1 76.06(3) 2 8_455 ?
O2 O2 O1 72.38(3) 2 8_455 ?
O3 O2 O1 157.99(3) 3_545 8_455 ?
O1 O2 O1 90.03(3) 4 8_455 ?
O3 O2 O1 61.91(2) 5_565 8_455 ?
S O2 O3 101.60(3) . . ?
Ni O2 O3 44.719(16) . . ?
O1 O2 O3 116.70(3) . . ?
O1 O2 O3 115.81(3) 2 . ?
O2 O2 O3 66.189(14) 2 . ?
O3 O2 O3 128.23(3) 3_545 . ?
O1 O2 O3 63.04(2) 4 . ?
O3 O2 O3 92.26(2) 5_565 . ?
O1 O2 O3 56.761(17) 8_455 . ?
S O2 O1 94.33(3) . 6 ?
Ni O2 O1 114.81(3) . 6 ?
O1 O2 O1 83.70(2) . 6 ?
O1 O2 O1 71.54(3) 2 6 ?
O2 O2 O1 128.65(2) 2 6 ?
O3 O2 O1 56.93(2) 3_545 6 ?
O1 O2 O1 103.74(3) 4 6 ?
O3 O2 O1 67.27(3) 5_565 6 ?
O1 O2 O1 110.58(3) 8_455 6 ?
O3 O2 O1 159.51(3) . 6 ?
S O2 O1 82.37(3) . 7_556 ?
Ni O2 O1 94.72(3) . 7_556 ?
O1 O2 O1 71.76(3) . 7_556 ?
O1 O2 O1 116.42(3) 2 7_556 ?
O2 O2 O1 62.01(3) 2 7_556 ?
O3 O2 O1 87.70(2) 3_545 7_556 ?
O1 O2 O1 78.31(2) 4 7_556 ?
O3 O2 O1 136.83(3) 5_565 7_556 ?
O1 O2 O1 107.33(3) 8_455 7_556 ?
O3 O2 O1 54.262(17) . 7_556 ?
O1 O2 O1 142.02(2) 6 7_556 ?
Ni O3 Ni 123.73(4) . 2 ?
Ni O3 O2 90.308(16) . 4 ?
Ni O3 O2 111.545(17) 2 4 ?
Ni O3 O2 111.544(17) . 3_455 ?
Ni O3 O2 90.308(16) 2 3_455 ?
O2 O3 O2 133.46(4) 4 3_455 ?
Ni O3 O1 45.430(17) . 8_455 ?
Ni O3 O1 104.74(3) 2 8_455 ?
O2 O3 O1 134.21(2) 4 8_455 ?
O2 O3 O1 71.19(2) 3_455 8_455 ?
Ni O3 O1 104.74(3) . 7_556 ?
Ni O3 O1 45.430(17) 2 7_556 ?
O2 O3 O1 71.19(2) 4 7_556 ?
O2 O3 O1 134.21(2) 3_455 7_556 ?
O1 O3 O1 123.36(4) 8_455 7_556 ?
Ni O3 O2 162.31(3) . 6_566 ?
Ni O3 O2 45.174(15) 2 6_566 ?
O2 O3 O2 83.90(2) 4 6_566 ?
O2 O3 O2 84.19(2) 3_455 6_566 ?
O1 O3 O2 141.77(2) 8_455 6_566 ?
O1 O3 O2 57.57(2) 7_556 6_566 ?
Ni O3 O2 45.174(15) . 5_565 ?
Ni O3 O2 162.31(3) 2 5_565 ?
O2 O3 O2 84.19(2) 4 5_565 ?
O2 O3 O2 83.90(2) 3_455 5_565 ?
O1 O3 O2 57.57(2) 8_455 5_565 ?
O1 O3 O2 141.77(2) 7_556 5_565 ?
O2 O3 O2 149.54(4) 6_566 5_565 ?
Ni O3 O2 42.565(19) . . ?
Ni O3 O2 82.74(3) 2 . ?
O2 O3 O2 95.977(17) 4 . ?
O2 O3 O2 128.22(3) 3_455 . ?
O1 O3 O2 61.49(2) 8_455 . ?
O1 O3 O2 67.00(3) 7_556 . ?
O2 O3 O2 121.34(3) 6_566 . ?
O2 O3 O2 87.74(2) 5_565 . ?
Ni O3 O2 82.74(3) . 2 ?
Ni O3 O2 42.565(19) 2 2 ?
O2 O3 O2 128.22(3) 4 2 ?
O2 O3 O2 95.977(17) 3_455 2 ?
O1 O3 O2 67.00(3) 8_455 2 ?
O1 O3 O2 61.49(2) 7_556 2 ?
O2 O3 O2 87.74(2) 6_566 2 ?
O2 O3 O2 121.34(3) 5_565 2 ?
O2 O3 O2 47.62(3) . 2 ?
Ni O3 O1 122.57(3) . 3_455 ?
Ni O3 O1 42.335(14) 2 3_455 ?
O2 O3 O1 145.07(2) 4 3_455 ?
O2 O3 O1 49.337(19) 3_455 3_455 ?
O1 O3 O1 80.62(2) 8_455 3_455 ?
O1 O3 O1 87.77(2) 7_556 3_455 ?
O2 O3 O1 61.19(2) 6_566 3_455 ?
O2 O3 O1 126.423(19) 5_565 3_455 ?
O2 O3 O1 101.08(3) . 3_455 ?
O2 O3 O1 54.42(2) 2 3_455 ?
Ni O3 O1 42.335(14) . 4 ?
Ni O3 O1 122.57(3) 2 4 ?
O2 O3 O1 49.337(19) 4 4 ?
O2 O3 O1 145.07(2) 3_455 4 ?
O1 O3 O1 87.77(2) 8_455 4 ?
O1 O3 O1 80.62(2) 7_556 4 ?
O2 O3 O1 126.423(19) 6_566 4 ?
O2 O3 O1 61.19(2) 5_565 4 ?
O2 O3 O1 54.42(2) . 4 ?
O2 O3 O1 101.08(3) 2 4 ?
O1 O3 O1 155.41(4) 3_455 4 ?
Ni O3 H 105.6(13) . . ?
Ni O3 H 107.1(13) 2 . ?
O2 O3 H 16.8(13) 4 . ?
O2 O3 H 119.1(13) 3_455 . ?
O1 O3 H 146.3(13) 8_455 . ?
O1 O3 H 74.5(13) 7_556 . ?
O2 O3 H 71.4(13) 6_566 . ?
O2 O3 H 90.3(13) 5_565 . ?
O2 O3 H 111.9(13) . . ?
O2 O3 H 135.8(13) 2 . ?
O1 O3 H 131.6(13) 3_455 . ?
O1 O3 H 65.8(13) 4 . ?
Ni O3 H 107.1(13) . 2 ?
Ni O3 H 105.6(13) 2 2 ?
O2 O3 H 119.1(13) 4 2 ?
O2 O3 H 16.8(13) 3_455 2 ?
O1 O3 H 74.5(13) 8_455 2 ?
O1 O3 H 146.3(13) 7_556 2 ?
O2 O3 H 90.3(13) 6_566 2 ?
O2 O3 H 71.4(13) 5_565 2 ?
O2 O3 H 135.8(13) . 2 ?
O2 O3 H 111.9(13) 2 2 ?
O1 O3 H 65.8(13) 3_455 2 ?
O1 O3 H 131.6(13) 4 2 ?
H O3 H 107(3) . 2 ?
loop_
_geom_bond_atom_site_label_1
_geom_bond_atom_site_label_2
_geom_bond_distance
_geom_bond_site_symmetry_2
_geom_bond_publ_flag
Ni O2 2.0328(6) . ?
Ni O2 2.0328(6) 5_565 ?
Ni O1 2.0338(7) 8_455 ?
Ni O1 2.0338(7) 4 ?
Ni O3 2.1145(5) 5_565 ?
Ni O3 2.1145(5) . ?
Ni O2 3.4195(7) 4 ?
Ni O2 3.4195(7) 8_455 ?
Ni O2 3.4465(7) 2 ?
Ni O2 3.4465(7) 6_565 ?
S O1 1.4654(6) . ?
S O1 1.4654(6) 2 ?
S O2 1.4869(6) 2 ?
S O2 1.4869(6) . ?
O1 O2 2.3951(9) . ?
O1 O1 2.4047(13) 2 ?
O1 O2 2.4222(9) 2 ?
O1 O2 2.7511(9) 4_545 ?
O1 O3 2.8503(8) 7_556 ?
O1 O2 2.9947(10) 8_556 ?
O1 O3 3.0150(7) 3_545 ?
O1 O2 3.2198(10) 6_556 ?
O1 O2 3.2324(11) 7_556 ?
O1 O1 3.3610(13) 5_556 ?
O2 O2 2.4238(12) 2 ?
O2 O3 2.6760(8) 3_545 ?
O2 O3 2.8629(8) 5_565 ?
O2 O3 3.0018(11) . ?
O3 H 0.813(18) . ?
O3 H 0.813(18) 2 ?
loop_
_geom_hbond_atom_site_label_D
_geom_hbond_atom_site_label_H
_geom_hbond_atom_site_label_A
_geom_hbond_distance_DH
_geom_hbond_distance_HA
_geom_hbond_distance_DA
_geom_hbond_angle_DHA
_geom_hbond_site_symmetry_A
_geom_hbond_publ_flag
O3 H O2 0.813(18) 1.912(18) 2.6760(8) 156.1(18) 4 yes
