#------------------------------------------------------------------------------
#$Date: 2021-12-04 02:55:52 +0200 (Sat, 04 Dec 2021) $
#$Revision: 271075 $
#$URL: file:///home/coder/svn-repositories/cod/cif/1/56/55/1565500.cif $
#------------------------------------------------------------------------------
#
# This file is available in the Crystallography Open Database (COD),
# http://www.crystallography.net/
#
# All data on this site have been placed in the public domain by the
# contributors.
#
data_1565500
loop_
_publ_author_name
'Yang, Zihui'
'Sun, Yue'
'Liu, Qingsong'
'Li, Aliang'
'Wang, Wenyan'
'Gu, Wen'
_publ_section_title
;
 Design, Synthesis, and Antifungal Activity of Novel
 Thiophene/Furan-1,3,4-Oxadiazole Carboxamides as Potent Succinate
 Dehydrogenase Inhibitors.
;
_journal_issue                   45
_journal_name_full               'Journal of agricultural and food chemistry'
_journal_page_first              13373
_journal_page_last               13385
_journal_paper_doi               10.1021/acs.jafc.1c03857
_journal_volume                  69
_journal_year                    2021
_chemical_formula_sum            'C15 H10 F3 N3 O2 S'
_chemical_formula_weight         353.32
_space_group_crystal_system      triclinic
_space_group_IT_number           2
_space_group_name_Hall           '-P 1'
_space_group_name_H-M_alt        'P -1'
_atom_sites_solution_hydrogens   geom
_audit_creation_method           SHELXL-2014/7
_audit_update_record
;
2021-02-06 # Formatted by publCIF

;
_cell_angle_alpha                105.521(2)
_cell_angle_beta                 92.920(2)
_cell_angle_gamma                102.470(2)
_cell_formula_units_Z            2
_cell_length_a                   5.60030(10)
_cell_length_b                   10.1540(3)
_cell_length_c                   13.8448(3)
_cell_measurement_reflns_used    11399
_cell_measurement_temperature    293(2)
_cell_measurement_theta_max      74.3101
_cell_measurement_theta_min      3.3400
_cell_volume                     735.72(3)
_computing_structure_refinement  'SHELXL-2014/7 (Sheldrick, 2014)'
_diffrn_ambient_temperature      293(2)
_diffrn_detector_area_resol_mean 10.0000
_diffrn_measured_fraction_theta_full 0.997
_diffrn_measured_fraction_theta_max 0.957
_diffrn_measurement_device_type  'XtaLAB Synergy, Dualflex, HyPix'
_diffrn_measurement_method       '\w scans'
_diffrn_radiation_type           CuK\a
_diffrn_radiation_wavelength     1.54178
_diffrn_reflns_av_R_equivalents  0.0465
_diffrn_reflns_av_unetI/netI     0.0235
_diffrn_reflns_Laue_measured_fraction_full 0.997
_diffrn_reflns_Laue_measured_fraction_max 0.957
_diffrn_reflns_limit_h_max       6
_diffrn_reflns_limit_h_min       -6
_diffrn_reflns_limit_k_max       12
_diffrn_reflns_limit_k_min       -12
_diffrn_reflns_limit_l_max       16
_diffrn_reflns_limit_l_min       -17
_diffrn_reflns_number            16027
_diffrn_reflns_point_group_measured_fraction_full 0.997
_diffrn_reflns_point_group_measured_fraction_max 0.957
_diffrn_reflns_theta_full        67.679
_diffrn_reflns_theta_max         74.226
_diffrn_reflns_theta_min         3.335
_exptl_absorpt_coefficient_mu    2.432
_exptl_absorpt_correction_T_max  1.0000
_exptl_absorpt_correction_T_min  0.31102
_exptl_absorpt_correction_type   multi-scan
_exptl_crystal_colour            colourless
_exptl_crystal_density_diffrn    1.595
_exptl_crystal_description       block
_exptl_crystal_F_000             360
_exptl_crystal_size_max          0.200
_exptl_crystal_size_mid          0.100
_exptl_crystal_size_min          0.100
_refine_diff_density_max         1.206
_refine_diff_density_min         -0.694
_refine_diff_density_rms         0.083
_refine_ls_extinction_coef       0.0128(16)
_refine_ls_extinction_expression Fc^*^=kFc[1+0.001xFc^2^\l^3^/sin(2\q)]^-1/4^
_refine_ls_extinction_method     'SHELXL-2014/7 (Sheldrick 2014'
_refine_ls_goodness_of_fit_ref   1.010
_refine_ls_hydrogen_treatment    constr
_refine_ls_matrix_type           full
_refine_ls_number_parameters     218
_refine_ls_number_reflns         2850
_refine_ls_number_restraints     2
_refine_ls_restrained_S_all      1.030
_refine_ls_R_factor_all          0.0549
_refine_ls_R_factor_gt           0.0543
_refine_ls_shift/su_max          0.000
_refine_ls_shift/su_mean         0.000
_refine_ls_structure_factor_coef Fsqd
_refine_ls_weighting_details
'w=1/[\s^2^(Fo^2^)+(0.1000P)^2^+1.1000P] where P=(Fo^2^+2Fc^2^)/3'
_refine_ls_weighting_scheme      calc
_refine_ls_wR_factor_gt          0.1589
_refine_ls_wR_factor_ref         0.1596
_reflns_Friedel_coverage         0.000
_reflns_number_gt                2767
_reflns_number_total             2850
_reflns_threshold_expression     'I > 2\s(I)'
_cod_data_source_file            jf1c03857_si_002.cif
_cod_data_source_block           X
_cod_database_code               1565500
_shelx_shelxl_version_number     2014/7
_shelx_space_group_comment
;
The symmetry employed for this shelxl refinement is uniquely defined
by the following loop, which should always be used as a source of
symmetry information in preference to the above space-group names.
They are only intended as comments.
;
_shelx_estimated_absorpt_t_min   0.642
_shelx_estimated_absorpt_t_max   0.793
_shelx_res_file
;

    X.res created by SHELXL-2014/7


TITL X in P-1
CELL 1.54178   5.6003  10.1540  13.8448 105.521  92.920 102.470
ZERR    2.00   0.0001   0.0003   0.0003   0.002   0.002   0.002
LATT  1
SFAC C H N O F S
UNIT 30 20 6 4 6 2

ACTA

L.S. 50
BOND $H
CONF
SIZE .2 .1 .1
FMAP 2
PLAN 8

DELU .001 C3 C4
DELU .001 C3 C2

WGHT    0.100000    1.100000
EXTI    0.012826
FVAR       0.72746
S     6    0.282196    0.833682    0.228078    11.00000    0.02799    0.02485 =
         0.03223    0.00265    0.00415    0.00820
O1    4   -0.025650    1.149566    0.345426    11.00000    0.01875    0.01365 =
         0.02262    0.00594    0.00296    0.00300
F1    5   -0.088296    1.809884    0.968602    11.00000    0.07157    0.02709 =
         0.04001   -0.00703   -0.00948    0.01665
N1    3   -0.097512    0.936091    0.366381    11.00000    0.02091    0.01606 =
         0.02554    0.00581    0.00329    0.00416
C1    1    0.502122    0.884569    0.156494    11.00000    0.02199    0.02933 =
         0.02464   -0.00074    0.00431    0.00800
AFIX  43
H1A   2    0.596025    0.825874    0.122373    11.00000   -1.20000
AFIX   0
O2    4   -0.263519    1.360659    0.419209    11.00000    0.02650    0.01470 =
         0.02850    0.01019    0.00876    0.00400
N2    3   -0.255726    1.010069    0.420355    11.00000    0.02093    0.01387 =
         0.02308    0.00607    0.00372    0.00426
F2    5   -0.141011    1.632195    1.025588    11.00000    0.05517    0.05577 =
         0.02250    0.01270    0.00231   -0.01199
C2    1    0.526769    1.020119    0.154212    11.00000    0.02107    0.03581 =
         0.02832    0.00888    0.00680    0.00781
AFIX  43
H2B   2    0.641905    1.061396    0.118369    11.00000   -1.20000
AFIX   0
F3    5    0.177321    1.687154    0.950815    11.00000    0.02665    0.06177 =
         0.03062   -0.00709   -0.00072    0.00897
N3    3   -0.486000    1.229894    0.509964    11.00000    0.02138    0.01118 =
         0.02286    0.00655    0.00505    0.00266
AFIX  43
H3A   2   -0.520523    1.148916    0.521111    11.00000   -1.20000
AFIX   0
C3    1    0.365833    1.095473    0.209975    11.00000    0.00756    0.02206 =
         0.02345   -0.00597   -0.00382    0.00213
AFIX  43
H3B   2    0.355832    1.187273    0.215042    11.00000   -1.20000
AFIX   0
C4    1    0.218682    0.996221    0.257869    11.00000    0.01939    0.01942 =
         0.02102    0.00220   -0.00206    0.00586
C5    1    0.032367    1.022293    0.323593    11.00000    0.01832    0.01344 =
         0.01976    0.00377   -0.00223    0.00270
C6    1   -0.207620    1.132652    0.405280    11.00000    0.01462    0.01545 =
         0.01834    0.00510    0.00114    0.00082
C7    1   -0.322602    1.253187    0.445620    11.00000    0.01826    0.01356 =
         0.02030    0.00426   -0.00002    0.00150
C8    1   -0.607813    1.338219    0.561976    11.00000    0.01872    0.01305 =
         0.02407    0.00705    0.00386    0.00415
AFIX  23
H8A   2   -0.772055    1.293567    0.572403    11.00000   -1.20000
H8B   2   -0.623743    1.399045    0.519848    11.00000   -1.20000
AFIX   0
C9    1   -0.466140    1.426134    0.662795    11.00000    0.02071    0.01119 =
         0.02375    0.00756    0.00430    0.00561
C10   1   -0.574464    1.430960    0.751814    11.00000    0.01805    0.01868 =
         0.02882    0.00843    0.00786    0.00558
AFIX  43
H10A  2   -0.735349    1.380120    0.749071    11.00000   -1.20000
AFIX   0
C11   1   -0.444600    1.510798    0.844301    11.00000    0.02555    0.02287 =
         0.02377    0.00836    0.00985    0.00882
AFIX  43
H11A  2   -0.518263    1.513808    0.903307    11.00000   -1.20000
AFIX   0
C12   1   -0.203197    1.586542    0.848510    11.00000    0.02359    0.01696 =
         0.02292    0.00571    0.00569    0.00763
C13   1   -0.092857    1.582554    0.759970    11.00000    0.01960    0.01747 =
         0.02480    0.00785    0.00551    0.00376
AFIX  43
H13A  2    0.068201    1.633156    0.762719    11.00000   -1.20000
AFIX   0
C14   1   -0.224283    1.503058    0.668356    11.00000    0.02245    0.01572 =
         0.02142    0.00740    0.00729    0.00421
AFIX  43
H14A  2   -0.150730    1.500638    0.609379    11.00000   -1.20000
AFIX   0
C15   1   -0.064388    1.677017    0.947381    11.00000    0.02699    0.02343 =
         0.02391    0.00564    0.00766    0.00631

HKLF 4

REM  X in P-1
REM R1 =  0.0543 for    2767 Fo > 4sig(Fo)  and  0.0549 for all    2850 data
REM    218 parameters refined using      2 restraints

END

WGHT      0.0832      1.0650

REM Highest difference peak  1.206,  deepest hole -0.694,  1-sigma level  0.083
Q1    1   0.3817  1.1195  0.1877  11.00000  0.05    1.21
Q2    1   0.3229  1.0626  0.2165  11.00000  0.05    1.08
Q3    1   0.5769  0.9886  0.1291  11.00000  0.05    0.42
Q4    1   0.4224  0.8785  0.1994  11.00000  0.05    0.41
Q5    1   0.1119  1.6147  0.9761  11.00000  0.05    0.40
Q6    1   0.2375  0.9624  0.2411  11.00000  0.05    0.36
Q7    1  -0.0448  1.5893  1.0019  11.00000  0.05    0.34
Q8    1  -0.5291  1.3856  0.6165  11.00000  0.05    0.31
;
_shelx_res_checksum              75806
_shelx_hkl_file
;
   0   0   1   50.90    1.29
   0   0  -1   59.36    1.34
   0   0  -2   26.37    0.91
   0   0   2   24.22    0.85
   0   0  -2   23.76    0.70
   0   0   3   71.81    2.08
   0   0  -3   73.08    1.80
   0   0  -3   76.60    2.18
   0   0   4  180.87    4.71
   0   0  -4  196.55    4.90
   0   0  -4  204.13    4.35
   0   0   4  180.68    4.60
   0   0  -4  205.14    4.61
   0   0  -5 1217.96   25.69
   0   0   5 1242.06   25.42
   0   0  -5 1188.56   25.11
   0   0  -6    0.34    0.23
   0   0  -6    0.65    0.20
   0   0  -7   15.47    0.90
   0   0  -7   14.63    1.27
   0   0  -7   13.03    0.89
   0   0  -8    1.26    0.29
   0   0  -8    0.43    0.29
   0   0   8    0.59    0.25
   0   0   8    0.44    0.26
   0   0   8    0.32    0.26
   0   0  -8    0.63    0.31
   0   0  -8    0.58    0.26
   0   0   8    0.55    0.26
   0   0  -8    0.71    0.33
   0   0   8    0.33    0.26
   0   0   9   89.70    3.14
   0   0  -9   87.80    3.97
   0   0  -9   72.44    3.30
   0   0   9   78.08    3.51
   0   0   9   78.99    3.79
   0   0  -9   80.45    3.68
   0   0  -9   86.93    3.87
   0   0   9   81.57    3.33
   0   0   9   90.54    3.89
   0   0 -10  709.21   17.31
   0   0 -10  636.77   16.08
   0   0  10  636.42   17.66
   0   0  10  708.89   16.72
   0   0 -10  682.21   16.88
   0   0  10  705.02   17.14
   0   0  10  666.68   16.07
   0   0 -10  727.11   17.20
   0   0  10  757.05   17.42
   0   0 -11  598.99   14.88
   0   0 -11  596.13   15.93
   0   0  11  544.73   16.11
   0   0 -11  595.65   15.31
   0   0  11  593.32   15.13
   0   0  11  593.70   15.43
   0   0  11  561.12   14.37
   0   0 -11  608.26   15.47
   0   0  11  639.68   15.87
   0   0 -12  115.38    5.05
   0   0  12  110.16    4.93
   0   0  12  115.01    4.99
   0   0  12  108.99    5.65
   0   0 -12  117.65    5.46
   0   0 -12  117.50    5.10
   0   0  12  104.95    4.41
   0   0 -12  121.32    4.80
   0   0 -13    3.98    0.89
   0   0 -13    3.95    0.95
   0   0  13    5.64    1.02
   0   0  13    4.68    0.92
   0   0 -14    2.34    0.67
   0   0 -14    2.37    0.67
   0   0  14    2.42    0.74
   0   0 -14    1.96    0.63
   0   0  14    2.10    0.65
   0   0  14    2.88    0.70
   0   0  14    2.62    0.62
   0   0 -15   53.86    2.79
   0   0  15   59.50    2.98
   0   0 -15   57.76    2.91
   0   1 -16    0.21    0.23
   0   1 -16    0.18    0.20
   0   1 -15   17.68    1.58
   0   1 -15   17.42    1.59
   0  -1  15   16.39    1.59
   0  -1  15   17.70    1.58
   0   1 -15   16.53    1.59
   0   1 -14   28.63    2.29
   0   1 -14   29.61    2.32
   0  -1  14   25.72    2.15
   0  -1  14   24.17    1.90
   0   1 -14   27.86    2.22
   0  -1  14   26.90    2.28
   0  -1  14   26.82    2.22
   0   1 -13    4.22    0.81
   0   1 -13    4.05    0.94
   0   1 -13    5.19    1.05
   0  -1  13    4.45    0.88
   0  -1  13    4.33    0.98
   0  -1  13    5.78    1.15
   0   1 -13    4.02    0.91
   0  -1  13    4.11    0.85
   0  -1  13    4.51    0.99
   0  -1  12    0.33    0.36
   0  -1  12    0.42    0.54
   0   1 -12    0.55    0.46
   0   1 -12    0.96    0.54
   0  -1  12    0.61    0.42
   0   1 -12    0.43    0.51
   0  -1  12    0.90    0.49
   0   1 -12    0.06    0.32
   0  -1  11   21.99    1.98
   0   1 -11   25.81    2.14
   0  -1  11   23.56    2.11
   0   1 -11   21.77    1.87
   0  -1  11   24.21    2.19
   0  -1  11   24.09    1.99
   0   1 -11   24.21    2.14
   0  -1  11   26.40    2.28
   0  -1  10   63.42    3.34
   0   1 -10   61.66    3.26
   0   1 -10   63.06    3.16
   0  -1  10   59.14    3.07
   0  -1  10   63.07    3.47
   0   1 -10   66.57    3.47
   0  -1  10   68.15    3.47
   0  -1   9   32.23    1.65
   0   1  -9   28.62    1.59
   0  -1   9   28.61    2.08
   0  -1   9   28.87    2.03
   0   1  -9   30.52    2.05
   0   1  -9   30.22    1.98
   0   1  -9   31.80    2.17
   0  -1   9   29.52    1.93
   0  -1   9   28.67    2.13
   0   1  -9   29.44    2.05
   0  -1   9   34.21    2.18
   0  -1   8  437.10    9.42
   0   1  -8  427.67   10.57
   0   1  -8  394.94    9.23
   0  -1   8  378.52   10.18
   0   1  -8  388.25    9.99
   0  -1   8  367.66    9.95
   0   1  -8  390.69   10.06
   0  -1   8  385.24    9.78
   0  -1   8  382.89   10.23
   0   1  -8  401.33    9.95
   0  -1   8  433.56   10.21
   0   1  -7    5.50    0.61
   0  -1   7    7.03    0.79
   0  -1   7    7.19    0.67
   0   1  -7    8.21    0.95
   0   1  -7    6.71    0.62
   0  -1   6   86.22    2.86
   0   1  -6   87.35    3.16
   0  -1   6   87.50    2.63
   0   1  -5  261.88    6.06
   0   1  -5  276.69    6.74
   0  -1   5  272.72    6.16
   0   1  -4   37.00    1.53
   0  -1   4   36.54    1.27
   0  -1   3  738.05   15.09
   0   1  -3  731.22   15.07
   0   1  -2  441.45    9.08
   0  -1   2  446.27    9.05
   0  -1   1  126.52    2.80
   0   1  -1  137.02    2.90
   0   1   0   77.81    1.78
   0  -1   0   78.64    1.94
   0  -1  -1  434.72    8.21
   0   1   1  467.15    8.49
   0  -1  -2  275.12    5.56
   0   1   2  240.49    5.41
   0  -1  -3 1373.76   26.17
   0   1   3 1337.06   26.33
   0   1   4  414.42    7.78
   0  -1  -4  420.79    8.09
   0  -1  -4  440.44    8.61
   0   1   4  446.88    8.78
   0   1   5    7.44    0.71
   0  -1  -5    9.16    0.49
   0  -1  -5    6.57    0.58
   0   1   5    7.52    0.69
   0  -1  -6  147.99    3.43
   0   1   6  133.25    4.21
   0  -1  -6  125.91    3.72
   0   1   6  151.68    4.36
   0   1   7  358.63    9.32
   0  -1  -7  392.83    9.62
   0   1   7  359.91    9.24
   0  -1  -7  339.81    8.34
   0   1   7  412.33    9.57
   0   1   7  390.40    9.75
   0  -1  -7  377.58    9.56
   0  -1  -7  357.64    9.16
   0   1   8   87.20    3.72
   0  -1  -8   90.46    3.90
   0   1   8   90.75    3.51
   0   1   8   91.02    3.93
   0  -1  -8   89.89    3.61
   0   1   8   90.02    3.23
   0   1   8   84.60    3.63
   0  -1  -8   94.22    3.91
   0  -1  -8   87.06    3.78
   0   1   8   97.24    3.90
   0  -1  -9   72.04    3.67
   0   1   9   71.66    3.27
   0  -1  -9   70.91    3.30
   0   1   9   64.28    3.48
   0   1   9   63.31    3.80
   0   1   9   67.61    3.43
   0  -1  -9   80.03    3.72
   0   1   9   69.99    2.97
   0  -1  -9   68.48    3.54
   0   1   9   80.56    3.75
   0  -1 -10   36.73    2.74
   0   1  10   33.12    2.82
   0   1  10   36.62    2.39
   0   1  10   38.17    2.71
   0   1  10   41.30    2.78
   0   1  10   35.16    2.56
   0  -1 -10   36.29    2.57
   0   1  10   32.75    2.08
   0   1  11   17.61    1.91
   0  -1 -11   19.67    1.92
   0   1  11   19.24    1.79
   0   1  11   17.43    1.88
   0   1  12   31.04    2.33
   0  -1 -12   28.72    2.45
   0   1  12   28.03    2.37
   0  -1 -12   29.99    2.58
   0  -1 -12   30.02    2.37
   0   1  12   33.42    2.65
   0  -1 -12   26.48    2.20
   0   1  13   20.93    1.93
   0  -1 -13   20.24    1.94
   0   1  13   20.81    1.82
   0  -1 -13   20.70    2.05
   0  -1 -13   20.06    1.82
   0   1  13   21.23    2.04
   0  -1 -13   20.08    1.79
   0  -1 -14  149.82    5.03
   0  -1 -14  155.89    5.62
   0   1  14  147.76    5.57
   0   1  14  156.12    5.76
   0  -1 -14  155.57    5.53
   0   1  14  144.34    5.18
   0   1  15   10.38    1.14
   0  -1 -15    9.93    1.08
   0   2 -16   61.82    2.87
   0  -2  16   68.57    3.18
   0   2 -16   60.62    2.66
   0   2 -16   62.21    2.86
   0   2 -15   36.54    2.34
   0   2 -15   37.97    2.45
   0  -2  15   35.77    2.40
   0   2 -15   39.00    2.50
   0  -2  15   34.86    2.31
   0   2 -14   67.33    3.59
   0  -2  14   61.67    3.50
   0   2 -14   60.80    3.43
   0   2 -14   54.98    3.02
   0  -2  14   57.47    3.33
   0   2 -13  126.73    5.12
   0  -2  13  119.78    5.39
   0   2 -13  134.34    5.57
   0  -2  13  120.21    5.13
   0  -2  13  124.30    5.60
   0  -2  13  133.00    5.53
   0   2 -12  878.70   21.34
   0   2 -12  924.89   21.88
   0  -2  12  918.46   22.01
   0  -2  12  890.48   21.11
   0   2 -12  972.74   22.08
   0  -2  12  868.36   21.40
   0  -2  12  946.43   22.32
   0  -2  12  898.47   21.86
   0   2 -11  118.05    4.91
   0   2 -11  120.96    5.24
   0   2 -11  118.59    4.85
   0  -2  11  115.45    5.09
   0  -2  11  118.38    4.79
   0   2 -11  128.69    5.27
   0  -2  11  115.07    4.91
   0  -2  11  126.41    5.41
   0  -2  11  126.05    5.29
   0  -2  10    7.89    1.09
   0   2 -10    9.03    1.16
   0  -2  10    9.15    1.26
   0   2 -10   10.18    1.35
   0  -2  10    9.90    1.33
   0   2 -10    9.49    1.24
   0  -2  10    8.82    1.22
   0   2 -10    7.91    1.10
   0   2  -9    0.30    0.29
   0   2  -9    0.31    0.25
   0   2  -9    0.15    0.21
   0  -2   9    0.35    0.32
   0  -2   9    0.25    0.24
   0  -2   9    0.74    0.36
   0   2  -9    0.28    0.25
   0  -2   9    0.24    0.29
   0   2  -9    0.33    0.22
   0   2  -8   37.70    2.09
   0   2  -8   36.69    1.80
   0  -2   8   37.45    1.73
   0  -2   8   36.09    2.23
   0   2  -8   35.90    2.13
   0  -2   8   38.21    2.15
   0  -2   8   36.43    2.20
   0   2  -8   33.62    1.96
   0  -2   8   45.27    2.22
   0   2  -7  769.32   17.15
   0  -2   7  807.54   17.14
   0   2  -6  128.33    3.56
   0  -2   6  132.94    3.55
   0  -2   6  132.76    3.73
   0  -2   5   62.57    2.11
   0   2  -5   60.84    2.04
   0  -2   5   61.27    2.03
   0   2  -4  244.14    5.75
   0  -2   4  245.20    5.66
   0  -2   4  256.39    5.75
   0   2  -3   79.27    2.38
   0   2  -3   74.91    2.15
   0  -2   3   72.64    2.03
   0  -2   2 3584.95   68.57
   0   2  -2 3400.35   68.85
   0  -2   1  251.02    5.26
   0  -2   1  254.64    5.13
   0   2  -1  244.84    5.59
   0   2   0  253.24    5.51
   0   2   0  242.72    5.20
   0  -2   0  237.97    5.50
   0  -2  -1    1.73    0.25
   0   2   1    1.54    0.24
   0   2   2  534.36   12.46
   0   2   2  557.96   11.93
   0  -2  -2  607.90   12.31
   0   2   2  613.00   12.33
   0   2   2  641.58   12.81
   0  -2  -2  580.79   12.34
   0   2   3   20.96    1.21
   0   2   3   18.34    0.92
   0  -2  -3   20.19    1.02
   0  -2  -3   18.99    1.08
   0   2   3   19.70    1.06
   0   2   4 1756.61   33.72
   0  -2  -4 1713.29   33.85
   0   2   4 1548.92   33.90
   0  -2  -4 1600.76   33.35
   0   2   4 1557.67   33.36
   0  -2  -4 1737.79   32.87
   0  -2  -5    5.43    0.71
   0   2   5    4.45    0.59
   0   2   5    4.11    0.66
   0   2   5    6.05    0.67
   0  -2  -5    6.46    0.63
   0  -2  -6   52.20    2.11
   0   2   6   54.85    2.42
   0   2   6   50.20    2.54
   0  -2  -6   57.59    2.63
   0   2   6   54.41    2.62
   0  -2  -6   55.88    2.54
   0  -2  -6   50.53    2.56
   0   2   6   50.82    2.34
   0   2   6   49.19    2.31
   0  -2  -6   58.69    2.65
   0   2   7    4.43    0.79
   0  -2  -7    4.80    0.73
   0   2   7    5.44    0.73
   0  -2  -7    5.45    0.83
   0  -2  -7    5.02    0.85
   0   2   7    4.84    0.83
   0   2   7    5.80    0.81
   0  -2  -7    5.49    0.88
   0  -2  -7    4.40    0.76
   0   2   7    5.39    0.79
   0  -2  -7    4.86    0.82
   0  -2  -8   17.43    1.67
   0   2   8   15.83    1.50
   0   2   8   15.17    1.56
   0  -2  -8   18.18    1.69
   0  -2  -8   16.55    1.52
   0   2   8   18.13    1.44
   0  -2  -8   16.21    1.71
   0  -2  -8   17.54    1.66
   0  -2  -8   15.82    1.55
   0   2   8   14.25    1.41
   0   2   8   18.33    1.61
   0   2   8   16.43    1.60
   0  -2  -9    3.49    0.86
   0  -2  -9    3.24    0.76
   0   2   9    3.38    0.68
   0   2   9    4.92    0.96
   0  -2  -9    2.91    0.80
   0  -2  -9    4.10    0.93
   0  -2  -9    2.63    0.69
   0   2   9    3.73    0.80
   0   2   9    2.98    0.74
   0   2  10   46.42    3.14
   0  -2 -10   45.70    3.03
   0   2  10   48.83    2.78
   0  -2 -10   54.72    3.44
   0   2  10   46.57    3.00
   0  -2 -10   47.72    2.95
   0  -2 -11   10.86    1.41
   0   2  11   13.20    1.63
   0  -2 -11   11.40    1.56
   0  -2 -11   13.20    1.64
   0   2  11   12.62    1.66
   0   2  12    8.54    1.32
   0  -2 -12   10.16    1.40
   0  -2 -12    9.01    1.33
   0   2  12    7.71    1.11
   0  -2 -12    9.38    1.32
   0   2  12    8.07    1.31
   0   2  13   16.35    1.70
   0  -2 -13   16.36    1.59
   0  -2 -13   14.37    1.54
   0   2  13   16.38    1.66
   0  -2 -14   13.81    1.26
   0   2  14   12.99    1.27
   0  -2 -14   12.61    1.24
   0   2  14   15.48    1.53
   0   2  14   15.16    1.44
   0  -3  16   48.86    2.64
   0   3 -16   45.58    2.36
   0  -3  16   41.82    2.34
   0   3 -15   34.91    2.25
   0  -3  15   39.14    2.92
   0   3 -15   39.19    2.40
   0  -3  15   36.10    2.48
   0   3 -15   38.90    2.45
   0   3 -15   39.35    2.55
   0  -3  15   36.02    2.28
   0   3 -14   29.58    2.27
   0   3 -14   30.21    2.30
   0  -3  14   35.84    3.02
   0  -3  14   31.51    2.52
   0   3 -14   32.51    2.39
   0   3 -14   33.38    2.53
   0  -3  14   30.93    2.36
   0   3 -13   42.80    2.86
   0  -3  13   42.76    3.43
   0   3 -13   42.16    2.94
   0  -3  13   44.03    3.11
   0   3 -13   46.05    2.97
   0   3 -13   44.72    3.02
   0  -3  13   42.23    2.92
   0  -3  13   39.16    2.77
   0  -3  12  147.43    5.82
   0   3 -12  134.92    5.56
   0   3 -12  148.54    6.04
   0  -3  12  145.60    6.69
   0   3 -12  138.68    5.65
   0  -3  12  141.99    6.01
   0  -3  12  134.61    5.70
   0   3 -12  148.13    5.92
   0  -3  12  149.44    5.85
   0  -3  11   16.76    1.72
   0  -3  11   16.50    1.73
   0   3 -11   14.38    1.42
   0   3 -11   16.87    1.74
   0  -3  11   18.07    2.14
   0  -3  11   17.83    1.88
   0   3 -11   17.37    1.73
   0  -3  11   14.71    1.71
   0   3 -11   17.67    1.80
   0  -3  11   16.97    1.81
   0   3 -11   24.57    2.19
   0  -3  10    2.01    0.61
   0   3 -10    1.89    0.53
   0  -3  10    2.25    0.64
   0   3 -10    1.70    0.57
   0  -3  10    2.33    0.80
   0   3 -10    1.95    0.60
   0   3 -10    1.16    0.49
   0  -3  10    1.01    0.47
   0  -3  10    1.13    0.49
   0   3 -10    1.55    0.57
   0  -3   9  630.18   14.24
   0   3  -9  593.13   14.30
   0   3  -9  585.49   13.96
   0   3  -9  586.47   13.82
   0  -3   9  560.42   14.31
   0  -3   9  565.57   14.65
   0   3  -9  626.22   14.49
   0  -3   9  593.18   14.62
   0   3  -9  569.63   13.62
   0  -3   8  379.08    9.13
   0   3  -8  358.56    8.94
   0  -3   8  363.89    9.41
   0   3  -8  345.72    8.93
   0  -3   8  350.68    9.64
   0  -3   8  349.65    9.51
   0   3  -8  361.60    9.32
   0  -3   8  339.56    9.53
   0   3  -8  352.23    8.83
   0  -3   7  208.91    6.20
   0   3  -7  209.30    5.59
   0   3  -7  211.20    5.84
   0  -3   7  212.29    5.58
   0  -3   6  873.05   17.86
   0   3  -6  815.04   17.92
   0  -3   5   47.32    1.76
   0   3  -5   43.90    1.81
   0   3  -5   48.23    2.04
   0   3  -4  592.41   12.60
   0   3  -4  558.21   12.82
   0   3  -4  576.57   12.68
   0  -3   3    4.04    0.35
   0   3  -3    3.83    0.50
   0   3  -3    3.18    0.39
   0   3  -3    3.25    0.42
   0   3  -2 1347.43   26.41
   0   3  -2 1403.54   26.33
   0  -3   2 1433.95   26.65
   0  -3   1    9.89    0.38
   0   3  -1   10.14    0.69
   0  -3   0    2.01    0.31
   0  -3   0    1.79    0.35
   0   3   0    2.31    0.31
   0   3   1   37.97    1.53
   0   3   1   35.86    1.32
   0  -3  -1   33.22    1.44
   0   3   2  605.45   13.75
   0  -3  -2  618.48   13.41
   0   3   2  635.29   13.37
   0   3   3  255.76    6.81
   0  -3  -3  250.19    6.38
   0   3   3  255.54    6.30
   0   3   4  235.51    6.82
   0  -3  -4  250.27    6.61
   0   3   4  253.59    6.40
   0   3   5   40.90    2.17
   0  -3  -5   43.00    2.28
   0   3   5   41.48    2.25
   0  -3  -5   44.04    2.23
   0   3   5   41.66    2.11
   0   3   5   41.57    2.02
   0   3   5   42.60    2.31
   0  -3  -5   44.24    2.27
   0   3   5   39.48    2.31
   0   3   6   52.04    2.85
   0   3   6   51.78    2.70
   0  -3  -6   59.20    2.87
   0   3   6   53.37    2.78
   0  -3  -6   51.76    2.71
   0   3   6   51.09    2.57
   0  -3  -6   50.69    2.59
   0   3   6   51.87    2.46
   0  -3  -6   55.59    2.75
   0  -3  -6   53.47    2.71
   0   3   6   46.95    2.38
   0   3   7  605.01   15.56
   0  -3  -7  658.18   15.27
   0   3   7  623.18   15.31
   0   3   7  631.41   14.56
   0   3   7  640.09   15.65
   0  -3  -7  642.73   15.51
   0  -3  -7  683.95   15.75
   0  -3  -7  634.41   15.38
   0   3   7  603.28   14.87
   0  -3  -7  674.16   15.70
   0   3   7  607.00   14.92
   0   3   8  105.27    4.62
   0  -3  -8  103.73    4.32
   0  -3  -8  100.90    4.71
   0   3   8  106.29    4.30
   0   3   8  104.79    4.34
   0  -3  -8  110.28    4.73
   0   3   8  100.49    3.91
   0  -3  -8  105.50    4.54
   0  -3  -8  107.62    4.69
   0   3   8  107.47    4.73
   0  -3  -9    1.24    0.56
   0   3   9    1.45    0.55
   0   3   9    1.38    0.54
   0  -3  -9    0.72    0.44
   0  -3  -9    0.65    0.47
   0   3   9    0.94    0.38
   0   3   9    1.20    0.58
   0  -3  -9    1.21    0.54
   0  -3 -10   13.95    1.66
   0   3  10   12.75    1.36
   0  -3 -10   11.94    1.55
   0   3  10   13.59    1.74
   0  -3 -10   12.74    1.56
   0   3  10   10.59    1.43
   0  -3 -10   11.77    1.62
   0   3  11    8.09    1.26
   0  -3 -11   10.06    1.46
   0  -3 -11   10.46    1.39
   0  -3 -11    8.76    1.30
   0   3  11    9.68    1.46
   0   3  12   31.63    2.40
   0  -3 -12   35.45    2.53
   0   3  12   34.19    2.56
   0  -3 -12   29.73    2.21
   0   3  13   90.72    3.88
   0   3  13   83.58    3.79
   0  -3 -13   89.56    3.80
   0   3  14    2.90    0.64
   0   4 -16   10.15    1.01
   0   4 -16   10.30    1.13
   0  -4  16   10.99    1.21
   0  -4  16   11.63    1.36
   0   4 -15    3.83    0.74
   0  -4  15    3.42    0.78
   0   4 -15    4.41    0.80
   0   4 -15    4.46    0.79
   0  -4  15    4.88    1.05
   0   4 -15    3.71    0.79
   0  -4  15    3.83    0.86
   0   4 -15    4.15    0.80
   0   4 -14   61.24    3.38
   0  -4  14   60.80    3.96
   0   4 -14   67.70    3.57
   0   4 -14   58.91    3.21
   0  -4  14   58.53    3.52
   0  -4  14   62.72    3.70
   0   4 -14   60.90    3.42
   0  -4  14   51.50    3.01
   0  -4  13   -0.07    0.30
   0   4 -13    0.38    0.39
   0  -4  13    0.11    0.42
   0  -4  13    0.32    0.42
   0   4 -13    0.07    0.31
   0   4 -13    0.92    0.56
   0   4 -13    0.16    0.33
   0  -4  12   74.49    3.87
   0   4 -12   76.03    4.00
   0  -4  12   84.84    4.87
   0  -4  12   85.39    4.44
   0   4 -12   80.60    3.94
   0   4 -12   81.36    4.12
   0  -4  12   72.49    4.08
   0   4 -12   79.75    4.27
   0   4 -11   12.27    1.60
   0  -4  11   10.03    1.32
   0   4 -11   11.06    1.29
   0  -4  11   10.86    1.69
   0  -4  11   11.93    1.46
   0   4 -11   10.81    1.36
   0  -4  11   11.80    1.60
   0   4 -11   11.35    1.44
   0   4 -11   11.57    1.36
   0  -4  10   48.94    2.77
   0  -4  10   48.14    2.82
   0   4 -10   43.84    2.57
   0  -4  10   51.24    3.50
   0  -4  10   48.33    3.12
   0   4 -10   49.16    2.79
   0   4 -10   49.85    2.90
   0  -4  10   47.78    3.05
   0   4 -10   45.68    2.93
   0   4  -9  206.78    6.70
   0   4  -9  206.18    6.36
   0  -4   9  192.05    6.43
   0   4  -9  214.83    6.56
   0  -4   9  211.27    7.10
   0   4  -9  219.41    6.76
   0  -4   9  221.02    6.49
   0  -4   8  245.31    6.68
   0   4  -8  247.80    7.11
   0   4  -8  238.33    6.81
   0  -4   8  215.54    6.73
   0   4  -8  252.77    6.92
   0  -4   8  238.38    6.88
   0  -4   8  230.92    7.40
   0   4  -8  247.81    7.02
   0   4  -8  226.85    6.64
   0  -4   7   13.68    1.08
   0   4  -7   11.47    1.14
   0  -4   7   10.95    1.26
   0  -4   7   11.67    1.30
   0   4  -7   11.79    1.07
   0   4  -7   12.29    1.12
   0  -4   6  231.97    5.91
   0   4  -6  229.48    6.10
   0   4  -5   69.19    2.77
   0  -4   5   79.40    2.46
   0   4  -5   72.82    2.66
   0   4  -5   70.79    2.76
   0  -4   5   81.93    3.16
   0   4  -4   15.41    1.04
   0   4  -4   12.89    1.03
   0   4  -4   13.15    1.11
   0  -4   4   13.84    0.77
   0  -4   4   12.16    0.67
   0  -4   4   14.36    1.20
   0   4  -3  405.37   10.46
   0   4  -3  437.52   10.63
   0  -4   3  488.67    9.56
   0  -4   3  459.06   11.05
   0   4  -2  154.17    4.64
   0  -4   2  165.19    3.53
   0   4  -2  162.78    4.56
   0  -4   2  178.06    5.19
   0   4  -2  180.52    4.72
   0   4  -1    0.59    0.24
   0  -4   1    0.35    0.16
   0   4  -1    0.29    0.18
   0  -4   0  227.78    6.28
   0  -4   0  220.66    5.75
   0   4   1  479.21   11.42
   0  -4  -1  485.92   10.98
   0   4   1  504.46   11.07
   0   4   1  482.60   10.64
   0   4   2   16.10    1.30
   0   4   2   14.73    1.07
   0  -4  -2   13.80    1.07
   0   4   3   43.86    2.38
   0   4   3   48.03    2.11
   0  -4  -3   43.84    2.13
   0  -4  -4    8.01    0.79
   0   4   4   13.00    1.19
   0   4   4   10.99    1.08
   0  -4  -4    9.68    1.03
   0  -4  -4    7.94    1.07
   0   4   4   10.06    1.01
   0  -4  -4    7.56    0.90
   0   4   4    9.11    1.08
   0   4   4    9.15    1.12
   0   4   5 1073.80   25.44
   0  -4  -5 1161.85   25.36
   0  -4  -5 1094.92   24.82
   0   4   5 1185.32   24.91
   0   4   5 1115.43   24.77
   0  -4  -5 1245.59   25.69
   0  -4  -5 1233.62   25.27
   0   4   5 1145.13   24.51
   0   4   5 1124.05   24.56
   0  -4  -5 1143.68   25.12
   0   4   5 1143.46   25.51
   0   4   6    3.42    0.80
   0  -4  -6    2.67    0.67
   0  -4  -6    4.77    0.81
   0  -4  -6    4.09    0.80
   0   4   6    6.03    0.91
   0   4   6    2.15    0.61
   0  -4  -6    3.78    0.81
   0   4   6    2.72    0.60
   0   4   6    1.75    0.49
   0  -4  -6    3.04    0.70
   0   4   7   61.40    3.25
   0  -4  -7   54.31    3.13
   0  -4  -7   61.20    3.38
   0   4   7   56.69    3.32
   0   4   7   56.50    2.67
   0  -4  -7   55.74    3.19
   0   4   7   58.42    3.39
   0   4   7   58.96    2.96
   0   4   7   60.90    3.03
   0  -4  -7   62.45    3.37
   0  -4  -8   48.18    2.96
   0   4   8   49.58    2.86
   0   4   8   48.42    2.88
   0  -4  -8   48.85    3.13
   0  -4  -8   43.86    2.91
   0  -4  -8   52.62    3.23
   0   4   8   49.68    3.23
   0   4   9    0.43    0.43
   0  -4  -9    0.60    0.44
   0  -4  -9    0.16    0.34
   0  -4  -9    0.82    0.45
   0   4   9    0.47    0.35
   0  -4  -9    0.63    0.36
   0   4  10   36.71    2.59
   0  -4 -10   36.18    2.59
   0  -4 -10   38.18    2.57
   0   4  10   41.32    3.03
   0   4  11   32.43    2.39
   0  -4 -11   31.02    2.45
   0   4  11   33.95    2.62
   0   4  12  162.51    5.89
   0  -4 -12  166.03    6.54
   0  -4 -12  160.06    5.73
   0  -4 -13    0.47    0.28
   0  -4 -13    0.41    0.32
   0   4  13    0.35    0.28
   0   4  13    0.43    0.32
   0  -4 -13    0.18    0.29
   0   4  13   -0.05    0.23
   0  -4 -14    5.55    0.72
   0  -4 -14    4.73    0.62
   0  -5  16    9.59    1.17
   0   5 -16    8.16    0.85
   0   5 -16    8.46    0.96
   0  -5  16    8.38    1.00
   0   5 -16    8.83    0.98
   0  -5  15   24.18    1.84
   0  -5  15   23.42    2.12
   0   5 -15   23.62    1.83
   0   5 -15   23.03    1.86
   0  -5  15   21.99    1.90
   0   5 -15   20.93    1.75
   0  -5  14  232.69    7.62
   0  -5  14  239.07    8.40
   0   5 -14  227.17    7.53
   0   5 -14  214.33    7.26
   0  -5  14  208.37    7.48
   0   5 -14  214.46    7.34
   0  -5  13   15.18    1.84
   0   5 -13   14.48    1.53
   0  -5  13   15.69    1.87
   0   5 -13   17.27    1.79
   0  -5  13   17.43    1.95
   0   5 -13   15.74    1.81
   0  -5  13   15.98    2.04
   0   5 -12   20.60    2.02
   0  -5  12   22.71    2.33
   0  -5  12   26.41    2.65
   0   5 -12   21.58    1.90
   0  -5  12   21.62    2.22
   0  -5  12   22.15    2.25
   0   5 -12   22.27    2.04
   0   5 -12   23.62    2.24
   0   5 -11   33.30    2.60
   0  -5  11   29.31    2.25
   0   5 -11   29.75    2.24
   0   5 -11   33.86    2.51
   0  -5  11   34.51    2.99
   0  -5  11   31.64    2.64
   0   5 -11   33.21    2.46
   0  -5  11   32.43    2.67
   0   5 -11   31.27    2.37
   0   5 -10   86.60    4.14
   0   5 -10   78.04    4.23
   0  -5  10   73.73    3.54
   0   5 -10   74.76    3.64
   0   5 -10   77.25    3.88
   0  -5  10   93.97    4.89
   0  -5  10   82.64    4.26
   0   5 -10   80.91    3.86
   0  -5  10   86.74    4.31
   0   5 -10   75.91    3.78
   0   5  -9   72.59    3.47
   0   5  -9   81.99    3.81
   0  -5   9   77.28    3.38
   0  -5   9   77.13    3.99
   0  -5   9   77.70    3.65
   0   5  -9   81.52    3.69
   0  -5   9   76.86    3.93
   0   5  -9   78.13    3.75
   0   5  -9   81.29    4.11
   0   5  -8  176.64    5.86
   0  -5   8  162.44    5.17
   0   5  -8  185.97    6.07
   0  -5   8  183.26    5.49
   0  -5   8  178.86    6.38
   0  -5   8  184.14    6.19
   0   5  -8  193.27    5.96
   0  -5   8  182.87    6.28
   0  -5   8  189.34    6.01
   0  -5   8  173.04    5.84
   0   5  -7  127.79    4.57
   0  -5   7  125.00    3.98
   0  -5   7  127.62    4.90
   0  -5   7  125.08    4.83
   0  -5   7  112.64    4.54
   0  -5   7  127.28    4.69
   0  -5   7  121.04    4.63
   0   5  -6  197.25    5.99
   0   5  -6  200.98    6.01
   0  -5   6  182.34    6.20
   0  -5   6  207.70    6.59
   0   5  -6  205.47    5.95
   0  -5   6  199.86    5.29
   0   5  -6  198.97    5.76
   0  -5   6  192.61    6.13
   0  -5   6  209.35    6.47
   0  -5   6  219.59    6.58
   0   5  -5  165.73    5.13
   0  -5   5  171.69    4.38
   0   5  -5  167.82    4.99
   0   5  -5  171.17    5.25
   0  -5   5  182.70    5.95
   0  -5   5  148.46    5.24
   0  -5   5  190.12    5.99
   0   5  -4   15.35    1.29
   0  -5   4   15.29    1.50
   0   5  -4   14.57    1.21
   0   5  -4   12.97    1.08
   0   5  -4   15.27    1.32
   0  -5   3  217.32    6.61
   0   5  -3  209.82    5.98
   0   5  -3  192.42    5.92
   0   5  -3  201.67    5.78
   0   5  -2  341.07    8.09
   0  -5   2  329.72    8.65
   0  -5   2  296.97    7.45
   0   5  -2  287.30    7.68
   0   5  -2  297.79    7.97
   0   5  -1    1.03    0.42
   0   5  -1    1.52    0.40
   0  -5   1    0.94    0.30
   0   5   0  388.70    8.94
   0   5   0  386.72    9.00
   0   5   1   47.08    2.38
   0   5   1   43.46    2.33
   0  -5  -1   45.81    2.48
   0  -5  -1   42.60    2.08
   0   5   1   44.73    2.12
   0  -5  -1   39.95    2.22
   0  -5  -2  524.01   12.42
   0   5   2  537.00   12.23
   0   5   2  492.57   12.33
   0  -5  -2  511.01   12.33
   0  -5  -2  428.31   11.64
   0   5   2  498.46   11.61
   0  -5  -2  460.22   11.82
   0   5   2  527.81   12.61
   0   5   3  203.18    6.30
   0  -5  -3  211.42    6.66
   0   5   3  206.09    6.54
   0   5   3  210.99    6.37
   0  -5  -3  211.87    6.52
   0  -5  -3  216.57    6.66
   0   5   3  205.30    6.63
   0  -5  -3  192.43    5.99
   0   5   3  213.03    5.99
   0  -5  -3  195.92    6.12
   0  -5  -4  988.17   21.28
   0   5   4  943.09   20.93
   0   5   4  926.57   20.62
   0  -5  -4  919.49   20.57
   0   5   4  871.85   20.05
   0   5   4  968.98   20.62
   0  -5  -4  973.63   21.15
   0   5   4  833.44   19.74
   0  -5  -4  871.01   20.21
   0  -5  -4  813.76   19.96
   0   5   4  883.84   20.86
   0   5   5   38.06    2.66
   0   5   5   38.07    2.35
   0   5   5   40.85    2.49
   0  -5  -5   42.73    2.58
   0  -5  -5   41.34    2.71
   0   5   5   44.89    2.71
   0   5   5   39.68    2.23
   0   5   5   39.40    2.70
   0  -5  -5   41.90    2.56
   0   5   5   41.87    2.31
   0   5   6    4.09    0.89
   0  -5  -6    3.82    0.85
   0  -5  -6    3.50    0.76
   0  -5  -6    3.70    0.89
   0   5   6    5.41    0.86
   0   5   6    2.66    0.63
   0  -5  -6    4.74    0.91
   0   5   7    8.35    1.29
   0   5   7    9.07    1.39
   0  -5  -7    7.42    1.14
   0  -5  -7   10.67    1.51
   0   5   7    7.52    1.18
   0  -5  -7    8.48    1.30
   0   5   7    8.63    1.14
   0  -5  -7    9.03    1.31
   0   5   7    7.27    1.06
   0   5   8  160.84    5.71
   0  -5  -8  151.40    6.01
   0   5   8  166.59    6.59
   0  -5  -8  163.54    6.41
   0  -5  -9   22.64    2.04
   0   5   9   21.02    2.17
   0  -5  -9   25.22    2.26
   0  -5  -9   26.21    2.65
   0   5   9   21.42    1.91
   0   5  10   79.19    4.21
   0  -5 -10   81.58    4.61
   0   5  11   15.61    1.66
   0  -5 -11   15.75    1.69
   0  -5 -11   15.77    1.60
   0  -5 -11   18.21    1.94
   0   5  12  103.56    4.11
   0  -5 -12  108.33    4.07
   0   5  12  104.01    4.27
   0  -5 -12  128.05    4.82
   0  -5 -12  120.24    4.41
   0   5  13    8.79    0.87
   0  -5 -13    8.61    0.90
   0  -5 -13    8.85    0.87
   0  -6  16   19.33    1.27
   0  -6  16   23.83    1.70
   0   6 -16   21.54    1.37
   0  -6  15    1.29    0.47
   0  -6  15    1.87    0.60
   0   6 -15    1.43    0.46
   0   6 -15    1.28    0.47
   0  -6  15    0.98    0.45
   0  -6  15    1.33    0.53
   0  -6  14    4.32    1.00
   0  -6  14    3.19    0.81
   0   6 -14    4.84    0.95
   0  -6  14    3.94    0.96
   0   6 -14    3.38    0.74
   0  -6  14    3.67    0.85
   0   6 -14    2.89    0.73
   0   6 -13    2.17    0.70
   0  -6  13    1.21    0.63
   0  -6  13    1.33    0.66
   0  -6  13    1.72    0.64
   0  -6  13    1.24    0.56
   0   6 -13    1.27    0.53
   0   6 -13    1.84    0.67
   0   6 -12    1.47    0.48
   0   6 -12    2.27    0.72
   0  -6  12    2.62    0.91
   0  -6  12    2.09    0.81
   0  -6  12    1.39    0.65
   0  -6  12    1.65    0.64
   0   6 -12    1.91    0.62
   0   6 -12    2.24    0.75
   0   6 -11  347.65   10.81
   0   6 -11  359.89   10.34
   0   6 -11  381.31   11.11
   0  -6  11  412.32   12.30
   0  -6  11  424.67   12.50
   0  -6  11  361.50   11.33
   0  -6  11  392.18   11.43
   0   6 -11  398.32   10.90
   0   6 -11  400.02   11.41
   0   6 -11  359.40   11.34
   0   6 -10   -0.08    0.34
   0   6 -10    0.59    0.42
   0   6 -10    0.69    0.42
   0  -6  10    0.34    0.36
   0  -6  10    0.13    0.30
   0  -6  10    0.39    0.45
   0   6 -10    0.13    0.26
   0   6 -10    0.11    0.23
   0   6 -10    0.22    0.34
   0   6  -9    3.03    0.80
   0  -6   9    1.79    0.58
   0   6  -9    3.13    0.78
   0  -6   9    1.77    0.61
   0  -6   9    1.67    0.61
   0  -6   9    1.83    0.61
   0   6  -9    1.59    0.51
   0   6  -9    2.65    0.72
   0   6  -9    1.42    0.57
   0   6  -8   44.97    2.89
   0  -6   8   35.09    2.17
   0   6  -8   46.11    2.77
   0   6  -8   40.69    2.60
   0  -6   8   40.55    2.78
   0  -6   8   44.18    2.89
   0  -6   8   42.01    2.72
   0   6  -8   42.91    2.50
   0  -6   8   43.50    2.72
   0  -6   8   47.21    2.95
   0   6  -7    3.47    0.68
   0   6  -7    5.98    0.96
   0   6  -7    3.63    0.76
   0  -6   7    3.79    0.88
   0  -6   7    3.23    0.72
   0   6  -7    4.27    0.79
   0   6  -7    3.49    0.79
   0  -6   7    3.79    0.82
   0   6  -6  387.44    9.83
   0   6  -6  353.64    9.67
   0   6  -6  380.52   10.40
   0   6  -6  387.00   10.04
   0  -6   6  394.02   10.99
   0   6  -6  369.25   10.10
   0  -6   6  358.76   10.03
   0   6  -6  379.91   10.12
   0  -6   6  420.19   11.26
   0   6  -6  386.96   10.48
   0  -6   6  375.95   10.69
   0   6  -5   79.80    3.43
   0   6  -5   86.58    3.50
   0   6  -5   89.62    3.77
   0  -6   5   94.57    4.36
   0  -6   5   94.44    4.37
   0   6  -5   93.17    3.88
   0   6  -5   95.26    3.99
   0  -6   5   99.61    4.49
   0  -6   5   95.23    4.33
   0  -6   4   62.48    3.40
   0   6  -4   60.13    3.00
   0  -6   4   63.77    3.45
   0  -6   4   57.29    3.17
   0   6  -4   54.83    2.70
   0   6  -4   54.77    2.90
   0   6  -4   52.48    2.58
   0   6  -4   63.09    2.97
   0   6  -4   59.56    3.08
   0  -6   3   91.70    3.39
   0   6  -3   98.56    4.25
   0   6  -3  108.21    4.10
   0  -6   3  101.89    4.47
   0   6  -3   99.93    4.04
   0  -6   3   87.84    3.90
   0   6  -3   94.46    3.69
   0   6  -3   92.76    3.90
   0   6  -3  101.63    4.20
   0   6  -3  109.33    4.10
   0   6  -2   18.68    1.57
   0   6  -2   19.07    1.46
   0  -6   2   20.19    1.78
   0  -6   2   18.57    1.57
   0   6  -2   19.63    1.66
   0   6  -2   19.80    1.76
   0   6  -2   25.39    1.78
   0  -6   2   19.29    1.76
   0  -6   2   20.13    1.82
   0  -6   2   19.23    1.37
   0   6  -2   20.15    1.73
   0   6  -1   49.80    2.64
   0   6  -1   56.00    2.99
   0   6  -1   52.62    2.80
   0  -6   1   58.89    3.12
   0  -6   1   46.90    2.57
   0   6  -1   55.73    2.89
   0  -6   1   51.80    2.94
   0  -6   1   48.60    2.35
   0   6  -1   60.21    3.24
   0  -6   1   58.69    3.10
   0   6  -1   55.68    2.67
   0  -6   0  539.23   13.49
   0  -6   0  565.18   14.02
   0   6   0  574.69   13.31
   0  -6   0  537.44   13.04
   0  -6   0  545.08   13.86
   0   6   0  567.57   14.12
   0   6   0  566.99   13.91
   0   6   1   27.68    2.02
   0   6   1   23.26    1.88
   0   6   1   32.98    2.20
   0  -6  -1   28.83    2.06
   0  -6  -1   24.81    2.03
   0  -6  -1   23.85    1.85
   0   6   1   26.42    1.74
   0   6   1   22.07    2.03
   0  -6  -1   23.02    1.84
   0   6   2    1.94    0.60
   0  -6  -2    1.83    0.60
   0  -6  -2    1.49    0.53
   0   6   2    0.52    0.35
   0  -6  -2    1.17    0.45
   0  -6  -2    0.81    0.40
   0  -6  -2    0.53    0.31
   0   6   2    0.76    0.33
   0   6   2    0.41    0.36
   0   6   2    1.02    0.51
   0   6   3  181.17    6.53
   0   6   3  188.44    6.44
   0   6   3  187.66    5.96
   0  -6  -3  187.56    6.81
   0  -6  -3  188.78    6.57
   0   6   3  182.08    6.31
   0  -6  -3  195.68    6.18
   0  -6  -3  180.26    6.52
   0   6   3  194.60    6.42
   0   6   3  194.97    6.70
   0  -6  -3  199.26    6.83
   0   6   3  187.45    6.94
   0  -6  -3  192.68    7.18
   0  -6  -3  182.01    5.99
   0  -6  -3  181.45    6.20
   0   6   3  182.90    5.77
   0   6   4   47.32    2.88
   0  -6  -4   42.42    2.94
   0   6   4   40.03    2.44
   0  -6  -4   41.04    2.72
   0  -6  -4   41.63    2.86
   0   6   4   43.75    2.88
   0   6   4   47.76    3.01
   0   6   4   45.90    2.83
   0  -6  -4   47.61    3.09
   0  -6  -4   40.59    2.56
   0   6   4   39.98    2.32
   0  -6  -4   42.51    2.62
   0   6   4   41.50    3.10
   0  -6  -4   42.31    3.19
   0  -6  -5   79.92    4.65
   0   6   5   79.47    4.56
   0  -6  -5   80.67    3.98
   0  -6  -5   76.49    4.17
   0   6   5   82.06    3.98
   0   6   5   83.25    3.84
   0  -6  -5   78.91    4.22
   0   6   5   76.32    4.05
   0   6   5   83.88    4.29
   0  -6  -5   84.80    4.37
   0   6   5   82.65    4.12
   0   6   5   78.45    3.42
   0  -6  -5   81.61    3.94
   0  -6  -6    0.53    0.50
   0   6   6    0.61    0.51
   0  -6  -6    0.43    0.45
   0   6   6    0.48    0.39
   0  -6  -6    0.58    0.52
   0   6   6    0.39    0.35
   0   6   6    1.25    0.45
   0  -6  -6    0.29    0.35
   0  -6  -7    0.90    0.52
   0  -6  -7    1.50    0.64
   0   6   7    0.74    0.41
   0   6   7    0.93    0.58
   0  -6  -7    1.29    0.71
   0  -6  -8   82.29    4.41
   0  -6  -8   86.23    4.43
   0  -6  -8   86.81    4.30
   0  -6  -8   83.84    4.82
   0   6   8   84.07    4.73
   0  -6  -9   39.04    2.80
   0  -6  -9   35.92    2.69
   0   6   9   38.49    2.80
   0  -6  -9   36.29    2.51
   0  -6  -9   36.84    2.96
   0   6  10   57.79    3.27
   0  -6 -10   63.65    3.38
   0  -6 -10   60.40    3.23
   0  -6 -10   62.33    3.60
   0   6  11   31.05    2.02
   0   6  11   27.78    1.86
   0  -6 -11   32.45    2.05
   0  -6 -11   27.71    1.85
   0  -6 -11   33.72    2.25
   0  -6 -12    6.44    0.71
   0   6  12    6.05    0.72
   0  -7  16    2.53    0.45
   0   7 -16    2.57    0.44
   0  -7  15   23.69    1.92
   0   7 -15   27.89    1.86
   0  -7  15   26.70    1.87
   0  -7  15   29.27    2.03
   0   7 -15   24.77    1.77
   0   7 -14  118.42    4.72
   0  -7  14  108.62    4.78
   0  -7  14  116.59    4.86
   0   7 -14  108.34    4.49
   0  -7  14  101.39    4.24
   0  -7  14  113.58    4.64
   0  -7  13  100.47    4.87
   0  -7  13  103.26    4.92
   0   7 -13   91.64    4.35
   0  -7  13   91.55    4.28
   0   7 -13  101.89    4.65
   0  -7  12   82.04    4.51
   0  -7  12   81.60    4.48
   0   7 -12   63.23    3.30
   0   7 -12   67.70    3.79
   0  -7  12   73.47    4.47
   0  -7  12   70.04    3.79
   0   7 -12   72.31    3.98
   0  -7  11   17.17    2.09
   0  -7  11   18.28    2.15
   0   7 -11   16.48    1.70
   0   7 -11   15.36    1.76
   0   7 -11   16.63    1.92
   0   7 -11   17.81    1.94
   0  -7  11   18.17    2.24
   0   7 -11   13.36    1.40
   0  -7  11   16.24    1.81
   0   7 -10  188.22    6.73
   0   7 -10  195.02    7.04
   0  -7  10  205.74    8.10
   0  -7  10  180.93    6.76
   0   7 -10  174.98    6.16
   0   7 -10  183.53    7.08
   0   7 -10  183.36    6.84
   0   7  -9   72.49    4.04
   0  -7   9   69.69    3.67
   0  -7   9   82.39    4.67
   0   7  -9   75.93    3.96
   0   7  -9   73.25    3.90
   0  -7   9   84.97    4.88
   0   7  -9   71.14    3.61
   0  -7   9   77.14    3.97
   0   7  -9   74.22    4.08
   0   7  -8  282.26    9.13
   0  -7   8  283.17    9.05
   0  -7   8  278.35    8.87
   0   7  -8  260.93    7.91
   0   7  -8  301.00    8.92
   0  -7   8  252.65    8.13
   0   7  -8  288.82    9.02
   0  -7   8  308.30   10.00
   0  -7   8  312.74   10.24
   0   7  -8  270.95    8.51
   0   7  -8  293.51    9.18
   0   7  -8  292.88    8.75
   0   7  -7  201.87    6.60
   0  -7   7  178.34    6.32
   0   7  -7  192.97    6.88
   0   7  -7  182.10    6.13
   0   7  -7  187.27    6.21
   0  -7   7  204.82    7.59
   0  -7   7  194.36    7.56
   0   7  -7  180.32    6.47
   0  -7   7  194.89    7.13
   0  -7   7  180.03    6.83
   0   7  -7  186.93    6.87
   0  -7   6   43.30    2.58
   0   7  -6   47.65    2.74
   0   7  -6   47.87    3.07
   0   7  -6   44.42    2.53
   0   7  -6   48.98    2.71
   0  -7   6   49.29    3.33
   0   7  -6   45.28    2.86
   0  -7   6   46.91    3.29
   0  -7   6   51.86    3.33
   0   7  -6   50.08    3.11
   0  -7   6   51.54    3.30
   0   7  -5   79.21    3.69
   0  -7   5   73.62    3.61
   0   7  -5   78.84    3.53
   0   7  -5   72.25    3.30
   0  -7   5   77.70    4.11
   0  -7   5   77.70    4.20
   0  -7   5   80.57    4.25
   0   7  -5   81.37    4.00
   0   7  -4  447.22   11.94
   0   7  -4  433.59   11.65
   0   7  -4  437.94   12.16
   0  -7   4  415.85   11.67
   0   7  -4  416.76   11.14
   0   7  -4  438.53   11.83
   0   7  -4  420.70   11.02
   0  -7   4  437.48   12.04
   0   7  -4  436.77   11.90
   0  -7   4  450.20   12.59
   0   7  -4  422.11   12.11
   0   7  -4  457.44   12.02
   0  -7   4  463.81   12.73
   0   7  -3  170.84    6.13
   0   7  -3  163.35    6.26
   0   7  -3  166.16    6.00
   0  -7   3  167.35    6.20
   0   7  -3  157.06    5.41
   0   7  -3  160.92    5.54
   0   7  -3  169.89    6.01
   0  -7   3  177.66    6.79
   0   7  -3  178.43    6.28
   0  -7   3  153.32    5.90
   0   7  -3  178.55    6.12
   0   7  -3  169.30    6.42
   0  -7   2  268.35    8.55
   0   7  -2  239.41    7.77
   0   7  -2  258.90    8.20
   0  -7   2  251.41    8.14
   0   7  -2  225.71    7.48
   0   7  -2  227.39    7.07
   0   7  -2  256.13    8.00
   0  -7   2  223.68    7.45
   0  -7   2  243.44    8.26
   0   7  -2  233.34    7.40
   0   7  -2  244.71    7.08
   0  -7   2  263.37    8.40
   0   7  -2  252.17    8.38
   0   7  -1   45.54    2.92
   0  -7   1   51.70    3.32
   0   7  -1   45.07    2.77
   0  -7   1   50.46    3.19
   0   7  -1   45.75    2.89
   0   7  -1   53.23    3.20
   0  -7   1   48.16    3.07
   0  -7   1   48.71    3.08
   0   7  -1   48.62    2.56
   0   7  -1   50.39    3.28
   0   7   0   56.30    3.17
   0   7   0   69.48    3.96
   0  -7   0   64.31    3.52
   0   7   0   64.98    3.51
   0   7   0   61.32    3.46
   0  -7   0   60.84    3.18
   0  -7   0   59.86    3.67
   0   7   0   64.30    3.56
   0  -7   0   57.57    3.34
   0  -7   0   58.78    3.24
   0  -7  -1   13.97    1.77
   0   7   1   11.35    1.52
   0  -7  -1   13.04    1.63
   0  -7  -1   13.33    1.53
   0   7   1   11.17    1.35
   0  -7  -1   13.54    1.56
   0  -7  -1   10.75    1.39
   0   7   1   14.10    1.81
   0  -7  -1   13.16    1.53
   0   7   1   14.71    1.75
   0  -7  -2  552.14   14.87
   0   7   2  513.99   13.15
   0  -7  -2  530.30   14.50
   0   7   2  541.12   14.33
   0  -7  -2  580.34   14.27
   0  -7  -2  529.67   14.24
   0   7   2  529.72   14.35
   0  -7  -2  550.92   14.43
   0   7   2  532.29   13.90
   0   7   2  505.72   14.56
   0  -7  -2  573.39   15.36
   0   7   2  584.07   14.95
   0   7   2  572.15   15.56
   0  -7  -2  521.93   14.01
   0  -7  -3  160.94    6.31
   0   7   3  167.54    6.31
   0   7   3  144.96    5.32
   0   7   3  144.16    5.77
   0   7   3  168.95    6.41
   0  -7  -3  173.55    6.59
   0   7   3  153.31    5.93
   0  -7  -3  155.81    6.22
   0   7   3  154.27    6.54
   0  -7  -3  162.78    6.89
   0  -7  -3  145.79    5.79
   0   7   3  170.70    6.57
   0  -7  -4  231.51    8.21
   0  -7  -4  255.64    8.77
   0   7   4  226.22    7.34
   0  -7  -4  230.64    8.08
   0   7   4  239.75    8.11
   0  -7  -4  247.50    9.06
   0   7   4  228.32    8.66
   0  -7  -4  267.68    8.81
   0   7   4  240.91    8.32
   0   7   4  246.98    8.14
   0  -7  -5   39.05    2.94
   0   7   5   41.97    2.87
   0  -7  -5   39.73    3.05
   0   7   5   38.15    2.54
   0  -7  -5   37.68    2.76
   0   7   5   35.44    3.07
   0  -7  -5   37.70    3.20
   0  -7  -5   44.26    3.20
   0   7   5   38.21    2.90
   0  -7  -6   48.02    3.28
   0   7   6   50.04    3.36
   0  -7  -6   56.73    3.61
   0  -7  -6   49.13    3.07
   0  -7  -6   53.70    3.50
   0  -7  -6   52.49    3.76
   0   7   6   50.77    3.67
   0  -7  -7  193.51    7.24
   0  -7  -7  204.22    7.32
   0   7   7  200.30    7.40
   0  -7  -7  200.97    7.37
   0  -7  -7  202.04    7.28
   0  -7  -7  202.13    7.89
   0   7   7  198.37    7.68
   0  -7  -8   68.30    3.64
   0  -7  -8   62.47    3.41
   0  -7  -8   62.34    3.47
   0  -7  -8   69.49    3.99
   0   7   8   67.34    3.83
   0  -7  -9    0.76    0.42
   0  -7  -9    0.57    0.34
   0  -7  -9    0.61    0.34
   0   7   9    0.33    0.34
   0  -7  -9    0.63    0.42
   0   7  10    5.36    0.80
   0  -7 -10    5.23    0.77
   0  -7 -10    5.70    0.88
   0  -8  15   16.11    1.32
   0   8 -15   18.45    1.35
   0  -8  14    0.18    0.33
   0  -8  14    0.28    0.32
   0   8 -14    0.10    0.20
   0  -8  14    0.19    0.24
   0  -8  14    0.06    0.24
   0   8 -14    0.27    0.32
   0  -8  13    1.98    0.66
   0  -8  13    3.19    0.82
   0   8 -13    2.14    0.62
   0  -8  13    2.52    0.76
   0   8 -13    2.90    0.73
   0  -8  13    3.26    0.85
   0  -8  12  189.87    6.89
   0   8 -12  153.94    5.64
   0   8 -12  170.92    6.23
   0  -8  12  162.10    6.76
   0   8 -12  176.41    6.46
   0  -8  11   16.07    1.98
   0  -8  11   21.24    2.20
   0   8 -11   16.32    1.77
   0   8 -11   16.99    1.75
   0   8 -11   16.40    1.55
   0  -8  11   18.02    2.15
   0   8 -11   15.86    1.79
   0   8 -11   17.98    1.94
   0  -8  10    6.96    1.34
   0   8 -10    5.12    1.01
   0   8 -10    5.86    1.10
   0  -8  10    6.22    1.13
   0   8 -10    5.42    0.97
   0  -8  10    5.05    1.20
   0   8 -10    5.75    1.15
   0  -8   9    2.65    0.74
   0  -8   9    3.84    1.02
   0   8  -9    1.89    0.56
   0  -8   9    3.18    0.74
   0   8  -9    3.10    0.81
   0   8  -9    2.40    0.77
   0   8  -9    2.93    0.79
   0  -8   9    3.31    0.98
   0   8  -9    3.14    0.87
   0   8  -9    3.48    0.85
   0   8  -8    1.29    0.62
   0  -8   8    0.56    0.48
   0   8  -8    0.09    0.32
   0   8  -8    0.60    0.42
   0  -8   8    0.14    0.27
   0  -8   8    0.28    0.36
   0  -8   8    0.33    0.40
   0   8  -8    0.83    0.46
   0  -8   8    0.20    0.41
   0   8  -8    1.55    0.56
   0   8  -8    0.83    0.55
   0   8  -7  512.38   13.52
   0   8  -7  544.67   14.68
   0  -8   7  513.54   13.98
   0   8  -7  525.12   13.53
   0  -8   7  528.51   14.82
   0  -8   7  547.66   15.16
   0   8  -7  513.09   14.13
   0  -8   7  515.30   14.42
   0   8  -7  553.70   14.86
   0  -8   7  523.72   14.43
   0  -8   6   22.93    1.84
   0  -8   6   24.05    1.99
   0   8  -6   25.74    2.13
   0  -8   6   26.07    2.28
   0   8  -6   26.67    2.10
   0  -8   6   22.74    2.28
   0  -8   6   34.33    2.93
   0  -8   6   25.84    2.45
   0   8  -6   25.17    2.29
   0  -8   6   26.91    2.48
   0   8  -6   26.72    2.45
   0   8  -6   24.60    2.38
   0  -8   5   99.72    4.13
   0   8  -5  104.76    5.06
   0   8  -5   96.26    4.50
   0  -8   5  100.08    4.78
   0  -8   5   91.55    4.36
   0   8  -5  100.33    4.37
   0  -8   5  102.64    4.97
   0  -8   5  105.02    5.16
   0   8  -5  107.41    5.16
   0   8  -5  100.83    4.81
   0  -8   4   32.49    2.25
   0   8  -4   37.61    2.76
   0   8  -4   35.46    2.82
   0   8  -4   34.72    2.60
   0  -8   4   31.55    2.52
   0   8  -4   35.02    2.64
   0   8  -4   33.34    2.37
   0   8  -4   37.70    2.82
   0  -8   4   37.00    2.77
   0  -8   4   38.96    3.10
   0   8  -4   38.02    2.97
   0   8  -4   36.20    2.68
   0   8  -3   10.60    1.49
   0   8  -3   10.69    1.45
   0   8  -3   15.79    1.87
   0  -8   3    9.45    1.25
   0  -8   3   10.49    1.49
   0   8  -3   10.32    1.32
   0  -8   3   13.75    1.83
   0   8  -3   12.24    1.60
   0  -8   3   11.06    1.48
   0   8  -3   10.74    1.61
   0  -8   3   13.00    1.76
   0   8  -2    0.16    0.34
   0  -8   2    0.28    0.34
   0  -8   2    0.26    0.41
   0   8  -2    0.77    0.52
   0   8  -2    1.27    0.54
   0   8  -2    0.52    0.34
   0  -8   2    0.90    0.53
   0  -8   2    0.36    0.43
   0   8  -2    1.14    0.59
   0   8  -1  217.78    7.68
   0  -8   1  231.30    8.38
   0  -8   1  197.68    7.34
   0  -8   1  215.87    7.91
   0  -8   1  236.61    8.13
   0   8  -1  196.09    7.48
   0   8  -1  213.93    7.60
   0   8  -1  178.94    6.95
   0   8  -1  216.67    6.97
   0  -8   1  206.49    7.65
   0   8  -1  222.70    8.24
   0  -8   1  216.08    7.84
   0   8   0   13.51    1.74
   0  -8   0   16.24    2.03
   0   8   0   14.62    1.70
   0  -8   0   16.21    1.90
   0  -8   0   18.48    2.03
   0  -8   0   12.49    1.47
   0   8   0   15.85    1.63
   0  -8   0   15.98    1.81
   0   8   0   14.36    1.78
   0   8   0   18.27    2.16
   0  -8   0   13.56    1.74
   0   8   1   96.38    4.72
   0  -8  -1  118.13    5.49
   0  -8  -1  111.42    5.36
   0   8   1  114.74    5.23
   0  -8  -1  119.98    5.31
   0  -8  -1  114.86    5.08
   0   8   1  104.41    4.96
   0  -8  -1   97.14    4.66
   0   8   1  106.64    4.64
   0   8   1  104.72    5.17
   0  -8  -1  117.64    5.72
   0   8   1  116.48    5.34
   0  -8  -1  110.26    5.09
   0   8   1  106.28    5.58
   0  -8  -2   84.77    4.56
   0  -8  -2   87.35    4.73
   0   8   2   87.46    4.47
   0   8   2   82.94    4.26
   0   8   2   81.20    3.81
   0  -8  -2   90.98    4.33
   0   8   2   79.25    3.98
   0  -8  -2   81.84    4.27
   0   8   2   89.73    4.47
   0  -8  -2   80.36    4.22
   0   8   2   80.64    4.42
   0  -8  -2   92.22    5.04
   0   8   2   86.09    4.68
   0  -8  -2   83.36    4.33
   0  -8  -2   67.50    4.09
   0  -8  -3  216.15    7.91
   0  -8  -3  235.04    8.29
   0   8   3  231.36    8.10
   0   8   3  221.14    7.62
   0   8   3  236.75    8.12
   0  -8  -3  232.43    8.19
   0  -8  -3  247.54    9.02
   0   8   3  235.66    8.60
   0  -8  -3  220.42    7.67
   0   8   3  234.44    8.35
   0   8   4   86.94    4.45
   0  -8  -4   82.12    4.47
   0  -8  -4   88.82    4.50
   0   8   4   89.11    4.42
   0  -8  -4   91.82    4.85
   0  -8  -4   84.02    4.39
   0   8   4   89.64    4.89
   0  -8  -4   94.28    5.12
   0   8   5   51.50    3.30
   0  -8  -5   54.03    3.45
   0  -8  -5   50.14    3.24
   0  -8  -5   50.77    3.44
   0  -8  -5   53.42    3.25
   0   8   5   52.72    3.13
   0  -8  -5   57.08    3.81
   0   8   5   57.12    3.75
   0  -8  -6  116.79    5.12
   0   8   6  112.99    5.01
   0  -8  -6  111.26    4.89
   0  -8  -6  115.63    5.15
   0  -8  -6  107.72    4.57
   0  -8  -6  122.46    5.54
   0   8   6  121.87    5.45
   0   8   7   31.48    2.35
   0  -8  -7   35.60    2.38
   0  -8  -7   31.43    2.34
   0  -8  -7   33.62    2.56
   0   8   7   32.36    2.46
   0   8   8   66.44    3.18
   0  -8  -8   64.03    3.03
   0   8   8   65.09    3.21
   0  -8  -8   67.79    3.36
   0  -8  -8   63.63    2.99
   0   8   9    4.02    0.65
   0  -8  -9    3.58    0.56
   0  -9  14   29.44    1.85
   0  -9  14   25.64    1.73
   0   9 -14   27.62    1.71
   0  -9  13   16.47    1.52
   0  -9  13   15.32    1.58
   0   9 -13   17.92    1.56
   0  -9  13   17.96    1.73
   0  -9  12   59.56    3.23
   0  -9  12   52.70    3.13
   0  -9  12   62.86    3.67
   0  -9  12   53.28    3.25
   0   9 -12   50.44    2.73
   0  -9  11   69.53    3.88
   0  -9  11   82.58    4.10
   0   9 -11   71.28    3.74
   0  -9  11   71.56    4.02
   0   9 -11   68.27    3.51
   0  -9  10   23.02    2.21
   0   9 -10   23.12    2.03
   0   9 -10   21.58    2.09
   0  -9  10   20.81    2.18
   0  -9  10   20.24    1.92
   0   9 -10   23.72    2.12
   0   9  -9  250.81    8.47
   0  -9   9  224.50    7.42
   0   9  -9  208.70    7.03
   0  -9   9  230.39    7.67
   0  -9   9  238.17    8.40
   0  -9   9  266.15    8.31
   0  -9   9  250.22    8.36
   0  -9   9  251.86    8.80
   0   9  -9  237.11    7.92
   0   9  -9  268.11    8.58
   0   9  -9  265.25    8.09
   0   9  -8   57.22    3.15
   0   9  -8   66.35    3.95
   0  -9   8   63.31    3.53
   0   9  -8   56.05    3.09
   0  -9   8   64.22    3.65
   0  -9   8   58.99    3.69
   0  -9   8   72.61    4.04
   0   9  -8   69.27    3.83
   0  -9   8   61.40    3.91
   0  -9   8   62.43    3.86
   0   9  -8   72.12    3.96
   0   9  -8   64.90    3.48
   0   9  -7   38.40    2.63
   0  -9   7   39.94    2.86
   0  -9   7   39.62    2.93
   0  -9   7   35.97    2.81
   0  -9   7   44.55    3.28
   0  -9   7   38.68    3.05
   0  -9   7   38.48    3.07
   0   9  -7   39.99    2.96
   0   9  -7   43.23    2.73
   0  -9   6  101.22    4.17
   0  -9   6   88.73    4.15
   0  -9   6  101.84    5.03
   0  -9   6  101.43    5.23
   0  -9   6   96.46    4.91
   0   9  -6   91.37    4.46
   0   9  -6  106.24    5.22
   0  -9   5  200.47    6.52
   0  -9   5  187.07    6.88
   0  -9   5  207.70    7.51
   0  -9   5  202.72    7.77
   0   9  -5  195.21    7.64
   0   9  -5  195.35    7.14
   0  -9   4    7.72    1.27
   0  -9   4   10.18    1.61
   0  -9   4    6.83    1.06
   0   9  -4    8.30    1.32
   0   9  -3    4.53    1.01
   0  -9   3    4.05    0.83
   0  -9   3    3.09    0.75
   0  -9   3    6.99    1.25
   0  -9   3    3.82    1.02
   0  -9   3    4.29    1.09
   0   9  -3    4.59    1.03
   0   9  -2   72.02    4.10
   0   9  -2   72.49    4.12
   0  -9   2   74.36    4.26
   0  -9   2   63.19    3.64
   0  -9   2   82.84    4.55
   0   9  -2   73.40    4.07
   0  -9   2   82.17    4.54
   0   9  -1    6.78    1.24
   0  -9   1    6.21    1.16
   0  -9   1    5.17    1.17
   0   9  -1    7.27    1.22
   0   9  -1    5.01    0.87
   0  -9   1    5.73    1.17
   0  -9   1    6.12    1.23
   0   9  -1    5.20    1.09
   0  -9   0    1.05    0.58
   0  -9   0    1.31    0.62
   0   9   0    2.16    0.74
   0   9   0    0.55    0.37
   0   9   0    0.34    0.41
   0  -9   0    1.23    0.62
   0   9   0    0.43    0.35
   0   9   0    0.23    0.33
   0   9   0    0.36    0.43
   0  -9   0    0.53    0.43
   0   9   0    0.34    0.38
   0  -9  -1   84.01    4.58
   0  -9  -1   75.50    4.33
   0   9   1   82.60    4.35
   0   9   1   71.76    3.96
   0   9   1   78.45    3.83
   0  -9  -1   82.67    4.24
   0   9   1   77.26    4.02
   0   9   1   72.27    3.63
   0   9   1   80.16    4.27
   0  -9  -1   77.31    4.22
   0  -9  -1   90.37    4.96
   0   9   1   77.48    4.33
   0  -9  -1   65.28    4.11
   0  -9  -2  397.61   12.86
   0  -9  -2  532.47   14.45
   0   9   2  510.40   13.81
   0  -9  -2  526.35   14.25
   0  -9  -2  588.00   15.20
   0   9   2  542.83   14.44
   0  -9  -2  506.69   13.59
   0   9   2  524.99   13.98
   0   9   2  479.36   12.88
   0   9   2  494.06   13.40
   0  -9  -2  459.04   12.97
   0  -9  -3   60.25    3.45
   0   9   3   63.11    3.56
   0   9   3   70.23    4.07
   0  -9  -3   64.84    3.96
   0   9   3   68.87    3.74
   0  -9  -3   70.41    3.95
   0  -9  -4   16.21    1.70
   0   9   4   17.06    1.74
   0  -9  -4   17.07    1.96
   0   9   4   16.52    1.86
   0  -9  -4   16.71    1.74
   0   9   4   14.93    1.58
   0   9   5   16.76    1.64
   0  -9  -5   20.87    2.00
   0   9   5   19.06    1.86
   0  -9  -5   16.53    1.61
   0  -9  -5   17.97    1.83
   0   9   6    9.81    1.15
   0  -9  -6   12.32    1.36
   0   9   6   11.46    1.33
   0  -9  -6   12.22    1.38
   0   9   7   71.63    3.04
   0 -10  13    0.40    0.28
   0 -10  13    0.40    0.27
   0 -10  12   15.72    1.39
   0 -10  12   14.85    1.43
   0 -10  12   18.71    1.69
   0  10 -12   17.10    1.42
   0 -10  11    0.93    0.40
   0  10 -11    0.80    0.40
   0  10 -11    1.16    0.46
   0  10 -11    0.72    0.34
   0 -10  11    0.87    0.43
   0  10 -10    8.37    1.18
   0  10 -10   10.51    1.27
   0 -10  10   11.85    1.57
   0 -10  10    8.83    1.14
   0 -10  10   10.65    1.38
   0  10 -10    8.20    1.17
   0 -10   9   31.35    2.31
   0  10  -9   31.69    2.22
   0 -10   9   33.05    2.74
   0  10  -9   35.90    2.51
   0 -10   9   27.45    2.30
   0 -10   9   25.73    2.14
   0  10  -9   30.36    2.39
   0 -10   8    0.72    0.42
   0  10  -8    0.41    0.29
   0 -10   8    0.54    0.38
   0 -10   8    0.69    0.49
   0 -10   8    0.45    0.34
   0 -10   8    0.77    0.43
   0  10  -8    0.48    0.34
   0  10  -8    1.08    0.54
   0  10  -7    0.50    0.39
   0 -10   7    0.15    0.33
   0 -10   7    0.46    0.41
   0 -10   7    1.03    0.55
   0 -10   7    0.42    0.40
   0 -10   7    0.38    0.32
   0 -10   7    1.31    0.65
   0  10  -7    0.24    0.31
   0 -10   6  167.14    6.78
   0 -10   6  159.03    6.33
   0 -10   6  156.66    6.50
   0  10  -6  153.23    5.49
   0 -10   6  158.58    6.22
   0  10  -6  157.10    6.39
   0  10  -6  143.05    5.63
   0  10  -5    0.55    0.32
   0 -10   5    2.16    0.55
   0  10  -5    0.76    0.46
   0 -10   5    0.68    0.41
   0 -10   5    0.39    0.44
   0 -10   5    0.64    0.48
   0 -10   5    0.52    0.45
   0 -10   4    1.06    0.45
   0 -10   4    0.68    0.48
   0  10  -4    0.42    0.35
   0  10  -4    1.15    0.57
   0 -10   4    0.30    0.41
   0 -10   4    1.30    0.69
   0 -10   4    1.00    0.58
   0  10  -4    0.56    0.41
   0 -10   3   11.11    1.28
   0 -10   3   11.96    1.56
   0  10  -3   11.64    1.46
   0 -10   3   12.11    1.67
   0 -10   3   12.25    1.67
   0  10  -3   11.67    1.46
   0 -10   3   11.14    1.60
   0 -10   2    0.17    0.38
   0 -10   2    0.68    0.46
   0  10  -2    0.32    0.41
   0  10  -2    0.77    0.46
   0  10  -2    0.41    0.45
   0 -10   2    0.60    0.52
   0  10  -2    0.19    0.31
   0  10  -2    0.16    0.31
   0 -10   2    0.60    0.40
   0  10  -2    0.07    0.30
   0 -10   2    0.36    0.46
   0 -10   1  245.56    8.52
   0  10  -1  233.73    8.11
   0 -10   1  225.81    7.76
   0  10  -1  238.56    7.83
   0  10  -1  248.37    8.22
   0 -10   1  271.09    8.64
   0 -10   1  250.09    8.84
   0  10  -1  225.60    7.44
   0  10  -1  266.39    8.51
   0  10  -1  249.28    8.01
   0 -10   1  266.18    8.70
   0 -10   0    0.97    0.50
   0  10   0    1.43    0.58
   0  10   0    1.28    0.49
   0  10   0    1.17    0.50
   0 -10   0    2.12    0.68
   0 -10   0    0.85    0.50
   0  10   0    2.55    0.66
   0  10   0    1.33    0.59
   0  10   0    1.32    0.52
   0 -10   0    1.51    0.59
   0 -10  -1   10.14    1.41
   0 -10  -1   13.64    1.66
   0  10   1   10.09    1.38
   0  10   1    9.93    1.23
   0  10   1    8.46    1.12
   0 -10  -1    9.46    1.24
   0  10   1   12.47    1.55
   0  10   1   10.20    1.35
   0 -10  -2   15.47    1.69
   0  10   2   11.80    1.41
   0 -10  -2   15.29    1.70
   0  10   2   17.30    1.78
   0  10   2   14.54    1.44
   0  10   3    4.02    0.75
   0 -10  -3    3.77    0.79
   0 -10  -3    3.34    0.81
   0  10   3    4.68    0.91
   0  10   3    3.15    0.67
   0 -10  -4    0.63    0.37
   0 -10  -4    0.22    0.29
   0  10   5   11.23    0.95
   0  10   5   13.97    1.23
   0 -11  11    1.85    0.50
   0  11 -11    1.01    0.32
   0 -11  10   78.34    3.46
   0  11 -10   77.12    3.07
   0  11 -10   75.89    3.02
   0 -11   9   28.43    1.85
   0  11  -9   30.76    1.95
   0 -11   9   29.43    2.10
   0 -11   9   25.03    1.80
   0  11  -9   24.61    1.87
   0 -11   8   17.56    1.51
   0  11  -8   16.18    1.41
   0 -11   8   17.26    1.52
   0 -11   8   18.87    1.68
   0 -11   8   16.36    1.56
   0  11  -8   20.25    1.65
   0  11  -7   12.03    1.30
   0  11  -7   13.51    1.47
   0 -11   7   13.45    1.42
   0 -11   7   11.75    1.34
   0 -11   7   12.59    1.49
   0 -11   7   13.23    1.47
   0  11  -7   12.48    1.35
   0 -11   6   40.36    2.77
   0  11  -6   33.94    2.25
   0 -11   6   36.20    2.44
   0  11  -6   38.04    2.42
   0 -11   6   36.57    2.50
   0 -11   5   74.98    3.95
   0 -11   5   69.46    3.64
   0  11  -5   65.78    3.33
   0  11  -4   24.42    1.98
   0 -11   4   20.99    1.79
   0 -11   4   27.66    2.24
   0  11  -4   24.19    2.04
   0 -11   4   24.69    2.08
   0  11  -4   24.92    2.01
   0  11  -3    9.26    1.22
   0  11  -3    9.74    1.26
   0 -11   3   10.67    1.35
   0 -11   3    8.95    1.21
   0 -11   3   10.82    1.48
   0 -11   3   12.56    1.16
   0 -11   3    9.46    1.33
   0  11  -2    9.01    1.17
   0  11  -2    8.60    1.14
   0 -11   2    9.99    1.27
   0  11  -2   10.65    1.31
   0 -11   2    7.95    1.13
   0 -11   2    9.85    1.36
   0 -11   2    8.08    0.95
   0 -11   2    8.09    1.20
   0 -11   1  119.57    4.85
   0 -11   1  118.21    4.77
   0  11  -1  108.27    4.46
   0  11  -1  102.46    4.17
   0 -11   1  128.52    4.71
   0  11  -1  122.23    4.48
   0 -11   1  125.16    4.17
   0  11   0    3.31    0.69
   0 -11   0    3.35    0.66
   0 -11   0    4.40    0.69
   0 -11  -1   48.49    2.63
   0  11   1   52.19    2.63
   0 -11  -1   49.65    2.24
   0 -11  -2    0.60    0.27
   0  11   2    0.78    0.33
   0 -12   7   11.64    1.10
   0  12  -6   17.00    1.23
   0 -12   6   18.14    1.45
   0  12  -5    9.01    0.91
   0 -12   5    8.94    1.05
   0  12  -4    3.93    0.61
   0 -12   3    0.04    0.22
   1 -12   2   21.68    1.61
   1 -12   3   52.04    2.72
   1 -12   4   18.83    1.55
  -1  12  -4   18.09    1.54
   1 -12   4   18.42    1.52
   1 -12   5   24.34    1.84
   1 -12   5   20.18    1.61
  -1  12  -5   21.83    1.71
  -1  12  -5   22.33    1.65
   1 -12   6   12.07    1.29
  -1  12  -6   15.14    1.33
   1 -12   7   -0.05    0.24
  -1  12  -7    0.13    0.21
   1 -12   8   26.31    1.59
  -1  12  -8   25.94    1.63
   1 -12   9   48.65    2.16
  -1  12  -9   44.20    2.03
   1 -11  -2    6.87    0.94
  -1  11   2    6.39    0.91
   1 -11  -2    7.68    1.00
  -1  11   1   34.14    2.19
   1 -11  -1   36.92    2.31
  -1  11   1   36.76    2.41
   1 -11  -1   39.32    2.43
   1 -11   0    6.90    0.97
  -1  11   0    5.11    0.91
   1 -11   0    5.95    0.99
  -1  11   0    6.76    1.07
   1 -11   0    6.71    1.00
  -1  11   0    7.62    1.13
   1 -11   0    7.89    1.08
   1 -11   1   21.43    1.82
  -1  11  -1   19.37    1.82
  -1  11  -1   16.79    1.73
   1 -11   1   20.55    1.83
   1 -11   1   16.88    1.76
   1 -11   2    4.97    1.02
   1 -11   2    3.83    0.83
  -1  11  -2    4.69    0.95
   1 -11   2    5.33    0.98
  -1  11  -2    4.76    0.97
   1 -11   2    5.37    0.97
  -1  11  -2    4.71    0.95
  -1  11  -3   24.63    2.21
  -1  11  -3   23.95    2.10
   1 -11   3   24.71    2.04
  -1  11  -3   25.46    2.13
   1 -11   3   23.04    2.16
   1 -11   3   24.61    2.10
   1 -11   3   24.72    2.12
  -1  11  -4   57.89    3.33
  -1  11  -4   59.82    3.53
  -1  11  -4   55.61    3.15
   1 -11   4   53.76    3.04
   1 -11   4   57.33    3.31
   1 -11   4   59.75    3.39
   1 -11   5   41.87    2.53
  -1  11  -5   39.12    2.52
   1 -11   5   46.35    2.97
   1 -11   5   45.10    2.89
   1 -11   6    1.12    0.53
  -1  11  -6    0.55    0.37
   1 -11   6    0.65    0.44
  -1  11  -6    0.38    0.36
  -1  11  -6    0.52    0.38
   1 -11   6    0.32    0.34
  -1  11  -7   13.88    1.50
  -1  11  -7   12.17    1.37
   1 -11   7   10.34    1.26
  -1  11  -7   11.98    1.41
   1 -11   7   10.49    1.37
   1 -11   7   10.61    1.39
   1 -11   7   10.03    1.27
  -1  11  -8   41.40    2.56
   1 -11   8   40.07    2.35
  -1  11  -8   34.85    2.24
   1 -11   8   45.61    2.68
  -1  11  -8   45.17    2.81
   1 -11   8   43.28    2.68
   1 -11   8   39.80    2.46
  -1  11  -9    5.33    0.90
   1 -11   9    6.77    0.91
  -1  11  -9    7.09    1.09
   1 -11   9    5.13    0.88
   1 -11   9    4.93    0.80
  -1  11 -10    9.56    1.18
   1 -11  10    7.85    0.98
   1 -11  10    9.15    1.12
  -1  11 -10    6.89    0.94
   1 -11  11    1.33    0.44
   1 -11  11    1.21    0.45
   1 -11  12    1.00    0.32
  -1  10   6   73.50    2.69
  -1  10   6   87.70    3.13
  -1  10   5    1.18    0.37
   1 -10  -5    0.41    0.32
  -1  10   5    1.02    0.44
   1 -10  -4   86.51    3.72
  -1  10   4   90.70    3.88
   1 -10  -4   87.08    3.96
  -1  10   4   94.33    3.69
  -1  10   3   14.29    1.48
   1 -10  -3   15.81    1.60
  -1  10   3   16.70    1.71
  -1  10   3   13.93    1.38
  -1  10   2   15.58    1.69
   1 -10  -2   14.33    1.64
   1 -10  -2   15.45    1.67
  -1  10   2   14.51    1.69
   1 -10  -1    3.90    0.88
   1 -10  -1    5.70    1.11
   1 -10  -1    3.69    0.87
   1 -10  -1    4.37    0.88
  -1  10   1    4.83    1.05
  -1  10   1    4.39    0.97
   1 -10  -1    4.34    0.87
  -1  10   1    4.75    0.94
   1 -10   0   24.51    2.16
   1 -10   0   25.78    2.30
  -1  10   0   24.99    2.34
   1 -10   0   25.54    2.22
  -1  10   0   26.44    2.40
  -1  10   0   28.19    2.37
  -1  10   0   24.09    2.33
  -1  10  -1   13.68    1.71
   1 -10   1   13.36    1.55
   1 -10   1   11.79    1.54
   1 -10   1   12.30    1.60
  -1  10  -1   12.11    1.72
  -1  10  -1   10.95    1.54
  -1  10  -2   12.81    1.66
   1 -10   2   12.72    1.63
   1 -10   2    8.38    1.23
  -1  10  -2   12.00    1.64
   1 -10   2    9.56    1.44
   1 -10   2   12.28    1.65
  -1  10  -2   13.63    1.81
  -1  10  -2   12.46    1.63
   1 -10   3   83.98    4.23
   1 -10   3   71.91    3.60
  -1  10  -3   85.83    4.41
   1 -10   3   89.14    4.58
   1 -10   3   85.67    4.48
  -1  10  -3   81.54    4.34
   1 -10   4  238.84    8.01
  -1  10  -4  222.09    7.99
   1 -10   4  269.19    8.97
   1 -10   4  258.36    8.71
  -1  10  -4  243.59    8.35
   1 -10   5    1.37    0.54
   1 -10   5    1.37    0.69
   1 -10   5    1.56    0.72
  -1  10  -5    0.87    0.51
  -1  10  -5    1.24    0.53
   1 -10   6   56.92    3.10
  -1  10  -6   50.26    3.00
   1 -10   6   59.17    3.75
  -1  10  -6   61.00    3.72
  -1  10  -6   58.21    3.42
   1 -10   6   64.12    3.73
  -1  10  -7    0.16    0.33
  -1  10  -7    0.78    0.45
  -1  10  -7    0.61    0.37
  -1  10  -8   29.38    2.38
  -1  10  -8   28.78    2.20
   1 -10   8   27.89    2.29
   1 -10   8   30.15    2.53
  -1  10  -8   29.47    2.20
  -1  10  -8   32.79    2.53
  -1  10  -9   60.09    3.34
   1 -10   9   72.61    3.68
   1 -10   9   71.54    3.54
   1 -10   9   67.08    3.47
   1 -10   9   71.83    3.83
  -1  10  -9   71.73    3.79
  -1  10  -9   71.28    3.54
   1 -10  10    4.41    0.87
   1 -10  10    4.04    0.84
  -1  10 -10    4.38    0.84
  -1  10 -10    4.58    0.92
   1 -10  10    4.96    0.94
   1 -10  11   34.19    2.22
   1 -10  11   35.93    2.38
   1 -10  11   41.68    2.65
   1 -10  11   37.49    2.43
  -1  10 -11   38.14    2.35
  -1  10 -11   37.48    2.44
  -1  10 -12   23.43    1.69
   1 -10  12   24.30    1.80
   1 -10  12   25.37    1.88
   1 -10  13   39.08    2.11
   1 -10  13   39.52    2.08
  -1  10 -13   35.65    1.92
   1 -10  13   41.51    2.27
  -1   9   8   27.92    1.62
  -1   9   8   25.53    1.56
  -1   9   7    0.10    0.24
  -1   9   7    0.10    0.27
   1  -9  -7    0.43    0.31
  -1   9   6    0.71    0.37
  -1   9   6    0.56    0.40
   1  -9  -6    0.54    0.35
   1  -9  -6    0.92    0.47
  -1   9   6    0.53    0.39
   1  -9  -5   20.79    1.89
  -1   9   5   22.57    2.12
  -1   9   5   19.10    1.87
   1  -9  -5   20.39    1.93
   1  -9  -5   20.69    1.77
   1  -9  -4   70.72    3.72
  -1   9   4   68.20    3.60
   1  -9  -4   74.69    3.77
   1  -9  -4   74.32    3.99
  -1   9   4   72.67    3.97
  -1   9   4   74.96    4.20
  -1   9   4   70.56    3.71
  -1   9   3   41.87    2.97
  -1   9   3   43.38    3.15
   1  -9  -3   41.59    2.89
  -1   9   3   39.06    2.69
   1  -9  -3   37.79    2.66
  -1   9   2   29.96    2.32
   1  -9  -2   27.56    2.25
   1  -9  -2   34.34    2.70
  -1   9   2   30.36    2.68
   1  -9  -2   32.39    2.59
  -1   9   2   31.13    2.66
  -1   9   2   27.80    2.33
   1  -9  -2   33.86    2.47
   1  -9  -1   31.67    2.37
  -1   9   1   33.23    2.44
  -1   9   1   39.14    3.04
   1  -9  -1   38.37    2.90
  -1   9   1   40.36    2.86
   1  -9  -1   38.23    2.74
  -1   9   1   42.60    3.17
  -1   9   1   37.13    2.78
  -1   9   0  381.28   11.25
  -1   9   0  385.74   11.84
  -1   9   0  382.01   11.60
   1  -9   0  384.24   11.33
  -1   9   0  356.73   10.24
   1  -9   0  369.80   10.90
   1  -9   0  393.80   11.21
  -1   9   0  367.18   10.80
  -1   9  -1  317.92   10.59
  -1   9  -1  316.56   10.01
  -1   9  -1  318.52    9.52
   1  -9   1  320.66   10.02
   1  -9   1  320.59    9.97
  -1   9  -1  343.40   10.39
  -1   9  -2  106.79    5.11
   1  -9   2  101.34    4.91
  -1   9  -2  102.09    5.06
   1  -9   2  109.14    5.20
  -1   9  -2   97.87    4.49
   1  -9   2  100.74    5.00
  -1   9  -2  109.61    5.37
  -1   9  -2  102.81    4.99
  -1   9  -3    0.85    0.52
   1  -9   3    1.98    0.72
   1  -9   3    1.03    0.55
  -1   9  -3    1.31    0.67
   1  -9   3    1.46    0.67
  -1   9  -3    1.13    0.64
  -1   9  -3    1.48    0.62
   1  -9   4    7.44    1.22
   1  -9   4    8.66    1.48
  -1   9  -4    8.90    1.44
   1  -9   4    9.72    1.55
   1  -9   5   86.41    4.15
  -1   9  -5   81.72    3.81
  -1   9  -5   89.64    4.81
  -1   9  -5   87.42    4.39
  -1   9  -6   10.10    1.42
  -1   9  -6    7.70    1.37
   1  -9   6    8.15    1.18
   1  -9   6    8.21    1.27
   1  -9   6    9.87    1.54
  -1   9  -6    8.02    1.17
  -1   9  -7   37.85    2.62
  -1   9  -7   40.39    3.03
  -1   9  -7   31.46    2.48
   1  -9   7   33.23    2.29
   1  -9   7   41.17    2.92
   1  -9   7   38.25    2.85
   1  -9   7   38.29    2.90
   1  -9   8  181.19    6.79
   1  -9   8  188.12    6.98
  -1   9  -8  172.64    6.74
   1  -9   8  183.04    6.97
  -1   9  -8  179.19    6.54
  -1   9  -8  185.30    7.06
   1  -9   9   94.12    4.42
   1  -9   9  104.42    4.91
  -1   9  -9   75.29    3.76
  -1   9  -9   82.51    4.24
   1  -9   9   98.51    4.88
  -1   9  -9   96.91    4.80
  -1   9  -9   96.40    4.51
   1  -9  10  115.10    4.80
  -1   9 -10  108.90    4.71
   1  -9  10  135.47    5.70
  -1   9 -10  123.89    5.25
  -1   9 -10  128.71    5.55
   1  -9  10  123.59    5.55
   1  -9  11    1.24    0.63
   1  -9  11    0.47    0.48
  -1   9 -11    0.22    0.36
  -1   9 -11    1.00    0.52
   1  -9  11    1.22    0.56
   1  -9  12  144.92    5.66
  -1   9 -12  147.13    5.49
   1  -9  12  144.76    5.69
   1  -9  12  134.14    5.55
   1  -9  13   11.59    1.35
  -1   9 -13   12.31    1.30
   1  -9  13   11.40    1.35
   1  -9  14   26.06    1.73
   1  -9  14   25.30    1.74
   1  -9  14   24.50    1.70
  -1   8   9    8.45    1.00
  -1   8   9    8.66    1.03
   1  -8  -8    9.57    1.15
   1  -8  -8    9.40    1.06
  -1   8   8   10.23    1.31
  -1   8   8   10.30    1.29
   1  -8  -8   11.33    1.23
  -1   8   8   11.25    1.31
   1  -8  -8   10.70    1.26
   1  -8  -7   41.95    2.51
  -1   8   7   43.64    2.98
   1  -8  -7   45.24    2.79
  -1   8   7   40.59    2.73
   1  -8  -6   19.20    1.78
  -1   8   6   19.57    2.14
  -1   8   6   20.41    1.96
   1  -8  -6   18.36    1.89
   1  -8  -6   19.11    1.91
  -1   8   6   21.08    2.01
  -1   8   5  134.17    5.59
  -1   8   5  141.93    6.33
  -1   8   5  148.52    6.07
   1  -8  -5  144.94    5.57
   1  -8  -5  137.76    5.79
   1  -8  -5  138.54    5.75
  -1   8   5  145.87    5.88
  -1   8   4    0.42    0.42
  -1   8   4    0.09    0.33
  -1   8   4    0.98    0.61
   1  -8  -4    0.08    0.33
   1  -8  -4    0.37    0.42
   1  -8  -4    0.31    0.35
  -1   8   4    0.55    0.43
  -1   8   3   43.48    3.15
   1  -8  -3   36.75    2.67
  -1   8   3   41.56    2.88
  -1   8   3   44.35    3.30
   1  -8  -3   43.78    2.95
  -1   8   3   35.39    2.90
  -1   8   2    8.54    1.31
  -1   8   2    8.70    1.45
  -1   8   2    7.60    1.15
   1  -8  -2    8.83    1.27
  -1   8   2    8.88    1.30
  -1   8   2    7.85    1.36
   1  -8  -2   10.51    1.44
  -1   8   2    7.87    1.31
   1  -8  -2    8.15    1.24
   1  -8  -2    7.12    1.10
   1  -8  -1  333.92    9.97
  -1   8   1  336.76   10.37
  -1   8   1  335.56   10.50
  -1   8   1  333.70    9.94
  -1   8   1  297.30    9.13
   1  -8  -1  295.53    9.06
  -1   8   1  320.65    9.43
   1  -8  -1  306.06    9.35
   1  -8  -1  314.68    9.51
  -1   8   1  315.28    9.75
   1  -8  -1  296.42    9.15
   1  -8   0  262.02    8.39
  -1   8   0  247.39    8.21
  -1   8   0  253.59    8.83
  -1   8   0  244.18    8.67
  -1   8   0  246.59    8.04
   1  -8   0  247.65    8.13
   1  -8   0  227.24    7.56
  -1   8   0  237.25    7.62
   1  -8   0  214.07    7.15
   1  -8   0  247.19    8.05
  -1   8   0  242.54    7.71
  -1   8  -1   45.58    3.03
   1  -8   1   46.48    3.09
   1  -8   1   42.83    2.74
  -1   8  -1   51.95    3.42
  -1   8  -1   49.03    3.01
  -1   8  -1   43.63    2.69
   1  -8   1   40.96    2.44
   1  -8   1   46.50    3.10
  -1   8  -1   46.37    2.84
  -1   8  -2  114.62    4.69
  -1   8  -2  114.70    5.29
  -1   8  -2  109.04    4.88
  -1   8  -2  112.58    5.23
  -1   8  -2  116.08    4.77
   1  -8   2  103.25    4.51
   1  -8   2  116.20    5.16
  -1   8  -3   68.30    3.70
  -1   8  -3   68.67    3.81
  -1   8  -3   75.60    4.12
   1  -8   3   75.61    4.11
   1  -8   3   64.44    3.48
  -1   8  -3   64.86    3.74
  -1   8  -4  152.66    6.18
   1  -8   4  147.28    5.62
  -1   8  -4  145.58    6.15
   1  -8   4  159.21    6.34
   1  -8   4  150.58    6.45
  -1   8  -4  148.64    5.62
  -1   8  -4  133.12    5.08
  -1   8  -4  155.10    6.10
  -1   8  -5   14.37    1.82
  -1   8  -5   11.25    1.45
  -1   8  -5   13.35    1.78
  -1   8  -5   14.19    1.72
   1  -8   5   13.20    1.80
   1  -8   5   11.51    1.61
  -1   8  -5   11.21    1.33
  -1   8  -5   14.42    1.58
  -1   8  -6   93.02    4.26
  -1   8  -6   98.04    5.01
   1  -8   6   83.98    4.42
  -1   8  -6   87.11    4.45
   1  -8   6   89.96    4.83
  -1   8  -6   88.63    4.65
  -1   8  -6   78.26    4.01
   1  -8   6   95.57    4.63
  -1   8  -6   90.02    4.13
   1  -8   7   11.91    1.70
   1  -8   7   10.97    1.52
  -1   8  -7   12.42    1.76
   1  -8   7   12.22    1.65
  -1   8  -7   12.22    1.49
  -1   8  -7   16.87    1.76
  -1   8  -7   12.18    1.64
   1  -8   7   12.03    1.67
  -1   8  -7   14.09    1.61
  -1   8  -8    4.78    1.10
   1  -8   8    4.93    1.13
   1  -8   8    4.04    0.94
   1  -8   8    4.09    0.98
  -1   8  -8    3.89    0.83
  -1   8  -8    2.78    0.70
  -1   8  -8    4.28    0.97
  -1   8  -8    4.33    0.98
   1  -8   8    4.45    1.08
  -1   8  -8    4.73    1.00
  -1   8  -8    4.19    1.01
   1  -8   9    1.05    0.53
   1  -8   9    0.66    0.53
  -1   8  -9    0.67    0.38
  -1   8  -9    0.61    0.40
  -1   8  -9   -0.08    0.37
   1  -8   9    0.40    0.42
  -1   8  -9    0.41    0.45
   1  -8  10  343.42   10.18
  -1   8 -10  361.65   10.88
  -1   8 -10  331.52   10.11
   1  -8  10  394.78   11.96
  -1   8 -10  387.00   11.46
  -1   8 -10  373.48   11.12
   1  -8  10  357.32   10.66
  -1   8 -11    1.73    0.64
   1  -8  11    1.65    0.61
   1  -8  11    2.07    0.81
  -1   8 -11    2.84    0.82
  -1   8 -11    1.93    0.75
   1  -8  12   16.57    1.97
  -1   8 -12   14.67    1.67
   1  -8  12   19.40    2.06
   1  -8  13    1.10    0.53
  -1   8 -13    0.88    0.43
   1  -8  13    0.86    0.54
   1  -8  14    8.76    1.17
  -1   8 -14    7.92    1.07
   1  -8  14    7.96    1.18
   1  -8  15  169.84    5.16
  -1   8 -15  178.24    5.27
   1  -7 -11    2.11    0.53
  -1   7  11    1.85    0.41
  -1   7  10   11.33    1.24
   1  -7 -10   12.16    1.17
  -1   7  10   11.69    1.29
  -1   7  10   12.23    1.29
   1  -7 -10   12.12    1.45
   1  -7 -10   12.42    1.26
   1  -7  -9   13.70    1.40
   1  -7  -9   11.95    1.63
  -1   7   9   11.53    1.45
   1  -7  -9   10.87    1.21
   1  -7  -9   10.92    1.32
  -1   7   9   10.94    1.38
   1  -7  -8   21.83    1.95
  -1   7   8   20.40    2.12
   1  -7  -8   22.29    2.35
   1  -7  -8   22.40    1.94
   1  -7  -8   20.74    1.95
  -1   7   8   22.74    2.12
   1  -7  -7    6.93    1.18
  -1   7   7    7.19    1.24
   1  -7  -7    9.07    1.33
   1  -7  -7    8.13    1.53
  -1   7   7    6.87    1.34
   1  -7  -7    7.09    1.19
  -1   7   7    7.03    1.13
  -1   7   6    2.35    0.74
   1  -7  -6    2.20    0.70
  -1   7   6    3.43    0.89
   1  -7  -6    2.43    0.87
  -1   7   6    3.10    0.96
   1  -7  -6    2.18    0.63
   1  -7  -6    1.83    0.64
  -1   7   5  195.53    7.12
   1  -7  -5  187.60    6.82
  -1   7   5  184.69    6.99
   1  -7  -5  178.24    6.76
  -1   7   5  199.79    7.78
   1  -7  -5  193.76    7.97
  -1   7   5  192.02    7.22
   1  -7  -5  186.65    6.88
   1  -7  -5  197.09    6.70
  -1   7   4  341.36   10.29
  -1   7   4  344.87   10.38
   1  -7  -4  323.67    9.44
   1  -7  -4  321.07    9.56
   1  -7  -4  311.00    9.59
  -1   7   4  341.01   10.03
   1  -7  -4  323.07   10.94
  -1   7   4  328.49   10.61
   1  -7  -4  300.94    9.34
  -1   7   3  104.44    4.89
   1  -7  -3   98.08    4.10
  -1   7   3   96.67    4.71
   1  -7  -3   95.23    4.36
  -1   7   3   97.62    4.45
   1  -7  -3   98.14    4.36
  -1   7   3  103.44    5.01
   1  -7  -3   86.45    4.08
  -1   7   3  100.38    4.68
  -1   7   2  286.77    9.12
  -1   7   2  290.89    8.56
  -1   7   2  287.74    9.01
   1  -7  -2  263.80    8.41
   1  -7  -2  251.52    7.53
  -1   7   2  271.32    8.20
   1  -7  -2  265.16    8.12
  -1   7   2  276.64    8.41
   1  -7  -2  268.69    8.11
   1  -7  -2  258.10    8.16
  -1   7   2  297.18    8.83
  -1   7   2  282.15    9.04
  -1   7   1  101.24    4.67
   1  -7  -1  106.83    4.56
  -1   7   1  106.30    4.77
   1  -7  -1   86.02    3.50
  -1   7   1  112.93    5.02
  -1   7   1  103.11    4.47
  -1   7   1  104.53    4.16
  -1   7   1  107.94    4.39
   1  -7  -1   99.88    4.10
   1  -7  -1   99.79    4.27
  -1   7   1  111.24    4.63
   1  -7  -1  100.49    4.31
   1  -7  -1   93.24    4.16
  -1   7   1  103.14    4.85
  -1   7   0   29.61    2.25
  -1   7   0   29.36    2.07
   1  -7   0   30.05    1.99
  -1   7   0   31.90    2.19
   1  -7   0   32.84    2.34
   1  -7   0   30.68    2.19
  -1   7   0   33.51    2.34
  -1   7   0   35.69    2.64
   1  -7   0   37.49    2.49
  -1   7  -1  316.37    9.72
  -1   7  -1  312.07    8.68
  -1   7  -1  319.58    9.04
   1  -7   1  320.46    8.60
   1  -7   1  318.60    8.79
  -1   7  -1  331.29    9.32
   1  -7   1  314.24    9.73
   1  -7   1  339.67    9.71
   1  -7   1  327.09    9.24
  -1   7  -2   34.00    2.56
  -1   7  -2   35.59    2.18
  -1   7  -2   32.36    2.18
   1  -7   2   36.62    2.14
  -1   7  -2   37.11    2.60
  -1   7  -2   32.16    2.36
   1  -7   2   38.45    2.73
   1  -7   2   35.50    2.35
   1  -7   2   37.80    2.60
   1  -7   2   33.46    2.43
   1  -7   2   34.21    1.95
  -1   7  -3   72.56    3.70
   1  -7   3   70.28    3.69
   1  -7   3   66.44    2.94
   1  -7   3   68.52    3.38
  -1   7  -3   73.93    3.81
  -1   7  -3   72.68    3.72
   1  -7   3   69.81    3.70
   1  -7   4   16.19    1.30
  -1   7  -4   14.59    1.58
  -1   7  -4   15.07    1.73
  -1   7  -4   15.26    1.62
  -1   7  -4   17.49    1.83
   1  -7   4   16.10    1.72
  -1   7  -4   13.67    1.55
  -1   7  -4   13.81    1.41
  -1   7  -5    9.45    1.23
  -1   7  -5    8.25    1.14
  -1   7  -5    8.97    1.21
  -1   7  -5   10.10    1.42
   1  -7   5   10.42    1.40
   1  -7   5   11.52    1.58
  -1   7  -5   10.83    1.51
   1  -7   5    9.82    1.38
   1  -7   5    8.70    1.16
   1  -7   5    9.47    1.31
  -1   7  -5   10.77    1.28
  -1   7  -6  120.84    4.70
   1  -7   6  113.87    4.98
  -1   7  -6  122.91    5.51
   1  -7   6  128.46    5.49
  -1   7  -6  129.42    5.04
  -1   7  -6  113.17    4.54
  -1   7  -6  121.99    5.25
  -1   7  -6   95.60    4.39
   1  -7   6  108.43    4.40
  -1   7  -6  120.94    5.11
  -1   7  -6  119.40    4.79
  -1   7  -7  365.85   10.99
   1  -7   7  362.34   10.71
   1  -7   7  330.38    9.96
   1  -7   7  341.09   10.21
  -1   7  -7  354.39   10.38
  -1   7  -7  368.99   10.39
  -1   7  -7  300.05    9.36
   1  -7   7  322.28    9.19
  -1   7  -7  334.93    9.99
  -1   7  -7  372.27   10.25
   1  -7   8   91.97    4.32
   1  -7   8   99.66    4.71
   1  -7   8   91.49    4.46
  -1   7  -8   84.63    3.88
  -1   7  -8   96.01    4.50
  -1   7  -8   86.01    3.94
  -1   7  -8   95.29    4.64
  -1   7  -8   99.68    4.38
  -1   7  -8   98.06    4.60
  -1   7  -8  104.85    4.89
  -1   7  -9  122.82    5.44
  -1   7  -9  128.41    5.22
  -1   7  -9  129.30    5.79
   1  -7   9  114.72    4.93
   1  -7   9  120.62    5.32
  -1   7  -9  134.14    5.65
  -1   7  -9  131.99    5.78
   1  -7   9  113.34    5.09
   1  -7   9  116.50    5.17
  -1   7 -10   75.93    3.76
  -1   7 -10   85.08    4.41
   1  -7  10   78.43    3.82
   1  -7  10   81.43    4.22
  -1   7 -10   87.06    4.53
  -1   7 -10   80.84    4.50
   1  -7  10   74.45    3.94
   1  -7  10   74.16    4.06
   1  -7  11   51.27    3.32
   1  -7  11   51.73    3.09
  -1   7 -11   54.33    3.47
  -1   7 -11   54.29    3.63
   1  -7  12   30.20    2.48
  -1   7 -12   31.31    2.55
  -1   7 -12   37.86    2.87
  -1   7 -13   33.55    2.54
   1  -7  13   41.88    2.94
  -1   7 -13   36.72    2.72
  -1   7 -14   39.69    2.55
  -1   7 -14   46.01    2.81
  -1   7 -15    4.69    0.78
  -1   7 -15    4.32    0.76
   1  -7  15    3.76    0.70
   1  -7  15    4.98    0.89
  -1   7 -16   41.08    1.88
   1  -6 -12   15.45    1.41
   1  -6 -12   14.47    1.12
   1  -6 -11   75.58    3.82
  -1   6  11   62.34    3.14
   1  -6 -11   64.60    3.05
  -1   6  11   65.44    3.13
  -1   6  11   65.12    3.19
  -1   6  11   63.59    3.21
  -1   6  10    2.88    0.79
   1  -6 -10    2.54    0.81
  -1   6  10    2.95    0.79
   1  -6 -10    3.41    0.77
  -1   6  10    1.63    0.60
   1  -6 -10    3.17    0.77
   1  -6  -9   83.96    4.07
  -1   6   9   79.91    4.21
   1  -6  -9   76.14    3.66
  -1   6   9   80.38    4.40
   1  -6  -9   76.47    4.60
  -1   6   8  122.08    5.45
   1  -6  -8  110.93    4.96
   1  -6  -8  111.09    4.78
  -1   6   8  114.12    5.58
   1  -6  -8  110.53    5.85
   1  -6  -7  206.53    7.19
  -1   6   7  212.41    7.61
   1  -6  -7  185.79    6.35
  -1   6   7  200.92    7.92
   1  -6  -7  197.21    8.17
   1  -6  -7  202.65    6.97
  -1   6   7  199.89    7.09
  -1   6   6  273.54    8.70
  -1   6   6  285.11    8.95
   1  -6  -6  284.86    8.75
   1  -6  -6  260.48    8.41
   1  -6  -6  270.78    8.57
  -1   6   6  291.86    9.19
   1  -6  -6  277.37    9.87
  -1   6   6  268.43    9.49
   1  -6  -6  260.50    8.47
  -1   6   5   14.55    1.67
   1  -6  -5   17.03    1.66
   1  -6  -5   16.09    1.55
  -1   6   5   17.15    1.82
  -1   6   5   15.90    1.74
  -1   6   5   15.20    1.89
   1  -6  -5   14.79    1.95
   1  -6  -5   14.33    1.57
  -1   6   4  147.72    5.78
   1  -6  -4  150.43    5.23
   1  -6  -4  144.36    5.28
  -1   6   4  158.76    5.91
  -1   6   4  160.47    5.78
   1  -6  -4  142.55    6.23
  -1   6   4  155.46    6.20
   1  -6  -4  134.14    5.25
  -1   6   3   72.17    3.73
  -1   6   3   76.33    3.75
   1  -6  -3   72.54    3.43
   1  -6  -3   78.43    3.23
   1  -6  -3   73.08    3.42
  -1   6   3   75.06    3.55
  -1   6   3   74.81    3.54
  -1   6   3   66.12    3.70
   1  -6  -3   73.30    4.08
   1  -6  -3   71.63    3.46
  -1   6   3   73.65    3.64
  -1   6   2  110.83    4.19
   1  -6  -2  102.98    4.00
  -1   6   2  108.11    4.20
  -1   6   2   98.20    4.05
  -1   6   2  102.30    4.47
  -1   6   2  107.08    4.50
   1  -6  -2  103.69    3.63
   1  -6  -2   97.18    4.09
   1  -6  -2   95.15    4.06
  -1   6   2  106.70    4.33
   1  -6  -2   99.44    3.93
  -1   6   2  108.69    4.69
  -1   6   1  441.96   12.07
   1  -6  -1  495.81   10.95
  -1   6   1  464.33   11.52
   1  -6  -1  484.63   11.55
  -1   6   1  469.00   11.75
   1  -6  -1  463.38   11.69
  -1   6   1  461.60   11.90
   1  -6  -1  465.03   11.74
   1  -6  -1  441.65   11.70
  -1   6   1  503.59   12.58
  -1   6   0  363.94    9.77
  -1   6   0  319.32    8.66
   1  -6   0  373.56    8.99
   1  -6   0  352.02    8.95
  -1   6   0  360.42    9.41
   1  -6   0  326.20    9.25
   1  -6   0  359.77    9.50
  -1   6   0  362.24    9.84
   1  -6   0  341.49    9.64
  -1   6  -1   72.06    3.44
  -1   6  -1   59.81    3.19
  -1   6  -1   62.19    2.90
  -1   6  -1   62.15    2.75
   1  -6   1   67.81    3.17
   1  -6   1   73.97    2.86
   1  -6   1   74.06    2.93
   1  -6   1   65.21    3.18
  -1   6  -1   72.64    3.38
  -1   6  -1   66.24    3.12
   1  -6   1   67.30    3.12
   1  -6   1   69.58    3.41
  -1   6  -2  190.54    6.33
  -1   6  -2  183.85    5.66
   1  -6   2  197.03    6.27
   1  -6   2  180.59    5.62
   1  -6   2  201.11    5.56
   1  -6   2  186.12    5.97
   1  -6   2  196.37    6.33
  -1   6  -2  213.71    6.47
  -1   6  -2  194.43    6.31
   1  -6   2  202.52    6.70
   1  -6   3 1672.00   34.20
   1  -6   3 1650.16   33.76
  -1   6  -3 1651.02   35.13
  -1   6  -3 1650.04   35.46
   1  -6   3 1613.89   35.01
   1  -6   3 1644.02   34.61
   1  -6   3 1633.72   35.01
  -1   6  -3 1679.86   35.53
  -1   6  -3 1640.91   35.36
  -1   6  -3 1604.68   34.89
   1  -6   4    2.18    0.44
   1  -6   4    1.87    0.47
  -1   6  -4    2.52    0.59
  -1   6  -4    2.69    0.69
  -1   6  -4    1.66    0.54
   1  -6   4    2.70    0.44
  -1   6  -4    2.23    0.56
   1  -6   4    2.28    0.62
  -1   6  -4    1.97    0.64
   1  -6   4    1.89    0.51
  -1   6  -4    1.68    0.57
   1  -6   5   20.85    1.44
  -1   6  -5   23.34    1.79
  -1   6  -5   24.15    2.00
  -1   6  -5   24.95    1.90
  -1   6  -5   22.86    1.71
   1  -6   5   21.83    1.80
   1  -6   5   18.46    1.52
  -1   6  -5   24.07    1.97
   1  -6   5   24.86    2.01
  -1   6  -5   24.54    2.10
   1  -6   6   26.39    1.62
  -1   6  -6   31.65    2.28
  -1   6  -6   26.43    1.93
  -1   6  -6   32.22    2.32
  -1   6  -6   30.41    2.01
   1  -6   6   28.12    1.46
   1  -6   6   28.17    2.09
   1  -6   6   27.89    1.96
  -1   6  -6   30.79    2.23
   1  -6   6   29.13    1.86
   1  -6   6   27.32    2.02
  -1   6  -6   34.99    2.59
   1  -6   6   29.69    2.24
  -1   6  -7  104.47    4.45
   1  -6   7   91.78    3.31
  -1   6  -7   86.92    3.81
  -1   6  -7   98.99    4.33
  -1   6  -7  106.47    4.63
   1  -6   7  102.48    4.40
   1  -6   7   89.54    4.02
   1  -6   7   96.90    4.17
   1  -6   7   98.01    3.71
  -1   6  -7   98.74    4.24
   1  -6   7   95.63    4.05
   1  -6   7   98.83    3.23
   1  -6   8   91.13    3.26
  -1   6  -8   80.20    3.54
  -1   6  -8  100.05    4.62
  -1   6  -8   98.14    4.25
  -1   6  -8  105.03    4.89
   1  -6   8   96.81    4.32
   1  -6   8   87.34    4.05
   1  -6   8   89.66    4.20
   1  -6   8   88.25    3.92
   1  -6   8   91.96    4.33
   1  -6   8   84.64    3.44
  -1   6  -8   98.65    4.24
  -1   6  -8   96.07    4.09
  -1   6  -8   93.54    4.50
  -1   6  -8  101.77    4.58
   1  -6   9  217.58    6.39
  -1   6  -9  235.87    8.11
  -1   6  -9  231.74    7.37
   1  -6   9  233.64    7.59
  -1   6  -9  248.39    8.38
   1  -6   9  220.32    7.33
   1  -6   9  229.85    7.80
  -1   6  -9  230.92    7.59
   1  -6   9  232.17    7.92
   1  -6   9  222.08    7.14
  -1   6  -9  245.66    8.22
  -1   6  -9  243.69    8.31
   1  -6  10    4.24    0.74
   1  -6  10    3.25    0.79
   1  -6  10    2.83    0.70
  -1   6 -10    2.95    0.84
  -1   6 -10    3.64    0.90
   1  -6  10    2.82    0.79
   1  -6  10    4.71    1.01
  -1   6 -10    2.99    0.79
   1  -6  10    4.43    1.01
  -1   6 -10    3.31    0.94
  -1   6 -11    1.55    0.61
   1  -6  11    2.52    0.88
   1  -6  11    1.71    0.64
   1  -6  11    1.41    0.53
  -1   6 -11    2.64    0.77
  -1   6 -11    2.27    0.80
  -1   6 -12    2.88    0.86
   1  -6  12    3.37    0.95
  -1   6 -12    3.59    0.87
  -1   6 -12    3.03    0.85
   1  -6  12    3.14    0.86
   1  -6  13   56.09    3.45
  -1   6 -13   52.94    3.23
  -1   6 -13   58.84    3.59
   1  -6  13   61.40    3.85
   1  -6  14  138.40    5.59
   1  -6  14  177.85    6.15
   1  -6  14  164.84    6.39
  -1   6 -14  157.64    5.93
  -1   6 -14  152.08    5.61
  -1   6 -14  141.67    5.60
  -1   6 -15   53.41    2.83
   1  -6  15   54.00    2.90
  -1   6 -15   63.93    3.09
  -1   6 -15   66.29    3.08
   1  -6  15   68.09    3.08
   1  -6  15   63.11    3.35
  -1   6 -16    7.81    0.84
   1  -6  16    6.91    0.91
   1  -5 -13    0.15    0.29
   1  -5 -13    0.07    0.18
   1  -5 -12    0.76    0.40
   1  -5 -12    0.67    0.43
  -1   5  12    0.74    0.43
   1  -5 -12    0.87    0.39
   1  -5 -11  162.11    6.75
  -1   5  11  156.24    6.11
  -1   5  11  157.94    5.86
   1  -5 -10    1.90    0.59
   1  -5 -10    1.66    0.61
  -1   5  10    1.98    0.74
   1  -5 -10    2.14    0.82
  -1   5  10    1.87    0.69
   1  -5  -9  200.78    7.07
  -1   5   9  215.34    7.73
   1  -5  -9  198.96    6.75
  -1   5   9  195.94    7.80
   1  -5  -8   31.85    2.32
   1  -5  -8   31.61    2.27
  -1   5   8   36.79    2.82
   1  -5  -8   35.25    2.53
   1  -5  -8   31.39    2.16
   1  -5  -8   33.16    2.57
   1  -5  -7    4.29    0.85
   1  -5  -7    1.88    0.60
   1  -5  -7    2.14    0.60
  -1   5   7    1.67    0.56
  -1   5   7    2.47    0.73
  -1   5   7    2.91    0.76
   1  -5  -7    2.86    0.62
   1  -5  -7    2.99    0.78
  -1   5   6   11.78    1.42
   1  -5  -6   11.17    1.35
  -1   5   6   12.72    1.53
   1  -5  -6   12.04    1.23
   1  -5  -6   13.53    1.43
  -1   5   6   16.62    1.69
   1  -5  -6   11.24    1.37
  -1   5   5  358.81   10.12
  -1   5   5  325.20    9.53
   1  -5  -5  378.44    9.18
   1  -5  -5  345.35    9.73
  -1   5   5  381.69   10.27
  -1   5   5  358.43   10.09
   1  -5  -5  379.16    9.62
   1  -5  -5  370.60    9.48
   1  -5  -5  343.12    9.80
  -1   5   4    4.90    0.87
  -1   5   4    6.55    0.92
  -1   5   4    4.97    0.80
  -1   5   4    5.94    0.94
   1  -5  -4    5.79    0.81
   1  -5  -4    4.19    0.73
  -1   5   4    5.67    0.94
  -1   5   4    4.82    0.84
   1  -5  -4    5.21    0.69
   1  -5  -4    5.37    0.86
  -1   5   3    5.17    0.86
   1  -5  -3    6.58    0.77
   1  -5  -3    5.41    0.78
  -1   5   3    5.95    0.91
   1  -5  -3    6.72    0.93
  -1   5   3    6.29    0.92
  -1   5   3    5.79    0.66
  -1   5   3    5.71    0.85
  -1   5   3    6.52    0.91
  -1   5   2  197.78    6.33
   1  -5  -2  229.66    5.59
  -1   5   2  242.50    6.64
   1  -5  -2  198.84    5.76
   1  -5  -2  214.79    5.89
  -1   5   2  193.60    6.06
   1  -5  -2  189.45    6.02
  -1   5   2  185.53    5.08
  -1   5   2  217.53    6.55
   1  -5  -1  457.37   11.28
   1  -5  -1  481.81   11.38
  -1   5   1  497.60   11.66
  -1   5   1  445.15   10.00
   1  -5   0  479.34   11.04
  -1   5   0  481.50   11.19
  -1   5   0  430.16    9.57
   1  -5   0  482.04   11.26
  -1   5   0  424.95   10.21
   1  -5   1   62.17    2.69
  -1   5  -1   65.14    2.80
  -1   5  -1   66.45    2.82
   1  -5   1   68.75    3.04
  -1   5  -1   60.82    1.89
  -1   5  -1   58.08    2.37
  -1   5  -1   61.29    2.59
  -1   5  -1   58.70    2.00
   1  -5   1   62.74    2.11
   1  -5   2  920.03   19.97
  -1   5  -2 1011.72   20.11
  -1   5  -2  997.64   19.67
   1  -5   2  846.80   18.35
  -1   5  -2  928.03   19.15
  -1   5  -2  801.12   18.24
  -1   5  -3  154.77    5.12
  -1   5  -3  151.10    4.57
  -1   5  -4    3.82    0.78
  -1   5  -4    2.91    0.55
   1  -5   4    2.65    0.43
   1  -5   5  261.52    7.24
  -1   5  -5  273.61    7.26
   1  -5   5  281.62    7.28
  -1   5  -5  283.40    7.85
   1  -5   6  275.69    7.82
   1  -5   6  268.84    7.65
  -1   5  -6  315.48    8.92
   1  -5   6  268.87    7.15
   1  -5   6  270.15    7.87
  -1   5  -6  288.10    7.90
   1  -5   6  275.01    7.57
  -1   5  -6  299.20    8.20
  -1   5  -6  297.54    8.46
  -1   5  -7    7.30    1.00
  -1   5  -7    6.02    0.81
  -1   5  -7    6.06    0.86
  -1   5  -7    8.82    1.23
  -1   5  -7    8.19    1.24
   1  -5   7    7.35    1.02
   1  -5   7    6.81    0.93
  -1   5  -7    7.55    1.05
   1  -5   7    6.38    0.99
   1  -5   7    8.06    0.85
   1  -5   7    8.18    0.97
  -1   5  -7    7.87    1.03
   1  -5   7    7.24    0.78
  -1   5  -8   16.07    1.49
  -1   5  -8   15.67    1.70
  -1   5  -8   15.02    1.70
   1  -5   8   15.82    1.43
   1  -5   8   14.46    1.54
  -1   5  -8   14.92    1.45
   1  -5   8   14.14    1.31
  -1   5  -8   17.96    1.68
   1  -5   8   15.39    1.58
   1  -5   8   15.74    1.20
   1  -5   9   43.75    2.22
  -1   5  -9   47.43    3.09
  -1   5  -9   49.23    3.14
  -1   5  -9   43.18    2.65
   1  -5   9   41.78    2.47
   1  -5   9   43.59    2.85
   1  -5   9   41.78    2.36
  -1   5  -9   46.87    2.91
   1  -5   9   41.76    2.79
  -1   5  -9   42.82    3.02
  -1   5  -9   44.57    3.01
   1  -5  10   28.94    1.92
   1  -5  10   34.45    2.88
  -1   5 -10   31.51    2.57
  -1   5 -10   29.40    2.26
   1  -5  10   27.15    2.35
   1  -5  10   27.93    2.01
  -1   5 -10   30.77    2.44
   1  -5  10   31.27    2.49
  -1   5 -10   33.56    2.71
  -1   5 -10   28.41    2.60
   1  -5  11   14.66    1.44
  -1   5 -11   15.90    1.82
   1  -5  11   18.37    2.17
   1  -5  11   16.00    1.86
  -1   5 -11   15.41    1.67
   1  -5  11   13.05    1.40
  -1   5 -11   18.34    1.91
   1  -5  11   16.03    1.86
  -1   5 -11   15.48    1.90
   1  -5  12   37.84    2.91
  -1   5 -12   37.08    2.63
   1  -5  12   38.44    3.15
  -1   5 -12   35.07    2.87
   1  -5  12   34.76    2.75
  -1   5 -12   35.92    2.76
  -1   5 -12   34.19    2.74
  -1   5 -13  349.22   10.21
   1  -5  13  358.71   10.85
   1  -5  13  363.75   11.44
  -1   5 -13  350.69   10.86
  -1   5 -13  359.86   10.69
  -1   5 -13  347.22   10.68
  -1   5 -14   31.34    2.24
   1  -5  14   31.66    2.46
  -1   5 -14   34.27    2.53
   1  -5  14   37.64    2.58
   1  -5  14   33.19    2.74
   1  -5  14   32.34    2.36
  -1   5 -14   33.21    2.45
  -1   5 -14   29.61    2.32
   1  -5  15    4.68    0.89
  -1   5 -15    4.23    0.74
  -1   5 -15    5.57    0.91
   1  -5  15    5.51    1.05
   1  -5  15    4.84    0.80
  -1   5 -15    5.18    0.88
  -1   5 -15    4.68    0.82
   1  -5  16    6.92    0.96
  -1   5 -16    6.48    0.79
   1  -5  16    5.83    0.80
   1  -4 -14    4.26    0.72
   1  -4 -14    4.77    0.67
   1  -4 -13  261.15    7.33
  -1   4  13  261.15    7.59
   1  -4 -13  281.65    8.54
  -1   4  12    4.68    0.96
   1  -4 -12    4.47    0.81
  -1   4  12    4.36    0.93
  -1   4  12    4.34    0.90
  -1   4  12    5.67    1.05
   1  -4 -11    0.58    0.41
   1  -4 -11    0.58    0.40
  -1   4  11    1.01    0.49
  -1   4  10   74.41    3.79
   1  -4 -10   82.57    3.98
   1  -4 -10   75.81    3.79
   1  -4 -10   74.70    4.05
   1  -4  -9  666.72   16.07
   1  -4  -9  629.42   15.73
   1  -4  -9  602.95   16.29
   1  -4  -9  623.92   15.50
  -1   4   9  638.74   15.95
   1  -4  -9  652.14   16.55
   1  -4  -8    0.62    0.33
   1  -4  -8    0.97    0.48
  -1   4   8    0.72    0.50
   1  -4  -8    1.98    0.60
   1  -4  -8    0.45    0.33
   1  -4  -8    0.52    0.41
  -1   4   8    0.19    0.32
   1  -4  -8    0.05    0.27
   1  -4  -8    0.36    0.41
  -1   4   7  137.37    5.10
   1  -4  -7  131.91    4.86
   1  -4  -7  122.02    4.60
   1  -4  -7  120.43    5.04
  -1   4   7  131.77    5.42
   1  -4  -7  125.72    4.78
   1  -4  -7  127.80    4.58
   1  -4  -7  130.58    4.52
  -1   4   7  133.20    4.94
   1  -4  -7  136.37    5.21
  -1   4   6    0.75    0.37
   1  -4  -6    1.27    0.47
  -1   4   6    1.09    0.40
  -1   4   6    1.26    0.50
   1  -4  -6    0.85    0.33
   1  -4  -6    0.70    0.37
  -1   4   6    0.99    0.41
  -1   4   6    1.06    0.40
   1  -4  -6    0.65    0.35
   1  -4  -6    1.16    0.39
  -1   4   6    0.69    0.35
   1  -4  -5    0.75    0.34
  -1   4   5    1.06    0.37
  -1   4   5    0.75    0.35
  -1   4   5    1.73    0.51
  -1   4   5    0.67    0.34
   1  -4  -5    0.95    0.40
  -1   4   5    0.97    0.40
   1  -4  -5    1.09    0.34
   1  -4  -5    2.04    0.41
   1  -4  -5    0.87    0.39
  -1   4   5    1.16    0.37
  -1   4   4  217.77    6.68
  -1   4   4  238.79    6.07
   1  -4  -4  254.48    6.20
  -1   4   4  231.86    6.75
   1  -4  -4  236.54    6.35
  -1   4   4  236.90    6.72
  -1   4   4  200.54    6.27
   1  -4  -4  217.89    6.37
   1  -4  -4  215.83    6.55
  -1   4   4  236.46    6.14
   1  -4  -3    0.29    0.22
  -1   4   3    0.19    0.18
   1  -4  -3    0.24    0.25
  -1   4   3    0.02    0.11
   1  -4  -2 1854.83   37.74
  -1   4   2 1800.45   38.02
  -1   4   2 1809.63   36.86
  -1   4   1   82.43    3.01
  -1   4   1   79.14    2.26
   1  -4  -1   85.29    3.06
   1  -4  -1   79.73    2.95
  -1   4   0  140.27    3.41
   1  -4   0  152.57    4.39
   1  -4   0  152.14    4.45
  -1   4   0  142.37    3.38
  -1   4   0  137.66    4.20
  -1   4   0  161.84    4.44
  -1   4  -1 1298.98   27.68
  -1   4  -1 1506.33   28.71
  -1   4  -1 1395.89   28.25
  -1   4  -1 1373.91   28.85
  -1   4  -1 1462.39   28.70
   1  -4   1 1455.54   28.96
  -1   4  -2   33.99    1.57
   1  -4   2   36.18    1.47
  -1   4  -2   37.98    1.94
   1  -4   3    0.78    0.24
  -1   4  -3    0.84    0.30
  -1   4  -3    0.89    0.35
  -1   4  -4  158.88    4.59
   1  -4   4  150.31    4.21
   1  -4   5  162.18    4.68
  -1   4  -5  195.95    6.06
  -1   4  -6  355.89    9.72
  -1   4  -6  506.63   11.49
   1  -4   6  423.88   10.00
  -1   4  -6  524.42   11.74
   1  -4   6  387.62    9.69
   1  -4   7  121.49    4.09
  -1   4  -7  136.67    5.11
  -1   4  -7  124.29    4.43
   1  -4   7  126.15    4.06
   1  -4   7  122.20    4.46
  -1   4  -7  100.99    3.66
  -1   4  -7  139.15    5.17
   1  -4   7  121.60    4.40
   1  -4   7  121.60    3.92
  -1   4  -7  143.03    4.90
   1  -4   7  127.85    3.85
  -1   4  -8   80.68    3.87
   1  -4   8   71.68    3.05
  -1   4  -8   72.09    3.37
   1  -4   8   73.37    2.99
   1  -4   8   69.44    3.38
   1  -4   8   75.18    3.42
  -1   4  -8   78.20    3.65
   1  -4   8   74.98    3.34
   1  -4   8   72.56    2.89
   1  -4   8   72.27    2.80
   1  -4   9    2.88    0.57
   1  -4   9    2.57    0.52
   1  -4   9    2.97    0.64
  -1   4  -9    2.46    0.70
  -1   4  -9    3.10    0.84
   1  -4   9    3.40    0.90
   1  -4   9    3.33    0.63
   1  -4   9    3.10    0.73
   1  -4   9    3.00    0.73
  -1   4  -9    3.86    0.85
  -1   4  -9    2.60    0.66
   1  -4   9    4.44    0.84
  -1   4  -9    3.20    0.83
  -1   4  -9    3.24    0.85
   1  -4  10   13.78    1.30
   1  -4  10   14.41    1.42
  -1   4 -10   12.45    1.56
  -1   4 -10   14.12    1.73
   1  -4  10   15.46    1.90
  -1   4 -10   16.05    1.67
   1  -4  10   16.12    1.75
   1  -4  10   13.82    1.30
   1  -4  10   12.26    1.51
  -1   4 -10   16.02    1.73
   1  -4  10   11.94    1.45
  -1   4 -10   17.77    1.96
  -1   4 -11    0.36    0.41
  -1   4 -11    0.18    0.32
   1  -4  11    0.40    0.50
   1  -4  11    0.16    0.37
  -1   4 -11    0.29    0.31
  -1   4 -11    0.98    0.54
   1  -4  11    0.22    0.35
  -1   4 -12  130.20    5.51
   1  -4  12  136.16    5.85
  -1   4 -12  131.23    5.92
   1  -4  12  140.51    6.42
  -1   4 -12  139.62    5.85
  -1   4 -12  137.55    5.95
   1  -4  13   70.96    4.01
  -1   4 -13   72.30    3.85
   1  -4  13   70.82    4.33
  -1   4 -13   66.14    3.91
  -1   4 -13   68.93    3.48
   1  -4  13   69.08    3.86
  -1   4 -13   74.27    4.04
  -1   4 -13   70.48    3.93
  -1   4 -14   39.19    2.60
   1  -4  14   33.03    2.55
  -1   4 -14   38.84    2.68
   1  -4  14   37.14    2.93
   1  -4  14   34.18    2.52
  -1   4 -14   36.05    2.64
  -1   4 -14   33.04    2.43
   1  -4  15   15.33    1.54
  -1   4 -15   17.61    1.66
   1  -4  15   18.12    1.84
  -1   4 -15   16.92    1.56
  -1   4 -15   16.15    1.52
   1  -4  15   14.47    1.53
  -1   4 -16    0.55    0.27
   1  -4  16    0.78    0.40
   1  -3 -15   26.06    1.60
  -1   3  14   40.50    2.31
  -1   3  14   40.53    2.29
   1  -3 -13   28.74    2.02
  -1   3  13   26.58    2.12
   1  -3 -13   28.43    2.02
   1  -3 -13   29.10    2.04
  -1   3  13   25.07    2.07
  -1   3  12    0.62    0.45
   1  -3 -12    0.72    0.45
  -1   3  12    0.79    0.47
   1  -3 -12    0.38    0.34
  -1   3  12    0.52    0.39
  -1   3  11   72.66    4.16
   1  -3 -11   73.29    3.75
   1  -3 -11   76.80    3.67
   1  -3 -11   68.65    3.39
  -1   3  11   71.38    3.80
  -1   3  11   71.83    3.77
   1  -3 -11   71.00    4.02
  -1   3  10  723.25   18.12
   1  -3 -10  674.46   16.94
   1  -3 -10  700.60   16.92
   1  -3 -10  746.54   17.96
   1  -3 -10  673.94   16.78
  -1   3  10  697.21   17.43
   1  -3 -10  665.07   16.45
   1  -3 -10  681.14   17.77
   1  -3  -9   23.74    1.92
   1  -3  -9   22.37    1.85
   1  -3  -9   25.82    2.22
   1  -3  -9   21.86    1.81
   1  -3  -9   23.55    1.81
  -1   3   9   25.88    2.16
   1  -3  -9   21.19    2.08
   1  -3  -8   48.63    2.49
   1  -3  -8   42.27    2.84
   1  -3  -8   47.38    2.56
   1  -3  -8   44.47    2.55
   1  -3  -8   46.30    2.61
  -1   3   8   45.35    2.78
   1  -3  -8   47.12    2.51
   1  -3  -8   45.03    2.40
   1  -3  -8   48.95    2.88
   1  -3  -7  132.85    4.71
  -1   3   7  142.80    5.08
   1  -3  -7  149.58    4.87
   1  -3  -7  142.89    4.87
   1  -3  -7  144.41    4.73
  -1   3   7  148.02    5.55
   1  -3  -7  153.75    4.77
   1  -3  -7  146.54    4.65
  -1   3   7  148.55    5.25
   1  -3  -7  149.87    5.29
   1  -3  -6    2.13    0.50
  -1   3   6    1.93    0.47
  -1   3   6    1.65    0.48
  -1   3   6    1.26    0.48
   1  -3  -6    1.17    0.35
  -1   3   6    1.75    0.48
   1  -3  -6    1.20    0.39
   1  -3  -6    1.40    0.39
  -1   3   6    2.00    0.51
   1  -3  -6    1.88    0.51
  -1   3   6    1.58    0.47
   1  -3  -5  331.44    7.70
   1  -3  -5  329.13    7.92
  -1   3   5  302.89    8.32
   1  -3  -5  289.33    7.92
  -1   3   5  280.80    7.81
  -1   3   5  337.71    8.14
  -1   3   4  701.31   14.59
   1  -3  -4  687.43   15.18
  -1   3   4  736.71   15.01
  -1   3   3  182.81    4.81
  -1   3   3  174.89    4.96
   1  -3  -3  180.66    5.08
  -1   3   2    2.81    0.44
   1  -3  -2    2.85    0.42
  -1   3   2    2.76    0.34
   1  -3  -1  313.11    7.16
  -1   3   1  315.50    7.17
   1  -3  -1  334.15    7.28
  -1   3   0  958.03   19.47
  -1   3   0  995.87   19.93
   1  -3   0 1022.96   20.44
  -1   3   0  964.05   20.50
   1  -3   0 1019.82   20.56
  -1   3   0  970.42   20.32
  -1   3   0  953.35   19.45
   1  -3   1 3273.82   60.84
  -1   3  -1 2854.86   60.97
  -1   3  -1 3169.56   60.67
  -1   3  -1 2973.22   61.21
   1  -3   2  615.42   12.88
  -1   3  -2  597.04   13.41
   1  -3   3  105.12    3.12
  -1   3  -3  111.56    3.31
   1  -3   4   50.98    2.00
  -1   3  -4   58.34    2.61
  -1   3  -5  145.37    4.36
   1  -3   5  149.40    4.37
   1  -3   5  181.94    4.78
  -1   3  -5  188.59    5.51
  -1   3  -6  138.11    4.11
   1  -3   6  172.28    4.72
  -1   3  -6  176.94    5.49
   1  -3   6  140.73    4.31
   1  -3   7   41.77    2.11
   1  -3   7   38.89    1.89
  -1   3  -7   42.75    2.54
   1  -3   7   38.30    2.15
  -1   3  -7   40.29    2.32
  -1   3  -7   43.83    2.53
   1  -3   7   34.40    1.99
   1  -3   7   37.63    1.80
   1  -3   8    1.12    0.38
   1  -3   8    0.58    0.27
  -1   3  -8    0.68    0.36
   1  -3   8    2.00    0.44
   1  -3   8    0.68    0.34
  -1   3  -8    0.50    0.40
  -1   3  -8    0.64    0.39
   1  -3   8    0.66    0.34
  -1   3  -8    1.36    0.47
   1  -3   8    0.66    0.33
   1  -3   8    0.57    0.28
   1  -3   9   15.77    1.30
  -1   3  -9   12.47    1.46
   1  -3   9   15.89    1.39
  -1   3  -9   16.32    1.84
   1  -3   9   14.60    1.52
   1  -3   9   14.65    1.20
  -1   3  -9   14.21    1.53
   1  -3   9   12.34    1.40
   1  -3   9   15.62    1.29
   1  -3  10  269.26    7.56
   1  -3  10  295.39    7.98
  -1   3 -10  278.84    9.16
   1  -3  10  262.86    9.15
  -1   3 -10  270.99    9.08
  -1   3 -10  284.24    8.75
   1  -3  10  268.20    7.30
   1  -3  10  273.44    8.58
  -1   3 -10  298.82    9.22
   1  -3  10  268.12    8.51
   1  -3  10  274.68    7.75
  -1   3 -11  339.09   10.52
  -1   3 -11  323.65   10.44
   1  -3  11  324.50   10.76
  -1   3 -11  335.60   10.07
   1  -3  11  336.68   10.10
  -1   3 -11  344.42   10.43
   1  -3  11  331.82    9.81
   1  -3  11  332.76   10.02
   1  -3  11  305.38    8.67
  -1   3 -12   79.85    4.20
   1  -3  12   80.56    4.26
  -1   3 -12   81.86    4.10
   1  -3  12   84.10    4.79
  -1   3 -12   78.04    4.34
   1  -3  12   78.45    4.15
   1  -3  12   79.96    4.12
  -1   3 -12   72.63    4.19
  -1   3 -12   81.70    4.39
  -1   3 -13   94.64    4.60
  -1   3 -13   86.78    4.15
  -1   3 -13   97.57    4.72
   1  -3  13   93.10    5.04
   1  -3  13   94.16    4.48
   1  -3  13   97.25    4.58
  -1   3 -13   84.89    4.35
  -1   3 -14   21.73    1.99
   1  -3  14   19.71    2.12
  -1   3 -14   19.07    1.87
   1  -3  14   17.53    1.76
  -1   3 -14   15.38    1.59
   1  -3  15    1.22    0.51
   1  -3  15    1.38    0.56
  -1   3 -15    1.04    0.43
  -1   3 -15    1.05    0.44
  -1   3 -15    1.17    0.47
  -1   3 -16    0.04    0.18
   1  -3  16    0.35    0.25
  -1   2  14    9.35    1.17
   1  -2 -14    8.17    1.06
   1  -2 -14   10.55    1.26
  -1   2  14    8.38    1.15
   1  -2 -13  143.83    5.20
  -1   2  13  134.29    5.46
   1  -2 -13  140.09    5.37
  -1   2  13  138.79    5.63
   1  -2 -13  146.01    5.75
   1  -2 -13  129.61    4.87
  -1   2  13  128.47    5.16
  -1   2  12    5.73    1.14
   1  -2 -12    4.96    1.09
   1  -2 -12    5.10    0.94
  -1   2  12    4.49    0.96
  -1   2  11    2.94    0.84
   1  -2 -11    2.86    0.73
   1  -2 -11    3.66    0.85
  -1   2  11    2.45    0.78
   1  -2 -11    2.58    0.83
  -1   2  11    3.49    0.82
   1  -2 -10   29.12    2.08
  -1   2  10   28.36    2.46
   1  -2 -10   30.78    2.47
   1  -2 -10   28.96    2.12
   1  -2 -10   26.70    2.08
  -1   2  10   31.88    2.53
   1  -2 -10   33.47    2.69
   1  -2  -9    8.88    1.09
  -1   2   9    8.32    1.29
   1  -2  -9   10.87    1.36
   1  -2  -9   10.42    1.18
   1  -2  -9    8.04    1.08
  -1   2   9    9.89    1.36
   1  -2  -9    8.86    1.33
   1  -2  -8  105.42    4.04
   1  -2  -8  112.79    4.15
   1  -2  -8  115.29    4.22
  -1   2   8  125.32    4.93
   1  -2  -8  122.90    4.25
   1  -2  -8  125.51    4.29
   1  -2  -8  125.89    4.73
   1  -2  -7   27.46    1.76
   1  -2  -7   26.93    1.67
   1  -2  -7   27.14    1.63
  -1   2   7   28.25    1.82
   1  -2  -7   27.72    1.65
   1  -2  -7   27.10    1.64
   1  -2  -7   31.66    1.73
  -1   2   7   32.38    2.12
   1  -2  -7   25.91    1.27
   1  -2  -7   29.87    1.93
  -1   2   6   34.96    1.83
   1  -2  -6   39.90    2.10
   1  -2  -6   41.98    1.92
  -1   2   6   38.24    2.25
   1  -2  -6   44.71    1.94
   1  -2  -6   42.91    1.90
  -1   2   5   31.07    1.22
   1  -2  -5   31.45    1.72
  -1   2   5   31.46    1.56
   1  -2  -5   34.83    1.78
  -1   2   4   22.75    1.05
   1  -2  -4   20.93    1.31
  -1   2   4   19.73    1.12
  -1   2   4   22.94    1.31
   1  -2  -4   22.75    1.33
  -1   2   3    1.46    0.26
   1  -2  -3    1.48    0.34
  -1   2   3    1.66    0.29
   1  -2  -3    1.54    0.33
  -1   2   3    1.43    0.29
  -1   2   2  160.32    3.90
   1  -2  -2  168.56    4.18
  -1   2   1  455.31    9.87
   1  -2  -1  475.72   10.16
   1  -2  -1  451.51    9.83
   1  -2   0  864.84   17.21
  -1   2   0  852.57   17.11
  -1   2   0  883.32   16.90
  -1   2   0  827.11   16.60
  -1   2   0  797.95   16.86
   1  -2   1 2988.97   56.02
  -1   2  -1 2843.48   55.79
  -1   2  -1 2839.31   56.19
   1  -2   1 2763.61   56.08
  -1   2  -1 2816.09   56.35
  -1   2  -2  418.89    9.32
   1  -2   2  442.24    9.26
   1  -2   2  414.09    9.21
  -1   2  -3  154.42    4.18
  -1   2  -3  149.15    3.83
  -1   2  -4   45.62    2.08
   1  -2   4   41.99    1.63
  -1   2  -4   45.47    1.69
   1  -2   5  493.75   11.25
  -1   2  -5  476.05   10.87
  -1   2  -6   86.98    3.58
   1  -2   6  104.05    3.38
   1  -2   7   56.72    2.58
  -1   2  -7   54.02    2.78
   1  -2   7   59.33    2.58
   1  -2   7   54.50    2.26
   1  -2   8    2.82    0.57
   1  -2   8    2.40    0.56
  -1   2  -8    1.77    0.45
  -1   2  -8    2.65    0.76
   1  -2   8    2.69    0.60
  -1   2  -8    2.22    0.62
   1  -2   8    2.39    0.49
   1  -2   9    4.08    0.71
   1  -2   9    4.66    0.67
  -1   2  -9    5.81    0.85
  -1   2  -9    3.28    0.85
   1  -2   9    3.72    0.75
  -1   2  -9    3.82    0.86
   1  -2   9    4.23    0.83
   1  -2   9    3.14    0.69
   1  -2   9    5.01    0.77
   1  -2  10  344.99    8.88
   1  -2  10  369.57    9.49
  -1   2 -10  354.24   10.77
   1  -2  10  333.01   10.74
  -1   2 -10  354.02   10.73
   1  -2  10  348.73   10.07
  -1   2 -10  361.78   10.64
  -1   2 -10  395.09   11.16
   1  -2  10  328.97    9.65
   1  -2  10  333.57   10.04
   1  -2  10  364.69    9.52
  -1   2 -11  325.82   10.27
  -1   2 -11  315.38   10.06
   1  -2  11  325.34   10.78
  -1   2 -11  331.47   10.43
  -1   2 -11  349.89   10.57
   1  -2  11  317.09    9.55
  -1   2 -11  352.95   10.81
   1  -2  11  345.81   10.22
   1  -2  11  338.41    9.56
  -1   2 -12    7.60    1.32
  -1   2 -12    9.10    1.37
   1  -2  12   11.09    1.70
  -1   2 -12    9.56    1.45
   1  -2  12    8.52    1.35
   1  -2  12    8.65    1.27
  -1   2 -12    9.34    1.49
  -1   2 -12    8.57    1.33
  -1   2 -13    5.16    0.95
  -1   2 -13    5.26    1.00
  -1   2 -13    7.56    1.24
   1  -2  13    6.24    1.32
   1  -2  13    5.21    1.00
  -1   2 -13    5.44    1.10
  -1   2 -13    6.25    1.20
   1  -2  13    6.33    1.14
   1  -2  13    6.49    1.09
   1  -2  13    5.05    1.04
  -1   2 -14   26.79    2.00
  -1   2 -14   26.08    2.10
   1  -2  14   26.27    2.46
   1  -2  14   23.69    1.99
  -1   2 -14   26.14    2.22
   1  -2  14   27.03    2.23
   1  -2  14   23.03    1.89
   1  -2  14   26.96    2.22
  -1   2 -14   26.94    2.23
  -1   2 -15  153.97    5.52
   1  -2  15  158.31    5.57
  -1   2 -15  165.58    5.68
   1  -1 -15    0.90    0.38
   1  -1 -15    0.79    0.36
  -1   1  15    0.62    0.36
  -1   1  15    0.77    0.35
   1  -1 -14    5.92    1.05
  -1   1  14    5.47    0.97
   1  -1 -14    5.61    0.97
   1  -1 -14    4.78    0.87
   1  -1 -14    5.59    0.92
  -1   1  14    5.53    1.01
   1  -1 -13   88.79    4.17
  -1   1  13   89.59    4.37
   1  -1 -13   93.71    4.66
  -1   1  13   88.68    4.30
   1  -1 -13   90.05    4.10
   1  -1 -13   89.82    3.89
  -1   1  12   73.31    4.05
   1  -1 -12   78.46    3.84
   1  -1 -12   71.61    4.23
   1  -1 -12   75.43    3.88
  -1   1  12   77.41    4.17
   1  -1 -11  581.51   15.60
  -1   1  11  565.36   15.34
  -1   1  11  568.86   15.25
  -1   1  11  548.62   14.39
   1  -1 -11  549.13   14.45
   1  -1 -11  570.05   14.41
  -1   1  11  575.46   15.27
   1  -1 -11  585.85   15.22
   1  -1 -10   -0.04    0.19
  -1   1  10    0.75    0.47
   1  -1 -10    0.96    0.48
  -1   1  10    0.24    0.34
  -1   1  10    0.32    0.35
   1  -1 -10    0.06    0.31
  -1   1  10    0.23    0.33
   1  -1 -10    0.07    0.24
   1  -1  -9    8.80    1.07
  -1   1   9    9.82    1.25
   1  -1  -9   10.50    1.17
  -1   1   9   10.90    1.41
   1  -1  -9    9.38    1.22
  -1   1   9   11.09    1.43
   1  -1  -9   10.34    1.17
  -1   1   9   11.59    1.57
   1  -1  -8    6.20    0.85
  -1   1   8    6.32    0.93
  -1   1   8    5.17    0.92
   1  -1  -8    4.99    0.73
   1  -1  -8    4.72    0.73
   1  -1  -8    5.01    0.76
  -1   1   8    8.33    1.17
   1  -1  -8    5.32    0.86
   1  -1  -8    7.07    0.66
   1  -1  -7   81.43    3.24
   1  -1  -7   77.59    2.89
  -1   1   7   81.46    3.53
  -1   1   7   87.25    3.66
   1  -1  -7   77.14    2.55
   1  -1  -7   85.02    3.30
   1  -1  -7   76.15    2.79
  -1   1   6  745.22   15.92
   1  -1  -6  761.80   15.49
  -1   1   5  107.52    3.01
   1  -1  -5  120.57    3.77
  -1   1   5  109.25    2.72
   1  -1  -5  126.71    3.61
  -1   1   4  543.37   11.21
  -1   1   4  523.41   11.23
  -1   1   3    6.92    0.50
   1  -1  -3    6.34    0.64
  -1   1   3    7.73    0.41
   1  -1  -3    6.62    0.57
  -1   1   2  154.89    3.35
   1  -1  -2  163.39    3.91
   1  -1  -2  155.86    3.43
  -1   1   1  901.62   18.52
  -1   1   1  933.56   18.51
   1  -1  -1  942.11   18.07
   1  -1  -1  906.10   18.69
  -1   1   1  905.82   18.10
   1  -1  -1  873.38   18.47
  -1   1   0   38.62    1.37
   1  -1   0   39.78    1.21
   1  -1   0   42.42    1.36
  -1   1   0   38.72    1.29
   1  -1   1  173.13    3.79
   1  -1   1  173.34    4.09
  -1   1  -1  176.13    4.05
   1  -1   1  185.47    3.94
  -1   1  -2  215.67    5.06
   1  -1   2  215.66    4.84
   1  -1   2  231.54    5.16
   1  -1   2  221.72    4.56
  -1   1  -3 3510.48   70.25
   1  -1   3 3624.05   70.03
  -1   1  -4    9.24    0.74
   1  -1   4    8.87    0.67
  -1   1  -4   10.10    0.62
   1  -1   4   10.46    0.77
  -1   1  -5 1236.26   27.37
  -1   1  -5 1281.70   26.58
   1  -1   5 1293.33   27.29
  -1   1  -6  333.09    8.78
   1  -1   6  383.04    8.90
   1  -1   6  410.11    9.08
   1  -1   6  361.61    8.54
  -1   1  -7  124.34    4.30
   1  -1   7  144.34    4.63
   1  -1   7  158.63    4.69
  -1   1  -7  143.50    5.07
   1  -1   7  143.17    4.58
   1  -1   7  142.33    4.42
  -1   1  -7  166.97    5.81
   1  -1   7  143.09    4.57
   1  -1   7  154.94    4.35
   1  -1   8   28.29    1.94
   1  -1   8   32.98    1.93
  -1   1  -8   27.83    1.91
  -1   1  -8   32.22    2.38
  -1   1  -8   35.83    2.35
  -1   1  -8   34.91    2.62
   1  -1   8   29.12    1.79
   1  -1   8   25.88    1.84
   1  -1   8   32.66    1.79
   1  -1   9   40.74    2.26
  -1   1  -9   35.01    2.28
  -1   1  -9   32.36    2.51
   1  -1   9   34.25    2.64
   1  -1   9   32.92    2.16
   1  -1   9   36.41    2.35
  -1   1  -9   44.39    3.09
   1  -1   9   36.54    2.18
   1  -1   9   39.59    2.19
   1  -1  10   26.85    1.88
  -1   1 -10   24.66    1.94
  -1   1 -10   21.57    2.06
  -1   1 -10   20.41    2.07
   1  -1  10   21.09    2.19
  -1   1 -10   23.61    2.21
   1  -1  10   18.59    1.70
   1  -1  10   23.06    2.01
  -1   1 -10   25.52    2.39
   1  -1  10   23.53    1.83
   1  -1  10   23.90    1.86
  -1   1 -11    1.40    0.62
  -1   1 -11    1.47    0.57
  -1   1 -11    1.53    0.62
   1  -1  11    1.17    0.66
   1  -1  11    1.52    0.58
   1  -1  11    1.63    0.56
   1  -1  11    1.08    0.59
  -1   1 -11    1.47    0.64
   1  -1  11    3.33    0.83
   1  -1  12   19.44    1.94
  -1   1 -12   17.84    1.92
   1  -1  12   17.50    2.12
  -1   1 -12   15.78    1.84
   1  -1  12   19.33    1.81
   1  -1  12   20.43    2.04
  -1   1 -12   18.00    2.05
  -1   1 -12   16.30    1.63
  -1   1 -13   11.32    1.53
   1  -1  13   13.23    1.64
   1  -1  13   13.09    1.47
   1  -1  13   10.49    1.63
  -1   1 -13   14.65    1.64
  -1   1 -13   11.82    1.48
   1  -1  13   10.91    1.47
  -1   1 -14   90.27    3.95
   1  -1  14   99.72    4.42
   1  -1  14   88.85    3.89
  -1   1 -14   94.75    4.27
   1  -1  14   92.75    4.04
   1  -1  14   98.07    4.31
  -1   1 -15   27.77    1.89
   1  -1  15   26.82    1.78
   1  -1  15   30.09    2.00
  -1   1 -15   28.91    2.01
   1   0 -15    7.00    1.04
   1   0 -15    6.45    0.93
  -1   0  15    7.33    1.06
   1   0 -15    7.76    1.05
  -1   0  15    6.85    0.93
   1   0 -14    2.65    0.75
   1   0 -14    3.55    0.82
   1   0 -14    1.88    0.61
  -1   0  14    2.20    0.71
  -1   0  14    3.33    0.78
   1   0 -14    2.21    0.66
   1   0 -13   38.17    2.92
  -1   0  13   28.68    2.38
  -1   0  13   29.46    2.26
   1   0 -13   32.40    2.40
   1   0 -13   33.07    2.45
  -1   0  13   32.50    2.65
   1   0 -12  340.97    9.63
  -1   0  12  365.72   11.85
  -1   0  12  364.46   10.84
  -1   0  12  354.05   10.47
   1   0 -12  378.53   10.55
   1   0 -12  364.69   10.47
  -1   0  12  371.62   11.14
  -1   0  12  372.49   11.25
  -1   0  11    1.88    0.70
   1   0 -11    1.25    0.46
  -1   0  11    1.59    0.72
  -1   0  11    2.13    0.70
   1   0 -11    2.22    0.66
  -1   0  11    2.27    0.68
  -1   0  11    2.00    0.75
   1   0 -11    1.82    0.59
   1   0 -11    1.77    0.61
   1   0 -11    1.43    0.57
   1   0 -10    6.15    0.88
  -1   0  10    4.86    1.08
  -1   0  10    5.63    1.04
   1   0 -10    6.59    0.99
  -1   0  10    7.14    1.17
   1   0 -10    7.45    1.06
  -1   0  10    6.81    1.19
   1   0 -10    6.54    1.00
   1   0 -10    7.56    1.15
   1   0  -9  104.23    3.75
  -1   0   9  100.58    4.44
   1   0  -9   94.52    3.78
  -1   0   9  110.38    4.49
   1   0  -9  104.01    3.31
   1   0  -9   94.21    4.09
   1   0  -9  102.22    3.90
   1   0  -9  103.18    3.96
  -1   0   9  105.98    4.62
   1   0  -9   97.61    3.89
  -1   0   9  113.55    4.96
  -1   0   8  658.17   14.84
   1   0  -8  506.10   12.99
   1   0  -8  535.48   12.68
  -1   0   8  528.20   13.60
  -1   0   8  628.77   13.92
   1   0  -8  473.67   12.22
   1   0  -8  546.43   12.69
   1   0  -8  529.00   12.77
  -1   0   8  585.22   14.01
   1   0  -8  572.96   13.29
   1   0  -8  598.22   12.26
   1   0  -7  213.51    6.03
   1   0  -7  210.53    5.37
   1   0  -7  233.75    5.76
   1   0  -7  200.26    5.55
  -1   0   7  188.09    6.23
  -1   0   7  236.16    7.03
   1   0  -7  224.28    6.32
   1   0  -6   26.95    1.29
  -1   0   6   26.51    1.84
  -1   0   5   44.97    1.13
   1   0  -5   50.53    1.90
  -1   0   5   46.68    2.22
   1   0  -4   97.64    2.86
  -1   0   4  100.08    2.68
   1   0  -3    8.89    0.56
  -1   0   3    8.95    0.58
  -1   0   3   10.15    0.59
   1   0  -3   10.10    0.67
  -1   0   3   10.34    0.63
  -1   0   3    8.93    0.55
   1   0  -2 2388.65   42.55
  -1   0   2 2398.33   42.79
  -1   0   2 2088.13   42.72
   1   0  -2 2613.20   43.02
   1   0  -1 1544.10   29.47
  -1   0   1 1534.32   29.85
  -1   0   0    1.75    0.25
   1   0   0    1.07    0.12
  -1   0   0    1.67    0.26
  -1   0   0    1.84    0.27
  -1   0  -1    1.87    0.27
  -1   0  -1    2.68    0.31
   1   0   1    2.04    0.21
   1   0   1    2.07    0.25
  -1   0  -1    1.89    0.27
   1   0   1    1.62    0.23
  -1   0  -1    1.93    0.28
  -1   0  -2  379.55    7.88
  -1   0  -2  356.95    7.84
   1   0   2  344.67    7.86
  -1   0  -2  359.82    7.87
   1   0   2  371.65    7.94
  -1   0  -2  366.92    7.83
  -1   0  -3 8793.76  176.46
  -1   0  -3 8663.67  175.80
   1   0   3 8654.94  176.10
  -1   0  -4   37.97    1.20
   1   0   4   43.03    1.70
  -1   0  -4   44.58    1.96
  -1   0  -4   39.49    1.30
   1   0   4   40.25    1.62
  -1   0  -5  372.47    8.24
  -1   0  -5  438.53    9.86
   1   0   5  427.33    9.24
   1   0   5  389.88    8.83
  -1   0  -6   37.11    2.12
   1   0   6   33.08    1.76
   1   0   6   35.53    1.62
   1   0   7   41.55    1.97
  -1   0  -7   40.38    2.40
   1   0   7   40.88    2.14
  -1   0  -7   43.50    2.67
  -1   0  -7   48.43    3.02
  -1   0  -7   43.56    2.85
   1   0   7   39.69    2.11
   1   0   7   38.79    2.11
   1   0   8  391.64    9.70
   1   0   8  375.49   10.12
  -1   0  -8  393.19   10.60
   1   0   8  354.99    9.86
   1   0   8  377.37   10.09
  -1   0  -8  429.94   11.80
  -1   0  -8  401.82   11.59
   1   0   8  363.95   10.00
   1   0   8  364.56   10.03
   1   0   9   85.65    3.93
   1   0   9   96.87    3.77
  -1   0  -9   82.85    4.01
  -1   0  -9   91.18    4.43
  -1   0  -9   79.15    4.02
   1   0   9   79.46    4.28
   1   0   9   82.32    3.76
   1   0   9   90.80    3.85
  -1   0  -9  102.32    4.98
   1   0   9   84.25    3.53
  -1   0  -9   97.65    4.79
   1   0   9   86.76    3.88
   1   0   9   93.18    3.74
   1   0  10   29.61    2.01
  -1   0 -10   27.34    2.23
  -1   0 -10   27.88    2.35
   1   0  10   28.28    2.57
  -1   0 -10   22.74    2.23
   1   0  10   22.94    1.97
   1   0  10   25.60    2.07
  -1   0 -10   29.69    2.65
   1   0  10   26.08    1.92
  -1   0 -10   29.28    2.57
   1   0  10   25.64    2.13
   1   0  10   27.96    2.12
  -1   0 -11    1.42    0.58
  -1   0 -11    1.72    0.62
  -1   0 -11    1.40    0.59
   1   0  11    0.99    0.62
   1   0  11    1.34    0.51
   1   0  11    0.42    0.55
  -1   0 -11    1.85    0.82
   1   0  11    1.55    0.52
  -1   0 -11    1.52    0.65
   1   0  11    1.16    0.54
   1   0  11    2.07    0.68
   1   0  12   26.87    2.26
  -1   0 -12   29.36    2.57
   1   0  12   25.63    2.55
  -1   0 -12   24.88    2.21
  -1   0 -12   33.17    2.63
   1   0  12   27.09    2.08
  -1   0 -12   28.25    2.48
   1   0  12   30.77    2.51
  -1   0 -12   27.25    2.19
  -1   0 -13   57.41    3.44
   1   0  13   54.58    3.20
  -1   0 -13   53.44    3.20
  -1   0 -13   49.64    3.10
   1   0  13   52.12    2.88
   1   0  13   56.80    3.40
  -1   0 -13   57.50    3.08
  -1   0 -14  111.65    4.67
   1   0  14  116.05    4.61
   1   0  14  114.28    4.60
   1   0  14  126.48    4.94
   1   0  15   -0.04    0.19
   1   0  15    0.28    0.31
  -1   0 -15    0.13    0.18
   1   1 -16   20.43    1.51
  -1  -1  16   20.27    1.54
  -1  -1  16   20.09    1.57
   1   1 -16   20.18    1.48
  -1  -1  15    0.31    0.28
  -1  -1  15    0.31    0.32
   1   1 -15    0.40    0.31
   1   1 -15   -0.06    0.27
  -1  -1  14    1.45    0.55
   1   1 -14    0.97    0.45
   1   1 -14    2.54    0.73
   1   1 -14    0.87    0.43
  -1  -1  14    1.67    0.64
  -1  -1  13    0.23    0.38
   1   1 -13    0.40    0.40
  -1  -1  13    0.37    0.35
  -1  -1  13    0.41    0.47
   1   1 -13    0.41    0.34
  -1  -1  13    0.17    0.36
  -1  -1  12   15.34    1.74
  -1  -1  12   13.69    1.68
   1   1 -12   16.47    1.68
  -1  -1  12   14.26    1.95
   1   1 -12   14.44    1.51
  -1  -1  12   18.39    1.98
   1   1 -11   30.33    2.11
  -1  -1  11   31.71    2.84
  -1  -1  11   28.97    2.35
  -1  -1  11   32.25    2.55
   1   1 -11   29.80    2.19
   1   1 -11   31.46    2.26
  -1  -1  11   31.30    2.42
  -1  -1  11   30.64    2.57
  -1  -1  11   30.80    2.55
  -1  -1  10   18.31    1.87
   1   1 -10   19.50    1.59
  -1  -1  10   26.20    2.40
  -1  -1  10   19.04    1.83
   1   1 -10   20.94    1.69
  -1  -1  10   23.53    2.10
   1   1 -10   20.49    1.71
   1   1 -10   18.82    1.62
  -1  -1  10   19.23    1.89
   1   1 -10   19.14    1.35
   1   1 -10   19.03    1.77
   1   1  -9  581.44   14.40
   1   1  -9  619.72   14.01
  -1  -1   9  577.52   14.74
   1   1  -9  560.43   13.85
  -1  -1   9  629.30   15.24
  -1  -1   9  609.68   15.19
   1   1  -9  562.56   13.90
   1   1  -9  593.39   14.13
  -1  -1   9  620.65   15.30
   1   1  -9  603.20   14.62
   1   1  -9  582.08   13.30
   1   1  -8  109.37    3.77
   1   1  -8  115.50    3.95
  -1  -1   8  116.22    4.63
  -1  -1   8  105.83    4.27
   1   1  -8  108.61    3.75
  -1  -1   8  129.11    4.78
   1   1  -8  123.36    4.30
   1   1  -8  121.40    3.60
  -1  -1   7   11.28    1.36
   1   1  -7    9.28    0.96
   1   1  -7    9.38    0.77
  -1  -1   6    2.33    0.58
   1   1  -6    3.33    0.53
   1   1  -6    3.41    0.44
  -1  -1   6    2.52    0.32
  -1  -1   5 1481.24   28.69
  -1  -1   5 1409.70   27.25
   1   1  -5 1442.69   27.88
   1   1  -5 1498.79   27.60
   1   1  -5 1488.24   27.36
  -1  -1   4   10.98    0.91
  -1  -1   4   12.05    0.79
   1   1  -4   12.13    0.89
   1   1  -4   13.36    0.76
  -1  -1   3   74.28    2.34
   1   1  -3   75.26    2.47
   1   1  -3   71.13    1.73
   1   1  -3   73.64    2.35
   1   1  -3   72.52    1.96
   1   1  -2   23.36    0.72
   1   1  -2   24.70    1.09
  -1  -1   2   22.24    1.08
   1   1  -2   26.29    0.87
  -1  -1   2   24.57    1.13
   1   1  -1  394.46    8.02
  -1  -1   1  381.33    8.23
  -1  -1   0  465.84    9.61
  -1  -1   0  459.20    9.71
   1   1   1 3417.62   72.44
  -1  -1  -1 3373.07   72.29
   1   1   2  496.76   10.74
  -1  -1  -2  489.22   10.69
   1   1   2  506.52   10.77
   1   1   2  495.50   10.34
  -1  -1  -2  479.03   10.60
  -1  -1  -3  837.96   16.97
   1   1   3  886.57   16.97
  -1  -1  -3  759.63   16.41
   1   1   3  748.51   16.29
  -1  -1  -4  606.36   13.29
   1   1   4  604.24   12.97
  -1  -1  -4  614.71   12.26
  -1  -1  -4  585.53   12.30
  -1  -1  -5 1539.33   29.61
   1   1   5 1489.56   29.01
   1   1   5 1519.52   28.27
   1   1   6  757.28   15.77
  -1  -1  -6  701.53   16.73
  -1  -1  -6  783.94   17.90
   1   1   6  733.41   16.26
   1   1   6  675.81   16.08
  -1  -1  -6  785.93   17.17
   1   1   6  712.06   16.23
   1   1   7  290.07    7.29
   1   1   7  270.02    7.60
  -1  -1  -7  264.06    7.75
  -1  -1  -7  316.69    9.47
  -1  -1  -7  308.72    9.15
   1   1   7  275.25    7.74
  -1  -1  -7  268.67    8.60
   1   1   7  262.83    7.56
  -1  -1  -7  306.15    8.53
   1   1   7  265.04    7.62
   1   1   8    1.49    0.46
   1   1   8    1.48    0.48
  -1  -1  -8    1.30    0.44
  -1  -1  -8    1.18    0.51
  -1  -1  -8    1.38    0.65
   1   1   8    1.23    0.45
   1   1   8    1.10    0.40
  -1  -1  -8    2.55    0.82
   1   1   8    1.42    0.46
  -1  -1  -8    1.33    0.55
  -1  -1  -8    0.70    0.42
   1   1   8    0.97    0.43
   1   1   9    5.31    0.90
   1   1   9    3.34    0.79
  -1  -1  -9    4.31    0.95
   1   1   9    2.80    0.82
  -1  -1  -9    3.81    0.91
   1   1   9    4.27    0.86
   1   1   9    4.64    0.85
  -1  -1  -9    5.35    1.13
  -1  -1  -9    4.19    1.03
  -1  -1  -9    4.35    0.97
   1   1   9    4.63    0.77
   1   1   9    4.16    0.85
  -1  -1  -9    2.81    0.72
   1   1  10  114.92    5.11
   1   1  10  128.15    4.73
  -1  -1 -10  128.37    5.54
  -1  -1 -10  119.58    5.20
  -1  -1 -10  117.98    5.50
   1   1  10  115.89    4.98
   1   1  10  119.01    4.87
  -1  -1 -10  133.89    6.02
   1   1  10  124.92    4.63
  -1  -1 -10  119.39    5.45
   1   1  10  124.89    5.22
   1   1  10  128.58    5.12
   1   1  11    8.96    1.29
   1   1  11   10.05    1.34
  -1  -1 -11    9.00    1.47
  -1  -1 -11    9.75    1.48
   1   1  11    8.72    1.15
  -1  -1 -11   10.78    1.52
   1   1  11    9.15    1.37
  -1  -1 -11    8.65    1.37
   1   1  12   44.87    2.83
   1   1  12   53.64    3.11
  -1  -1 -12   53.78    3.41
  -1  -1 -12   48.53    3.18
  -1  -1 -12   45.89    2.95
   1   1  12   47.71    2.69
  -1  -1 -12   49.00    3.07
  -1  -1 -13    3.95    0.85
  -1  -1 -13    4.10    0.80
   1   1  13    4.12    0.83
  -1  -1 -14    1.01    0.37
   1   1  14    0.90    0.39
  -1  -1 -14    0.46    0.30
   1   2 -17   15.92    1.03
   1   2 -16   94.59    3.64
  -1  -2  16   85.70    3.66
  -1  -2  16   90.45    3.57
   1   2 -16   85.50    3.39
   1   2 -15    9.54    1.24
   1   2 -15    9.17    1.16
   1   2 -15    8.54    1.15
  -1  -2  15    8.77    1.20
   1   2 -14    3.75    0.80
  -1  -2  14    5.24    1.18
  -1  -2  14    4.70    0.90
   1   2 -14    5.69    1.01
  -1  -2  14    3.18    0.78
   1   2 -14    4.92    0.99
  -1  -2  14    4.31    0.94
   1   2 -13  226.93    7.41
  -1  -2  13  240.32    8.90
   1   2 -13  233.01    7.39
  -1  -2  13  223.95    7.71
  -1  -2  13  229.67    7.99
   1   2 -13  240.04    7.93
  -1  -2  13  247.12    8.34
   1   2 -12   70.34    3.55
  -1  -2  12   75.63    4.52
  -1  -2  12   74.50    3.94
  -1  -2  12   72.08    4.03
   1   2 -12   73.55    3.59
   1   2 -12   74.21    3.83
   1   2 -12   69.48    3.09
  -1  -2  12   72.31    4.05
  -1  -2  11   35.54    2.71
   1   2 -11   38.86    2.18
   1   2 -11   38.56    2.43
  -1  -2  11   34.05    2.92
  -1  -2  11   39.75    2.72
  -1  -2  11   37.15    2.81
   1   2 -11   37.13    2.40
   1   2 -11   38.04    2.48
   1   2 -11   38.37    2.57
   1   2 -11   34.89    2.05
  -1  -2  10   50.70    3.40
   1   2 -10   40.93    2.61
  -1  -2  10   50.54    3.10
   1   2 -10   46.90    2.56
  -1  -2  10   48.01    3.27
   1   2 -10   43.21    2.46
  -1  -2  10   45.07    2.81
  -1  -2  10   51.90    3.23
   1   2 -10   45.09    2.55
   1   2 -10   45.93    2.65
   1   2 -10   46.13    2.25
  -1  -2   9  374.55   10.76
   1   2  -9  327.47    8.71
  -1  -2   9  305.68    9.15
   1   2  -9  319.83    8.54
  -1  -2   9  350.88    9.95
  -1  -2   9  329.58    9.55
   1   2  -9  321.25    8.60
   1   2  -9  326.79    8.83
  -1  -2   9  390.68   10.34
   1   2  -9  323.13    8.23
  -1  -2   8  685.76   16.01
  -1  -2   8  567.70   14.12
   1   2  -8  563.41   13.27
  -1  -2   8  641.07   15.02
   1   2  -8  595.85   13.61
  -1  -2   8  691.89   15.41
   1   2  -8  531.73   13.22
   1   2  -8  594.10   13.19
  -1  -2   8  581.58   14.45
  -1  -2   7  252.24    7.09
   1   2  -7  254.03    6.12
  -1  -2   7  256.97    7.89
   1   2  -6  302.94    7.31
  -1  -2   6  286.49    6.94
   1   2  -6  290.66    6.96
  -1  -2   6  257.04    8.14
   1   2  -6  277.71    7.48
  -1  -2   6  324.27    7.27
  -1  -2   5  233.71    5.95
  -1  -2   5  242.07    5.83
  -1  -2   5  223.18    6.61
   1   2  -5  245.20    6.35
   1   2  -5  238.34    5.40
  -1  -2   4  951.89   21.88
  -1  -2   4 1054.27   21.67
   1   2  -4 1115.90   21.60
  -1  -2   4  986.07   22.02
   1   2  -4 1069.84   21.24
   1   2  -4 1110.58   22.31
   1   2  -4 1116.65   22.40
  -1  -2   3    1.07    0.31
   1   2  -3    0.95    0.20
   1   2  -3    1.35    0.33
   1   2  -3    0.89    0.27
  -1  -2   3    1.16    0.28
   1   2  -2  182.25    4.36
  -1  -2   2  184.28    4.63
  -1  -2   1  719.53   15.53
   1   2  -1  715.45   14.75
   1   2  -1  761.02   15.33
  -1  -2   1  733.44   15.23
  -1  -2   0  114.22    3.29
   1   2   0  108.39    2.56
   1   2   0  110.13    3.18
   1   2   0  118.31    3.30
   1   2   0  123.20    2.47
  -1  -2   0  107.80    2.93
  -1  -2  -1  859.11   17.10
   1   2   1  754.71   15.94
   1   2   1  909.99   17.23
  -1  -2  -1  772.97   16.52
   1   2   1  857.09   16.09
  -1  -2  -2  136.69    3.61
   1   2   2  133.43    3.84
   1   2   3  397.38    8.63
  -1  -2  -3  439.30    9.70
   1   2   4   33.14    1.35
  -1  -2  -4   32.63    1.50
   1   2   5   54.19    2.05
  -1  -2  -5   59.21    2.83
  -1  -2  -5   55.78    2.88
   1   2   5   53.09    2.46
  -1  -2  -6    0.91    0.34
   1   2   6    6.40    0.85
  -1  -2  -6    0.85    0.41
   1   2   6    0.75    0.28
  -1  -2  -6    0.76    0.40
  -1  -2  -6    0.52    0.41
   1   2   6    0.56    0.29
  -1  -2  -6    8.07    1.24
  -1  -2  -6    0.85    0.42
   1   2   6    0.94    0.37
   1   2   7  351.36    9.70
  -1  -2  -7  356.88   10.04
  -1  -2  -7  393.54   11.35
  -1  -2  -7  368.31   10.43
   1   2   7  369.53    9.93
  -1  -2  -7  382.64   11.20
   1   2   7  361.28    9.82
   1   2   7  352.78    9.20
  -1  -2  -8   35.52    2.44
   1   2   8   36.93    2.43
  -1  -2  -8   33.34    2.57
   1   2   8   36.51    2.29
  -1  -2  -8   38.11    2.99
  -1  -2  -8   41.74    3.05
   1   2   8   37.66    2.51
  -1  -2  -8   41.41    2.89
   1   2   8   38.89    2.28
   1   2   8   34.25    2.61
   1   2   9   47.39    3.24
   1   2   9   52.34    3.14
  -1  -2  -9   52.37    3.04
  -1  -2  -9   55.79    3.70
  -1  -2  -9   45.85    3.20
   1   2   9   51.62    2.88
   1   2   9   49.65    3.06
  -1  -2  -9   52.52    3.56
   1   2   9   49.98    2.60
   1   2   9   46.50    2.94
  -1  -2 -10    9.26    1.49
  -1  -2 -10    7.20    1.27
   1   2  10    7.98    1.03
   1   2  10    8.46    1.28
   1   2  10    8.05    1.25
  -1  -2 -10    8.37    1.39
   1   2  10    7.20    1.10
   1   2  11    4.45    0.92
   1   2  11    5.72    0.98
  -1  -2 -11    3.49    0.95
  -1  -2 -11    4.21    0.97
   1   2  11    3.77    0.74
   1   2  11    3.50    0.89
   1   2  12    0.32    0.30
   1   2  12    1.28    0.51
  -1  -2 -12   -0.14    0.28
  -1  -2 -12    0.35    0.35
   1   2  12    0.36    0.33
   1   2  13    5.82    0.86
   1   2  13    7.96    1.15
  -1  -2 -13    9.01    1.14
  -1  -2 -14    1.24    0.41
   1   2  14    1.42    0.44
   1   2  14    1.82    0.50
   1   3 -17    3.16    0.46
   1   3 -16   53.33    2.59
   1   3 -16   48.71    2.32
  -1  -3  16   51.43    2.73
   1   3 -16   50.46    2.53
  -1  -3  16   46.06    2.41
   1   3 -15   45.58    2.60
  -1  -3  15   48.78    3.10
   1   3 -15   49.81    2.67
  -1  -3  15   52.15    3.13
   1   3 -15   50.24    2.82
  -1  -3  15   47.87    2.81
   1   3 -14   59.65    3.24
  -1  -3  14   58.45    3.75
   1   3 -14   63.94    3.31
  -1  -3  14   57.98    3.41
  -1  -3  14   61.91    3.78
   1   3 -14   67.52    3.50
  -1  -3  14   64.56    3.60
   1   3 -13   30.55    2.30
  -1  -3  13   28.11    2.70
  -1  -3  13   33.27    2.48
   1   3 -13   32.37    2.36
  -1  -3  13   28.57    2.47
   1   3 -13   32.54    2.45
  -1  -3  13   30.11    2.52
   1   3 -13   27.33    1.91
   1   3 -12   18.18    1.56
  -1  -3  12   18.14    1.94
   1   3 -12   18.09    1.76
  -1  -3  12   18.71    1.88
   1   3 -12   18.41    1.66
  -1  -3  12   19.01    2.04
   1   3 -12   15.17    1.44
   1   3 -12   18.93    1.84
  -1  -3  12   18.39    2.01
  -1  -3  12   20.39    2.29
   1   3 -11  367.47   10.65
   1   3 -11  366.52    9.83
  -1  -3  11  370.76   11.02
  -1  -3  11  362.21   11.59
  -1  -3  11  418.59   12.04
  -1  -3  11  378.19   10.82
   1   3 -11  375.15   10.02
  -1  -3  11  379.90   11.37
   1   3 -11  391.07   10.61
   1   3 -11  365.25    9.82
   1   3 -10   64.85    3.30
  -1  -3  10   66.04    3.92
  -1  -3  10   59.80    3.42
  -1  -3  10   68.66    4.20
  -1  -3  10   60.86    3.76
  -1  -3  10   66.48    3.78
  -1  -3  10   63.55    3.41
   1   3 -10   62.85    3.15
   1   3 -10   57.99    2.76
   1   3  -9   85.60    3.50
  -1  -3   9   78.06    3.81
  -1  -3   9   82.29    3.79
  -1  -3   9   84.04    4.17
   1   3  -9   81.12    3.31
   1   3  -9   80.72    3.47
   1   3  -9   81.38    3.19
  -1  -3   8   72.91    3.87
   1   3  -8   61.64    2.76
  -1  -3   8   63.84    3.21
  -1  -3   8   67.21    3.16
  -1  -3   8   67.60    3.52
   1   3  -8   61.28    2.62
   1   3  -8   63.16    2.77
   1   3  -8   62.78    2.63
  -1  -3   7  199.96    6.28
  -1  -3   7  230.89    7.08
  -1  -3   7  233.02    6.12
  -1  -3   7  199.82    6.99
   1   3  -7  214.99    5.93
  -1  -3   7  202.64    6.42
   1   3  -6 1026.66   20.60
  -1  -3   6 1113.60   21.51
  -1  -3   6  878.71   20.78
   1   3  -6  941.57   21.24
  -1  -3   6  908.36   21.79
   1   3  -6  989.24   20.20
   1   3  -5  879.96   17.79
  -1  -3   5  947.14   18.73
  -1  -3   5  716.29   18.09
   1   3  -5  894.53   17.52
  -1  -3   5  784.39   18.31
  -1  -3   5  809.30   18.23
   1   3  -4   95.22    2.92
  -1  -3   4  104.79    3.52
  -1  -3   4   93.02    3.44
   1   3  -4   99.35    3.50
  -1  -3   4   97.82    3.14
   1   3  -3  619.59   12.55
  -1  -3   3  550.36   13.43
   1   3  -3  618.53   12.76
   1   3  -3  592.95   13.29
  -1  -3   3  549.21   12.64
   1   3  -2   15.97    0.86
   1   3  -2   16.52    1.04
  -1  -3   2   17.62    1.00
   1   3  -1   94.73    2.33
  -1  -3   1   96.55    3.33
  -1  -3   1   90.97    2.48
   1   3  -1   97.17    2.94
   1   3   0   30.32    1.62
   1   3   0   26.89    1.07
  -1  -3   0   27.69    1.11
  -1  -3   0   33.87    1.81
   1   3   0   32.94    1.70
   1   3   1  292.48    7.63
   1   3   1  307.56    6.42
  -1  -3  -1  270.61    6.91
  -1  -3  -1  327.10    7.79
   1   3   1  300.90    7.76
  -1  -3  -2   39.03    1.86
   1   3   2   44.04    2.19
   1   3   2   43.72    2.09
  -1  -3  -2   42.76    2.01
   1   3   2   41.04    2.23
   1   3   3  440.98   10.77
   1   3   3  419.59   11.02
  -1  -3  -3  450.29   10.47
   1   3   4   27.98    1.82
  -1  -3  -4   29.18    2.19
   1   3   4   27.53    1.77
  -1  -3  -4   28.88    2.05
  -1  -3  -4   26.36    1.80
  -1  -3  -4   21.39    1.38
   1   3   4   27.09    2.03
   1   3   4   25.28    1.72
  -1  -3  -4   29.35    1.91
   1   3   4   28.60    1.77
   1   3   5  250.60    7.47
   1   3   5  267.44    7.54
  -1  -3  -5  260.77    7.65
  -1  -3  -5  286.86    8.26
   1   3   5  271.25    8.31
   1   3   5  260.09    7.54
   1   3   5  263.44    7.46
  -1  -3  -6  295.73    9.48
   1   3   6  305.04    8.85
   1   3   6  309.38    8.78
  -1  -3  -6  348.30   10.00
  -1  -3  -6  346.30    9.56
   1   3   6  313.29    8.71
  -1  -3  -6  303.88    8.78
   1   3   6  313.40    8.91
  -1  -3  -6  351.44    9.74
   1   3   6  307.32    8.66
   1   3   6  293.03    9.48
   1   3   7   65.66    3.87
   1   3   7   83.65    3.83
   1   3   7   75.76    3.70
  -1  -3  -7   85.27    4.31
  -1  -3  -7   75.41    4.13
  -1  -3  -7   66.50    3.73
   1   3   7   78.18    3.65
  -1  -3  -7   80.80    3.98
  -1  -3  -7   72.72    3.51
   1   3   7   76.40    3.51
  -1  -3  -7   88.38    4.35
   1   3   7   69.22    3.43
   1   3   8    3.22    0.90
  -1  -3  -8    2.39    0.71
   1   3   8    3.00    0.75
   1   3   8    2.57    0.72
   1   3   8    1.44    0.51
  -1  -3  -8    4.28    1.00
   1   3   8    2.32    0.64
   1   3   9    8.00    1.37
   1   3   9    9.86    1.41
  -1  -3  -9    9.18    1.34
  -1  -3  -9    8.55    1.32
   1   3   9    9.83    1.24
   1   3   9    8.97    1.35
  -1  -3  -9   10.40    1.67
   1   3   9    9.12    1.08
   1   3   9    9.87    1.34
   1   3   9    8.03    1.23
  -1  -3 -10  318.87   10.32
   1   3  10  303.30    8.28
   1   3  10  313.74    9.47
  -1  -3 -10  307.90    9.14
   1   3  10  298.06    9.44
  -1  -3 -10  280.27    9.17
   1   3  10  318.23    9.01
   1   3  11    2.91    0.76
   1   3  11    4.50    0.84
  -1  -3 -11    4.33    0.96
   1   3  11    3.51    0.82
   1   3  12    2.03    0.58
   1   3  12    1.98    0.64
  -1  -3 -12    1.66    0.57
  -1  -3 -13   24.17    1.73
  -1  -3 -13   28.68    1.97
   1   3  13   26.78    1.89
  -1  -3 -13   28.34    2.05
   1   3  13   22.58    1.57
  -1  -3 -14    2.02    0.43
   1   3  14    2.70    0.53
   1   4 -16   74.14    3.09
  -1  -4  16   77.52    3.43
   1   4 -16   74.47    3.08
   1   4 -16   80.21    3.20
   1   4 -15    1.72    0.53
  -1  -4  15    1.71    0.62
   1   4 -15    1.32    0.48
  -1  -4  15    1.52    0.57
  -1  -4  15    1.70    0.53
   1   4 -14  160.50    5.91
   1   4 -14  166.95    5.64
  -1  -4  14  161.65    5.98
  -1  -4  14  169.98    6.68
   1   4 -14  172.27    6.04
  -1  -4  14  171.98    6.66
  -1  -4  14  162.13    6.40
  -1  -4  14  162.84    6.09
   1   4 -13    7.21    1.06
  -1  -4  13    7.69    1.32
  -1  -4  13    6.78    1.23
  -1  -4  13    6.40    1.29
   1   4 -13    8.41    1.26
   1   4 -13    7.84    1.21
  -1  -4  13    7.46    1.34
  -1  -4  13    5.91    1.13
   1   4 -13    6.23    0.97
   1   4 -12   20.59    1.75
  -1  -4  12   17.57    1.92
  -1  -4  12   24.55    2.45
  -1  -4  12   23.97    2.41
   1   4 -12   22.09    1.87
  -1  -4  12   19.62    2.11
   1   4 -12   21.12    1.96
  -1  -4  12   18.64    2.14
   1   4 -12   21.19    2.02
   1   4 -11    0.28    0.34
  -1  -4  11    0.19    0.35
  -1  -4  11    0.39    0.39
   1   4 -11    0.78    0.40
   1   4 -11    0.84    0.46
  -1  -4  11    0.09    0.40
  -1  -4  11    1.16    0.63
  -1  -4  11    0.62    0.46
   1   4 -11    0.71    0.38
   1   4 -11    0.39    0.34
  -1  -4  11    0.46    0.46
   1   4 -11    0.62    0.36
   1   4 -10    5.73    0.97
  -1  -4  10    4.84    0.98
   1   4 -10    5.43    0.87
   1   4 -10    5.69    0.96
  -1  -4  10    6.21    1.33
  -1  -4  10    5.31    1.09
  -1  -4  10    4.50    1.01
  -1  -4  10    5.07    1.11
   1   4 -10    6.10    0.96
   1   4 -10    4.60    0.80
   1   4  -9  289.23    8.52
  -1  -4   9  320.09    9.55
   1   4  -9  320.45    8.50
  -1  -4   9  301.07    9.07
   1   4  -9  297.58    8.47
  -1  -4   9  294.24    9.51
  -1  -4   9  301.95    9.56
   1   4  -9  303.41    8.47
   1   4  -9  296.49    8.23
  -1  -4   8   85.69    3.87
   1   4  -8   88.96    3.48
  -1  -4   8   82.78    4.09
  -1  -4   8   85.88    4.06
   1   4  -8   86.31    3.50
  -1  -4   7  354.84    9.51
  -1  -4   7  375.69   10.04
   1   4  -7  368.06    9.26
  -1  -4   7  332.46    9.33
  -1  -4   7  368.39    9.91
  -1  -4   7  406.97   10.58
   1   4  -7  388.86    9.25
  -1  -4   6  224.37    6.48
   1   4  -6  245.28    6.15
  -1  -4   6  219.18    6.81
   1   4  -6  247.25    6.44
  -1  -4   6  229.91    6.93
  -1  -4   6  229.81    7.23
  -1  -4   6  242.42    7.32
   1   4  -6  242.36    6.43
   1   4  -5    9.11    0.79
   1   4  -5    7.89    1.00
   1   4  -5    7.97    1.00
  -1  -4   5    6.49    0.73
   1   4  -5    7.25    0.76
  -1  -4   5    8.40    1.08
   1   4  -4   82.13    3.37
   1   4  -4   85.83    3.41
  -1  -4   4   80.26    2.76
   1   4  -4   83.70    2.83
   1   4  -3  406.96   10.24
  -1  -4   3  401.23    9.25
   1   4  -3  411.80   10.21
   1   4  -3  428.55    9.48
  -1  -4   2   16.32    0.93
   1   4  -2   17.22    1.23
  -1  -4   2   19.06    1.67
   1   4  -2   18.73    1.07
   1   4  -1   71.34    2.88
   1   4  -1   66.52    2.91
   1   4   0  125.64    4.22
  -1  -4   0  136.82    4.81
   1   4   0  123.25    3.36
  -1  -4   0  106.80    3.27
   1   4   0  117.29    4.20
   1   4   1  551.84   13.75
  -1  -4  -1  576.70   12.88
   1   4   1  524.71   13.54
   1   4   1  595.49   13.57
  -1  -4  -2   58.53    2.75
  -1  -4  -2   58.56    3.25
  -1  -4  -2   58.57    2.98
   1   4   2   53.03    2.88
  -1  -4  -2   49.41    2.60
  -1  -4  -2   59.84    2.61
   1   4   2   47.59    2.66
   1   4   2   51.73    2.59
  -1  -4  -3  115.23    5.04
  -1  -4  -3  106.84    4.68
  -1  -4  -3   94.19    4.12
  -1  -4  -3   89.36    3.85
   1   4   3  104.53    4.15
   1   4   3   97.86    4.20
  -1  -4  -3  115.03    4.19
   1   4   3  104.72    3.98
  -1  -4  -3  105.21    3.86
  -1  -4  -4  195.18    6.88
  -1  -4  -4  178.06    6.21
   1   4   4  186.46    6.75
   1   4   4  171.75    6.02
  -1  -4  -4  208.00    6.51
   1   4   4  172.38    5.82
   1   4   4  181.21    6.12
  -1  -4  -4  225.86    7.62
   1   4   4  180.65    6.03
   1   4   5   16.49    1.55
  -1  -4  -5   17.03    1.67
  -1  -4  -5   19.24    1.96
   1   4   5   16.79    1.86
   1   4   5   14.57    1.53
  -1  -4  -5   19.31    1.87
   1   4   5   15.40    1.48
  -1  -4  -5   20.19    2.15
   1   4   5   17.18    1.61
   1   4   5   14.81    1.54
  -1  -4  -6   26.85    2.15
  -1  -4  -6   29.61    2.52
   1   4   6   24.79    2.09
   1   4   6   25.49    2.07
   1   4   6   27.10    2.16
  -1  -4  -6   26.68    2.36
   1   4   6   26.77    2.02
   1   4   6   25.92    2.43
   1   4   7   37.08    2.99
  -1  -4  -7   31.31    2.36
  -1  -4  -7   32.90    2.66
   1   4   7   34.82    2.56
   1   4   7   32.80    2.51
  -1  -4  -7   35.96    2.94
  -1  -4  -7   42.05    3.49
   1   4   7   34.69    2.37
  -1  -4  -7   40.00    3.01
   1   4   7   33.17    2.37
  -1  -4  -8  446.31   12.73
   1   4   8  419.42   12.39
   1   4   8  459.44   11.77
  -1  -4  -8  492.04   14.27
   1   4   8  434.00   11.98
  -1  -4  -8  474.76   13.27
   1   4   8  422.52   11.98
   1   4   9    4.32    0.96
   1   4   9    3.39    0.75
  -1  -4  -9    2.78    0.79
   1   4   9    3.33    0.81
   1   4  10    8.33    1.27
   1   4  10    5.96    0.93
   1   4  10    6.72    1.12
  -1  -4 -10    7.14    1.11
  -1  -4 -11    1.74    0.62
  -1  -4 -11    1.89    0.68
   1   4  11    1.90    0.59
   1   4  11    2.05    0.60
  -1  -4 -11    1.48    0.58
  -1  -4 -12    1.18    0.43
  -1  -4 -12    1.21    0.48
   1   4  12    0.74    0.37
   1   4  12    1.05    0.48
   1   4  12    0.77    0.34
  -1  -4 -13   33.62    1.84
   1   4  13   33.14    1.91
   1   5 -16    5.21    0.71
  -1  -5  16    4.80    0.78
   1   5 -16    6.02    0.80
  -1  -5  15   21.45    1.68
   1   5 -15   23.32    1.70
  -1  -5  15   24.35    2.01
  -1  -5  15   20.61    1.63
  -1  -5  14    9.72    1.39
  -1  -5  14    9.98    1.36
   1   5 -14    9.24    1.23
  -1  -5  14    9.22    1.23
   1   5 -14    8.99    1.16
  -1  -5  14   10.01    1.43
  -1  -5  14    9.79    1.43
   1   5 -14    9.23    1.24
   1   5 -13   32.46    2.42
  -1  -5  13   31.72    2.47
   1   5 -13   32.90    2.27
  -1  -5  13   34.10    2.80
  -1  -5  13   33.63    2.76
   1   5 -13   33.87    2.40
  -1  -5  13   34.64    2.77
  -1  -5  13   34.04    2.91
   1   5 -13   37.43    2.63
   1   5 -12  122.68    5.22
  -1  -5  12  123.28    5.39
   1   5 -12  115.56    4.85
  -1  -5  12  139.26    6.35
  -1  -5  12  126.86    5.83
   1   5 -12  133.74    5.23
  -1  -5  12  131.53    5.92
  -1  -5  12  146.72    6.64
   1   5 -12  135.48    5.52
  -1  -5  12  145.41    6.28
   1   5 -11  225.74    7.59
  -1  -5  11  229.81    7.88
   1   5 -11  217.51    7.21
  -1  -5  11  242.45    9.20
  -1  -5  11  237.51    8.46
   1   5 -11  244.13    7.57
  -1  -5  11  230.51    8.37
   1   5 -11  227.14    7.67
   1   5 -10    2.79    0.72
   1   5 -10    2.89    0.73
  -1  -5  10    3.53    0.86
   1   5 -10    3.61    0.80
  -1  -5  10    4.63    1.03
  -1  -5  10    2.62    0.95
   1   5 -10    2.22    0.65
  -1  -5  10    2.81    0.87
   1   5 -10    2.74    0.68
   1   5  -9   93.00    4.04
  -1  -5   9   87.99    4.24
  -1  -5   9  108.64    5.93
  -1  -5   9  104.63    4.85
  -1  -5   9   86.81    4.52
   1   5  -9   93.84    4.09
  -1  -5   8   70.94    3.38
  -1  -5   8   62.48    3.17
   1   5  -8   75.82    3.37
   1   5  -8   71.48    3.29
  -1  -5   8   69.99    3.57
  -1  -5   8   77.82    4.94
  -1  -5   8   68.68    3.80
  -1  -5   8   72.62    3.99
   1   5  -8   74.54    3.32
   1   5  -7  140.74    5.18
   1   5  -7  159.22    5.07
  -1  -5   7  135.70    5.18
  -1  -5   7  138.76    5.50
  -1  -5   7  174.56    6.59
   1   5  -7  140.90    4.86
  -1  -5   7  128.71    5.03
   1   5  -7  155.76    4.97
  -1  -5   7  122.08    4.87
   1   5  -6  173.67    5.13
   1   5  -6  182.29    6.02
   1   5  -6  175.04    5.47
  -1  -5   6  166.59    5.80
  -1  -5   6  166.41    6.04
  -1  -5   6  189.74    7.01
  -1  -5   6  209.50    7.45
  -1  -5   6  184.79    6.62
   1   5  -6  177.27    5.47
  -1  -5   6  159.42    5.87
  -1  -5   6  159.99    5.90
   1   5  -6  180.81    5.37
   1   5  -5  103.55    4.26
   1   5  -5  100.33    3.52
   1   5  -5  104.29    4.34
   1   5  -5  116.56    3.91
  -1  -5   5   98.34    4.22
  -1  -5   5   98.66    4.63
   1   5  -5  107.52    3.77
  -1  -5   5  111.98    4.95
  -1  -5   5   99.37    4.49
  -1  -5   5  100.38    4.52
   1   5  -4  178.83    6.03
   1   5  -4  192.64    6.14
   1   5  -4  189.86    5.42
  -1  -5   4  213.29    7.25
  -1  -5   4  165.24    5.85
  -1  -5   4  171.44    6.24
  -1  -5   4  201.40    6.99
   1   5  -4  181.37    5.35
  -1  -5   4  197.52    6.87
  -1  -5   3  309.84    9.03
  -1  -5   3  314.07    9.08
  -1  -5   3  253.60    8.01
   1   5  -3  265.24    7.86
   1   5  -2  508.90   12.05
  -1  -5   2  504.89   13.32
  -1  -5   2  523.32   13.30
   1   5  -2  470.63   12.49
   1   5  -2  508.90   12.18
   1   5  -1  174.85    5.69
  -1  -5   1  195.80    6.77
  -1  -5   1  182.73    6.21
   1   5  -1  186.28    5.60
  -1  -5   1  163.41    5.78
   1   5  -1  183.66    6.10
   1   5  -1  185.30    5.14
   1   5  -1  180.23    5.68
   1   5   0   66.73    3.24
   1   5   0   75.64    3.21
   1   5   0   72.13    3.13
  -1  -5   0   75.71    4.03
  -1  -5   0   72.80    3.80
   1   5   0   67.45    2.97
  -1  -5   0   66.26    3.31
  -1  -5   0   66.36    3.39
   1   5   0   66.00    3.34
   1   5   1  229.30    7.33
  -1  -5  -1  250.70    8.44
  -1  -5  -1  233.00    8.04
  -1  -5  -1  254.99    7.88
   1   5   1  238.02    6.94
  -1  -5  -1  258.86    7.92
   1   5   1  223.10    6.63
   1   5   1  231.68    7.44
   1   5   1  244.30    7.19
  -1  -5  -1  212.83    7.17
  -1  -5  -2   20.30    1.80
  -1  -5  -2   22.23    1.88
   1   5   2   18.85    1.58
  -1  -5  -2   22.04    2.26
  -1  -5  -2   22.03    2.25
  -1  -5  -2   22.63    2.06
  -1  -5  -2   17.88    1.70
   1   5   2   20.20    1.86
   1   5   2   17.77    1.60
  -1  -5  -3  242.70    7.10
   1   5   3  215.71    6.63
  -1  -5  -3  271.20    8.97
  -1  -5  -3  226.72    7.60
   1   5   3  225.15    7.32
   1   5   3  196.96    7.27
  -1  -5  -3  196.51    6.90
   1   5   3  213.00    6.85
  -1  -5  -3  198.57    7.07
   1   5   4   17.81    1.97
  -1  -5  -4   15.06    1.71
  -1  -5  -4   18.90    1.91
  -1  -5  -4   21.59    2.29
   1   5   4   20.28    1.84
   1   5   4   19.22    1.84
  -1  -5  -4   21.55    2.37
  -1  -5  -4   17.14    1.85
   1   5   4   18.51    1.82
   1   5   4   17.08    1.62
   1   5   5  142.23    6.19
   1   5   5  143.14    5.49
  -1  -5  -5  167.24    6.75
  -1  -5  -5  146.63    5.87
  -1  -5  -5  131.97    5.83
   1   5   5  144.29    5.66
   1   5   5  145.84    5.78
  -1  -5  -5  171.64    7.13
   1   5   5  142.95    5.76
   1   5   5  139.51    5.34
  -1  -5  -5  128.01    5.80
  -1  -5  -6  104.79    5.22
   1   5   6  109.49    5.36
  -1  -5  -6  113.62    5.49
  -1  -5  -6   97.23    4.69
   1   5   6  106.81    4.68
  -1  -5  -6  123.20    6.18
  -1  -5  -6   95.45    4.98
   1   5   6  109.21    4.91
   1   5   6  110.22    4.99
  -1  -5  -6  124.73    5.99
   1   5   6  116.71    4.66
   1   5   6  111.07    4.65
  -1  -5  -7  319.75   10.21
  -1  -5  -7  295.54    9.21
   1   5   7  304.30    9.37
  -1  -5  -7  333.76   11.16
  -1  -5  -7  295.21    9.96
   1   5   7  298.34    9.58
   1   5   7  298.24    8.97
  -1  -5  -7  294.32   10.05
  -1  -5  -8   41.13    3.01
   1   5   8   43.50    2.96
  -1  -5  -8   43.27    3.39
  -1  -5  -8   42.46    3.18
   1   5   8   39.90    2.90
   1   5   8   40.69    2.46
   1   5   8   45.63    2.80
  -1  -5  -8   39.11    3.08
  -1  -5  -9   24.26    2.12
  -1  -5  -9   22.92    2.28
  -1  -5  -9   23.21    2.28
   1   5   9   23.29    2.13
   1   5   9   22.37    1.92
   1   5   9   22.66    2.29
  -1  -5  -9   23.67    2.32
  -1  -5 -10    1.91    0.58
  -1  -5 -10    1.78    0.62
   1   5  10    2.31    0.61
  -1  -5 -10    2.08    0.65
   1   5  10    1.41    0.60
   1   5  10    2.04    0.62
   1   5  11   30.05    1.99
  -1  -5 -11   33.26    2.16
   1   5  11   34.64    2.34
   1   5  12    4.56    0.70
  -1  -6  15    0.40    0.29
   1   6 -15    0.25    0.30
  -1  -6  15    0.39    0.30
  -1  -6  15    0.78    0.38
   1   6 -15    0.29    0.23
  -1  -6  14   11.59    1.47
  -1  -6  14   10.82    1.45
  -1  -6  14   10.71    1.38
   1   6 -14   10.93    1.29
   1   6 -14   10.82    1.30
   1   6 -13   70.07    3.56
  -1  -6  13   79.42    4.36
  -1  -6  13   81.14    4.15
   1   6 -13   82.52    3.96
  -1  -6  13   80.17    4.26
  -1  -6  13   81.69    4.53
  -1  -6  13   90.67    4.50
   1   6 -13   85.13    4.08
   1   6 -12    2.11    0.67
  -1  -6  12    1.29    0.55
  -1  -6  12    1.44    0.61
  -1  -6  12    1.63    0.76
   1   6 -12    2.15    0.68
  -1  -6  12    1.45    0.72
   1   6 -12    1.59    0.50
  -1  -6  12    1.68    0.67
   1   6 -12    2.01    0.67
  -1  -6  12    1.11    0.61
  -1  -6  11    3.15    0.79
  -1  -6  11    1.02    0.71
  -1  -6  11    1.74    0.71
   1   6 -11    2.09    0.69
  -1  -6  11    2.21    0.87
   1   6 -11    2.10    0.58
  -1  -6  11    2.45    0.78
   1   6 -11    2.88    0.79
  -1  -6  10    5.17    1.01
  -1  -6  10    3.64    1.10
  -1  -6  10    4.08    0.98
  -1  -6  10    5.20    1.10
   1   6 -10    4.41    0.93
   1   6 -10    4.04    0.88
   1   6  -9   45.69    2.80
  -1  -6   9   43.13    3.11
   1   6  -9   44.48    2.75
   1   6  -8  498.75   12.66
  -1  -6   8  425.76   12.26
  -1  -6   8  429.25   12.47
   1   6  -8  500.13   12.56
  -1  -6   8  518.72   15.38
  -1  -6   8  522.76   14.10
  -1  -6   8  492.65   13.48
  -1  -6   8  546.41   14.97
  -1  -6   8  481.27   12.52
  -1  -6   7   70.24    3.44
   1   6  -7   79.57    3.58
  -1  -6   7   62.16    3.50
   1   6  -7   81.93    3.50
  -1  -6   7   65.72    3.66
   1   6  -7   69.30    3.55
  -1  -6   7   76.78    4.81
  -1  -6   7   80.42    4.25
  -1  -6   7   79.23    4.50
  -1  -6   7   81.25    4.65
  -1  -6   7   70.42    3.87
  -1  -6   7   69.18    3.91
  -1  -6   6    1.03    0.41
   1   6  -6    0.65    0.36
   1   6  -6    0.45    0.27
  -1  -6   6    1.00    0.53
  -1  -6   6    0.94    0.47
   1   6  -6    0.85    0.39
  -1  -6   6    0.86    0.54
  -1  -6   6    0.37    0.40
  -1  -6   6    0.89    0.58
  -1  -6   6    0.94    0.45
  -1  -6   6    1.10    0.61
  -1  -6   6    1.05    0.59
   1   6  -5    0.58    0.29
   1   6  -5    0.19    0.28
   1   6  -5    0.54    0.34
  -1  -6   5    0.50    0.42
  -1  -6   5    1.07    0.64
  -1  -6   5    1.54    0.64
  -1  -6   5    1.18    0.54
  -1  -6   5    1.54    0.61
   1   6  -4   64.55    3.37
  -1  -6   4   58.72    3.47
   1   6  -4   63.76    2.88
  -1  -6   4   70.93    4.11
  -1  -6   4   56.50    3.42
  -1  -6   4   70.83    4.09
   1   6  -4   59.45    2.92
  -1  -6   4   71.94    4.11
   1   6  -4   61.10    3.18
   1   6  -3  206.54    7.17
   1   6  -3  207.15    7.06
  -1  -6   3  246.17    8.22
  -1  -6   3  246.95    8.37
   1   6  -3  246.02    7.17
  -1  -6   3  207.01    7.35
   1   6  -3  230.87    6.69
  -1  -6   3  254.04    8.46
   1   6  -3  223.27    7.54
   1   6  -3  231.95    7.18
   1   6  -2    1.67    0.60
  -1  -6   2    1.89    0.65
  -1  -6   2    2.39    0.79
  -1  -6   2    1.35    0.54
   1   6  -2    2.65    0.63
   1   6  -2    2.15    0.65
   1   6  -2    2.31    0.61
  -1  -6   2    2.63    0.87
   1   6  -1   61.77    3.18
  -1  -6   1   73.36    4.27
   1   6  -1   65.87    3.28
   1   6  -1   59.55    3.16
  -1  -6   1   66.59    3.95
  -1  -6   1   66.46    4.00
  -1  -6   1   61.00    3.52
   1   6  -1   64.82    3.17
  -1  -6   1   62.57    3.66
   1   6  -1   59.97    3.46
   1   6   0   33.49    2.40
  -1  -6   0   39.29    3.12
  -1  -6   0   45.12    3.22
  -1  -6   0   44.72    3.22
   1   6   0   37.93    2.43
   1   6   0   32.38    2.26
  -1  -6   0   45.89    3.26
  -1  -6   0   36.66    2.56
  -1  -6   0   29.77    2.40
   1   6   0   35.00    2.28
  -1  -6   0   32.19    2.53
   1   6   0   33.24    2.54
   1   6   0   33.03    2.32
   1   6   1  101.94    4.59
  -1  -6  -1  123.08    5.85
   1   6   1   97.59    4.21
  -1  -6  -1  118.00    5.26
  -1  -6  -1  111.53    5.03
  -1  -6  -1   95.15    4.47
  -1  -6  -1   76.02    4.58
  -1  -6  -1   92.24    4.83
   1   6   1   81.95    4.15
  -1  -6  -1   95.64    4.55
   1   6   1   94.26    4.61
   1   6   1   97.54    4.27
  -1  -6  -2    6.13    1.34
  -1  -6  -2    6.75    1.29
  -1  -6  -2    6.59    1.16
   1   6   2    7.50    1.11
  -1  -6  -2    6.68    1.15
  -1  -6  -2    3.93    0.91
  -1  -6  -2    3.96    0.95
  -1  -6  -2    5.33    1.23
   1   6   2    4.15    0.95
  -1  -6  -2    4.22    0.90
  -1  -6  -2    4.40    0.96
   1   6   2    7.25    1.22
   1   6   2    3.55    0.93
   1   6   2    5.40    0.96
   1   6   3  367.38   11.27
  -1  -6  -3  402.37   11.67
  -1  -6  -3  315.42   10.55
  -1  -6  -3  334.65   10.77
   1   6   3  404.50   11.28
  -1  -6  -3  460.29   13.04
   1   6   3  360.18   11.06
  -1  -6  -3  356.79   10.94
   1   6   3  384.37   11.12
   1   6   3  362.54   10.30
   1   6   4    0.09    0.39
  -1  -6  -4    0.11    0.41
  -1  -6  -4    0.09    0.38
   1   6   4    0.67    0.43
  -1  -6  -4    0.09    0.28
  -1  -6  -4    0.09    0.29
  -1  -6  -4   -0.11    0.55
   1   6   4   -0.08    0.32
  -1  -6  -4    0.09    0.30
   1   6   4    0.36    0.41
   1   6   4    0.49    0.39
  -1  -6  -5  197.98    7.33
  -1  -6  -5  211.89    8.25
   1   6   5  199.09    6.83
  -1  -6  -5  186.35    7.67
  -1  -6  -5  186.04    7.35
   1   6   5  190.07    7.18
   1   6   5  184.43    7.13
   1   6   5  187.34    6.57
   1   6   5  187.53    7.57
  -1  -6  -5  179.82    7.28
  -1  -6  -6    3.41    0.87
  -1  -6  -6    3.69    1.05
   1   6   6    4.41    0.94
  -1  -6  -6    4.04    1.09
  -1  -6  -6    3.13    0.90
   1   6   6    4.04    0.95
   1   6   6    4.15    1.01
   1   6   6    4.84    0.90
   1   6   6    3.37    1.02
  -1  -6  -6    3.54    0.97
  -1  -6  -7    6.39    1.10
   1   6   7    7.57    1.23
  -1  -6  -7    7.36    1.32
  -1  -6  -7    7.56    1.37
  -1  -6  -7    7.00    1.31
   1   6   7    9.45    1.40
   1   6   7    7.30    1.08
   1   6   7    7.35    1.37
  -1  -6  -7    7.00    1.29
  -1  -6  -8   37.32    2.74
  -1  -6  -8   38.29    2.87
  -1  -6  -8   42.77    3.03
   1   6   8   40.95    2.83
   1   6   8   37.21    2.39
   1   6   8   41.14    3.04
  -1  -6  -8   38.47    2.86
  -1  -6  -9    0.92    0.47
  -1  -6  -9    1.14    0.53
   1   6   9    0.69    0.40
  -1  -6  -9    1.02    0.47
   1   6   9    0.58    0.41
   1   6  10    5.74    0.86
  -1  -6 -10    7.29    1.03
   1   6  10    6.81    1.01
  -1  -6 -10    6.05    0.90
  -1  -6 -11   25.22    1.58
   1   6  11   24.04    1.53
  -1  -7  15   30.51    1.88
   1   7 -15   28.26    1.70
   1   7 -15   30.85    1.83
   1   7 -14   83.76    3.58
  -1  -7  14   70.43    3.57
  -1  -7  14   80.30    3.65
  -1  -7  14   74.87    3.55
  -1  -7  14   70.66    3.68
   1   7 -14   73.12    3.35
  -1  -7  13    1.53    0.66
   1   7 -13    3.06    0.75
  -1  -7  13    2.16    0.69
  -1  -7  13    2.24    0.73
  -1  -7  13    2.22    0.68
   1   7 -13    1.68    0.56
   1   7 -13    1.84    0.55
  -1  -7  12   81.02    4.57
  -1  -7  12   79.73    4.05
  -1  -7  12   88.18    4.81
   1   7 -12   84.13    4.08
  -1  -7  12   82.54    4.27
   1   7 -12   74.31    3.41
  -1  -7  12   80.40    4.57
   1   7 -12   80.78    3.95
   1   7 -12   72.85    3.73
   1   7 -11   68.15    3.72
   1   7 -11   70.20    3.70
   1   7 -11   65.45    3.61
  -1  -7  11   65.62    3.78
   1   7 -11   65.84    3.38
  -1  -7  11   66.83    3.93
   1   7 -11   72.07    3.79
  -1  -7  11   76.39    4.83
   1   7 -10  127.00    5.24
   1   7 -10  125.92    5.32
  -1  -7  10  124.32    5.53
  -1  -7  10  121.58    5.61
   1   7 -10  130.71    5.20
  -1  -7  10  125.91    6.29
   1   7 -10  129.73    5.31
   1   7  -9   43.55    2.78
  -1  -7   9   36.50    2.51
   1   7  -9   41.86    2.83
  -1  -7   9   47.87    3.76
  -1  -7   9   40.72    2.96
   1   7  -9   50.86    3.05
  -1  -7   9   38.64    2.97
  -1  -7   9   41.62    3.44
   1   7  -9   44.32    3.06
  -1  -7   8    0.71    0.42
   1   7  -8    0.28    0.41
  -1  -7   8    1.02    0.48
  -1  -7   8    0.87    0.48
  -1  -7   8    0.47    0.61
  -1  -7   8    0.70    0.51
  -1  -7   8    0.22    0.44
   1   7  -8    0.15    0.36
  -1  -7   8    0.66    0.49
  -1  -7   8    0.71    0.45
   1   7  -8    0.39    0.37
  -1  -7   7   34.67    2.45
   1   7  -7   41.39    2.69
   1   7  -7   35.16    2.67
  -1  -7   7   39.68    2.96
  -1  -7   7   34.11    2.69
   1   7  -7   35.69    2.54
  -1  -7   7   37.15    3.07
  -1  -7   7   37.14    3.26
   1   7  -7   39.06    2.71
  -1  -7   7   37.20    3.11
  -1  -7   7   35.01    3.06
  -1  -7   7   37.19    2.91
   1   7  -7   37.33    2.69
  -1  -7   6   34.83    2.43
   1   7  -6   36.04    2.46
  -1  -7   6   41.06    3.07
  -1  -7   6   37.39    3.00
   1   7  -6   39.25    2.80
   1   7  -6   37.03    2.30
   1   7  -6   33.75    2.49
  -1  -7   6   40.33    3.34
  -1  -7   6   31.16    2.88
  -1  -7   6   39.90    3.25
   1   7  -6   38.76    2.69
  -1  -7   6   41.07    3.21
  -1  -7   6   40.57    3.14
   1   7  -6   40.16    2.69
  -1  -7   5  282.74    8.69
   1   7  -5  303.74    8.68
  -1  -7   5  283.84    9.15
  -1  -7   5  312.19   10.29
  -1  -7   5  322.18   10.51
   1   7  -5  302.55    9.29
   1   7  -5  293.45    8.38
   1   7  -5  295.67    9.45
   1   7  -5  299.08    9.15
  -1  -7   5  249.02    9.19
  -1  -7   5  345.10   11.35
  -1  -7   5  333.10   10.80
   1   7  -5  298.46    9.09
  -1  -7   5  287.53    9.85
  -1  -7   5  312.31   10.36
   1   7  -5  295.46    8.84
   1   7  -5  296.73    9.80
  -1  -7   4  124.48    4.99
  -1  -7   4  105.05    4.53
   1   7  -4  121.28    4.97
  -1  -7   4  108.05    5.20
   1   7  -4  108.29    4.82
   1   7  -4  104.02    4.23
   1   7  -4  109.99    5.04
   1   7  -4  112.30    4.86
  -1  -7   4  121.51    6.36
  -1  -7   4  124.69    5.95
   1   7  -4  116.26    4.86
  -1  -7   4   99.83    5.03
  -1  -7   4  116.53    5.76
   1   7  -4  117.40    5.39
   1   7  -4  105.05    4.43
  -1  -7   3  177.30    6.14
  -1  -7   3  137.50    6.54
   1   7  -3  175.25    6.33
  -1  -7   3  175.15    7.14
  -1  -7   3  196.25    7.90
   1   7  -3  178.98    6.30
  -1  -7   3  209.70    8.16
   1   7  -3  169.17    6.29
   1   7  -3  151.76    6.20
   1   7  -3  159.66    6.14
  -1  -7   3  182.17    8.17
   1   7  -3  167.86    6.16
  -1  -7   3  157.27    6.42
  -1  -7   3  189.48    7.46
   1   7  -3  151.11    6.51
  -1  -7   2  135.95    5.20
   1   7  -2  138.61    5.57
  -1  -7   2  151.71    6.64
  -1  -7   2  127.29    5.77
  -1  -7   2  164.15    7.14
  -1  -7   2  161.28    7.14
   1   7  -2  150.40    5.65
   1   7  -2  136.90    5.53
   1   7  -2  118.95    5.37
   1   7  -2  122.21    5.26
  -1  -7   2  132.88    6.95
  -1  -7   2  137.04    6.15
   1   7  -2  138.46    5.42
   1   7  -2  142.86    6.09
   1   7  -1   77.84    3.97
  -1  -7   1   72.66    3.50
  -1  -7   1   71.78    4.34
  -1  -7   1   81.40    4.75
  -1  -7   1   85.16    4.90
  -1  -7   1   91.90    5.10
   1   7  -1   70.29    3.70
   1   7  -1   71.66    3.73
   1   7  -1   58.37    3.59
  -1  -7   1   63.46    4.64
   1   7  -1   68.83    3.62
  -1  -7   1   66.29    4.00
   1   7  -1   73.56    4.21
   1   7  -1   61.06    3.45
  -1  -7   1   74.34    4.31
   1   7   0   69.05    3.77
  -1  -7   0   75.68    4.61
  -1  -7   0   74.07    4.60
  -1  -7   0   82.52    4.65
  -1  -7   0   70.80    4.46
   1   7   0   68.14    3.67
   1   7   0   57.82    3.29
  -1  -7   0   67.37    3.84
  -1  -7   0   55.72    4.19
   1   7   0   63.98    3.68
  -1  -7   0   64.47    3.78
  -1  -7   0   60.08    3.15
  -1  -7   0   66.46    4.03
   1   7   0   64.57    3.99
   1   7   0   64.81    3.51
   1   7   1   42.05    2.98
  -1  -7  -1   41.31    3.50
  -1  -7  -1   45.51    3.26
  -1  -7  -1   46.10    3.40
   1   7   1   45.75    2.95
  -1  -7  -1   39.89    2.94
  -1  -7  -1   31.42    3.01
  -1  -7  -1   30.35    2.67
   1   7   1   41.38    2.96
  -1  -7  -1   36.92    2.86
  -1  -7  -1   38.86    2.99
   1   7   1   38.48    2.94
   1   7   1   40.35    3.15
   1   7   1   36.87    2.58
  -1  -7  -2  117.62    5.82
  -1  -7  -2  128.04    6.41
  -1  -7  -2  119.92    5.21
  -1  -7  -2  102.59    5.36
   1   7   2  115.52    5.07
  -1  -7  -2  117.51    5.39
  -1  -7  -2   91.95    4.98
   1   7   2  105.25    5.15
  -1  -7  -2  111.02    5.24
  -1  -7  -2  107.08    5.14
   1   7   2  114.54    5.33
   1   7   2  106.10    5.44
   1   7   2  104.30    4.59
  -1  -7  -3   42.82    3.57
  -1  -7  -3   36.51    3.03
   1   7   3   32.17    2.44
   1   7   3   34.01    2.42
  -1  -7  -3   33.30    2.79
  -1  -7  -3   30.62    2.88
   1   7   3   35.38    2.67
   1   7   3   31.59    2.76
  -1  -7  -3   36.61    2.90
   1   7   3   34.99    2.80
   1   7   3   35.20    2.47
  -1  -7  -4    7.20    1.32
   1   7   4    5.84    1.01
  -1  -7  -4    5.44    1.07
  -1  -7  -4    7.67    1.36
   1   7   4    5.80    1.14
   1   7   4    6.18    1.18
   1   7   4    6.51    1.22
   1   7   4    6.96    1.33
  -1  -7  -4    9.89    1.50
  -1  -7  -5  143.80    6.48
  -1  -7  -5  129.07    5.65
   1   7   5  126.77    5.09
  -1  -7  -5  126.53    5.76
   1   7   5  133.18    5.66
   1   7   5  122.53    4.73
   1   7   5  137.69    6.03
  -1  -7  -5  138.35    5.90
   1   7   6   71.16    3.62
  -1  -7  -6   82.43    4.51
  -1  -7  -6   74.55    3.87
  -1  -7  -6   67.82    3.74
   1   7   6   78.67    4.09
  -1  -7  -6   73.93    4.14
   1   7   6   77.25    3.43
   1   7   6   74.20    4.23
  -1  -7  -6   79.30    4.20
   1   7   7   64.76    3.53
  -1  -7  -7   71.91    3.82
  -1  -7  -7   69.18    3.77
   1   7   7   63.84    3.67
   1   7   8   31.60    2.21
  -1  -7  -8   30.68    2.22
   1   7   8   34.75    2.42
  -1  -7  -8   35.36    2.42
   1   7   9    0.39    0.29
  -1  -7  -9    0.44    0.30
   1   8 -15    6.01    0.67
  -1  -8  14   27.63    1.92
   1   8 -14   28.05    1.81
  -1  -8  14   27.98    2.00
  -1  -8  14   29.75    1.97
  -1  -8  13    2.00    0.66
   1   8 -13    2.29    0.56
   1   8 -13    2.02    0.53
   1   8 -13    2.12    0.57
  -1  -8  13    1.76    0.63
   1   8 -12    7.00    1.03
   1   8 -12    7.78    1.13
  -1  -8  12    7.20    1.30
   1   8 -12    8.04    1.14
  -1  -8  11   48.69    3.39
   1   8 -11   52.93    2.98
   1   8 -11   50.20    3.13
   1   8 -11   47.31    2.81
  -1  -8  11   50.97    3.51
   1   8 -11   55.28    3.15
  -1  -8  11   58.50    3.99
  -1  -8  10    4.03    1.04
  -1  -8  10    5.48    1.04
   1   8 -10    4.27    0.79
   1   8 -10    5.18    1.05
  -1  -8  10    3.78    1.08
   1   8 -10    4.44    0.92
   1   8 -10    4.90    0.96
  -1  -8  10    5.21    1.32
  -1  -8   9  451.16   13.65
  -1  -8   9  488.41   13.00
   1   8  -9  450.18   12.04
  -1  -8   9  419.45   11.98
  -1  -8   9  428.34   12.58
   1   8  -9  482.83   12.81
  -1  -8   9  467.95   13.95
   1   8  -9  460.05   12.35
  -1  -8   8  122.99    5.45
  -1  -8   8  124.80    6.05
  -1  -8   8  134.15    6.02
  -1  -8   8  127.39    5.48
   1   8  -8  136.02    5.93
   1   8  -8  130.08    5.28
  -1  -8   8  132.60    5.97
   1   8  -8  134.41    5.65
  -1  -8   8  130.29    6.34
   1   8  -8  141.83    5.65
  -1  -8   8  125.05    5.09
  -1  -8   8  148.87    7.34
  -1  -8   7   38.94    3.03
  -1  -8   7   34.68    2.97
  -1  -8   7   43.67    3.41
   1   8  -7   44.09    3.11
  -1  -8   7   37.30    2.92
   1   8  -7   40.01    2.76
  -1  -8   7   37.89    3.14
  -1  -8   7   40.12    3.31
  -1  -8   7   36.07    2.53
  -1  -8   7   37.61    3.59
  -1  -8   6   20.88    2.32
   1   8  -6   23.13    2.14
   1   8  -6   18.00    2.19
  -1  -8   6   18.93    2.18
   1   8  -6   21.07    2.02
   1   8  -6   19.25    2.06
  -1  -8   6   22.12    2.41
  -1  -8   6   16.78    1.97
  -1  -8   6   24.70    2.71
  -1  -8   6   19.93    2.33
   1   8  -6   19.34    2.01
  -1  -8   6   20.94    2.34
  -1  -8   6   19.98    1.86
  -1  -8   6   20.50    2.64
  -1  -8   5   84.55    4.13
  -1  -8   5   95.35    5.55
  -1  -8   5   86.27    4.42
  -1  -8   5   99.00    5.30
  -1  -8   5   98.66    5.40
   1   8  -5   97.80    4.59
   1   8  -5   88.97    4.60
   1   8  -5   93.34    4.09
   1   8  -5   93.47    4.75
   1   8  -5   89.23    4.31
  -1  -8   5  100.69    5.75
  -1  -8   5   90.56    5.17
   1   8  -5   91.87    4.56
  -1  -8   5   94.12    5.03
  -1  -8   5   88.84    5.07
   1   8  -5   96.33    5.14
   1   8  -4  528.99   13.77
  -1  -8   4  429.18   14.12
  -1  -8   4  474.19   13.01
  -1  -8   4  491.95   14.05
   1   8  -4  490.39   13.65
   1   8  -4  486.51   12.72
   1   8  -4  488.71   13.82
   1   8  -4  456.85   13.04
  -1  -8   4  544.20   16.09
  -1  -8   4  517.11   14.97
   1   8  -4  468.62   13.37
  -1  -8   4  498.30   14.18
  -1  -8   4  549.49   15.16
   1   8  -4  518.61   14.61
  -1  -8   3   43.03    2.79
   1   8  -3   42.38    2.96
  -1  -8   3   39.41    2.73
  -1  -8   3   30.60    2.73
  -1  -8   3   44.43    3.37
  -1  -8   3   47.91    3.70
  -1  -8   3   48.02    3.81
   1   8  -3   38.38    2.79
   1   8  -3   37.94    2.84
   1   8  -3   35.00    2.44
   1   8  -3   33.10    2.78
   1   8  -3   36.28    2.72
   1   8  -3   38.89    2.81
  -1  -8   3   44.19    3.46
   1   8  -3   36.88    3.11
   1   8  -3   35.80    2.58
   1   8  -2  201.34    7.20
  -1  -8   2  189.87    6.56
  -1  -8   2  169.45    6.88
  -1  -8   2  185.75    7.81
  -1  -8   2  212.98    8.44
  -1  -8   2  210.68    8.55
   1   8  -2  185.48    6.89
   1   8  -2  178.22    6.79
   1   8  -2  169.25    6.95
  -1  -8   2  188.29    8.58
   1   8  -2  184.04    6.82
   1   8  -2  183.79    7.55
  -1  -8   1    2.60    0.94
  -1  -8   1    2.46    0.85
  -1  -8   1    2.33    0.96
  -1  -8   1    3.30    1.01
   1   8  -1    2.60    0.73
   1   8  -1    2.05    0.70
  -1  -8   1    2.57    0.90
  -1  -8   1    4.63    0.89
   1   8  -1    3.44    0.89
  -1  -8   1    2.31    0.87
   1   8  -1    2.88    0.89
  -1  -8   0   13.91    2.00
  -1  -8   0   16.04    2.16
  -1  -8   0   17.89    2.17
   1   8   0   13.47    1.65
  -1  -8   0   12.31    1.95
   1   8   0   14.57    1.79
  -1  -8   0   13.91    1.89
  -1  -8  -1   95.76    5.40
  -1  -8  -1  102.23    5.01
  -1  -8  -1   77.46    4.76
   1   8   1   90.18    4.61
   1   8   1   83.56    4.24
   1   8   1   99.57    4.86
  -1  -8  -1   93.89    4.78
  -1  -8  -1   89.97    4.84
   1   8   2   71.99    3.52
  -1  -8  -2   83.09    4.99
  -1  -8  -2   81.08    4.77
   1   8   2   74.47    3.89
  -1  -8  -2   69.69    3.82
   1   8   2   71.08    3.84
   1   8   2   81.07    4.26
   1   8   2   80.50    4.32
  -1  -8  -2   79.07    4.32
   1   8   2   73.55    4.17
  -1  -8  -2   64.61    3.93
  -1  -8  -2   78.76    4.35
  -1  -8  -3  240.90    8.34
  -1  -8  -3  255.90    9.28
  -1  -8  -3  240.49    8.67
   1   8   3  208.07    7.24
   1   8   3  211.05    6.96
   1   8   3  217.41    7.56
  -1  -8  -3  238.02    8.19
   1   8   3  238.67    8.30
   1   8   3  231.66    8.10
  -1  -8  -4   26.98    2.43
  -1  -8  -4   30.65    2.57
   1   8   4   24.77    1.91
   1   8   4   29.28    2.30
   1   8   4   28.47    2.48
   1   8   4   25.83    2.32
  -1  -8  -5  180.01    6.62
   1   8   5  168.58    5.71
  -1  -8  -5  172.95    6.40
   1   8   5  179.29    6.63
   1   8   6   66.98    3.38
  -1  -8  -6   73.15    3.65
  -1  -8  -6   67.58    3.65
  -1  -8  -6   58.37    3.06
   1   8   6   64.59    3.45
   1   8   7   30.48    2.01
  -1  -8  -7   31.60    2.14
   1   8   7   33.57    2.16
  -1  -8  -7   32.35    2.13
   1   8   8   53.16    2.37
  -1  -9  14   22.89    1.46
   1   9 -14   24.05    1.41
  -1  -9  13    2.24    0.54
  -1  -9  13    1.06    0.42
   1   9 -13    1.89    0.49
  -1  -9  13    2.00    0.57
  -1  -9  12   51.51    2.92
   1   9 -12   62.88    2.97
  -1  -9  12   58.45    3.32
  -1  -9  12   54.45    3.12
   1   9 -12   53.63    2.78
  -1  -9  11    2.88    0.76
   1   9 -11    3.95    0.80
  -1  -9  11    3.58    0.93
   1   9 -11    3.69    0.73
  -1  -9  11    3.01    0.81
   1   9 -11    3.09    0.75
  -1  -9  10  100.23    4.73
   1   9 -10  113.92    4.56
   1   9 -10  110.43    4.63
  -1  -9  10  108.82    5.17
   1   9 -10  112.88    4.94
  -1  -9   9    9.54    1.41
  -1  -9   9   12.88    1.59
  -1  -9   9   13.36    1.92
   1   9  -9   11.28    1.48
  -1  -9   9   10.06    1.34
  -1  -9   9   12.44    1.72
   1   9  -9   11.78    1.34
  -1  -9   9   10.87    1.33
   1   9  -8   43.59    2.76
  -1  -9   8   39.17    2.78
   1   9  -8   47.69    3.22
  -1  -9   8   40.17    2.77
  -1  -9   8   37.91    2.80
  -1  -9   8   46.98    3.26
  -1  -9   8   35.47    2.80
  -1  -9   8   43.11    3.26
   1   9  -8   44.40    2.74
  -1  -9   8   40.26    2.52
  -1  -9   8   47.73    3.69
  -1  -9   7   62.92    3.78
   1   9  -7   70.72    3.72
   1   9  -7   72.37    4.05
  -1  -9   7   61.41    3.75
  -1  -9   7   53.20    3.33
  -1  -9   7   74.04    4.38
  -1  -9   7   60.38    3.87
   1   9  -7   67.46    3.86
  -1  -9   7   63.32    4.02
  -1  -9   7   65.86    3.38
  -1  -9   7   64.00    4.36
   1   9  -7   70.79    3.75
   1   9  -6  241.80    8.22
   1   9  -6  251.73    8.67
  -1  -9   6  250.72    8.88
  -1  -9   6  248.18    8.87
  -1  -9   6  279.35    9.78
  -1  -9   6  251.70    9.11
   1   9  -6  253.04    8.57
  -1  -9   6  256.21    9.07
  -1  -9   6  252.75    7.93
  -1  -9   6  247.34    9.39
  -1  -9   5   12.07    1.45
  -1  -9   5   13.08    1.84
   1   9  -5   12.08    1.56
   1   9  -5   13.19    1.69
  -1  -9   5   10.08    1.40
  -1  -9   5   13.34    2.03
   1   9  -5   11.51    1.59
  -1  -9   5   10.61    1.68
  -1  -9   5   11.58    1.74
  -1  -9   4   29.94    2.30
  -1  -9   4   23.94    2.33
  -1  -9   4   31.17    2.89
   1   9  -4   26.13    2.33
  -1  -9   4   28.19    2.48
  -1  -9   4   28.15    2.97
   1   9  -4   30.96    2.54
  -1  -9   4   28.99    2.76
  -1  -9   3   13.10    1.93
   1   9  -3   11.59    1.55
   1   9  -3    9.68    1.42
  -1  -9   3   12.73    1.51
   1   9  -3   14.52    1.73
  -1  -9   3   10.53    1.64
  -1  -9   2   58.58    3.91
   1   9  -2   48.46    3.10
  -1  -9   2   58.18    3.97
   1   9  -2   55.51    3.40
  -1  -9   2   60.17    4.37
  -1  -9   2   55.15    3.26
   1   9  -2   65.24    3.70
  -1  -9   2   63.87    4.14
  -1  -9   1   80.53    4.37
  -1  -9   1   95.79    5.17
  -1  -9   1   92.99    4.98
  -1  -9   1   83.41    5.10
   1   9  -1   89.64    4.11
   1   9  -1  100.51    4.71
  -1  -9   1   92.96    5.03
   1   9  -1   91.79    4.64
  -1  -9   0   10.60    1.59
  -1  -9   0   11.43    1.75
  -1  -9   0   12.77    1.71
  -1  -9   0   10.68    1.69
   1   9   0   10.35    1.44
   1   9   0    9.95    1.29
   1   9   0   12.50    1.63
   1   9   0   11.28    1.54
  -1  -9  -1   64.85    3.62
  -1  -9  -1   54.08    3.53
   1   9   1   60.98    3.46
   1   9   1   64.31    3.31
   1   9   1   68.93    3.76
  -1  -9  -1   61.35    3.88
   1   9   1   58.28    3.32
   1   9   2   20.65    1.79
   1   9   2   20.52    1.89
   1   9   2   21.41    2.02
  -1  -9  -2   21.88    2.23
   1   9   2   16.76    1.66
  -1  -9  -2   20.07    2.16
   1   9   3   14.89    1.50
   1   9   3   14.99    1.58
   1   9   3   18.97    1.83
  -1  -9  -3   17.10    1.91
  -1  -9  -3   17.06    1.85
   1   9   4   21.01    1.77
   1   9   4   22.71    1.87
  -1  -9  -4   20.32    1.83
  -1  -9  -4   20.51    1.97
   1   9   5  197.39    5.90
  -1  -9  -5  161.87    5.53
   1   9   6   31.91    1.76
   1  10 -12    0.89    0.31
  -1 -10  12    0.75    0.36
   1  10 -11   44.78    2.41
  -1 -10  11   44.25    2.54
  -1 -10  10   36.84    2.46
   1  10 -10   35.28    2.12
  -1 -10  10   32.47    2.42
  -1 -10   9    3.42    0.73
  -1 -10   9    4.15    0.93
   1  10  -9    4.11    0.77
  -1 -10   9    2.76    0.75
   1  10  -9    2.63    0.71
   1  10  -8    2.64    0.65
  -1 -10   8    2.22    0.72
  -1 -10   8    3.27    0.83
   1  10  -8    3.37    0.80
  -1 -10   8    2.11    0.61
   1  10  -8    2.23    0.54
   1  10  -8    2.60    0.64
  -1 -10   7   96.17    4.63
   1  10  -7   82.48    3.85
  -1 -10   7   80.61    4.00
   1  10  -7   85.43    4.19
   1  10  -7   89.42    3.77
  -1 -10   7   84.91    3.58
  -1 -10   7   82.60    4.28
  -1 -10   7   84.74    4.05
  -1 -10   6    5.65    1.17
   1  10  -6    6.30    1.06
  -1 -10   6    5.42    1.03
   1  10  -6    5.83    1.05
  -1 -10   6    6.27    0.94
   1  10  -6    5.99    1.00
  -1 -10   6    6.19    1.10
  -1 -10   5    8.12    1.42
   1  10  -5    8.43    1.23
   1  10  -5    8.31    1.22
  -1 -10   5    8.19    1.11
  -1 -10   5    8.72    1.37
  -1 -10   4    7.79    1.46
  -1 -10   4    8.33    1.38
   1  10  -4    7.56    1.16
  -1 -10   4    8.25    1.13
  -1 -10   4    6.92    1.26
   1  10  -4    8.14    1.21
  -1 -10   3   96.77    4.57
  -1 -10   3  103.00    4.95
  -1 -10   3   97.50    5.15
  -1 -10   3  102.75    4.27
   1  10  -3   98.02    4.44
  -1 -10   2    4.09    0.94
  -1 -10   2    2.18    0.72
   1  10  -2    3.41    0.74
  -1 -10   2    3.39    0.96
   1  10  -2    2.89    0.69
  -1 -10   2    3.05    0.73
   1  10  -2    2.41    0.71
  -1 -10   2    2.34    0.78
  -1 -10   1  142.72    5.75
   1  10  -1  116.03    4.84
  -1 -10   1  136.56    5.49
   1  10  -1  119.02    4.58
  -1 -10   1  128.08    5.66
   1  10  -1  126.08    4.87
  -1 -10   1  136.02    5.02
   1  10  -1  140.26    5.15
   1  10  -1  126.52    5.06
  -1 -10   0    6.11    1.13
   1  10   0    5.83    0.95
   1  10   0    6.77    1.01
   1  10   0    6.20    0.87
   1  10   0    7.65    1.07
  -1 -10   0    7.49    1.06
   1  10   0    6.94    1.07
   1  10   1  136.04    4.91
   1  10   1  160.62    5.31
  -1 -10  -1  151.48    5.18
   1  10   1  150.00    5.32
   1  10   1  139.58    4.99
   1  10   2  248.44    6.92
  -1 -10  -2  244.90    6.90
  -1 -10  -2  218.30    7.01
  -1 -10  -2  255.91    7.56
   1  10   2  216.64    6.64
  -1 -10  -3    0.39    0.27
   1  10   3    0.38    0.27
  -1 -10  -4    0.33    0.23
   1  11 -10    4.59    0.61
  -1 -11   9   66.67    2.62
   1  11  -9   68.54    2.69
  -1 -11   8    0.32    0.28
   1  11  -8    0.14    0.23
   1  11  -8    0.36    0.23
   1  11  -7    3.82    0.68
   1  11  -7    2.04    0.49
  -1 -11   7    3.25    0.70
   1  11  -6   44.92    2.39
  -1 -11   6   45.08    2.13
  -1 -11   5    2.79    0.71
   1  11  -5    2.37    0.58
  -1 -11   5    2.45    0.50
   1  11  -4    1.29    0.40
  -1 -11   4    1.27    0.40
   1  11  -4    1.19    0.42
   1  11  -4    0.52    0.33
   1  11  -3   18.25    1.46
   1  11  -3   15.71    1.40
  -1 -11   3   18.53    1.38
   1  11  -3   16.38    1.37
  -1 -11   3   19.44    1.77
  -1 -11   2   62.45    3.14
   1  11  -2   58.27    2.75
  -1 -11   2   66.37    2.73
  -1 -11   1   20.47    1.39
  -1 -11   0   12.23    1.01
  -1 -11  -1    1.98    0.38
  -2  12  -2  129.87    4.54
   2 -12   2  144.70    4.75
  -2  12  -3    1.06    0.41
   2 -12   3    0.40    0.32
  -2  12  -4    2.41    0.57
   2 -12   4    1.66    0.48
  -2  12  -4    1.53    0.49
   2 -12   5   34.62    2.17
  -2  12  -5   31.96    2.02
   2 -12   5   30.23    1.94
  -2  12  -5   36.76    2.11
  -2  12  -6   47.62    2.42
  -2  12  -6   43.34    2.30
   2 -12   6   48.00    2.52
  -2  12  -7   16.52    1.26
   2 -12   7   15.89    1.32
   2 -12   8   41.00    1.91
   2 -12   9    5.99    0.74
   2 -11  -2    8.41    1.03
   2 -11  -2    6.71    0.93
  -2  11   2    9.12    1.14
  -2  11   2    8.99    1.11
   2 -11  -1   24.86    1.84
   2 -11  -1   27.09    1.94
  -2  11   1   24.52    2.00
   2 -11   0  128.52    4.82
  -2  11   0  136.97    5.35
   2 -11   0  141.36    5.12
  -2  11   0  137.23    5.44
   2 -11   1   24.12    1.95
   2 -11   1   21.14    1.74
  -2  11  -1   24.54    2.11
   2 -11   1   23.48    1.86
  -2  11  -1   28.95    2.34
  -2  11  -2   19.74    1.86
   2 -11   2   17.01    1.52
   2 -11   2   18.81    1.67
   2 -11   2   19.56    1.77
  -2  11  -2   18.25    1.90
  -2  11  -3   11.97    1.43
   2 -11   3   14.35    1.52
   2 -11   3   15.21    1.58
   2 -11   3   14.46    1.55
   2 -11   4    7.04    1.05
   2 -11   4    7.19    1.12
   2 -11   4    7.27    1.15
  -2  11  -4    7.05    1.20
  -2  11  -5   28.65    2.20
   2 -11   5   26.46    1.99
   2 -11   5   28.41    2.25
   2 -11   5   28.62    2.23
  -2  11  -5   27.98    2.31
  -2  11  -6    0.06    0.29
   2 -11   6    0.05    0.24
  -2  11  -6    0.14    0.29
   2 -11   6    0.48    0.39
   2 -11   6    0.26    0.36
  -2  11  -6    0.07    0.23
   2 -11   7  105.16    4.51
  -2  11  -7   98.23    4.42
  -2  11  -8   15.29    1.61
   2 -11   8   15.20    1.57
   2 -11   8   14.79    1.49
  -2  11  -8   15.44    1.39
  -2  11  -9    0.42    0.31
   2 -11   9    0.15    0.29
   2 -11   9    0.28    0.22
   2 -11  10    6.18    0.92
  -2  11 -10    4.48    0.78
   2 -11  10    4.54    0.76
   2 -11  11    0.29    0.28
  -2  10   6   39.82    1.84
   2 -10  -5    1.38    0.43
  -2  10   5    1.05    0.36
   2 -10  -5    0.92    0.41
  -2  10   4   -0.06    0.27
  -2  10   4    0.68    0.34
  -2  10   4   -0.06    0.23
   2 -10  -4    0.56    0.33
  -2  10   4    0.17    0.26
   2 -10  -4    0.05    0.31
   2 -10  -4    0.11    0.30
  -2  10   3  116.86    5.03
  -2  10   3  124.29    4.43
   2 -10  -3  111.81    4.43
  -2  10   3  129.44    5.03
   2 -10  -3  116.73    4.76
   2 -10  -3  116.56    4.61
  -2  10   3  115.21    5.05
   2 -10  -2    0.06    0.22
  -2  10   2    0.16    0.33
   2 -10  -2    0.13    0.30
  -2  10   2    0.29    0.38
  -2  10   2    0.25    0.35
   2 -10  -1  192.03    6.67
  -2  10   1  198.79    6.98
  -2  10   1  192.81    7.27
  -2  10   0   18.30    2.09
  -2  10   0   16.34    1.95
   2 -10   0   17.81    1.85
   2 -10   0   13.81    1.41
   2 -10   0   14.81    1.61
  -2  10   0   18.32    1.92
  -2  10  -1   25.41    2.27
  -2  10  -1   20.88    2.22
   2 -10   1   23.51    2.14
   2 -10   1   23.16    2.05
   2 -10   1   22.68    2.09
  -2  10  -1   22.40    2.35
  -2  10  -1   23.85    2.38
  -2  10  -2    6.60    1.25
   2 -10   2    7.75    1.25
   2 -10   2    9.45    1.40
  -2  10  -2    7.49    1.40
  -2  10  -3   11.44    1.54
  -2  10  -3   11.75    1.59
   2 -10   3   11.82    1.50
   2 -10   3   11.13    1.55
   2 -10   3   10.92    1.53
  -2  10  -3   11.64    1.73
  -2  10  -3   12.73    1.79
   2 -10   4    0.65    0.43
  -2  10  -4    1.74    0.67
   2 -10   4    0.43    0.41
   2 -10   4    0.08    0.33
  -2  10  -4    0.08    0.35
  -2  10  -4    0.39    0.44
   2 -10   5   -0.14    0.36
  -2  10  -5    0.28    0.40
   2 -10   5    0.08    0.33
  -2  10  -5    0.35    0.40
  -2  10  -5    0.37    0.44
  -2  10  -6   55.67    3.71
   2 -10   6   50.57    2.96
   2 -10   6   57.23    3.52
  -2  10  -6   50.51    3.42
  -2  10  -7   40.67    2.89
  -2  10  -7   38.83    2.80
   2 -10   7   37.28    2.38
  -2  10  -7   45.02    3.33
  -2  10  -8    1.33    0.50
   2 -10   8    1.77    0.66
  -2  10  -8    1.91    0.75
   2 -10   9   96.19    4.24
  -2  10  -9   98.32    4.79
   2 -10   9   87.59    4.11
   2 -10  10    1.05    0.47
  -2  10 -10    1.07    0.46
  -2  10 -10    0.52    0.38
   2 -10  10    0.67    0.38
  -2  10 -11   26.64    1.93
  -2  10 -11   23.11    1.93
   2 -10  11   26.78    1.96
   2 -10  11   30.31    2.21
  -2  10 -11   29.09    2.06
   2 -10  12   23.32    1.67
  -2  10 -12   21.53    1.61
   2 -10  12   21.46    1.69
   2 -10  13    2.69    0.50
   2 -10  13    2.94    0.55
  -2  10 -13    2.48    0.47
   2  -9  -8    2.42    0.57
  -2   9   8    1.90    0.44
   2  -9  -7  189.93    6.42
  -2   9   7  174.63    5.72
  -2   9   6    2.83    0.70
  -2   9   6    3.22    0.74
  -2   9   6    3.16    0.72
   2  -9  -6    2.73    0.79
   2  -9  -6    3.63    0.76
  -2   9   5  115.98    4.96
  -2   9   5  111.68    4.86
   2  -9  -5  110.84    4.60
  -2   9   5  111.86    4.82
   2  -9  -5  118.23    5.45
   2  -9  -5  109.99    4.65
  -2   9   5  107.57    4.88
  -2   9   4    0.85    0.53
  -2   9   4    0.82    0.48
   2  -9  -4    1.85    0.62
  -2   9   4    1.52    0.65
   2  -9  -4    1.84    0.74
  -2   9   4    1.09    0.59
   2  -9  -4    1.06    0.47
   2  -9  -4    0.70    0.45
  -2   9   3    5.02    1.12
  -2   9   3    5.37    1.15
  -2   9   3    4.76    0.98
   2  -9  -3    4.36    0.91
   2  -9  -3    5.65    1.26
  -2   9   3    5.50    1.11
   2  -9  -3    5.44    1.01
  -2   9   2  105.45    5.31
  -2   9   2  105.96    4.65
   2  -9  -2   87.52    4.17
  -2   9   2   97.78    4.84
   2  -9  -2  108.25    5.60
  -2   9   2  105.99    5.33
   2  -9  -2   95.44    4.55
  -2   9   1    2.31    0.82
   2  -9  -1    3.95    0.91
   2  -9  -1    1.78    0.60
  -2   9   1    2.67    0.81
   2  -9  -1    2.30    0.89
   2  -9  -1    2.40    0.69
  -2   9   0   43.30    3.37
  -2   9   0   45.01    3.42
  -2   9   0   39.45    3.24
   2  -9   0   41.64    2.92
   2  -9   0   33.63    2.35
   2  -9   0   39.69    2.78
  -2   9   0   43.21    3.10
  -2   9  -1    1.85    0.74
  -2   9  -1    3.96    1.07
   2  -9   1    1.77    0.66
   2  -9   1    1.07    0.43
   2  -9   1    1.66    0.62
  -2   9  -1    2.12    0.73
   2  -9   2    0.24    0.37
  -2   9  -2    0.18    0.27
   2  -9   2    0.05    0.26
  -2   9  -2    0.33    0.49
  -2   9  -2    0.20    0.34
  -2   9  -2    0.59    0.46
   2  -9   2    0.17    0.48
   2  -9   3  144.11    5.16
  -2   9  -3  192.10    7.73
  -2   9  -3  197.37    7.85
  -2   9  -3  190.10    7.35
  -2   9  -3  164.87    6.87
   2  -9   3  159.14    5.64
   2  -9   3  191.33    7.10
  -2   9  -4  492.87   13.64
  -2   9  -4  407.11   12.13
   2  -9   4  372.41   10.53
   2  -9   4  467.39   12.78
   2  -9   5  352.29   10.55
  -2   9  -5  335.68   10.79
  -2   9  -5  378.97   11.72
  -2   9  -5  297.90    9.56
   2  -9   5  278.15    8.31
   2  -9   5  352.48   10.59
  -2   9  -6    0.09    0.37
   2  -9   6    0.18    0.40
  -2   9  -7    1.54    0.63
   2  -9   7    1.15    0.67
   2  -9   7    0.60    0.48
  -2   9  -7    0.77    0.42
  -2   9  -7    0.95    0.55
   2  -9   8   46.27    3.13
  -2   9  -8   43.66    3.13
  -2   9  -8   42.36    2.95
   2  -9   9  105.91    4.98
   2  -9   9  111.38    4.92
  -2   9  -9  105.81    4.85
   2  -9  10    2.86    0.74
   2  -9  10    3.10    0.82
   2  -9  10    3.56    0.82
  -2   9 -10    2.41    0.72
   2  -9  11   49.17    3.00
   2  -9  11   49.91    2.91
  -2   9 -11   50.76    3.00
   2  -9  11   57.31    3.44
  -2   9 -12    2.63    0.68
   2  -9  12    3.06    0.78
  -2   9 -12    4.77    0.93
   2  -9  12    4.91    0.92
   2  -9  12    5.42    1.00
  -2   9 -12    3.80    0.76
  -2   9 -13   52.36    2.77
  -2   9 -13   55.52    2.68
   2  -9  13   60.40    2.97
   2  -9  14    7.28    0.83
  -2   9 -14    5.78    0.75
   2  -9  14    6.54    0.82
  -2   9 -14    6.50    0.74
   2  -8  -9    0.94    0.44
  -2   8   9    0.66    0.34
  -2   8   8   10.63    1.33
   2  -8  -8   10.80    1.45
  -2   8   8   10.58    1.15
   2  -8  -8    9.45    1.08
   2  -8  -8   10.67    1.23
  -2   8   7   13.98    1.71
   2  -8  -7   13.46    1.49
  -2   8   7   16.24    1.69
   2  -8  -7   14.12    1.79
   2  -8  -7   14.62    1.49
  -2   8   7   13.70    1.56
  -2   8   6    2.29    0.73
  -2   8   6    0.64    0.49
   2  -8  -6    0.55    0.45
   2  -8  -6    0.29    0.48
  -2   8   6    0.86    0.47
   2  -8  -6    1.34    0.55
  -2   8   5   29.60    2.61
  -2   8   5   30.17    2.71
  -2   8   5   27.38    2.43
   2  -8  -5   30.84    2.83
   2  -8  -5   27.17    2.11
  -2   8   5   28.50    2.54
  -2   8   4   27.02    2.56
  -2   8   4   27.43    2.64
   2  -8  -4   24.43    2.11
  -2   8   4   25.15    2.37
   2  -8  -4   23.79    2.54
  -2   8   4   26.38    2.51
   2  -8  -4   23.71    1.92
   2  -8  -4   29.45    2.25
  -2   8   3   96.16    5.07
  -2   8   3  104.33    5.13
   2  -8  -3   92.10    4.28
  -2   8   3   95.45    4.83
   2  -8  -3  103.08    5.39
   2  -8  -3   87.85    3.83
  -2   8   3   91.03    4.97
   2  -8  -3   99.39    4.51
  -2   8   2  248.52    8.93
   2  -8  -2  210.82    6.65
   2  -8  -2  243.53    7.91
  -2   8   2  243.66    8.40
  -2   8   2  249.75    8.84
  -2   8   2  256.36    8.46
   2  -8  -2  215.18    7.34
   2  -8  -2  248.24    9.14
  -2   8   2  233.94    8.20
   2  -8  -2  219.44    7.89
   2  -8  -1    2.19    0.52
  -2   8   1    3.30    0.93
  -2   8   1    2.61    0.88
  -2   8   1    2.65    0.89
  -2   8   1    2.47    0.71
   2  -8  -1    2.65    0.71
   2  -8  -1    3.76    0.83
   2  -8  -1    1.98    0.68
  -2   8   1    4.24    0.97
   2  -8  -1    2.77    0.92
   2  -8   0    2.02    0.84
  -2   8   0    2.35    0.74
   2  -8   0    1.51    0.61
  -2   8   0    2.17    0.71
  -2   8   0    2.36    0.84
  -2   8   0    2.28    0.83
  -2   8   0    3.38    1.01
  -2   8   0    2.05    0.78
  -2   8   0    2.18    0.66
   2  -8   0    1.97    0.63
   2  -8   0    2.29    0.68
   2  -8   0    1.98    0.66
   2  -8   0    3.14    0.84
  -2   8  -1  301.04    9.90
  -2   8  -1  335.55   10.92
   2  -8   1  307.69    8.96
  -2   8  -1  350.61   11.33
  -2   8  -1  353.10   11.45
  -2   8  -1  334.79    9.87
   2  -8   1  310.82    8.92
  -2   8  -1  319.72    9.92
   2  -8   1  324.31   10.28
   2  -8   1  311.93   10.05
   2  -8   1  312.44    9.78
  -2   8  -2   82.41    4.70
   2  -8   2   81.47    3.60
  -2   8  -2   80.32    4.45
  -2   8  -2   81.88    4.74
  -2   8  -2   90.00    5.10
  -2   8  -2   86.66    5.05
  -2   8  -2   84.77    4.19
   2  -8   2   76.27    3.44
   2  -8   2   79.28    4.11
  -2   8  -2   83.37    4.27
   2  -8   2   83.20    4.28
   2  -8   2   85.77    4.49
   2  -8   2   87.75    4.67
  -2   8  -3  614.39   16.94
  -2   8  -3  667.42   17.51
   2  -8   3  622.96   14.95
  -2   8  -3  655.81   17.87
  -2   8  -3  649.04   16.27
   2  -8   3  610.98   14.81
   2  -8   3  630.62   16.35
  -2   8  -3  631.80   16.34
   2  -8   3  643.39   16.74
   2  -8   3  616.10   16.44
   2  -8   3  645.88   17.23
  -2   8  -4    3.73    1.06
  -2   8  -4    2.64    0.82
  -2   8  -4    5.50    1.27
  -2   8  -4    5.33    1.02
   2  -8   4    3.87    0.69
   2  -8   4    4.33    1.02
   2  -8   4    3.87    0.74
   2  -8   4    4.52    0.84
   2  -8   4    4.18    1.07
   2  -8   4    3.55    0.91
   2  -8   4    3.93    0.99
  -2   8  -5   42.83    3.25
  -2   8  -5   43.64    3.33
  -2   8  -5   44.62    3.13
  -2   8  -5   44.09    3.38
  -2   8  -5   39.26    2.85
   2  -8   5   41.97    2.29
   2  -8   5   42.82    2.55
   2  -8   5   49.19    3.22
   2  -8   5   44.31    3.05
   2  -8   5   43.76    2.81
   2  -8   5   47.91    3.53
  -2   8  -6  178.02    6.95
  -2   8  -6  178.32    7.15
  -2   8  -6  171.36    7.06
  -2   8  -6  193.70    7.42
   2  -8   6  175.73    5.38
   2  -8   6  177.91    5.90
   2  -8   6  185.67    7.02
   2  -8   6  174.33    6.31
  -2   8  -6  201.52    7.86
  -2   8  -7   18.61    2.10
  -2   8  -7   17.26    1.96
  -2   8  -7   17.88    1.99
  -2   8  -7   16.28    1.89
  -2   8  -7   16.56    1.90
   2  -8   7   15.15    1.45
   2  -8   7   17.70    1.94
   2  -8   7   18.74    1.99
   2  -8   7   17.94    1.74
   2  -8   7   19.35    2.21
   2  -8   8    0.71    0.45
  -2   8  -8    0.23    0.28
  -2   8  -8    0.75    0.49
  -2   8  -8    0.80    0.48
   2  -8   8    0.12    0.32
   2  -8   9   56.24    3.48
   2  -8   9   48.68    2.78
   2  -8   9   53.37    3.29
  -2   8  -9   57.96    3.76
  -2   8  -9   60.70    3.76
  -2   8 -10   34.96    2.83
   2  -8  10   33.04    2.48
   2  -8  10   35.33    2.66
  -2   8 -11   12.47    1.63
   2  -8  11   13.28    1.75
   2  -8  11   10.39    1.31
   2  -8  11    9.91    1.35
  -2   8 -12   52.18    3.20
   2  -8  12   57.22    3.44
   2  -8  12   48.40    2.78
   2  -8  13  401.65   10.53
   2  -8  13  364.86   10.48
  -2   8 -13  347.51   10.10
  -2   8 -13  389.45   10.79
   2  -8  14   53.62    2.63
  -2   8 -14   52.35    2.67
   2  -8  14   47.16    2.58
   2  -8  15   10.10    0.89
  -2   8 -15    8.79    0.85
   2  -8  15    9.04    0.90
  -2   7  11    1.64    0.39
   2  -7 -11    1.38    0.43
   2  -7 -10   33.39    2.03
  -2   7  10   36.42    2.24
   2  -7 -10   38.12    2.53
   2  -7  -9   55.55    3.46
   2  -7  -9   53.48    2.91
  -2   7   8    0.33    0.36
  -2   7   8    0.36    0.47
  -2   7   8    0.15    0.31
   2  -7  -8    0.28    0.38
   2  -7  -8    0.17    0.29
   2  -7  -8    0.07    0.28
  -2   7   8   -0.07    0.26
   2  -7  -7  142.83    5.72
  -2   7   7  153.04    6.09
  -2   7   7  136.56    5.92
   2  -7  -7  146.93    6.60
   2  -7  -7  154.14    5.69
  -2   7   7  156.47    6.16
  -2   7   6   40.62    3.06
  -2   7   6   38.85    3.35
   2  -7  -6   33.17    2.47
  -2   7   6   40.44    2.93
  -2   7   6   32.04    2.69
   2  -7  -6   35.31    3.06
   2  -7  -6   35.43    2.45
  -2   7   6   39.30    2.95
   2  -7  -5    3.94    0.87
  -2   7   5    4.35    1.00
  -2   7   5    3.80    0.97
  -2   7   5    2.79    0.86
   2  -7  -5    3.08    0.96
  -2   7   5    3.74    0.92
   2  -7  -5    3.58    0.78
   2  -7  -5    4.92    0.89
  -2   7   4    3.92    0.92
  -2   7   4    3.38    0.92
  -2   7   4    2.94    0.93
  -2   7   4    5.59    1.11
   2  -7  -4    4.00    1.06
   2  -7  -4    3.20    0.74
   2  -7  -4    4.47    0.84
   2  -7  -3  126.90    4.55
  -2   7   3  139.81    6.04
   2  -7  -3  127.99    5.10
  -2   7   3  129.99    5.82
   2  -7  -3  123.40    4.95
  -2   7   3  131.31    5.57
   2  -7  -3  139.80    6.21
   2  -7  -3  121.23    5.36
   2  -7  -2   76.12    3.58
   2  -7  -2   84.78    3.30
  -2   7   2   84.58    4.36
  -2   7   2   80.00    4.33
  -2   7   2   87.76    4.48
  -2   7   2   75.37    3.90
   2  -7  -2   78.52    3.63
  -2   7   2   75.06    3.98
   2  -7  -2   83.58    4.62
   2  -7  -2   73.67    4.01
  -2   7   1   83.54    4.02
  -2   7   1   84.43    4.60
   2  -7  -1   78.96    3.55
   2  -7  -1   87.02    3.22
  -2   7   1   91.58    4.72
  -2   7   1   77.87    4.27
  -2   7   1   94.38    4.84
  -2   7   1   81.54    4.03
   2  -7  -1   82.95    3.66
   2  -7  -1   84.32    4.64
  -2   7   1   73.81    3.90
   2  -7  -1   77.38    4.07
   2  -7  -1   82.71    3.81
   2  -7   0    0.45    0.25
  -2   7   0    0.36    0.35
  -2   7   0    1.40    0.68
  -2   7   0    0.79    0.51
  -2   7   0    0.61    0.53
  -2   7   0    0.49    0.37
   2  -7   0    1.19    0.47
   2  -7   0    0.07    0.25
   2  -7   0    0.58    0.40
   2  -7   0    0.39    0.33
  -2   7   0    1.55    0.55
   2  -7   0    0.28    0.45
  -2   7  -1  118.51    4.95
   2  -7   1  138.36    5.98
  -2   7  -1  119.65    5.22
  -2   7  -1  123.73    5.74
   2  -7   1  117.65    4.33
   2  -7   1  116.47    3.75
   2  -7   1  116.92    4.48
  -2   7  -1  121.63    5.94
  -2   7  -1  121.91    5.54
  -2   7  -1  139.02    6.37
  -2   7  -1  128.21    5.11
   2  -7   1  125.07    4.53
   2  -7   1  111.73    4.71
   2  -7   1  115.58    4.72
   2  -7   1  117.33    4.87
   2  -7   1  113.12    5.13
   2  -7   1  128.02    5.40
  -2   7  -2   95.17    4.38
  -2   7  -2   99.89    5.08
   2  -7   2  105.07    3.91
  -2   7  -2   98.94    4.89
  -2   7  -2  103.66    5.46
  -2   7  -2  105.03    5.55
  -2   7  -2  109.91    4.66
   2  -7   2  101.23    4.42
   2  -7   2  104.39    3.99
   2  -7   2   92.63    4.17
   2  -7   2   99.29    4.40
   2  -7   2   96.65    4.62
   2  -7   2  106.81    4.99
  -2   7  -3  462.56   12.41
  -2   7  -3  429.41   13.05
   2  -7   3  489.95   11.40
   2  -7   3  473.12   11.62
  -2   7  -3  474.01   12.58
  -2   7  -3  479.75   12.53
   2  -7   3  450.22   12.29
   2  -7   3  444.70   11.89
   2  -7   3  438.16   12.22
   2  -7   3  453.08   12.70
   2  -7   3  464.89   13.07
  -2   7  -4   97.01    4.84
   2  -7   4  112.62    3.90
   2  -7   4  111.78    4.14
  -2   7  -4  106.81    5.18
  -2   7  -4  107.05    5.44
  -2   7  -4  108.58    5.60
  -2   7  -4  113.06    4.73
   2  -7   4  105.91    4.61
   2  -7   4  104.39    4.60
   2  -7   4  104.05    4.32
  -2   7  -4  103.92    5.13
   2  -7   4  102.61    4.88
  -2   7  -5    2.71    0.84
  -2   7  -5    1.55    0.68
  -2   7  -5    2.79    0.88
   2  -7   5    2.18    0.51
   2  -7   5    1.37    0.47
   2  -7   5    2.48    0.72
   2  -7   5    2.06    0.61
   2  -7   5    1.61    0.66
   2  -7   5    1.13    0.51
  -2   7  -5    2.38    0.84
  -2   7  -6  124.91    5.77
  -2   7  -6  153.34    6.38
  -2   7  -6  131.76    5.95
   2  -7   6  142.68    4.46
   2  -7   6  142.13    4.78
   2  -7   6  137.54    5.52
   2  -7   6  143.82    5.17
  -2   7  -6  140.22    6.20
  -2   7  -7    6.87    1.21
  -2   7  -7    6.72    1.30
  -2   7  -7    5.44    1.07
  -2   7  -7    5.42    1.09
   2  -7   7    6.84    0.91
   2  -7   7    6.78    1.15
   2  -7   7    5.79    0.94
  -2   7  -7    5.09    1.22
   2  -7   7    5.87    1.13
  -2   7  -8   67.82    3.95
  -2   7  -8   74.70    4.47
  -2   7  -8   69.59    4.11
   2  -7   8   67.74    2.96
   2  -7   8   68.56    3.77
   2  -7   8   60.37    3.54
   2  -7   8   72.22    3.36
  -2   7  -8   71.27    4.51
   2  -7   8   70.88    4.05
  -2   7  -9   28.53    2.79
   2  -7   9   30.57    2.61
  -2   7  -9   25.12    2.45
   2  -7   9   29.94    2.41
   2  -7   9   28.37    2.01
   2  -7   9   27.82    2.28
  -2   7  -9   33.17    2.94
  -2   7  -9   31.20    2.67
  -2   7 -10   64.36    3.99
   2  -7  10   65.96    3.59
   2  -7  10   71.76    3.80
   2  -7  10   67.01    3.55
   2  -7  10   58.27    2.91
  -2   7 -10   69.73    4.13
   2  -7  11   29.60    2.34
   2  -7  11   26.80    2.20
  -2   7 -11   31.59    2.76
   2  -7  11   31.53    2.75
   2  -7  11   27.78    2.13
  -2   7 -11   27.01    2.45
  -2   7 -12   19.16    2.05
   2  -7  12   19.98    2.12
   2  -7  12   17.91    1.75
   2  -7  12   17.90    1.70
  -2   7 -13   13.04    1.62
   2  -7  13   10.87    1.45
   2  -7  13    8.36    1.14
  -2   7 -14   12.99    1.41
   2  -7  14   14.71    1.43
  -2   7 -14   12.58    1.35
   2  -7  14   13.37    1.45
   2  -7  15   75.79    2.87
  -2   7 -15   70.45    2.91
  -2   7 -15   73.57    2.90
   2  -7  15   70.49    3.05
   2  -6 -12    2.73    0.59
  -2   6  11   75.04    3.29
   2  -6 -11   77.21    3.81
  -2   6  10   20.85    1.86
   2  -6 -10   23.09    1.82
   2  -6 -10   24.02    2.30
  -2   6  10   20.95    1.94
   2  -6  -9  181.94    6.30
   2  -6  -9  171.38    5.82
  -2   6   9  180.92    6.65
  -2   6   9  183.85    7.12
  -2   6   9  174.39    6.18
  -2   6   9  171.02    6.49
   2  -6  -9  176.43    7.26
   2  -6  -8   60.97    3.17
  -2   6   8   60.77    3.54
   2  -6  -8   59.49    3.99
  -2   6   8   56.41    3.57
   2  -6  -8   65.02    3.46
  -2   6   8   63.96    3.77
   2  -6  -8   60.22    3.06
  -2   6   7   78.90    4.18
   2  -6  -7   67.28    3.47
   2  -6  -7   70.43    3.65
  -2   6   7   77.63    4.25
   2  -6  -7   69.03    3.24
   2  -6  -7   69.20    3.12
   2  -6  -7   65.34    4.23
  -2   6   7   70.87    4.04
   2  -6  -6  218.19    8.48
  -2   6   6  216.86    8.00
  -2   6   6  252.24    8.62
  -2   6   6  231.63    8.20
   2  -6  -6  237.42    7.35
   2  -6  -6  228.11    7.53
   2  -6  -6  246.01    7.02
  -2   6   6  265.75    8.68
   2  -6  -6  243.51    6.77
   2  -6  -6  234.94    7.97
  -2   6   5   11.50    1.52
   2  -6  -5    8.62    1.44
  -2   6   5   10.50    1.52
  -2   6   5   10.54    1.51
   2  -6  -5    9.57    1.14
   2  -6  -5    8.81    1.22
   2  -6  -5    9.77    1.05
  -2   6   5   11.32    1.57
   2  -6  -5   12.29    1.13
   2  -6  -5   10.74    1.42
  -2   6   4  131.68    5.64
   2  -6  -4  138.21    4.60
   2  -6  -4  120.18    4.68
  -2   6   4  127.62    5.57
   2  -6  -4  132.05    4.88
  -2   6   4  147.19    5.79
   2  -6  -4  125.12    5.69
  -2   6   4  121.07    5.24
   2  -6  -4  129.12    5.32
   2  -6  -3  297.20    8.28
   2  -6  -3  338.26    8.14
  -2   6   3  299.52    9.54
  -2   6   3  277.46    9.18
  -2   6   3  295.19    8.92
  -2   6   3  290.58    8.85
  -2   6   3  339.77    9.55
  -2   6   3  271.50    8.78
   2  -6  -3  284.62    9.55
   2  -6  -3  304.50    9.17
  -2   6   2    0.59    0.43
  -2   6   2    0.65    0.42
  -2   6   2    0.29    0.38
  -2   6   2    1.95    0.59
   2  -6  -2    0.22    0.25
  -2   6   2    0.54    0.32
   2  -6  -2    1.53    0.50
   2  -6  -2    0.20    0.33
  -2   6   1  105.60    4.90
  -2   6   1   92.14    4.39
  -2   6   1  111.34    5.08
  -2   6   1  111.14    4.52
   2  -6  -1  108.05    3.99
  -2   6   1   94.18    4.17
  -2   6   1  104.50    4.83
   2  -6  -1  104.13    3.78
   2  -6  -1  107.85    3.53
   2  -6  -1   90.67    3.65
   2  -6  -1   95.43    4.14
   2  -6  -1   95.54    4.36
   2  -6  -1   90.50    3.83
   2  -6   0    2.81    0.61
  -2   6   0    4.26    0.95
  -2   6   0    4.96    1.06
  -2   6   0    4.87    1.10
  -2   6   0    5.24    0.96
   2  -6   0    5.13    0.82
   2  -6   0    4.67    0.78
   2  -6   0    4.25    0.77
   2  -6   0    4.56    0.82
   2  -6   0    3.16    0.78
   2  -6   0    3.61    0.79
  -2   6  -1  532.63   14.18
   2  -6   1  529.48   12.11
   2  -6   1  497.93   12.11
  -2   6  -1  512.87   13.39
  -2   6  -1  530.86   14.68
  -2   6  -1  516.21   12.84
  -2   6  -1  523.61   14.83
  -2   6  -1  559.63   13.36
   2  -6   1  472.52   11.87
   2  -6   1  502.73   12.54
   2  -6   1  511.98   12.69
   2  -6   1  500.31   12.44
   2  -6   1  528.93   13.32
  -2   6  -1  478.41   12.18
   2  -6   1  540.63   13.40
  -2   6  -2  851.80   21.47
   2  -6   2  913.21   19.49
  -2   6  -2  891.99   22.33
  -2   6  -2  920.90   20.68
  -2   6  -2  914.23   22.58
   2  -6   2  851.79   19.43
  -2   6  -2  945.24   20.80
   2  -6   2  874.24   20.07
   2  -6   2  914.47   20.01
   2  -6   2  916.49   20.16
  -2   6  -2  833.75   19.54
   2  -6   2  924.55   20.87
  -2   6  -3   22.48    2.16
   2  -6   3   27.25    1.63
   2  -6   3   26.28    1.67
  -2   6  -3   23.77    2.13
  -2   6  -3   27.48    2.63
  -2   6  -3   24.87    1.96
   2  -6   3   23.10    1.57
   2  -6   3   23.75    1.78
   2  -6   3   24.59    1.80
  -2   6  -3   24.14    1.65
   2  -6   3   26.43    2.05
   2  -6   4  174.62    5.14
  -2   6  -4  159.98    6.66
  -2   6  -4  177.83    6.64
  -2   6  -4  164.96    6.85
   2  -6   4  158.09    5.08
   2  -6   4  156.32    5.45
   2  -6   4  173.65    5.41
   2  -6   4  165.83    5.59
  -2   6  -4  155.65    5.16
  -2   6  -4  177.64    6.75
  -2   6  -5   13.05    1.68
  -2   6  -5   12.14    1.65
  -2   6  -5   17.59    1.93
   2  -6   5   14.37    1.43
   2  -6   5   15.84    1.38
   2  -6   5   14.61    1.23
   2  -6   6  382.33    9.17
  -2   6  -6  303.76   10.12
  -2   6  -6  389.33   11.06
  -2   6  -6  368.86   11.04
  -2   6  -6  312.77   10.29
   2  -6   6  352.89    9.29
   2  -6   6  362.95    9.90
   2  -6   6  346.12    9.70
   2  -6   6  377.34    9.54
   2  -6   6  385.28    9.92
   2  -6   6  337.78    9.69
  -2   6  -6  423.04   12.40
  -2   6  -7   41.50    2.87
  -2   6  -7   45.69    3.46
   2  -6   7   47.29    2.27
  -2   6  -7   34.39    2.53
  -2   6  -7   49.47    3.37
   2  -6   7   48.70    2.47
   2  -6   7   43.73    2.71
   2  -6   7   45.31    2.44
   2  -6   7   45.63    2.65
   2  -6   7   44.25    2.69
  -2   6  -7   46.81    3.65
  -2   6  -8    1.99    0.79
  -2   6  -8    2.14    0.74
   2  -6   8    1.89    0.47
  -2   6  -8    2.52    0.88
   2  -6   8    1.49    0.53
  -2   6  -8    1.71    0.75
   2  -6   8    1.25    0.52
   2  -6   8    2.14    0.63
   2  -6   8    1.34    0.56
  -2   6  -8    1.44    0.55
   2  -6   8    1.36    0.45
   2  -6   8    3.05    0.61
   2  -6   9    1.00    0.39
   2  -6   9    0.53    0.41
  -2   6  -9    0.99    0.60
  -2   6  -9    0.61    0.48
   2  -6   9    0.71    0.44
   2  -6   9    0.86    0.47
   2  -6   9    0.43    0.31
  -2   6  -9    0.95    0.47
  -2   6  -9    0.43    0.46
  -2   6  -9    0.71    0.46
  -2   6 -10    9.19    1.53
  -2   6 -10   10.27    1.65
  -2   6 -10   11.60    1.74
   2  -6  10    9.96    1.57
   2  -6  10    8.11    1.32
   2  -6  10    8.96    1.21
  -2   6 -10    8.27    1.42
  -2   6 -10    9.73    1.38
   2  -6  10    8.42    1.23
   2  -6  10    7.12    1.21
  -2   6 -11    6.56    1.14
   2  -6  11    6.91    1.19
   2  -6  11    8.68    1.22
   2  -6  11   10.00    1.47
   2  -6  11    7.23    1.04
   2  -6  11    8.86    1.50
  -2   6 -11    7.24    1.39
  -2   6 -12  239.87    7.84
   2  -6  12  239.17    8.00
   2  -6  12  227.83    7.25
   2  -6  12  249.66    8.65
   2  -6  12  247.55    8.22
  -2   6 -12  228.22    8.28
   2  -6  13   27.35    2.21
  -2   6 -13   31.44    2.51
  -2   6 -13   36.51    2.79
   2  -6  13   28.16    2.46
  -2   6 -13   32.64    2.29
   2  -6  14   32.96    2.24
   2  -6  14   44.12    2.54
  -2   6 -14   41.39    2.58
   2  -6  14   35.90    2.53
  -2   6 -14   37.78    2.48
   2  -6  15    7.75    0.86
  -2   6 -15    9.23    0.96
  -2   6 -15    9.53    1.06
   2  -6  15    8.40    1.05
  -2   6 -16    0.18    0.18
   2  -5 -13   43.75    2.25
  -2   5  12    4.40    0.77
   2  -5 -12    4.95    0.74
   2  -5 -12    5.22    0.96
  -2   5  11    6.66    1.07
   2  -5 -11    4.44    0.79
   2  -5 -11    6.22    0.94
   2  -5 -11    5.16    1.10
  -2   5  11    4.82    0.90
   2  -5 -10   16.56    1.62
  -2   5  10   15.82    1.80
  -2   5  10   17.97    1.92
   2  -5 -10   17.06    1.62
   2  -5 -10   15.93    2.01
   2  -5 -10   16.16    1.48
  -2   5  10   16.74    1.88
  -2   5   9  238.69    8.69
   2  -5  -9  236.20    7.55
  -2   5   9  210.01    7.74
  -2   5   9  230.28    7.64
   2  -5  -9  242.13    7.54
  -2   5   9  239.38    8.24
   2  -5  -9  227.24    7.20
   2  -5  -9  219.37    6.94
  -2   5   9  226.17    7.99
   2  -5  -9  220.39    8.57
  -2   5   8  223.16    8.76
   2  -5  -8  199.75    6.88
  -2   5   8  224.45    8.00
   2  -5  -8  221.33    6.83
  -2   5   8  234.00    7.76
   2  -5  -8  218.13    7.03
   2  -5  -8  214.81    6.59
   2  -5  -8  202.44    8.09
  -2   5   8  191.11    7.43
  -2   5   7   16.57    1.87
   2  -5  -7   17.23    2.05
  -2   5   7   19.46    1.99
   2  -5  -7   20.93    1.75
   2  -5  -7   17.96    1.69
   2  -5  -7   21.30    1.66
  -2   5   7   20.40    2.16
   2  -5  -7   21.00    1.60
   2  -5  -7   21.19    2.02
  -2   5   6  519.09   14.92
   2  -5  -6  518.65   15.41
  -2   5   6  586.64   15.43
  -2   5   6  619.68   15.81
   2  -5  -6  589.28   14.85
   2  -5  -6  578.18   14.42
   2  -5  -6  601.56   13.93
  -2   5   6  658.21   16.15
   2  -5  -6  640.26   13.98
   2  -5  -6  580.13   15.01
  -2   5   5   28.19    2.33
   2  -5  -5   24.01    1.96
   2  -5  -5   23.79    1.79
  -2   5   5   32.02    2.51
  -2   5   5   27.72    2.28
  -2   5   5   21.02    1.94
   2  -5  -5   21.97    2.12
  -2   5   4   61.40    3.36
   2  -5  -4   50.72    2.60
  -2   5   4   55.85    3.23
   2  -5  -4   51.54    2.49
   2  -5  -4   56.43    2.46
  -2   5   4   52.28    2.71
  -2   5   4   48.28    3.03
   2  -5  -4   47.07    2.73
   2  -5  -3   11.30    1.13
  -2   5   3   11.32    1.35
  -2   5   3   10.50    1.19
   2  -5  -3    9.97    1.03
   2  -5  -3   12.26    1.05
  -2   5   3    8.64    1.25
  -2   5   3    8.53    1.13
  -2   5   3   10.83    1.23
  -2   5   3    8.93    1.23
  -2   5   2  203.06    6.72
   2  -5  -2  220.81    6.62
  -2   5   2  250.37    7.33
  -2   5   2  204.16    6.89
  -2   5   2  261.18    7.49
  -2   5   2  215.69    6.69
   2  -5  -2  228.32    6.15
   2  -5  -2  215.01    6.02
   2  -5  -2  232.79    6.40
   2  -5  -2  207.29    6.12
   2  -5  -2  215.15    6.38
  -2   5   1   26.40    1.92
   2  -5  -1   31.92    1.92
  -2   5   1   23.39    1.80
   2  -5  -1   28.32    1.62
  -2   5   1   30.87    2.25
   2  -5  -1   27.56    1.61
   2  -5  -1   26.41    1.66
   2  -5  -1   27.80    1.87
  -2   5   1   31.02    2.29
  -2   5   1   34.26    2.45
  -2   5   0   23.13    1.76
  -2   5   0   22.31    1.75
  -2   5   0   24.93    2.03
   2  -5   0   22.26    1.42
   2  -5   0   22.41    1.41
   2  -5   0   21.70    1.47
  -2   5   0   20.03    1.37
   2  -5   0   23.03    1.73
  -2   5   0   21.04    1.77
  -2   5   0   24.16    2.10
  -2   5   0   24.24    2.15
  -2   5  -1 1902.52   39.37
   2  -5   1 1730.50   38.29
  -2   5  -1 2131.19   41.10
  -2   5  -1 2029.81   41.23
  -2   5  -1 1835.29   39.65
   2  -5   1 1918.33   38.29
   2  -5   1 1920.87   38.52
   2  -5   1 1867.01   38.63
  -2   5  -1 1804.48   38.10
   2  -5   1 1896.38   39.19
  -2   5  -2   21.30    1.29
   2  -5   2   17.65    1.32
   2  -5   2   18.41    1.33
   2  -5   2   20.66    1.39
   2  -5   2   17.57    1.30
  -2   5  -2   21.41    1.65
   2  -5   3  691.79   15.54
  -2   5  -3  653.82   15.15
   2  -5   3  698.90   15.69
  -2   5  -3  724.20   17.78
  -2   5  -3  710.74   17.87
   2  -5   3  734.49   15.72
   2  -5   3  701.14   15.70
  -2   5  -3  710.31   16.39
   2  -5   4  247.46    6.89
   2  -5   4  256.89    6.98
  -2   5  -4  245.68    8.22
  -2   5  -4  265.55    8.52
   2  -5   4  265.86    7.06
   2  -5   4  256.30    7.01
   2  -5   5  386.21    9.75
  -2   5  -5  459.55   12.44
   2  -5   5  414.77    9.92
  -2   5  -5  388.43   10.24
   2  -5   5  380.48    9.76
   2  -5   5  383.28    9.78
  -2   5  -5  353.64   10.65
  -2   5  -5  412.01   11.14
  -2   5  -5  357.00   10.73
   2  -5   6    0.31    0.26
   2  -5   6    0.18    0.27
  -2   5  -6    0.06    0.19
  -2   5  -6    0.16    0.33
   2  -5   6   -0.05    0.18
  -2   5  -6    0.06    0.22
   2  -5   7  103.10    4.02
  -2   5  -7  112.96    5.78
  -2   5  -7   83.92    3.82
  -2   5  -7  120.37    5.55
  -2   5  -7  108.70    4.52
   2  -5   7  106.74    4.07
   2  -5   7  102.91    4.17
  -2   5  -7  107.58    4.77
   2  -5   7   99.51    4.14
   2  -5   7  108.15    4.03
   2  -5   7   93.92    3.82
  -2   5  -8   36.79    3.09
  -2   5  -8   39.04    3.31
   2  -5   8   39.45    2.34
   2  -5   8   34.93    2.40
  -2   5  -8   31.06    2.42
  -2   5  -8   34.72    2.70
   2  -5   8   35.98    2.19
   2  -5   8   33.02    2.34
  -2   5  -8   33.77    2.62
   2  -5   9  131.15    4.54
   2  -5   9  130.37    4.98
  -2   5  -9  120.90    6.05
  -2   5  -9  137.11    6.37
  -2   5  -9  123.28    5.34
   2  -5   9  133.99    4.90
   2  -5   9  128.12    5.26
  -2   5  -9  138.27    5.95
   2  -5   9  126.71    5.25
   2  -5   9  133.54    4.77
  -2   5  -9  118.07    5.54
   2  -5  10   11.55    1.37
  -2   5 -10   14.19    2.01
   2  -5  10   10.74    1.61
  -2   5 -10   13.94    1.68
   2  -5  10   11.34    1.33
   2  -5  10   10.23    1.45
   2  -5  10   12.18    1.57
  -2   5 -10   12.19    1.70
   2  -5  10   10.34    1.21
   2  -5  10   10.71    1.18
  -2   5 -11   29.83    2.80
   2  -5  11   30.18    2.73
  -2   5 -11   31.90    2.57
   2  -5  11   30.41    2.16
   2  -5  11   30.99    2.53
   2  -5  11   31.70    2.54
  -2   5 -11   27.29    2.54
   2  -5  11   30.09    2.03
   2  -5  11   30.39    2.26
   2  -5  12    7.98    1.27
   2  -5  12    6.75    0.99
  -2   5 -12    6.94    1.21
   2  -5  12    7.21    1.35
  -2   5 -12    7.94    1.41
   2  -5  12    6.75    1.21
  -2   5 -12    6.31    1.23
  -2   5 -12    9.82    1.55
   2  -5  13    4.38    1.01
  -2   5 -13    4.13    1.00
   2  -5  13    4.10    0.93
  -2   5 -13    5.31    1.09
  -2   5 -13    4.98    0.96
   2  -5  13    5.17    1.01
  -2   5 -14   23.88    1.91
   2  -5  14   23.47    1.94
  -2   5 -14   24.91    2.05
  -2   5 -14   26.92    2.03
   2  -5  14   25.96    2.19
   2  -5  14   23.06    1.94
   2  -5  15    8.11    1.00
  -2   5 -15    8.41    0.99
   2  -5  15    9.27    1.13
  -2   5 -15    8.00    1.00
  -2   5 -16   41.84    1.86
   2  -4 -13    4.31    0.85
   2  -4 -13    5.87    0.80
   2  -4 -13    4.36    0.71
  -2   4  13    3.68    0.70
  -2   4  12    3.99    0.84
   2  -4 -12    5.68    0.93
  -2   4  12    4.55    0.85
   2  -4 -12    6.24    1.18
  -2   4  11    3.95    0.92
  -2   4  11    3.82    0.91
   2  -4 -11    5.27    0.92
   2  -4 -11    4.93    0.94
  -2   4  11    7.50    1.18
   2  -4 -11    4.57    0.84
   2  -4 -11    4.95    1.13
  -2   4  10  393.80   11.69
   2  -4 -10  380.30   11.01
  -2   4  10  395.09   11.66
   2  -4 -10  399.39   10.59
  -2   4  10  398.54   11.70
   2  -4 -10  380.02   10.57
  -2   4  10  387.19   11.68
   2  -4 -10  385.92   10.46
   2  -4 -10  363.55   10.01
  -2   4  10  374.97   11.28
   2  -4  -9   33.90    2.35
  -2   4   9   34.16    2.54
   2  -4  -9   34.11    2.53
  -2   4   9   32.37    2.85
   2  -4  -9   33.21    2.30
  -2   4   9   35.00    2.81
   2  -4  -9   33.93    2.27
   2  -4  -9   35.02    2.19
   2  -4  -9   35.47    2.28
  -2   4   9   31.01    2.60
   2  -4  -8    1.92    0.57
   2  -4  -8    1.05    0.44
  -2   4   8    0.96    0.50
   2  -4  -8    0.94    0.44
   2  -4  -8    1.27    0.49
  -2   4   8    1.21    0.60
   2  -4  -8    1.24    0.53
   2  -4  -8    2.83    0.64
   2  -4  -8    1.13    0.43
  -2   4   8    1.51    0.67
   2  -4  -8    0.77    0.44
   2  -4  -7    0.94    0.41
   2  -4  -7    0.05    0.23
   2  -4  -7    0.36    0.27
   2  -4  -7    0.10    0.30
  -2   4   7    0.57    0.43
   2  -4  -7    0.09    0.21
   2  -4  -7   -0.07    0.20
  -2   4   6  474.46   12.85
  -2   4   6  450.59   12.53
   2  -4  -6  486.67   11.35
   2  -4  -6  493.25   11.41
  -2   4   6  513.13   13.22
   2  -4  -6  466.57   11.58
   2  -4  -6  425.17   11.95
   2  -4  -6  459.02   12.25
  -2   4   5  163.56    6.02
   2  -4  -5  164.21    4.92
   2  -4  -5  176.62    5.02
  -2   4   5  167.60    5.98
  -2   4   5  195.59    6.48
   2  -4  -5  169.77    5.20
   2  -4  -5  169.15    5.74
  -2   4   5  145.78    4.91
   2  -4  -5  169.79    5.79
  -2   4   4  109.65    4.59
  -2   4   4  113.72    4.64
   2  -4  -4  117.03    3.78
  -2   4   4  124.97    4.45
  -2   4   4  133.89    4.98
   2  -4  -4  122.91    4.07
   2  -4  -4  121.00    4.48
  -2   4   4  121.34    4.21
   2  -4  -4  116.02    4.45
  -2   4   3  145.88    5.18
  -2   4   3  155.27    4.95
   2  -4  -3  147.76    4.32
  -2   4   3  151.13    5.31
   2  -4  -3  153.30    4.61
  -2   4   3  146.66    4.48
   2  -4  -3  156.23    5.08
  -2   4   2   15.49    1.35
   2  -4  -2   13.63    1.21
  -2   4   2   11.31    1.13
  -2   4   2   12.77    0.96
   2  -4  -2   13.89    1.28
   2  -4  -2   13.30    1.07
  -2   4   1  135.20    4.74
  -2   4   1  128.63    4.32
   2  -4  -1  129.53    4.22
  -2   4   1  128.75    3.64
   2  -4  -1  121.98    4.35
   2  -4  -1  122.99    4.08
  -2   4   0   53.60    2.87
  -2   4   0   54.07    2.50
  -2   4   0   56.31    1.90
   2  -4   0   50.75    2.26
  -2   4   0   49.33    1.92
   2  -4   0   51.90    2.31
  -2   4  -1  604.82   12.51
   2  -4   1  588.40   13.20
  -2   4  -1  594.41   13.79
  -2   4  -1  576.62   12.59
   2  -4   2   49.60    2.19
  -2   4  -2   46.89    1.70
  -2   4  -3   89.42    3.93
   2  -4   3   96.08    3.37
  -2   4  -3   87.59    3.78
  -2   4  -4   95.69    3.97
  -2   4  -4   96.94    4.28
   2  -4   4  102.25    3.56
  -2   4  -5  334.53    9.23
  -2   4  -5  358.62   10.12
   2  -4   5  376.12    9.17
  -2   4  -5  359.81   10.60
   2  -4   5  353.56    8.59
   2  -4   5  351.92    8.88
   2  -4   6  383.38    9.43
  -2   4  -6  385.33   11.78
  -2   4  -6  374.29   10.24
   2  -4   6  360.63    9.47
   2  -4   6  376.17    9.51
  -2   4  -6  408.13   10.83
   2  -4   6  369.00    9.55
   2  -4   7    4.49    0.82
  -2   4  -7    4.85    1.13
  -2   4  -7    4.84    1.12
  -2   4  -7    4.72    0.91
   2  -4   7    5.14    0.82
   2  -4   7    3.83    0.73
  -2   4  -7    5.82    1.07
   2  -4   7    4.28    0.75
   2  -4   8  238.16    7.21
   2  -4   8  227.40    6.67
  -2   4  -8  210.82    8.21
  -2   4  -8  250.12    9.11
  -2   4  -8  229.51    8.42
  -2   4  -8  213.22    7.42
   2  -4   8  228.33    6.66
   2  -4   8  209.72    6.91
  -2   4  -8  241.71    8.25
   2  -4   8  209.31    6.81
  -2   4  -8  191.62    7.31
   2  -4   9  180.26    6.27
   2  -4   9  181.57    5.87
  -2   4  -9  148.60    6.60
  -2   4  -9  182.51    7.88
   2  -4   9  176.87    6.90
   2  -4   9  190.90    5.87
   2  -4   9  172.30    6.29
  -2   4  -9  175.53    6.74
  -2   4  -9  201.29    7.55
   2  -4   9  173.05    6.16
   2  -4   9  186.84    5.67
   2  -4  10    9.96    1.22
  -2   4 -10   10.96    1.80
  -2   4 -10   11.71    1.77
   2  -4  10    8.27    1.42
  -2   4 -10   10.58    1.52
   2  -4  10   11.08    1.21
   2  -4  10   10.39    1.44
   2  -4  10   11.67    1.20
  -2   4 -10    9.76    1.60
   2  -4  10    9.91    1.37
   2  -4  10   12.42    1.29
   2  -4  11   80.51    3.66
  -2   4 -11   75.19    4.66
   2  -4  11   80.58    4.54
  -2   4 -11   80.33    4.65
  -2   4 -11   77.79    4.25
   2  -4  11   77.59    3.45
   2  -4  11   84.23    4.26
   2  -4  11   84.69    4.21
   2  -4  11   74.94    3.22
  -2   4 -11   84.86    4.74
   2  -4  11   75.57    3.80
  -2   4 -11   82.51    4.03
   2  -4  12    2.13    0.60
  -2   4 -12    4.40    1.05
   2  -4  12    2.82    0.63
   2  -4  12    2.85    0.80
   2  -4  12    2.82    0.86
  -2   4 -12    3.33    0.97
  -2   4 -12    5.10    1.06
   2  -4  12    2.81    0.72
   2  -4  12    3.14    0.82
  -2   4 -12    3.14    0.93
  -2   4 -12    2.36    0.81
  -2   4 -13   57.68    3.41
   2  -4  13   58.88    3.40
  -2   4 -13   60.62    3.47
  -2   4 -13   52.98    3.40
   2  -4  13   53.91    3.52
  -2   4 -14    8.85    1.22
   2  -4  14   11.15    1.36
   2  -4  14    9.94    1.38
  -2   4 -14    9.05    1.24
   2  -4  15   16.00    1.41
  -2   4 -15   17.64    1.49
   2  -4  15   17.62    1.50
   2  -4  15   17.41    1.56
  -2   4 -15   19.06    1.53
   2  -3 -14    2.61    0.61
  -2   3  14    1.65    0.46
  -2   3  13   88.49    3.95
   2  -3 -13  102.30    4.68
   2  -3 -13   95.85    4.05
   2  -3 -12   61.68    3.44
   2  -3 -12   59.51    3.10
   2  -3 -12   57.79    2.93
  -2   3  12   55.84    3.36
   2  -3 -11  306.72    9.46
  -2   3  11  286.76    8.98
  -2   3  11  299.08    9.61
   2  -3 -11  292.08    8.64
   2  -3 -11  279.35    8.35
  -2   3  11  291.91    9.64
  -2   3  10    5.85    1.01
  -2   3  10    7.94    1.31
   2  -3 -10    6.76    1.19
  -2   3  10    5.87    1.19
  -2   3  10    7.18    1.32
   2  -3 -10    5.55    0.96
   2  -3 -10    6.14    0.98
  -2   3  10    7.41    1.38
   2  -3 -10    7.20    1.09
   2  -3  -9    1.19    0.46
   2  -3  -9    0.11    0.29
  -2   3   9    0.97    0.47
   2  -3  -9    0.16    0.24
  -2   3   9    0.43    0.39
   2  -3  -9    0.07    0.29
   2  -3  -9    0.37    0.35
   2  -3  -9    1.20    0.44
  -2   3   9    0.09    0.28
   2  -3  -8   22.63    1.98
   2  -3  -8   25.21    2.13
  -2   3   8   27.61    2.57
   2  -3  -8   24.48    1.77
  -2   3   8   25.87    2.36
  -2   3   8   23.65    2.04
   2  -3  -8   26.39    1.79
   2  -3  -8   24.94    1.74
   2  -3  -8   26.28    2.09
  -2   3   7  491.05   12.71
   2  -3  -7  482.81   11.40
   2  -3  -7  439.86   12.21
   2  -3  -7  470.40   12.24
   2  -3  -7  459.52   11.52
   2  -3  -7  503.62   11.58
  -2   3   7  506.14   13.35
  -2   3   6    8.12    1.14
   2  -3  -6    7.20    0.80
   2  -3  -6    7.56    0.87
   2  -3  -6    6.64    1.00
   2  -3  -6    7.20    0.99
  -2   3   5  155.59    5.54
   2  -3  -5  155.54    4.49
  -2   3   5  150.75    5.39
  -2   3   5  174.16    5.81
   2  -3  -5  164.38    4.71
   2  -3  -5  150.65    5.33
  -2   3   5  143.70    4.55
   2  -3  -5  165.41    5.28
  -2   3   4  658.28   15.85
  -2   3   4  643.97   15.87
   2  -3  -3   39.17    1.64
   2  -3  -3   41.89    2.14
   2  -3  -3   44.31    2.27
  -2   3   3   42.29    1.70
  -2   3   3   44.18    2.12
   2  -3  -2  854.29   18.57
   2  -3  -2  890.52   17.97
   2  -3  -2  813.06   18.53
  -2   3   2  834.76   18.08
  -2   3   2  828.45   17.83
  -2   3   2  864.61   18.60
   2  -3  -1  932.80   20.47
   2  -3  -1  953.96   19.99
   2  -3  -1  939.05   20.44
  -2   3   1  987.42   20.06
  -2   3   1  924.53   20.04
   2  -3   0  107.28    3.39
  -2   3   0  102.26    3.12
  -2   3   0  108.89    3.83
   2  -3   1  140.63    3.97
  -2   3  -1  145.02    3.85
  -2   3  -1  143.94    4.66
   2  -3   2  186.07    4.80
   2  -3   2  176.47    4.81
   2  -3   2  181.30    4.34
  -2   3  -2  179.88    5.33
   2  -3   3  121.38    3.81
  -2   3  -3  110.19    4.02
   2  -3   4  410.77    9.79
  -2   3  -4  383.27   10.24
  -2   3  -5   95.27    4.09
  -2   3  -5   92.92    4.11
  -2   3  -6  181.28    6.55
  -2   3  -6  193.12    6.46
   2  -3   6  188.60    5.64
  -2   3  -6  196.40    7.21
   2  -3   6  183.86    5.52
  -2   3  -6  200.69    6.90
  -2   3  -6  212.19    5.72
   2  -3   7    1.60    0.47
  -2   3  -7    1.49    0.67
  -2   3  -7    1.97    0.51
  -2   3  -7    1.49    0.61
   2  -3   7    1.68    0.46
  -2   3  -7    1.18    0.52
   2  -3   7    2.12    0.55
  -2   3  -7    2.67    0.71
  -2   3  -8   32.22    2.44
   2  -3   8   47.47    2.66
  -2   3  -8   38.48    3.30
  -2   3  -8   38.84    2.37
   2  -3   8   42.01    2.49
  -2   3  -8   43.66    2.97
   2  -3   8   40.05    2.34
   2  -3   8   42.82    2.41
   2  -3   8   40.97    2.17
   2  -3   9  306.90    8.55
   2  -3   9  285.79    7.82
  -2   3  -9  271.48   10.10
  -2   3  -9  263.40    8.03
  -2   3  -9  285.82    9.69
   2  -3   9  257.70    8.92
   2  -3   9  264.78    8.30
  -2   3  -9  277.86    9.23
   2  -3   9  262.22    8.06
   2  -3   9  282.86    8.24
   2  -3   9  278.82    7.68
   2  -3  10    4.23    0.79
  -2   3 -10    3.91    0.90
   2  -3  10    6.02    1.01
   2  -3  10    3.52    0.70
  -2   3 -10    4.82    1.21
  -2   3 -10    5.67    1.27
   2  -3  10    6.48    1.26
   2  -3  10    4.70    0.95
  -2   3 -10    3.81    1.02
   2  -3  10    4.73    0.95
   2  -3  10    4.87    0.92
  -2   3 -10    3.89    1.02
   2  -3  11   23.00    1.96
   2  -3  11   22.37    1.75
  -2   3 -11   19.83    2.27
  -2   3 -11   23.40    2.40
  -2   3 -11   23.90    2.47
   2  -3  11   20.75    2.26
   2  -3  11   21.84    1.67
   2  -3  11   21.95    2.07
  -2   3 -11   21.63    2.26
   2  -3  11   21.07    1.97
  -2   3 -11   25.47    2.61
   2  -3  11   21.82    2.00
  -2   3 -11   21.79    1.99
   2  -3  12    5.56    0.88
  -2   3 -12    4.73    1.04
  -2   3 -12    5.90    1.20
   2  -3  12    5.81    1.11
   2  -3  12    5.43    1.17
  -2   3 -12    6.01    1.14
  -2   3 -12    6.76    1.33
   2  -3  12    5.51    1.05
  -2   3 -12    6.14    1.24
  -2   3 -13  194.23    7.32
   2  -3  13  188.99    6.66
   2  -3  13  183.58    6.43
  -2   3 -13  192.94    7.12
   2  -3  13  191.22    6.83
   2  -3  13  181.30    7.09
  -2   3 -13  190.41    7.07
   2  -3  14    2.69    0.68
   2  -3  14    2.54    0.72
  -2   3 -14    1.95    0.62
   2  -3  14    2.24    0.62
  -2   3 -14    2.32    0.64
   2  -3  15   28.97    1.88
  -2   3 -15   32.80    2.08
   2  -3  15   30.85    1.99
  -2   3 -15   35.32    2.04
   2  -2 -15  101.26    3.49
   2  -2 -14   10.74    1.21
  -2   2  14   10.34    1.21
  -2   2  14    9.34    1.16
   2  -2 -14   10.32    1.13
   2  -2 -13  266.87    7.76
  -2   2  13  246.04    8.19
  -2   2  13  256.48    8.25
   2  -2 -13  263.23    7.97
   2  -2 -12   85.83    4.40
   2  -2 -12   79.20    3.80
   2  -2 -12   77.11    3.67
  -2   2  12   78.59    4.28
  -2   2  12   79.46    4.20
   2  -2 -12   78.60    3.80
   2  -2 -11   14.20    1.78
  -2   2  11   10.64    1.38
   2  -2 -11   11.24    1.40
   2  -2 -11   11.27    1.38
   2  -2 -11   12.28    1.41
  -2   2  11   15.74    1.93
   2  -2 -10  369.71   10.07
  -2   2  10  409.90   12.20
   2  -2 -10  361.91    9.66
  -2   2  10  382.43   10.62
   2  -2 -10  389.14   11.46
  -2   2  10  350.07   10.76
   2  -2 -10  373.20   10.23
   2  -2 -10  395.60   10.32
   2  -2 -10  394.43   10.99
   2  -2  -9    4.56    0.88
   2  -2  -9    2.96    0.63
  -2   2   9    3.29    0.91
  -2   2   9    3.88    0.82
  -2   2   9    3.32    0.84
  -2   2   9    3.61    0.93
   2  -2  -9    3.30    0.69
  -2   2   9    3.05    0.85
  -2   2   9    4.82    1.07
   2  -2  -9    2.57    0.65
   2  -2  -9    2.85    0.71
   2  -2  -8   40.69    2.65
   2  -2  -8   40.33    2.10
  -2   2   8   42.48    2.67
   2  -2  -8   45.28    2.31
  -2   2   8   43.85    2.96
   2  -2  -8   40.62    2.50
   2  -2  -8   38.38    1.98
  -2   2   8   45.23    3.24
  -2   2   8   40.25    2.91
   2  -2  -7   86.74    3.95
   2  -2  -7   84.17    3.16
   2  -2  -7   95.75    3.36
  -2   2   7   92.60    4.25
  -2   2   7   90.33    3.95
   2  -2  -7   88.62    3.13
  -2   2   7   84.10    4.37
   2  -2  -7   90.09    3.67
   2  -2  -6  167.51    4.61
  -2   2   6  157.09    5.50
   2  -2  -6  158.91    5.63
   2  -2  -6  175.01    5.28
   2  -2  -6  167.14    4.68
  -2   2   6  147.77    5.64
  -2   2   5    5.50    0.83
   2  -2  -5    5.20    0.73
  -2   2   5    5.91    0.66
  -2   2   5    8.01    0.78
   2  -2  -5    6.33    0.92
   2  -2  -4    0.83    0.30
  -2   2   4    0.66    0.24
   2  -2  -3  157.13    4.43
   2  -2  -3  161.13    4.83
  -2   2   3  158.24    4.45
  -2   2   3  152.21    4.63
   2  -2  -2    3.69    0.53
   2  -2  -2    3.15    0.36
   2  -2  -2    3.31    0.56
  -2   2   2    3.64    0.53
   2  -2  -1   58.51    2.23
   2  -2  -1   61.50    2.41
  -2   2   1   59.47    2.25
   2  -2   0   14.58    0.87
   2  -2   0   12.46    0.49
   2  -2   0   15.81    1.02
  -2   2   0   14.12    0.96
   2  -2   1  434.23    9.48
   2  -2   1  446.14    9.36
  -2   2  -1  435.09    9.46
   2  -2   2  543.40   11.37
   2  -2   2  481.27   10.39
   2  -2   2  499.61   10.65
   2  -2   2  526.23   11.44
  -2   2  -2  503.68   11.05
   2  -2   3   30.52    1.25
   2  -2   3   31.58    1.65
   2  -2   3   34.74    1.77
  -2   2  -3   33.30    1.75
   2  -2   4   31.81    1.43
   2  -2   4   35.46    1.85
  -2   2  -4   35.11    1.81
   2  -2   4   35.65    1.86
   2  -2   5    3.04    0.46
   2  -2   5    3.55    0.62
   2  -2   5    3.47    0.60
  -2   2  -5    4.05    0.59
   2  -2   6    1.73    0.41
  -2   2  -6    0.52    0.40
  -2   2  -6    1.02    0.39
  -2   2  -6    0.72    0.28
   2  -2   6    2.57    0.53
  -2   2  -6    1.45    0.53
  -2   2  -6    1.35    0.57
   2  -2   7   43.71    2.29
   2  -2   7   55.36    2.75
  -2   2  -7   39.48    3.07
  -2   2  -7   46.23    2.61
  -2   2  -7   50.18    3.22
   2  -2   7   47.69    2.45
   2  -2   7   47.05    2.37
  -2   2  -7   54.07    3.56
   2  -2   7   46.57    2.34
   2  -2   7   48.73    2.46
   2  -2   8  119.88    4.52
   2  -2   8  105.16    4.15
  -2   2  -8  100.47    5.28
  -2   2  -8  104.86    4.35
  -2   2  -8  109.90    5.11
   2  -2   8  106.86    4.23
   2  -2   8  101.93    4.03
  -2   2  -8  115.95    5.76
   2  -2   8  104.72    4.08
   2  -2   8  112.46    3.93
   2  -2   9   47.30    2.74
  -2   2  -9   36.82    3.10
  -2   2  -9   37.11    2.50
  -2   2  -9   51.82    3.47
  -2   2  -9   40.84    3.12
   2  -2   9   39.73    2.94
   2  -2   9   40.93    2.59
   2  -2   9   41.09    2.49
  -2   2  -9   46.53    3.65
   2  -2   9   38.94    2.49
  -2   2  -9   39.07    2.72
   2  -2   9   44.38    2.37
  -2   2 -10    0.37    0.35
   2  -2  10    0.26    0.29
   2  -2  10    0.05    0.23
  -2   2 -10    0.57    0.45
  -2   2 -10    1.72    0.57
   2  -2  10    0.18    0.31
  -2   2 -10   -0.18    0.33
   2  -2  10    0.14    0.27
   2  -2  10    0.13    0.30
  -2   2 -10    0.12    0.39
  -2   2 -10    0.10    0.32
   2  -2  11   19.73    1.57
  -2   2 -11   13.64    1.73
  -2   2 -11   17.80    1.74
  -2   2 -11   17.82    2.10
   2  -2  11   17.57    2.06
   2  -2  11   17.18    1.82
  -2   2 -11   21.08    2.47
   2  -2  11   16.04    1.75
  -2   2 -11   18.76    1.84
   2  -2  12    0.18    0.25
  -2   2 -12    1.27    0.49
   2  -2  12    0.19    0.34
   2  -2  12    0.07    0.33
  -2   2 -12   -0.10    0.31
   2  -2  12    0.07    0.27
  -2   2 -12   -0.09    0.30
   2  -2  13   24.78    2.00
  -2   2 -13   23.29    2.22
   2  -2  13   25.23    2.07
   2  -2  13   21.08    2.13
  -2   2 -13   23.25    2.15
   2  -2  13   23.52    2.06
   2  -2  14    8.18    1.09
   2  -2  14    7.70    1.05
  -2   2 -14    9.67    1.22
   2  -2  14    8.97    1.18
   2  -1 -15    4.80    0.75
  -2   1  15    4.61    0.75
  -2   1  15    4.56    0.76
   2  -1 -15    3.74    0.67
   2  -1 -14   34.19    2.39
   2  -1 -14   31.85    2.10
  -2   1  14   27.94    2.16
  -2   1  14   32.63    2.29
   2  -1 -14   33.29    2.16
   2  -1 -13   64.82    3.72
  -2   1  13   53.44    3.29
   2  -1 -13   60.54    3.22
   2  -1 -13   58.38    3.17
   2  -1 -13   57.71    3.11
  -2   1  13   54.22    3.33
  -2   1  13   57.58    3.47
   2  -1 -12    4.63    0.80
   2  -1 -12    5.15    1.12
   2  -1 -12    5.25    0.99
   2  -1 -12    5.31    0.97
  -2   1  12    4.99    1.12
  -2   1  12    4.84    1.07
   2  -1 -12    5.20    0.94
   2  -1 -11    0.35    0.29
  -2   1  11    0.35    0.43
   2  -1 -11    0.44    0.43
   2  -1 -11    0.12    0.39
   2  -1 -11    0.50    0.40
  -2   1  11    1.51    0.67
   2  -1 -10  101.13    4.63
   2  -1 -10  112.05    4.20
  -2   1  10  122.67    5.74
  -2   1  10  118.84    4.82
   2  -1 -10  113.22    4.45
  -2   1  10  109.87    5.22
   2  -1 -10  125.75    4.73
   2  -1 -10  121.78    4.58
   2  -1 -10  122.52    4.98
   2  -1  -9   21.77    1.96
  -2   1   9   21.25    2.24
   2  -1  -9   18.32    1.41
  -2   1   9   19.29    1.78
  -2   1   9   21.60    1.91
   2  -1  -9   20.21    1.56
   2  -1  -9   21.14    1.60
   2  -1  -9   19.42    1.72
   2  -1  -9   18.46    1.35
   2  -1  -8  508.99   13.68
  -2   1   8  537.43   13.49
   2  -1  -8  511.17   12.08
   2  -1  -8  558.28   12.58
   2  -1  -8  543.97   12.60
   2  -1  -8  530.13   13.00
   2  -1  -8  504.04   12.18
   2  -1  -7  431.95    9.69
  -2   1   7  441.41   11.59
  -2   1   7  399.34   11.16
  -2   1   7  404.68   10.86
   2  -1  -7  392.06   11.11
   2  -1  -7  403.43   10.29
  -2   1   6  151.45    5.50
  -2   1   6  139.31    4.82
   2  -1  -6  136.20    4.29
   2  -1  -6  134.01    5.01
  -2   1   6  133.35    5.04
  -2   1   6  130.25    4.93
  -2   1   5   58.48    2.27
   2  -1  -5   66.95    3.09
   2  -1  -5   58.17    2.39
  -2   1   5   69.25    2.42
  -2   1   4   76.13    2.73
  -2   1   4   88.77    3.55
   2  -1  -4   71.38    2.64
  -2   1   4   85.71    2.84
  -2   1   3 2011.26   40.21
   2  -1  -3 1746.15   40.07
  -2   1   3 2074.41   39.73
   2  -1  -3 2096.97   39.21
  -2   1   3 1660.78   39.42
  -2   1   3 2013.05   39.68
   2  -1  -3 2081.30   39.45
  -2   1   2  506.87   11.94
   2  -1  -2  532.46   12.25
  -2   1   2  540.49   12.00
  -2   1   2  496.01   11.92
   2  -1  -2  531.86   11.58
   2  -1  -1   87.90    2.05
   2  -1  -1   86.53    2.96
  -2   1   1   86.87    2.97
  -2   1   1   78.68    2.81
   2  -1  -1   81.28    2.33
   2  -1   0  258.54    6.40
  -2   1   0  263.06    6.68
  -2   1   0  276.10    6.73
  -2   1   0  256.61    6.50
  -2   1   0  278.21    6.84
   2  -1   0  254.79    6.11
  -2   1  -1  956.16   20.67
  -2   1  -1 1031.35   21.04
   2  -1   1 1032.37   20.41
   2  -1   1  995.02   20.17
   2  -1   1  952.76   20.51
   2  -1   2  154.90    3.67
  -2   1  -2  161.83    4.41
   2  -1   2  159.69    4.37
  -2   1  -2  145.49    4.16
  -2   1  -2  154.53    4.46
   2  -1   2  139.60    3.84
   2  -1   2  153.92    4.26
  -2   1  -3  295.26    7.06
   2  -1   3  283.96    7.00
   2  -1   4  132.22    4.14
   2  -1   4  120.33    3.69
  -2   1  -4  125.42    3.92
  -2   1  -5    0.27    0.17
   2  -1   5    0.71    0.31
   2  -1   5    0.58    0.25
   2  -1   5    0.94    0.33
  -2   1  -5    0.55    0.23
  -2   1  -6 2061.98   43.54
   2  -1   6 2092.99   42.55
  -2   1  -6 2171.84   44.81
  -2   1  -6 2080.97   44.76
   2  -1   6 2077.20   42.47
   2  -1   6 2060.35   42.74
   2  -1   7  118.57    3.92
   2  -1   7  118.46    4.01
  -2   1  -7  116.05    4.65
  -2   1  -7  124.02    5.58
   2  -1   7  108.23    4.12
  -2   1  -7  123.02    5.71
   2  -1   7  119.47    4.14
   2  -1   7  114.18    4.10
   2  -1   7  128.51    4.58
  -2   1  -8  509.85   13.56
   2  -1   8  560.89   12.63
   2  -1   8  522.55   12.76
  -2   1  -8  538.45   13.68
  -2   1  -8  524.93   14.25
  -2   1  -8  574.88   15.57
   2  -1   8  534.44   13.06
  -2   1  -8  539.32   15.52
   2  -1   8  524.77   12.92
   2  -1   8  506.18   12.90
   2  -1   8  586.52   13.56
   2  -1   9   11.54    1.35
   2  -1   9   15.04    1.55
  -2   1  -9   12.79    1.53
  -2   1  -9   10.54    1.57
   2  -1   9   13.11    1.67
  -2   1  -9   14.91    2.06
   2  -1   9   12.99    1.45
  -2   1  -9   13.11    1.97
   2  -1   9   14.30    1.47
   2  -1   9   13.82    1.32
  -2   1  -9   11.59    1.48
  -2   1 -10    1.18    0.52
   2  -1  10    1.34    0.51
   2  -1  10    3.07    0.73
  -2   1 -10    0.88    0.46
  -2   1 -10    0.76    0.46
   2  -1  10    1.46    0.63
   2  -1  10    1.15    0.54
  -2   1 -10    3.29    1.01
   2  -1  10    0.61    0.41
   2  -1  10    0.60    0.40
  -2   1 -10    1.29    0.73
  -2   1 -10    1.12    0.56
  -2   1 -11    1.49    0.58
   2  -1  11    1.92    0.51
  -2   1 -11    2.38    0.69
   2  -1  11    2.24    0.75
   2  -1  11    1.72    0.63
  -2   1 -11    1.81    0.80
   2  -1  11    1.89    0.71
   2  -1  11    1.72    0.58
  -2   1 -11    1.31    0.70
  -2   1 -11    1.94    0.71
  -2   1 -12   27.46    2.60
   2  -1  12   26.39    2.22
   2  -1  12   24.13    2.37
  -2   1 -12   25.41    2.35
   2  -1  12   24.89    2.02
  -2   1 -12   23.98    2.41
   2  -1  12   29.03    2.32
  -2   1 -12   26.46    2.13
  -2   1 -13   11.96    1.57
  -2   1 -13   12.12    1.50
   2  -1  13   12.26    1.36
   2  -1  13   11.63    1.42
  -2   1 -13   10.59    1.23
   2  -1  14   16.40    1.43
   2  -1  14   15.74    1.47
  -2   1 -14   15.69    1.57
  -2   1 -15   11.15    0.91
   2   0 -16    9.48    0.89
   2   0 -15   43.03    2.48
   2   0 -15   39.49    2.26
  -2   0  15   41.15    2.23
  -2   0  15   44.08    2.45
   2   0 -15   42.01    2.36
  -2   0  14    0.40    0.32
   2   0 -14    0.38    0.31
   2   0 -14    0.23    0.31
  -2   0  14    0.14    0.29
   2   0 -14    0.29    0.38
   2   0 -13    1.67    0.60
   2   0 -13    2.03    0.62
  -2   0  13    3.40    0.89
   2   0 -13    2.42    0.59
  -2   0  13    1.32    0.57
   2   0 -13    2.19    0.63
   2   0 -12    9.89    1.32
   2   0 -12   10.10    1.22
   2   0 -12   10.14    1.30
  -2   0  12    9.41    1.47
   2   0 -11    1.13    0.45
  -2   0  11    1.10    0.57
   2   0 -11    0.95    0.47
   2   0 -11    1.51    0.55
  -2   0  11    1.30    0.63
   2   0 -10   42.76    2.93
  -2   0  10   38.43    2.97
   2   0 -10   44.78    2.51
  -2   0  10   49.69    3.21
  -2   0  10   49.74    3.41
   2   0 -10   48.16    2.61
   2   0 -10   49.00    2.86
   2   0 -10   49.34    2.35
   2   0  -9  105.72    4.79
  -2   0   9  109.91    5.15
   2   0  -9   99.12    3.79
  -2   0   9  100.53    4.68
   2   0  -9  111.18    3.97
   2   0  -9  107.06    4.23
   2   0  -9  105.65    3.71
   2   0  -8   97.64    4.49
  -2   0   8  100.08    4.24
  -2   0   8  106.19    4.83
   2   0  -8   93.69    3.39
   2   0  -8   99.16    3.53
   2   0  -8   98.92    3.78
   2   0  -8   98.29    3.45
   2   0  -7  194.93    5.17
  -2   0   7  189.76    6.07
   2   0  -7  194.49    6.57
   2   0  -7  182.34    5.37
  -2   0   6  293.21    8.25
  -2   0   6  303.68    8.56
   2   0  -6  275.59    7.18
  -2   0   6  300.47    8.11
   2   0  -5  213.69    5.56
  -2   0   5  217.15    5.87
  -2   0   5  234.13    5.97
   2   0  -5  234.43    6.06
   2   0  -4  281.38    6.84
  -2   0   4  283.95    7.43
  -2   0   4  324.41    7.46
  -2   0   4  307.78    7.55
   2   0  -4  325.21    7.55
  -2   0   4  291.72    8.15
  -2   0   3   28.27    1.55
   2   0  -3   23.95    1.11
  -2   0   3   27.72    1.49
  -2   0   3   30.54    1.53
  -2   0   3   26.02    1.53
   2   0  -3   27.71    1.48
  -2   0   3   25.21    1.56
  -2   0   2    4.83    0.62
   2   0  -2    2.41    0.30
  -2   0   2    2.09    0.43
   2   0  -2    2.79    0.28
  -2   0   2    4.25    0.56
  -2   0   2    3.09    0.52
   2   0  -2    3.10    0.38
  -2   0   2    2.52    0.45
   2   0  -2    3.56    0.49
  -2   0   1   31.93    1.62
   2   0  -1   28.72    1.13
  -2   0   1   30.19    1.58
  -2   0   0   19.92    1.31
   2   0   0   18.26    0.75
  -2   0   0   20.33    1.25
  -2   0   0   20.98    1.25
  -2   0  -1  129.29    3.99
  -2   0  -1  133.98    4.05
  -2   0  -1  130.49    3.97
  -2   0  -1  133.67    4.13
   2   0   1  134.76    3.78
  -2   0  -1  132.51    3.89
  -2   0  -2    3.97    0.56
  -2   0  -2    5.04    0.63
   2   0   2    4.38    0.53
  -2   0  -2    4.68    0.60
   2   0   2    4.85    0.58
  -2   0  -3    1.59    0.37
  -2   0  -3    1.55    0.35
   2   0   3    1.79    0.39
  -2   0  -3    1.42    0.34
   2   0   3    2.41    0.41
   2   0   4   31.70    1.67
  -2   0  -4   28.02    1.46
   2   0   4   29.39    1.60
  -2   0  -4   30.41    1.55
  -2   0  -5  965.97   21.17
  -2   0  -5  906.60   20.53
   2   0   5  925.13   19.87
   2   0   5  886.52   19.70
  -2   0  -6 2854.32   58.00
   2   0   6 2853.86   56.25
  -2   0  -6 2725.55   57.14
  -2   0  -6 2739.07   58.60
   2   0   6 2890.80   56.39
   2   0   6 2868.18   56.44
   2   0   7   38.51    1.97
   2   0   7   37.14    2.12
  -2   0  -7   37.00    2.66
  -2   0  -7   35.34    2.98
   2   0   7   39.23    2.21
   2   0   7   38.72    2.22
  -2   0  -8    0.65    0.44
  -2   0  -8    0.14    0.28
   2   0   8    0.76    0.37
   2   0   8    0.26    0.26
  -2   0  -8    0.16    0.38
   2   0   8    0.06    0.29
  -2   0  -8    0.22    0.37
   2   0   8    0.27    0.31
  -2   0  -8    0.20    0.40
   2   0   8    0.55    0.37
   2   0   8    0.11    0.22
   2   0   9   44.70    2.79
   2   0   9   55.42    3.10
  -2   0  -9   45.98    3.17
   2   0   9   46.22    3.18
  -2   0  -9   46.81    3.27
  -2   0  -9   55.96    4.05
   2   0   9   46.74    2.82
  -2   0  -9   45.82    3.56
   2   0   9   44.94    2.60
   2   0   9   45.31    2.75
   2   0   9   49.48    2.60
  -2   0  -9   50.62    3.14
   2   0  10   20.91    2.00
   2   0  10   27.40    2.17
  -2   0 -10   25.41    2.33
   2   0  10   25.66    2.42
  -2   0 -10   24.91    2.42
  -2   0 -10   22.58    2.57
   2   0  10   25.60    1.98
  -2   0 -10   21.39    2.44
   2   0  10   24.79    2.10
  -2   0 -10   25.10    2.20
   2   0  10   23.17    1.89
  -2   0 -11  219.70    7.65
  -2   0 -11  222.22    8.00
  -2   0 -11  231.88    8.69
   2   0  11  226.23    7.08
  -2   0 -11  203.61    7.93
   2   0  11  214.91    7.43
   2   0  11  213.46    6.20
  -2   0 -12    0.49    0.35
  -2   0 -12    0.27    0.38
   2   0  12    0.14    0.28
   2   0  12    1.51    0.52
  -2   0 -12    0.31    0.39
   2   0  13    7.90    1.04
   2   0  13    8.99    1.21
  -2   0 -13    8.06    1.08
  -2   0 -13    9.07    1.27
   2   0  13    8.18    1.13
   2   0  14    6.55    0.89
  -2   0 -14    5.12    0.81
  -2   0 -14    5.01    0.71
   2   0  14    4.95    0.79
   2   1 -16    3.16    0.56
  -2  -1  16    2.61    0.49
   2   1 -15   40.84    2.47
  -2  -1  15   34.86    2.31
   2   1 -15   38.06    2.25
   2   1 -14   31.96    2.09
   2   1 -14   35.10    2.36
  -2  -1  14   32.05    2.49
  -2  -1  14   32.97    2.50
   2   1 -14   34.45    2.17
  -2  -1  14   33.98    2.45
   2   1 -13    0.63    0.38
   2   1 -13    0.54    0.42
  -2  -1  13    0.36    0.41
  -2  -1  13    1.19    0.57
  -2  -1  13    0.55    0.41
   2   1 -13    0.65    0.38
   2   1 -12    4.98    0.89
  -2  -1  12    6.51    1.20
   2   1 -12    5.37    0.93
   2   1 -12    6.36    1.03
   2   1 -12    5.89    1.03
  -2  -1  12    6.32    1.29
  -2  -1  12    7.25    1.34
   2   1 -11   47.87    2.71
  -2  -1  11   46.35    3.15
   2   1 -11   44.58    2.59
  -2  -1  11   44.21    3.22
   2   1 -11   46.01    2.38
   2   1 -11   49.40    2.76
   2   1 -11   48.73    2.85
  -2  -1  11   39.07    3.06
  -2  -1  10   40.71    3.03
   2   1 -10   44.11    2.44
  -2  -1  10   55.00    3.62
  -2  -1  10   52.37    3.27
   2   1 -10   49.34    2.41
   2   1 -10   46.35    2.54
   2   1 -10   53.56    2.84
   2   1 -10   50.25    3.25
  -2  -1   9    3.75    0.86
   2   1  -9    4.24    0.69
  -2  -1   9    4.86    1.08
   2   1  -9    5.43    0.74
   2   1  -9    3.54    0.65
   2   1  -9    3.83    0.73
   2   1  -9    4.02    0.95
   2   1  -8  129.50    4.17
   2   1  -8  138.96    4.57
   2   1  -8  137.01    4.29
  -2  -1   8  131.10    5.16
   2   1  -8  123.45    4.04
  -2  -1   8  145.14    5.85
   2   1  -7  125.69    3.96
  -2  -1   7  112.41    3.69
   2   1  -7  113.51    3.78
  -2  -1   7  120.98    4.66
   2   1  -7  115.31    3.55
  -2  -1   7  119.46    4.96
  -2  -1   6  916.38   18.95
   2   1  -6  888.30   19.17
  -2  -1   6  805.87   20.48
  -2  -1   6  816.24   18.66
   2   1  -6  873.19   18.36
  -2  -1   6  881.57   19.95
  -2  -1   5  231.07    6.20
   2   1  -5  218.20    6.17
  -2  -1   5  201.90    6.60
   2   1  -5  217.73    5.27
  -2  -1   5  196.81    5.82
  -2  -1   4    1.53    0.42
  -2  -1   4    1.14    0.38
   2   1  -4    1.49    0.25
  -2  -1   4    1.21    0.37
   2   1  -3  233.92    5.90
  -2  -1   3  236.33    6.42
   2   1  -3  229.04    5.00
   2   1  -3  241.88    6.25
   2   1  -2  397.91    8.66
   2   1  -2  387.50    9.03
  -2  -1   2  384.69    9.47
  -2  -1   1  297.34    7.73
  -2  -1   1  293.39    7.42
  -2  -1   0  103.30    3.38
   2   1   0  103.61    3.03
   2   1   1   22.76    1.20
  -2  -1  -1   22.21    1.46
  -2  -1  -1   20.98    1.29
   2   1   1   21.10    1.17
   2   1   2  241.79    5.87
  -2  -1  -2  240.82    6.40
   2   1   2  218.43    6.08
  -2  -1  -2  225.54    6.15
   2   1   3  157.15    4.39
  -2  -1  -3  160.55    4.77
  -2  -1  -3  159.15    4.66
   2   1   3  155.95    4.73
  -2  -1  -4 2143.31   42.01
  -2  -1  -4 1815.15   40.79
  -2  -1  -4 1915.88   40.58
  -2  -1  -4 1904.67   39.70
   2   1   4 1877.06   39.47
  -2  -1  -4 2038.63   39.78
   2   1   4 2072.96   40.28
  -2  -1  -5  134.57    4.93
   2   1   5  133.14    4.17
   2   1   5  129.48    4.37
   2   1   5  123.33    3.70
  -2  -1  -5  120.14    3.73
   2   1   6  107.63    3.45
   2   1   6  108.85    3.95
  -2  -1  -6  103.06    4.42
  -2  -1  -6  116.69    5.31
   2   1   6  107.36    3.80
  -2  -1  -6   87.48    4.54
  -2  -1  -6   83.62    4.00
   2   1   6  112.92    4.12
   2   1   7   48.27    2.23
  -2  -1  -7   45.21    2.88
   2   1   7   46.11    2.52
  -2  -1  -7   46.88    2.91
  -2  -1  -7   57.41    3.69
  -2  -1  -7   46.82    3.02
   2   1   7   46.18    2.45
  -2  -1  -7   37.55    3.10
  -2  -1  -7   39.82    2.81
   2   1   7   46.07    2.55
   2   1   7   45.95    2.60
  -2  -1  -8  117.47    5.07
   2   1   8  114.76    4.08
   2   1   8  115.67    4.57
  -2  -1  -8  109.45    4.84
  -2  -1  -8  126.54    5.84
  -2  -1  -8  102.70    5.01
  -2  -1  -8  124.21    6.00
  -2  -1  -8   94.89    4.79
   2   1   8  116.23    4.58
   2   1   8  111.91    4.56
  -2  -1  -9  155.57    6.03
   2   1   9  144.45    5.49
  -2  -1  -9  154.76    6.58
  -2  -1  -9  134.54    5.96
  -2  -1  -9  140.73    6.65
  -2  -1  -9  119.84    5.54
   2   1   9  134.70    5.32
   2   1   9  124.58    5.23
   2   1   9  159.69    5.81
   2   1  10   52.29    3.06
  -2  -1 -10   46.85    3.55
  -2  -1 -10   47.71    3.31
   2   1  10   50.47    2.83
   2   1  10   44.96    2.93
  -2  -1 -10   49.48    3.47
  -2  -1 -11    0.73    0.50
   2   1  11    0.35    0.40
   2   1  11    1.39    0.54
  -2  -1 -11    0.25    0.36
   2   1  12    0.37    0.34
  -2  -1 -12    0.55    0.43
  -2  -1 -12    0.07    0.22
   2   1  12    0.33    0.36
   2   1  12    0.36    0.27
  -2  -1 -12    0.55    0.39
  -2  -1 -13   14.32    1.39
   2   1  13   16.73    1.53
  -2  -1 -13   16.55    1.38
   2   1  13   14.35    1.38
   2   2 -16   79.29    3.15
   2   2 -15    7.42    0.94
   2   2 -15    7.75    1.04
  -2  -2  15    7.60    1.13
  -2  -2  15    9.22    1.21
   2   2 -15    7.78    0.97
   2   2 -14   12.33    1.32
   2   2 -14   11.61    1.39
  -2  -2  14   10.67    1.48
  -2  -2  14   11.78    1.51
   2   2 -13  144.94    5.36
  -2  -2  13  151.07    6.01
   2   2 -13  138.68    5.04
   2   2 -13  144.82    5.54
  -2  -2  13  156.78    6.55
   2   2 -13  141.38    4.83
  -2  -2  13  153.93    6.25
   2   2 -12   49.66    2.86
  -2  -2  12   42.00    3.13
  -2  -2  12   48.01    3.26
   2   2 -12   49.53    2.73
   2   2 -12   46.08    2.75
  -2  -2  12   54.59    3.75
   2   2 -12   52.36    3.02
  -2  -2  12   49.84    3.41
   2   2 -11  159.37    6.44
  -2  -2  11  170.95    7.49
  -2  -2  11  160.79    6.65
   2   2 -11  164.57    5.72
  -2  -2  11  163.91    6.48
   2   2 -11  150.02    5.33
   2   2 -11  154.81    5.25
   2   2 -11  161.94    5.57
   2   2 -11  173.66    5.94
  -2  -2  11  190.38    7.51
  -2  -2  11  142.62    6.23
  -2  -2  10  168.20    7.33
  -2  -2  10  147.29    6.48
  -2  -2  10  157.14    6.40
  -2  -2  10  156.44    6.21
   2   2 -10  142.32    4.99
  -2  -2  10  171.07    6.94
   2   2 -10  146.91    5.14
   2   2 -10  162.90    5.56
  -2  -2  10  181.48    7.22
  -2  -2  10  180.35    7.65
   2   2 -10  162.26    5.15
  -2  -2   9   94.74    5.14
  -2  -2   9   88.57    4.82
  -2  -2   9   85.70    4.38
  -2  -2   9   86.67    4.25
  -2  -2   9   95.94    4.90
   2   2  -9   87.18    3.41
   2   2  -9   90.20    3.65
  -2  -2   9  101.92    5.05
  -2  -2   9  104.53    5.64
   2   2  -9   90.19    3.47
  -2  -2   8  233.49    7.75
  -2  -2   8  230.18    7.53
  -2  -2   8  207.90    8.09
  -2  -2   8  253.15    8.41
   2   2  -8  226.64    6.19
  -2  -2   8  256.41    9.24
   2   2  -8  240.23    6.50
  -2  -2   7    4.27    0.86
   2   2  -7    4.34    0.76
  -2  -2   7    4.75    0.99
  -2  -2   7    3.47    0.94
   2   2  -7    3.84    0.54
  -2  -2   7    6.53    1.11
  -2  -2   7    5.09    0.74
  -2  -2   7    5.00    0.89
   2   2  -6  146.83    4.83
  -2  -2   6  146.38    4.83
  -2  -2   6  118.00    4.92
  -2  -2   6  132.41    5.13
  -2  -2   6  124.71    4.75
   2   2  -6  132.85    4.14
  -2  -2   6  124.75    4.43
  -2  -2   5  295.51    8.24
   2   2  -5  299.42    7.42
  -2  -2   5  322.13    8.49
   2   2  -5  315.77    8.36
  -2  -2   5  279.05    8.25
   2   2  -4    2.48    0.43
   2   2  -4    2.71    0.53
  -2  -2   4    2.26    0.56
   2   2  -4    3.54    0.64
  -2  -2   4    2.10    0.51
   2   2  -3  368.04    8.94
  -2  -2   3  384.64    9.75
   2   2  -3  410.50    8.82
   2   2  -3  397.80    9.58
  -2  -2   3  403.49   10.28
   2   2  -3  424.59   10.02
   2   2  -2  340.14    8.06
  -2  -2   2  353.45    9.32
  -2  -2   2  358.43    8.95
   2   2  -1 1479.61   29.05
   2   2  -1 1332.60   28.23
   2   2  -1 1498.44   29.07
  -2  -2   1 1356.21   29.79
  -2  -2   1 1411.22   29.23
   2   2   0   48.47    2.11
   2   2   0   42.76    1.49
   2   2   0   51.67    1.74
   2   2   0   47.19    2.19
  -2  -2   0   45.78    2.37
  -2  -2   0   44.86    2.06
   2   2   1   77.71    2.93
   2   2   1   74.58    2.30
   2   2   2  112.28    3.83
   2   2   2  110.10    3.83
  -2  -2  -2  100.22    3.81
   2   2   2  104.17    2.99
  -2  -2  -3  133.13    5.31
  -2  -2  -3  131.17    4.47
  -2  -2  -3  136.87    4.88
   2   2   3  141.40    4.62
  -2  -2  -4  140.52    5.91
  -2  -2  -4  110.88    4.02
  -2  -2  -4  116.88    4.63
  -2  -2  -4  129.88    5.11
   2   2   4  121.20    4.13
   2   2   4  125.27    4.41
  -2  -2  -4  124.48    4.08
   2   2   4  131.72    4.33
  -2  -2  -5    5.58    1.24
  -2  -2  -5    4.18    0.79
   2   2   5    4.78    0.78
   2   2   5    5.46    0.81
  -2  -2  -5    5.22    0.99
  -2  -2  -5    5.93    0.97
   2   2   5    4.24    0.77
  -2  -2  -6    1.40    0.57
  -2  -2  -6    1.72    0.61
  -2  -2  -6    2.61    0.94
  -2  -2  -6    1.68    0.55
  -2  -2  -6    1.66    0.61
   2   2   6    1.54    0.49
  -2  -2  -6    1.56    0.56
   2   2   6    1.84    0.55
   2   2   6    2.91    0.62
   2   2   6    1.79    0.51
   2   2   7   25.28    1.95
  -2  -2  -7   27.62    2.33
   2   2   7   25.46    1.92
   2   2   7   25.68    1.94
  -2  -2  -7   19.23    2.06
   2   2   7   28.18    2.03
   2   2   7   24.55    1.96
   2   2   8   39.62    3.15
  -2  -2  -8   53.95    3.96
   2   2   8   53.76    2.99
  -2  -2  -8   49.61    3.19
   2   2   8   42.62    2.67
  -2  -2  -8   39.98    3.08
   2   2   8   43.64    2.72
   2   2   8   40.95    2.68
   2   2   9    3.61    0.83
  -2  -2  -9    2.87    0.80
  -2  -2  -9    5.73    1.29
  -2  -2  -9    2.81    0.84
   2   2   9    5.33    1.02
  -2  -2  -9    2.72    0.75
   2   2   9    3.07    0.73
   2   2   9    3.70    0.82
  -2  -2 -10  110.58    5.41
  -2  -2 -10   88.31    4.57
   2   2  10  101.05    4.36
   2   2  10   99.29    4.03
   2   2  10   98.19    4.44
  -2  -2 -10   88.72    4.32
  -2  -2 -11   24.85    2.27
  -2  -2 -11   24.76    2.28
   2   2  11   22.77    1.89
   2   2  11   22.30    1.71
   2   2  11   23.25    1.99
  -2  -2 -11   20.37    1.81
  -2  -2 -12   25.41    2.03
  -2  -2 -12   29.95    2.19
   2   2  12   25.22    1.96
  -2  -2 -12   26.22    1.80
   2   2  12   26.91    1.92
   2   2  13    9.32    1.04
  -2  -2 -13    9.36    1.03
   2   3 -16    1.12    0.37
   2   3 -15    0.43    0.32
  -2  -3  15    0.35    0.32
   2   3 -15    0.24    0.26
  -2  -3  15    0.38    0.36
   2   3 -14    1.54    0.53
  -2  -3  14    1.90    0.65
   2   3 -14    2.26    0.57
   2   3 -14    1.87    0.59
  -2  -3  14    1.83    0.65
   2   3 -13   50.10    2.66
  -2  -3  13   51.38    3.36
   2   3 -13   54.17    3.04
  -2  -3  13   54.90    3.63
  -2  -3  12  101.94    5.06
  -2  -3  12   85.08    4.51
   2   3 -12  101.93    4.40
  -2  -3  12  105.76    5.38
  -2  -3  12  100.44    5.24
   2   3 -12  106.46    4.18
  -2  -3  12  101.25    4.99
  -2  -3  11  110.70    5.25
   2   3 -11  110.59    4.54
  -2  -3  11  101.41    5.29
  -2  -3  11  119.18    5.84
   2   3 -11  103.18    4.17
   2   3 -11  111.74    4.56
  -2  -3  11  114.07    5.65
  -2  -3  11  123.33    6.18
   2   3 -11  104.43    4.18
  -2  -3  10   19.39    2.23
  -2  -3  10   17.61    1.96
   2   3 -10   19.37    1.68
  -2  -3  10   17.41    2.29
   2   3 -10   17.79    1.52
   2   3 -10   15.22    1.40
   2   3 -10   20.67    1.71
  -2  -3  10   22.02    2.66
  -2  -3  10   14.82    1.92
  -2  -3   9   54.54    3.83
  -2  -3   9   41.09    3.07
  -2  -3   9   46.28    3.78
  -2  -3   9   41.02    2.98
   2   3  -9   44.15    2.41
  -2  -3   9   52.87    4.05
   2   3  -9   44.81    2.38
  -2  -3   8  344.00   10.71
  -2  -3   8  374.48   10.80
  -2  -3   8  354.17   12.31
   2   3  -8  345.06    9.19
   2   3  -8  382.49    9.44
  -2  -3   7  188.50    6.05
  -2  -3   7  160.02    6.04
   2   3  -7  161.79    5.79
  -2  -3   7  169.47    6.16
   2   3  -7  167.51    4.96
  -2  -3   7  190.36    7.50
   2   3  -7  180.28    5.23
  -2  -3   7  151.29    5.57
  -2  -3   6  328.93    8.96
   2   3  -6  316.08    8.71
  -2  -3   6  269.49    8.42
  -2  -3   6  290.33    8.68
  -2  -3   6  313.09    9.79
   2   3  -6  308.53    7.70
  -2  -3   6  265.85    8.36
   2   3  -5    8.25    1.03
   2   3  -5    9.91    1.19
  -2  -3   5    7.07    0.96
  -2  -3   5    6.79    1.00
  -2  -3   5    6.92    1.11
   2   3  -5    8.31    0.84
   2   3  -4    0.28    0.33
  -2  -3   4    0.06    0.20
   2   3  -4   -0.05    0.25
  -2  -3   4    0.23    0.22
  -2  -3   4    0.67    0.36
  -2  -3   4    0.30    0.30
   2   3  -4    0.26    0.18
  -2  -3   4    0.11    0.26
   2   3  -3  553.65   12.08
   2   3  -3  519.02   12.79
  -2  -3   3  561.56   14.05
  -2  -3   3  514.53   12.66
   2   3  -3  548.67   11.94
   2   3  -2  435.34   10.03
  -2  -3   2  420.85   11.45
  -2  -3   2  413.95   10.17
   2   3  -2  414.83    9.35
   2   3  -1    3.04    0.58
  -2  -3   1    2.00    0.44
   2   3  -1    2.19    0.32
   2   3  -1    1.53    0.44
   2   3   0  111.28    4.05
  -2  -3   0  103.38    4.38
   2   3   0  113.48    4.04
  -2  -3  -1   19.49    1.75
  -2  -3  -1   21.77    2.00
   2   3   1   23.89    1.79
  -2  -3  -1   18.71    1.64
   2   3   1   22.10    1.64
   2   3   1   20.32    1.55
  -2  -3  -1   18.84    1.56
  -2  -3  -2  151.72    6.07
  -2  -3  -2  144.78    5.51
   2   3   2  164.47    5.71
  -2  -3  -2  139.45    5.13
   2   3   2  168.04    5.38
   2   3   2  157.09    5.17
  -2  -3  -2  128.01    5.17
  -2  -3  -3    1.13    0.48
  -2  -3  -3    1.22    0.41
  -2  -3  -3    1.34    0.59
   2   3   3    0.78    0.41
  -2  -3  -3    1.20    0.42
   2   3   3    1.33    0.45
  -2  -3  -4  464.01   12.75
  -2  -3  -4  429.03   11.66
  -2  -3  -4  444.62   13.41
   2   3   4  407.87   10.81
   2   3   4  420.03   10.78
   2   3   4  432.75   11.07
   2   3   4  431.76   12.13
  -2  -3  -4  381.52   10.49
  -2  -3  -5   -0.06    0.22
  -2  -3  -5    0.29    0.29
  -2  -3  -5    0.63    0.47
  -2  -3  -5    0.63    0.54
  -2  -3  -5    0.30    0.36
   2   3   5    0.28    0.27
   2   3   5    1.02    0.44
  -2  -3  -5    0.05    0.22
   2   3   5    1.07    0.44
  -2  -3  -6   22.96    2.82
   2   3   6   17.98    2.08
  -2  -3  -6   17.11    1.76
   2   3   6   19.05    1.72
   2   3   6   17.16    1.64
   2   3   6   18.34    1.70
  -2  -3  -6   17.40    1.83
  -2  -3  -6   18.21    2.07
   2   3   6   17.40    1.63
   2   3   6   19.82    1.78
   2   3   7   20.10    2.27
  -2  -3  -7   25.75    2.43
   2   3   7   25.19    2.04
   2   3   7   24.20    1.99
   2   3   7   21.03    1.89
   2   3   7   22.41    1.93
  -2  -3  -7   20.51    1.98
   2   3   8   77.54    3.90
  -2  -3  -8   79.69    4.60
   2   3   8   90.06    4.18
  -2  -3  -8   85.29    4.51
  -2  -3  -8   75.85    3.99
   2   3   9  174.38    6.33
   2   3   9  197.09    6.46
  -2  -3  -9  181.38    7.33
   2   3   9  183.10    6.60
  -2  -3  -9  187.49    6.92
  -2  -3  -9  168.48    6.34
  -2  -3 -10   38.86    2.94
   2   3  10   31.34    2.24
   2   3  10   36.36    2.36
   2   3  10   33.29    2.06
  -2  -3 -10   32.58    2.28
   2   3  11    2.84    0.64
  -2  -3 -11    3.71    0.86
  -2  -3 -11    2.94    0.60
  -2  -3 -11    2.81    0.75
   2   3  12    0.38    0.36
  -2  -3 -12    0.45    0.33
   2   3  13   83.19    2.99
   2   4 -15   37.53    2.13
  -2  -4  15   49.36    2.65
   2   4 -14    2.37    0.60
   2   4 -14    1.70    0.50
  -2  -4  14    2.42    0.69
  -2  -4  13  177.84    6.78
   2   4 -13  183.02    6.28
   2   4 -13  178.54    6.12
  -2  -4  13  186.49    6.88
   2   4 -13  174.22    5.83
  -2  -4  12    7.73    1.43
   2   4 -12    8.77    1.24
   2   4 -12    7.48    1.12
  -2  -4  12    7.40    1.42
   2   4 -12    7.83    1.09
  -2  -4  12    6.83    1.25
   2   4 -11  142.71    5.23
  -2  -4  11  139.88    6.07
   2   4 -11  138.92    5.31
  -2  -4  11  137.70    6.79
   2   4 -11  140.58    5.26
  -2  -4  11  136.24    6.37
  -2  -4  11  162.44    7.31
  -2  -4  11  147.80    6.67
  -2  -4  10   68.54    4.01
   2   4 -10   67.88    3.39
  -2  -4  10   55.50    3.57
  -2  -4  10   72.84    5.00
   2   4 -10   69.80    3.31
  -2  -4  10   69.35    4.26
  -2  -4  10   83.92    5.25
   2   4 -10   72.14    3.49
  -2  -4  10   78.03    4.91
  -2  -4   9    0.79    0.63
  -2  -4   9    0.25    0.36
   2   4  -9    1.52    0.51
  -2  -4   9    0.85    0.68
  -2  -4   9    0.50    0.60
   2   4  -9    0.15    0.26
  -2  -4   9    0.09    0.38
   2   4  -9   -0.10    0.21
  -2  -4   8    5.33    1.44
  -2  -4   8    4.82    1.01
   2   4  -8    3.84    0.73
  -2  -4   8    6.70    1.58
   2   4  -8    4.67    0.77
  -2  -4   8    5.80    1.38
  -2  -4   8    5.08    1.10
  -2  -4   8    4.12    0.87
  -2  -4   7  117.52    4.76
  -2  -4   7  115.70    6.64
  -2  -4   7  114.82    5.01
   2   4  -7  112.47    4.76
  -2  -4   7  127.22    5.17
  -2  -4   7  104.40    4.54
  -2  -4   7   97.46    5.98
  -2  -4   7  121.19    5.35
  -2  -4   7  137.50    6.33
   2   4  -7  116.25    4.14
  -2  -4   6   35.61    2.53
  -2  -4   6   43.28    2.94
   2   4  -6   46.64    2.83
  -2  -4   6   38.59    2.41
  -2  -4   6   34.84    2.49
  -2  -4   6   39.97    2.79
  -2  -4   6   42.43    3.18
   2   4  -6   40.11    2.11
   2   4  -5   19.95    1.74
  -2  -4   5   19.35    2.01
   2   4  -5   19.92    1.82
  -2  -4   5   17.08    1.49
  -2  -4   5   11.44    1.48
  -2  -4   5   13.83    1.64
  -2  -4   5   17.43    1.72
  -2  -4   5   18.36    1.95
  -2  -4   5   12.79    1.48
   2   4  -5   15.95    1.23
   2   4  -4  520.75   12.96
  -2  -4   4  606.51   15.04
  -2  -4   4  484.36   12.13
   2   4  -4  551.99   13.32
  -2  -4   4  466.72   13.48
  -2  -4   4  442.22   13.03
   2   4  -4  548.55   11.74
  -2  -4   4  454.08   13.23
  -2  -4   4  494.10   13.43
   2   4  -3  248.08    7.34
  -2  -4   3  220.95    6.48
   2   4  -3  248.73    6.57
  -2  -4   3  220.83    7.70
   2   4  -3  242.56    6.14
  -2  -4   2    0.96    0.47
   2   4  -2    0.30    0.27
  -2  -4   2    0.34    0.23
  -2  -4   2    0.74    0.46
  -2  -4   2    0.31    0.26
  -2  -4   2    2.17    0.68
   2   4  -2    1.98    0.54
   2   4  -2    0.23    0.16
  -2  -4   1  159.05    6.20
   2   4  -1  164.71    5.26
   2   4  -1  156.36    5.39
  -2  -4   1  153.90    5.89
  -2  -4   1  146.68    6.04
  -2  -4   0  188.18    6.58
   2   4   0  176.32    5.88
  -2  -4   0  155.09    6.43
   2   4   0  164.26    5.76
  -2  -4   0  179.29    6.82
  -2  -4   0  157.30    6.71
  -2  -4  -1   73.02    3.66
  -2  -4  -1   57.43    2.91
   2   4   1   74.79    3.67
  -2  -4  -1   66.29    3.71
   2   4   1   83.62    3.74
  -2  -4  -1   77.41    4.18
  -2  -4  -1   72.23    4.42
  -2  -4  -2   41.60    2.74
  -2  -4  -2   50.73    3.35
   2   4   2   49.64    2.95
   2   4   2   48.77    3.11
  -2  -4  -2   44.58    2.88
   2   4   3  191.00    7.10
  -2  -4  -3  164.17    6.09
  -2  -4  -3  225.44    8.51
  -2  -4  -3  203.06    7.33
  -2  -4  -3  155.62    6.77
  -2  -4  -3  200.23    6.48
  -2  -4  -3  175.65    6.50
  -2  -4  -3  167.81    6.06
   2   4   3  183.16    6.18
   2   4   4   48.14    3.41
  -2  -4  -4   45.07    3.16
  -2  -4  -4   44.07    3.59
  -2  -4  -4   42.30    2.94
   2   4   4   46.56    2.80
  -2  -4  -4   43.62    2.76
  -2  -4  -4   38.55    2.39
   2   4   4   45.79    2.73
  -2  -4  -5  187.11    7.02
  -2  -4  -5  171.93    8.01
  -2  -4  -5  167.81    6.75
   2   4   5  173.77    6.21
   2   4   5  181.47    6.29
  -2  -4  -5  156.79    6.08
   2   4   5  164.37    6.04
   2   4   5  169.53    6.20
   2   4   6    1.56    0.57
  -2  -4  -6    1.83    0.69
  -2  -4  -6    1.18    0.63
  -2  -4  -6    1.21    0.71
  -2  -4  -6    0.46    0.42
   2   4   6    0.61    0.42
   2   4   6    0.62    0.36
   2   4   6    0.55    0.38
  -2  -4  -6    0.65    0.39
   2   4   6    0.83    0.54
  -2  -4  -7   80.01    5.15
  -2  -4  -7   66.31    4.15
   2   4   7   74.75    3.79
   2   4   7   71.68    3.73
   2   4   7   77.38    3.84
  -2  -4  -7   75.32    4.50
  -2  -4  -7   68.52    3.67
   2   4   8    6.52    1.10
  -2  -4  -8    4.64    1.09
  -2  -4  -8    6.29    1.39
  -2  -4  -8    4.21    1.06
   2   4   8    4.33    0.93
   2   4   8    5.45    0.99
  -2  -4  -8    4.63    0.91
   2   4   9    3.06    0.76
  -2  -4  -9    2.70    0.75
  -2  -4  -9    2.83    0.89
  -2  -4  -9    3.43    0.97
   2   4   9    3.21    0.75
   2   4   9    2.86    0.66
   2   4   9    3.05    0.62
   2   4   9    3.00    0.73
  -2  -4  -9    2.80    0.66
  -2  -4 -10   27.05    2.29
  -2  -4 -10   29.68    2.35
   2   4  10   25.11    1.86
   2   4  10   27.21    1.85
   2   4  10   24.73    1.93
   2   4  10   28.76    2.29
   2   4  11  173.62    5.83
  -2  -4 -11  166.81    5.79
   2   4  11  182.48    5.65
   2   4  12   17.83    1.24
  -2  -5  15    5.08    0.78
   2   5 -15    3.97    0.70
  -2  -5  15    4.63    0.84
   2   5 -14   72.56    3.20
  -2  -5  14   81.50    4.02
   2   5 -14   80.70    3.55
   2   5 -13    0.36    0.32
  -2  -5  13    0.30    0.35
   2   5 -13    1.36    0.48
  -2  -5  13    0.91    0.50
  -2  -5  13    0.91    0.54
  -2  -5  13    0.68    0.49
  -2  -5  13    0.89    0.49
   2   5 -12   10.43    1.33
  -2  -5  12   10.64    1.51
   2   5 -12    8.88    1.17
  -2  -5  12   10.19    1.64
  -2  -5  12   11.54    1.69
  -2  -5  12   11.62    1.77
   2   5 -12    8.77    1.20
  -2  -5  12    8.43    1.47
   2   5 -11   59.36    3.28
  -2  -5  11   66.73    3.92
  -2  -5  11   61.32    4.41
  -2  -5  11   64.88    4.12
  -2  -5  11   63.65    4.40
  -2  -5  11   66.03    4.48
   2   5 -11   69.11    3.50
   2   5 -10    1.27    0.51
  -2  -5  10    1.49    0.79
   2   5 -10    2.24    0.63
  -2  -5  10    0.88    0.53
   2   5 -10    1.12    0.50
  -2  -5  10    1.53    0.79
  -2  -5  10    1.12    0.65
  -2  -5  10    1.30    0.64
   2   5 -10    1.46    0.51
  -2  -5   9   55.95    4.62
   2   5  -9   50.35    2.89
  -2  -5   9   49.61    3.34
   2   5  -9   45.63    2.72
  -2  -5   9   47.71    4.26
  -2  -5   9   49.10    3.52
  -2  -5   9   55.30    4.18
   2   5  -9   47.62    2.77
   2   5  -8  472.71   12.09
   2   5  -8  475.99   11.96
  -2  -5   8  410.78   12.48
   2   5  -8  474.49   12.88
  -2  -5   8  476.05   13.73
  -2  -5   8  529.13   15.40
  -2  -5   8  463.85   12.73
  -2  -5   8  499.95   16.66
   2   5  -7  149.27    5.19
   2   5  -7  147.22    5.00
  -2  -5   7  161.24    6.46
  -2  -5   7  117.73    6.87
  -2  -5   7  152.57    6.44
  -2  -5   7  149.38    6.30
  -2  -5   7  158.46    7.13
  -2  -5   7  152.20    5.73
  -2  -5   7  118.87    7.48
  -2  -5   6   11.00    1.55
   2   5  -6   15.29    1.37
  -2  -5   6   11.42    1.61
  -2  -5   6   15.11    1.95
  -2  -5   6   10.13    1.80
  -2  -5   6   15.68    2.02
  -2  -5   6   11.90    1.75
  -2  -5   6   16.50    1.86
  -2  -5   6   15.21    2.00
  -2  -5   6   15.06    1.55
  -2  -5   6   13.52    1.49
  -2  -5   5   53.98    3.75
   2   5  -5   79.03    3.16
  -2  -5   5   63.89    4.05
   2   5  -5   68.32    3.68
  -2  -5   5   85.27    4.92
  -2  -5   5   50.72    3.72
  -2  -5   5   84.06    4.96
  -2  -5   5   62.74    4.10
  -2  -5   5   72.91    3.51
  -2  -5   5   59.79    4.71
  -2  -5   4   25.08    2.20
  -2  -5   4   28.10    2.74
  -2  -5   4   31.87    3.20
   2   5  -4   32.33    2.43
  -2  -5   4   29.76    2.75
   2   5  -4   29.23    1.75
  -2  -5   3  334.82   11.00
   2   5  -3  387.08    9.61
   2   5  -3  379.25   10.60
  -2  -5   3  343.30   10.61
  -2  -5   3  372.00   11.74
   2   5  -3  374.49   10.50
   2   5  -3  352.41    8.86
  -2  -5   2  106.11    5.61
  -2  -5   2  113.02    5.92
   2   5  -2   99.21    3.95
   2   5  -2   91.54    4.33
  -2  -5   2   92.95    5.11
  -2  -5   2   76.29    4.11
  -2  -5   2  110.69    5.36
   2   5  -2   87.13    4.19
  -2  -5   1  135.97    5.11
  -2  -5   1  157.67    7.03
  -2  -5   1  142.93    6.48
  -2  -5   1  175.31    7.22
   2   5  -1  151.13    5.46
  -2  -5   1  135.82    6.96
   2   5  -1  160.15    5.12
  -2  -5   1  159.69    6.59
   2   5  -1  142.20    5.67
   2   5   0   36.10    2.51
  -2  -5   0   33.40    3.06
  -2  -5   0   45.10    3.31
  -2  -5   0   40.44    3.38
  -2  -5   0   41.93    3.58
  -2  -5   0   36.70    2.63
  -2  -5   0   31.39    3.03
  -2  -5   0   34.71    2.32
  -2  -5   0   37.03    2.28
   2   5   0   37.34    2.64
   2   5   0   38.44    2.55
   2   5   1  107.17    4.83
  -2  -5  -1   91.58    5.01
  -2  -5  -1  111.59    5.15
   2   5   1  110.58    4.26
  -2  -5  -1  120.49    6.02
  -2  -5  -1  107.65    6.21
  -2  -5  -1   97.18    4.68
  -2  -5  -1   87.47    5.01
  -2  -5  -1  106.27    4.20
  -2  -5  -1   95.40    4.18
   2   5   1  102.69    4.74
   2   5   1  101.20    4.52
   2   5   2    9.93    1.49
  -2  -5  -2    8.74    1.40
   2   5   2    9.35    1.15
  -2  -5  -2    8.24    1.20
  -2  -5  -2   11.78    2.07
  -2  -5  -2    8.88    1.36
  -2  -5  -2    8.19    1.38
  -2  -5  -2    8.84    1.22
  -2  -5  -2   11.03    1.25
   2   5   2   12.42    1.61
   2   5   2    9.01    1.26
   2   5   3    9.31    1.54
  -2  -5  -3    8.18    1.26
  -2  -5  -3   11.16    1.73
  -2  -5  -3   11.78    2.09
  -2  -5  -3    8.43    1.37
  -2  -5  -3    9.23    1.42
  -2  -5  -3    8.41    1.22
   2   5   3   10.35    1.37
   2   5   3    9.09    1.28
   2   5   4  186.32    7.52
  -2  -5  -4  203.84    7.71
  -2  -5  -4  143.54    6.77
  -2  -5  -4  170.95    6.93
   2   5   4  186.92    6.63
   2   5   4  192.10    6.68
   2   5   4  167.11    6.55
  -2  -5  -4  178.14    6.40
   2   5   4  164.37    6.28
   2   5   4  176.94    6.47
  -2  -5  -5    3.67    0.87
  -2  -5  -5    3.28    0.93
  -2  -5  -5    4.98    1.33
  -2  -5  -5    3.49    1.04
  -2  -5  -5    4.68    1.10
   2   5   5    3.92    0.89
   2   5   5    3.81    0.87
   2   5   5    4.03    0.88
   2   5   5    3.50    0.90
  -2  -5  -6   78.77    4.84
  -2  -5  -6   69.79    4.02
  -2  -5  -6   70.27    4.61
  -2  -5  -6   68.06    4.17
   2   5   6   67.43    3.67
   2   5   6   70.60    3.73
   2   5   6   72.51    3.63
   2   5   6   65.41    3.89
  -2  -5  -6   68.02    3.58
   2   5   7   34.46    2.48
  -2  -5  -7   37.74    3.05
  -2  -5  -7   32.10    2.94
  -2  -5  -7   33.77    2.84
   2   5   7   35.31    2.53
   2   5   7   30.81    2.37
   2   5   7   36.02    2.44
  -2  -5  -7   30.61    2.22
   2   5   7   29.97    2.54
   2   5   8  180.95    6.32
  -2  -5  -8  184.17    6.87
  -2  -5  -8  174.27    7.03
  -2  -5  -8  182.94    7.03
   2   5   8  169.11    6.11
   2   5   8  180.96    5.85
   2   5   8  179.22    6.08
   2   5   8  170.02    6.51
  -2  -5  -9   20.36    1.95
  -2  -5  -9   25.81    2.18
   2   5   9   19.98    1.66
   2   5   9   22.34    1.59
   2   5   9   18.03    1.58
   2   5   9   20.07    1.84
  -2  -5 -10   57.95    2.92
  -2  -5 -10   50.06    2.69
   2   5  10   52.59    2.67
   2   5  10   52.78    2.53
  -2  -5 -11   18.02    1.26
  -2  -6  15    0.04    0.17
  -2  -6  14   -0.13    0.25
   2   6 -14    0.13    0.18
   2   6 -14    0.14    0.21
   2   6 -13   13.95    1.38
  -2  -6  13   13.90    1.67
   2   6 -13   13.79    1.41
  -2  -6  13   14.68    1.72
  -2  -6  13   15.22    1.73
   2   6 -13   15.48    1.45
  -2  -6  13   16.53    1.77
  -2  -6  12   19.81    2.26
   2   6 -12   20.16    1.80
  -2  -6  12   18.82    2.05
  -2  -6  12   20.57    2.26
   2   6 -12   20.65    1.83
  -2  -6  12   25.79    2.52
   2   6 -11  194.92    6.66
  -2  -6  11  191.22    8.22
   2   6 -11  204.03    6.78
  -2  -6  11  194.68    7.68
  -2  -6  11  198.17    8.18
   2   6 -11  195.95    6.72
  -2  -6  11  214.15    8.71
   2   6 -10   19.73    1.83
  -2  -6  10   17.89    2.46
  -2  -6  10   17.50    2.10
  -2  -6  10   20.94    2.51
   2   6 -10   19.87    1.83
  -2  -6  10   19.28    2.65
   2   6 -10   19.91    1.81
   2   6  -9   52.85    3.05
   2   6  -9   53.52    2.98
  -2  -6   9   46.13    3.04
  -2  -6   9   57.35    3.83
  -2  -6   9   52.88    4.09
  -2  -6   9   51.90    4.59
  -2  -6   8   28.36    2.35
  -2  -6   8   25.06    3.31
   2   6  -8   32.65    2.30
   2   6  -8   26.21    1.98
   2   6  -8   28.13    2.39
  -2  -6   8   31.71    2.74
  -2  -6   8   31.06    3.11
   2   6  -8   28.65    2.19
   2   6  -7  238.35    7.25
  -2  -6   7  191.55    7.69
  -2  -6   7  247.50    8.92
   2   6  -7  208.91    7.66
  -2  -6   7  178.69    8.57
  -2  -6   7  245.51    8.97
  -2  -6   7  235.42    7.69
   2   6  -7  225.87    7.12
   2   6  -6  149.46    5.15
  -2  -6   6  122.32    6.07
  -2  -6   6  153.84    7.13
   2   6  -6  137.47    5.83
  -2  -6   6  109.61    6.06
  -2  -6   6  161.77    7.37
  -2  -6   6  126.48    6.19
   2   6  -6  137.11    4.99
  -2  -6   6  138.38    5.49
  -2  -6   6  120.87    7.38
  -2  -6   5  313.01    9.00
  -2  -6   5  277.45    8.71
  -2  -6   5  232.66   10.57
   2   6  -5  292.14    8.07
  -2  -6   5  285.47   10.47
  -2  -6   5  204.20    8.79
  -2  -6   5  349.45   12.12
  -2  -6   5  296.38   10.62
   2   6  -5  286.06    9.46
  -2  -6   5  292.32   10.07
   2   6  -5  294.55    9.48
  -2  -6   5  334.78   11.80
   2   6  -5  300.33    9.51
  -2  -6   4   25.52    2.08
  -2  -6   4   16.82    2.35
  -2  -6   4   26.56    2.14
  -2  -6   4   23.19    2.37
   2   6  -4   27.84    2.44
   2   6  -4   26.59    2.39
  -2  -6   4   26.85    3.30
  -2  -6   4   21.70    2.32
  -2  -6   4   26.58    2.89
   2   6  -4   24.58    2.31
  -2  -6   3   17.97    1.73
  -2  -6   3   18.83    1.84
  -2  -6   3   11.07    1.74
  -2  -6   3   15.85    2.16
  -2  -6   3   19.79    2.62
   2   6  -3   17.10    1.64
   2   6  -3   15.67    1.87
   2   6  -3   15.67    1.85
  -2  -6   3   10.83    2.24
  -2  -6   3   16.60    1.96
  -2  -6   3   18.59    2.42
   2   6  -3   16.03    1.87
  -2  -6   2   11.62    1.40
  -2  -6   2   12.70    1.46
  -2  -6   2    9.03    1.43
  -2  -6   2   13.90    2.16
  -2  -6   2   10.52    1.54
  -2  -6   2   14.36    2.24
   2   6  -2   10.72    1.30
   2   6  -2   12.17    1.39
   2   6  -2   10.21    1.49
   2   6  -2   11.61    1.31
  -2  -6   2   13.04    2.01
   2   6  -2   11.00    1.55
  -2  -6   1   10.28    1.30
  -2  -6   1   11.58    1.38
  -2  -6   1   11.68    1.84
  -2  -6   1   11.06    2.00
   2   6  -1   11.67    1.38
  -2  -6   1   12.33    2.03
  -2  -6   1    8.80    1.84
   2   6  -1   10.51    1.36
  -2  -6   1    7.58    1.78
   2   6  -1   10.58    1.26
  -2  -6   1   11.74    1.88
   2   6  -1    9.60    1.46
   2   6  -1    7.80    1.25
   2   6   0  690.09   16.87
  -2  -6   0  542.92   18.10
   2   6   0  679.95   16.21
  -2  -6   0  759.10   19.13
  -2  -6   0  810.43   20.52
  -2  -6   0  698.62   19.65
  -2  -6   0  543.38   18.16
  -2  -6   0  717.35   16.29
  -2  -6   0  624.46   16.07
   2   6   0  601.04   16.92
   2   6   0  605.44   16.42
   2   6   1    5.64    1.12
  -2  -6  -1    4.78    1.21
   2   6   1    5.00    0.92
  -2  -6  -1    4.53    1.08
  -2  -6  -1    6.22    1.50
  -2  -6  -1    6.33    1.63
  -2  -6  -1    4.69    1.20
  -2  -6  -1    5.33    0.98
  -2  -6  -1    4.93    0.90
   2   6   1    4.96    1.09
   2   6   1    5.41    1.05
   2   6   2   17.54    2.03
  -2  -6  -2   11.62    1.70
  -2  -6  -2   17.13    2.60
   2   6   2   16.01    1.59
  -2  -6  -2   12.18    1.74
  -2  -6  -2   14.30    1.61
   2   6   2   15.20    1.77
   2   6   2   14.90    1.70
  -2  -6  -3   75.35    4.75
   2   6   3   67.65    3.77
   2   6   3   61.87    3.66
   2   6   3   65.54    3.73
  -2  -6  -3   60.74    3.41
   2   6   3   67.40    3.77
  -2  -6  -4  377.88   12.42
  -2  -6  -4  345.13   10.77
   2   6   4  305.18    9.09
   2   6   4  297.96    9.17
   2   6   4  283.90    9.09
  -2  -6  -4  228.18    8.53
  -2  -6  -4  280.88    8.65
   2   6   4  270.99    8.98
   2   6   4  275.33    8.97
   2   6   5   25.89    2.12
  -2  -6  -5   30.00    2.67
  -2  -6  -5   22.11    2.18
   2   6   5   28.60    2.29
   2   6   5   23.23    2.10
   2   6   5   24.10    2.13
  -2  -6  -5   26.37    2.05
   2   6   5   26.47    2.31
   2   6   6   32.32    2.34
  -2  -6  -6   32.84    2.58
  -2  -6  -6   33.97    3.01
  -2  -6  -6   27.69    2.40
  -2  -6  -6   34.75    2.80
   2   6   6   33.38    2.46
   2   6   6   32.28    2.41
   2   6   6   33.61    2.26
  -2  -6  -6   32.76    2.18
   2   6   6   32.05    2.48
   2   6   7    0.78    0.44
  -2  -6  -7    0.67    0.44
  -2  -6  -7    0.78    0.49
   2   6   7    1.48    0.55
   2   6   7    0.94    0.40
  -2  -6  -7    0.88    0.55
   2   6   7    0.96    0.45
   2   6   7    0.66    0.42
  -2  -6  -8   89.64    4.03
   2   6   8   83.02    3.42
   2   6   8   82.74    3.66
   2   6   8   80.57    3.54
  -2  -6  -9    1.17    0.44
   2   6   9    0.89    0.34
  -2  -7  15   29.94    1.67
   2   7 -14   33.99    1.79
  -2  -7  14   34.58    2.02
  -2  -7  13    5.20    0.97
   2   7 -13    5.28    0.83
  -2  -7  13    5.38    0.97
   2   7 -13    4.50    0.74
   2   7 -13    5.24    0.82
   2   7 -12    6.34    0.94
   2   7 -12    5.44    0.92
   2   7 -12    4.65    0.86
  -2  -7  12    3.35    0.90
  -2  -7  12    5.09    1.06
   2   7 -12    4.43    0.77
   2   7 -12    5.14    0.91
  -2  -7  12    6.57    1.25
   2   7 -11    4.84    0.86
   2   7 -11    6.72    1.04
  -2  -7  11    3.72    1.01
   2   7 -11    5.06    0.91
   2   7 -11    5.70    0.97
  -2  -7  11    4.75    1.23
   2   7 -10   51.33    3.02
  -2  -7  10   40.32    3.44
   2   7 -10   48.67    3.02
  -2  -7  10   46.50    3.63
   2   7 -10   54.54    3.06
  -2  -7  10   58.00    4.40
  -2  -7   9  422.08   13.98
   2   7  -9  479.03   12.45
  -2  -7   9  427.98   12.40
  -2  -7   9  506.56   15.98
  -2  -7   8   22.15    2.59
  -2  -7   8   29.08    2.70
   2   7  -8   28.73    2.23
  -2  -7   8   28.03    2.32
  -2  -7   7   31.34    2.45
  -2  -7   7   27.71    3.35
  -2  -7   7   22.62    2.40
   2   7  -7   29.50    2.49
   2   7  -7   28.83    2.20
  -2  -7   7   26.43    2.76
  -2  -7   7   33.71    3.13
  -2  -7   7   31.82    3.06
  -2  -7   7   25.96    2.53
  -2  -7   6  113.64    4.98
  -2  -7   6   99.31    6.37
   2   7  -6  117.62    4.60
  -2  -7   6  103.12    5.70
   2   7  -6  118.43    5.16
  -2  -7   6  124.10    6.68
   2   7  -6  114.60    5.00
  -2  -7   6  109.43    5.90
  -2  -7   6  103.42    5.71
   2   7  -6  107.96    5.49
  -2  -7   5   38.20    3.50
   2   7  -5   35.02    3.00
  -2  -7   5   32.16    3.26
   2   7  -5   32.93    2.53
   2   7  -5   30.63    2.78
  -2  -7   5   33.48    3.56
   2   7  -5   34.05    2.78
  -2  -7   5   40.96    3.99
   2   7  -5   32.98    2.49
  -2  -7   5   31.39    2.98
  -2  -7   5   39.70    2.75
  -2  -7   5   33.93    2.55
  -2  -7   5   28.37    3.17
  -2  -7   4  177.66    6.37
  -2  -7   4  124.10    6.70
  -2  -7   4  157.63    6.12
  -2  -7   4  158.98    6.87
   2   7  -4  159.06    6.06
   2   7  -4  165.54    6.82
  -2  -7   4  175.22    8.79
   2   7  -4  153.85    6.52
  -2  -7   4  133.76    6.02
  -2  -7   4  166.98    8.66
   2   7  -4  165.13    6.08
  -2  -7   4  188.56    8.28
   2   7  -4  162.24    6.88
  -2  -7   3    3.01    0.83
  -2  -7   3    2.32    0.82
  -2  -7   3    2.65    0.95
   2   7  -3    3.99    0.88
   2   7  -3    1.83    0.61
  -2  -7   3    2.17    1.05
  -2  -7   3    3.44    0.86
   2   7  -3    2.96    0.92
   2   7  -3    2.39    0.80
   2   7  -3    2.18    0.69
  -2  -7   3    3.10    1.13
   2   7  -3    2.38    0.85
  -2  -7   2   82.91    4.06
  -2  -7   2   93.88    5.73
   2   7  -2   80.62    4.00
  -2  -7   2   91.50    5.83
   2   7  -2   71.70    3.70
   2   7  -2   79.28    4.51
  -2  -7   2   70.69    5.54
   2   7  -2   68.52    4.17
  -2  -7   2   78.10    5.76
   2   7  -2   76.23    3.76
  -2  -7   2   95.13    5.67
   2   7  -2   72.64    4.38
   2   7  -2   71.22    4.02
  -2  -7   1  131.49    5.28
   2   7  -1  123.02    5.15
  -2  -7   1  147.53    7.24
  -2  -7   1  151.74    7.57
  -2  -7   1  108.23    5.85
  -2  -7   1  110.70    6.83
   2   7  -1  120.77    4.89
   2   7  -1  123.75    5.87
   2   7  -1  117.32    5.32
  -2  -7   0    5.26    1.40
   2   7   0    6.41    1.09
  -2  -7   0    9.29    1.68
  -2  -7   0    7.97    1.22
  -2  -7   0    8.08    1.78
  -2  -7   0    6.42    1.50
  -2  -7  -1  447.64   14.33
  -2  -7  -1  497.57   14.79
   2   7   1  374.82   10.89
  -2  -7  -1  346.61   12.33
  -2  -7  -1  394.03   11.17
   2   7   1  400.65   11.85
  -2  -7  -2   24.44    2.96
  -2  -7  -2   26.52    2.45
   2   7   2   26.35    2.33
  -2  -7  -2   25.02    2.44
  -2  -7  -2   22.05    2.30
  -2  -7  -2   21.65    1.97
   2   7   2   23.14    2.20
  -2  -7  -3  210.56    8.24
  -2  -7  -3  218.07    8.99
   2   7   3  184.71    6.47
  -2  -7  -3  177.74    7.17
   2   7   3  176.50    6.59
   2   7   3  180.66    6.75
   2   7   3  165.44    6.33
  -2  -7  -3  183.99    6.32
   2   7   3  169.60    6.58
  -2  -7  -4    4.17    0.80
   2   7   4    4.71    0.93
   2   7   4    4.03    0.89
   2   7   4    4.74    0.90
  -2  -7  -4    4.20    1.05
  -2  -7  -4    6.74    1.46
   2   7   4    3.30    0.81
   2   7   4    3.62    0.82
   2   7   5   36.11    2.35
  -2  -7  -5   40.63    2.85
   2   7   5   36.99    2.24
   2   7   5   30.37    2.24
   2   7   5   40.14    2.58
   2   7   5   33.59    2.41
   2   7   6   18.04    1.55
  -2  -7  -6   19.87    2.01
   2   7   6   17.21    1.42
   2   7   6   14.91    1.44
   2   7   6   16.83    1.58
  -2  -7  -7   12.13    1.36
   2   7   7    9.28    0.99
   2   7   7    9.20    1.07
  -2  -8  14    4.97    0.72
   2   8 -13    0.24    0.22
  -2  -8  13    0.27    0.30
   2   8 -13    0.37    0.26
  -2  -8  13    0.26    0.26
  -2  -8  12   51.93    3.12
   2   8 -12   50.73    2.58
   2   8 -12   47.15    2.60
   2   8 -12   38.54    2.20
  -2  -8  12   42.27    2.75
   2   8 -11    1.53    0.49
  -2  -8  11    2.00    0.73
  -2  -8  11    1.62    0.61
   2   8 -11    1.16    0.46
   2   8 -10   35.18    2.37
  -2  -8  10   39.39    3.27
   2   8 -10   37.97    2.36
   2   8 -10   38.89    2.71
   2   8 -10   35.50    2.46
  -2  -8   9   76.89    4.02
  -2  -8   9   72.07    4.44
   2   8  -9   75.12    3.71
   2   8  -9   81.56    4.14
  -2  -8   8  103.34    5.19
  -2  -8   8  104.53    4.58
  -2  -8   8  102.55    5.94
   2   8  -8  101.48    4.70
  -2  -8   8  106.92    5.59
   2   8  -8  106.36    4.68
   2   8  -8  103.41    4.86
  -2  -8   8   93.19    4.85
  -2  -8   7   53.74    3.92
  -2  -8   7   49.70    3.07
  -2  -8   7   43.42    3.87
   2   8  -7   51.72    3.25
  -2  -8   7   50.27    3.75
   2   8  -7   54.62    3.27
   2   8  -7   49.75    3.27
  -2  -8   6  133.39    6.39
   2   8  -6  135.05    5.66
  -2  -8   6  132.96    6.30
  -2  -8   6  117.48    5.67
  -2  -8   6  152.85    7.29
   2   8  -6  138.91    5.63
  -2  -8   6  131.17    5.42
  -2  -8   6  123.25    6.59
   2   8  -5   71.00    3.86
  -2  -8   5   76.11    4.88
   2   8  -5   69.84    3.87
  -2  -8   5   74.08    4.80
  -2  -8   5   84.39    5.50
   2   8  -5   73.03    3.87
  -2  -8   5   77.89    3.96
  -2  -8   5   66.86    4.53
  -2  -8   4    8.83    1.37
  -2  -8   4    7.81    1.24
  -2  -8   4    6.03    1.25
   2   8  -4    7.90    1.23
  -2  -8   4    9.35    1.77
   2   8  -4    6.65    1.14
  -2  -8   4    7.01    1.27
  -2  -8   4    8.15    1.83
   2   8  -4    7.78    1.22
  -2  -8   4    9.79    1.79
   2   8  -3   77.54    4.01
  -2  -8   3   82.08    5.32
   2   8  -3   71.83    3.76
  -2  -8   3   78.77    4.77
   2   8  -3   67.00    3.67
  -2  -8   3   85.11    4.16
  -2  -8   3   77.49    4.02
   2   8  -2   37.11    2.66
  -2  -8   2   39.85    3.62
  -2  -8   2   42.65    3.59
  -2  -8   2   35.88    3.72
   2   8  -2   38.50    2.59
  -2  -8   2   47.23    2.99
  -2  -8   2   36.48    2.70
  -2  -8   1  261.88   10.69
   2   8  -1  276.97    8.72
  -2  -8   1  316.57    9.10
  -2  -8   1  320.08   11.18
  -2  -8   1  248.50    9.04
  -2  -8   0  121.85    5.98
   2   8   0  121.76    5.09
  -2  -8   0  122.52    6.34
   2   8   0  135.73    5.79
  -2  -8  -1    5.31    1.30
  -2  -8  -1    3.79    1.03
  -2  -8  -1    1.90    0.73
   2   8   1    3.39    0.87
   2   8   1    3.13    0.84
  -2  -8  -1    2.85    0.72
  -2  -8  -1    2.82    0.87
   2   8   2   75.12    3.53
  -2  -8  -2   83.37    4.82
  -2  -8  -2   85.56    3.70
   2   8   2   76.99    3.93
   2   8   2   77.81    3.96
   2   8   3    6.94    1.10
   2   8   3    6.70    1.08
   2   8   3    7.01    0.97
  -2  -8  -3    7.80    1.36
  -2  -8  -3    6.38    1.28
  -2  -8  -4    1.88    0.63
  -2  -8  -4    1.72    0.67
   2   8   4    1.98    0.50
   2   8   4    2.06    0.58
   2   8   5   17.51    1.36
  -2  -8  -5   16.77    1.69
   2   8   5   16.87    1.47
  -2  -9  13   10.36    0.94
  -2  -9  13    9.74    0.92
  -2  -9  12    8.17    0.99
   2   9 -12    7.71    0.86
  -2  -9  12    8.25    1.04
  -2  -9  11  185.58    6.21
   2   9 -11  204.03    5.93
  -2  -9  11  200.02    6.69
   2   9 -11  186.47    5.79
   2   9 -11  197.02    6.14
  -2  -9  10   15.57    1.61
   2   9 -10   16.82    1.43
  -2  -9  10   14.95    1.71
   2   9 -10   15.72    1.48
   2   9 -10   15.43    1.32
   2   9 -10   15.58    1.54
  -2  -9   9  175.35    6.10
   2   9  -9  184.30    5.90
  -2  -9   9  182.98    7.03
   2   9  -9  176.61    5.84
   2   9  -9  175.99    6.28
  -2  -9   8    1.00    0.52
  -2  -9   8    0.64    0.46
   2   9  -8    0.86    0.45
  -2  -9   8    0.65    0.42
   2   9  -8    0.48    0.33
   2   9  -8    0.28    0.28
  -2  -9   7   30.88    2.66
  -2  -9   7   28.03    2.10
  -2  -9   7   26.21    2.52
   2   9  -7   26.15    2.18
   2   9  -7   28.12    2.18
   2   9  -7   29.81    2.33
  -2  -9   7   29.95    2.55
  -2  -9   6   31.19    2.84
  -2  -9   6   27.91    2.14
  -2  -9   6   26.19    2.47
   2   9  -6   28.93    2.26
   2   9  -6   28.94    2.29
  -2  -9   5   70.80    4.58
  -2  -9   5   67.39    3.47
   2   9  -5   64.76    3.46
   2   9  -5   62.20    3.41
   2   9  -5   62.83    3.43
  -2  -9   4   80.76    3.87
   2   9  -4   79.09    3.90
   2   9  -4   70.57    3.60
  -2  -9   3   76.15    4.89
   2   9  -3   71.90    3.71
  -2  -9   3   86.05    3.98
  -2  -9   3   78.68    4.17
  -2  -9   2   11.47    1.63
   2   9  -2   11.32    1.37
  -2  -9   2   12.49    1.89
  -2  -9   2   12.60    1.46
   2   9  -2   13.94    1.64
  -2  -9   1  102.95    5.08
  -2  -9   1   95.18    5.09
   2   9  -1   92.00    4.05
  -2  -9   1   98.42    4.32
   2   9  -1   95.11    4.45
  -2  -9   0   70.26    3.83
   2   9   0   59.24    3.03
  -2  -9   0   60.64    3.63
   2   9   0   54.10    2.88
  -2  -9   0   65.79    3.90
   2   9   0   63.86    3.39
  -2  -9  -1   56.11    3.47
   2   9   1   56.06    3.01
   2   9   1   50.28    2.68
   2   9   1   48.31    2.79
  -2  -9  -2   48.30    2.57
   2   9   2   47.22    2.62
   2   9   2   42.26    2.35
   2   9   2   45.40    2.52
   2   9   3    8.32    0.98
  -2  -9  -3    7.55    0.94
  -2  -9  -4    3.97    0.61
   2  10 -11    0.93    0.28
  -2 -10  11    1.18    0.35
   2  10 -10    0.40    0.24
  -2 -10  10    0.52    0.29
  -2 -10   9    4.87    0.81
  -2 -10   9    2.73    0.54
   2  10  -8    3.77    0.66
   2  10  -8    3.39    0.67
  -2 -10   8    3.81    0.73
   2  10  -7   11.83    1.15
   2  10  -7   10.56    1.17
  -2 -10   7   12.85    1.40
   2  10  -7   10.15    1.15
  -2 -10   7   13.10    1.45
  -2 -10   6   40.27    2.22
  -2 -10   6   39.12    2.61
  -2 -10   6   38.82    2.66
  -2 -10   5   13.74    1.31
   2  10  -5   12.20    1.20
   2  10  -5   12.62    1.31
  -2 -10   5   15.63    1.76
  -2 -10   4  175.69    6.40
  -2 -10   4  158.96    5.33
   2  10  -4  162.62    5.66
   2  10  -3    5.28    0.85
  -2 -10   3    5.87    1.09
  -2 -10   3    4.58    0.78
  -2 -10   3    7.20    1.17
   2  10  -2   -0.05    0.23
  -2 -10   2    0.95    0.46
  -2 -10   2    0.37    0.30
   2  10  -2    0.14    0.22
  -2 -10   2    0.59    0.40
  -2 -10   1    2.55    0.56
   2  10  -1    2.74    0.61
   2  10  -1    3.35    0.62
  -2 -10   0    4.99    0.72
  -2 -11   6    8.08    0.86
  -2 -11   5   20.92    1.45
  -2 -11   4    7.45    0.70
  -2 -11   4    7.13    0.84
  -3  12  -2    0.51    0.26
  -3  12  -4    7.88    0.91
  -3  12  -5   67.30    2.77
  -3  12  -6   41.78    1.96
  -3  11   1   15.29    1.51
   3 -11  -1   15.79    1.35
  -3  11   1   14.47    1.41
   3 -11  -1   14.81    1.31
  -3  11   0    8.81    1.13
   3 -11   0   10.44    1.15
  -3  11   0    8.93    1.11
  -3  11  -1    1.78    0.58
  -3  11  -1    1.18    0.43
   3 -11   1    1.47    0.53
  -3  11  -1    1.63    0.58
  -3  11  -2  135.55    5.45
   3 -11   2  139.71    5.08
   3 -11   2  151.09    5.02
  -3  11  -2  142.19    5.58
  -3  11  -3  154.02    5.50
   3 -11   3  172.87    5.64
  -3  11  -3  155.77    5.91
  -3  11  -4   36.69    2.30
  -3  11  -4   37.38    2.52
  -3  11  -4   40.37    2.57
   3 -11   4   36.51    2.29
   3 -11   4   39.13    2.38
   3 -11   4   41.44    2.50
  -3  11  -4   37.73    2.59
  -3  11  -5   18.00    1.58
  -3  11  -5   18.53    1.75
   3 -11   5   18.06    1.54
   3 -11   5   21.08    1.77
   3 -11   5   17.78    1.66
  -3  11  -5   18.49    1.74
  -3  11  -6  115.64    4.34
  -3  11  -6  113.02    4.66
   3 -11   6  102.87    3.99
   3 -11   6  117.68    4.55
   3 -11   6  109.70    4.42
  -3  11  -6  115.98    4.48
  -3  11  -7   13.75    1.33
  -3  11  -7   11.94    1.37
   3 -11   7   15.76    1.51
   3 -11   7   10.95    1.26
  -3  11  -7   13.50    1.28
  -3  11  -8   19.08    1.65
  -3  11  -8   18.61    1.32
  -3  11  -8   19.96    1.53
   3 -11   8   20.66    1.67
   3 -11   9    2.73    0.59
   3 -11  10   19.72    1.37
  -3  10   5    0.90    0.31
   3 -10  -4    4.39    0.73
   3 -10  -4    5.82    0.86
  -3  10   4    4.20    0.83
  -3  10   4    5.89    0.75
   3 -10  -3   44.59    2.44
  -3  10   3   50.39    3.04
   3 -10  -3   49.73    2.53
   3 -10  -2   26.25    1.88
   3 -10  -2   30.26    2.08
  -3  10   2   30.46    2.45
  -3  10   2   28.93    2.43
   3 -10  -1    0.26    0.31
  -3  10   1    0.36    0.35
   3 -10  -1    1.04    0.47
  -3  10   1    0.25    0.36
   3 -10   0  110.72    4.37
  -3  10   0  135.96    5.79
   3 -10   0  136.37    5.19
  -3  10   0  117.92    5.45
  -3  10  -1    4.04    0.97
  -3  10  -1    4.05    1.01
  -3  10  -1    4.09    1.03
  -3  10  -1    4.33    0.90
   3 -10   1    3.73    0.87
   3 -10   1    3.74    0.82
   3 -10   1    3.28    0.67
  -3  10  -2    8.56    1.48
   3 -10   2    5.48    0.85
  -3  10  -2    6.07    1.15
  -3  10  -2    7.73    1.25
   3 -10   2    6.11    1.08
  -3  10  -3    1.96    0.73
  -3  10  -3    3.74    0.91
  -3  10  -3    2.79    0.89
   3 -10   3    3.56    0.84
   3 -10   3    2.65    0.76
  -3  10  -4   42.59    3.23
  -3  10  -4   38.75    2.98
  -3  10  -4   42.44    3.10
   3 -10   4   33.99    2.13
   3 -10   4   43.93    2.93
  -3  10  -5   48.58    3.37
  -3  10  -5   47.10    3.29
  -3  10  -5   42.70    3.02
  -3  10  -5   50.07    3.04
   3 -10   5   49.23    3.15
  -3  10  -6  118.08    5.52
  -3  10  -6  116.99    5.20
  -3  10  -6  113.79    4.89
   3 -10   6  121.19    5.15
  -3  10  -7    9.08    1.43
  -3  10  -7   11.59    1.42
   3 -10   7    8.93    1.31
  -3  10  -7    9.26    1.29
   3 -10   7    8.30    1.25
  -3  10  -8   32.76    2.32
  -3  10  -8   32.58    2.13
   3 -10   8   34.52    2.45
  -3  10  -8   32.93    2.34
  -3  10  -8   33.17    2.59
  -3  10  -9   33.99    2.30
   3 -10   9   34.34    2.34
  -3  10  -9   38.75    2.43
   3 -10   9   38.10    2.41
  -3  10 -10   46.14    2.53
   3 -10  10   43.34    2.37
  -3  10 -10   37.96    2.44
   3 -10  11    1.73    0.47
   3 -10  11    2.25    0.54
   3 -10  12    6.72    0.73
  -3   9   7   32.40    1.92
   3  -9  -6   86.82    3.62
   3  -9  -6   88.55    3.52
  -3   9   6   85.57    3.80
  -3   9   6   90.34    3.78
  -3   9   5    0.74    0.40
   3  -9  -5    1.20    0.47
  -3   9   5    1.53    0.59
  -3   9   4  150.27    5.59
  -3   9   4  157.58    6.25
   3  -9  -4  133.94    4.76
  -3   9   4  150.91    6.12
   3  -9  -3    8.68    1.19
  -3   9   3    8.39    1.21
  -3   9   3    9.12    1.49
   3  -9  -3    7.82    0.98
   3  -9  -3    9.45    1.22
   3  -9  -2    6.32    1.04
  -3   9   2    6.43    1.17
  -3   9   2    7.52    1.11
  -3   9   2    7.64    1.40
  -3   9   2   10.09    1.64
   3  -9  -2    7.10    1.13
  -3   9   1    1.75    0.84
  -3   9   1    0.39    0.42
   3  -9  -1    1.77    0.58
  -3   9   1    1.35    0.55
   3  -9  -1    1.28    0.58
   3  -9   0   48.04    2.77
  -3   9   0   41.62    3.51
  -3   9   0   49.86    3.81
  -3   9   0   46.06    3.19
  -3   9   0   52.21    3.79
   3  -9   1  136.28    5.18
  -3   9  -1  151.93    6.89
  -3   9  -1  138.75    6.70
  -3   9  -1  156.27    6.46
   3  -9   1  141.18    5.31
   3  -9   1  154.31    5.97
   3  -9   2   68.13    3.32
  -3   9  -2   73.46    4.64
  -3   9  -2   70.34    4.43
  -3   9  -2   75.87    4.42
   3  -9   2   68.67    3.37
   3  -9   2   76.28    4.05
   3  -9   3   11.39    1.31
   3  -9   3   13.61    1.66
  -3   9  -3   13.26    1.96
  -3   9  -3   12.07    1.71
  -3   9  -3   15.04    1.99
   3  -9   3   13.75    1.43
   3  -9   3   13.59    1.71
   3  -9   4  109.52    4.33
   3  -9   4  127.55    5.48
  -3   9  -4  124.21    6.08
  -3   9  -4  129.04    6.23
   3  -9   4  118.30    4.47
   3  -9   4  122.97    5.51
  -3   9  -5   26.71    2.75
   3  -9   5   20.02    1.63
   3  -9   5   21.50    1.84
  -3   9  -5   23.64    2.24
  -3   9  -5   20.43    2.29
   3  -9   5   24.42    2.28
   3  -9   5   22.07    2.17
  -3   9  -5   24.58    2.26
  -3   9  -6  135.00    5.69
  -3   9  -6  143.38    6.76
   3  -9   6  124.77    4.44
   3  -9   6  130.63    4.94
  -3   9  -6  134.86    5.88
  -3   9  -6  148.13    6.40
   3  -9   6  136.86    5.82
   3  -9   6  132.04    5.35
   3  -9   6  140.62    5.86
   3  -9   7  299.06    9.41
  -3   9  -7  295.14    9.66
  -3   9  -7  320.44    9.64
  -3   9  -7  257.39    9.17
   3  -9   7  306.27    9.53
   3  -9   7  270.35    8.59
  -3   9  -7  297.00    9.35
  -3   9  -8   14.77    1.81
  -3   9  -8   13.80    1.54
  -3   9  -8   13.16    1.73
   3  -9   8   13.88    1.70
   3  -9   8   13.20    1.46
  -3   9  -8   14.46    1.70
  -3   9  -9   16.13    1.94
  -3   9  -9   17.96    1.93
  -3   9  -9   16.36    1.87
  -3   9  -9   16.98    1.78
   3  -9   9   16.89    1.74
  -3   9 -10    0.52    0.35
  -3   9 -10    1.48    0.59
   3  -9  10    1.63    0.63
   3  -9  10    0.58    0.44
  -3   9 -10    1.42    0.55
   3  -9  10    0.48    0.37
  -3   9 -11    4.04    0.84
  -3   9 -11    3.89    0.81
   3  -9  11    3.82    0.82
   3  -9  11    4.30    0.79
  -3   9 -11    3.36    0.73
   3  -9  11    3.86    0.70
  -3   9 -12   48.65    2.57
  -3   9 -12   43.50    2.06
  -3   9 -12   45.42    2.51
   3  -9  13    1.07    0.35
  -3   8   9   24.86    1.61
   3  -8  -8    4.57    0.75
  -3   8   8    5.56    0.91
   3  -8  -8    5.71    0.89
  -3   8   8    4.57    0.76
  -3   8   7  262.36    8.34
   3  -8  -7  243.84    7.96
   3  -8  -7  265.21    7.35
  -3   8   7  253.83    7.93
   3  -8  -7  264.61    7.69
  -3   8   6   14.11    1.75
   3  -8  -6   10.76    1.44
  -3   8   6   12.98    1.59
   3  -8  -6   13.85    1.42
   3  -8  -6   12.02    1.33
   3  -8  -6   13.85    1.49
  -3   8   5   10.82    1.61
   3  -8  -5    8.15    1.19
   3  -8  -5    9.46    1.41
  -3   8   5    8.84    1.45
   3  -8  -5    9.03    1.15
  -3   8   4  193.93    7.52
  -3   8   4  195.12    7.42
   3  -8  -4  164.78    6.80
   3  -8  -4  173.76    5.78
  -3   8   4  189.35    7.50
   3  -8  -4  171.73    6.25
  -3   8   3    3.71    0.90
  -3   8   3    5.29    1.17
  -3   8   3    4.23    1.10
   3  -8  -3    4.71    1.10
  -3   8   3    5.72    1.04
   3  -8  -3    4.93    0.80
   3  -8  -3    4.93    0.94
  -3   8   2    0.12    0.39
  -3   8   2    0.19    0.29
  -3   8   2    0.41    0.37
   3  -8  -2    0.07    0.31
  -3   8   2    0.89    0.46
   3  -8  -2    0.29    0.39
   3  -8  -2    0.46    0.34
  -3   8   2    0.32    0.37
   3  -8  -2    0.32    0.43
  -3   8   1   33.06    3.01
  -3   8   1   29.11    2.90
   3  -8  -1   33.25    2.35
  -3   8   1   30.26    2.43
  -3   8   1   33.88    3.25
  -3   8   1   36.04    2.81
   3  -8  -1   31.81    2.29
   3  -8  -1   31.30    1.91
  -3   8   0    1.99    0.82
  -3   8   0    2.08    0.88
  -3   8   0    2.19    0.91
   3  -8   0    2.38    0.53
   3  -8   0    2.38    0.67
  -3   8   0    2.43    0.71
   3  -8   0    1.79    0.61
   3  -8   1  150.08    5.49
  -3   8  -1  162.33    7.98
  -3   8  -1  155.64    7.12
  -3   8  -1  148.43    7.29
  -3   8  -1  149.59    6.49
   3  -8   1  154.37    5.44
   3  -8   1  138.48    4.56
   3  -8   1  139.62    5.38
   3  -8   1  158.55    6.49
   3  -8   1  141.91    5.80
   3  -8   1  149.95    6.67
  -3   8  -2   92.13    5.50
  -3   8  -2   96.14    5.17
   3  -8   2  101.54    4.14
   3  -8   2   89.01    3.36
   3  -8   2   99.20    4.26
   3  -8   2  102.23    4.27
   3  -8   2   95.46    4.54
  -3   8  -2   99.53    6.29
  -3   8  -2   95.82    4.67
  -3   8  -2   99.48    5.64
   3  -8   2   98.45    4.50
   3  -8   2   98.16    4.68
   3  -8   2  104.53    5.43
   3  -8   2  104.75    5.28
  -3   8  -3   37.86    3.25
  -3   8  -3   40.27    3.36
   3  -8   3   45.13    2.55
   3  -8   3   42.67    2.95
   3  -8   3   43.79    2.63
  -3   8  -3   44.72    3.13
  -3   8  -3   48.36    3.85
   3  -8   3   40.96    2.93
   3  -8   3   39.15    2.73
   3  -8   3   45.56    3.51
   3  -8   3   43.35    3.41
  -3   8  -4  947.48   24.04
   3  -8   4  934.80   20.63
   3  -8   4  907.56   20.95
  -3   8  -4  915.95   24.66
  -3   8  -4  920.46   22.60
  -3   8  -4  913.87   23.73
   3  -8   4  860.54   21.80
   3  -8   4  874.83   21.86
   3  -8   4  909.67   21.52
   3  -8   4  912.82   23.12
   3  -8   4  931.72   23.06
  -3   8  -5   49.80    3.99
   3  -8   5   44.35    2.45
   3  -8   5   46.53    2.68
  -3   8  -5   50.59    3.53
  -3   8  -5   37.59    3.29
  -3   8  -5   35.67    3.01
   3  -8   5   41.95    3.00
   3  -8   5   42.48    3.04
  -3   8  -5   43.87    3.04
   3  -8   6   64.61    2.96
   3  -8   6   68.38    3.27
  -3   8  -6   65.40    4.22
  -3   8  -6   74.47    4.51
  -3   8  -6   58.91    4.15
   3  -8   6   68.53    3.89
   3  -8   6   58.60    3.62
   3  -8   6   67.63    3.57
  -3   8  -6   63.58    3.76
  -3   8  -7   23.10    2.74
   3  -8   7   19.29    1.48
   3  -8   7   19.33    1.67
  -3   8  -7   21.76    2.44
  -3   8  -7   21.87    2.58
  -3   8  -7   22.94    2.26
   3  -8   7   21.30    2.11
   3  -8   7   23.62    2.03
  -3   8  -7   21.00    2.14
  -3   8  -8    9.66    1.73
   3  -8   8    8.10    1.03
  -3   8  -8    7.48    1.42
  -3   8  -8    7.63    1.55
   3  -8   8    8.15    1.34
   3  -8   8    7.24    1.23
   3  -8   8    7.40    1.12
  -3   8  -8    6.99    1.28
  -3   8  -8    6.06    1.22
  -3   8  -9  120.46    6.04
  -3   8  -9  124.24    5.96
  -3   8  -9  120.14    6.13
  -3   8  -9  113.84    5.33
   3  -8   9  113.05    4.96
   3  -8   9  113.73    4.54
  -3   8  -9  121.53    5.35
  -3   8 -10    0.63    0.41
  -3   8 -10    0.64    0.51
  -3   8 -10    0.94    0.55
   3  -8  10    0.43    0.51
  -3   8 -10    0.50    0.50
   3  -8  10    0.49    0.40
   3  -8  10    0.77    0.38
   3  -8  10    0.58    0.44
  -3   8 -11   11.59    1.57
  -3   8 -11    8.66    1.23
   3  -8  11   11.75    1.53
   3  -8  11    9.71    1.26
   3  -8  11   10.32    1.21
  -3   8 -11    9.00    1.29
   3  -8  12   60.28    2.88
  -3   8 -12   56.74    2.70
  -3   8 -12   63.12    3.39
  -3   8 -12   56.77    2.97
   3  -8  12   67.12    3.38
  -3   8 -13   18.26    1.54
   3  -8  13   19.73    1.54
  -3   8 -13   15.94    1.31
   3  -8  14   83.51    2.89
  -3   8 -14   82.27    2.94
   3  -7 -10    0.42    0.27
  -3   7  10    0.79    0.34
   3  -7  -9    8.51    1.03
   3  -7  -9    8.56    1.13
  -3   7   9    9.12    1.10
   3  -7  -8    3.29    0.71
  -3   7   8    3.64    0.93
   3  -7  -8    2.92    0.80
  -3   7   8    4.57    0.90
  -3   7   7    8.49    1.52
   3  -7  -7    6.83    0.98
  -3   7   7    6.37    1.17
   3  -7  -7    7.56    1.10
   3  -7  -7    5.71    1.09
   3  -7  -7    7.85    1.14
   3  -7  -7    7.58    0.96
  -3   7   6   23.83    2.64
   3  -7  -6   20.52    1.87
   3  -7  -6   22.16    1.66
  -3   7   6   22.84    2.28
   3  -7  -6   22.01    1.82
   3  -7  -6   22.25    2.16
  -3   7   5    6.84    1.33
   3  -7  -5    6.91    1.02
  -3   7   5    8.08    1.45
  -3   7   5   10.51    1.85
   3  -7  -5    8.50    1.22
   3  -7  -5    7.52    0.92
   3  -7  -5    7.10    1.26
  -3   7   4   27.63    2.64
  -3   7   4   17.59    1.79
  -3   7   4   24.14    2.68
   3  -7  -4   20.24    1.87
   3  -7  -4   18.49    1.71
   3  -7  -4   21.37    1.69
  -3   7   4   23.77    2.49
   3  -7  -4   18.66    2.05
  -3   7   3  123.44    5.91
  -3   7   3  102.26    5.09
  -3   7   3  136.14    6.38
   3  -7  -3  121.32    4.93
   3  -7  -3  121.96    4.79
   3  -7  -3  135.44    4.61
  -3   7   3  130.24    5.55
   3  -7  -3  112.06    5.47
  -3   7   2    6.73    1.47
   3  -7  -2    7.25    1.07
  -3   7   2    7.03    1.24
   3  -7  -2    7.19    0.95
   3  -7  -2    6.17    1.23
  -3   7   2    4.76    1.11
  -3   7   2    8.93    1.48
  -3   7   1   17.61    2.16
  -3   7   1   17.45    1.92
  -3   7   1   22.93    2.69
  -3   7   1   16.45    1.90
   3  -7  -1   17.28    1.60
   3  -7  -1   18.49    1.46
   3  -7  -1   15.16    1.55
   3  -7  -1   19.98    2.24
  -3   7   0  231.56    7.84
  -3   7   0  252.11    9.20
  -3   7   0  264.93   10.29
  -3   7   0  255.29   10.06
  -3   7   0  226.09    8.36
   3  -7   0  257.01    7.46
   3  -7   0  234.08    7.35
   3  -7   0  268.86    7.91
   3  -7   0  237.98    7.68
   3  -7   0  244.92    7.76
   3  -7   0  248.88    8.31
   3  -7   1    2.19    0.62
  -3   7  -1    3.33    1.13
  -3   7  -1    4.06    1.30
  -3   7  -1    2.26    0.83
  -3   7  -1    2.45    0.75
   3  -7   1    2.58    0.68
  -3   7  -1    2.19    0.79
   3  -7   1    2.32    0.70
   3  -7   1    3.36    0.78
   3  -7   1    3.07    0.86
   3  -7   1    2.25    0.68
   3  -7   2   40.78    2.56
  -3   7  -2   53.30    4.50
  -3   7  -2   50.33    3.29
  -3   7  -2   51.54    3.83
  -3   7  -2   50.97    3.56
   3  -7   2   50.77    2.66
  -3   7  -2   38.72    3.52
   3  -7   2   50.54    2.71
   3  -7   2   45.26    2.86
   3  -7   2   48.15    2.82
   3  -7   2   44.54    2.87
   3  -7   2   50.48    3.40
   3  -7   3    4.30    0.81
   3  -7   3    4.58    0.80
  -3   7  -3    4.68    1.17
  -3   7  -3    3.15    0.91
  -3   7  -3    4.17    1.15
  -3   7  -3    3.06    0.86
   3  -7   3    2.34    0.71
   3  -7   3    4.30    0.84
   3  -7   3    3.47    0.93
   3  -7   3    3.76    0.85
   3  -7   4  107.57    4.49
  -3   7  -4  133.84    6.65
   3  -7   4  126.68    4.52
   3  -7   4  128.68    4.65
  -3   7  -4  118.39    6.62
  -3   7  -4  126.38    5.81
  -3   7  -4  119.70    6.19
  -3   7  -4   96.15    5.23
   3  -7   4  122.41    5.06
   3  -7   4  119.02    4.99
   3  -7   4  137.14    5.07
   3  -7   4  121.21    5.53
  -3   7  -5    5.97    1.09
   3  -7   5    6.40    0.99
   3  -7   5    6.37    0.96
  -3   7  -5    5.82    1.27
  -3   7  -5    5.53    1.25
  -3   7  -5    6.82    1.47
  -3   7  -5    5.79    1.32
   3  -7   5    7.81    1.21
   3  -7   5    5.48    1.04
   3  -7   5    6.51    1.23
  -3   7  -6    4.30    0.96
   3  -7   6    2.81    0.68
  -3   7  -6    4.45    1.32
   3  -7   6    2.98    0.71
  -3   7  -6    6.80    1.44
  -3   7  -6    5.52    1.23
  -3   7  -6    2.06    0.88
   3  -7   6    4.49    0.95
   3  -7   6    5.22    0.94
   3  -7   6    4.69    0.93
  -3   7  -7  254.63   10.54
   3  -7   7  251.42    7.28
  -3   7  -7  283.14   10.21
   3  -7   7  250.16    8.16
   3  -7   7  251.84    7.70
  -3   7  -7  222.92    8.23
  -3   7  -7  277.48    8.87
  -3   7  -7  235.50   10.28
  -3   7  -7  206.55    8.88
  -3   7  -8   35.82    3.51
   3  -7   8   30.95    2.01
   3  -7   8   30.93    2.40
   3  -7   8   37.32    2.40
  -3   7  -8   29.53    2.57
  -3   7  -8   30.96    3.01
  -3   7  -8   34.80    3.61
  -3   7  -9   54.58    4.13
   3  -7   9   55.46    2.63
  -3   7  -9   49.48    3.76
  -3   7  -9   60.17    4.60
   3  -7   9   59.05    3.81
   3  -7   9   59.24    3.27
   3  -7   9   59.30    3.02
  -3   7  -9   45.92    3.28
  -3   7 -10   41.91    3.26
   3  -7  10   46.28    3.24
   3  -7  10   42.99    2.73
   3  -7  10   39.37    2.32
  -3   7 -10   37.20    3.16
   3  -7  10   41.30    2.76
   3  -7  11   45.52    2.77
   3  -7  11   41.22    2.53
  -3   7 -11   49.01    3.60
  -3   7 -11   46.36    3.22
   3  -7  11   45.98    3.11
   3  -7  12   11.22    1.24
  -3   7 -12   11.00    1.22
  -3   7 -12   10.87    1.51
  -3   7 -12   12.00    1.49
   3  -7  12   13.91    1.58
  -3   7 -12   13.30    1.65
  -3   7 -13   11.60    1.03
  -3   7 -13    9.76    1.25
  -3   7 -13   11.01    1.25
  -3   7 -13   12.97    1.41
   3  -7  13   11.35    1.27
  -3   7 -14    2.18    0.50
   3  -7  14    2.54    0.51
  -3   7 -14    1.87    0.48
  -3   6  11   30.45    1.85
   3  -6 -10   67.23    2.91
   3  -6 -10   64.59    2.92
  -3   6  10   66.63    3.41
   3  -6 -10   64.02    3.24
  -3   6  10   75.92    3.28
  -3   6   9   56.36    3.12
  -3   6   9   51.90    3.38
   3  -6  -9   49.66    2.70
   3  -6  -9   51.85    2.67
   3  -6  -9   53.94    2.88
   3  -6  -8  232.71    7.13
  -3   6   8  217.03    7.62
   3  -6  -8  229.62    7.09
   3  -6  -8  227.54    6.78
   3  -6  -8  220.59    6.53
   3  -6  -7    0.46    0.35
  -3   6   7    0.17    0.39
  -3   6   7   -0.13    0.50
   3  -6  -7    0.51    0.38
   3  -6  -7    0.19    0.31
   3  -6  -7   -0.05    0.27
   3  -6  -7   -0.08    0.24
  -3   6   6    0.55    0.52
  -3   6   6    0.83    0.63
   3  -6  -6    0.30    0.32
   3  -6  -6    0.95    0.45
   3  -6  -6    1.07    0.44
   3  -6  -6    0.32    0.35
  -3   6   5   88.98    4.77
  -3   6   5   92.71    5.85
   3  -6  -5   84.23    3.86
  -3   6   5   90.69    4.83
   3  -6  -5   78.21    3.55
  -3   6   4   12.02    1.50
   3  -6  -4   15.39    1.47
   3  -6  -4   21.72    1.63
  -3   6   4   14.62    1.92
  -3   6   4   14.68    1.89
   3  -6  -4   15.82    1.58
   3  -6  -4   15.82    1.80
   3  -6  -4   13.28    1.68
  -3   6   4   14.29    1.60
  -3   6   4   18.22    2.50
   3  -6  -3  461.64   12.83
  -3   6   3  500.85   14.46
   3  -6  -3  495.55   12.15
   3  -6  -3  510.39   11.96
  -3   6   3  478.44   13.30
  -3   6   3  418.36   12.86
  -3   6   3  554.82   15.59
   3  -6  -3  505.64   12.53
   3  -6  -3  460.74   13.16
   3  -6  -3  445.46   13.18
  -3   6   2    8.80    1.19
   3  -6  -2    8.31    1.19
  -3   6   2    8.42    1.54
   3  -6  -2    8.40    1.08
  -3   6   2    8.64    1.34
   3  -6  -2    7.87    1.03
  -3   6   2    8.67    1.43
  -3   6   2    6.93    1.30
  -3   6   2   10.79    1.67
   3  -6  -2    9.76    1.21
   3  -6  -2    8.72    1.12
   3  -6  -2    9.65    1.39
  -3   6   1  281.37    9.41
  -3   6   1  293.31   10.30
  -3   6   1  272.46    8.90
   3  -6  -1  289.38    7.87
   3  -6  -1  265.85    7.66
  -3   6   1  243.12    9.50
  -3   6   1  308.27    9.35
   3  -6  -1  269.81    7.92
   3  -6  -1  265.80    8.87
   3  -6   0  174.58    6.21
  -3   6   0  203.66    7.66
  -3   6   0  217.56    8.67
  -3   6   0  208.59    7.15
  -3   6   0  195.88    8.21
  -3   6   0  189.70    7.09
   3  -6   0  209.07    6.18
   3  -6   0  189.92    5.95
   3  -6   0  201.12    6.31
   3  -6   0  188.71    6.26
   3  -6   0  195.87    7.21
   3  -6   0  211.99    7.09
   3  -6   1   13.71    1.43
  -3   6  -1   19.94    2.54
  -3   6  -1   16.56    1.77
  -3   6  -1   19.12    2.15
  -3   6  -1   15.97    1.83
   3  -6   1   16.88    1.42
  -3   6  -1   14.12    1.99
   3  -6   1   13.77    1.38
   3  -6   1   14.50    1.42
   3  -6   1   14.47    1.41
   3  -6   1   18.52    1.93
   3  -6   1   18.44    1.80
   3  -6   2   24.56    1.89
  -3   6  -2   24.25    2.20
  -3   6  -2   23.34    2.39
  -3   6  -2   24.05    2.48
  -3   6  -2   23.36    2.31
   3  -6   2   24.64    1.71
   3  -6   2   20.41    1.70
   3  -6   2   21.23    1.70
   3  -6   2   19.18    1.65
   3  -6   2   21.97    2.03
   3  -6   3    4.42    0.82
  -3   6  -3    6.26    1.32
  -3   6  -3    5.80    1.20
  -3   6  -3    6.98    1.56
  -3   6  -3    5.20    1.07
   3  -6   3    4.40    0.80
   3  -6   3    4.12    0.80
   3  -6   3    5.98    0.92
   3  -6   3    5.45    0.85
   3  -6   4    5.21    0.86
  -3   6  -4    4.40    1.03
  -3   6  -4    4.92    1.15
  -3   6  -4    9.11    1.65
  -3   6  -4    4.73    1.13
   3  -6   4    4.20    0.81
   3  -6   4    5.54    0.92
   3  -6   4    4.55    0.84
   3  -6   4    5.59    0.92
  -3   6  -5  158.48    6.20
   3  -6   5  175.36    5.99
  -3   6  -5  195.62    8.59
  -3   6  -5  190.16    7.73
  -3   6  -5  208.28    7.93
  -3   6  -5  146.15    7.53
   3  -6   5  181.94    6.13
   3  -6   5  181.19    6.07
   3  -6   5  169.50    5.87
  -3   6  -6   83.15    4.27
  -3   6  -6   96.26    6.12
  -3   6  -6   72.81    4.87
  -3   6  -6   74.92    5.48
  -3   6  -6  104.42    5.02
   3  -6   6   79.93    3.79
   3  -6   6   94.23    4.09
   3  -6   6   92.65    4.03
   3  -6   6   95.32    3.97
   3  -6   6   91.40    4.02
  -3   6  -7   77.88    4.24
  -3   6  -7   86.25    5.79
  -3   6  -7   79.70    5.85
  -3   6  -7   77.75    5.11
   3  -6   7   84.53    3.85
   3  -6   7   89.16    4.07
   3  -6   7   90.20    3.87
   3  -6   7   88.47    4.04
  -3   6  -8  126.70    5.79
  -3   6  -8  139.98    7.44
  -3   6  -8  130.52    6.85
  -3   6  -8  139.11    7.87
   3  -6   8  139.60    5.24
   3  -6   8  138.03    5.44
   3  -6   8  154.61    5.55
   3  -6   8  157.23    5.33
   3  -6   8  139.99    5.49
  -3   6  -9  106.57    5.97
   3  -6   9  115.01    4.05
   3  -6   9  120.22    4.91
  -3   6  -9  111.25    6.08
   3  -6   9  113.97    5.42
   3  -6   9  106.69    4.79
   3  -6   9  119.41    4.78
   3  -6   9  114.28    4.41
   3  -6   9  109.75    4.81
  -3   6 -10   44.40    3.90
  -3   6 -10   45.64    3.57
   3  -6  10   46.61    3.25
   3  -6  10   41.60    2.68
   3  -6  10   40.89    2.80
   3  -6  10   45.44    2.45
   3  -6  10   42.94    2.61
  -3   6 -10   33.28    2.95
  -3   6 -11    5.64    1.01
   3  -6  11    2.12    0.58
   3  -6  11    1.31    0.60
  -3   6 -11    6.65    1.43
   3  -6  11    2.44    0.68
   3  -6  11    2.46    0.71
  -3   6 -11    1.86    0.71
  -3   6 -12    4.61    1.07
  -3   6 -12    5.95    1.13
  -3   6 -12    5.85    1.16
   3  -6  12    5.76    1.04
   3  -6  12    3.81    0.75
   3  -6  12    5.20    0.94
  -3   6 -12    5.61    0.93
  -3   6 -13    0.20    0.29
   3  -6  13    0.06    0.26
  -3   6 -13   -0.06    0.29
  -3   6 -13    0.12    0.24
  -3   6 -13    0.06    0.29
  -3   6 -14   15.95    1.31
   3  -6  14   13.49    1.19
  -3   6 -15   22.45    1.29
   3  -5 -11   12.60    1.25
   3  -5 -11   12.12    1.18
  -3   5  11   13.07    1.37
  -3   5  10    6.04    1.01
  -3   5  10    5.96    1.12
  -3   5  10    5.55    1.02
   3  -5 -10    7.21    1.01
   3  -5 -10    5.00    0.82
   3  -5 -10    4.03    0.86
   3  -5  -9   21.08    1.77
  -3   5   9   20.23    1.98
  -3   5   9   21.01    2.30
  -3   5   9   19.34    2.07
   3  -5  -9   16.76    1.55
   3  -5  -9   19.65    1.68
   3  -5  -9   21.62    1.71
   3  -5  -9   14.90    1.70
   3  -5  -8   31.28    2.16
  -3   5   8   34.89    2.72
  -3   5   8   35.72    3.01
   3  -5  -8   30.09    2.16
   3  -5  -8   34.85    2.25
  -3   5   8   32.61    3.14
   3  -5  -8   34.38    2.17
   3  -5  -8   34.18    2.17
  -3   5   7   19.38    2.08
   3  -5  -7   20.96    1.70
  -3   5   7   18.39    2.26
   3  -5  -7   17.97    1.66
   3  -5  -7   20.44    1.67
   3  -5  -7   21.90    1.73
   3  -5  -7   13.64    1.65
   3  -5  -6    1.92    0.54
  -3   5   6    3.84    0.98
  -3   5   6    1.91    0.86
  -3   5   6    2.35    0.84
   3  -5  -6    2.11    0.60
   3  -5  -6    1.82    0.64
   3  -5  -6    2.49    0.70
  -3   5   5  317.63   10.32
   3  -5  -5  316.18    8.57
   3  -5  -5  339.86    8.73
  -3   5   5  308.96   10.25
   3  -5  -5  323.46    8.96
  -3   5   5  304.11   12.04
  -3   5   5  336.64    9.63
   3  -5  -5  299.73    9.55
   3  -5  -4    1.63    0.49
  -3   5   4    1.12    0.49
  -3   5   4    1.62    0.84
   3  -5  -4    1.59    0.53
  -3   5   4    2.30    0.65
   3  -5  -4    1.74    0.60
  -3   5   4    1.18    0.50
   3  -5  -4    1.41    0.53
   3  -5  -3  433.85   10.47
  -3   5   3  439.08   11.89
  -3   5   3  456.70   12.76
   3  -5  -3  406.75   10.14
  -3   5   3  395.42   11.91
  -3   5   3  388.50   11.40
  -3   5   3  445.53   13.62
   3  -5  -3  452.77   11.01
   3  -5  -3  408.78   11.46
  -3   5   3  389.89   11.42
  -3   5   3  402.02   11.08
   3  -5  -3  389.68   11.15
   3  -5  -2  266.01    8.21
   3  -5  -2  280.24    7.61
  -3   5   2  301.69    9.71
  -3   5   2  278.91    8.78
   3  -5  -2  281.68    7.49
   3  -5  -2  282.75    7.66
   3  -5  -2  277.21    8.62
  -3   5   2  291.26    9.19
   3  -5  -1   95.46    3.99
  -3   5   1  106.32    5.15
  -3   5   1   95.25    4.43
   3  -5  -1   93.66    3.52
   3  -5  -1   95.97    3.68
   3  -5  -1  102.51    4.45
   3  -5  -1  100.62    4.07
  -3   5   1  102.22    4.74
  -3   5   1  109.76    4.62
   3  -5   0   87.08    3.65
  -3   5   0   92.12    4.46
  -3   5   0  102.92    4.40
  -3   5   0   88.97    4.69
  -3   5   0   91.13    4.29
   3  -5   0   91.51    3.43
   3  -5   0   89.51    3.45
   3  -5   0   88.88    3.50
   3  -5   0   89.74    4.12
   3  -5   0   92.87    3.89
  -3   5  -1   56.64    3.37
  -3   5  -1   50.31    3.02
  -3   5  -1   53.16    3.21
  -3   5  -1   50.74    3.32
   3  -5   1   51.52    2.46
   3  -5   1   53.86    2.53
   3  -5   1   54.04    2.58
   3  -5   1   51.52    2.78
   3  -5   1   55.52    2.62
   3  -5   2    9.99    1.18
  -3   5  -2    8.84    1.28
  -3   5  -2    9.13    1.33
  -3   5  -2    7.67    1.19
   3  -5   2    9.76    1.03
   3  -5   2   10.42    1.09
   3  -5   2   10.23    1.00
   3  -5   3    1.12    0.41
  -3   5  -3    1.73    0.65
   3  -5   3    2.44    0.66
   3  -5   3    1.60    0.44
  -3   5  -4  450.22   13.49
  -3   5  -4  428.54   12.75
   3  -5   4  442.01   10.97
   3  -5   4  425.40   10.73
   3  -5   4  426.81   11.28
  -3   5  -5   52.98    3.39
  -3   5  -5   42.60    3.73
   3  -5   5   43.25    2.61
   3  -5   5   44.52    2.50
  -3   5  -5   43.24    3.62
   3  -5   5   44.77    2.44
  -3   5  -6   12.69    1.56
  -3   5  -6   16.48    2.40
  -3   5  -6   16.76    2.52
  -3   5  -6   12.69    1.93
  -3   5  -6   16.50    1.78
   3  -5   6   15.66    1.54
   3  -5   6   14.72    1.44
   3  -5   6   15.11    1.43
   3  -5   6   15.19    1.46
  -3   5  -7  105.67    5.06
  -3   5  -7  119.08    6.53
  -3   5  -7  111.50    6.15
   3  -5   7  121.73    4.83
   3  -5   7  124.72    4.74
   3  -5   7  115.05    4.62
   3  -5   7  129.07    4.77
  -3   5  -8   15.33    2.25
  -3   5  -8   22.97    3.06
  -3   5  -8   21.42    2.63
   3  -5   8   18.42    1.72
   3  -5   8   17.85    1.73
   3  -5   8   21.23    1.81
  -3   5  -9    1.61    0.77
   3  -5   9    0.51    0.44
  -3   5  -9    1.36    0.76
  -3   5  -9    0.52    0.48
   3  -5   9    0.61    0.42
   3  -5   9    0.59    0.37
   3  -5   9    0.63    0.41
  -3   5  -9    1.30    0.59
   3  -5   9    0.69    0.41
   3  -5  10   20.57    1.79
   3  -5  10   21.34    1.96
  -3   5 -10   24.84    2.87
  -3   5 -10   18.66    2.36
   3  -5  10   21.78    2.17
  -3   5 -10   22.21    2.27
   3  -5  10   21.77    1.79
   3  -5  10   19.83    1.96
   3  -5  10   23.48    1.95
   3  -5  11   40.01    2.55
  -3   5 -11   43.90    3.39
  -3   5 -11   48.83    3.72
   3  -5  11   37.31    2.81
   3  -5  11   40.75    2.47
   3  -5  11   44.20    2.79
   3  -5  11   38.72    2.70
   3  -5  11   38.19    2.32
  -3   5 -11   40.31    2.75
   3  -5  12   63.86    3.17
  -3   5 -12   61.20    3.94
   3  -5  12   60.68    2.95
   3  -5  12   61.40    3.27
   3  -5  12   62.43    3.48
   3  -5  12   64.68    3.44
  -3   5 -12   69.04    3.37
   3  -5  13    3.86    0.73
   3  -5  13    2.52    0.64
  -3   5 -13    2.79    0.58
   3  -5  13    2.77    0.68
  -3   5 -13    3.24    0.75
   3  -5  14    0.90    0.39
  -3   5 -14    0.80    0.38
  -3   5 -15    1.57    0.37
  -3   4  12    0.05    0.22
   3  -4 -12   -0.05    0.26
  -3   4  11   11.14    1.43
   3  -4 -11   10.59    1.21
  -3   4  11   12.36    1.45
  -3   4  10    3.13    0.78
  -3   4  10    3.61    0.92
  -3   4  10    2.95    0.84
   3  -4 -10    4.06    0.78
   3  -4 -10    3.25    0.69
   3  -4 -10    4.16    0.83
  -3   4   9    3.75    0.91
  -3   4   9    2.45    0.83
  -3   4   9    1.60    0.71
   3  -4  -9    2.36    0.58
   3  -4  -9    3.17    0.70
   3  -4  -9    2.92    0.68
   3  -4  -9    2.30    0.61
   3  -4  -8  173.62    5.79
  -3   4   8  185.23    7.04
  -3   4   8  208.06    8.10
   3  -4  -8  161.13    5.71
  -3   4   8  192.92    6.83
   3  -4  -8  191.59    6.07
  -3   4   8  182.38    7.98
  -3   4   7  402.92   12.02
   3  -4  -7  425.40   10.49
   3  -4  -7  395.06   10.55
   3  -4  -7  428.64   10.70
  -3   4   7  376.05   13.33
   3  -4  -7  370.05   11.44
  -3   4   7  414.56   11.67
   3  -4  -7  396.51   11.32
  -3   4   6   29.92    2.52
   3  -4  -6   28.15    1.81
   3  -4  -6   27.75    1.88
  -3   4   6   30.56    2.89
   3  -4  -6   22.90    2.14
  -3   4   6   28.62    2.30
   3  -4  -6   23.67    2.02
  -3   4   5   12.03    1.59
   3  -4  -5   11.97    1.11
   3  -4  -5   11.14    1.12
   3  -4  -5   11.70    1.20
  -3   4   5    8.95    1.53
  -3   4   5   12.11    2.02
  -3   4   5   11.60    1.30
  -3   4   5   10.08    1.33
  -3   4   5   12.36    1.43
   3  -4  -5    9.97    1.30
   3  -4  -4  240.80    6.46
  -3   4   4  224.22    9.06
   3  -4  -4  258.13    7.00
  -3   4   4  203.87    7.01
   3  -4  -4  247.12    7.69
  -3   4   4  240.84    7.25
   3  -4  -4  219.03    7.24
  -3   4   3  447.95   12.48
   3  -4  -3  446.42   10.69
  -3   4   3  458.97   12.20
   3  -4  -3  451.84   11.84
  -3   4   3  426.51   11.73
  -3   4   3  447.69   11.35
   3  -4  -3  462.05   11.78
  -3   4   3  448.87   12.33
  -3   4   2  276.84    8.46
   3  -4  -2  270.43    7.05
  -3   4   2  275.76    8.76
   3  -4  -2  271.85    8.11
   3  -4  -2  280.02    8.10
  -3   4   2  277.20    8.49
  -3   4   2  295.48    7.80
  -3   4   2  277.53    8.56
   3  -4  -1  143.82    4.90
  -3   4   1  147.50    4.56
  -3   4   1  134.42    5.21
  -3   4   1  132.94    5.42
   3  -4  -1  134.84    4.29
  -3   4   1  137.98    5.30
  -3   4   1  144.25    5.30
   3  -4  -1  134.69    4.98
   3  -4  -1  136.24    4.47
  -3   4   0   30.66    2.20
  -3   4   0   29.27    2.13
  -3   4   0   31.80    2.27
  -3   4   0   29.65    2.23
   3  -4   0   30.58    1.87
  -3   4   0   27.79    1.62
   3  -4   0   29.15    2.00
   3  -4   1    6.59    0.77
  -3   4  -1    7.57    0.79
   3  -4   1    8.93    0.92
  -3   4  -1    7.06    1.03
  -3   4  -1    7.89    1.10
   3  -4   2  448.06   10.41
   3  -4   2  470.36   11.41
  -3   4  -2  455.69   12.21
   3  -4   2  437.15   10.39
  -3   4  -3    2.85    0.75
  -3   4  -3    2.37    0.70
   3  -4   3    2.30    0.58
  -3   4  -3    1.90    0.63
   3  -4   4  892.41   20.05
  -3   4  -4  949.30   21.23
  -3   4  -5    0.29    0.35
  -3   4  -5    0.21    0.30
   3  -4   5    0.75    0.33
  -3   4  -6   90.16    5.06
  -3   4  -6   83.68    4.88
  -3   4  -6  114.02    4.55
  -3   4  -6  107.29    4.99
   3  -4   6   93.20    3.76
   3  -4   6  104.42    4.40
  -3   4  -7    1.24    0.72
  -3   4  -7    0.30    0.37
  -3   4  -7    0.09    0.42
   3  -4   7    0.60    0.34
   3  -4   7    0.68    0.43
   3  -4   7    0.43    0.29
  -3   4  -8  192.58    7.61
   3  -4   8  179.13    6.20
   3  -4   8  179.34    6.20
  -3   4  -8  170.45    7.75
  -3   4  -9   77.75    4.95
   3  -4   9   73.22    3.40
  -3   4  -9   85.54    4.85
   3  -4   9   76.09    3.82
   3  -4   9   83.69    3.95
   3  -4   9   80.89    4.07
   3  -4  10    0.18    0.28
  -3   4 -10    0.24    0.37
  -3   4 -10    0.57    0.55
   3  -4  10    0.96    0.43
   3  -4  10   -0.07    0.28
  -3   4 -10    0.61    0.51
   3  -4  10    0.49    0.38
  -3   4 -10    0.34    0.52
  -3   4 -11   88.64    4.90
  -3   4 -11   76.10    3.94
   3  -4  11   75.33    3.42
   3  -4  11   78.11    3.93
  -3   4 -11   77.65    4.43
   3  -4  11   71.53    3.75
   3  -4  11   77.13    3.32
   3  -4  11   78.09    3.56
  -3   4 -12   48.93    3.18
  -3   4 -12   39.81    3.01
  -3   4 -12   40.41    2.56
   3  -4  12   40.93    2.27
   3  -4  12   40.12    2.65
  -3   4 -12   41.16    2.99
   3  -4  12   42.32    2.71
   3  -4  12   38.21    2.32
  -3   4 -13    4.68    0.85
  -3   4 -13    4.98    0.97
   3  -4  13    4.33    0.84
  -3   4 -13    4.05    0.73
   3  -4  13    4.36    0.81
   3  -4  14    0.44    0.28
  -3   4 -14    0.71    0.34
   3  -4  14    0.36    0.30
  -3   3  13    1.22    0.44
   3  -3 -13    1.20    0.41
   3  -3 -12    5.74    0.89
   3  -3 -12    6.54    0.92
  -3   3  12    4.88    0.94
   3  -3 -12    4.59    0.83
  -3   3  11   13.59    1.70
  -3   3  11   15.91    1.67
  -3   3  11   14.32    1.76
   3  -3 -11   16.14    1.55
   3  -3 -11   14.64    1.47
   3  -3 -11   15.83    1.50
  -3   3  11   16.54    1.68
  -3   3  10  167.28    7.14
   3  -3 -10  174.33    5.87
  -3   3  10  188.04    6.83
  -3   3  10  170.68    6.82
  -3   3  10  190.55    7.43
   3  -3 -10  176.95    6.05
   3  -3 -10  183.33    6.06
   3  -3 -10  195.47    6.20
  -3   3  10  183.94    6.77
  -3   3   9   65.23    4.28
   3  -3  -9   58.32    2.95
  -3   3   9   66.00    3.81
  -3   3   9   61.68    3.98
  -3   3   9   71.81    4.41
   3  -3  -9   66.02    3.19
   3  -3  -9   69.08    3.21
  -3   3   9   67.76    3.84
  -3   3   8   68.68    4.46
   3  -3  -8   75.28    3.19
  -3   3   8   72.34    4.06
  -3   3   8   77.93    4.67
  -3   3   8   84.78    4.86
   3  -3  -8   81.02    3.45
   3  -3  -8   71.22    4.02
  -3   3   8   71.09    3.97
  -3   3   8   74.20    4.73
   3  -3  -8   71.52    3.68
   3  -3  -7    1.47    0.43
  -3   3   7    1.09    0.60
  -3   3   7    1.44    0.63
  -3   3   7    0.83    0.63
   3  -3  -7    2.06    0.49
  -3   3   7    1.77    0.75
  -3   3   7    0.92    0.45
   3  -3  -7    1.76    0.63
  -3   3   7    1.00    0.57
   3  -3  -7    0.69    0.39
   3  -3  -6  119.59    4.01
  -3   3   6  124.01    5.26
   3  -3  -6  113.01    4.02
  -3   3   6  126.69    5.85
  -3   3   6   98.66    5.54
   3  -3  -6  115.10    5.07
  -3   3   6  109.98    4.84
  -3   3   6  123.73    5.48
   3  -3  -6  111.17    4.49
  -3   3   5   99.65    4.57
  -3   3   5   94.97    4.75
   3  -3  -5  110.72    3.80
   3  -3  -5   96.63    4.45
  -3   3   5  108.99    4.72
  -3   3   5   92.38    3.85
   3  -3  -5  100.44    4.13
  -3   3   5  106.27    4.04
  -3   3   4  181.40    5.99
   3  -3  -4  195.24    5.29
   3  -3  -4  196.43    6.61
  -3   3   4  194.54    6.21
  -3   3   4  201.74    6.55
   3  -3  -4  195.29    6.15
  -3   3   3   44.86    2.75
  -3   3   3   48.88    2.85
  -3   3   3   43.13    2.52
   3  -3  -3   48.67    2.75
  -3   3   3   42.85    2.48
   3  -3  -3   41.43    2.36
  -3   3   3   40.86    2.62
  -3   3   2   67.85    3.39
  -3   3   2   72.20    3.47
  -3   3   2   68.73    3.32
   3  -3  -2   70.55    3.25
  -3   3   2   73.60    3.20
   3  -3  -2   67.02    3.07
  -3   3   2   71.54    3.40
  -3   3   1  375.19   10.34
  -3   3   1  378.05   10.48
   3  -3  -1  405.89   10.10
  -3   3   1  387.60   10.59
   3  -3  -1  390.06    9.98
  -3   3   1  377.10   10.29
  -3   3   1  404.17   10.56
   3  -3   0   21.83    1.49
  -3   3   0   21.09    1.77
  -3   3   0   22.99    1.52
  -3   3   0   18.77    1.67
  -3   3   0   17.39    1.58
  -3   3  -1  633.16   15.79
   3  -3   1  675.47   14.76
  -3   3  -1  646.24   14.77
  -3   3  -2  112.82    4.41
  -3   3  -2  113.06    4.54
   3  -3   2   92.52    3.11
   3  -3   2  101.24    3.92
   3  -3   2  100.43    3.74
  -3   3  -3   46.83    2.80
   3  -3   3   54.91    2.67
   3  -3   3   51.93    2.66
  -3   3  -3   56.18    3.04
  -3   3  -3   46.20    2.89
  -3   3  -4   26.82    2.04
   3  -3   4   25.02    1.82
  -3   3  -4   22.39    1.98
   3  -3   4   22.19    1.43
   3  -3   4   25.68    1.84
  -3   3  -4   21.41    2.08
  -3   3  -5   50.35    2.79
   3  -3   5   48.45    2.65
  -3   3  -5   38.83    2.69
  -3   3  -5   40.44    2.52
  -3   3  -5   43.30    2.94
   3  -3   5   41.44    2.18
   3  -3   5   44.83    2.57
  -3   3  -5   43.00    2.57
  -3   3  -6    0.36    0.36
  -3   3  -6    0.28    0.26
  -3   3  -6    0.32    0.28
  -3   3  -6    1.37    0.48
  -3   3  -6    0.96    0.56
   3  -3   6    0.27    0.25
  -3   3  -6    1.76    0.70
   3  -3   6    0.37    0.26
   3  -3   6    0.30    0.30
  -3   3  -7  163.26    7.11
  -3   3  -7  193.56    8.00
   3  -3   7  167.25    5.92
  -3   3  -7  184.15    7.44
   3  -3   7  171.45    5.71
   3  -3   7  166.31    5.65
   3  -3   7  183.35    6.28
   3  -3   8   99.16    4.23
  -3   3  -8  101.67    5.56
  -3   3  -8   97.53    4.82
   3  -3   8   99.22    4.17
  -3   3  -8  101.77    5.49
  -3   3  -8  114.47    5.99
  -3   3  -9   35.66    3.18
  -3   3  -9   39.92    3.42
  -3   3  -9   32.92    2.66
   3  -3   9   34.70    2.23
  -3   3  -9   42.13    3.49
   3  -3   9   35.15    2.50
   3  -3   9   34.96    2.41
   3  -3   9   36.81    2.64
  -3   3 -10    9.68    1.65
  -3   3 -10    9.62    1.43
   3  -3  10    8.31    1.23
  -3   3 -10    8.40    1.57
   3  -3  10    8.65    1.24
   3  -3  10    9.23    1.17
  -3   3 -11   24.94    2.41
  -3   3 -11   21.40    2.35
  -3   3 -11   19.28    1.91
   3  -3  11   25.54    1.81
   3  -3  11   20.01    1.93
   3  -3  11   20.60    1.89
   3  -3  11   21.65    1.72
  -3   3 -12  230.31    7.44
  -3   3 -12  211.55    7.80
   3  -3  12  213.08    7.12
  -3   3 -12  202.38    6.82
   3  -3  12  219.08    7.06
   3  -3  12  209.20    6.33
  -3   3 -13    2.32    0.69
   3  -3  13    2.26    0.59
   3  -3  13    2.05    0.60
  -3   3 -13    2.23    0.55
   3  -3  14    0.18    0.25
  -3   3 -14    0.38    0.27
  -3   3 -15   -0.05    0.17
  -3   2  14   21.32    1.60
   3  -2 -14   23.47    1.53
  -3   2  13   15.37    1.55
  -3   2  13   17.08    1.66
   3  -2 -13   15.06    1.41
   3  -2 -13   15.19    1.44
   3  -2 -13   17.40    1.49
   3  -2 -13   15.53    1.40
  -3   2  13   16.24    1.48
  -3   2  12   90.98    4.53
   3  -2 -12  103.68    4.47
  -3   2  12   88.13    4.42
   3  -2 -12   93.39    4.00
   3  -2 -12   94.59    4.02
   3  -2 -12   94.29    3.99
  -3   2  12  101.89    4.48
   3  -2 -11    8.32    1.06
  -3   2  11    9.30    1.56
   3  -2 -11    8.63    1.06
  -3   2  11    9.33    1.47
   3  -2 -11    8.07    1.11
   3  -2 -11    9.75    1.39
  -3   2  11    8.38    1.22
   3  -2 -11    8.82    1.15
   3  -2 -11    8.59    1.17
  -3   2  11    7.34    1.27
  -3   2  10  700.85   17.92
   3  -2 -10  575.94   14.37
   3  -2 -10  582.25   15.76
  -3   2  10  558.00   15.62
  -3   2  10  632.62   16.98
   3  -2 -10  627.42   14.95
   3  -2 -10  654.68   15.08
   3  -2 -10  633.02   15.27
  -3   2  10  591.10   16.23
   3  -2  -9   99.04    4.96
  -3   2   9  107.33    6.37
  -3   2   9  118.51    6.06
   3  -2  -9   94.45    3.73
  -3   2   9  107.45    4.99
  -3   2   9   93.72    4.83
  -3   2   9  121.46    5.74
   3  -2  -9  109.46    4.19
   3  -2  -9  114.02    4.28
   3  -2  -9   95.60    3.86
   3  -2  -8    1.27    0.42
  -3   2   8    0.78    0.56
  -3   2   8    0.80    0.52
  -3   2   8    0.90    0.53
  -3   2   8    1.29    0.64
   3  -2  -8    0.85    0.40
   3  -2  -8    1.75    0.66
  -3   2   8    1.18    0.69
   3  -2  -8    0.85    0.42
  -3   2   7  520.59   15.22
   3  -2  -7  565.05   12.57
  -3   2   7  530.61   14.30
  -3   2   7  487.95   14.58
  -3   2   7  597.42   15.49
   3  -2  -7  515.01   14.55
  -3   2   7  567.25   16.21
   3  -2  -7  525.34   13.25
  -3   2   6   49.91    3.32
  -3   2   6   58.16    3.30
  -3   2   6   45.86    3.27
  -3   2   6   64.06    3.72
  -3   2   6   57.09    3.72
   3  -2  -6   53.17    2.70
  -3   2   5   72.02    3.64
  -3   2   5   60.75    3.33
  -3   2   5   72.98    3.80
   3  -2  -5   78.97    2.90
   3  -2  -5   77.90    3.87
  -3   2   5   71.85    3.17
  -3   2   5   80.04    4.09
  -3   2   5   82.40    3.36
   3  -2  -5   68.77    3.09
  -3   2   4   21.18    1.81
  -3   2   4   28.77    1.91
   3  -2  -4   24.89    2.01
  -3   2   4   26.62    2.09
   3  -2  -4   27.40    1.75
  -3   2   4   24.88    1.77
  -3   2   4   26.99    1.84
  -3   2   3   25.99    1.96
   3  -2  -3   27.96    2.02
  -3   2   3   29.76    2.00
  -3   2   3   33.24    2.17
   3  -2  -3   29.58    1.79
  -3   2   3   32.59    2.04
  -3   2   3   32.66    2.03
  -3   2   2   17.71    1.55
   3  -2  -2   19.73    1.58
  -3   2   2   20.21    1.62
  -3   2   2   19.45    1.57
  -3   2   2   16.17    1.45
   3  -2  -2   22.70    1.52
  -3   2   2   18.84    1.55
  -3   2   1    1.01    0.41
   3  -2  -1    0.86    0.31
   3  -2  -1    0.84    0.35
  -3   2   1    0.75    0.36
   3  -2   0   45.21    1.99
  -3   2   0   44.47    2.51
   3  -2   0   42.67    2.12
  -3   2   0   38.81    2.11
  -3   2   0   37.09    2.27
  -3   2   0   38.85    2.32
   3  -2   1  107.80    3.65
   3  -2   1  108.96    3.48
  -3   2  -1  106.47    4.20
  -3   2  -1  102.42    3.71
  -3   2  -1  101.47    4.07
  -3   2  -1   92.82    3.93
   3  -2   2   55.17    2.56
  -3   2  -2   52.67    2.80
  -3   2  -2   60.58    2.99
  -3   2  -2   53.02    2.46
   3  -2   2   55.23    2.64
  -3   2  -2   53.45    2.80
  -3   2  -2   50.10    2.75
   3  -2   3   98.69    3.68
  -3   2  -3   84.98    3.73
  -3   2  -3  100.13    4.03
   3  -2   3   92.67    3.64
  -3   2  -3   83.92    3.72
  -3   2  -3   80.57    3.79
  -3   2  -4  309.90    8.78
   3  -2   4  335.26    8.78
  -3   2  -4  294.38    8.64
  -3   2  -4  301.11    9.26
  -3   2  -4  285.11    9.05
  -3   2  -4  360.80    9.15
   3  -2   4  339.03    8.80
  -3   2  -5   47.68    2.67
   3  -2   5   59.06    2.98
  -3   2  -5   53.90    3.35
  -3   2  -5   53.86    2.81
   3  -2   5   58.06    2.62
  -3   2  -5   54.68    3.37
  -3   2  -5   67.45    3.03
   3  -2   5   59.41    2.95
  -3   2  -6   23.91    2.33
  -3   2  -6   25.81    2.33
  -3   2  -6   24.49    2.39
  -3   2  -6   28.01    2.58
   3  -2   6   27.76    1.84
  -3   2  -6   20.38    1.62
   3  -2   6   27.16    2.04
   3  -2   6   24.29    1.86
   3  -2   7   17.33    1.67
  -3   2  -7   13.33    1.84
  -3   2  -7   13.75    1.83
  -3   2  -7   17.38    2.08
  -3   2  -7   16.05    2.15
   3  -2   7   14.52    1.42
   3  -2   7   16.20    1.46
  -3   2  -7   16.42    1.82
   3  -2   7   14.14    1.49
  -3   2  -8   32.10    2.93
  -3   2  -8   35.75    3.05
   3  -2   8   35.47    2.38
  -3   2  -8   39.58    3.50
   3  -2   8   37.10    2.35
  -3   2  -8   35.19    2.73
   3  -2   8   32.05    2.12
   3  -2   9   37.50    2.68
  -3   2  -9   28.56    2.73
   3  -2   9   37.11    2.50
  -3   2  -9   37.20    3.50
  -3   2  -9   35.48    2.75
   3  -2   9   33.91    2.19
   3  -2   9   38.22    2.47
   3  -2   9   32.07    2.25
  -3   2  -9   40.65    3.22
  -3   2 -10    0.82    0.52
  -3   2 -10    0.56    0.45
   3  -2  10    0.55    0.39
  -3   2 -10    0.99    0.77
   3  -2  10    0.82    0.43
   3  -2  10    0.70    0.47
  -3   2 -10    0.63    0.51
  -3   2 -11   94.97    5.06
  -3   2 -11  106.69    5.64
   3  -2  11   92.62    4.34
  -3   2 -11   98.10    4.52
   3  -2  11   95.38    4.27
   3  -2  11   91.76    4.15
   3  -2  11  100.90    3.90
   3  -2  12    1.66    0.46
  -3   2 -12    1.82    0.66
   3  -2  12    1.79    0.59
  -3   2 -12    2.18    0.78
   3  -2  12    1.71    0.54
   3  -2  12    2.07    0.63
  -3   2 -12    2.39    0.66
   3  -2  13    3.66    0.74
  -3   2 -13    3.61    0.86
  -3   2 -13    5.08    0.93
  -3   2 -14   14.75    1.02
  -3   2 -14   15.38    1.24
  -3   1  14    3.66    0.70
   3  -1 -14    3.38    0.63
   3  -1 -14    4.34    0.72
   3  -1 -14    3.40    0.64
  -3   1  14    4.51    0.75
  -3   1  13    3.42    0.84
   3  -1 -13    3.94    0.82
   3  -1 -13    3.69    0.72
   3  -1 -13    3.74    0.74
   3  -1 -13    4.20    0.78
  -3   1  13    3.96    0.86
  -3   1  12   32.25    2.73
   3  -1 -12   32.97    2.07
  -3   1  12   32.74    2.65
   3  -1 -12   30.02    2.13
  -3   1  12   29.70    2.53
   3  -1 -12   31.42    2.20
   3  -1 -12   33.15    2.28
   3  -1 -12   33.36    2.58
  -3   1  11  102.74    5.12
   3  -1 -11  101.46    4.21
   3  -1 -11  102.39    4.23
  -3   1  11  109.45    5.61
  -3   1  10    2.22    0.79
   3  -1 -10    2.34    0.60
  -3   1  10    3.26    1.06
   3  -1 -10    4.58    0.82
  -3   1  10    3.15    0.97
  -3   1  10    4.01    0.87
   3  -1  -9   19.46    2.15
  -3   1   9   15.34    2.48
  -3   1   9   20.07    2.41
  -3   1   9   15.91    1.76
  -3   1   9   17.71    2.07
   3  -1  -9   18.30    1.51
   3  -1  -9   18.37    1.52
  -3   1   9   14.62    2.00
   3  -1  -9   16.09    1.44
  -3   1   8   11.89    1.80
   3  -1  -8   10.67    0.99
  -3   1   8   10.37    1.45
  -3   1   8    8.89    1.33
  -3   1   8   11.32    1.64
   3  -1  -8   10.80    1.12
   3  -1  -8   10.87    1.59
  -3   1   8   10.19    1.91
   3  -1  -8    8.09    1.02
  -3   1   7  138.20    5.55
  -3   1   7  121.54    5.33
  -3   1   7  136.16    5.93
   3  -1  -7  122.85    5.66
  -3   1   7  135.24    6.78
  -3   1   7  150.54    6.37
   3  -1  -7  138.52    4.16
  -3   1   6   60.03    3.55
  -3   1   6   67.02    3.66
  -3   1   6   63.36    3.41
  -3   1   6   60.19    3.94
   3  -1  -6   55.21    2.56
  -3   1   5  677.92   17.06
  -3   1   5  696.34   17.16
  -3   1   5  754.38   16.50
  -3   1   5  720.33   16.44
   3  -1  -5  686.57   15.78
   3  -1  -5  682.93   17.51
  -3   1   5  761.12   18.28
  -3   1   5  759.92   17.50
  -3   1   4  249.38    7.10
  -3   1   4  229.70    7.40
   3  -1  -4  247.95    6.49
  -3   1   4  264.99    7.25
  -3   1   4  257.22    7.21
   3  -1  -4  249.87    7.80
  -3   1   4  248.74    7.89
  -3   1   4  230.70    7.22
  -3   1   3  232.02    7.06
  -3   1   3  241.37    6.97
  -3   1   3  244.90    6.95
   3  -1  -3  245.46    7.30
  -3   1   3  254.39    7.14
  -3   1   3  229.17    7.22
   3  -1  -3  224.87    6.14
  -3   1   3  232.09    6.91
  -3   1   2    4.83    0.78
  -3   1   2    4.17    0.74
   3  -1  -2    4.55    0.61
  -3   1   2    4.76    0.78
   3  -1  -2    4.10    0.72
  -3   1   2    5.96    0.88
  -3   1   2    4.19    0.76
  -3   1   1    0.34    0.29
   3  -1  -1    0.20    0.15
   3  -1  -1    0.34    0.22
   3  -1  -1    0.26    0.22
  -3   1   1    0.15    0.22
  -3   1   1    0.24    0.19
  -3   1   1    0.58    0.32
   3  -1   0 1863.36   39.57
   3  -1   0 1905.03   39.34
  -3   1   0 2005.27   40.74
   3  -1   0 2073.05   40.09
  -3   1   0 1971.45   40.38
   3  -1   1  370.31    8.59
   3  -1   1  359.23    8.95
  -3   1  -1  361.25    9.61
  -3   1  -1  376.90    9.64
   3  -1   1  371.07    8.73
  -3   1  -1  361.76    9.59
   3  -1   1  360.19    9.18
  -3   1  -1  345.79    9.07
  -3   1  -1  346.81    9.50
  -3   1  -2   74.97    3.34
   3  -1   2   68.40    2.63
   3  -1   2   71.57    2.99
  -3   1  -2   79.15    3.37
   3  -1   2   76.20    3.12
  -3   1  -2   80.47    3.35
  -3   1  -2   75.38    3.34
  -3   1  -3  110.80    4.30
   3  -1   3  114.17    3.72
   3  -1   3  114.05    4.10
   3  -1   3  122.17    4.25
  -3   1  -3  103.95    4.20
  -3   1  -3  108.29    4.22
  -3   1  -4  151.07    5.21
   3  -1   4  159.07    4.73
   3  -1   4  156.32    5.21
  -3   1  -4  143.33    5.31
  -3   1  -4  151.30    5.17
  -3   1  -4  147.08    5.65
  -3   1  -5   31.89    2.30
  -3   1  -5   32.23    2.08
  -3   1  -5   38.47    2.68
  -3   1  -5   35.47    2.72
   3  -1   5   37.26    2.01
   3  -1   5   40.23    2.38
   3  -1   5   41.91    2.34
   3  -1   6   71.34    3.06
   3  -1   6   72.16    3.50
  -3   1  -6   58.00    3.33
  -3   1  -6   70.51    3.91
  -3   1  -6   71.04    3.94
  -3   1  -6   66.21    3.83
  -3   1  -6   67.84    4.23
   3  -1   6   68.74    2.97
  -3   1  -6   67.65    3.68
   3  -1   6   68.07    3.21
   3  -1   7   74.41    3.36
   3  -1   7   84.90    4.01
  -3   1  -7   79.16    4.28
  -3   1  -7   89.59    4.57
  -3   1  -7   72.16    4.82
   3  -1   7   79.79    3.62
   3  -1   7   78.15    3.40
  -3   1  -7   79.49    4.14
   3  -1   8  118.93    4.69
  -3   1  -8  129.50    5.72
  -3   1  -8  130.40    5.76
  -3   1  -8  124.78    5.92
   3  -1   8  123.63    4.87
  -3   1  -8  121.03    6.62
   3  -1   8  120.94    4.66
  -3   1  -8  118.48    5.36
   3  -1   8  122.56    4.41
  -3   1  -9  510.30   14.16
  -3   1  -9  508.77   16.14
   3  -1   9  514.83   13.29
  -3   1  -9  484.92   13.84
   3  -1   9  518.45   13.07
   3  -1   9  498.53   12.99
  -3   1  -9  512.16   14.90
  -3   1 -10  116.02    6.28
   3  -1  10  117.58    4.87
  -3   1 -10  114.62    5.14
   3  -1  10  109.12    4.58
   3  -1  10  106.25    4.59
  -3   1 -10  106.75    5.54
  -3   1 -11  235.79    8.49
  -3   1 -11  225.52    8.80
   3  -1  11  224.07    7.47
  -3   1 -11  237.61    7.78
   3  -1  11  237.67    6.75
   3  -1  11  229.76    7.40
  -3   1 -12    1.17    0.59
   3  -1  12    1.14    0.48
   3  -1  12    0.84    0.41
  -3   1 -13    0.72    0.34
   3  -1  13    0.64    0.34
  -3   1 -13    0.55    0.32
   3  -1  13    0.72    0.37
   3  -1  13    0.71    0.37
  -3   1 -14    0.15    0.18
  -3   0  15    0.33    0.24
   3   0 -15    0.49    0.23
   3   0 -14   29.59    2.04
   3   0 -14   32.37    1.90
  -3   0  14   29.97    2.18
  -3   0  14   31.46    2.19
  -3   0  13   10.52    1.41
   3   0 -13    9.89    1.16
   3   0 -13   11.28    1.18
   3   0 -13    9.36    1.18
   3   0 -13   10.65    1.25
  -3   0  13    8.53    1.34
   3   0 -12   37.13    2.33
   3   0 -12   38.25    2.36
   3   0 -12   38.22    2.40
   3   0 -12   38.37    2.51
  -3   0  12   38.72    3.07
  -3   0  12   39.45    3.07
   3   0 -11   18.73    1.65
   3   0 -11   22.15    1.87
  -3   0  11   21.08    2.41
  -3   0  11   19.56    2.30
   3   0 -11   17.38    1.57
  -3   0  10   33.74    3.06
  -3   0  10   31.88    2.76
   3   0 -10   27.15    1.89
   3   0 -10   30.01    2.02
   3   0 -10   30.28    2.18
  -3   0  10   30.52    3.02
   3   0 -10   30.71    2.00
   3   0  -9   41.58    3.26
  -3   0   9   34.61    3.73
  -3   0   9   36.81    2.60
  -3   0   9   46.34    3.58
  -3   0   9   41.24    3.12
   3   0  -9   44.88    2.36
   3   0  -9   40.79    2.31
  -3   0   9   41.88    3.54
   3   0  -9   42.75    2.38
   3   0  -8   55.59    3.75
  -3   0   8   45.91    4.05
  -3   0   8   47.16    2.97
  -3   0   8   62.37    3.76
   3   0  -8   56.39    2.54
  -3   0   8   62.90    4.03
  -3   0   8   58.76    4.03
   3   0  -8   49.11    2.58
  -3   0   7    3.96    0.99
  -3   0   7    2.92    0.85
  -3   0   7    2.47    0.92
  -3   0   7    3.38    0.90
  -3   0   6  167.72    6.42
  -3   0   6  154.08    6.06
   3   0  -6  180.07    6.82
  -3   0   6  154.22    6.83
  -3   0   6  192.57    6.60
  -3   0   5  106.50    4.61
  -3   0   5  117.67    4.77
  -3   0   5  101.97    4.36
  -3   0   5  130.23    4.63
   3   0  -5  129.27    4.27
  -3   0   5  113.88    5.19
  -3   0   4    0.48    0.30
  -3   0   4    0.42    0.30
  -3   0   4    0.50    0.30
  -3   0   4    0.32    0.27
   3   0  -4    0.88    0.35
  -3   0   4    0.20    0.27
  -3   0   3  453.76   11.40
  -3   0   3  466.90   11.39
  -3   0   3  434.38   11.54
  -3   0   3  444.59   11.59
   3   0  -3  466.77   11.16
  -3   0   3  437.41   11.68
  -3   0   2  292.66    8.25
  -3   0   2  276.44    8.09
   3   0  -2  283.18    7.54
  -3   0   2  285.77    7.96
  -3   0   2  271.86    7.84
  -3   0   1  567.68   13.29
  -3   0   1  568.88   13.35
  -3   0   1  540.51   13.47
   3   0  -1  519.05   12.04
  -3   0   1  548.51   13.45
  -3   0   1  544.04   13.20
   3   0   0  168.49    4.95
  -3   0   0  175.07    5.54
  -3   0  -1   55.36    2.82
  -3   0  -1   64.35    3.04
   3   0   1   57.15    2.54
   3   0   1   58.88    2.42
  -3   0  -1   57.65    2.91
   3   0   1   57.51    2.57
  -3   0  -1   58.15    2.71
  -3   0  -1   55.83    2.83
   3   0   2  144.46    4.56
  -3   0  -2  138.63    4.94
  -3   0  -2  142.06    4.91
   3   0   2  141.86    4.59
  -3   0  -2  133.21    4.83
   3   0   3  342.23    8.87
  -3   0  -3  327.14    9.02
   3   0   3  356.32    8.85
   3   0   4   19.45    1.49
  -3   0  -4   15.94    1.64
   3   0   4   19.01    1.48
  -3   0  -4   20.43    1.55
  -3   0  -5    6.11    1.09
  -3   0  -5    4.39    0.96
   3   0   5    4.09    0.74
  -3   0  -6  111.17    5.02
   3   0   6  122.52    4.33
  -3   0  -6  137.09    6.06
  -3   0  -6  108.03    5.53
   3   0   6  123.36    4.47
   3   0   6  117.60    4.45
   3   0   6  128.06    4.98
  -3   0  -7  183.77    6.98
   3   0   7  192.51    5.74
   3   0   7  200.73    6.14
  -3   0  -7  195.94    7.91
  -3   0  -7  194.41    7.54
  -3   0  -7  169.73    7.74
   3   0   7  201.36    6.33
   3   0   7  185.81    6.25
   3   0   7  208.48    7.07
  -3   0  -8  295.91    9.58
   3   0   8  299.23    8.51
  -3   0  -8  333.40   10.71
  -3   0  -8  291.46   10.10
  -3   0  -8  258.85   10.50
   3   0   8  320.01    9.08
   3   0   8  298.22    8.71
   3   0   8  288.92    8.68
  -3   0  -9  837.69   21.28
  -3   0  -9  839.77   21.32
   3   0   9  849.60   19.74
  -3   0  -9  778.81   22.03
   3   0   9  831.31   19.49
  -3   0  -9  792.55   20.26
  -3   0 -10    1.24    0.57
   3   0  10    1.19    0.52
  -3   0 -10    1.09    0.54
  -3   0 -10    0.67    0.53
   3   0  10    0.97    0.44
  -3   0 -10    1.34    0.68
   3   0  11    0.04    0.20
  -3   0 -11   -0.12    0.28
  -3   0 -11   -0.09    0.39
   3   0  11    0.06    0.29
   3   0  11    0.11    0.26
  -3   0 -11   -0.15    0.30
   3   0  11    0.56    0.37
  -3   0 -12    9.32    1.01
   3   0  12   11.22    1.25
  -3   0 -12    9.61    1.20
   3   0  12   10.52    1.15
   3   0  12   10.06    1.19
   3   0  13    0.34    0.26
   3   0  13    0.18    0.20
  -3   0 -13    0.64    0.31
  -3  -1  15   48.12    2.48
   3   1 -15   51.21    2.38
   3   1 -15   49.38    2.33
  -3  -1  15   52.74    2.55
  -3  -1  14   36.03    2.44
   3   1 -14   31.90    2.07
   3   1 -14   32.93    1.97
   3   1 -13   10.81    1.16
  -3  -1  13   12.68    1.64
   3   1 -13   11.09    1.23
   3   1 -13   12.83    1.40
  -3  -1  13   15.68    1.80
   3   1 -13   13.39    1.35
  -3  -1  12  128.25    5.84
   3   1 -12  119.07    4.57
   3   1 -12  122.42    4.78
  -3  -1  12  129.01    6.00
   3   1 -12  123.09    4.68
  -3  -1  11   51.66    3.53
   3   1 -11   46.14    2.59
   3   1 -11   53.33    2.80
   3   1 -11   56.45    3.03
  -3  -1  11   56.36    4.08
  -3  -1  11   58.56    3.98
  -3  -1  10   22.70    2.44
   3   1 -10   18.63    2.21
   3   1 -10   16.49    1.43
   3   1 -10   17.80    1.51
   3   1 -10   19.13    1.69
  -3  -1  10   24.40    2.73
   3   1 -10   20.25    1.61
  -3  -1   9    0.73    0.59
  -3  -1   9    1.09    0.56
   3   1  -9    1.06    0.58
  -3  -1   9    0.28    0.36
   3   1  -9    0.82    0.36
   3   1  -9    0.53    0.31
  -3  -1   9    0.82    0.66
   3   1  -9    0.78    0.36
  -3  -1   8    2.54    0.81
   3   1  -8    4.58    1.11
  -3  -1   8    1.38    0.74
   3   1  -8    1.53    0.40
  -3  -1   8    1.98    0.70
   3   1  -8    2.19    0.51
  -3  -1   8    2.13    0.82
  -3  -1   8    2.53    0.83
  -3  -1   7   46.09    3.19
  -3  -1   7   37.13    3.24
  -3  -1   7   40.41    3.11
  -3  -1   7   44.18    3.16
  -3  -1   7   43.99    3.02
  -3  -1   7   43.66    3.23
   3   1  -7   43.83    2.32
  -3  -1   6  163.94    6.20
  -3  -1   6  171.18    5.69
   3   1  -6  155.16    5.31
  -3  -1   6  148.13    6.41
  -3  -1   6  141.50    5.88
   3   1  -6  143.20    4.80
  -3  -1   6  145.50    5.42
  -3  -1   5  337.39    9.77
  -3  -1   5  352.91    9.72
   3   1  -5  351.42    9.41
  -3  -1   5  345.42   10.33
  -3  -1   5  354.89    9.83
  -3  -1   5  341.41    9.61
  -3  -1   4   57.74    3.08
  -3  -1   4   70.63    3.47
   3   1  -4   72.35    3.27
  -3  -1   4   68.92    3.55
  -3  -1   4   62.62    3.36
  -3  -1   4   60.92    3.09
  -3  -1   4   64.17    3.32
   3   1  -3  361.30    8.86
  -3  -1   3  354.98   10.03
  -3  -1   3  350.94    9.84
   3   1  -3  351.07    9.42
  -3  -1   3  345.48    9.91
  -3  -1   3  351.79    9.85
   3   1  -2  441.01   10.40
  -3  -1   2  451.78   11.71
  -3  -1   2  414.67   11.14
   3   1  -1   20.65    1.40
  -3  -1   1   17.48    1.65
  -3  -1   1   16.59    1.44
  -3  -1   1   19.62    1.74
  -3  -1   1   17.34    1.60
  -3  -1   0  155.20    5.57
  -3  -1   0  147.92    5.15
   3   1   0  172.71    4.91
  -3  -1   0  159.53    5.64
  -3  -1   0  158.97    5.53
  -3  -1  -1   29.94    2.11
  -3  -1  -1   27.60    1.88
   3   1   1   32.19    1.77
  -3  -1  -1   30.50    2.14
  -3  -1  -1   29.93    2.08
   3   1   1   32.24    2.01
   3   1   2    4.53    0.68
  -3  -1  -2    5.36    0.87
  -3  -1  -2    6.59    0.98
  -3  -1  -2    5.21    0.85
   3   1   2    5.24    0.82
   3   1   3    1.81    0.44
  -3  -1  -3    1.29    0.43
  -3  -1  -3    1.04    0.53
  -3  -1  -3    1.17    0.43
   3   1   3    1.53    0.48
  -3  -1  -4   48.19    2.87
  -3  -1  -4   52.49    3.04
  -3  -1  -4   53.61    2.74
   3   1   4   57.69    2.89
  -3  -1  -4   60.51    2.92
  -3  -1  -4   55.02    3.63
  -3  -1  -5   77.97    4.70
  -3  -1  -5   67.82    3.68
   3   1   5   74.92    3.48
   3   1   6  618.34   14.35
  -3  -1  -6  579.59   15.36
   3   1   6  606.72   14.58
   3   1   7  354.58    9.59
  -3  -1  -7  346.99   10.62
   3   1   7  352.10    9.73
   3   1   7  350.84    9.84
   3   1   7  385.59   10.79
  -3  -1  -8    6.82    1.23
  -3  -1  -8    7.54    1.31
  -3  -1  -8    7.22    1.52
   3   1   8    5.58    0.95
   3   1   8    7.98    1.19
  -3  -1  -8    4.88    1.16
   3   1   8    7.09    1.10
  -3  -1  -8    4.83    0.98
  -3  -1  -9   68.53    3.97
  -3  -1  -9   87.10    5.01
   3   1   9   81.37    3.76
   3   1   9   80.10    3.82
   3   1   9   78.63    3.64
   3   1   9   77.48    3.73
  -3  -1  -9   64.48    4.15
  -3  -1  -9   69.48    3.71
  -3  -1 -10    1.14    0.48
   3   1  10    2.17    0.63
  -3  -1 -10    1.47    0.65
   3   1  10    1.12    0.49
   3   1  10    1.25    0.47
  -3  -1 -10    1.38    0.61
  -3  -1 -11    1.02    0.39
   3   1  11    1.36    0.51
   3   1  11    0.95    0.43
  -3  -1 -11    0.76    0.40
   3   1  11    0.99    0.46
   3   1  12   28.13    1.71
   3   1  12   27.22    1.85
  -3  -1 -12   29.49    1.89
  -3  -1 -13   33.27    1.56
   3   2 -15   17.59    1.36
  -3  -2  15   17.44    1.46
   3   2 -14    2.95    0.62
   3   2 -14    3.82    0.71
  -3  -2  14    3.44    0.78
   3   2 -13  201.42    6.54
   3   2 -13  213.34    6.73
   3   2 -13  213.92    6.28
   3   2 -12    0.71    0.37
   3   2 -12    1.35    0.52
  -3  -2  12    1.03    0.58
   3   2 -11   39.50    2.33
   3   2 -11   42.33    2.57
  -3  -2  11   47.17    3.72
   3   2 -11   45.28    2.67
  -3  -2  11   46.31    3.49
  -3  -2  10   25.14    2.74
   3   2 -10   20.48    1.61
   3   2 -10   23.91    1.85
  -3  -2  10   28.09    2.92
   3   2 -10   26.18    1.87
  -3  -2   9  150.08    7.34
  -3  -2   9  190.21    7.52
   3   2  -9  164.85    5.60
  -3  -2   9  204.17    8.21
   3   2  -9  157.26    5.12
  -3  -2   9  197.56    7.68
  -3  -2   8  155.86    6.86
  -3  -2   8  147.11    6.45
  -3  -2   8  158.23    6.98
   3   2  -8  144.31    4.95
  -3  -2   7   39.32    3.27
  -3  -2   7   44.37    3.15
   3   2  -7   38.31    2.51
  -3  -2   7   41.50    3.22
  -3  -2   7   37.17    3.06
  -3  -2   7   30.72    2.68
  -3  -2   7   34.36    2.45
   3   2  -7   40.53    2.23
  -3  -2   6   59.20    3.92
  -3  -2   6   59.05    3.40
  -3  -2   6   61.06    3.61
  -3  -2   6   68.63    3.59
   3   2  -6   58.06    3.19
  -3  -2   6   58.28    3.66
  -3  -2   6   56.68    3.59
  -3  -2   6   51.22    3.32
  -3  -2   6   56.78    3.26
   3   2  -6   62.46    2.80
  -3  -2   5  386.71   11.20
  -3  -2   5  379.81   11.06
  -3  -2   5  423.87   11.50
   3   2  -5  437.04   11.11
  -3  -2   5  381.92   11.30
  -3  -2   5  373.96   11.03
  -3  -2   5  372.63   10.91
  -3  -2   5  385.76   11.01
   3   2  -5  390.86    9.77
   3   2  -4    3.89    0.72
  -3  -2   4    5.08    1.02
  -3  -2   4    4.76    0.94
   3   2  -4    4.25    0.87
   3   2  -4    4.05    0.64
  -3  -2   4    3.77    0.84
  -3  -2   4    4.03    0.82
  -3  -2   4    5.72    1.06
   3   2  -3   26.14    1.80
  -3  -2   3   26.66    2.30
  -3  -2   3   31.92    2.20
   3   2  -3   29.53    2.14
   3   2  -3   26.65    1.57
  -3  -2   3   27.41    2.22
  -3  -2   3   26.18    2.23
   3   2  -2  534.68   13.49
  -3  -2   2  572.96   14.08
   3   2  -2  571.00   12.76
   3   2  -1   14.57    1.31
  -3  -2   1   15.07    1.39
   3   2  -1   12.93    0.94
  -3  -2   1   14.19    1.56
  -3  -2   1   14.96    1.63
  -3  -2   0   95.94    4.43
  -3  -2   0   95.57    3.90
  -3  -2   0   95.06    4.30
  -3  -2   0  100.81    4.49
  -3  -2  -1   24.16    2.20
   3   2   1   29.77    2.16
  -3  -2  -1   29.48    2.26
  -3  -2  -1   28.08    2.14
   3   2   1   28.31    2.06
  -3  -2  -1   31.22    2.30
  -3  -2  -2  306.36    9.91
  -3  -2  -2  304.91    8.89
   3   2   2  333.54    9.02
   3   2   2  330.92    9.50
  -3  -2  -2  284.80    8.87
  -3  -2  -2  260.86    8.74
  -3  -2  -2  332.28    9.26
  -3  -2  -3   34.93    2.44
  -3  -2  -3   30.98    2.22
  -3  -2  -3   37.97    2.47
  -3  -2  -3   29.21    2.54
  -3  -2  -3   38.45    3.01
  -3  -2  -3   31.58    2.24
  -3  -2  -3   34.75    2.30
   3   2   3   35.92    2.37
   3   2   4  156.35    5.67
  -3  -2  -4  162.23    7.15
  -3  -2  -4  172.11    6.42
  -3  -2  -4  145.85    5.66
  -3  -2  -4  147.08    5.77
  -3  -2  -4  173.51    6.22
  -3  -2  -4  151.95    5.41
  -3  -2  -5    0.23    0.36
  -3  -2  -5    0.50    0.50
  -3  -2  -5    0.51    0.61
  -3  -2  -5    0.45    0.43
   3   2   5    1.00    0.43
  -3  -2  -5    0.21    0.35
   3   2   5    1.22    0.49
   3   2   6   13.42    1.91
   3   2   6   15.85    1.55
  -3  -2  -6   12.37    2.15
  -3  -2  -6   12.12    1.76
   3   2   6   12.93    1.35
   3   2   6   12.76    1.47
  -3  -2  -6   14.39    1.66
  -3  -2  -6   12.01    1.57
  -3  -2  -7    3.93    1.24
   3   2   7    2.99    0.72
   3   2   7    3.41    0.77
  -3  -2  -7    3.48    0.85
  -3  -2  -7    2.85    0.91
  -3  -2  -8    0.49    0.45
  -3  -2  -8    0.52    0.44
   3   2   8    1.42    0.53
   3   2   8    0.44    0.37
  -3  -2  -8    0.40    0.39
  -3  -2  -9    2.59    0.79
   3   2   9    2.20    0.66
   3   2   9    3.02    0.73
   3   2   9    2.03    0.61
   3   2   9    3.03    0.67
  -3  -2  -9    2.51    0.65
   3   2  10   13.40    1.28
   3   2  10   14.13    1.42
  -3  -2 -10   13.51    1.49
  -3  -2 -10   13.23    1.72
  -3  -2 -11   16.21    1.43
   3   2  11   14.10    1.20
   3   2  11   12.87    1.28
  -3  -2 -12    8.25    0.79
   3   3 -14   26.85    1.78
  -3  -3  14   30.38    2.26
  -3  -3  14   31.22    2.23
   3   3 -14   24.07    1.57
  -3  -3  13    0.07    0.28
   3   3 -13    0.05    0.25
   3   3 -13    0.26    0.27
  -3  -3  13    0.51    0.44
   3   3 -13    0.23    0.25
  -3  -3  12    2.03    0.74
   3   3 -12    1.89    0.59
   3   3 -12    1.60    0.54
  -3  -3  12    1.40    0.71
  -3  -3  12    2.14    0.76
  -3  -3  11    7.48    1.38
  -3  -3  11   11.26    1.91
   3   3 -11    6.61    1.00
  -3  -3  11    8.23    1.56
   3   3 -11    8.10    1.11
  -3  -3  11    9.09    1.49
   3   3 -10  361.99   10.06
  -3  -3  10  371.64   11.84
   3   3 -10  354.53    9.78
  -3  -3  10  397.90   12.68
  -3  -3  10  387.76   12.42
   3   3  -9   93.17    3.81
  -3  -3   9   76.77    4.73
   3   3  -9   89.70    3.65
  -3  -3   9   96.07    5.43
  -3  -3   9   77.81    5.07
  -3  -3   9   97.67    5.69
   3   3  -8  490.92   12.05
   3   3  -8  491.28   12.95
  -3  -3   8  442.95   13.84
  -3  -3   8  437.40   12.65
   3   3  -8  480.01   11.65
  -3  -3   8  548.61   15.17
  -3  -3   8  432.01   14.47
  -3  -3   8  536.57   15.97
   3   3  -7   90.37    3.62
  -3  -3   7   80.45    4.27
  -3  -3   7   96.02    4.60
   3   3  -7   90.17    4.26
  -3  -3   7   88.72    4.73
  -3  -3   7   94.04    5.03
  -3  -3   7   83.10    5.00
  -3  -3   7   93.99    5.72
   3   3  -6  609.02   13.78
  -3  -3   6  512.55   14.93
  -3  -3   6  511.44   15.10
  -3  -3   6  643.54   16.09
   3   3  -6  569.40   14.96
  -3  -3   6  558.98   15.41
  -3  -3   6  623.25   16.11
  -3  -3   6  573.16   15.77
  -3  -3   6  564.94   16.09
  -3  -3   6  623.38   14.38
  -3  -3   6  555.85   14.60
  -3  -3   6  572.38   17.23
  -3  -3   5  111.90    5.46
   3   3  -5  135.89    4.50
  -3  -3   5  118.99    5.70
   3   3  -5  133.49    5.11
  -3  -3   5  140.54    6.21
   3   3  -5  147.34    5.71
  -3  -3   5  125.72    5.39
  -3  -3   5  146.69    6.36
  -3  -3   5  130.70    5.89
  -3  -3   5  153.17    5.08
  -3  -3   5  127.61    4.78
  -3  -3   5  136.25    5.20
  -3  -3   5  152.28    5.16
  -3  -3   5  128.99    6.50
  -3  -3   4   11.12    1.63
   3   3  -4   12.34    1.37
  -3  -3   4   13.31    1.79
  -3  -3   4    9.70    1.31
   3   3  -4   12.10    1.51
  -3  -3   4   11.07    1.54
  -3  -3   4    9.71    1.48
   3   3  -4   11.44    1.06
  -3  -3   4    8.97    1.50
  -3  -3   4    9.98    1.60
   3   3  -3   87.21    3.94
  -3  -3   3   95.37    5.03
  -3  -3   3   84.47    3.87
   3   3  -3   98.05    4.49
   3   3  -3   91.12    3.21
   3   3  -2    3.04    0.73
  -3  -3   2    2.02    0.74
  -3  -3   2    2.22    0.58
  -3  -3   2    2.42    0.80
  -3  -3   1   70.06    3.98
   3   3  -1   80.36    3.57
  -3  -3   1   72.57    3.39
  -3  -3   1   86.66    4.52
   3   3   0  311.29    9.01
  -3  -3   0  282.58    9.61
  -3  -3   0  318.83    9.89
  -3  -3   0  290.01    9.70
  -3  -3   0  272.64    9.45
  -3  -3   0  291.43    9.77
  -3  -3   0  279.86    8.47
  -3  -3   0  272.74    8.34
   3   3   0  310.27    9.06
  -3  -3   0  304.00    9.58
   3   3   1  305.41    9.27
  -3  -3  -1  265.50    9.29
  -3  -3  -1  315.73    9.67
  -3  -3  -1  284.19    9.78
  -3  -3  -1  282.42   10.07
  -3  -3  -1  319.89    8.93
  -3  -3  -1  275.78    9.41
  -3  -3  -1  267.99    8.40
   3   3   1  306.41    9.08
  -3  -3  -1  291.47    9.30
   3   3   2  188.09    7.03
  -3  -3  -2  175.07    6.71
  -3  -3  -2  154.25    6.22
  -3  -3  -2  200.61    6.99
  -3  -3  -2  196.73    8.12
  -3  -3  -2  194.87    6.86
  -3  -3  -2  212.74    6.55
  -3  -3  -2  161.84    6.59
  -3  -3  -2  175.40    6.20
   3   3   2  190.27    6.59
  -3  -3  -2  192.52    6.73
   3   3   3    9.79    1.53
  -3  -3  -3    8.56    1.24
  -3  -3  -3    8.24    1.45
  -3  -3  -3    9.38    1.72
  -3  -3  -3    7.65    1.18
  -3  -3  -3    8.14    1.40
  -3  -3  -3    5.93    1.07
  -3  -3  -3    6.93    1.09
  -3  -3  -3    6.41    1.09
  -3  -3  -3    8.36    1.20
   3   3   3    8.60    1.22
   3   3   4  319.88    9.31
  -3  -3  -4  266.90   10.45
  -3  -3  -4  335.07   10.38
   3   3   4  319.10    8.94
  -3  -3  -4  277.63    8.90
  -3  -3  -4  290.54    9.27
   3   3   4  339.40   10.72
   3   3   5  110.23    5.65
  -3  -3  -5   92.81    5.84
  -3  -3  -5  104.62    5.35
   3   3   5  105.72    4.35
  -3  -3  -5   94.54    4.40
  -3  -3  -5   95.33    4.67
   3   3   5   97.95    4.48
   3   3   6    7.67    1.12
  -3  -3  -6    6.27    1.38
  -3  -3  -6    6.46    1.58
  -3  -3  -6    5.23    1.21
   3   3   6    6.79    1.03
  -3  -3  -6    6.71    1.09
  -3  -3  -6    5.91    1.13
   3   3   7   69.14    3.49
  -3  -3  -7   76.44    5.20
  -3  -3  -7   65.98    4.29
   3   3   7   71.96    3.46
   3   3   7   67.77    3.47
  -3  -3  -7   69.25    3.82
  -3  -3  -7   67.40    3.47
   3   3   8    6.73    1.04
  -3  -3  -8    5.80    1.37
  -3  -3  -8    4.51    1.09
   3   3   8    5.51    0.94
  -3  -3  -8    6.00    1.07
  -3  -3  -8    4.84    0.84
   3   3   9    4.03    0.76
  -3  -3  -9    4.52    1.08
   3   3   9    4.22    0.73
   3   3   9    4.16    0.79
  -3  -3  -9    3.67    0.78
   3   3  10   42.00    2.10
   3   3  10   43.67    2.40
  -3  -3 -10   46.26    2.43
   3   3  10   44.21    2.35
  -3  -3 -11   19.27    1.23
  -3  -4  15    0.12    0.22
  -3  -4  14   14.12    1.33
   3   4 -14   13.53    1.25
   3   4 -14   11.98    1.10
  -3  -4  13   28.13    2.34
   3   4 -13   25.70    1.87
  -3  -4  13   28.33    2.39
   3   4 -13   24.12    1.72
   3   4 -12   27.60    1.94
  -3  -4  12   27.21    2.68
  -3  -4  12   25.65    2.50
   3   4 -12   22.98    1.83
  -3  -4  12   25.06    2.30
   3   4 -11    0.75    0.44
  -3  -4  11    0.74    0.60
  -3  -4  11    0.63    0.55
  -3  -4  11    0.83    0.56
   3   4 -10   50.58    2.82
  -3  -4  10   47.33    3.94
  -3  -4  10   45.44    3.65
  -3  -4  10   43.13    3.73
   3   4  -9   50.94    2.83
  -3  -4   9   57.73    4.11
  -3  -4   9   48.65    4.11
  -3  -4   9   56.11    4.63
   3   4  -8   16.83    1.55
  -3  -4   8   13.77    1.70
   3   4  -8   15.18    1.47
   3   4  -8   15.75    1.76
  -3  -4   8   11.91    1.69
  -3  -4   8   19.95    2.36
  -3  -4   8   16.49    2.41
  -3  -4   8   19.04    2.84
   3   4  -7   70.93    3.24
  -3  -4   7   64.70    3.92
  -3  -4   7   64.02    3.97
  -3  -4   7   75.12    4.34
   3   4  -7   72.09    3.93
  -3  -4   7   60.18    3.71
  -3  -4   7   80.85    4.53
  -3  -4   7   66.22    4.75
  -3  -4   7   59.12    5.03
   3   4  -6   39.42    2.29
  -3  -4   6   36.55    3.06
  -3  -4   6   34.88    3.05
  -3  -4   6   49.07    3.66
   3   4  -6   42.80    3.05
  -3  -4   6   37.91    2.74
  -3  -4   6   43.20    3.48
  -3  -4   6   40.26    3.47
  -3  -4   6   43.78    2.73
  -3  -4   6   44.46    2.87
  -3  -4   6   38.52    3.95
   3   4  -5   69.52    3.01
  -3  -4   5   60.57    4.26
   3   4  -5   68.49    3.69
  -3  -4   5   75.03    4.82
  -3  -4   5   62.21    3.44
   3   4  -5   72.40    4.09
  -3  -4   5   49.08    4.06
  -3  -4   5   68.48    4.65
  -3  -4   5   68.51    4.35
  -3  -4   5   74.85    3.55
  -3  -4   5   65.04    3.53
  -3  -4   5   79.80    3.74
  -3  -4   4    6.56    1.46
  -3  -4   4    7.14    1.40
  -3  -4   4    6.88    1.55
   3   4  -4    7.81    0.90
  -3  -4   4    6.22    0.99
  -3  -4   4    8.63    1.19
  -3  -4   4    6.12    1.42
   3   4  -4    7.05    1.17
  -3  -4   4    8.50    1.67
  -3  -4   4    6.04    1.00
   3   4  -4    9.84    1.49
  -3  -4   3   31.59    2.59
  -3  -4   3   37.75    2.98
  -3  -4   3   46.21    3.92
  -3  -4   3   43.13    2.69
  -3  -4   3   39.82    3.29
  -3  -4   3   43.41    2.63
   3   4  -3   45.58    2.98
  -3  -4   3   43.84    3.78
  -3  -4   3   38.95    2.44
   3   4  -3   50.23    3.35
  -3  -4   2   19.89    2.51
  -3  -4   2   15.21    1.96
  -3  -4   2   18.15    1.94
  -3  -4   2   18.16    1.70
  -3  -4   2   17.30    2.04
  -3  -4   2   20.68    1.80
  -3  -4   2   18.67    1.76
   3   4  -2   22.15    2.10
  -3  -4   1  311.74   10.65
  -3  -4   1  266.82    9.81
  -3  -4   1  230.39    8.60
  -3  -4   1  249.90    8.32
  -3  -4   1  283.02   10.49
  -3  -4   1  268.33    8.17
  -3  -4   1  250.43    8.72
  -3  -4   1  296.84    8.40
  -3  -4   1  253.88    8.19
   3   4  -1  299.49    8.46
  -3  -4   1  259.30   10.08
   3   4   0   16.19    1.73
  -3  -4   0   12.77    1.93
  -3  -4   0   16.06    2.09
  -3  -4   0   14.40    2.03
  -3  -4   0   12.14    1.94
  -3  -4   0   11.95    1.53
  -3  -4   0   14.90    1.56
   3   4   0   15.58    1.74
   3   4   1   22.92    2.23
  -3  -4  -1   22.36    2.41
  -3  -4  -1   26.96    2.58
  -3  -4  -1   24.65    2.75
  -3  -4  -1   22.81    2.75
  -3  -4  -1   21.47    2.38
  -3  -4  -1   24.23    2.06
  -3  -4  -1   23.05    1.97
   3   4   1   23.36    2.13
  -3  -4  -1   26.01    2.48
   3   4   2   49.35    3.47
  -3  -4  -2   38.34    3.05
  -3  -4  -2   49.32    3.86
  -3  -4  -2   49.08    4.25
  -3  -4  -2   51.38    3.40
  -3  -4  -2   49.05    3.34
  -3  -4  -2   41.17    3.14
  -3  -4  -2   45.89    2.85
  -3  -4  -2   43.36    2.89
   3   4   2   42.95    2.93
  -3  -4  -2   45.62    3.15
   3   4   3   14.67    1.98
  -3  -4  -3   11.90    1.55
  -3  -4  -3   16.03    2.19
  -3  -4  -3   21.57    2.86
  -3  -4  -3   11.56    1.63
  -3  -4  -3   16.01    1.78
  -3  -4  -3   15.32    1.93
  -3  -4  -3   14.68    1.75
   3   4   3   13.96    1.57
  -3  -4  -3   14.11    1.65
  -3  -4  -3   14.50    1.60
   3   4   3   15.19    1.58
   3   4   3   14.45    1.65
  -3  -4  -4  224.06    9.18
  -3  -4  -4  290.31    9.84
   3   4   4  285.32    8.58
   3   4   4  283.09    8.56
  -3  -4  -4  341.49   12.16
  -3  -4  -4  272.12    8.85
  -3  -4  -4  281.05    8.59
  -3  -4  -5    6.41    1.40
  -3  -4  -5   12.38    1.83
   3   4   5   12.76    1.45
   3   4   5   12.29    1.42
   3   4   5   12.90    1.50
  -3  -4  -5   10.27    1.43
  -3  -4  -5   11.45    1.39
   3   4   6   48.83    2.87
  -3  -4  -6   41.81    3.58
  -3  -4  -6   49.13    3.58
   3   4   6   47.28    2.80
   3   4   6   48.18    2.82
   3   4   6   46.75    2.82
  -3  -4  -6   43.01    2.91
  -3  -4  -6   50.50    2.80
   3   4   7   50.22    2.85
  -3  -4  -7   45.07    3.56
  -3  -4  -7   49.55    3.54
   3   4   7   51.24    2.86
  -3  -4  -7   50.44    3.02
   3   4   8   23.83    1.86
  -3  -4  -8   24.19    2.33
   3   4   8   23.62    1.78
  -3  -4  -8   26.88    2.37
   3   4   8   25.04    1.86
  -3  -4  -8   22.99    1.86
   3   4   9    0.32    0.28
   3   4   9    0.48    0.25
   3   4   9    0.46    0.31
  -3  -4  -9    0.73    0.34
  -3  -4 -10   20.32    1.20
   3   5 -14    2.17    0.47
  -3  -5  14    2.78    0.60
   3   5 -14    1.95    0.46
  -3  -5  13    7.98    1.25
   3   5 -13    8.05    1.01
   3   5 -13    9.59    1.07
  -3  -5  13   10.23    1.23
  -3  -5  12    1.74    0.83
   3   5 -12    3.02    0.67
  -3  -5  12    2.90    0.83
   3   5 -12    3.02    0.66
   3   5 -11  118.60    4.64
  -3  -5  11  120.23    5.89
   3   5 -11  117.39    4.58
   3   5 -10   87.75    3.93
   3   5 -10   89.63    3.88
   3   5 -10   83.02    3.71
  -3  -5  10   96.73    5.91
  -3  -5  10   87.38    5.34
   3   5  -9   26.24    1.97
  -3  -5   9   32.38    3.31
  -3  -5   9   30.55    3.57
   3   5  -8  371.41    9.92
  -3  -5   8  320.57   10.90
  -3  -5   8  404.39   11.88
  -3  -5   8  433.14   13.90
  -3  -5   8  365.72   14.44
   3   5  -7    2.96    0.68
  -3  -5   7    3.33    0.94
  -3  -5   7    3.44    0.98
  -3  -5   7    2.80    0.93
  -3  -5   7    2.79    0.93
  -3  -5   7    5.69    1.45
  -3  -5   7    1.30    1.01
  -3  -5   7    5.14    1.05
   3   5  -6  118.10    4.56
  -3  -5   6  113.08    6.25
  -3  -5   6  140.44    6.97
   3   5  -6  126.39    5.80
  -3  -5   6   93.42    6.24
  -3  -5   6  146.36    7.16
  -3  -5   6  141.13    6.97
  -3  -5   6  136.93    5.37
  -3  -5   6  117.22    5.16
  -3  -5   5  138.91    7.30
  -3  -5   5  191.61    8.92
   3   5  -5  181.13    6.98
  -3  -5   5  195.50    8.92
   3   5  -5  177.92    7.27
  -3  -5   5  191.90    6.57
  -3  -5   5  181.11    6.52
  -3  -5   5  141.88    8.03
  -3  -5   5  173.75    8.30
  -3  -5   4    1.30    0.68
  -3  -5   4    3.28    1.21
  -3  -5   4    2.64    0.72
   3   5  -4    2.06    0.73
  -3  -5   4    2.28    1.04
   3   5  -4    1.30    0.68
  -3  -5   4    2.57    0.70
  -3  -5   4    2.47    0.72
  -3  -5   4    2.47    0.97
  -3  -5   4    2.00    0.99
  -3  -5   3   21.04    2.89
  -3  -5   3   15.63    2.00
  -3  -5   3   13.61    1.82
  -3  -5   3   15.49    2.61
  -3  -5   3   21.48    1.96
  -3  -5   3   17.92    1.79
  -3  -5   3   16.82    1.75
  -3  -5   3   14.84    2.11
   3   5  -3   19.81    2.15
  -3  -5   3   16.25    2.64
   3   5  -3   20.42    2.31
  -3  -5   2  162.15    8.27
  -3  -5   2  136.84    6.84
  -3  -5   2  115.55    5.40
  -3  -5   2  119.02    5.93
  -3  -5   2  161.69    5.81
  -3  -5   2  143.32    5.65
   3   5  -2  148.58    6.34
   3   5  -2  133.89    6.35
   3   5  -1    4.90    0.94
   3   5  -1    7.45    1.37
  -3  -5   1    3.65    1.20
  -3  -5   1    6.11    1.54
  -3  -5   1    4.91    1.36
  -3  -5   1    4.46    1.08
  -3  -5   1    5.19    1.46
  -3  -5   1    6.31    1.07
  -3  -5   1    4.63    1.03
  -3  -5   1    5.19    1.03
  -3  -5   1    5.20    1.00
   3   5  -1    5.95    1.15
   3   5   0   65.19    3.72
  -3  -5   0   55.71    4.41
  -3  -5   0   76.00    4.99
  -3  -5   0   69.25    5.11
  -3  -5   0   59.65    4.46
  -3  -5   0   57.76    4.50
  -3  -5   0   61.77    3.50
  -3  -5   0   69.82    3.62
  -3  -5   0   58.98    3.59
   3   5   0   59.15    3.66
  -3  -5  -1    2.08    0.66
   3   5   1    2.18    0.74
  -3  -5  -1    1.30    0.67
  -3  -5  -1    3.52    1.19
  -3  -5  -1    1.66    0.88
  -3  -5  -1    1.28    0.66
  -3  -5  -1    1.89    0.75
  -3  -5  -1    1.51    0.61
   3   5   1    2.07    0.71
  -3  -5  -1    1.84    0.73
  -3  -5  -2  435.36   13.88
  -3  -5  -2  384.49   14.14
  -3  -5  -2  417.08   11.96
   3   5   2  356.41   10.53
  -3  -5  -2  349.25   10.63
  -3  -5  -2  368.62   10.45
  -3  -5  -2  314.80   11.10
  -3  -5  -3   26.80    2.63
  -3  -5  -3   20.28    2.06
  -3  -5  -3   26.61    3.30
   3   5   3   25.61    2.17
   3   5   3   25.86    2.16
  -3  -5  -3   28.15    2.34
  -3  -5  -3   24.97    2.06
   3   5   3   25.20    2.10
  -3  -5  -4    0.81    0.47
  -3  -5  -4    0.39    0.45
  -3  -5  -4    0.30    0.63
   3   5   4    0.54    0.43
   3   5   4    0.81    0.42
  -3  -5  -4    0.97    0.47
   3   5   4    0.71    0.43
   3   5   5    0.51    0.39
   3   5   5    0.12    0.30
   3   5   5    0.50    0.34
  -3  -5  -5    0.67    0.50
  -3  -5  -5    0.14    0.48
  -3  -5  -5    0.11    0.29
   3   5   6   11.77    1.33
   3   5   6   12.80    1.38
   3   5   6   13.66    1.42
  -3  -5  -6   13.28    1.45
  -3  -5  -6   12.73    1.72
  -3  -5  -7    0.68    0.43
   3   5   7    0.57    0.35
  -3  -5  -7    0.56    0.33
  -3  -5  -8    1.52    0.42
   3   5   8    2.13    0.48
  -3  -6  14    7.18    0.88
   3   6 -13   39.01    2.11
  -3  -6  13   44.40    2.76
   3   6 -13   42.38    2.12
   3   6 -13   36.76    1.95
  -3  -6  13   43.88    2.47
  -3  -6  12    9.22    1.48
   3   6 -12    7.98    0.97
   3   6 -12    8.10    1.01
  -3  -6  12   10.26    1.44
   3   6 -11    0.91    0.40
  -3  -6  11    1.02    0.61
  -3  -6  11    0.91    0.55
   3   6 -11    0.93    0.39
  -3  -6  11    1.04    0.61
   3   6 -11    0.58    0.34
   3   6 -10   26.00    1.97
   3   6 -10   25.47    1.93
  -3  -6  10   28.79    3.12
  -3  -6  10   28.04    2.80
   3   6  -9   18.59    1.69
  -3  -6   9   19.62    2.49
  -3  -6   9   20.17    2.82
   3   6  -8  536.28   13.60
  -3  -6   8  480.66   16.76
  -3  -6   8  599.56   15.68
  -3  -6   8  491.37   14.64
  -3  -6   8  609.67   17.27
  -3  -6   8  534.17   18.06
   3   6  -7   41.85    2.55
  -3  -6   7   43.28    3.49
  -3  -6   7   33.77    3.56
  -3  -6   6   11.74    2.04
  -3  -6   6   10.14    1.87
  -3  -6   6   16.32    2.45
   3   6  -6   11.44    1.27
  -3  -6   6   12.69    1.58
  -3  -6   6    9.50    2.03
  -3  -6   5    1.75    0.77
  -3  -6   5    2.67    1.28
  -3  -6   5    1.48    0.59
  -3  -6   5    2.96    1.13
  -3  -6   5    1.66    0.62
  -3  -6   5    1.07    0.83
  -3  -6   4   38.50    3.17
  -3  -6   4   46.49    4.65
   3   6  -4   42.09    2.71
  -3  -6   4   48.03    3.05
  -3  -6   4   37.30    3.59
  -3  -6   3   93.21    5.36
  -3  -6   3   84.31    4.63
  -3  -6   3   92.99    6.85
  -3  -6   3  133.60    7.88
   3   6  -3  111.35    4.54
  -3  -6   3  113.38    4.91
  -3  -6   3  138.33    5.52
  -3  -6   3  111.89    4.97
  -3  -6   3   91.14    5.33
  -3  -6   2   96.58    6.80
  -3  -6   2  100.12    6.07
  -3  -6   2  110.35    4.89
  -3  -6   2  126.49    5.23
  -3  -6   2   90.14    4.95
  -3  -6   2  105.32    4.90
  -3  -6   2  134.92    7.82
  -3  -6   1   55.83    4.88
  -3  -6   1   75.20    5.46
  -3  -6   1   58.88    3.98
  -3  -6   1   83.23    4.11
  -3  -6   1   72.75    3.86
  -3  -6   1   68.03    3.89
   3   6  -1   72.69    3.64
  -3  -6   1   89.14    5.94
  -3  -6   0    0.80    0.64
   3   6   0    0.36    0.32
  -3  -6   0    1.10    0.82
  -3  -6   0    0.73    0.55
  -3  -6   0    0.70    0.63
  -3  -6   0    1.16    0.55
  -3  -6   0    1.01    0.52
  -3  -6   0    0.83    0.50
  -3  -6  -1   45.74    4.19
  -3  -6  -1   32.95    3.44
  -3  -6  -1   43.63    3.50
  -3  -6  -1   29.75    3.00
  -3  -6  -1   43.42    2.82
  -3  -6  -1   36.70    2.65
  -3  -6  -1   39.38    2.97
   3   6   1   36.23    2.69
  -3  -6  -2   36.67    3.54
  -3  -6  -2   31.15    3.43
  -3  -6  -2   36.30    2.86
   3   6   2   28.78    2.35
   3   6   2   30.07    2.36
  -3  -6  -2   37.93    2.54
  -3  -6  -2   33.15    2.49
  -3  -6  -2   28.27    2.58
   3   6   3  376.29   10.74
   3   6   3  360.02   10.61
  -3  -6  -3  422.49   13.98
  -3  -6  -3  369.58   10.74
  -3  -6  -3  444.74   10.80
   3   6   3  355.20   10.48
   3   6   4   13.08    1.43
   3   6   4    9.83    1.26
   3   6   4   11.17    1.31
  -3  -6  -4   13.97    2.09
   3   6   4   14.06    1.46
  -3  -6  -4   14.20    1.49
   3   6   5   11.49    1.27
   3   6   5   11.68    1.28
   3   6   5   10.47    1.22
   3   6   5   11.05    1.22
  -3  -6  -5   11.88    1.29
   3   6   6    0.13    0.23
   3   6   6    0.04    0.20
   3   6   6    0.66    0.36
  -3  -6  -6    0.13    0.21
   3   6   7   43.90    2.23
  -3  -6  -7   46.92    2.00
   3   6   7   45.19    2.14
  -3  -7  13    0.34    0.26
  -3  -7  13    0.49    0.29
   3   7 -12   15.19    1.36
   3   7 -12   14.40    1.26
  -3  -7  12   17.89    1.74
   3   7 -12   13.54    1.21
  -3  -7  12   17.52    1.70
   3   7 -12   14.36    1.16
   3   7 -11   47.11    2.69
   3   7 -11   47.06    2.50
   3   7 -11   46.67    2.53
   3   7 -11   47.87    2.44
  -3  -7  11   49.52    3.32
  -3  -7  10   28.93    2.72
   3   7 -10   25.42    1.87
   3   7 -10   25.80    1.89
  -3  -7  10   26.09    2.68
   3   7 -10   27.37    2.10
   3   7  -9   20.29    1.90
   3   7  -9   18.29    1.60
  -3  -7   9   18.89    2.33
  -3  -7   9   19.52    1.88
   3   7  -9   19.25    1.79
  -3  -7   9   18.38    2.43
  -3  -7   8    1.83    0.79
  -3  -7   8    1.26    0.63
   3   7  -8    1.86    0.57
   3   7  -8    2.38    0.70
  -3  -7   8    1.27    0.57
   3   7  -8    2.14    0.66
  -3  -7   7    6.97    1.44
  -3  -7   7   10.25    1.72
  -3  -7   7    7.79    1.72
   3   7  -7    8.85    1.28
   3   7  -7    8.27    1.25
  -3  -7   7    7.59    1.47
  -3  -7   6   56.74    4.01
  -3  -7   6   79.20    5.23
  -3  -7   6   61.77    4.75
   3   7  -6   73.95    3.76
   3   7  -6   70.45    3.70
  -3  -7   6   77.53    5.07
  -3  -7   5  127.71    6.03
  -3  -7   5  179.44    8.69
  -3  -7   5  144.93    5.81
  -3  -7   5  133.01    6.96
   3   7  -5  153.92    5.77
   3   7  -5  159.07    5.84
  -3  -7   5  169.91    8.29
  -3  -7   4  102.81    6.73
   3   7  -4   90.85    4.14
  -3  -7   4  105.44    4.68
  -3  -7   4   90.36    4.40
   3   7  -3   91.57    4.25
  -3  -7   3   82.00    4.71
   3   7  -3   84.47    3.89
  -3  -7   3   94.74    4.45
  -3  -7   3   87.66    4.30
  -3  -7   2   93.19    6.36
   3   7  -2   91.49    4.28
  -3  -7   2  110.91    4.84
  -3  -7   2   99.43    4.68
  -3  -7   2  103.42    5.76
  -3  -7   1   89.32    5.91
   3   7  -1   94.98    4.24
  -3  -7   1  124.35    6.72
  -3  -7   1  109.37    4.78
  -3  -7   1  102.41    4.77
  -3  -7   1  110.01    6.20
  -3  -7   0   59.43    4.49
   3   7   0   50.06    2.79
  -3  -7   0   49.74    3.91
  -3  -7   0   55.34    3.23
  -3  -7   0   52.29    3.27
   3   7   0   52.15    3.25
  -3  -7  -1   18.37    2.47
  -3  -7  -1   16.83    1.96
   3   7   1   15.16    1.64
   3   7   1   15.38    1.68
   3   7   1   13.65    1.56
  -3  -7  -1   18.83    1.77
  -3  -7  -1   17.02    1.82
  -3  -7  -1   13.10    1.77
  -3  -7  -2  171.92    5.91
  -3  -7  -2  180.25    6.36
   3   7   2  165.35    5.88
   3   7   2  153.59    5.80
   3   7   2  160.03    5.82
   3   7   3   12.25    1.33
   3   7   3   11.06    1.29
   3   7   3   12.40    1.30
   3   7   3   12.25    1.33
  -3  -7  -3   13.64    1.37
  -3  -7  -3   13.48    1.48
   3   7   4   72.19    3.12
   3   7   4   67.76    2.98
   3   7   4   73.33    3.23
   3   7   4   66.73    3.10
  -3  -7  -5   20.56    1.32
   3   7   5   19.39    1.35
  -3  -8  12    1.74    0.46
  -3  -8  12    1.93    0.48
  -3  -8  11   10.32    1.20
   3   8 -11   10.83    1.01
  -3  -8  11   11.21    1.34
  -3  -8  10   10.03    1.32
   3   8 -10   13.62    1.23
   3   8 -10   11.44    1.20
   3   8 -10   11.14    1.11
   3   8 -10   11.91    1.26
  -3  -8   9   22.64    2.05
  -3  -8   9   24.60    1.85
   3   8  -9   24.95    1.75
  -3  -8   9   24.99    2.38
   3   8  -9   20.90    1.72
   3   8  -9   21.90    1.71
   3   8  -9   25.81    1.94
  -3  -8   8  108.57    4.91
  -3  -8   8  125.63    5.16
  -3  -8   8  116.47    5.64
   3   8  -8  117.82    4.61
   3   8  -8  111.27    4.55
  -3  -8   8  113.49    4.83
  -3  -8   7    0.36    0.49
  -3  -8   7    0.10    0.40
  -3  -8   7    0.30    0.37
   3   8  -7    0.24    0.27
  -3  -8   7    0.09    0.32
   3   8  -7    0.06    0.24
   3   8  -7    0.48    0.33
  -3  -8   6    1.30    0.71
  -3  -8   6    1.75    0.72
   3   8  -6    1.77    0.59
  -3  -8   6    2.24    0.81
   3   8  -6    1.90    0.59
   3   8  -6    2.03    0.59
  -3  -8   5   25.32    2.40
   3   8  -5   24.61    1.96
   3   8  -5   26.36    2.09
  -3  -8   4  244.32    9.75
  -3  -8   4  231.11    7.39
   3   8  -4  224.64    7.26
  -3  -8   4  259.17    9.76
   3   8  -4  208.02    6.86
  -3  -8   3   78.60    3.81
  -3  -8   3   72.37    3.64
   3   8  -3   68.50    3.46
  -3  -8   2   16.84    1.67
  -3  -8   2   13.65    1.53
  -3  -8   2   16.36    2.24
   3   8  -2   14.80    1.48
  -3  -8   2   19.77    2.44
   3   8  -1    1.13    0.49
  -3  -8   1    1.97    0.79
   3   8  -1    1.37    0.47
  -3  -8   1    2.46    0.86
  -3  -8   1    1.87    0.60
  -3  -8   1    1.91    0.65
  -3  -8   0   12.81    1.61
   3   8   0   10.63    1.25
   3   8   0    9.54    1.24
   3   8   0    9.82    1.25
  -3  -8   0   11.55    1.31
  -3  -8   0   12.14    1.35
  -3  -8   0    8.51    1.36
   3   8   1    8.67    1.07
   3   8   1    9.37    1.16
   3   8   1    8.24    1.00
  -3  -8  -1   10.42    1.17
  -3  -8  -1    9.02    1.14
   3   8   1    7.65    1.04
   3   8   2  254.40    7.28
   3   8   2  248.32    7.28
   3   8   2  260.69    7.10
  -3  -8  -2  287.73    7.33
  -3  -8  -2  284.58    7.60
   3   8   2  244.94    7.21
  -3  -8  -3    1.04    0.33
   3   9 -10   14.71    1.07
  -3  -9  10   14.02    1.23
   3   9  -9    1.73    0.41
  -3  -9   9    1.83    0.50
  -3  -9   8   28.23    1.87
   3   9  -8   28.30    1.70
  -3  -9   8   27.04    1.97
   3   9  -7    0.22    0.25
  -3  -9   7    0.17    0.27
   3   9  -7    0.14    0.22
  -3  -9   7    0.12    0.27
  -3  -9   6   40.25    2.23
   3   9  -6   36.39    2.17
  -3  -9   6   43.13    2.76
  -3  -9   6   44.34    2.87
   3   9  -5    0.19    0.27
  -3  -9   5   -0.08    0.29
   3   9  -4   17.19    1.44
  -3  -9   4   19.62    1.98
   3   9  -4   18.09    1.63
   3   9  -3   32.39    1.98
  -3  -9   3   40.19    2.81
  -3  -9   3   40.11    2.85
  -3  -9   3   38.82    2.20
   3   9  -3   35.08    2.23
  -3  -9   2   21.87    1.95
   3   9  -2   19.06    1.48
   3   9  -2   18.24    1.53
  -3  -9   2   18.71    1.85
   3   9  -2   20.13    1.62
  -3  -9   2   21.33    1.57
  -3  -9   1  149.65    4.74
   3   9  -1  147.75    4.67
   3   9  -1  138.51    4.73
  -3  -9   0   32.54    1.78
  -4  11  -1    3.72    0.68
  -4  11  -2   34.84    2.16
  -4  11  -3   16.87    1.50
   4 -11   3   18.41    1.40
  -4  11  -4   27.82    1.89
  -4  11  -5  189.81    5.75
  -4  11  -6  151.85    4.64
  -4  10   2   17.78    1.62
   4 -10  -2   20.03    1.47
   4 -10  -1   45.08    2.35
  -4  10   1   44.66    2.66
   4 -10  -1   54.76    2.64
  -4  10   1   46.43    2.77
  -4  10   1   52.67    2.82
   4 -10   0   47.64    2.45
  -4  10   0   52.15    3.16
   4 -10   0   59.50    2.92
  -4  10   0   60.67    3.48
   4 -10   1    9.74    1.08
  -4  10  -1   12.95    1.64
  -4  10  -1   11.23    1.51
  -4  10  -1   12.88    1.50
   4 -10   2    7.38    0.96
  -4  10  -2    8.78    1.30
   4 -10   2    9.07    1.00
  -4  10  -3   41.07    3.02
   4 -10   3   45.28    2.62
  -4  10  -3   48.50    3.11
  -4  10  -4   53.85    3.32
   4 -10   4   54.28    2.91
  -4  10  -4   52.45    3.31
  -4  10  -5    6.04    1.07
   4 -10   5    5.43    0.95
  -4  10  -5    5.09    1.04
  -4  10  -6    1.17    0.52
  -4  10  -6    0.44    0.40
   4 -10   6    0.51    0.36
   4 -10   7    7.35    0.99
  -4  10  -7    8.74    1.03
   4 -10   7    7.78    1.05
  -4  10  -7    7.85    1.04
  -4  10  -8    2.88    0.67
   4 -10   8    2.96    0.62
   4 -10   8    2.30    0.55
  -4  10 -10    3.49    0.52
   4  -9  -5  106.51    3.89
  -4   9   5  110.11    4.02
   4  -9  -4    7.31    0.97
  -4   9   4    7.65    1.00
  -4   9   4    9.76    1.31
   4  -9  -4    7.67    0.88
  -4   9   3    0.47    0.30
  -4   9   3    1.76    0.65
   4  -9  -3    1.19    0.39
  -4   9   2   21.02    1.96
  -4   9   2   27.45    2.52
   4  -9  -2   20.06    1.45
   4  -9  -2   26.63    1.92
  -4   9   2   27.06    2.19
   4  -9  -1   74.26    3.45
  -4   9   1   65.20    3.99
  -4   9   1   77.06    4.43
   4  -9  -1   71.76    3.39
   4  -9   0   42.55    2.52
  -4   9   0   35.33    3.13
   4  -9   0   36.58    2.35
  -4   9   0   39.13    3.09
  -4   9   0   46.22    3.19
  -4   9   0   43.08    3.42
   4  -9   1   14.74    1.48
  -4   9  -1    9.98    1.79
  -4   9  -1   15.38    1.89
  -4   9  -1   14.87    2.05
  -4   9  -2    0.39    0.44
   4  -9   2    0.64    0.39
   4  -9   2    0.07    0.27
  -4   9  -2    0.53    0.51
   4  -9   2    1.43    0.56
  -4   9  -3   61.18    4.39
   4  -9   3   55.04    2.89
  -4   9  -3   64.50    4.13
   4  -9   3   59.92    2.95
   4  -9   3   55.83    3.02
   4  -9   3   61.90    3.46
  -4   9  -4   71.18    4.41
   4  -9   4   62.67    2.96
  -4   9  -4   61.27    3.64
  -4   9  -4   70.54    4.51
   4  -9   4   60.40    3.36
   4  -9   4   58.91    2.94
   4  -9   4   58.51    3.30
   4  -9   4   59.61    3.43
  -4   9  -5    1.80    0.77
   4  -9   5    1.39    0.49
   4  -9   5    1.77    0.60
  -4   9  -5    1.81    0.68
  -4   9  -5    2.04    0.79
   4  -9   5    2.09    0.67
   4  -9   5    1.47    0.50
   4  -9   5    2.05    0.66
   4  -9   5    2.70    0.75
  -4   9  -6   66.66    3.82
  -4   9  -6   75.32    3.98
   4  -9   6   65.68    3.48
   4  -9   6   62.84    3.46
   4  -9   6   55.59    2.59
   4  -9   6   53.92    2.80
  -4   9  -7   19.81    1.81
  -4   9  -7   25.51    2.28
  -4   9  -7   27.67    2.10
   4  -9   7   23.69    2.00
   4  -9   7   24.69    2.04
   4  -9   7   22.43    1.80
  -4   9  -7   25.84    2.47
   4  -9   7   20.24    1.58
  -4   9  -8    4.92    1.02
   4  -9   8    4.53    0.71
   4  -9   8    4.88    0.93
  -4   9  -8    5.67    1.05
   4  -9   8    4.23    0.77
   4  -9   8    6.09    0.98
   4  -9   9  194.82    6.13
  -4   9  -9  192.71    6.50
  -4   9 -10  240.44    7.08
  -4   9 -10  227.76    6.79
  -4   9 -10  242.32    6.71
   4  -9  10  222.77    6.50
   4  -9  10  227.22    6.65
  -4   9 -11    0.15    0.20
  -4   8   8   15.94    1.28
  -4   8   7    6.51    0.99
  -4   8   7    5.80    0.90
   4  -8  -7    6.37    0.83
   4  -8  -6    1.28    0.42
  -4   8   6    1.23    0.52
  -4   8   6    0.78    0.43
   4  -8  -6    0.93    0.39
   4  -8  -5   15.77    1.49
   4  -8  -5   15.51    1.37
  -4   8   5   17.53    1.86
   4  -8  -4   91.44    4.00
  -4   8   4   94.70    4.64
  -4   8   4   96.63    5.01
   4  -8  -4   95.40    3.68
   4  -8  -3   16.45    1.61
  -4   8   3   10.96    1.45
  -4   8   3   16.91    1.87
  -4   8   3   15.89    1.70
  -4   8   3   16.99    2.17
   4  -8  -3   16.80    1.58
   4  -8  -3   16.17    1.39
  -4   8   2    0.98    0.64
   4  -8  -2    0.63    0.44
  -4   8   2    0.37    0.41
   4  -8  -2    1.66    0.50
   4  -8  -2    0.65    0.47
  -4   8   2    1.08    0.70
  -4   8   1  174.26    7.69
  -4   8   1  160.06    7.62
   4  -8  -1  160.36    5.69
   4  -8  -1  163.38    5.17
  -4   8   1  166.92    6.84
   4  -8   0   55.41    3.12
  -4   8   0   44.30    3.99
  -4   8   0   59.18    4.35
  -4   8   0   45.26    3.84
   4  -8   0   54.20    2.97
   4  -8   0   51.42    2.54
  -4   8   0   55.63    3.77
   4  -8   0   50.15    2.88
  -4   8  -1    1.79    0.73
   4  -8   1    1.58    0.59
  -4   8  -1    1.21    0.67
  -4   8  -1    3.01    1.07
   4  -8   1    0.85    0.50
   4  -8   1    1.19    0.57
   4  -8   1    0.98    0.49
  -4   8  -2   96.55    5.80
  -4   8  -2   87.63    6.06
   4  -8   2  106.31    4.54
   4  -8   2   95.03    4.50
   4  -8   2   95.11    4.42
  -4   8  -2   96.63    5.46
   4  -8   2   96.70    4.18
  -4   8  -3   23.22    2.38
  -4   8  -3   18.70    2.39
  -4   8  -3   20.17    2.80
   4  -8   3   22.51    2.07
   4  -8   3   19.35    1.95
   4  -8   3   21.09    1.94
  -4   8  -3   20.65    2.55
   4  -8   3   22.22    1.82
   4  -8   3   22.54    1.88
  -4   8  -4   36.47    3.07
  -4   8  -4   41.08    3.77
   4  -8   4   33.13    2.55
   4  -8   4   32.75    2.56
   4  -8   4   35.81    2.54
   4  -8   4   36.48    2.27
  -4   8  -5    8.93    1.56
  -4   8  -5    8.96    1.68
  -4   8  -5    6.87    1.24
   4  -8   5    8.86    1.34
   4  -8   5    9.40    1.30
   4  -8   5    8.04    1.32
   4  -8   5    8.46    1.08
   4  -8   5    8.75    1.16
  -4   8  -6    1.04    0.65
  -4   8  -6    1.04    0.61
  -4   8  -6    0.57    0.48
   4  -8   6    0.80    0.48
   4  -8   6    0.61    0.39
   4  -8   6    0.80    0.43
  -4   8  -6    1.28    0.75
   4  -8   6    1.21    0.57
  -4   8  -7  185.17    7.14
  -4   8  -7  250.90    8.95
  -4   8  -7  265.98    8.06
  -4   8  -7  184.95    7.93
   4  -8   7  225.50    7.53
   4  -8   7  237.87    7.30
   4  -8   7  228.26    7.54
  -4   8  -7  233.61    9.20
   4  -8   7  221.41    6.34
   4  -8   7  241.14    6.87
  -4   8  -8    2.50    0.86
  -4   8  -8    1.43    0.66
   4  -8   8    1.79    0.63
   4  -8   8    1.70    0.58
   4  -8   8    2.09    0.54
  -4   8  -8    1.92    0.81
  -4   8  -9    0.32    0.36
  -4   8  -9    0.34    0.39
  -4   8  -9    0.43    0.41
   4  -8   9    0.36    0.41
   4  -8   9    0.28    0.32
   4  -8   9    0.29    0.37
  -4   8 -10    2.89    0.75
  -4   8 -10    1.81    0.65
  -4   8 -10    3.35    0.73
   4  -8  10    2.81    0.63
   4  -8  11    8.77    1.02
  -4   8 -11    9.14    0.99
  -4   8 -11   10.16    1.22
  -4   8 -12   36.92    1.72
   4  -7  -8   33.61    1.89
  -4   7   8   35.74    2.52
  -4   7   8   36.51    2.32
   4  -7  -8   37.53    2.10
  -4   7   7   32.72    2.41
  -4   7   7   35.67    2.81
   4  -7  -7   28.50    1.89
   4  -7  -7   28.56    1.77
  -4   7   6  124.83    5.57
   4  -7  -6  117.01    4.59
   4  -7  -6  130.60    4.41
  -4   7   6  137.92    6.29
   4  -7  -5   94.21    4.14
   4  -7  -5  107.83    3.98
   4  -7  -5  101.81    3.99
  -4   7   5  114.72    5.90
   4  -7  -4   40.44    2.59
  -4   7   4   32.87    2.47
  -4   7   4   45.72    3.60
   4  -7  -4   38.08    2.40
  -4   7   4   39.67    3.38
   4  -7  -4   42.92    2.40
   4  -7  -3    4.88    0.96
  -4   7   3    5.70    1.16
  -4   7   3    6.65    1.35
  -4   7   3    7.65    1.59
  -4   7   3    6.39    1.18
   4  -7  -3    4.45    0.81
   4  -7  -3    4.79    0.90
   4  -7  -2   78.67    3.84
  -4   7   2   63.20    4.27
  -4   7   2   73.99    4.36
  -4   7   2   78.23    4.93
   4  -7  -2   79.20    3.64
   4  -7  -2   71.75    3.29
  -4   7   2   80.62    5.35
  -4   7   1   85.45    5.28
  -4   7   1   63.48    4.63
  -4   7   1   78.62    4.21
   4  -7  -1   81.17    3.97
   4  -7  -1   64.92    3.46
   4  -7  -1   77.93    3.64
  -4   7   1   81.78    4.65
  -4   7   1   72.41    5.17
   4  -7  -1   75.19    3.54
  -4   7   0  186.65    8.29
  -4   7   0  139.86    7.71
   4  -7   0  163.46    5.98
   4  -7   0  175.20    5.88
  -4   7   0  151.82    7.65
  -4   7   0  159.81    7.04
   4  -7   0  161.49    5.71
  -4   7  -1    3.54    1.04
   4  -7   1    3.73    0.81
   4  -7   1    3.41    0.79
  -4   7  -1    3.36    1.05
  -4   7  -1    3.38    1.12
   4  -7   1    3.91    0.86
   4  -7   1    2.68    0.75
  -4   7  -2    7.62    1.39
  -4   7  -2    6.35    1.68
  -4   7  -2    6.05    1.46
   4  -7   2    5.78    1.07
   4  -7   2    7.67    1.20
  -4   7  -2    9.56    1.73
   4  -7   2    5.91    1.00
  -4   7  -3  249.88    9.32
  -4   7  -3  266.31   11.19
   4  -7   3  248.86    8.06
   4  -7   3  253.25    8.20
   4  -7   3  265.44    8.16
   4  -7   3  256.72    7.74
   4  -7   3  257.02    7.75
  -4   7  -4   29.26    2.83
  -4   7  -4   32.71    3.41
  -4   7  -4   19.20    2.21
   4  -7   4   25.48    2.15
   4  -7   4   25.22    2.15
   4  -7   4   27.40    2.17
  -4   7  -4   26.20    3.08
   4  -7   4   24.99    1.94
  -4   7  -5   39.32    3.44
  -4   7  -5   47.49    3.79
   4  -7   5   37.63    2.65
   4  -7   5   39.45    2.60
   4  -7   5   36.80    2.58
  -4   7  -5   38.57    3.77
  -4   7  -6    6.39    1.44
  -4   7  -6   10.17    1.59
  -4   7  -6    4.52    1.24
   4  -7   6    6.52    1.14
   4  -7   6    8.40    1.22
   4  -7   6    6.46    0.99
  -4   7  -6    6.99    1.65
  -4   7  -7  133.33    5.76
  -4   7  -7  176.13    7.85
  -4   7  -7  180.17    6.45
  -4   7  -7  125.79    6.97
   4  -7   7  156.40    5.93
   4  -7   7  170.20    5.80
   4  -7   7  163.52    5.99
  -4   7  -7  147.85    7.53
   4  -7   7  163.98    5.38
  -4   7  -8   34.15    3.23
  -4   7  -8   26.75    2.95
   4  -7   8   35.91    2.29
  -4   7  -8   26.53    2.79
   4  -7   8   32.05    1.99
   4  -7   8   29.03    2.27
  -4   7  -9    8.62    1.63
   4  -7   9    7.48    1.16
   4  -7   9    8.31    1.16
   4  -7   9    8.76    1.08
   4  -7   9    8.15    0.94
  -4   7 -10  131.64    5.94
   4  -7  10  134.39    4.85
   4  -7  10  130.51    4.43
  -4   7 -10  138.86    5.25
  -4   7 -11    1.20    0.49
  -4   7 -11    0.59    0.47
  -4   7 -11    0.74    0.38
   4  -7  11    1.27    0.42
   4  -7  11    0.38    0.32
  -4   7 -12   18.50    1.31
  -4   6  10    2.54    0.58
  -4   6   9  137.54    5.07
   4  -6  -9  138.97    4.66
   4  -6  -9  144.82    4.61
  -4   6   8    0.70    0.49
   4  -6  -8    0.94    0.39
   4  -6  -8    0.44    0.31
   4  -6  -8    0.87    0.35
   4  -6  -8    0.68    0.36
  -4   6   7    6.21    1.19
  -4   6   7    7.27    1.56
   4  -6  -7    5.63    0.88
   4  -6  -7    7.46    0.96
   4  -6  -7    6.71    0.91
   4  -6  -7    5.83    0.91
  -4   6   6    6.96    1.34
  -4   6   6    7.29    1.61
  -4   6   6    6.08    1.04
   4  -6  -6    6.13    0.94
   4  -6  -6    5.34    0.93
   4  -6  -6    6.69    0.97
  -4   6   5  128.62    7.00
   4  -6  -5  115.63    4.69
  -4   6   5  135.88    5.39
   4  -6  -5  112.51    4.36
   4  -6  -5  127.56    4.62
  -4   6   4   44.89    2.95
  -4   6   4   38.94    2.84
  -4   6   4   48.50    4.13
   4  -6  -4   46.92    2.79
  -4   6   4   54.81    3.28
  -4   6   4   47.60    3.80
   4  -6  -4   43.52    2.53
  -4   6   3   10.84    1.60
  -4   6   3    9.64    1.53
  -4   6   3   12.02    1.97
   4  -6  -3   12.56    1.44
  -4   6   3   12.86    1.60
  -4   6   3   12.17    2.02
   4  -6  -3   11.29    1.28
  -4   6   2  258.34   10.19
   4  -6  -2  254.04    7.48
  -4   6   2  242.09    8.82
   4  -6  -2  243.44    7.22
  -4   6   2  272.56    9.84
  -4   6   2  219.10    8.82
  -4   6   2  266.48    9.50
   4  -6  -2  258.23    7.99
   4  -6  -2  231.00    8.24
  -4   6   2  210.97    8.78
  -4   6   1   31.26    3.19
   4  -6  -1   27.64    2.45
  -4   6   1   32.43    3.18
  -4   6   1   31.35    3.22
   4  -6  -1   35.29    2.28
  -4   6   1   32.35    2.84
   4  -6  -1   34.05    2.19
  -4   6   1   29.40    3.05
  -4   6   1   32.03    2.77
   4  -6  -1   32.92    2.24
   4  -6  -1   27.07    2.45
   4  -6   0  270.02    8.96
  -4   6   0  272.89   11.01
  -4   6   0  285.39   10.60
  -4   6   0  250.72   10.06
   4  -6   0  288.07    8.30
  -4   6   0  288.48    9.98
   4  -6   0  287.77    8.14
  -4   6   0  268.19   10.88
  -4   6   0  295.68    9.21
   4  -6   0  298.50    8.50
   4  -6   0  266.42    9.23
  -4   6  -1   22.05    2.92
   4  -6   1   20.76    2.10
  -4   6  -1   20.65    2.36
  -4   6  -1   21.70    2.45
   4  -6   1   23.54    1.81
  -4   6  -1   21.06    2.58
  -4   6  -1   21.03    2.27
  -4   6  -1   23.55    2.98
   4  -6   1   24.01    1.94
   4  -6   1   24.84    1.94
   4  -6   1   19.76    2.14
   4  -6   2  424.58   12.27
  -4   6  -2  462.34   15.47
   4  -6   2  433.35   11.32
  -4   6  -2  432.29   13.20
  -4   6  -2  486.94   15.70
   4  -6   2  441.12   11.53
   4  -6   2  435.78   11.64
   4  -6   2  451.70   11.73
   4  -6   2  403.94   12.61
   4  -6   3    5.77    1.10
  -4   6  -3    5.02    1.38
  -4   6  -3    4.61    1.30
  -4   6  -3    4.14    1.12
  -4   6  -3    6.02    1.55
  -4   6  -3    3.72    0.97
   4  -6   3    5.18    0.93
   4  -6   3    4.76    0.91
   4  -6   3    4.50    0.88
   4  -6   3    5.07    1.11
  -4   6  -4    4.14    1.19
   4  -6   4    1.55    0.60
  -4   6  -4    3.62    1.17
  -4   6  -4    4.16    1.12
  -4   6  -4    3.10    1.07
  -4   6  -4    1.45    0.67
   4  -6   4    2.04    0.63
   4  -6   4    4.72    0.91
   4  -6   4    3.53    0.80
   4  -6   4    2.58    0.66
  -4   6  -5    2.16    0.92
  -4   6  -5    2.45    0.87
  -4   6  -5    0.52    0.52
   4  -6   5    2.22    0.65
  -4   6  -5    4.67    1.34
   4  -6   5    2.91    0.73
   4  -6   5    2.99    0.72
  -4   6  -6   40.16    3.81
  -4   6  -6   28.17    2.58
  -4   6  -6   45.18    3.23
  -4   6  -6   31.00    3.41
   4  -6   6   34.64    2.45
   4  -6   6   38.14    2.55
   4  -6   6   37.72    2.49
  -4   6  -7   88.83    5.60
  -4   6  -7   80.27    4.12
  -4   6  -7   83.79    5.85
  -4   6  -7   79.38    4.84
   4  -6   7   99.86    4.36
   4  -6   7  107.12    4.39
   4  -6   7  101.66    4.28
  -4   6  -8   84.38    5.01
  -4   6  -8  100.49    6.13
  -4   6  -8   84.67    5.78
  -4   6  -8   74.16    4.74
   4  -6   8  103.70    4.38
   4  -6   8  103.32    4.14
   4  -6   8   99.18    4.27
   4  -6   9   40.95    2.17
  -4   6  -9   43.96    3.78
  -4   6  -9   35.90    3.12
   4  -6   9   43.64    2.59
   4  -6   9   43.47    2.44
   4  -6   9   38.66    2.54
   4  -6  10   40.87    2.52
  -4   6 -10   44.29    3.49
  -4   6 -10   41.94    3.42
  -4   6 -10   42.16    3.12
   4  -6  10   44.59    2.57
   4  -6  10   43.33    2.29
   4  -6  10   43.75    2.47
  -4   6 -10   41.24    2.74
  -4   6 -11   25.90    2.32
   4  -6  11   29.72    1.95
  -4   6 -11   33.11    2.67
  -4   6 -11   29.74    2.33
   4  -6  11   25.92    1.75
  -4   6 -11   27.66    1.99
   4  -6  12   54.63    2.51
  -4   6 -12   60.24    2.97
  -4   6 -12   58.83    2.63
  -4   6 -13   47.99    2.13
  -4   6 -13   38.44    1.70
  -4   5  10   32.19    2.30
   4  -5 -10   34.68    1.98
   4  -5 -10   34.52    1.94
   4  -5 -10   36.49    2.01
  -4   5   9  108.25    4.68
  -4   5   9   97.17    4.93
   4  -5  -9  101.81    3.89
   4  -5  -9  103.83    3.85
   4  -5  -9  100.46    3.86
   4  -5  -8    1.07    0.41
   4  -5  -8    0.15    0.29
  -4   5   8    0.40    0.39
   4  -5  -8    0.28    0.29
  -4   5   8    0.51    0.35
  -4   5   7   86.16    4.58
   4  -5  -7   83.81    3.54
  -4   5   7   84.53    4.10
   4  -5  -7   74.39    3.32
  -4   5   6   29.14    2.74
  -4   5   6   25.07    3.13
  -4   5   6   30.53    2.47
   4  -5  -6   31.92    2.07
   4  -5  -6   28.03    2.01
  -4   5   5    7.73    1.75
   4  -5  -5    7.08    1.03
  -4   5   5    9.89    1.42
   4  -5  -5    6.98    0.94
   4  -5  -5    8.68    1.10
   4  -5  -4    0.53    0.34
  -4   5   4    0.67    0.54
  -4   5   4    1.13    0.53
  -4   5   4    1.57    0.60
  -4   5   4    0.87    0.69
   4  -5  -4    0.82    0.42
  -4   5   4    2.29    0.70
  -4   5   4    1.19    0.59
   4  -5  -4    0.45    0.36
   4  -5  -3    0.40    0.35
  -4   5   3    0.69    0.55
  -4   5   3    0.60    0.43
  -4   5   3    0.43    0.39
  -4   5   3    0.62    0.42
  -4   5   3    0.51    0.51
   4  -5  -3    1.11    0.49
  -4   5   3    0.73    0.46
  -4   5   3    1.23    0.56
   4  -5  -3    0.29    0.33
   4  -5  -3    1.94    0.63
  -4   5   2  436.32   12.81
  -4   5   2  408.33   13.31
   4  -5  -2  431.31   10.89
   4  -5  -2  409.17   10.50
  -4   5   2  422.71   12.64
  -4   5   2  411.10   12.73
  -4   5   2  458.70   13.55
   4  -5  -2  397.55   11.66
  -4   5   2  410.26   12.79
  -4   5   2  455.88   12.08
   4  -5  -2  389.43   11.33
  -4   5   1  100.81    5.54
  -4   5   1  116.76    4.94
   4  -5  -1  100.81    4.34
  -4   5   1  109.78    5.58
  -4   5   1   89.30    5.22
  -4   5   1  103.20    5.21
   4  -5  -1  101.96    3.97
  -4   5   1  112.01    5.79
  -4   5   1  110.56    5.32
   4  -5  -1  106.97    4.13
   4  -5  -1  101.02    4.72
   4  -5   0  262.52    8.63
   4  -5   0  246.44    7.45
  -4   5   0  247.04    9.02
  -4   5   0  227.37    8.66
  -4   5   0  251.50    8.99
   4  -5   0  254.80    7.41
   4  -5   0  239.46    8.15
   4  -5   1  163.17    6.37
  -4   5  -1  172.99    6.96
  -4   5  -1  159.60    6.80
  -4   5  -1  187.98    8.14
  -4   5  -1  152.38    5.65
   4  -5   1  172.51    5.62
  -4   5  -1  184.03    8.13
   4  -5   1  177.72    6.67
   4  -5   2   17.74    1.90
  -4   5  -2   17.34    2.38
  -4   5  -2   17.23    2.18
  -4   5  -2   15.86    1.98
  -4   5  -2   16.86    2.33
   4  -5   2   13.22    1.33
   4  -5   2   14.68    1.44
   4  -5   2   14.12    1.69
  -4   5  -3   17.28    2.29
  -4   5  -3   15.33    2.04
  -4   5  -3   20.48    2.48
  -4   5  -3   15.39    1.99
   4  -5   3   17.64    1.57
  -4   5  -3   21.63    2.60
   4  -5   3   17.23    1.85
   4  -5   3   17.09    1.49
  -4   5  -4   10.30    1.85
  -4   5  -4   13.57    1.94
  -4   5  -4   17.03    2.19
  -4   5  -4   12.28    1.95
   4  -5   4   13.30    1.41
  -4   5  -4   15.58    2.11
   4  -5   4   11.80    1.50
   4  -5   4   12.45    1.30
  -4   5  -5   15.58    2.30
  -4   5  -5   17.75    2.08
  -4   5  -5   26.62    2.57
  -4   5  -5   17.69    2.49
   4  -5   5   18.33    1.70
   4  -5   5   20.20    1.68
  -4   5  -5   17.59    2.11
  -4   5  -5   24.41    2.49
   4  -5   5   17.77    1.85
  -4   5  -6    3.96    1.14
  -4   5  -6    7.17    1.65
  -4   5  -6    4.50    0.98
  -4   5  -6    4.90    1.03
  -4   5  -6    7.33    1.27
  -4   5  -6    4.39    1.37
   4  -5   6    5.09    0.93
  -4   5  -6    3.12    0.95
   4  -5   6    4.70    0.88
  -4   5  -7  127.17    5.37
  -4   5  -7  176.31    8.57
  -4   5  -7  124.27    6.67
   4  -5   7  179.00    5.96
  -4   5  -7  140.23    6.77
   4  -5   7  187.46    5.98
  -4   5  -8   25.06    3.08
  -4   5  -8   24.47    3.12
  -4   5  -8   21.00    2.59
   4  -5   8   31.20    2.21
   4  -5   8   24.24    1.94
   4  -5   8   31.02    2.20
   4  -5   8   30.18    2.15
   4  -5   9   79.57    3.72
  -4   5  -9   75.24    5.16
  -4   5  -9   93.29    5.74
  -4   5  -9   74.83    4.81
   4  -5   9   73.78    3.58
   4  -5   9   92.06    3.85
  -4   5  -9   80.15    4.30
   4  -5  10   15.27    1.47
  -4   5 -10   15.39    2.06
   4  -5  10   13.12    1.36
  -4   5 -10   12.86    1.55
   4  -5  10   14.16    1.38
   4  -5  10   13.09    1.42
  -4   5 -10   16.19    2.16
  -4   5 -10   13.21    1.85
   4  -5  11   13.65    1.30
  -4   5 -11   12.61    1.37
   4  -5  11   13.45    1.36
   4  -5  11   13.31    1.21
  -4   5 -11   14.37    1.74
  -4   5 -12    3.78    0.79
   4  -5  12    2.46    0.53
  -4   5 -12    2.75    0.58
   4  -5  12    2.08    0.52
  -4   5 -13   16.50    1.10
   4  -4 -11   11.02    1.08
   4  -4 -11   10.53    1.08
   4  -4 -10  136.18    4.74
  -4   4  10  151.02    5.91
   4  -4 -10  144.51    4.95
   4  -4 -10  156.13    5.03
   4  -4 -10  157.61    5.04
  -4   4  10  162.28    5.54
   4  -4  -9   32.35    2.03
  -4   4   9   38.74    2.81
  -4   4   9   38.30    3.10
   4  -4  -9   37.91    2.25
   4  -4  -9   40.07    2.31
  -4   4   9   40.83    2.74
   4  -4  -8   11.72    1.22
  -4   4   8   13.95    1.80
  -4   4   8   11.72    1.92
   4  -4  -8   15.09    1.42
   4  -4  -8   13.95    1.38
  -4   4   8   14.61    1.73
  -4   4   7    6.06    1.24
  -4   4   7    4.82    1.35
   4  -4  -7    7.32    0.95
  -4   4   7    6.66    1.20
   4  -4  -6   18.63    1.55
  -4   4   6   18.98    2.01
   4  -4  -6   20.04    1.56
   4  -4  -5  283.98    7.90
  -4   4   5  250.57   10.74
   4  -4  -5  265.79    8.98
  -4   4   5  277.81    9.06
  -4   4   5  283.89    9.85
  -4   4   5  272.73    8.44
   4  -4  -4  280.74    7.52
  -4   4   4  299.48   10.01
  -4   4   4  283.94    8.79
  -4   4   4  256.49    8.67
  -4   4   4  272.59   10.75
   4  -4  -4  304.35    8.16
   4  -4  -4  257.93    8.38
  -4   4   4  277.30    8.79
   4  -4  -4  250.15    8.63
  -4   4   4  250.40    8.58
  -4   4   4  282.95    8.95
  -4   4   3    0.56    0.38
  -4   4   3    0.66    0.41
  -4   4   3    0.83    0.44
   4  -4  -3    0.93    0.47
  -4   4   3    0.65    0.41
  -4   4   3    0.08    0.25
  -4   4   3    0.12    0.44
   4  -4  -3    0.74    0.34
   4  -4  -3    0.34    0.34
  -4   4   2    0.17    0.32
  -4   4   2    0.18    0.33
  -4   4   2    0.10    0.27
  -4   4   2    0.18    0.34
  -4   4   2    0.79    0.42
   4  -4  -2    0.20    0.26
   4  -4  -2    0.54    0.39
  -4   4   2    0.19    0.41
  -4   4   2    0.09    0.34
  -4   4   1   48.76    3.47
   4  -4  -1   47.47    2.76
  -4   4   1   51.63    3.58
  -4   4   1   48.71    3.00
  -4   4   1   51.77    3.48
   4  -4  -1   46.34    2.90
  -4   4   1   49.36    3.36
  -4   4   1   50.69    3.46
  -4   4   0  312.65    9.94
  -4   4   0  354.86   11.08
   4  -4   0  328.64    9.06
  -4   4   0  382.87   10.19
  -4   4   0  307.99    9.49
  -4   4   0  352.27   10.82
   4  -4   0  324.83    9.64
  -4   4  -1  395.42   11.66
  -4   4  -1  436.91   12.75
  -4   4  -1  420.69   12.51
  -4   4  -1  359.36   10.28
  -4   4  -1  402.48   11.91
   4  -4   1  336.97   10.36
  -4   4  -2  104.18    5.37
  -4   4  -2  110.86    5.64
   4  -4   2  107.39    4.82
  -4   4  -2  114.66    5.64
  -4   4  -2   97.27    5.15
  -4   4  -2  100.38    5.27
   4  -4   2   98.59    3.75
  -4   4  -3    5.06    1.15
  -4   4  -3    6.73    1.31
  -4   4  -3    5.73    1.20
  -4   4  -3    6.68    1.37
   4  -4   3    5.04    1.01
  -4   4  -3    6.78    1.33
  -4   4  -3    5.27    1.20
  -4   4  -3    3.81    1.03
  -4   4  -4    1.72    0.66
  -4   4  -4    2.37    0.82
  -4   4  -4    1.14    0.62
  -4   4  -4    1.79    0.71
   4  -4   4    1.23    0.52
  -4   4  -4    2.36    0.80
  -4   4  -4    1.55    0.71
  -4   4  -4    2.49    0.81
  -4   4  -5  187.13    7.24
  -4   4  -5  201.31    8.62
  -4   4  -5  226.39    7.76
   4  -4   5  200.47    6.98
  -4   4  -5  249.69    8.14
  -4   4  -5  207.66    8.88
  -4   4  -5  173.85    7.34
  -4   4  -5  196.49    7.92
  -4   4  -5  186.93    7.32
  -4   4  -6   20.14    2.65
  -4   4  -6   19.26    1.92
   4  -4   6   20.78    1.93
  -4   4  -6   21.75    2.50
  -4   4  -6   19.25    2.19
   4  -4   6   23.64    2.08
   4  -4   6   22.62    1.81
  -4   4  -7  120.51    6.83
   4  -4   7  118.84    4.59
   4  -4   7  106.09    4.28
  -4   4  -7  105.24    6.33
  -4   4  -8    2.85    0.91
   4  -4   8    2.89    0.74
  -4   4  -8    2.89    1.08
  -4   4  -8    2.12    1.05
   4  -4   8    3.06    0.70
  -4   4  -8    3.13    1.10
  -4   4  -9    4.93    1.08
   4  -4   9    6.83    1.04
  -4   4  -9    4.84    1.24
  -4   4  -9    8.09    1.65
   4  -4   9    5.36    0.94
  -4   4  -9    5.35    1.30
   4  -4   9    5.97    0.96
  -4   4 -10    5.35    1.05
   4  -4  10    6.25    0.93
   4  -4  10    6.14    0.99
   4  -4  10    5.73    0.89
  -4   4 -10    5.45    1.23
  -4   4 -11   37.71    2.88
  -4   4 -11   37.23    2.43
   4  -4  11   40.39    2.23
   4  -4  11   39.49    2.10
   4  -4  11   38.89    2.39
   4  -4  11   39.20    2.26
  -4   4 -12    8.52    1.19
   4  -4  12    7.53    0.84
   4  -4  12    8.47    1.03
  -4   4 -12    8.33    0.99
   4  -4  12    7.93    0.92
  -4   4 -13    2.17    0.46
  -4   4 -13    3.17    0.54
   4  -3 -12    0.70    0.30
  -4   3  12    0.91    0.37
   4  -3 -12    0.48    0.29
   4  -3 -11    0.59    0.36
   4  -3 -11    0.64    0.36
   4  -3 -11    0.63    0.34
  -4   3  11    0.48    0.34
   4  -3 -10    6.03    0.83
  -4   3  10    8.87    1.47
   4  -3 -10    8.74    1.06
  -4   3  10    7.48    1.26
   4  -3 -10    7.65    1.00
   4  -3 -10    7.64    1.02
  -4   3  10    6.47    1.14
   4  -3  -9    2.36    0.55
  -4   3   9    2.24    0.82
   4  -3  -9    2.58    0.61
  -4   3   9    2.94    0.96
   4  -3  -9    3.04    0.66
  -4   3   9    2.11    0.72
  -4   3   8   18.48    2.08
  -4   3   8   19.89    2.42
  -4   3   8   18.37    2.36
   4  -3  -8   20.25    1.65
  -4   3   8   16.64    1.96
   4  -3  -8   17.95    1.43
  -4   3   7  459.79   13.54
  -4   3   7  436.89   14.44
  -4   3   7  458.58   13.22
   4  -3  -7  460.80   11.23
  -4   3   7  453.67   14.10
  -4   3   6   49.64    4.08
   4  -3  -6   54.35    3.62
  -4   3   6   62.52    3.73
  -4   3   6   66.74    4.26
   4  -3  -6   60.73    2.79
  -4   3   6   51.65    3.69
   4  -3  -5   77.50    3.26
  -4   3   5   84.11    4.60
  -4   3   5   76.92    3.76
   4  -3  -5   72.52    4.12
  -4   3   5   73.55    4.07
  -4   3   5   78.93    4.48
  -4   3   4    6.98    1.47
   4  -3  -4    7.85    1.26
  -4   3   4    7.13    1.16
  -4   3   4    8.58    1.30
  -4   3   4   11.52    1.59
  -4   3   4    9.18    1.29
  -4   3   4    8.00    1.38
  -4   3   4    7.87    1.20
  -4   3   3    4.34    0.94
  -4   3   3    4.60    1.11
  -4   3   3    5.48    1.02
  -4   3   3    3.87    0.87
   4  -3  -3    4.16    0.89
  -4   3   3    3.87    0.88
  -4   3   3    5.13    0.96
  -4   3   3    3.57    0.91
  -4   3   3    5.22    1.01
  -4   3   2   91.30    4.62
  -4   3   2  105.31    4.80
   4  -3  -2   92.30    4.18
  -4   3   2   92.97    4.61
  -4   3   2   99.05    4.36
  -4   3   2   97.36    4.72
  -4   3   2  110.00    4.58
   4  -3  -2   90.98    4.05
  -4   3   2  103.80    4.81
  -4   3   1  109.53    4.95
  -4   3   1  122.33    5.31
   4  -3  -1  109.47    4.40
  -4   3   1  117.89    4.65
  -4   3   1  122.53    5.38
  -4   3   1   92.34    4.06
  -4   3   1  105.27    4.75
  -4   3   1  129.30    5.04
   4  -3  -1  116.25    4.57
  -4   3   1  124.04    5.36
  -4   3   0   69.59    3.90
  -4   3   0   56.69    3.23
  -4   3   0   69.46    3.94
   4  -3   0   69.24    3.12
  -4   3   0   64.19    3.83
  -4   3   0   69.19    3.50
  -4   3   0   66.39    3.20
  -4   3   0   66.10    3.90
  -4   3   0   61.20    3.33
  -4   3   0   72.59    3.64
  -4   3   0   79.66    4.01
   4  -3   0   59.85    3.13
  -4   3   0   70.04    3.96
  -4   3  -1   65.48    3.82
  -4   3  -1   73.36    4.03
   4  -3   1   74.86    3.86
  -4   3  -1   70.58    4.06
  -4   3  -1   78.22    3.73
  -4   3  -1   69.60    3.26
  -4   3  -1   76.29    4.22
  -4   3  -1   63.65    3.30
  -4   3  -1   78.50    3.83
   4  -3   1   57.01    3.06
  -4   3  -2   69.31    4.04
  -4   3  -2   68.41    3.98
  -4   3  -2   77.21    4.27
   4  -3   2   73.59    3.77
  -4   3  -2   75.85    4.23
  -4   3  -2   63.95    3.23
  -4   3  -2   68.03    3.91
   4  -3   2   70.40    3.39
  -4   3  -2   64.55    3.93
  -4   3  -3    0.73    0.48
  -4   3  -3    1.02    0.56
   4  -3   3    0.07    0.28
  -4   3  -3    1.40    0.59
  -4   3  -3    0.25    0.33
   4  -3   3    0.06    0.35
  -4   3  -4  210.29    7.68
  -4   3  -4  234.63    8.64
   4  -3   4  221.94    7.42
  -4   3  -4  194.73    7.45
  -4   3  -4  219.80    7.81
   4  -3   4  231.23    7.33
  -4   3  -4  209.45    7.74
  -4   3  -5  140.29    6.64
  -4   3  -5  131.05    5.56
   4  -3   5  146.55    5.57
  -4   3  -5  129.53    5.62
  -4   3  -5  152.93    7.13
  -4   3  -5  135.89    6.24
   4  -3   5  146.70    4.92
  -4   3  -5  151.05    6.37
   4  -3   5  146.96    5.62
  -4   3  -5  172.86    6.22
  -4   3  -6   14.43    2.06
  -4   3  -6   12.21    1.45
   4  -3   6   14.35    1.62
  -4   3  -6   14.96    2.23
  -4   3  -6   14.79    2.04
   4  -3   6   16.40    1.48
  -4   3  -6   18.26    2.08
   4  -3   6   14.90    1.61
   4  -3   7   14.83    1.49
  -4   3  -7   19.71    2.54
  -4   3  -7   15.97    2.21
  -4   3  -7   14.63    2.12
  -4   3  -8    7.52    1.58
  -4   3  -8    8.29    1.53
   4  -3   8   10.16    1.25
  -4   3  -8    8.83    1.47
  -4   3  -9    5.53    1.13
   4  -3   9    8.29    1.12
   4  -3   9    5.61    0.95
  -4   3  -9    7.54    1.51
  -4   3 -10   50.24    3.67
  -4   3 -10   46.66    3.01
   4  -3  10   47.99    2.76
   4  -3  10   52.96    2.92
   4  -3  10   52.96    2.74
  -4   3 -11   71.60    4.01
   4  -3  11   70.85    2.99
   4  -3  11   66.47    3.16
   4  -3  11   65.05    3.20
   4  -3  11   67.58    2.81
  -4   3 -11   66.35    3.33
   4  -3  11   67.37    2.99
  -4   3 -12    2.96    0.67
  -4   3 -12    2.90    0.61
   4  -3  12    2.43    0.58
  -4   3 -12    3.07    0.65
   4  -3  12    2.67    0.53
  -4   3 -13    0.77    0.27
  -4   3 -13    0.58    0.28
  -4   2  13    6.24    0.79
   4  -2 -12   31.08    1.90
   4  -2 -12   32.79    1.95
  -4   2  12   33.04    2.25
   4  -2 -12   29.66    1.85
   4  -2 -11   51.12    2.65
  -4   2  11   56.46    3.39
   4  -2 -11   51.21    2.62
   4  -2 -10   26.00    1.84
  -4   2  10   23.51    2.29
  -4   2  10   28.80    2.76
   4  -2 -10   22.09    1.71
   4  -2  -9   60.34    2.72
  -4   2   9   77.37    4.84
   4  -2  -9   66.52    3.09
   4  -2  -9   74.76    3.30
  -4   2   9   68.49    4.16
  -4   2   8   52.45    4.02
   4  -2  -8   48.86    2.59
  -4   2   8   49.14    3.63
   4  -2  -8   48.05    2.34
  -4   2   8   44.75    3.35
  -4   2   7  505.10   14.46
   4  -2  -7  439.94   10.68
   4  -2  -7  401.65   12.86
  -4   2   7  414.22   12.80
  -4   2   7  477.55   15.02
  -4   2   7  424.17   13.47
  -4   2   6    9.25    1.64
  -4   2   6    6.57    0.87
   4  -2  -6    8.15    1.40
  -4   2   6    8.81    1.42
  -4   2   6   11.51    1.89
  -4   2   5  140.35    5.43
  -4   2   5  131.10    6.41
   4  -2  -5  131.26    5.86
  -4   2   5  132.64    5.75
  -4   2   5  157.88    6.83
  -4   2   5  147.01    6.20
  -4   2   5  145.53    5.45
  -4   2   4  831.64   21.12
  -4   2   4  883.97   20.54
  -4   2   4  862.51   20.51
  -4   2   4  932.96   21.25
  -4   2   4  787.90   20.06
  -4   2   4  958.16   20.85
   4  -2  -4  750.89   20.39
  -4   2   4  943.36   22.02
  -4   2   3    6.06    1.14
  -4   2   3    7.83    1.21
  -4   2   3    8.54    1.28
  -4   2   3    6.27    1.15
  -4   2   3    5.06    0.86
  -4   2   3    6.69    1.09
  -4   2   3    7.22    1.14
  -4   2   3    8.12    1.22
   4  -2  -3    5.86    1.03
  -4   2   3    6.22    1.08
  -4   2   3    5.03    1.05
  -4   2   2  141.99    5.72
  -4   2   2  142.12    5.64
  -4   2   2  148.61    5.76
  -4   2   2  160.24    6.06
  -4   2   2  126.46    4.87
  -4   2   2  126.22    5.48
  -4   2   2  141.93    5.43
  -4   2   2  149.85    5.68
  -4   2   2  145.26    5.70
   4  -2  -2  132.08    5.19
  -4   2   2  134.11    5.33
  -4   2   2  139.06    5.49
  -4   2   1    6.93    1.16
  -4   2   1    6.30    1.11
  -4   2   1    5.90    1.05
  -4   2   1    5.13    0.89
  -4   2   1    6.70    1.07
  -4   2   1    6.83    1.12
   4  -2  -1    5.79    0.91
  -4   2   1    5.61    0.98
  -4   2   1    5.89    1.01
  -4   2   0   17.00    1.82
  -4   2   0   15.31    1.74
  -4   2   0   15.24    1.60
  -4   2   0   13.96    1.51
  -4   2   0   17.08    1.81
  -4   2   0   15.23    1.55
  -4   2   0   15.58    1.52
   4  -2   0   15.04    1.67
  -4   2  -1    1.59    0.61
  -4   2  -1    2.21    0.62
  -4   2  -1    1.86    0.65
  -4   2  -1    2.23    0.62
  -4   2  -1    2.34    0.62
  -4   2  -1    2.11    0.63
  -4   2  -1    2.58    0.67
  -4   2  -1    1.94    0.66
  -4   2  -2    8.72    1.34
  -4   2  -2    8.20    1.30
  -4   2  -2    6.40    1.16
   4  -2   2    8.71    1.11
  -4   2  -2    8.34    1.15
  -4   2  -2    8.98    1.24
  -4   2  -2    8.79    1.24
   4  -2   2    8.40    1.22
  -4   2  -2    5.46    0.98
  -4   2  -2    7.67    1.25
  -4   2  -3   52.08    3.20
   4  -2   3   52.16    3.04
  -4   2  -3   46.34    3.12
  -4   2  -3   50.83    3.31
  -4   2  -3   52.29    3.11
  -4   2  -3   54.48    2.97
   4  -2   3   51.44    2.88
  -4   2  -3   49.65    3.23
  -4   2  -3   57.71    3.21
  -4   2  -3   54.97    3.09
   4  -2   4   25.97    2.04
  -4   2  -4   27.75    2.44
  -4   2  -4   27.39    2.33
  -4   2  -4   28.34    2.35
  -4   2  -4   29.48    2.47
   4  -2   4   32.44    2.34
  -4   2  -4   32.05    2.29
  -4   2  -5   47.78    3.34
  -4   2  -5   44.60    2.86
  -4   2  -5   52.19    3.59
   4  -2   5   49.07    2.92
   4  -2   5   51.30    2.97
  -4   2  -5   50.81    3.37
   4  -2   6   89.31    4.17
  -4   2  -6   78.99    4.48
  -4   2  -6   85.48    4.94
   4  -2   6   88.62    3.73
   4  -2   6   90.64    3.83
  -4   2  -6   85.46    4.60
   4  -2   6   87.10    4.01
   4  -2   7  409.76   10.70
  -4   2  -7  402.80   12.93
   4  -2   7  421.63   10.83
   4  -2   8   28.55    2.12
  -4   2  -8   31.18    2.65
   4  -2   8   31.21    2.23
  -4   2  -8   28.76    2.89
   4  -2   9    0.55    0.39
  -4   2  -9    0.81    0.47
  -4   2  -9    0.11    0.50
   4  -2  10   26.42    2.06
  -4   2 -10   24.95    2.34
  -4   2 -10   26.67    2.22
   4  -2  10   30.98    2.15
   4  -2  10   29.19    1.95
   4  -2  11    0.20    0.23
  -4   2 -11    0.24    0.35
   4  -2  11    0.31    0.28
  -4   2 -11    0.28    0.31
  -4   2 -11    0.17    0.29
   4  -2  11    0.08    0.22
   4  -2  11    0.48    0.34
  -4   2 -12   18.13    1.42
   4  -2  12   21.73    1.58
  -4   1  14    0.09    0.15
   4  -1 -13    1.09    0.37
  -4   1  13    1.28    0.46
   4  -1 -12  118.54    4.19
   4  -1 -12  119.49    4.13
   4  -1 -12  115.12    4.23
   4  -1 -12  121.20    4.37
  -4   1  12  130.04    5.27
  -4   1  11   17.83    2.09
   4  -1 -11   19.37    1.55
   4  -1 -11   20.06    1.61
   4  -1 -11   21.31    1.72
  -4   1  11   20.15    2.15
  -4   1  10    5.64    0.95
  -4   1  10    6.97    1.46
   4  -1 -10    6.44    0.91
   4  -1 -10    8.43    1.04
  -4   1  10    6.62    1.35
  -4   1   9  114.55    5.09
  -4   1   9  134.88    6.75
   4  -1  -9  150.46    4.97
   4  -1  -9  133.36    4.69
  -4   1   9  129.62    6.27
   4  -1  -8   29.34    1.89
  -4   1   8   26.24    2.83
  -4   1   8   23.53    2.52
  -4   1   7   40.83    3.31
   4  -1  -7   35.78    3.08
  -4   1   7   40.19    3.92
  -4   1   6    2.68    0.80
  -4   1   6    4.06    0.96
  -4   1   6    2.67    0.57
   4  -1  -6    4.07    1.04
  -4   1   6    3.79    1.15
  -4   1   5   39.40    2.92
  -4   1   5   33.64    2.69
   4  -1  -5   34.31    2.77
  -4   1   5   34.57    2.73
  -4   1   5   41.00    3.38
  -4   1   5   31.67    2.02
  -4   1   5   42.00    2.70
  -4   1   4    8.90    1.38
  -4   1   4    8.42    1.33
  -4   1   4    9.57    1.31
   4  -1  -4    8.45    1.31
  -4   1   4    9.08    1.34
  -4   1   4    9.61    1.55
  -4   1   4   10.60    1.37
  -4   1   4    7.40    0.98
  -4   1   3   25.45    2.16
  -4   1   3   25.31    2.27
  -4   1   3   27.41    2.04
  -4   1   3   26.06    2.14
   4  -1  -3   23.44    2.05
  -4   1   3   23.00    2.02
  -4   1   3   27.61    2.38
  -4   1   3   23.80    2.05
  -4   1   3   17.58    1.54
  -4   1   2  472.09   12.97
  -4   1   2  468.36   12.37
  -4   1   2  483.60   13.04
  -4   1   2  479.82   12.97
   4  -1  -2  481.49   12.56
  -4   1   2  468.45   12.57
  -4   1   2  502.15   13.15
  -4   1   2  490.45   12.93
  -4   1   2  456.31   12.57
  -4   1   1  340.77    9.94
  -4   1   1  301.83    9.27
  -4   1   1  290.42    8.79
  -4   1   1  316.16    9.57
  -4   1   1  325.22    9.58
  -4   1   1  314.82    9.30
  -4   1   1  292.79    9.00
   4  -1  -1  308.52    8.72
  -4   1   1  308.48    8.91
  -4   1   1  317.21    9.29
  -4   1   0   75.73    3.62
  -4   1   0   72.02    3.67
  -4   1   0   67.09    3.46
  -4   1  -1    2.27    0.67
  -4   1  -1    2.02    0.60
  -4   1  -1    2.00    0.65
   4  -1   1    3.39    0.77
  -4   1  -1    2.31    0.62
  -4   1  -1    2.56    0.70
  -4   1  -1    2.14    0.57
  -4   1  -1    1.78    0.58
   4  -1   2   13.16    1.33
  -4   1  -2   14.48    1.68
  -4   1  -2   16.36    1.65
  -4   1  -2   12.98    1.46
  -4   1  -2   13.10    1.45
  -4   1  -2   16.16    1.61
  -4   1  -2   11.07    1.26
  -4   1  -2   12.48    1.34
  -4   1  -2   13.19    1.61
  -4   1  -2   12.59    1.45
   4  -1   2   13.80    1.50
  -4   1  -3  232.66    7.38
  -4   1  -3  192.46    7.06
  -4   1  -3  206.02    6.64
  -4   1  -3  226.75    7.20
  -4   1  -3  218.93    7.44
   4  -1   3  225.83    7.14
  -4   1  -3  207.82    7.05
  -4   1  -4  130.41    5.35
  -4   1  -4  122.51    5.20
  -4   1  -4  131.90    5.50
   4  -1   4  135.80    5.04
  -4   1  -4  122.65    4.53
  -4   1  -4  131.99    4.96
   4  -1   4  121.96    4.84
  -4   1  -5   11.97    1.59
  -4   1  -5   12.49    1.63
   4  -1   5   11.96    1.37
   4  -1   5   11.74    1.40
  -4   1  -5   12.53    1.34
   4  -1   6    7.96    1.13
  -4   1  -6    5.86    1.21
  -4   1  -6    7.50    1.31
   4  -1   6    8.68    1.15
   4  -1   6    5.67    1.01
   4  -1   7   10.67    1.32
  -4   1  -7    6.49    1.29
   4  -1   8   18.18    1.71
   4  -1   8   19.20    1.78
  -4   1  -8   18.62    2.11
  -4   1  -8   17.35    1.95
   4  -1   9   93.86    4.10
  -4   1  -9   74.78    4.33
  -4   1  -9   82.53    4.28
   4  -1   9   92.77    3.99
  -4   1  -9   80.77    4.26
   4  -1  10   59.22    3.08
  -4   1 -10   57.56    3.25
   4  -1  10   55.60    2.91
  -4   1 -10   51.59    3.07
   4  -1  11   56.70    2.44
   4  -1  11   58.21    2.80
   4  -1  11   56.18    2.84
  -4   1 -11   52.41    2.72
  -4   1 -12  171.30    4.87
  -4   1 -12  174.69    5.32
  -4   0  14   23.97    1.56
   4   0 -13    0.27    0.24
   4   0 -13    0.17    0.26
  -4   0  13    0.42    0.32
   4   0 -13    0.55    0.29
  -4   0  12   35.76    2.76
   4   0 -12   35.43    2.08
   4   0 -12   32.23    1.99
   4   0 -12   31.26    2.06
  -4   0  12   34.26    2.71
  -4   0  11   37.24    3.13
   4   0 -11   35.02    2.14
   4   0 -11   40.08    2.41
  -4   0  11   40.84    3.31
   4   0 -11   32.76    2.02
  -4   0  10   34.39    3.21
   4   0 -10   37.54    2.22
   4   0 -10   40.48    2.48
   4   0 -10   35.71    2.13
  -4   0   9    4.28    0.86
   4   0  -9    5.38    0.81
   4   0  -9    4.64    0.79
  -4   0   9    6.34    1.50
   4   0  -8    2.47    0.55
  -4   0   8    2.72    0.88
  -4   0   8    1.78    0.60
  -4   0   8    4.80    1.27
  -4   0   8    2.43    0.94
  -4   0   7    5.80    1.26
   4   0  -7    5.95    1.29
  -4   0   7    3.61    1.23
  -4   0   7    5.23    1.25
   4   0  -7    3.65    0.79
  -4   0   7    3.66    0.99
  -4   0   7    4.43    0.93
   4   0  -6  236.74    7.44
   4   0  -6  223.15    8.58
  -4   0   6  235.85    8.79
  -4   0   6  266.58   10.30
  -4   0   6  296.36    8.36
  -4   0   6  237.64    6.95
  -4   0   6  266.64    9.17
  -4   0   6  230.59    8.04
   4   0  -5  263.73    9.29
  -4   0   5  282.31    9.40
  -4   0   5  293.39    8.94
  -4   0   5  274.59    7.88
  -4   0   5  309.45    9.99
  -4   0   5  283.86    9.09
  -4   0   4   17.77    1.86
   4   0  -4   19.55    1.96
  -4   0   4   21.43    2.09
  -4   0   4   20.82    2.26
  -4   0   4   17.84    1.83
  -4   0   4   18.07    1.53
  -4   0   4   20.15    2.13
  -4   0   4   16.41    1.80
  -4   0   3   94.91    4.27
   4   0  -3   82.72    4.08
  -4   0   3   96.46    4.63
  -4   0   3  102.24    4.84
  -4   0   3   86.27    4.24
  -4   0   3   77.92    3.51
  -4   0   3   95.07    4.74
  -4   0   3   87.26    4.32
  -4   0   3  113.21    4.54
  -4   0   2    3.00    0.70
   4   0  -2    3.20    0.72
  -4   0   2    3.83    0.89
  -4   0   2    3.22    0.81
  -4   0   2    3.06    0.77
  -4   0   2    3.30    0.65
  -4   0   2    4.08    0.93
   4   0  -1   74.89    3.55
  -4   0   1   74.31    3.95
  -4   0   1   71.32    3.63
  -4   0   1   63.36    3.49
  -4   0   1   63.98    3.12
  -4   0   1   66.11    3.15
  -4   0   1   71.44    3.73
  -4   0   1   69.18    3.52
  -4   0   0  204.99    7.28
   4   0   0  238.49    6.99
  -4   0   0  210.42    6.89
  -4   0   0  196.03    6.45
  -4   0   0  191.15    6.86
  -4   0   0  199.40    6.85
  -4   0   0  184.45    6.26
  -4   0   0  240.52    7.85
  -4   0   0  226.04    7.34
  -4   0  -1  290.25    8.30
  -4   0  -1  303.11    9.14
   4   0   1  323.11    8.66
  -4   0  -1  260.81    8.29
  -4   0  -1  281.24    8.69
  -4   0  -1  278.71    8.59
  -4   0  -1  274.47    8.08
  -4   0  -1  267.38    8.12
  -4   0  -1  347.67    9.48
  -4   0  -1  287.29    8.79
   4   0   2  273.16    8.45
  -4   0  -2  339.53    9.40
  -4   0  -2  346.28    9.84
   4   0   2  366.29    9.28
  -4   0  -2  320.56    9.32
  -4   0  -2  295.66    9.16
  -4   0  -2  330.47    9.40
  -4   0  -2  323.31    8.86
  -4   0  -2  303.17    9.08
  -4   0  -2  330.99    9.63
  -4   0  -3    0.14    0.28
  -4   0  -3    0.98    0.46
  -4   0  -3    1.17    0.46
  -4   0  -3    0.63    0.41
  -4   0  -3    0.36    0.31
   4   0   3    0.22    0.25
  -4   0  -4  101.27    4.70
  -4   0  -4   97.45    4.15
  -4   0  -4  107.89    4.06
  -4   0  -4   92.81    4.54
   4   0   4   85.54    3.97
  -4   0  -5  394.19   11.95
  -4   0  -5  386.59   11.81
   4   0   5  388.27   11.12
  -4   0  -6   78.43    4.33
   4   0   6   95.17    3.96
  -4   0  -6   82.06    4.53
  -4   0  -6   97.13    4.78
  -4   0  -7    8.58    1.36
   4   0   7    8.68    1.25
  -4   0  -7    8.84    1.27
   4   0   7    9.15    1.17
  -4   0  -7    9.17    1.50
  -4   0  -8    2.16    0.72
   4   0   8    1.30    0.54
  -4   0  -8    2.07    0.61
   4   0   8    1.84    0.56
   4   0   8    2.02    0.62
  -4   0  -8    2.42    0.79
  -4   0  -8    1.97    0.75
   4   0   9    0.66    0.37
   4   0   9    0.85    0.47
  -4   0  -9    0.49    0.38
   4   0   9    0.67    0.40
   4   0  10   80.63    3.43
  -4   0 -10   76.55    3.50
  -4   0 -10   74.66    3.79
   4   0  10   82.82    3.62
   4   0  11  128.47    4.24
   4   0  11  125.46    4.37
  -4   0 -11  119.98    4.03
  -4   0 -11  122.38    4.48
  -4   0 -12  303.97    7.50
  -4  -1  14    0.51    0.30
   4   1 -13   64.24    2.87
   4   1 -13   68.33    2.87
  -4  -1  13   69.48    3.55
   4   1 -12   44.70    2.32
   4   1 -12   47.56    2.54
   4   1 -11   32.04    2.00
   4   1 -11   34.85    2.24
  -4  -1  10    1.76    0.83
  -4  -1  10    1.76    0.77
   4   1 -10    1.24    0.44
   4   1 -10    1.80    0.59
  -4  -1  10    0.66    0.50
  -4  -1   9    7.85    1.66
  -4  -1   9    9.61    1.76
   4   1  -9   11.82    1.17
  -4  -1   9    9.21    1.18
  -4  -1   9   10.87    1.76
  -4  -1   8  163.86    7.41
  -4  -1   8  131.43    5.44
  -4  -1   8  185.09    7.90
  -4  -1   8  137.14    7.11
   4   1  -8  172.54    5.20
  -4  -1   8  180.55    7.46
  -4  -1   7  160.62    7.43
   4   1  -7  137.47    6.78
  -4  -1   7  181.91    8.53
   4   1  -7  183.73    6.02
  -4  -1   7  190.22    5.71
  -4  -1   7  202.85    8.10
  -4  -1   7  192.61    8.10
  -4  -1   7  155.36    6.06
  -4  -1   6  173.89    7.29
  -4  -1   6  207.84    7.26
  -4  -1   6  185.34    8.21
   4   1  -6  182.03    5.96
  -4  -1   6  189.37    6.71
  -4  -1   6  179.09    5.73
  -4  -1   6  202.25    8.10
  -4  -1   6  186.55    7.90
  -4  -1   6  167.88    6.37
  -4  -1   5  101.92    5.01
  -4  -1   5  120.75    5.40
  -4  -1   5  119.83    5.95
   4   1  -5  107.52    4.19
  -4  -1   5  114.78    4.99
  -4  -1   5  109.05    4.18
  -4  -1   5  115.07    5.85
  -4  -1   5  103.75    5.54
  -4  -1   5  105.91    4.76
  -4  -1   4   13.45    1.60
  -4  -1   4   16.44    1.93
  -4  -1   4   14.77    1.90
   4   1  -4   13.23    1.30
  -4  -1   4   13.59    1.80
  -4  -1   4   16.24    1.49
  -4  -1   4   16.15    2.07
  -4  -1   4   18.17    1.56
  -4  -1   4   13.97    1.91
  -4  -1   4   13.90    1.63
  -4  -1   3    2.31    0.64
  -4  -1   3    3.22    0.89
  -4  -1   3    2.84    0.80
  -4  -1   3    2.63    0.82
   4   1  -3    2.59    0.59
  -4  -1   3    2.10    0.56
  -4  -1   3    2.82    0.64
  -4  -1   3    2.77    0.87
  -4  -1   3    2.19    0.77
  -4  -1   3    3.49    0.86
  -4  -1   2  309.78    9.73
  -4  -1   2  279.70    8.88
   4   1  -2  297.36    8.83
  -4  -1   2  293.40    8.26
  -4  -1   2  299.15    9.13
  -4  -1   1   23.27    2.04
   4   1  -1   36.48    2.52
  -4  -1   1   25.53    2.37
  -4  -1   1   33.77    2.13
  -4  -1   1   22.16    1.79
  -4  -1   1   25.00    1.95
  -4  -1   1   27.14    2.43
  -4  -1   1   29.22    2.30
  -4  -1   0  126.60    5.51
   4   1   0  149.40    5.56
  -4  -1   0  132.63    5.68
  -4  -1   0  116.17    4.56
  -4  -1   0  111.33    4.55
  -4  -1   0  114.31    4.73
  -4  -1   0  135.65    5.71
  -4  -1   0  129.73    5.22
  -4  -1  -1   35.81    2.39
  -4  -1  -1   37.10    2.77
   4   1   1   48.61    2.94
  -4  -1  -1   38.94    2.85
  -4  -1  -1   37.41    2.54
  -4  -1  -1   35.05    2.48
  -4  -1  -1   38.40    2.52
  -4  -1  -1   39.39    2.40
  -4  -1  -1   38.99    2.69
  -4  -1  -2    6.69    1.09
   4   1   2    8.86    1.30
  -4  -1  -2    6.81    1.15
   4   1   2    7.56    1.15
   4   1   2    4.34    0.75
  -4  -1  -2    7.10    1.13
  -4  -1  -2    5.55    1.00
  -4  -1  -2    6.00    1.00
  -4  -1  -2    8.24    1.08
  -4  -1  -2    6.66    1.09
  -4  -1  -2    7.89    1.21
  -4  -1  -3  336.64    9.95
  -4  -1  -3  326.48    9.74
   4   1   3  376.53    9.95
   4   1   3  245.36    8.43
  -4  -1  -3  298.19    9.22
  -4  -1  -3  337.15    9.40
  -4  -1  -3  320.63    9.79
  -4  -1  -3  416.95    9.65
  -4  -1  -3  352.43   10.05
  -4  -1  -4   92.06    4.41
   4   1   4   84.86    3.99
   4   1   4   63.47    3.35
  -4  -1  -4   73.84    3.53
  -4  -1  -4   73.16    3.99
  -4  -1  -4   89.04    3.86
  -4  -1  -4   72.16    4.00
  -4  -1  -4   80.59    4.05
  -4  -1  -5  262.02    8.96
  -4  -1  -5  267.72    9.16
  -4  -1  -5  285.80    9.36
  -4  -1  -5  278.07    8.84
  -4  -1  -6    0.08    0.34
  -4  -1  -6    0.34    0.29
   4   1   6    0.06    0.26
  -4  -1  -6   -0.09    0.32
   4   1   7    3.51    0.81
  -4  -1  -7    1.93    0.70
   4   1   7    2.39    0.65
   4   1   8    1.94    0.63
  -4  -1  -8    1.65    0.59
   4   1   8    2.97    0.70
   4   1   9  218.61    6.68
  -4  -1  -9  190.75    6.39
  -4  -1  -9  193.42    6.88
   4   1   9  210.66    6.40
   4   1   9  207.41    6.42
   4   1  10   76.99    3.26
   4   1  10   74.36    3.14
  -4  -1 -10   75.73    3.44
  -4  -1 -10   71.46    2.97
  -4  -1 -11    4.42    0.66
   4   2 -13    1.06    0.38
   4   2 -13    1.14    0.37
   4   2 -13    1.20    0.37
  -4  -2  13    1.23    0.49
  -4  -2  12   40.20    3.04
   4   2 -12   39.23    2.23
   4   2 -12   43.20    2.38
  -4  -2  11   18.41    2.06
  -4  -2  11   12.39    1.92
   4   2 -11   14.50    1.38
   4   2 -11   14.88    1.44
   4   2 -10  249.57    7.23
  -4  -2  10  285.30    9.98
  -4  -2   9   11.15    1.99
  -4  -2   9    6.41    1.52
   4   2  -9    8.47    1.07
  -4  -2   9   12.26    1.90
  -4  -2   8  298.12   10.68
  -4  -2   8  276.79   10.82
  -4  -2   7   17.70    2.29
  -4  -2   7   21.25    1.98
  -4  -2   7   18.17    2.51
   4   2  -7   19.98    1.68
  -4  -2   7   18.37    2.56
  -4  -2   7   15.94    1.64
  -4  -2   6   47.74    3.56
  -4  -2   6   66.79    4.04
  -4  -2   6   56.97    4.06
  -4  -2   6   69.67    3.30
  -4  -2   6   66.85    4.78
  -4  -2   6   60.43    3.91
   4   2  -6   67.08    3.14
  -4  -2   6   60.07    4.56
  -4  -2   6   53.93    3.22
  -4  -2   5  203.40    7.72
  -4  -2   5  242.32    8.82
   4   2  -5  234.54    7.86
  -4  -2   5  218.33    8.46
  -4  -2   5  250.23    7.41
  -4  -2   5  235.26    9.58
  -4  -2   5  230.20    8.68
   4   2  -5  236.57    6.98
  -4  -2   5  215.35    9.21
  -4  -2   5  223.53    7.67
  -4  -2   4   39.66    3.25
  -4  -2   4   32.64    2.74
   4   2  -4   38.75    2.79
  -4  -2   4   44.01    2.59
  -4  -2   4   39.85    2.41
  -4  -2   4   39.90    3.48
  -4  -2   4   43.21    2.60
  -4  -2   4   34.54    3.06
   4   2  -4   37.71    2.19
  -4  -2   4   36.19    2.66
  -4  -2   3   44.64    3.45
  -4  -2   3   39.63    2.86
   4   2  -3   46.27    3.12
  -4  -2   3   43.97    3.44
  -4  -2   3   46.88    3.07
  -4  -2   3   47.99    2.74
  -4  -2   3   47.43    2.77
  -4  -2   3   42.91    2.55
  -4  -2   3   42.25    3.36
  -4  -2   2  257.90    9.34
  -4  -2   2  229.27    8.83
  -4  -2   2  223.57    7.83
   4   2  -2  252.24    8.40
  -4  -2   2  238.54    8.77
  -4  -2   2  266.52    7.72
  -4  -2   2  237.23    7.54
  -4  -2   2  238.19    7.39
  -4  -2   2  254.63    9.15
  -4  -2   1   19.64    2.28
  -4  -2   1   16.97    1.74
  -4  -2   1   17.85    2.13
   4   2  -1   18.10    1.92
  -4  -2   1   16.47    1.61
  -4  -2   1   19.28    1.73
  -4  -2   1   16.03    1.65
  -4  -2   1   17.19    1.98
  -4  -2   1   23.21    2.13
  -4  -2   0   20.86    2.26
  -4  -2   0   22.45    2.32
   4   2   0   26.04    2.33
  -4  -2   0   25.28    2.00
  -4  -2   0   20.22    1.85
  -4  -2   0   23.74    2.02
  -4  -2   0   24.99    2.32
  -4  -2   0   27.97    2.35
  -4  -2  -1  215.62    8.20
  -4  -2  -1  250.55    8.63
   4   2   1  275.99    8.59
  -4  -2  -1  200.05    7.30
  -4  -2  -1  271.69    7.84
  -4  -2  -1  225.68    7.65
  -4  -2  -1  262.09    8.30
   4   2   2   68.15    3.89
  -4  -2  -2   57.55    3.60
   4   2   2   69.89    3.83
  -4  -2  -2   67.73    3.90
  -4  -2  -2   59.47    3.23
  -4  -2  -2   61.40    3.51
  -4  -2  -2   62.34    3.51
  -4  -2  -2   68.57    3.74
  -4  -2  -3   29.79    2.42
  -4  -2  -3   31.44    2.32
  -4  -2  -3   34.44    2.28
  -4  -2  -3   32.02    2.53
  -4  -2  -3   33.81    2.57
   4   2   3   41.59    2.82
  -4  -2  -3   39.03    2.74
  -4  -2  -4   23.48    1.90
  -4  -2  -4   32.06    2.58
  -4  -2  -4   27.02    2.30
  -4  -2  -4   35.40    2.52
   4   2   5   58.62    3.12
  -4  -2  -5   53.09    3.29
  -4  -2  -5   61.43    3.34
   4   2   6   72.65    3.52
  -4  -2  -6   63.58    3.57
   4   2   6   68.01    3.30
  -4  -2  -7    1.21    0.54
   4   2   7    1.33    0.47
   4   2   7    1.03    0.48
  -4  -2  -7    0.90    0.45
  -4  -2  -8    3.42    0.73
   4   2   8    3.70    0.74
  -4  -2  -8    3.76    0.84
   4   2   8    3.78    0.77
   4   2   9   52.77    2.58
   4   2   9   49.96    2.57
  -4  -2  -9   50.10    2.73
  -4  -2  -9   50.04    2.38
  -4  -2 -10    1.39    0.42
  -4  -3  14   12.80    1.09
  -4  -3  13    8.66    1.14
   4   3 -13    9.14    0.98
   4   3 -13    9.91    0.97
  -4  -3  12   33.16    2.47
  -4  -3  12   31.18    2.54
   4   3 -12   30.07    1.92
  -4  -3  11   20.93    2.33
  -4  -3  11   15.65    2.00
   4   3 -11   18.76    1.59
  -4  -3  10    0.13    0.44
  -4  -3  10    0.11    0.42
  -4  -3  10   -0.11    0.42
   4   3 -10    0.37    0.32
  -4  -3   9   71.05    5.27
  -4  -3   9   78.06    5.07
  -4  -3   8   26.75    3.35
  -4  -3   8   23.38    2.59
  -4  -3   7  648.17   19.92
  -4  -3   7  723.93   20.34
  -4  -3   6   43.49    4.14
  -4  -3   6   33.33    3.62
  -4  -3   5   88.18    5.29
  -4  -3   5   89.15    5.29
   4   3  -5   76.36    4.24
  -4  -3   5   63.25    3.99
  -4  -3   5   78.93    3.74
  -4  -3   5   93.87    4.21
  -4  -3   5   70.32    5.23
  -4  -3   5   82.60    5.07
  -4  -3   4   95.49    5.74
  -4  -3   4   99.76    5.83
  -4  -3   4   83.38    4.50
   4   3  -4  106.33    5.18
  -4  -3   4  125.73    4.98
  -4  -3   4   90.58    4.40
  -4  -3   4  106.22    4.42
  -4  -3   4  120.88    4.79
  -4  -3   4   90.03    5.52
  -4  -3   4   94.89    5.68
  -4  -3   3  174.42    7.70
  -4  -3   3  199.06    8.83
  -4  -3   3  165.22    6.39
  -4  -3   3  188.61    8.29
  -4  -3   3  201.74    6.61
  -4  -3   3  216.60    6.93
  -4  -3   3  185.71    8.34
  -4  -3   3  170.49    6.64
   4   3  -3  190.69    7.45
  -4  -3   2    1.40    0.82
  -4  -3   2    1.23    0.53
   4   3  -2    2.12    0.80
  -4  -3   2    1.21    0.63
  -4  -3   2    1.07    0.64
  -4  -3   2    0.68    0.42
  -4  -3   2    3.49    0.89
  -4  -3   2    2.25    0.83
  -4  -3   2    1.59    0.79
  -4  -3   1   17.42    2.30
  -4  -3   1   17.27    2.32
  -4  -3   1   14.07    1.81
  -4  -3   1   17.95    2.39
  -4  -3   1   12.68    1.51
  -4  -3   1   17.31    1.80
  -4  -3   1   12.72    1.54
  -4  -3   1   15.84    2.18
   4   3  -1   14.52    1.80
  -4  -3   0   56.53    4.05
  -4  -3   0   44.70    3.60
  -4  -3   0   50.03    3.05
  -4  -3   0   45.93    3.19
  -4  -3   0   52.29    3.83
   4   3   0   52.62    3.45
  -4  -3  -1   54.25    3.73
   4   3   1   55.34    3.50
  -4  -3  -1   50.59    3.12
  -4  -3  -1   52.05    3.16
  -4  -3  -2   43.72    2.95
  -4  -3  -2   46.93    3.03
  -4  -3  -3  295.36    9.20
  -4  -3  -3  313.91    9.23
  -4  -3  -4   83.61    4.11
  -4  -3  -5   14.93    1.64
  -4  -3  -5   17.65    1.86
   4   3   5   16.57    1.59
  -4  -3  -6    0.86    0.49
   4   3   6    1.45    0.49
   4   3   6    0.74    0.39
  -4  -3  -6    1.64    0.56
   4   3   7   15.64    1.40
   4   3   7   16.29    1.47
  -4  -3  -7   14.98    1.56
  -4  -3  -7   17.09    1.50
   4   3   7   17.57    1.59
   4   3   8   26.00    1.66
   4   3   8   26.59    1.76
   4   3   8   28.77    1.85
  -4  -3  -8   27.96    1.94
  -4  -3  -8   31.27    1.75
  -4  -3  -9  105.18    3.64
  -4  -4  13   47.23    2.39
   4   4 -12    6.66    0.87
  -4  -4  12    6.70    1.13
   4   4 -12    6.99    0.86
  -4  -4  11   14.15    1.94
   4   4 -11   10.71    1.13
   4   4 -11   11.79    1.21
  -4  -4  11   12.20    1.61
   4   4 -10  100.42    3.98
  -4  -4  10  108.85    6.25
   4   4  -9    3.64    0.70
  -4  -4   9    3.43    1.18
  -4  -4   9    3.32    1.24
   4   4  -8   26.21    1.83
  -4  -4   8   26.14    3.34
  -4  -4   8   22.70    3.15
  -4  -4   7   33.89    3.94
  -4  -4   6   32.01    3.11
  -4  -4   6   33.95    3.92
  -4  -4   6   30.14    3.48
  -4  -4   5   81.88    5.48
  -4  -4   5   95.15    4.26
  -4  -4   5   77.37    5.39
  -4  -4   5   98.82    6.09
  -4  -4   4   57.86    4.70
  -4  -4   4   53.87    3.35
  -4  -4   4   61.19    3.36
  -4  -4   4   66.31    3.60
  -4  -4   4   50.17    4.40
  -4  -4   4   52.59    4.12
  -4  -4   4   57.32    4.85
  -4  -4   3    3.73    1.22
  -4  -4   3    2.62    0.72
  -4  -4   3    2.26    0.72
  -4  -4   3    2.05    0.68
  -4  -4   3    1.88    0.78
  -4  -4   3    1.48    0.93
  -4  -4   2   19.36    2.18
  -4  -4   2   19.78    2.03
  -4  -4   2   21.52    1.96
  -4  -4   2   25.81    3.16
  -4  -4   1   11.27    1.57
  -4  -4   1   14.60    2.35
  -4  -4   1   10.13    1.46
  -4  -4   1   12.66    1.56
  -4  -4   1   11.60    1.48
  -4  -4   1   14.64    2.29
  -4  -4   0   28.56    2.32
  -4  -4   0   29.46    2.37
  -4  -4   0   34.46    3.32
  -4  -4  -1   20.05    1.98
  -4  -4  -1   19.71    1.90
  -4  -4  -2  120.48    5.07
  -4  -4  -3    0.44    0.43
   4   4   3    0.84    0.42
  -4  -4  -3    0.07    0.30
   4   4   4    0.38    0.28
  -4  -4  -4    0.56    0.48
  -4  -4  -4    0.25    0.34
   4   4   4    0.60    0.37
  -4  -4  -5    1.03    0.50
   4   4   5    0.79    0.39
  -4  -4  -5    1.55    0.53
   4   4   5    0.87    0.40
   4   4   6    7.94    0.99
   4   4   6    7.83    1.00
  -4  -4  -6    8.57    1.13
  -4  -4  -6    8.83    1.03
   4   4   7    8.08    0.95
   4   4   7    9.82    1.01
  -4  -4  -7    9.89    1.08
  -4  -4  -7    9.76    0.91
   4   4   7    8.65    0.95
  -4  -4  -8    1.50    0.37
  -4  -5  13    3.02    0.56
  -4  -5  12   70.02    3.49
   4   5 -12   62.20    2.64
  -4  -5  11    0.18    0.36
  -4  -5  11    0.39    0.41
   4   5 -11    0.17    0.21
  -4  -5  10    4.01    1.16
  -4  -5  10    3.34    1.04
   4   5 -10    3.83    0.70
  -4  -5   9    1.81    0.87
  -4  -5   9    0.96    0.69
   4   5  -9    0.59    0.33
  -4  -5   8   88.88    6.18
   4   5  -8   95.08    3.84
   4   5  -7    1.56    0.50
  -4  -5   7    1.74    0.99
  -4  -5   6   20.44    2.53
  -4  -5   6   17.41    2.76
  -4  -5   6   14.53    2.30
  -4  -5   5   14.93    2.37
  -4  -5   5   16.72    1.72
  -4  -5   5   19.63    1.93
  -4  -5   5   13.36    2.34
  -4  -5   5   11.86    1.97
  -4  -5   5   16.83    2.62
  -4  -5   4    3.15    0.80
  -4  -5   4    2.39    1.00
  -4  -5   4    3.17    0.82
  -4  -5   4    2.24    0.86
  -4  -5   4    4.38    1.47
  -4  -5   3  296.34   10.54
  -4  -5   3  326.67   13.58
  -4  -5   3  368.91   10.25
  -4  -5   3  358.42   10.52
  -4  -5   3  311.24   11.51
  -4  -5   3  383.30   14.14
  -4  -5   2   96.15    4.89
  -4  -5   2  110.70    5.19
  -4  -5   2  123.39    5.09
  -4  -5   2  136.86    5.46
  -4  -5   2  130.78    7.56
  -4  -5   1    5.84    1.54
  -4  -5   1    7.10    1.27
  -4  -5   1    7.01    1.17
  -4  -5   1    6.89    1.12
  -4  -5   1    6.18    1.53
  -4  -5   0    5.27    1.02
  -4  -5   0    6.22    1.51
   4   5   1   56.00    3.10
  -4  -5  -1   67.21    3.47
  -4  -5  -2    2.57    0.72
   4   5   2    3.08    0.73
  -4  -5  -2    3.99    0.87
   4   5   3   39.44    2.38
  -4  -5  -3   42.35    2.55
  -4  -5  -3   40.79    2.60
   4   5   4    1.18    0.42
   4   5   4    1.48    0.46
  -4  -5  -4    1.74    0.52
  -4  -5  -4    1.54    0.55
   4   5   5   17.52    1.40
  -4  -5  -5   21.25    1.47
  -4  -5  -5   17.81    1.51
   4   5   5   16.08    1.35
  -4  -5  -6   57.08    2.54
  -4  -6  12    0.65    0.33
  -4  -6  11   51.73    2.95
  -4  -6  11   44.24    2.83
   4   6 -10   39.26    2.07
   4   6 -10   42.22    2.27
  -4  -6   9   13.09    1.87
   4   6  -9   13.26    1.20
   4   6  -9   12.89    1.28
  -4  -6   9   16.42    2.18
  -4  -6   8    4.34    1.15
   4   6  -8    4.67    0.79
  -4  -6   7   23.52    2.60
   4   6  -7   23.97    1.80
  -4  -6   7   23.09    2.85
  -4  -6   6   38.45    3.31
  -4  -6   6   50.06    3.84
   4   6  -6   48.51    2.72
  -4  -6   6   50.66    4.19
  -4  -6   5  123.61    5.99
  -4  -6   5  173.26    8.25
  -4  -6   5  154.93    7.69
  -4  -6   5  139.79    5.50
  -4  -6   5  122.66    6.67
   4   6  -5  146.70    5.16
  -4  -6   4    9.15    1.27
  -4  -6   4   10.12    1.39
  -4  -6   4    9.11    1.64
  -4  -6   4    6.22    1.20
  -4  -6   4   10.05    2.08
  -4  -6   3  114.50    4.83
  -4  -6   3  106.51    4.87
   4   6  -3  115.37    4.59
  -4  -6   2   24.42    2.17
  -4  -6   2   24.50    3.08
   4   6  -2   22.66    1.80
  -4  -6   2   20.55    2.85
  -4  -6   1   30.99    2.34
  -4  -6   1   31.48    3.19
  -4  -6   0   98.32    4.25
   4   6   0   82.14    3.82
  -4  -6  -1   64.64    3.22
  -4  -6  -1   72.10    3.36
   4   6   1   56.83    2.97
   4   6   1   50.39    2.70
  -4  -6  -2   59.99    3.05
   4   6   2   55.66    2.80
   4   6   3   25.27    1.69
  -4  -6  -3   28.50    1.89
   4   6   3   23.67    1.60
  -4  -6  -4   18.27    1.35
   4   6   4   11.56    1.05
  -4  -6  -5   17.74    1.20
  -4  -7  11   20.03    1.43
  -4  -7  10    1.94    0.54
  -4  -7   9   35.54    2.40
   4   7  -9   33.70    1.90
   4   7  -9   33.58    1.73
  -4  -7   8   24.13    2.03
   4   7  -8   21.19    1.55
   4   7  -8   23.68    1.67
  -4  -7   8   24.96    2.33
   4   7  -7   12.33    1.21
   4   7  -7   13.06    1.30
  -4  -7   7   15.38    1.90
   4   7  -6   13.91    1.27
  -4  -7   6   16.17    1.91
   4   7  -6   14.73    1.40
  -4  -7   5   22.31    2.47
   4   7  -5   26.10    1.85
   4   7  -4   22.83    1.72
  -4  -7   4   22.89    1.85
  -4  -7   3    4.49    1.20
   4   7  -3    4.07    0.70
  -4  -7   3    3.99    0.80
  -4  -7   2  125.01    4.57
  -4  -7   2  141.77    6.28
  -4  -7   1   16.95    1.52
   4   7  -1   13.76    1.28
   4   7   0   39.71    2.21
   4   7   0   34.04    1.95
   4   7   1   65.10    2.78
   4   7   1   62.23    2.71
  -4  -7  -2   33.15    1.83
  -4  -7  -3    1.96    0.39
   5  -9  -2   79.77    3.12
  -5   9   1   31.59    2.18
   5  -9  -1   23.97    1.61
  -5   9   0    6.66    1.15
  -5   9   0    7.69    1.22
   5  -9   0    6.94    0.90
   5  -9   1   18.03    1.43
   5  -9   1   15.12    1.30
  -5   9  -1   19.71    2.05
   5  -9   2   56.00    2.65
  -5   9  -2   59.57    3.74
   5  -9   3   31.79    1.89
   5  -9   3   31.35    1.83
  -5   9  -3   36.19    2.80
  -5   9  -4    8.17    1.25
  -5   9  -4    7.69    1.23
   5  -9   4    6.30    0.79
   5  -9   4    5.58    0.75
   5  -9   4    5.70    0.80
   5  -9   4    6.54    0.89
   5  -9   5   34.36    1.76
  -5   9  -5   38.67    2.80
   5  -9   5   37.64    2.15
  -5   9  -5   35.69    2.38
   5  -9   6    1.22    0.40
  -5   9  -6    2.27    0.65
   5  -9   6    1.18    0.37
  -5   9  -7   49.98    2.48
  -5   9  -8    0.10    0.20
  -5   8   6   51.39    2.21
  -5   8   5    1.50    0.43
   5  -8  -4    9.54    1.01
  -5   8   4   10.39    1.12
  -5   8   4   12.27    1.46
   5  -8  -4    9.78    0.94
   5  -8  -3    2.31    0.56
  -5   8   3    2.99    0.62
  -5   8   3    2.61    0.74
   5  -8  -3    2.74    0.53
   5  -8  -2    0.24    0.30
  -5   8   2    0.54    0.33
  -5   8   2    0.07    0.29
   5  -8  -2    0.18    0.24
   5  -8  -2    0.22    0.29
   5  -8  -1   78.36    3.47
  -5   8   1   65.61    4.08
  -5   8   1   84.49    4.47
   5  -8  -1   73.79    3.23
   5  -8  -1   69.33    2.87
   5  -8   0    5.75    0.94
  -5   8   0    4.44    1.19
  -5   8   0    5.59    1.28
   5  -8   0    6.23    0.94
   5  -8   0    4.54    0.72
  -5   8  -1   14.02    2.09
   5  -8   1   13.31    1.33
   5  -8   1   12.74    1.31
  -5   8  -2   51.64    4.05
  -5   8  -2   43.02    3.76
   5  -8   2   46.23    2.67
   5  -8   2   42.52    2.58
   5  -8   2   49.27    2.56
  -5   8  -2   53.49    3.87
   5  -8   2   45.28    2.51
  -5   8  -3  136.64    6.63
  -5   8  -3  136.87    6.68
   5  -8   3  127.62    4.76
   5  -8   3  120.92    4.72
   5  -8   3  122.95    4.79
   5  -8   3  123.97    4.52
   5  -8   4    0.43    0.31
   5  -8   4    0.05    0.28
  -5   8  -4    0.30    0.54
  -5   8  -4    0.51    0.53
   5  -8   4    0.54    0.37
   5  -8   4    0.22    0.29
   5  -8   5   15.04    1.45
   5  -8   5   15.00    1.27
  -5   8  -5   15.44    2.07
   5  -8   5   15.46    1.43
   5  -8   5   15.02    1.50
  -5   8  -5   15.05    1.78
   5  -8   6   17.76    1.55
   5  -8   6   18.12    1.50
   5  -8   6   18.15    1.54
   5  -8   6   19.56    1.34
  -5   8  -6   21.87    2.31
   5  -8   6   18.67    1.42
   5  -8   7   18.65    1.49
   5  -8   7   17.37    1.30
   5  -8   7   17.46    1.49
  -5   8  -7   21.24    1.84
   5  -8   8    0.37    0.28
   5  -8   8    0.08    0.22
  -5   8  -8    0.05    0.28
   5  -8   8    0.43    0.28
  -5   7   8   25.80    1.48
  -5   7   7    0.19    0.25
   5  -7  -6    8.28    0.84
  -5   7   6    6.61    1.04
   5  -7  -6    7.41    0.84
  -5   7   5   18.15    1.97
  -5   7   5   16.01    1.73
   5  -7  -5   15.41    1.29
   5  -7  -5   17.51    1.30
   5  -7  -4   20.06    1.56
  -5   7   4   20.66    2.00
  -5   7   4   22.29    2.38
   5  -7  -4   19.62    1.44
   5  -7  -3   75.57    3.43
  -5   7   3   84.40    4.13
  -5   7   3   83.58    4.90
  -5   7   3   76.53    3.89
   5  -7  -3   68.78    3.13
   5  -7  -3   82.24    3.27
   5  -7  -2   85.24    3.77
  -5   7   2   87.76    4.12
  -5   7   2   85.53    4.59
   5  -7  -2   80.55    3.50
   5  -7  -2   85.67    3.46
   5  -7  -1    0.49    0.45
  -5   7   1    1.16    0.75
  -5   7   1    0.31    0.35
  -5   7   1    1.23    0.70
   5  -7  -1    0.80    0.46
   5  -7  -1    0.44    0.34
  -5   7   0   18.42    2.50
  -5   7   0   14.77    2.33
   5  -7   0   18.26    1.76
   5  -7   0   15.69    1.53
   5  -7   0   17.60    1.57
   5  -7   0   15.55    1.48
  -5   7  -1   10.05    1.98
   5  -7   1   10.14    1.27
   5  -7   1    9.85    1.21
   5  -7   1   11.40    1.28
  -5   7  -1    8.99    1.90
   5  -7   2   23.77    1.94
   5  -7   2   21.49    1.76
   5  -7   2   21.71    1.76
  -5   7  -2   18.94    2.74
  -5   7  -3   27.64    3.12
  -5   7  -3   31.46    3.31
   5  -7   3   29.41    2.15
   5  -7   3   26.25    2.03
  -5   7  -3   32.99    3.35
   5  -7   3   26.47    1.92
  -5   7  -4    1.64    0.88
   5  -7   4    3.26    0.69
   5  -7   4    3.08    0.68
  -5   7  -4    2.30    0.89
  -5   7  -4    3.16    1.08
   5  -7   4    2.16    0.63
   5  -7   4    2.87    0.71
   5  -7   4    2.35    0.65
   5  -7   5    3.09    0.70
  -5   7  -5    3.93    1.13
  -5   7  -5    4.03    1.01
   5  -7   5    3.98    0.82
   5  -7   5    3.87    0.77
  -5   7  -5    4.36    1.26
   5  -7   5    4.20    0.74
   5  -7   5    3.18    0.67
   5  -7   6   45.63    2.29
  -5   7  -6   45.01    3.57
   5  -7   6   49.36    2.41
   5  -7   6   43.79    2.52
  -5   7  -6   35.98    2.62
   5  -7   6   42.69    2.52
   5  -7   6   46.72    2.52
  -5   7  -6   45.47    3.26
   5  -7   7    5.08    0.71
   5  -7   7    5.00    0.73
   5  -7   7    5.43    0.87
   5  -7   7    6.00    0.92
  -5   7  -7    4.55    0.97
   5  -7   8    7.39    0.81
  -5   7  -8    8.63    1.41
   5  -7   8    6.08    0.86
   5  -7   8    6.49    0.84
  -5   7  -8    6.50    1.07
   5  -7   8    7.34    0.95
   5  -7   9   51.50    2.27
   5  -7   9   50.56    2.43
  -5   7  -9   57.06    3.20
  -5   7 -10   15.32    1.20
  -5   6   8    0.59    0.34
  -5   6   7    2.26    0.70
   5  -6  -7    2.29    0.49
   5  -6  -7    2.10    0.47
   5  -6  -7    2.00    0.48
   5  -6  -6  159.53    5.27
   5  -6  -6  202.19    5.71
  -5   6   6  198.85    7.57
   5  -6  -6  196.16    5.60
  -5   6   6  240.93    7.97
   5  -6  -5    5.58    0.83
  -5   6   5    7.17    1.41
   5  -6  -5    6.95    0.90
   5  -6  -4   35.11    2.19
  -5   6   4   40.00    3.29
  -5   6   4   45.24    3.67
  -5   6   4   36.46    2.52
   5  -6  -4   33.37    1.98
   5  -6  -4   40.42    2.23
   5  -6  -3   24.24    1.89
  -5   6   3   25.26    2.54
  -5   6   3   25.01    2.83
  -5   6   3   27.77    2.43
   5  -6  -3   24.14    1.77
   5  -6  -2  101.94    4.33
  -5   6   2   93.00    5.58
  -5   6   2  107.42    5.47
   5  -6  -2   97.21    3.97
  -5   6   2   99.76    4.99
  -5   6   1    1.10    0.76
   5  -6  -1    0.73    0.43
   5  -6  -1    1.06    0.45
  -5   6   1    1.26    0.57
  -5   6   0    2.07    0.98
   5  -6   0    0.74    0.43
   5  -6   0    1.40    0.57
   5  -6   0    0.86    0.47
  -5   6   0    0.55    0.39
  -5   6  -1  405.75   14.05
   5  -6   1  377.16   10.42
   5  -6   1  375.78   10.19
  -5   6  -1  410.96   14.32
   5  -6   2   65.14    3.28
   5  -6   2   59.48    3.09
   5  -6   2   61.01    3.05
  -5   6  -2   62.64    4.68
  -5   6  -2   72.67    5.28
   5  -6   3  208.17    6.60
  -5   6  -3  225.62    9.67
   5  -6   3  208.77    6.80
   5  -6   3  215.36    6.89
  -5   6  -3  216.48    9.33
   5  -6   4   38.05    2.40
  -5   6  -4   40.20    3.83
   5  -6   4   39.26    2.47
   5  -6   4   41.58    2.54
  -5   6  -4   37.80    3.37
  -5   6  -5  135.31    6.51
  -5   6  -5  127.16    5.99
  -5   6  -5  142.59    7.19
   5  -6   5  149.80    5.22
   5  -6   5  145.48    5.20
   5  -6   5  146.15    5.21
   5  -6   5  137.38    4.88
  -5   6  -6    0.13    0.52
  -5   6  -6    0.14    0.28
   5  -6   6    0.21    0.32
   5  -6   6    0.05    0.28
   5  -6   6    0.21    0.31
   5  -6   6    0.05    0.30
  -5   6  -6    0.20    0.42
  -5   6  -7   17.00    1.95
  -5   6  -7   15.52    2.19
   5  -6   7   14.42    1.26
   5  -6   7   15.40    1.45
   5  -6   7   15.95    1.45
   5  -6   7   15.06    1.38
  -5   6  -8   27.86    2.24
  -5   6  -8   24.84    2.53
   5  -6   8   25.50    1.57
   5  -6   8   24.14    1.74
   5  -6   8   24.69    1.66
   5  -6   8   26.49    1.80
   5  -6   8   22.11    1.64
   5  -6   9    4.67    0.74
   5  -6   9    4.95    0.71
  -5   6  -9    4.54    0.96
   5  -6   9    5.09    0.64
  -5   6 -10   23.34    1.61
  -5   6 -11   42.65    1.88
  -5   5  10    1.41    0.34
   5  -5  -9   13.60    1.05
  -5   5   9   13.95    1.33
   5  -5  -8   43.07    2.06
   5  -5  -8   45.94    2.17
   5  -5  -8   46.12    2.17
  -5   5   7    0.69    0.59
   5  -5  -7    0.70    0.33
  -5   5   7    0.18    0.29
   5  -5  -7    0.16    0.25
  -5   5   6   22.45    2.64
   5  -5  -6   26.08    1.68
  -5   5   6   27.96    2.23
  -5   5   5   40.40    3.43
  -5   5   5   34.02    3.37
   5  -5  -5   33.40    2.03
   5  -5  -5   35.91    2.11
  -5   5   5   43.78    2.89
   5  -5  -4   43.53    2.48
  -5   5   4   47.34    3.90
  -5   5   4   56.77    3.40
  -5   5   4   52.24    4.07
  -5   5   4   47.14    3.03
  -5   5   3  285.20   10.58
  -5   5   3  265.54    9.09
  -5   5   3  274.01   10.09
   5  -5  -3  255.61    7.80
   5  -5  -3  253.22    7.39
  -5   5   3  293.49    9.09
  -5   5   2   14.52    1.98
  -5   5   2   13.18    2.06
  -5   5   2   16.28    2.12
  -5   5   1   27.10    2.46
  -5   5   1   20.88    2.39
  -5   5   1   29.91    2.98
   5  -5  -1   28.86    1.93
  -5   5   0    0.23    0.32
  -5   5   0    0.77    0.45
  -5   5   0    1.81    0.85
   5  -5   0    0.50    0.37
   5  -5   0    2.10    0.59
   5  -5   1  129.77    4.80
  -5   5  -1  119.85    6.63
  -5   5  -1  132.20    5.11
  -5   5  -2   59.86    3.91
   5  -5   2   65.75    3.21
   5  -5   2   64.00    3.29
  -5   5  -3  183.94    8.22
  -5   5  -3  178.35    7.58
   5  -5   3  188.84    6.11
   5  -5   3  194.04    6.33
  -5   5  -3  201.65    8.77
  -5   5  -4    2.13    0.94
  -5   5  -4    3.51    1.03
  -5   5  -4    2.82    0.96
   5  -5   4    2.93    0.67
  -5   5  -4    3.18    1.05
   5  -5   4    2.72    0.69
   5  -5   4    2.68    0.64
  -5   5  -5   27.68    2.53
  -5   5  -5   39.19    3.68
   5  -5   5   35.12    2.14
   5  -5   5   35.19    2.24
   5  -5   5   33.57    2.23
  -5   5  -5   35.01    3.08
  -5   5  -6   51.96    3.63
  -5   5  -6   54.00    4.34
   5  -5   6   50.98    2.65
   5  -5   6   53.27    2.77
   5  -5   6   57.24    2.90
  -5   5  -6   49.05    2.54
  -5   5  -7  115.72    5.31
  -5   5  -7  104.29    5.93
   5  -5   7  105.64    4.04
   5  -5   7  108.68    4.16
   5  -5   7  122.67    4.36
  -5   5  -8  102.51    4.66
  -5   5  -8   96.95    5.26
   5  -5   8  106.12    3.93
   5  -5   8  104.53    3.94
   5  -5   8  109.28    4.00
   5  -5   9    1.41    0.44
   5  -5   9    1.70    0.48
   5  -5   9    2.09    0.51
   5  -5   9    1.70    0.45
  -5   5  -9    1.66    0.59
   5  -5  10   71.34    2.87
   5  -5  10   75.07    2.85
  -5   5 -10   73.99    3.15
  -5   5 -10   64.04    3.06
  -5   5 -11    4.19    0.60
  -5   5 -11    4.85    0.64
  -5   5 -11    5.26    0.65
  -5   4  10    2.97    0.56
  -5   4  10    2.82    0.56
  -5   4   9    1.84    0.59
   5  -4  -9    2.02    0.42
   5  -4  -9    1.86    0.44
   5  -4  -9    2.55    0.50
   5  -4  -9    2.09    0.49
  -5   4   9    2.16    0.60
  -5   4   8   23.66    2.27
   5  -4  -8   21.19    1.43
   5  -4  -8   26.83    1.69
   5  -4  -8   25.57    1.64
  -5   4   8   28.09    2.18
   5  -4  -7   43.41    2.29
   5  -4  -7   40.77    2.10
  -5   4   7   48.60    3.06
   5  -4  -6   20.76    1.51
  -5   4   6   24.98    2.21
  -5   4   5   39.12    3.62
  -5   4   5   42.67    2.97
   5  -4  -4   11.85    1.22
  -5   4   4    8.53    1.35
  -5   4   4    6.00    1.15
  -5   4   4    8.65    1.73
  -5   4   3   48.66    3.33
   5  -4  -3   38.90    2.23
  -5   4   3   44.30    3.66
  -5   4   3   49.20    3.24
  -5   4   2  183.48    7.67
  -5   4   2  188.13    7.58
  -5   4   1  201.59    7.54
  -5   4   1  204.16    8.11
  -5   4   0   22.85    2.18
  -5   4   0   18.20    1.79
  -5   4   0   27.26    2.80
  -5   4  -1    4.80    0.98
  -5   4  -1    4.29    0.91
   5  -4   2   14.10    1.38
  -5   4  -2   15.99    1.63
  -5   4  -2   16.92    2.27
  -5   4  -2   15.32    1.82
   5  -4   3   98.13    3.99
  -5   4  -3   92.55    4.90
  -5   4  -3   99.10    5.42
  -5   4  -4   94.32    5.01
  -5   4  -4   99.75    5.17
   5  -4   4  110.02    4.00
  -5   4  -5    0.72    0.50
   5  -4   5    1.54    0.51
  -5   4  -5    0.69    0.52
  -5   4  -5    1.34    0.63
  -5   4  -5    1.20    0.47
  -5   4  -6   32.13    3.22
   5  -4   6   40.25    2.38
  -5   4  -6   37.42    2.99
   5  -4   6   35.66    2.18
  -5   4  -6   28.54    2.70
   5  -4   7  113.93    4.19
  -5   4  -7  100.22    4.92
   5  -4   7  104.01    3.96
   5  -4   8   45.39    2.42
  -5   4  -8   41.56    2.85
   5  -4   8   41.90    2.30
   5  -4   9   38.80    2.14
   5  -4   9   39.40    2.16
   5  -4   9   43.09    2.20
   5  -4  10   50.29    2.32
  -5   4 -10   52.22    2.63
   5  -4  10   48.51    2.21
  -5   4 -10   45.74    2.44
  -5   4 -10   44.36    2.57
  -5   4 -11    0.07    0.17
  -5   4 -11    0.11    0.15
  -5   3  11    0.34    0.23
   5  -3 -10   29.61    1.66
   5  -3 -10   31.74    1.73
   5  -3 -10   32.28    1.79
  -5   3  10   35.82    2.27
   5  -3  -9    6.92    0.84
  -5   3   9    9.46    1.31
   5  -3  -9    8.62    0.94
  -5   3   9    7.69    1.15
  -5   3   8   18.33    2.00
   5  -3  -8   16.35    1.21
   5  -3  -8   18.18    1.41
   5  -3  -8   20.55    1.53
  -5   3   8   17.32    1.88
  -5   3   7    7.13    1.30
   5  -3  -7    7.70    0.87
  -5   3   7    6.40    1.33
   5  -3  -6    9.13    0.99
  -5   3   6    9.56    1.47
  -5   3   5   56.85    3.60
  -5   3   5   41.53    2.42
  -5   3   4  639.25   18.06
  -5   3   4  653.48   16.24
  -5   3   3  121.48    6.12
  -5   3   3  136.94    5.56
  -5   3   3  123.98    5.44
  -5   3   3  119.15    5.46
  -5   3   2   12.12    1.83
  -5   3   2   11.47    1.38
  -5   3   2   13.84    1.72
  -5   3   2   13.64    1.70
  -5   3   2   10.88    1.65
  -5   3   1    7.99    1.41
  -5   3   1    7.02    1.11
  -5   3   1    9.24    1.42
  -5   3   1    7.40    1.40
  -5   3   1    9.10    1.37
  -5   3   0    0.37    0.37
  -5   3   0    0.08    0.28
  -5   3   0   -0.10    0.35
  -5   3  -1  152.02    5.83
  -5   3  -1  125.85    5.56
  -5   3  -2   53.55    3.10
  -5   3  -2   39.50    3.00
  -5   3  -2   45.13    2.97
  -5   3  -2   47.38    3.54
  -5   3  -2   37.30    2.51
  -5   3  -3    1.66    0.66
  -5   3  -3    1.56    0.75
  -5   3  -3    1.76    0.63
  -5   3  -3    2.11    0.64
  -5   3  -4    0.98    0.57
  -5   3  -4    1.02    0.54
  -5   3  -4    1.37    0.52
  -5   3  -5  132.47    5.90
  -5   3  -5  136.50    4.76
  -5   3  -6   31.61    2.65
  -5   3  -6   26.63    2.59
  -5   3  -7    4.59    1.00
  -5   3  -7    4.23    1.05
   5  -3   7    3.53    0.70
  -5   3  -8   50.12    3.13
   5  -3   8   56.22    2.72
  -5   3  -8   50.50    3.38
   5  -3   9    3.22    0.63
  -5   3  -9    2.70    0.68
   5  -3   9    3.00    0.57
  -5   3  -9    2.34    0.70
   5  -3  10    0.63    0.30
   5  -3  10    1.72    0.44
  -5   3 -10    1.93    0.47
  -5   3 -10    1.35    0.45
  -5   3 -11   19.89    1.29
  -5   2  12   69.77    2.63
  -5   2  11    0.61    0.35
   5  -2 -11    0.17    0.20
   5  -2 -10    3.82    0.61
   5  -2 -10    4.24    0.65
   5  -2 -10    4.25    0.69
   5  -2  -9    3.68    0.63
  -5   2   9    4.09    0.98
   5  -2  -9    3.84    0.65
  -5   2   9    2.99    0.71
  -5   2   8   25.69    2.45
   5  -2  -8   23.62    1.63
  -5   2   8   22.83    2.18
   5  -2  -7  194.72    5.50
  -5   2   7  194.29    7.63
   5  -2  -6   27.03    1.66
  -5   2   6   22.55    2.46
  -5   2   6   23.03    1.65
  -5   2   5  360.61   10.97
  -5   2   5  388.39   10.38
  -5   2   4  298.96    9.68
  -5   2   4  324.26    9.52
  -5   2   3    0.63    0.60
  -5   2   3    0.85    0.53
  -5   2   3    0.48    0.42
  -5   2   3    1.49    0.53
  -5   2   2   43.66    3.33
  -5   2   2   46.52    2.98
  -5   2   2   49.05    3.20
  -5   2   2   36.64    2.54
  -5   2   2   56.83    3.60
  -5   2   2   49.93    3.22
  -5   2   1  321.11   10.35
  -5   2   1  331.88   10.07
  -5   2   1  342.25   10.47
  -5   2   1  307.08   10.37
  -5   2   1  327.89    9.91
  -5   2   0    0.39    0.39
  -5   2   0   -0.08    0.34
  -5   2   0    0.08    0.30
  -5   2   0    0.14    0.32
  -5   2  -1   72.28    3.90
  -5   2  -1   62.89    3.75
  -5   2  -1   59.86    3.38
  -5   2  -1   77.69    4.14
  -5   2  -1   57.68    3.15
  -5   2  -2    2.64    0.86
  -5   2  -2    1.95    0.61
  -5   2  -2    1.71    0.60
  -5   2  -2    1.49    0.62
  -5   2  -3    0.79    0.51
  -5   2  -3    0.45    0.39
  -5   2  -3    0.76    0.47
  -5   2  -4   90.70    4.87
  -5   2  -4   85.78    4.54
  -5   2  -4   91.69    3.91
  -5   2  -4   92.72    4.60
  -5   2  -5   91.79    4.89
  -5   2  -5   87.18    4.67
  -5   2  -5   75.71    4.17
  -5   2  -5   93.37    4.64
  -5   2  -6   99.15    4.95
  -5   2  -6   86.72    4.72
   5  -2   6   86.77    3.49
  -5   2  -6   93.23    4.63
  -5   2  -7    3.88    0.95
  -5   2  -7    3.11    0.88
   5  -2   7    3.75    0.69
  -5   2  -7    1.92    0.71
  -5   2  -7    4.19    0.95
  -5   2  -8   17.08    1.75
  -5   2  -8   14.40    1.59
   5  -2   8   16.56    1.43
   5  -2   8   14.89    1.33
  -5   2  -8   13.07    1.63
  -5   2  -9    5.57    0.85
   5  -2   9    5.49    0.79
   5  -2   9    4.77    0.73
  -5   2  -9    5.61    0.96
  -5   2 -10   38.58    1.78
  -5   2 -10   40.01    2.19
  -5   1  12   19.41    1.44
   5  -1 -11   21.33    1.40
   5  -1 -11   17.27    1.31
  -5   1  11   20.47    1.82
   5  -1 -10    0.23    0.22
   5  -1 -10    0.43    0.31
   5  -1  -9   62.40    2.73
   5  -1  -9   57.95    2.56
  -5   1   9   58.24    3.06
   5  -1  -8    7.89    0.93
   5  -1  -8    9.31    1.06
  -5   1   8    8.27    1.53
  -5   1   8    8.05    1.24
  -5   1   7   30.53    2.30
  -5   1   7   29.74    2.86
  -5   1   7   30.12    2.56
  -5   1   6  149.59    5.15
  -5   1   6  166.58    7.16
  -5   1   6  156.30    6.66
  -5   1   5   14.87    1.78
  -5   1   5   13.88    1.42
  -5   1   5   19.05    2.16
  -5   1   5   16.49    2.06
  -5   1   4    3.02    0.85
  -5   1   4    3.29    0.83
  -5   1   4    2.02    0.60
  -5   1   4    2.81    0.83
  -5   1   3   10.15    1.46
  -5   1   3   14.58    1.81
  -5   1   3   11.85    1.62
  -5   1   2    2.53    0.78
  -5   1   2    1.40    0.61
  -5   1   2    1.54    0.58
  -5   1   2    2.00    0.68
  -5   1   2    1.71    0.70
  -5   1   1   83.81    4.35
  -5   1   1   74.56    3.78
  -5   1   1   84.74    3.68
  -5   1   1   90.98    4.62
  -5   1   1   99.57    4.49
  -5   1   1   99.04    4.93
  -5   1   1   86.48    4.38
  -5   1   0   88.73    4.16
  -5   1   0   86.68    3.93
  -5   1   0   98.24    4.72
  -5   1  -1  145.25    5.69
  -5   1  -1  155.60    5.86
  -5   1  -2   63.59    3.65
  -5   1  -2   60.64    3.25
  -5   1  -2   61.39    3.52
  -5   1  -2   52.11    3.24
  -5   1  -2   56.39    3.19
  -5   1  -2   61.59    3.77
  -5   1  -3   69.25    3.90
  -5   1  -3   65.37    3.57
  -5   1  -3   78.24    3.60
  -5   1  -3   80.65    3.97
  -5   1  -3   69.70    3.75
  -5   1  -3   81.69    4.40
  -5   1  -4    0.59    0.46
  -5   1  -4    1.22    0.49
  -5   1  -4    0.70    0.45
  -5   1  -4    0.70    0.48
  -5   1  -4    0.80    0.58
  -5   1  -5  159.42    6.52
  -5   1  -5  151.19    6.34
   5  -1   5  166.75    5.42
  -5   1  -5  169.70    6.51
  -5   1  -5  171.70    6.74
  -5   1  -6   19.51    2.04
  -5   1  -6   17.01    1.97
   5  -1   6   19.53    1.58
  -5   1  -6   21.58    2.09
  -5   1  -6   20.61    2.06
  -5   1  -7   34.11    2.73
   5  -1   7   39.80    2.29
  -5   1  -7   43.15    2.86
  -5   1  -7   43.58    2.79
   5  -1   8   22.75    1.64
  -5   1  -8   22.34    1.97
  -5   1  -8   20.37    1.96
  -5   1  -8   23.76    1.83
  -5   1  -9    1.18    0.43
  -5   1  -9    0.89    0.41
   5  -1   9    0.93    0.34
  -5   1 -10    6.53    0.80
  -5   1 -10    6.37    0.75
   5   0 -11    2.82    0.55
   5   0 -11    2.92    0.55
  -5   0  11    2.76    0.74
   5   0 -10    5.06    0.77
  -5   0  10    4.16    1.03
   5   0  -9   21.33    1.48
  -5   0   9   18.78    2.31
  -5   0   8   80.47    3.85
   5   0  -8   79.50    3.14
  -5   0   8   70.82    4.68
  -5   0   8   83.99    4.55
  -5   0   8   67.78    3.56
  -5   0   7  185.06    6.83
  -5   0   7  172.02    7.68
  -5   0   7  175.40    6.62
  -5   0   6   10.65    1.54
  -5   0   6    8.52    1.09
  -5   0   6   11.42    1.51
  -5   0   6    8.40    1.54
  -5   0   6   11.71    1.80
  -5   0   6   10.45    1.50
  -5   0   5    0.08    0.28
  -5   0   5    0.53    0.45
  -5   0   5    1.33    0.50
  -5   0   5    0.10    0.33
  -5   0   5    1.34    0.69
  -5   0   5    0.36    0.35
  -5   0   4    7.81    1.36
  -5   0   4    6.37    1.00
  -5   0   4    6.28    1.20
  -5   0   4    7.57    1.30
  -5   0   4    7.97    1.49
  -5   0   4    8.13    1.39
  -5   0   3   16.12    1.92
  -5   0   3   15.45    1.87
  -5   0   3   14.50    1.52
  -5   0   3   15.89    1.79
  -5   0   3   21.72    2.43
  -5   0   3   16.74    2.03
  -5   0   2   24.47    2.34
  -5   0   2   24.82    2.33
  -5   0   2   25.24    1.93
  -5   0   2   26.33    2.18
  -5   0   2   30.46    2.56
  -5   0   1    5.00    0.95
  -5   0   1    5.09    0.90
  -5   0   1    6.67    1.28
  -5   0   1    8.43    1.38
  -5   0   0   21.21    2.13
  -5   0   0   21.73    2.10
  -5   0   0   24.06    2.00
  -5   0   0   21.16    1.88
  -5   0  -1   14.23    1.68
  -5   0  -1   13.98    1.47
  -5   0  -1   15.97    1.62
  -5   0  -1   15.24    1.65
  -5   0  -1   14.04    1.70
  -5   0  -1   17.61    1.98
  -5   0  -2   11.30    1.47
  -5   0  -2   14.06    1.50
  -5   0  -2    9.98    1.31
  -5   0  -2   10.99    1.47
  -5   0  -2   12.22    1.53
  -5   0  -2   13.84    1.74
  -5   0  -3   56.13    2.94
  -5   0  -3   45.20    2.99
  -5   0  -3   50.59    3.02
  -5   0  -3   45.25    3.07
  -5   0  -3   51.60    3.37
  -5   0  -4  185.93    7.08
  -5   0  -4  201.61    6.67
  -5   0  -4  187.28    7.17
  -5   0  -4  201.04    7.38
  -5   0  -5   49.61    3.27
  -5   0  -5   56.76    3.37
   5   0   6    2.66    0.63
  -5   0  -6    3.33    0.84
  -5   0  -6    3.03    0.78
   5   0   7    5.98    0.87
  -5   0  -7    5.66    1.05
  -5   0  -7    5.48    0.99
  -5   0  -7    5.45    0.89
  -5   0  -8    7.72    1.09
  -5   0  -8    9.16    1.14
   5   0   8    9.56    1.02
  -5   0  -9   49.80    2.49
  -5   0  -9   52.07    2.38
  -5  -1  12    9.07    1.03
   5   1 -11    5.21    0.73
  -5  -1  11    3.63    0.84
   5   1 -10   54.84    2.53
  -5  -1  10   47.02    3.42
   5   1  -9   93.92    3.50
  -5  -1   9   96.38    4.84
  -5  -1   8   26.39    2.73
  -5  -1   8   21.83    2.09
  -5  -1   7  130.61    6.56
  -5  -1   7  107.39    4.73
  -5  -1   7  104.17    5.66
  -5  -1   7  108.36    5.30
  -5  -1   7  136.29    5.19
  -5  -1   6    3.17    1.08
  -5  -1   6    3.85    0.89
  -5  -1   6    3.24    0.94
  -5  -1   6    3.47    0.89
  -5  -1   6    3.30    0.74
  -5  -1   5   24.24    2.79
  -5  -1   5   22.20    2.16
  -5  -1   5   17.78    2.01
  -5  -1   5   22.61    2.23
  -5  -1   5   22.63    1.88
  -5  -1   4   12.27    1.94
  -5  -1   4   12.07    1.68
  -5  -1   4   12.13    1.53
  -5  -1   4   12.61    1.73
  -5  -1   4   10.94    1.66
  -5  -1   4   11.97    1.42
  -5  -1   4   13.31    1.41
  -5  -1   3   36.25    3.28
  -5  -1   3   34.62    2.91
  -5  -1   3   28.05    2.63
  -5  -1   3   37.25    2.46
  -5  -1   3   38.72    2.43
  -5  -1   2    9.15    1.50
  -5  -1   2   11.37    1.37
  -5  -1   2   10.85    1.30
  -5  -1   1    4.74    0.91
  -5  -1   1    5.16    1.09
  -5  -1   1    6.40    1.07
  -5  -1   0    0.43    0.43
  -5  -1   0    0.77    0.38
  -5  -1   0    0.95    0.54
  -5  -1   0    1.09    0.52
  -5  -1   0    0.48    0.38
  -5  -1   0    0.73    0.48
  -5  -1  -1  126.11    5.48
  -5  -1  -1   95.51    4.78
  -5  -1  -1  109.42    4.91
  -5  -1  -1  108.11    4.59
  -5  -1  -1  129.94    4.97
  -5  -1  -1  103.24    4.66
  -5  -1  -2   27.47    2.41
  -5  -1  -2   23.49    2.06
  -5  -1  -2   22.54    2.03
  -5  -1  -2   21.68    2.04
  -5  -1  -2   21.10    1.98
  -5  -1  -3  152.12    5.91
  -5  -1  -3  147.10    5.85
  -5  -1  -3  136.38    5.38
  -5  -1  -4    1.94    0.68
  -5  -1  -4    3.22    0.83
   5   1   5    0.94    0.38
  -5  -1  -5    0.85    0.45
  -5  -1  -5    1.05    0.51
  -5  -1  -5    0.51    0.40
  -5  -1  -6   29.79    2.31
  -5  -1  -6   29.84    2.21
   5   1   6   31.64    1.97
   5   1   7   10.43    1.04
   5   1   7   10.77    1.09
  -5  -1  -7   11.97    1.35
  -5  -1  -7   12.17    1.29
  -5  -1  -8   36.81    2.15
  -5  -1  -8   41.38    2.11
  -5  -1  -9   12.06    0.98
   5   2 -11  129.16    4.24
  -5  -2  11  153.30    4.90
   5   2 -10    1.17    0.40
  -5  -2  10    2.17    0.53
  -5  -2  10    1.29    0.56
  -5  -2   9   14.60    1.60
  -5  -2   9   16.46    2.13
  -5  -2   8   14.48    2.15
  -5  -2   7  169.02    6.10
  -5  -2   7  160.59    7.97
  -5  -2   6    2.12    0.71
  -5  -2   6    2.69    1.05
  -5  -2   5   26.99    2.52
  -5  -2   5   26.30    3.04
  -5  -2   4   83.16    3.97
  -5  -2   4   84.35    3.86
  -5  -2   3  138.61    6.51
  -5  -2   3  134.61    6.84
  -5  -2   2  254.71    9.61
  -5  -2   2  228.34    9.01
  -5  -2   2  340.74    9.31
  -5  -2   2  275.67    8.14
  -5  -2   2  313.94    8.88
  -5  -2   1  117.28    5.88
  -5  -2   1  125.20    5.69
  -5  -2   1  133.33    5.09
  -5  -2   0   94.83    5.03
  -5  -2   0  101.89    4.84
  -5  -2   0  106.39    4.52
  -5  -2  -1   86.56    4.48
  -5  -2  -1   97.91    4.33
  -5  -2  -1   93.00    4.27
  -5  -2  -1  103.52    4.52
  -5  -2  -2    1.29    0.55
  -5  -2  -2    1.18    0.48
  -5  -2  -3    1.04    0.50
  -5  -2  -4  134.41    5.33
  -5  -2  -4  139.66    5.30
  -5  -2  -5   14.88    1.55
  -5  -2  -5   15.11    1.52
   5   2   5   14.91    1.33
  -5  -2  -6   14.29    1.45
  -5  -2  -6   15.65    1.39
   5   2   6   12.70    1.15
  -5  -2  -7    5.44    0.81
  -5  -2  -7    5.53    0.76
  -5  -3  11    0.69    0.36
  -5  -3  10   30.99    2.51
  -5  -3  10   24.15    1.78
  -5  -3   9   78.59    4.70
   5   3  -9   61.12    2.59
  -5  -3   8    5.49    0.84
  -5  -3   8    4.58    1.33
  -5  -3   7   36.59    2.51
  -5  -3   7   37.35    3.68
  -5  -3   6    0.99    0.57
  -5  -3   6    0.86    0.65
  -5  -3   5    3.13    0.94
  -5  -3   4  261.67    9.74
  -5  -3   4  273.80   10.39
  -5  -3   3   10.69    1.80
  -5  -3   3   12.33    1.78
  -5  -3   3   12.36    1.48
  -5  -3   3    9.15    1.64
  -5  -3   2    7.48    1.31
  -5  -3   2    7.46    1.08
  -5  -3   2    8.85    1.28
  -5  -3   1   11.44    1.76
  -5  -3   1   10.59    1.45
  -5  -3   1   14.78    1.53
  -5  -3   1   13.63    1.53
  -5  -3   0   70.54    4.24
  -5  -3   0   74.20    3.74
  -5  -3   0   95.52    4.19
  -5  -3   0   90.40    3.98
  -5  -3  -1    2.76    0.70
  -5  -3  -1    2.21    0.72
  -5  -3  -2    2.89    0.73
  -5  -3  -2    2.01    0.60
  -5  -3  -2    2.64    0.70
  -5  -3  -3   59.40    3.12
  -5  -3  -3   60.41    3.10
   5   3   3   53.26    2.57
  -5  -3  -4    1.04    0.44
   5   3   4    0.64    0.30
  -5  -3  -4    0.44    0.36
  -5  -3  -5   62.82    2.96
  -5  -3  -5   69.26    2.97
  -5  -3  -6   39.32    1.96
  -5  -4  11    0.59    0.31
  -5  -4  10   25.67    1.75
  -5  -4  10   27.77    2.22
  -5  -4   9    1.23    0.61
   5   4  -8    7.57    0.81
  -5  -4   8    8.50    0.98
  -5  -4   8    8.14    1.59
  -5  -4   7   22.57    1.88
  -5  -4   6   19.17    1.96
  -5  -4   6   14.22    2.14
  -5  -4   5    2.51    0.86
  -5  -4   5    1.40    0.75
  -5  -4   4   56.98    4.05
  -5  -4   4   62.21    4.13
  -5  -4   3    0.92    0.60
  -5  -4   3    1.30    0.60
  -5  -4   3    0.54    0.35
  -5  -4   2  125.59    4.65
  -5  -4   2  145.72    5.18
  -5  -4   1   23.72    2.47
  -5  -4   1   31.68    2.17
  -5  -4   0    5.87    1.12
  -5  -4   0    8.40    1.12
  -5  -4   0    7.63    1.11
  -5  -4  -1    7.47    1.12
  -5  -4  -1   10.85    1.29
  -5  -4  -1   10.59    1.24
  -5  -4  -2   11.31    1.24
   5   4   2    9.88    1.01
  -5  -4  -3    2.33    0.57
  -5  -4  -3    2.28    0.55
  -5  -4  -4    2.19    0.52
  -5  -4  -4    2.52    0.54
  -5  -5  10    6.37    0.74
  -5  -5  10    8.89    1.04
  -5  -5   9  103.78    4.06
  -5  -5   8    8.80    0.87
  -5  -5   8   10.18    1.44
  -5  -5   7   41.02    2.34
  -5  -5   7   40.01    3.01
  -5  -5   6   13.80    1.53
  -5  -5   6   11.61    1.63
  -5  -5   5  107.33    4.96
  -5  -5   5   99.73    4.77
  -5  -5   4    0.56    0.57
  -5  -5   4    3.30    0.80
  -5  -5   3    4.62    0.77
  -5  -5   2    2.08    0.76
  -5  -5   2    3.23    0.66
  -5  -5   1    0.23    0.33
  -5  -5   1    0.29    0.31
  -5  -5   0   93.15    4.24
  -5  -5   0  142.74    4.55
  -5  -5  -1   55.14    2.61
  -5  -5  -2   14.51    1.22
  -5  -6   7    8.00    0.81
  -5  -6   7    7.25    0.93
  -5  -6   6   15.36    1.32
  -5  -6   6   11.38    1.18
  -5  -6   5    4.58    0.83
  -5  -6   4   10.49    1.32
  -5  -6   2  125.48    4.69
  -5  -6   1   12.00    1.16
  -5  -6   1   17.43    1.25
  -5  -6   0   39.01    1.90
  -6   8   1   17.51    1.15
  -6   8   0   29.31    1.70
  -6   8  -2   10.59    1.06
  -6   8  -3    0.14    0.17
  -6   8  -4    6.09    0.65
  -6   7   3   50.76    2.21
  -6   7   2    8.40    0.91
  -6   7   2   14.35    1.09
   6  -7  -1   44.04    1.96
  -6   7   1   39.67    2.32
   6  -7   0   18.02    1.25
  -6   7   0   18.41    1.95
   6  -7   0   21.04    1.41
   6  -7   1   29.62    1.64
  -6   7  -1   25.23    2.02
   6  -7   1   27.13    1.70
   6  -7   2   26.69    1.53
   6  -7   2   25.56    1.49
  -6   7  -2   25.88    1.99
   6  -7   2   26.92    1.68
  -6   7  -3    4.32    0.93
   6  -7   3    3.51    0.54
   6  -7   3    4.11    0.59
  -6   7  -3    4.15    0.75
   6  -7   3    2.70    0.53
  -6   7  -4   11.44    1.07
  -6   7  -5    0.02    0.14
  -6   6   6    4.34    0.68
  -6   6   5    0.52    0.33
  -6   6   4   30.47    2.17
   6  -6  -3   45.94    2.06
  -6   6   3   67.02    3.23
   6  -6  -2   57.54    2.43
   6  -6  -2   54.03    2.21
   6  -6  -2   52.70    2.31
  -6   6   1   31.59    2.66
  -6   6   1   34.96    2.12
   6  -6  -1   26.79    1.70
   6  -6  -1   26.05    1.57
  -6   6   1   23.12    1.94
   6  -6   0    3.83    0.68
   6  -6   0    3.68    0.63
  -6   6   0    4.97    0.76
  -6   6   0    4.33    1.11
   6  -6   1   29.69    1.75
   6  -6   1   29.90    1.69
  -6   6  -1   29.09    2.35
   6  -6   2    7.84    0.88
   6  -6   2   10.03    0.96
   6  -6   2    8.73    0.91
  -6   6  -2    9.78    1.36
   6  -6   3    0.04    0.17
  -6   6  -3    0.06    0.30
   6  -6   3    0.17    0.27
   6  -6   3    0.03    0.19
   6  -6   4  111.35    3.72
   6  -6   4  112.62    3.69
   6  -6   4  117.28    3.72
   6  -6   5   15.02    1.11
  -6   6  -5   16.20    1.13
   6  -6   5   14.58    1.07
  -6   6  -6   14.87    1.37
  -6   6  -7    7.19    0.86
  -6   5   7    0.64    0.32
  -6   5   6  106.83    4.57
   6  -5  -5   85.41    2.90
  -6   5   5  121.27    5.10
   6  -5  -4   88.22    3.11
  -6   5   4  130.37    5.48
   6  -5  -3   36.17    1.87
  -6   5   3   33.52    2.07
  -6   5   2   43.22    2.62
   6  -5  -2   41.90    2.14
   6  -5  -1   21.24    1.54
  -6   5   1   20.06    1.89
   6  -5  -1   21.38    1.44
  -6   5   0   18.94    1.92
   6  -5   0   18.35    1.38
   6  -5   0   18.95    1.33
  -6   5  -1    8.42    1.28
   6  -5   1    7.47    0.85
   6  -5   2   13.26    1.14
  -6   5  -2   16.59    1.73
   6  -5   2   13.93    1.17
  -6   5  -3   10.06    1.34
   6  -5   3   10.84    1.01
  -6   5  -3   11.76    1.36
   6  -5   3    9.40    0.95
  -6   5  -4   64.16    3.61
   6  -5   4   70.93    2.79
   6  -5   4   71.59    2.81
   6  -5   4   72.71    2.79
  -6   5  -5   29.33    2.36
   6  -5   5   31.62    1.70
   6  -5   5   33.22    1.73
   6  -5   5   34.09    1.71
   6  -5   6  275.95    6.66
  -6   5  -6  268.65    8.28
   6  -5   6  262.46    6.70
  -6   5  -7    1.31    0.47
  -6   4   8   57.54    2.55
  -6   4   6   17.30    1.92
   6  -4  -6   15.87    1.08
   6  -4  -5    0.92    0.29
  -6   4   5    1.71    0.72
   6  -4  -4    3.49    0.57
  -6   4   4    4.24    0.69
  -6   4   3   44.99    3.32
  -6   4   3   29.44    2.03
  -6   4   2    0.36    0.35
  -6   4   2    1.10    0.50
   6  -4  -2    0.44    0.27
  -6   4   1    6.41    1.16
   6  -4  -1    3.18    0.58
  -6   4   0    4.41    0.91
   6  -4   0    2.95    0.54
  -6   4  -1  103.28    4.53
  -6   4  -1  103.10    4.65
  -6   4  -2  135.77    5.10
  -6   4  -2  120.79    5.12
  -6   4  -3   10.36    1.24
  -6   4  -3    8.71    1.38
   6  -4   3    7.63    0.84
   6  -4   3    7.92    0.88
  -6   4  -4    4.14    0.72
   6  -4   4    2.70    0.51
  -6   4  -4    2.77    0.85
   6  -4   5    5.78    0.66
  -6   4  -5    7.54    0.78
  -6   4  -5    8.05    1.31
   6  -4   5    5.27    0.68
   6  -4   6    2.55    0.46
   6  -4   6    2.52    0.48
  -6   4  -7   50.05    2.75
  -6   4  -8    0.29    0.24
  -6   3   8    0.13    0.21
  -6   3   7   16.39    1.67
   6  -3  -6   60.40    2.32
   6  -3  -5    3.94    0.54
  -6   3   5    5.05    1.18
  -6   3   4    7.29    1.43
  -6   3   4    7.18    0.93
  -6   3   3    2.21    0.80
  -6   3   3    1.63    0.53
  -6   3   2   31.00    2.72
  -6   3   2   23.91    1.94
  -6   3   1  473.82   13.46
  -6   3   0    0.70    0.42
  -6   3   0    0.54    0.42
  -6   3  -1    3.65    0.90
  -6   3  -1    2.80    0.75
  -6   3  -2   39.24    2.91
  -6   3  -2   42.43    2.65
  -6   3  -3    2.14    0.75
  -6   3  -3    2.28    0.63
   6  -3   4   17.61    1.21
  -6   3  -4   38.04    2.00
   6  -3   5   10.42    0.89
  -6   3  -5   14.10    1.72
   6  -3   6    7.80    0.78
  -6   3  -6   12.02    1.45
  -6   3  -7    0.46    0.33
  -6   2   8    6.80    0.90
  -6   2   8    5.83    0.97
  -6   2   7   12.62    1.44
  -6   2   7   14.17    1.62
  -6   2   6   20.06    2.03
  -6   2   6   25.30    2.25
  -6   2   5   19.20    1.44
  -6   2   4   71.06    3.18
  -6   2   4   82.44    4.64
  -6   2   3   38.99    2.41
  -6   2   3   47.18    3.44
  -6   2   2   40.56    3.16
  -6   2   1  201.80    6.72
  -6   2   0   27.70    2.17
  -6   2   0   37.40    2.71
  -6   2  -1   31.24    2.28
  -6   2  -1   34.69    2.68
  -6   2  -2  120.15    4.67
  -6   2  -2  122.75    5.48
  -6   2  -3    6.69    0.94
  -6   2  -4   94.46    3.42
  -6   2  -4   83.68    4.37
  -6   2  -5    1.71    0.64
   6  -2   5    0.78    0.26
  -6   2  -6    1.16    0.48
  -6   2  -7   45.79    2.23
  -6   2  -7   30.89    1.87
  -6   1   9   20.98    1.65
  -6   1   8    8.92    1.22
  -6   1   7    2.15    0.59
  -6   1   7    3.55    0.85
  -6   1   6   20.79    1.95
  -6   1   6   21.54    2.09
  -6   1   5   13.20    1.72
  -6   1   5   17.54    1.76
  -6   1   5   12.94    1.23
  -6   1   4   31.24    2.44
  -6   1   4   28.78    1.95
  -6   1   3   93.62    4.47
  -6   1   3   79.20    3.58
  -6   1   2   33.22    2.60
  -6   1   1    2.01    0.63
  -6   1   0   82.76    3.81
  -6   1  -1    0.70    0.40
  -6   1  -2   97.63    4.74
  -6   1  -2  104.48    4.15
  -6   1  -3   89.60    4.44
  -6   1  -3   90.01    3.61
  -6   1  -4   18.18    1.82
  -6   1  -4   14.96    1.56
  -6   1  -5   22.03    1.86
  -6   1  -5   14.07    1.46
  -6   1  -6    5.53    0.82
  -6   0   7    7.48    1.02
  -6   0   6   70.11    3.60
  -6   0   5   78.61    4.06
  -6   0   4    1.51    0.62
  -6   0   4   -0.15    0.24
  -6   0   3    0.57    0.44
  -6   0   3    1.04    0.50
  -6   0   2   44.04    3.04
  -6   0   2   45.95    2.70
  -6   0   2   46.57    3.21
  -6   0   1    2.66    0.71
  -6   0   0   13.88    1.51
  -6   0  -1   13.59    1.46
  -6   0  -2    6.76    1.01
  -6   0  -3    7.36    1.09
  -6   0  -4   16.77    1.56
  -6   0  -5    3.01    0.65
  -6   0  -6  134.09    4.26
  -6  -1   8    5.29    0.72
  -6  -1   7   26.55    1.99
  -6  -1   6    5.89    1.06
  -6  -1   5   16.01    1.82
  -6  -1   4   23.56    2.25
  -6  -1   4   25.98    2.31
  -6  -1   3    4.70    1.03
  -6  -1   3    2.47    0.76
  -6  -1   2    1.71    0.66
  -6  -1   2    2.20    0.70
  -6  -1   1   30.75    2.40
  -6  -1   0    9.02    1.30
  -6  -1  -1   13.54    1.39
  -6  -1  -2    1.52    0.48
  -6  -1  -3   19.43    1.59
  -6  -1  -4   11.53    1.16
  -6  -2   8  123.89    4.10
  -6  -2   7    8.19    1.10
  -6  -2   6   88.09    4.27
  -6  -2   5    0.79    0.46
  -6  -2   5    0.64    0.40
  -6  -2   4  120.92    5.28
  -6  -2   3    0.34    0.46
  -6  -2   3    0.08    0.23
  -6  -2   2    0.42    0.42
  -6  -2   1   71.87    3.56
  -6  -2   1   77.49    4.05
  -6  -2   0   39.73    2.26
  -6  -2   0   32.20    2.39
  -6  -2  -1  150.90    5.04
  -6  -2  -2   74.65    3.15
  -6  -2  -3   67.38    2.83
  -6  -3   7   39.49    2.24
  -6  -3   6   22.36    1.86
  -6  -3   5    2.07    0.59
  -6  -3   4   21.84    1.94
  -6  -3   4   28.25    2.21
  -6  -3   3    6.18    0.99
  -6  -3   3    6.28    1.12
  -6  -3   1  134.64    5.19
  -6  -4   3    6.09    0.89
   0   0   0    0.00    0.00
;
_shelx_hkl_checksum              57616
_publcif_funding_html
;
;
loop_
_space_group_symop_operation_xyz
'x, y, z'
'-x, -y, -z'
loop_
_atom_site_label
_atom_site_type_symbol
_atom_site_fract_x
_atom_site_fract_y
_atom_site_fract_z
_atom_site_U_iso_or_equiv
_atom_site_adp_type
_atom_site_occupancy
_atom_site_site_symmetry_order
_atom_site_calc_flag
_atom_site_refinement_flags_posn
_atom_site_refinement_flags_adp
_atom_site_refinement_flags_occupancy
_atom_site_disorder_assembly
_atom_site_disorder_group
S S 0.28220(12) 0.83368(7) 0.22808(5) 0.0291(2) Uani 1 1 d . . . . .
O1 O -0.0256(3) 1.14957(16) 0.34543(12) 0.0183(4) Uani 1 1 d . . . . .
F1 F -0.0883(4) 1.80988(19) 0.96860(14) 0.0493(5) Uani 1 1 d . . . . .
N1 N -0.0975(4) 0.9361(2) 0.36638(15) 0.0209(4) Uani 1 1 d . . . . .
C1 C 0.5021(5) 0.8846(3) 0.15649(19) 0.0266(6) Uani 1 1 d . . . . .
H1A H 0.5960 0.8259 0.1224 0.032 Uiso 1 1 calc R U . . .
O2 O -0.2635(3) 1.36066(17) 0.41921(13) 0.0224(4) Uani 1 1 d . . . . .
N2 N -0.2557(4) 1.0101(2) 0.42035(15) 0.0191(4) Uani 1 1 d . . . . .
F2 F -0.1410(4) 1.6322(2) 1.02559(12) 0.0483(5) Uani 1 1 d . . . . .
C2 C 0.5268(5) 1.0201(3) 0.1542(2) 0.0281(6) Uani 1 1 d . U . . .
H2B H 0.6419 1.0614 0.1184 0.034 Uiso 1 1 calc R U . . .
F3 F 0.1773(3) 1.6872(2) 0.95081(13) 0.0441(5) Uani 1 1 d . . . . .
N3 N -0.4860(4) 1.2299(2) 0.50996(15) 0.0182(4) Uani 1 1 d . . . . .
H3A H -0.5205 1.1489 0.5211 0.022 Uiso 1 1 calc R U . . .
C3 C 0.3658(4) 1.0955(3) 0.20997(17) 0.0206(5) Uani 1 1 d . U . . .
H3B H 0.3558 1.1873 0.2150 0.025 Uiso 1 1 calc R U . . .
C4 C 0.2187(4) 0.9962(2) 0.25787(17) 0.0206(5) Uani 1 1 d . U . . .
C5 C 0.0324(4) 1.0223(2) 0.32359(17) 0.0177(5) Uani 1 1 d . . . . .
C6 C -0.2076(4) 1.1327(2) 0.40528(17) 0.0166(5) Uani 1 1 d . . . . .
C7 C -0.3226(4) 1.2532(2) 0.44562(17) 0.0179(5) Uani 1 1 d . . . . .
C8 C -0.6078(4) 1.3382(2) 0.56198(17) 0.0182(5) Uani 1 1 d . . . . .
H8A H -0.7721 1.2936 0.5724 0.022 Uiso 1 1 calc R U . . .
H8B H -0.6237 1.3990 0.5198 0.022 Uiso 1 1 calc R U . . .
C9 C -0.4661(4) 1.4261(2) 0.66280(17) 0.0177(5) Uani 1 1 d . . . . .
C10 C -0.5745(4) 1.4310(2) 0.75181(18) 0.0211(5) Uani 1 1 d . . . . .
H10A H -0.7353 1.3801 0.7491 0.025 Uiso 1 1 calc R U . . .
C11 C -0.4446(5) 1.5108(3) 0.84430(19) 0.0230(5) Uani 1 1 d . . . . .
H11A H -0.5183 1.5138 0.9033 0.028 Uiso 1 1 calc R U . . .
C12 C -0.2032(4) 1.5865(2) 0.84851(18) 0.0206(5) Uani 1 1 d . . . . .
C13 C -0.0929(4) 1.5826(2) 0.75997(18) 0.0203(5) Uani 1 1 d . . . . .
H13A H 0.0682 1.6332 0.7627 0.024 Uiso 1 1 calc R U . . .
C14 C -0.2243(4) 1.5031(2) 0.66836(18) 0.0193(5) Uani 1 1 d . . . . .
H14A H -0.1507 1.5006 0.6094 0.023 Uiso 1 1 calc R U . . .
C15 C -0.0644(5) 1.6770(3) 0.94738(19) 0.0248(5) Uani 1 1 d . . . . .
loop_
_atom_site_aniso_label
_atom_site_aniso_U_11
_atom_site_aniso_U_22
_atom_site_aniso_U_33
_atom_site_aniso_U_23
_atom_site_aniso_U_13
_atom_site_aniso_U_12
S 0.0280(4) 0.0248(4) 0.0322(4) 0.0026(3) 0.0042(3) 0.0082(3)
O1 0.0187(8) 0.0137(8) 0.0226(8) 0.0059(6) 0.0030(6) 0.0030(6)
F1 0.0716(14) 0.0271(9) 0.0400(10) -0.0070(7) -0.0095(9) 0.0166(9)
N1 0.0209(10) 0.0161(10) 0.0255(10) 0.0058(8) 0.0033(8) 0.0042(8)
C1 0.0220(12) 0.0293(13) 0.0246(12) -0.0007(10) 0.0043(9) 0.0080(10)
O2 0.0265(9) 0.0147(8) 0.0285(9) 0.0102(7) 0.0088(7) 0.0040(7)
N2 0.0209(10) 0.0139(9) 0.0231(10) 0.0061(7) 0.0037(7) 0.0043(7)
F2 0.0552(12) 0.0558(12) 0.0225(8) 0.0127(8) 0.0023(8) -0.0120(9)
C2 0.0211(12) 0.0358(15) 0.0283(13) 0.0089(11) 0.0068(9) 0.0078(10)
F3 0.0266(9) 0.0618(12) 0.0306(9) -0.0071(8) -0.0007(7) 0.0090(8)
N3 0.0214(10) 0.0112(9) 0.0229(10) 0.0065(7) 0.0051(7) 0.0027(7)
C3 0.0076(10) 0.0221(12) 0.0235(11) -0.0060(8) -0.0038(8) 0.0021(8)
C4 0.0194(11) 0.0194(11) 0.0210(11) 0.0022(9) -0.0021(8) 0.0059(9)
C5 0.0183(11) 0.0134(10) 0.0198(11) 0.0038(8) -0.0022(8) 0.0027(8)
C6 0.0146(11) 0.0155(11) 0.0183(10) 0.0051(8) 0.0011(8) 0.0008(8)
C7 0.0183(11) 0.0136(10) 0.0203(11) 0.0043(8) 0.0000(8) 0.0015(8)
C8 0.0187(11) 0.0130(10) 0.0241(11) 0.0071(9) 0.0039(9) 0.0041(8)
C9 0.0207(11) 0.0112(10) 0.0237(11) 0.0076(8) 0.0043(9) 0.0056(8)
C10 0.0180(11) 0.0187(11) 0.0288(12) 0.0084(9) 0.0079(9) 0.0056(9)
C11 0.0255(13) 0.0229(12) 0.0238(12) 0.0084(10) 0.0098(9) 0.0088(10)
C12 0.0236(12) 0.0170(11) 0.0229(12) 0.0057(9) 0.0057(9) 0.0076(9)
C13 0.0196(11) 0.0175(11) 0.0248(12) 0.0079(9) 0.0055(9) 0.0038(9)
C14 0.0225(12) 0.0157(11) 0.0214(11) 0.0074(9) 0.0073(9) 0.0042(9)
C15 0.0270(13) 0.0234(12) 0.0239(12) 0.0056(10) 0.0077(10) 0.0063(10)
loop_
_atom_type_symbol
_atom_type_description
_atom_type_scat_dispersion_real
_atom_type_scat_dispersion_imag
_atom_type_scat_source
C C 0.0181 0.0091 'International Tables Vol C Tables 4.2.6.8 and 6.1.1.4'
H H 0.0000 0.0000 'International Tables Vol C Tables 4.2.6.8 and 6.1.1.4'
N N 0.0311 0.0180 'International Tables Vol C Tables 4.2.6.8 and 6.1.1.4'
O O 0.0492 0.0322 'International Tables Vol C Tables 4.2.6.8 and 6.1.1.4'
F F 0.0727 0.0534 'International Tables Vol C Tables 4.2.6.8 and 6.1.1.4'
S S 0.3331 0.5567 'International Tables Vol C Tables 4.2.6.8 and 6.1.1.4'
loop_
_geom_angle_atom_site_label_1
_geom_angle_atom_site_label_2
_geom_angle_atom_site_label_3
_geom_angle
_geom_angle_site_symmetry_1
_geom_angle_site_symmetry_3
_geom_angle_publ_flag
C1 S C4 91.11(13) . . ?
C6 O1 C5 102.16(17) . . ?
C5 N1 N2 105.61(19) . . ?
C2 C1 S 113.1(2) . . ?
C2 C1 H1A 123.4 . . ?
S C1 H1A 123.4 . . ?
C6 N2 N1 106.33(19) . . ?
C1 C2 C3 116.3(2) . . ?
C1 C2 H2B 121.8 . . ?
C3 C2 H2B 121.8 . . ?
C7 N3 C8 121.93(19) . . ?
C7 N3 H3A 119.0 . . ?
C8 N3 H3A 119.0 . . ?
C2 C3 C4 105.3(2) . . ?
C2 C3 H3B 127.3 . . ?
C4 C3 H3B 127.3 . . ?
C5 C4 C3 127.2(2) . . ?
C5 C4 S 118.70(19) . . ?
C3 C4 S 114.09(18) . . ?
N1 C5 O1 112.9(2) . . ?
N1 C5 C4 127.7(2) . . ?
O1 C5 C4 119.4(2) . . ?
N2 C6 O1 113.0(2) . . ?
N2 C6 C7 128.6(2) . . ?
O1 C6 C7 118.39(19) . . ?
O2 C7 N3 126.2(2) . . ?
O2 C7 C6 120.0(2) . . ?
N3 C7 C6 113.74(19) . . ?
N3 C8 C9 111.87(19) . . ?
N3 C8 H8A 109.2 . . ?
C9 C8 H8A 109.2 . . ?
N3 C8 H8B 109.2 . . ?
C9 C8 H8B 109.2 . . ?
H8A C8 H8B 107.9 . . ?
C10 C9 C14 118.9(2) . . ?
C10 C9 C8 120.5(2) . . ?
C14 C9 C8 120.6(2) . . ?
C11 C10 C9 120.6(2) . . ?
C11 C10 H10A 119.7 . . ?
C9 C10 H10A 119.7 . . ?
C10 C11 C12 119.7(2) . . ?
C10 C11 H11A 120.1 . . ?
C12 C11 H11A 120.1 . . ?
C11 C12 C13 120.2(2) . . ?
C11 C12 C15 120.2(2) . . ?
C13 C12 C15 119.6(2) . . ?
C14 C13 C12 119.6(2) . . ?
C14 C13 H13A 120.2 . . ?
C12 C13 H13A 120.2 . . ?
C13 C14 C9 121.0(2) . . ?
C13 C14 H14A 119.5 . . ?
C9 C14 H14A 119.5 . . ?
F3 C15 F2 107.3(2) . . ?
F3 C15 F1 105.1(2) . . ?
F2 C15 F1 105.1(2) . . ?
F3 C15 C12 113.1(2) . . ?
F2 C15 C12 113.0(2) . . ?
F1 C15 C12 112.6(2) . . ?
loop_
_geom_bond_atom_site_label_1
_geom_bond_atom_site_label_2
_geom_bond_distance
_geom_bond_site_symmetry_2
_geom_bond_publ_flag
S C1 1.700(3) . ?
S C4 1.710(2) . ?
O1 C6 1.357(3) . ?
O1 C5 1.360(3) . ?
F1 C15 1.340(3) . ?
N1 C5 1.301(3) . ?
N1 N2 1.401(3) . ?
C1 C2 1.362(4) . ?
C1 H1A 0.9300 . ?
O2 C7 1.226(3) . ?
N2 C6 1.290(3) . ?
F2 C15 1.338(3) . ?
C2 C3 1.431(3) . ?
C2 H2B 0.9300 . ?
F3 C15 1.333(3) . ?
N3 C7 1.338(3) . ?
N3 C8 1.464(3) . ?
N3 H3A 0.8600 . ?
C3 C4 1.480(4) . ?
C3 H3B 0.9300 . ?
C4 C5 1.440(3) . ?
C6 C7 1.495(3) . ?
C8 C9 1.513(3) . ?
C8 H8A 0.9700 . ?
C8 H8B 0.9700 . ?
C9 C10 1.395(3) . ?
C9 C14 1.397(3) . ?
C10 C11 1.386(4) . ?
C10 H10A 0.9300 . ?
C11 C12 1.393(4) . ?
C11 H11A 0.9300 . ?
C12 C13 1.396(3) . ?
C12 C15 1.494(3) . ?
C13 C14 1.379(3) . ?
C13 H13A 0.9300 . ?
C14 H14A 0.9300 . ?
loop_
_geom_torsion_atom_site_label_1
_geom_torsion_atom_site_label_2
_geom_torsion_atom_site_label_3
_geom_torsion_atom_site_label_4
_geom_torsion
_geom_torsion_site_symmetry_1
_geom_torsion_site_symmetry_2
_geom_torsion_site_symmetry_3
_geom_torsion_site_symmetry_4
_geom_torsion_publ_flag
C4 S C1 C2 -0.4(2) . . . . ?
C5 N1 N2 C6 0.1(2) . . . . ?
S C1 C2 C3 -0.7(3) . . . . ?
C1 C2 C3 C4 1.6(3) . . . . ?
C2 C3 C4 C5 178.9(2) . . . . ?
C2 C3 C4 S -1.9(2) . . . . ?
C1 S C4 C5 -179.32(19) . . . . ?
C1 S C4 C3 1.40(19) . . . . ?
N2 N1 C5 O1 0.4(2) . . . . ?
N2 N1 C5 C4 -178.6(2) . . . . ?
C6 O1 C5 N1 -0.8(2) . . . . ?
C6 O1 C5 C4 178.4(2) . . . . ?
C3 C4 C5 N1 -179.7(2) . . . . ?
S C4 C5 N1 1.1(3) . . . . ?
C3 C4 C5 O1 1.2(3) . . . . ?
S C4 C5 O1 -177.94(15) . . . . ?
N1 N2 C6 O1 -0.6(2) . . . . ?
N1 N2 C6 C7 -179.8(2) . . . . ?
C5 O1 C6 N2 0.8(2) . . . . ?
C5 O1 C6 C7 -179.91(19) . . . . ?
C8 N3 C7 O2 -3.3(4) . . . . ?
C8 N3 C7 C6 176.44(19) . . . . ?
N2 C6 C7 O2 -176.1(2) . . . . ?
O1 C6 C7 O2 4.8(3) . . . . ?
N2 C6 C7 N3 4.1(3) . . . . ?
O1 C6 C7 N3 -175.04(18) . . . . ?
C7 N3 C8 C9 -91.0(2) . . . . ?
N3 C8 C9 C10 -119.9(2) . . . . ?
N3 C8 C9 C14 59.7(3) . . . . ?
C14 C9 C10 C11 0.1(3) . . . . ?
C8 C9 C10 C11 179.6(2) . . . . ?
C9 C10 C11 C12 -0.3(4) . . . . ?
C10 C11 C12 C13 0.3(4) . . . . ?
C10 C11 C12 C15 177.8(2) . . . . ?
C11 C12 C13 C14 -0.1(4) . . . . ?
C15 C12 C13 C14 -177.6(2) . . . . ?
C12 C13 C14 C9 -0.1(3) . . . . ?
C10 C9 C14 C13 0.2(3) . . . . ?
C8 C9 C14 C13 -179.4(2) . . . . ?
C11 C12 C15 F3 149.5(2) . . . . ?
C13 C12 C15 F3 -32.9(3) . . . . ?
C11 C12 C15 F2 27.4(3) . . . . ?
C13 C12 C15 F2 -155.1(2) . . . . ?
C11 C12 C15 F1 -91.5(3) . . . . ?
C13 C12 C15 F1 86.0(3) . . . . ?
loop_
_publcif_info_cif.paper_type
?
