#------------------------------------------------------------------------------
#$Date: 2021-12-04 03:25:46 +0200 (Sat, 04 Dec 2021) $
#$Revision: 271081 $
#$URL: file:///home/coder/svn-repositories/cod/cif/1/56/55/1565505.cif $
#------------------------------------------------------------------------------
#
# This file is available in the Crystallography Open Database (COD),
# http://www.crystallography.net/
#
# All data on this site have been placed in the public domain by the
# contributors.
#
data_1565505
loop_
_publ_author_name
'Yan, Hai-Wei'
'Zhao, Ling-Hao'
'Zhang, Xu'
'Yang, Ya-Nan'
'Yuan, Xiang'
'Zhang, Pei-Cheng'
_publ_section_title
;
 Photoinduced Irreversible Intramolecular Proton Transfer of Arnebinones
 B, D, and E: The Case of Photoenolization at the
 <i>p</i>-Benzoquinone-CH<sub>2</sub>/CH-\p System.
;
_journal_issue                   11
_journal_name_full               'Journal of natural products'
_journal_page_first              2981
_journal_page_last               2989
_journal_paper_doi               10.1021/acs.jnatprod.1c00830
_journal_volume                  84
_journal_year                    2021
_chemical_absolute_configuration ad
_chemical_formula_moiety         'C17 H16 O5'
_chemical_formula_sum            'C17 H16 O5'
_chemical_formula_weight         300.30
_space_group_crystal_system      monoclinic
_space_group_IT_number           4
_space_group_name_Hall           'P 2yb'
_space_group_name_H-M_alt        'P 1 21 1'
_atom_sites_solution_hydrogens   geom
_audit_creation_date             2021-02-05
_audit_creation_method
;
Olex2 1.3
(compiled 2020.11.12 svn.r5f609507 for OlexSys, GUI svn.r6226)
;
_cell_angle_alpha                90
_cell_angle_beta                 94.4777(12)
_cell_angle_gamma                90
_cell_formula_units_Z            2
_cell_length_a                   6.55217(9)
_cell_length_b                   7.61602(11)
_cell_length_c                   14.54252(19)
_cell_measurement_reflns_used    10291
_cell_measurement_temperature    99.99(10)
_cell_measurement_theta_max      75.1260
_cell_measurement_theta_min      6.0660
_cell_volume                     723.478(17)
_computing_cell_refinement       'CrysAlisPro 1.171.41.95a (Rigaku OD, 2021)'
_computing_data_collection       'CrysAlisPro 1.171.41.95a (Rigaku OD, 2021)'
_computing_data_reduction        'CrysAlisPro 1.171.41.95a (Rigaku OD, 2021)'
_computing_molecular_graphics    'Olex2 1.3 (Dolomanov et al., 2009)'
_computing_publication_material  'Olex2 1.3 (Dolomanov et al., 2009)'
_computing_structure_refinement  'SHELXL 2018/3 (Sheldrick, 2015)'
_computing_structure_solution    'SHELXT 2014/5 (Sheldrick, 2014)'
_diffrn_ambient_environment      N~2~
_diffrn_ambient_temperature      99.99(10)
_diffrn_detector                 'Hybrid Pixel Array Detector'
_diffrn_detector_area_resol_mean 10.0000
_diffrn_detector_type            HyPix
_diffrn_measured_fraction_theta_full 0.999
_diffrn_measured_fraction_theta_max 0.983
_diffrn_measurement_details
;
List of Runs (angles in degrees, time in seconds):

  # Type    Start    End  Width  t~exp~   \w     \q     \k     \f   Frames
--------------------------------------------------------------------------
  1  \w     25.00 120.00   0.50    0.05    --   47.70  77.00-120.00  190
  2  \w     25.00 120.00   0.50    0.05    --   47.70  77.00 -30.00  190
  3  \w     33.00 120.00   0.50    0.05    --   47.70  57.00  60.00  174
  4  \w    -68.00 -28.00   0.50    0.05    -- -101.00  61.00-180.00   80
  5  \w    -68.00 -28.00   0.50    0.05    -- -101.00  61.00-150.00   80
  6  \w    -68.00 -28.00   0.50    0.05    -- -101.00  61.00  60.00   80
  7  \w    -68.00 -28.00   0.50    0.05    -- -101.00  61.00 150.00   80
  8  \w    -68.00 -28.00   0.50    0.05    -- -101.00  61.00 -30.00   80
  9  \w    -68.00 -28.00   0.50    0.05    -- -101.00  61.00 -60.00   80
 10  \w    -23.00  28.00   0.50    0.05    --  -47.70  19.00  30.00  102
 11  \w     90.00 178.00   0.50    0.05    --  103.25  15.00  60.00  176
 12  \w     90.00 178.00   0.50    0.05    --  103.25  15.00  90.00  176
 13  \w     90.00 178.00   0.50    0.05    --  103.25  15.00 150.00  176
 14  \w     87.00 176.00   0.50    0.05    --  103.25  61.00  30.00  178
 15  \w     91.00 130.00   0.50    0.05    --  103.25  45.00-120.00   78
 16  \w     31.00 105.00   0.50    0.05    --  103.25 -90.00-139.00  148
 17  \w     31.00 106.00   0.50    0.05    --  103.25 -94.00-150.00  150
 18  \w     31.00 111.00   0.50    0.05    --  103.25-125.00-150.00  160
 19  \w    -24.00  76.00   0.50    0.05    --   47.70 -90.00-139.00  200
 20  \w     31.00 106.00   0.50    0.05    --  103.25 -94.00 120.00  150
 21  \w     31.00 111.00   0.50    0.05    --  103.25-125.00  60.00  160
 22  \w     31.00  75.00   0.50    0.05    --  103.25 -61.00  30.00   88
 23  \w     31.00  75.00   0.50    0.05    --  103.25 -61.00   0.00   88
 24  \w     31.00  75.00   0.50    0.05    --  103.25 -61.00 -90.00   88
 25  \w     31.00  75.00   0.50    0.05    --  103.25 -61.00-150.00   88
 26  \w     86.00 176.00   0.50    0.05    --  103.25  90.00 -24.00  180
 27  \w    -76.00  25.00   0.50    0.05    --  -47.70  90.00 -24.00  202
 28  \w   -106.00 -28.00   0.50    0.05    -- -101.00  90.00 -24.00  156
 29  \w   -119.00 -25.00   0.50    0.05    --  -47.70 -77.00-150.00  188
 30  \w   -119.00 -25.00   0.50    0.05    --  -47.70 -77.00-180.00  188
 31  \w   -119.00 -46.50   0.50    0.05    --  -47.70 -77.00 -60.00  145
;
_diffrn_measurement_device       'four-circle diffractometer'
_diffrn_measurement_device_type  'XtaLAB Synergy R, HyPix'
_diffrn_measurement_method       '\w scans'
_diffrn_orient_matrix_type
'CrysAlisPro convention (1999,Acta A55,543-557)'
_diffrn_orient_matrix_UB_11      -0.0664348000
_diffrn_orient_matrix_UB_12      -0.0252154000
_diffrn_orient_matrix_UB_13      0.0984642000
_diffrn_orient_matrix_UB_21      0.0871564000
_diffrn_orient_matrix_UB_22      0.1822706000
_diffrn_orient_matrix_UB_23      0.0271463000
_diffrn_orient_matrix_UB_31      -0.2088207000
_diffrn_orient_matrix_UB_32      0.0840028000
_diffrn_orient_matrix_UB_33      -0.0293266000
_diffrn_radiation_monochromator  mirror
_diffrn_radiation_probe          x-ray
_diffrn_radiation_type           'Cu K\a'
_diffrn_radiation_wavelength     1.54184
_diffrn_reflns_av_R_equivalents  0.0311
_diffrn_reflns_av_unetI/netI     0.0199
_diffrn_reflns_Laue_measured_fraction_full 0.999
_diffrn_reflns_Laue_measured_fraction_max 0.983
_diffrn_reflns_limit_h_max       7
_diffrn_reflns_limit_h_min       -8
_diffrn_reflns_limit_k_max       9
_diffrn_reflns_limit_k_min       -9
_diffrn_reflns_limit_l_max       17
_diffrn_reflns_limit_l_min       -18
_diffrn_reflns_number            10189
_diffrn_reflns_point_group_measured_fraction_full 0.992
_diffrn_reflns_point_group_measured_fraction_max 0.958
_diffrn_reflns_theta_full        67.684
_diffrn_reflns_theta_max         75.219
_diffrn_reflns_theta_min         6.105
_diffrn_source                   'Rotating-anode X-ray tube'
_diffrn_source_type              'PhotonJet R (Cu) X-ray Source'
_exptl_absorpt_coefficient_mu    0.846
_exptl_absorpt_correction_T_max  1.00000
_exptl_absorpt_correction_T_min  0.65418
_exptl_absorpt_correction_type   multi-scan
_exptl_absorpt_process_details
;
CrysAlisPro 1.171.41.95a (Rigaku Oxford Diffraction, 2021)
Empirical absorption correction using spherical harmonics,
implemented in SCALE3 ABSPACK scaling algorithm.
;
_exptl_crystal_colour            colourless
_exptl_crystal_colour_primary    colourless
_exptl_crystal_density_diffrn    1.378
_exptl_crystal_description       block
_exptl_crystal_F_000             316
_exptl_crystal_size_max          0.31
_exptl_crystal_size_mid          0.22
_exptl_crystal_size_min          0.05
_refine_diff_density_max         0.163
_refine_diff_density_min         -0.196
_refine_diff_density_rms         0.053
_refine_ls_abs_structure_details
;
 Flack x determined using 1263 quotients [(I+)-(I-)]/[(I+)+(I-)]
 (Parsons, Flack and Wagner, Acta Cryst. B69 (2013) 249-259).
;
_refine_ls_abs_structure_Flack   -0.06(10)
_refine_ls_extinction_method     none
_refine_ls_goodness_of_fit_ref   1.067
_refine_ls_hydrogen_treatment    constr
_refine_ls_matrix_type           full
_refine_ls_number_parameters     201
_refine_ls_number_reflns         2867
_refine_ls_number_restraints     1
_refine_ls_restrained_S_all      1.067
_refine_ls_R_factor_all          0.0319
_refine_ls_R_factor_gt           0.0317
_refine_ls_shift/su_max          0.000
_refine_ls_shift/su_mean         0.000
_refine_ls_structure_factor_coef Fsqd
_refine_ls_weighting_details
'w=1/[\s^2^(Fo^2^)+(0.0488P)^2^+0.1730P] where P=(Fo^2^+2Fc^2^)/3'
_refine_ls_weighting_scheme      calc
_refine_ls_wR_factor_gt          0.0824
_refine_ls_wR_factor_ref         0.0825
_reflns_Friedel_coverage         0.807
_reflns_Friedel_fraction_full    0.983
_reflns_Friedel_fraction_max     0.928
_reflns_number_gt                2849
_reflns_number_total             2867
_reflns_threshold_expression     'I > 2\s(I)'
_cod_data_source_file            np1c00830_si_002.cif
_cod_data_source_block           yhwa_43_p1
_cod_database_code               1565505
_shelx_shelxl_version_number     2018/3
_shelx_space_group_comment
;
The symmetry employed for this shelxl refinement is uniquely defined
by the following loop, which should always be used as a source of
symmetry information in preference to the above space-group names.
They are only intended as comments.
;
_shelx_estimated_absorpt_t_max   0.959
_shelx_estimated_absorpt_t_min   0.780
_reflns_odcompleteness_completeness 99.86
_reflns_odcompleteness_iscentric 1
_reflns_odcompleteness_theta     66.97
_olex2_refinement_description
;
1. Fixed Uiso
 At 1.2 times of:
  All C(H) groups, All C(H,H) groups
 At 1.5 times of:
  All C(H,H,H) groups
2.a Ternary CH refined with riding coordinates:
 C1(H1)
2.b Secondary CH2 refined with riding coordinates:
 C8(H8A,H8B), C5(H5A,H5B), C4(H4A,H4B)
2.c Aromatic/amide H refined with riding coordinates:
 C2(H2), C6(H6), C11(H11)
2.d Idealised Me refined as rotating group:
 C22(H22A,H22B,H22C), C19(H19A,H19B,H19C)
;
_shelx_res_file
;
TITL yhwa_43_p1_auto_a.res in P2(1)
    yhwa_43_p1.res
    created by SHELXL-2018/3 at 18:52:07 on 05-Feb-2021
REM Old TITL YHWA_43_P1_auto in P2(1)
REM SHELXT solution in P2(1)
REM R1 0.076, Rweak 0.031, Alpha 0.001, Orientation as input
REM Flack x = -0.146 ( 0.100 ) from Parsons' quotients
REM Formula found by SHELXT: C17 O5
CELL 1.54184 6.5522 7.616 14.5425 90 94.478 90
ZERR 2 0.0001 0.0001 0.0002 0 0.001 0
LATT -1
SYMM -X,0.5+Y,-Z
SFAC C H O
UNIT 34 32 10

L.S. 4
PLAN  5
SIZE 0.31 0.22 0.05
TEMP -173
CONF
MORE -1
BOND $H
fmap 2
acta
REM <olex2.extras>
REM <HklSrc "%.\\YHWA_43_P1.hkl">
REM </olex2.extras>

WGHT    0.048800    0.173000
FVAR       1.33085
O18   3    0.155404    0.730598    0.552960    11.00000    0.02421    0.02586 =
         0.01927    0.00318   -0.00205    0.00676
O15   3    0.939838    0.389537    0.639854    11.00000    0.01928    0.02337 =
         0.01908    0.00146    0.00241    0.00098
O21   3    0.557790    0.883888    0.824716    11.00000    0.03246    0.01522 =
         0.02290   -0.00254    0.00032   -0.00035
O20   3    0.447705    0.504888    0.522348    11.00000    0.02552    0.02715 =
         0.01737   -0.00219   -0.00260    0.00336
O17   3    1.245392    0.300028    0.703095    11.00000    0.01919    0.03107 =
         0.03538    0.00294    0.00421    0.00172
C10   1    0.519170    0.784761    0.759398    11.00000    0.02561    0.01424 =
         0.01828    0.00121    0.00264   -0.00217
C7    1    0.735049    0.477022    0.904576    11.00000    0.01888    0.01673 =
         0.01554   -0.00187   -0.00067   -0.00547
C12   1    0.309735    0.717031    0.618072    11.00000    0.02086    0.01918 =
         0.01763    0.00546   -0.00002   -0.00003
C8    1    0.810211    0.590130    0.827419    11.00000    0.01897    0.01365 =
         0.01700    0.00022   -0.00059   -0.00298
AFIX  23
H8A   2    0.857412    0.704463    0.853566    11.00000   -1.20000
H8B   2    0.929192    0.531721    0.802580    11.00000   -1.20000
AFIX   0
C16   1    1.060865    0.294612    0.701985    11.00000    0.02088    0.01898 =
         0.02182   -0.00142    0.00115    0.00225
C13   1    0.455728    0.573387    0.598028    11.00000    0.01988    0.01731 =
         0.01666    0.00174   -0.00049   -0.00209
C2    1    0.735747    0.226964    0.732481    11.00000    0.02050    0.01259 =
         0.01997   -0.00217   -0.00001   -0.00083
AFIX  43
H2    2    0.620012    0.177148    0.758146    11.00000   -1.20000
AFIX   0
C14   1    0.614445    0.522442    0.672672    11.00000    0.01786    0.01470 =
         0.01679    0.00134    0.00021   -0.00233
C1    1    0.726407    0.353428    0.653551    11.00000    0.01968    0.01681 =
         0.01774   -0.00150   -0.00079   -0.00051
AFIX  13
H1    2    0.659546    0.295799    0.597203    11.00000   -1.20000
AFIX   0
C3    1    0.929808    0.194345    0.761549    11.00000    0.02124    0.01388 =
         0.01968   -0.00144    0.00117    0.00073
C9    1    0.648542    0.622958    0.748911    11.00000    0.01861    0.01348 =
         0.01688    0.00202    0.00133   -0.00172
C6    1    0.842435    0.344491    0.944413    11.00000    0.02255    0.01839 =
         0.01657    0.00006   -0.00034   -0.00435
AFIX  43
H6    2    0.783229    0.289284    0.994525    11.00000   -1.20000
AFIX   0
C11   1    0.345454    0.818566    0.693218    11.00000    0.02753    0.01773 =
         0.02292    0.00300    0.00198    0.00682
AFIX  43
H11   2    0.256061    0.913686    0.703249    11.00000   -1.20000
AFIX   0
C22   1    0.532683    0.529756    0.937669    11.00000    0.02199    0.02176 =
         0.02415    0.00314    0.00280   -0.00229
AFIX 137
H22A  2    0.537386    0.653805    0.955619    11.00000   -1.50000
H22B  2    0.503878    0.457681    0.990961    11.00000   -1.50000
H22C  2    0.424592    0.512231    0.888044    11.00000   -1.50000
AFIX   0
C5    1    1.044074    0.271437    0.920436    11.00000    0.02100    0.02025 =
         0.01984    0.00326   -0.00348   -0.00086
AFIX  23
H5A   2    1.121569    0.229389    0.977364    11.00000   -1.20000
H5B   2    1.124866    0.365888    0.893772    11.00000   -1.20000
AFIX   0
C4    1    1.016760    0.117522    0.850422    11.00000    0.02111    0.01690 =
         0.02457    0.00220   -0.00189    0.00328
AFIX  23
H4A   2    1.150286    0.061128    0.842277    11.00000   -1.20000
H4B   2    0.922713    0.028026    0.872669    11.00000   -1.20000
AFIX   0
C19   1    0.001683    0.860568    0.568002    11.00000    0.02976    0.04299 =
         0.02345    0.00414    0.00129    0.01618
AFIX 137
H19A  2   -0.112365    0.848639    0.520656    11.00000   -1.50000
H19B  2    0.061342    0.978143    0.564477    11.00000   -1.50000
H19C  2   -0.048469    0.843310    0.629103    11.00000   -1.50000
AFIX   0
HKLF 4




REM  yhwa_43_p1_auto_a.res in P2(1)
REM wR2 = 0.0825, GooF = S = 1.067, Restrained GooF = 1.067 for all data
REM R1 = 0.0317 for 2849 Fo > 4sig(Fo) and 0.0319 for all 2867 data
REM 201 parameters refined using 1 restraints

END

WGHT      0.0486      0.1734

REM Highest difference peak  0.163,  deepest hole -0.196,  1-sigma level  0.053
Q1    1  -0.2938  0.8499  0.6685  11.00000  0.05    0.16
Q2    1   0.5445  0.2947  0.7655  11.00000  0.05    0.15
Q3    1   0.0081  0.7857  0.7378  11.00000  0.05    0.15
Q4    1   1.0671 -0.1299  0.9050  11.00000  0.05    0.14
Q5    1   0.4609  0.2291  0.7848  11.00000  0.05    0.14
;
_shelx_res_checksum              23061
_shelx_hkl_file
;
   0  -9   0    0.14    0.35
   0  -9   1    2.39    0.56
   0  -9  -1    3.22    0.62
   0  -9   2  121.16    2.87
   0  -8   0  178.19    4.70
   0  -8  -1   12.55    1.35
   0  -8  -2   61.04    2.87
   0  -8   2   62.47    2.89
   0  -8  -3  125.01    3.91
   0  -8  -3  133.11    4.26
   0  -8   3  125.05    3.97
   0  -8  -4   54.67    2.75
   0  -8  -4   54.13    2.59
   0  -8   4   46.29    2.30
   0  -8  -5   54.57    2.55
   0  -8  -5   50.42    2.59
   0  -8   5   53.18    2.34
   0  -8  -6   52.73    2.66
   0  -8   6   52.59    2.16
   0  -8  -7   57.37    2.40
   0  -8  -7   51.34    2.41
   0  -8  -8   14.81    1.25
   0  -8  -8   13.44    1.12
   0  -8  -9    7.97    0.85
   0  -8  -9    9.11    0.85
   0  -7   0    0.12    0.55
   0  -7  -1   17.08    1.74
   0  -7   1   20.49    1.82
   0  -7  -1   23.41    1.92
   0  -7  -2   91.49    3.96
   0  -7   2   92.41    3.64
   0  -7  -2   86.83    3.66
   0  -7  -3  208.91    6.09
   0  -7  -3  205.49    5.78
   0  -7  -4  383.65    8.40
   0  -7  -4  343.01    7.70
   0  -7  -5  180.90    5.64
   0  -7  -5  179.74    5.76
   0  -7  -6   22.48    2.05
   0  -7  -6   22.64    2.09
   0  -7   6   25.62    1.88
   0  -7  -6   23.03    1.86
   0  -7  -7   37.12    2.56
   0  -7  -7   39.06    2.66
   0  -7  -7   32.01    2.16
   0  -7   7   38.22    2.21
   0  -7  -8  259.52    6.59
   0  -7  -8  264.67    6.56
   0  -7  -8  251.96    5.88
   0  -7   8  259.01    5.41
   0  -7  -9  312.41    6.83
   0  -7  -9  358.58    7.38
   0  -7 -10   20.73    1.69
   0  -7 -10   17.56    1.52
   0  -7 -10   18.40    1.47
   0  -7 -11   73.07    2.69
   0  -7 -11   75.51    2.57
   0  -7 -12   41.29    1.68
   0  -7 -12   40.92    1.68
   0  -7 -12   40.82    1.56
   0  -6   0  187.10    5.35
   0  -6   0  192.97    4.95
   0  -6   1  213.76    5.60
   0  -6   1  213.41    5.44
   0  -6  -1  210.84    5.83
   0  -6  -1  224.46    5.54
   0  -6   1  212.64    4.96
   0  -6   2  176.30    4.99
   0  -6  -2  166.45    5.15
   0  -6  -2  178.57    5.47
   0  -6  -2  171.43    5.00
   0  -6   3   92.38    3.56
   0  -6  -3   80.06    3.68
   0  -6  -3   83.02    3.82
   0  -6  -3   85.55    3.68
   0  -6  -4  212.53    6.00
   0  -6  -4  197.20    6.08
   0  -6  -4  216.31    6.23
   0  -6  -4  208.05    5.55
   0  -6  -5  772.05   11.84
   0  -6  -5  747.27   12.13
   0  -6  -5  744.71   11.31
   0  -6  -6   45.05    2.86
   0  -6  -6   46.52    3.07
   0  -6  -6   47.65    3.21
   0  -6   6   41.39    2.49
   0  -6  -6   42.34    2.77
   0  -6  -7  229.55    6.49
   0  -6   7  239.02    5.94
   0  -6  -7  230.09    6.56
   0  -6  -7  213.49    6.61
   0  -6  -7  222.02    6.86
   0  -6  -8   25.60    2.26
   0  -6   8   21.80    1.82
   0  -6  -8   21.20    2.19
   0  -6  -8   24.12    2.26
   0  -6  -9   69.89    3.61
   0  -6   9   63.41    2.95
   0  -6  -9   68.34    3.70
   0  -6  -9   64.01    3.66
   0  -6 -10  159.72    5.42
   0  -6 -10  150.52    5.32
   0  -6 -11  160.18    5.00
   0  -6 -11  152.37    4.96
   0  -6 -12   11.87    1.32
   0  -6 -12   11.31    1.32
   0  -6 -13  120.46    3.47
   0  -6 -13  124.02    3.54
   0  -6 -14    2.16    0.49
   0  -6 -14    2.53    0.49
   0  -6 -14    2.15    0.43
   0  -5   0    0.13    0.40
   0  -5   0    0.51    0.40
   0  -5   0    0.18    0.42
   0  -5  -1   52.82    2.65
   0  -5  -1   57.85    2.54
   0  -5   1   56.08    2.35
   0  -5   2  269.42    5.66
   0  -5  -2  271.80    6.24
   0  -5   2  313.68    5.27
   0  -5  -2  307.64    6.20
   0  -5  -3  999.10   12.36
   0  -5  -3  976.78   11.82
   0  -5  -3  973.11   11.70
   0  -5  -4   25.26    1.93
   0  -5  -4   25.08    2.10
   0  -5  -4   24.26    1.99
   0  -5   4   28.08    2.20
   0  -5  -4   25.98    1.96
   0  -5  -5   39.34    2.48
   0  -5  -5   39.69    2.69
   0  -5  -5   35.86    2.50
   0  -5   5   42.19    2.89
   0  -5   5   44.78    2.45
   0  -5  -5   48.68    2.88
   0  -5  -6  631.62   10.30
   0  -5  -6  644.09   11.03
   0  -5  -6  612.73   11.04
   0  -5   6  617.63   11.72
   0  -5   7  723.11   13.42
   0  -5  -7  720.74   12.31
   0  -5   7  709.91   10.20
   0  -5  -8   26.46    2.18
   0  -5  -8   26.51    2.39
   0  -5   8   29.36    2.88
   0  -5   8   29.01    2.10
   0  -5  -8   28.99    2.48
   0  -5  -9  390.18    8.26
   0  -5  -9  362.39    8.86
   0  -5   9  372.40   10.28
   0  -5   9  373.42    7.57
   0  -5  -9  403.38    9.25
   0  -5 -10  110.24    4.25
   0  -5 -10   97.80    4.60
   0  -5  10  110.10    5.67
   0  -5 -10  108.23    4.92
   0  -5  10   98.52    3.80
   0  -5 -11  161.59    5.70
   0  -5  11  139.34    4.33
   0  -5 -12  138.84    4.99
   0  -5 -12  140.69    4.96
   0  -5 -13   82.39    3.51
   0  -5 -14   47.86    2.29
   0  -5 -15   31.83    1.45
   0  -5 -15   32.69    1.60
   0  -5 -15   35.92    1.65
   0  -4   0 1394.93   11.44
   0  -4  -1  101.38    2.97
   0  -4   1  101.71    2.68
   0  -4   2  653.70    8.38
   0  -4  -2  581.70    7.60
   0  -4   3  410.34    7.19
   0  -4  -3  372.76    6.27
   0  -4   4  654.80   10.09
   0  -4  -4  721.41    9.20
   0  -4   5 1484.99   16.86
   0  -4  -5 1521.12   14.87
   0  -4  -6  572.84    9.54
   0  -4   6  593.16   11.22
   0  -4  -6  609.04    9.62
   0  -4   6  624.68    8.56
   0  -4  -7   64.66    3.06
   0  -4  -7   74.10    3.58
   0  -4   7   67.63    4.02
   0  -4  -7   64.51    3.22
   0  -4   7   68.31    2.89
   0  -4  -8  654.55   10.07
   0  -4   8  640.14   13.09
   0  -4  -8  681.67   11.14
   0  -4  -9  268.64    6.49
   0  -4  -9  285.93    7.58
   0  -4  10  310.04    9.79
   0  -4 -10  315.09    6.99
   0  -4  10  295.05    6.75
   0  -4 -11  196.10    5.41
   0  -4  11  189.40    5.40
   0  -4  12   48.75    2.68
   0  -4 -13  189.54    5.73
   0  -4 -13  178.07    5.71
   0  -4 -14   29.10    2.08
   0  -4 -14   29.56    2.17
   0  -4 -14   31.42    2.17
   0  -4 -15   55.01    2.43
   0  -4 -15   53.90    2.49
   0  -4 -15   57.70    2.49
   0  -4 -16    2.50    0.54
   0  -3   0    0.70    0.31
   0  -3   0    3.30    0.49
   0  -3   1 1185.96    9.46
   0  -3   1 1244.74    8.60
   0  -3  -2 1009.00    8.53
   0  -3   2  968.33    9.42
   0  -3  -3  787.41    6.44
   0  -3  -3  774.59    7.96
   0  -3   3  772.29    6.78
   0  -3  -4  621.25    6.98
   0  -3   4  602.23    7.01
   0  -3  -4  623.94    7.41
   0  -3   4  592.70    8.73
   0  -3   5  484.43    7.25
   0  -3   5  475.47    6.96
   0  -3   5  482.27    8.48
   0  -3  -5  497.93    7.03
   0  -3  -6  194.31    4.81
   0  -3   6  187.86    4.80
   0  -3   6  195.66    4.76
   0  -3  -6  181.66    4.35
   0  -3   6  180.58    5.59
   0  -3  -7   56.47    2.85
   0  -3  -7   59.00    2.53
   0  -3  -7   46.64    2.62
   0  -3  -7   55.96    2.74
   0  -3   7   51.65    2.58
   0  -3   7   60.82    3.51
   0  -3   7   52.90    2.83
   0  -3  -8  744.85    9.50
   0  -3   8  740.65    9.67
   0  -3   8  665.41    9.96
   0  -3   8  685.27   11.18
   0  -3   8  683.97   12.64
   0  -3   9  677.00   13.36
   0  -3   9  659.47   10.51
   0  -3   9  697.11   12.23
   0  -3  -9  697.62   11.01
   0  -3  -9  728.10    9.81
   0  -3  10  141.93    5.80
   0  -3 -10  136.89    4.27
   0  -3 -10  128.16    5.30
   0  -3 -10  142.23    5.21
   0  -3 -10  133.14    4.98
   0  -3  10  121.14    4.28
   0  -3 -10  141.04    4.94
   0  -3  10  140.31    6.37
   0  -3  11    8.15    1.63
   0  -3 -11    7.88    1.12
   0  -3 -11   10.84    1.75
   0  -3  11    8.83    1.98
   0  -3 -11   11.41    1.62
   0  -3 -11    9.36    1.55
   0  -3 -11   14.56    1.77
   0  -3  11    7.17    1.16
   0  -3 -12   97.30    4.50
   0  -3 -12   79.28    4.39
   0  -3 -12   83.67    4.04
   0  -3  12   85.81    3.73
   0  -3  12   92.13    5.55
   0  -3  12   90.62    4.92
   0  -3 -12   90.59    4.29
   0  -3 -13  776.98   12.39
   0  -3 -13  573.47   11.02
   0  -3 -13  731.73   11.65
   0  -3  13  610.76    9.90
   0  -3 -14   64.55    3.35
   0  -3 -14   68.67    3.53
   0  -3 -14   67.89    3.25
   0  -3 -15    2.98    0.84
   0  -3 -15    3.06    0.77
   0  -3 -15    3.37    0.88
   0  -3 -16    5.01    0.80
   0  -3 -16    5.08    0.85
   0  -2   0 3073.72   15.05
   0  -2   0 3320.17   15.22
   0  -2  -1  501.63    3.00
   0  -2   1  517.67    2.61
   0  -2   1  548.59    3.48
   0  -2   1  568.82    5.38
   0  -2  -1  528.39    4.85
   0  -2   1  514.22    4.23
   0  -2  -2 1908.25   11.05
   0  -2   2 2166.31   11.26
   0  -2   2 2069.88   12.53
   0  -2   2 2142.67   13.43
   0  -2   2 2200.06   10.36
   0  -2  -2 1988.67   12.01
   0  -2   3 2936.77   16.12
   0  -2   3 2921.70   16.11
   0  -2   3 2945.72   18.38
   0  -2  -3 2898.70   16.48
   0  -2   4 1214.88    9.57
   0  -2   4 1220.37   10.34
   0  -2  -5  386.60    6.35
   0  -2   5  349.68    5.93
   0  -2   5  353.26    5.24
   0  -2   5  378.33    6.98
   0  -2  -5  367.73    5.12
   0  -2  -6 1376.06   13.83
   0  -2   6 1393.25   13.76
   0  -2   6 1370.68   11.78
   0  -2  -6 1362.43   11.16
   0  -2  -7  667.79   10.51
   0  -2   7  756.28   10.83
   0  -2   7  703.42    8.79
   0  -2   7  701.35   11.20
   0  -2  -7  750.93    8.24
   0  -2  -8  650.24    7.89
   0  -2  -8  645.72   10.87
   0  -2   8  623.44   10.69
   0  -2   8  597.47    8.69
   0  -2  -8  640.44    8.93
   0  -2   8  613.53   11.32
   0  -2   9   35.25    2.90
   0  -2   9   35.39    2.25
   0  -2  -9   37.34    2.78
   0  -2  -9   37.90    1.94
   0  -2   9   36.00    2.80
   0  -2  -9   37.27    2.24
   0  -2   9   37.73    2.23
   0  -2  -9   36.58    2.49
   0  -2 -10   96.04    4.02
   0  -2  10   85.40    3.75
   0  -2 -10   94.59    4.62
   0  -2 -10   92.83    3.09
   0  -2  10   86.57    4.58
   0  -2 -10   90.38    3.67
   0  -2  10   84.17    3.50
   0  -2 -10   87.96    4.13
   0  -2  11  150.48    5.19
   0  -2 -11  162.57    5.43
   0  -2 -11  151.60    4.01
   0  -2 -11  171.84    6.57
   0  -2  11  164.33    6.62
   0  -2  11  178.87    5.43
   0  -2 -11  164.54    5.19
   0  -2 -11  156.52    5.81
   0  -2  12  202.38    7.85
   0  -2 -12  228.14    6.59
   0  -2 -12  197.64    7.19
   0  -2  12  210.29    7.77
   0  -2  12  192.85    5.78
   0  -2 -12  217.43    6.09
   0  -2 -12  207.58    6.84
   0  -2  13  212.81    8.27
   0  -2 -13  197.90    7.39
   0  -2 -13  211.35    6.97
   0  -2 -13  219.05    6.14
   0  -2 -13  211.09    6.30
   0  -2  13  201.74    7.82
   0  -2 -14  236.65    6.42
   0  -2 -14  227.02    7.09
   0  -2 -14  225.82    5.84
   0  -2 -15  340.14    8.16
   0  -2 -15  326.90    7.00
   0  -2 -16  155.13    4.92
   0  -2 -17  121.35    3.57
   0  -1   0    0.56    0.13
   0  -1   0    0.59    0.16
   0  -1   1 2437.12   11.19
   0  -1   1 2426.38   10.63
   0  -1   1 2415.18   11.92
   0  -1   1 2428.12    9.99
   0  -1  -2 1076.71    6.26
   0  -1   2 1052.18    6.97
   0  -1   2 1016.16    7.73
   0  -1   2 1041.36    6.43
   0  -1   3 2482.58   13.93
   0  -1   3 2460.22   14.90
   0  -1   4 7906.44   36.57
   0  -1   4 8025.76   37.86
   0  -1  -5  146.64    2.61
   0  -1  -5  139.64    3.08
   0  -1   5  148.25    3.71
   0  -1  -6  178.59    3.13
   0  -1  -6  176.73    3.90
   0  -1   6  176.54    4.58
   0  -1  -6  178.37    4.70
   0  -1  -7   93.89    2.43
   0  -1  -7   86.00    3.02
   0  -1   7   87.95    3.59
   0  -1  -8  708.04    7.24
   0  -1  -8  685.07   11.14
   0  -1   8  704.16    8.84
   0  -1   8  685.45   11.24
   0  -1  -9   28.80    2.22
   0  -1  -9   36.00    2.35
   0  -1  -9   30.78    1.50
   0  -1  -9   28.44    2.49
   0  -1   9   34.47    2.71
   0  -1   9   31.65    2.01
   0  -1  -9   31.81    1.92
   0  -1   9   31.15    2.62
   0  -1  10  267.92    7.92
   0  -1  10  313.52    6.87
   0  -1 -10  263.69    4.51
   0  -1 -10  299.56    8.42
   0  -1 -10  288.39    7.34
   0  -1 -10  270.24    5.94
   0  -1  10  265.68    6.30
   0  -1  10  280.80    8.26
   0  -1  11   28.39    2.75
   0  -1  11   32.64    2.36
   0  -1  11   29.53    1.89
   0  -1 -11   32.71    2.94
   0  -1  11   34.24    3.14
   0  -1 -11   32.66    2.18
   0  -1  11   29.73    2.29
   0  -1 -11   33.80    2.71
   0  -1  12   34.22    3.20
   0  -1  12   33.99    2.57
   0  -1 -12   34.35    3.09
   0  -1  12   36.67    3.38
   0  -1  12   27.69    2.32
   0  -1 -12   37.48    2.41
   0  -1 -12   35.73    2.91
   0  -1  13  208.16    7.83
   0  -1 -13  216.74    7.82
   0  -1  13  208.07    6.37
   0  -1 -13  229.50    6.31
   0  -1 -13  208.74    7.10
   0  -1 -13  205.53    5.53
   0  -1  13  206.94    8.02
   0  -1 -14  193.03    5.66
   0  -1  14  195.67    5.95
   0  -1 -14  191.45    6.74
   0  -1 -15  459.03    8.17
   0  -1  15  427.09    8.09
   0  -1 -16   16.70    1.82
   0  -1 -17    6.85    1.08
   0  -1 -17    5.70    0.85
   0  -1 -17    7.82    1.07
   0  -1 -18    6.51    0.79
   0   0  -2 1913.28    9.95
   0   0  -2 1954.58    8.41
   0   0  -3  481.91    4.68
   0   0  -3  486.18    3.30
   0   0  -4   39.57    0.97
   0   0   4   36.87    1.63
   0   0   4   39.07    1.73
   0   0  -5  728.53    7.50
   0   0   5  737.33    8.39
   0   0  -5  723.01    5.18
   0   0  -6   58.66    2.66
   0   0  -6   65.75    1.53
   0   0  -6   58.45    2.27
   0   0   6   57.61    2.52
   0   0   7    0.21    0.59
   0   0  -7    0.92    0.27
   0   0  -7    0.77    0.50
   0   0   7    0.69    0.71
   0   0  -7    0.43    0.60
   0   0  -8  341.67    7.75
   0   0  -8  308.72    3.91
   0   0   8  335.12    7.49
   0   0   8  323.64    7.16
   0   0  -8  316.94    6.31
   0   0   8  343.10    5.30
   0   0  -9  251.09    6.12
   0   0   9  300.58    5.33
   0   0  -9  309.93    8.10
   0   0  -9  266.15    3.69
   0   0   9  289.81    7.30
   0   0  -9  306.65    7.14
   0   0   9  303.31    7.76
   0   0 -10  342.97    8.05
   0   0 -10  334.28    8.68
   0   0  10  366.22    6.20
   0   0 -10  315.31    7.47
   0   0  10  324.71    8.28
   0   0  10  382.70    7.93
   0   0 -10  338.36    6.03
   0   0  10  344.38    8.95
   0   0 -11  138.02    5.42
   0   0 -11  131.88    5.79
   0   0  11  129.86    5.49
   0   0  11  128.62    4.90
   0   0  11  142.74    6.21
   0   0  12  159.66    6.88
   0   0  12  150.42    6.17
   0   0  12  163.79    5.41
   0   0 -12  160.92    6.67
   0   0  12  139.70    5.33
   0   0 -12  153.67    5.94
   0   0  13  243.12    7.99
   0   0 -13  253.50    8.49
   0   0 -13  244.74    7.73
   0   0  13  257.09    7.17
   0   0  13  227.90    6.85
   0   0 -14   41.08    3.21
   0   0 -14   42.96    2.56
   0   0  14   39.98    2.83
   0   0 -15  140.21    5.62
   0   0 -16   62.46    3.44
   0   0 -17   94.43    3.59
   0   0 -17   97.34    3.37
   0   1   0    0.31    0.15
   0   1  -1 2459.72   10.23
   0   1  -1 2530.89   11.20
   0   1   2 1066.05    6.16
   0   1  -2 1055.02    5.25
   0   1   2 1068.20    6.86
   0   1   3 2451.55   12.14
   0   1  -3 2499.56   13.24
   0   1   3 2389.61   11.32
   0   1  -3 2368.08    9.48
   0   1   4 7881.95   34.75
   0   1   4 8199.30   36.82
   0   1  -5  138.55    1.54
   0   1   5  148.97    3.32
   0   1   5  150.28    3.67
   0   1  -5  140.23    3.73
   0   1  -6  175.64    4.66
   0   1   6  179.44    4.11
   0   1   6  177.54    4.45
   0   1  -6  168.50    1.85
   0   1  -7   91.34    3.73
   0   1   7   89.81    2.58
   0   1   7   90.16    3.52
   0   1   7   86.55    3.16
   0   1  -7   95.33    1.43
   0   1   8  713.53   11.13
   0   1  -8  744.93   11.74
   0   1   8  732.31    8.22
   0   1   9   31.68    1.77
   0   1  -9   33.56    2.62
   0   1   9   29.46    2.21
   0   1   9   28.26    2.41
   0   1   9   32.02    2.30
   0   1  -9   30.66    2.28
   0   1  10  278.96    5.56
   0   1 -10  288.34    8.06
   0   1  10  255.85    6.88
   0   1  10  277.24    7.99
   0   1  10  262.09    7.00
   0   1 -10  285.30    7.31
   0   1  11   31.80    1.96
   0   1 -11   31.19    2.83
   0   1  11   31.82    2.57
   0   1  11   31.28    2.92
   0   1  11   29.50    2.50
   0   1 -11   33.53    2.71
   0   1 -12   34.35    3.09
   0   1  12   32.40    2.73
   0   1  12   31.75    3.10
   0   1  12   34.81    2.79
   0   1 -12   35.49    2.90
   0   1 -13  197.40    7.09
   0   1  13  207.42    7.83
   0   1 -13  213.11    7.06
   0   1 -13  201.99    7.45
   0   1 -14  195.27    6.73
   0   1 -14  150.31    5.72
   0   1 -15  457.22    9.94
   0   1 -15  463.80    8.99
   0   1 -16   13.13    1.53
   0   1 -16   15.30    1.74
   0   1 -17    4.50    1.06
   0   1 -17    5.32    0.91
   0   1 -17    6.81    1.06
   0   1 -18    5.23    0.74
   0   2   1  507.86    2.65
   0   2   1  446.49    2.89
   0   2  -1  453.27    4.25
   0   2   1  506.59    4.73
   0   2  -1  529.00    5.28
   0   2  -1  517.83    3.52
   0   2   2 1976.42   11.49
   0   2  -2 2062.46   10.75
   0   2   2 2006.42   10.65
   0   2  -2 2007.07   10.69
   0   2  -2 2060.31   10.92
   0   2   2 2076.12   12.42
   0   2   3 2876.30   15.17
   0   2  -3 2937.79   13.49
   0   2  -3 2843.51   15.99
   0   2  -3 2931.68   15.47
   0   2   3 2897.05   15.90
   0   2   4 1274.04    8.45
   0   2   4 1244.59   10.18
   0   2  -4 1200.84    6.66
   0   2   4 1283.49    8.97
   0   2  -4 1287.24   10.79
   0   2   4 1152.65    9.33
   0   2  -4 1208.35    9.66
   0   2   5  363.67    4.79
   0   2   5  371.62    5.86
   0   2  -5  358.43    5.41
   0   2   6 1365.43   13.22
   0   2   6 1325.85   11.18
   0   2  -6 1355.00   12.25
   0   2   7  740.94   10.37
   0   2   7  704.66    8.34
   0   2  -7  697.92    9.21
   0   2  -7  742.39   10.77
   0   2  -8  667.55   10.88
   0   2   8  607.45    8.61
   0   2   8  601.22   10.20
   0   2   8  689.48   10.84
   0   2   8  593.28    8.11
   0   2  -8  603.20    9.22
   0   2   9   40.19    2.15
   0   2  -9   35.11    2.39
   0   2  -9   36.29    2.71
   0   2   9   35.48    2.22
   0   2   9   37.99    2.75
   0   2  -9   40.21    2.61
   0   2  10   78.00    3.42
   0   2 -10   85.15    4.01
   0   2  10   89.63    3.28
   0   2 -10   87.59    3.99
   0   2  10   89.16    4.48
   0   2 -11  163.01    5.82
   0   2 -11  168.42    6.45
   0   2  11  150.61    6.21
   0   2 -12  193.22    6.74
   0   2 -12  206.42    7.28
   0   2 -12  184.58    6.40
   0   2  12  212.77    7.65
   0   2 -13  204.17    6.79
   0   2 -13  211.88    7.43
   0   2 -13  199.44    7.28
   0   2 -13  216.44    6.92
   0   2  13  199.04    7.44
   0   2 -14  218.57    6.72
   0   2 -14  221.56    7.22
   0   2 -14  226.58    7.00
   0   2 -15  292.82    7.28
   0   2 -15  299.14    7.64
   0   2 -15  311.45    7.70
   0   2  16  146.38    4.48
   0   2 -16  133.82    4.35
   0   2 -16  139.57    4.66
   0   2 -17   92.08    2.89
   0   3   0    3.18    0.53
   0   3  -1 1028.15    8.32
   0   3  -1  916.97    8.99
   0   3   2  967.03    8.89
   0   3  -2  831.67    5.72
   0   3   2  883.18    7.98
   0   3  -2  903.19    7.32
   0   3   3  783.65    8.37
   0   3  -3  819.62    6.78
   0   3   3  804.63    7.73
   0   3  -3  792.83    6.64
   0   3   3  750.52    6.26
   0   3  -3  726.50    5.87
   0   3   4  621.61    7.65
   0   3  -4  666.85    6.84
   0   3   4  657.12    7.11
   0   3  -4  623.26    5.42
   0   3   4  598.62    6.60
   0   3  -5  461.56    6.32
   0   3   5  467.85    6.15
   0   3  -5  457.84    4.22
   0   3   5  457.50    6.56
   0   3   6  193.26    4.69
   0   3  -6  184.68    4.33
   0   3   6  187.17    4.54
   0   3  -7   55.35    2.60
   0   3   7   51.99    2.47
   0   3   7   53.67    2.75
   0   3  -7   45.18    2.57
   0   3  -7   55.66    2.99
   0   3   8  673.42    9.50
   0   3  -8  688.29   10.14
   0   3   8  679.59   10.83
   0   3  -8  699.55   11.31
   0   3  -8  671.00   10.79
   0   3  -9  676.91   11.56
   0   3   9  648.95   11.40
   0   3  -9  736.90   11.15
   0   3  -9  698.69   10.92
   0   3   9  679.93    9.88
   0   3  -9  711.71   11.99
   0   3 -10  138.73    5.39
   0   3  10  135.04    5.45
   0   3 -10  140.98    5.10
   0   3  10  138.09    4.46
   0   3 -10  147.42    5.60
   0   3 -11    9.14    1.44
   0   3 -11    7.56    1.44
   0   3 -11   11.02    1.78
   0   3  11    8.83    1.60
   0   3 -12   93.31    4.33
   0   3 -12   82.43    4.95
   0   3 -12   79.52    4.24
   0   3 -12   90.53    4.55
   0   3  12   89.45    4.27
   0   3  12   79.86    4.45
   0   3 -13  710.24   12.58
   0   3 -13  730.96   12.12
   0   3 -14   68.89    3.67
   0   3  14   69.63    3.70
   0   3 -14   61.86    3.93
   0   3 -15    4.03    1.02
   0   3  15    3.54    0.92
   0   3 -15    3.73    1.08
   0   3 -16    7.01    1.20
   0   3 -16    6.43    0.99
   0   3 -16    5.49    1.07
   0   3 -16    5.83    1.01
   0   3 -17   12.56    1.14
   0   3 -17    9.91    0.97
   0   4   0 1478.39   12.22
   0   4  -1  113.82    3.01
   0   4  -1   92.20    3.23
   0   4  -2  598.70    6.97
   0   4   2  574.58    8.50
   0   4   3  386.33    6.23
   0   4  -3  389.17    5.33
   0   4   3  382.38    6.89
   0   4   4  712.23    8.76
   0   4  -4  705.73    7.05
   0   4   5 1560.50   15.15
   0   4  -5 1577.32   16.76
   0   4   6  606.22   10.33
   0   4   6  593.70    9.20
   0   4  -6  545.04   10.06
   0   4  -6  537.97    8.78
   0   4   7   65.96    3.54
   0   4   7   73.12    3.31
   0   4  -7   66.74    3.03
   0   4   8  610.30   11.41
   0   4   8  590.44    9.70
   0   4   9  241.73    7.34
   0   4  -9  218.79    7.05
   0   4   9  232.38    6.04
   0   4  10  301.50    8.43
   0   4 -10  278.35    8.15
   0   4  11  201.26    6.89
   0   4 -11  210.88    7.04
   0   4 -12   42.20    3.49
   0   4  12   43.88    3.16
   0   4 -12   39.32    2.99
   0   4  13  182.43    6.06
   0   4 -13  182.69    6.03
   0   4 -14   31.42    2.61
   0   4  14   32.75    2.35
   0   4 -14   29.03    2.25
   0   4 -14   28.53    2.44
   0   4 -15   53.15    2.54
   0   4 -15   57.96    2.97
   0   4 -15   47.94    2.87
   0   4 -16    2.90    0.69
   0   4 -16    3.10    0.68
   0   5   0   -0.04    0.57
   0   5   0   -0.07    0.42
   0   5   0    0.30    0.58
   0   5  -1   48.66    2.65
   0   5   1   54.61    2.82
   0   5   1   57.15    2.91
   0   5  -1   55.95    3.05
   0   5  -1   60.68    2.58
   0   5   1   64.43    2.83
   0   5   1   58.40    3.03
   0   5  -1   53.17    2.89
   0   5  -2  285.99    6.51
   0   5   2  342.22    7.12
   0   5   2  243.21    5.79
   0   5   2  262.11    6.07
   0   5  -2  311.87    5.73
   0   5   2  279.96    6.93
   0   5  -2  283.04    6.90
   0   5   3 1012.12   12.63
   0   5   3  921.47   11.59
   0   5  -3 1053.21   10.48
   0   5   3  953.76   11.57
   0   5   3 1075.31   13.33
   0   5   3  995.08   11.68
   0   5  -3  967.02   13.50
   0   5   3  977.39   13.52
   0   5   4   24.96    2.21
   0   5   4   29.72    1.96
   0   5   4   23.19    1.96
   0   5   4   24.34    1.98
   0   5   4   18.69    1.64
   0   5  -4   25.43    2.27
   0   5  -4   25.33    2.26
   0   5  -5   39.49    2.97
   0   5   5   39.23    2.81
   0   5   5   38.27    2.61
   0   5  -5   38.38    2.89
   0   5   5   33.14    2.15
   0   5  -6  466.01    9.10
   0   5   6  618.80   10.72
   0   5  -6  446.25   10.62
   0   5  -6  606.42   11.75
   0   5  -6  592.84   11.43
   0   5   6  580.93   11.15
   0   5   7  677.19   11.62
   0   5  -7  725.61   13.40
   0   5  -7  723.40   13.09
   0   5   7  688.48   12.71
   0   5  -8   32.68    2.31
   0   5  -8   25.80    2.78
   0   5  -8   24.07    2.52
   0   5  -8   22.18    2.49
   0   5   8   19.76    2.28
   0   5   8   30.40    2.41
   0   5  -9  331.07    9.95
   0   5  -9  379.68    9.70
   0   5  -9  432.47   10.66
   0   5   9  422.76   10.13
   0   5   9  358.20    7.96
   0   5 -10  124.62    6.03
   0   5  10   94.81    4.76
   0   5 -10   93.80    4.72
   0   5 -10  127.24    5.74
   0   5  11  156.69    5.88
   0   5 -11  164.28    6.00
   0   5 -12  139.94    5.85
   0   5  12  135.77    5.14
   0   5 -12  142.07    5.62
   0   5 -12  146.52    5.29
   0   5  13   80.00    3.52
   0   5 -13   77.79    3.76
   0   5 -14   41.69    2.46
   0   5 -15   31.00    1.74
   0   5 -15   36.91    1.95
   0   6   0  186.52    5.67
   0   6   0  192.52    5.96
   0   6  -1  213.51    6.14
   0   6   1  212.49    6.09
   0   6  -1  198.73    6.26
   0   6  -2  170.83    5.94
   0   6   2  180.64    5.38
   0   6  -2  167.03    5.75
   0   6   2  183.57    5.76
   0   6   3   79.59    3.48
   0   6  -3   89.63    4.44
   0   6   3   90.32    4.27
   0   6  -3   98.33    4.51
   0   6  -3   75.72    3.76
   0   6   3   93.66    4.13
   0   6   4  212.99    6.93
   0   6  -4  194.28    6.71
   0   6   4  201.55    6.07
   0   6   5  740.24   11.93
   0   6  -5  644.61   11.65
   0   6  -5  680.17   11.77
   0   6   5  759.20   12.67
   0   6  -5  797.58   13.72
   0   6   5  814.05   13.77
   0   6   6   35.22    2.58
   0   6  -6   44.16    3.20
   0   6  -6   46.26    3.02
   0   6   6   42.47    2.95
   0   6  -6   41.46    3.22
   0   6   6   36.46    2.95
   0   6   7  236.11    6.56
   0   6  -7  236.10    7.56
   0   6  -7  249.25    6.67
   0   6   7  219.56    6.55
   0   6  -7  245.70    7.76
   0   6   7  226.53    7.29
   0   6  -8   19.40    1.84
   0   6  -8   25.81    2.61
   0   6   8   18.91    1.90
   0   6   8   24.42    2.44
   0   6  -8   23.96    2.52
   0   6  -9   73.48    4.27
   0   6   9   65.64    3.25
   0   6   9   70.34    3.91
   0   6  -9   69.04    4.05
   0   6 -10  172.41    6.12
   0   6  10  166.20    5.72
   0   6 -10  181.19    6.45
   0   6 -11  166.66    5.62
   0   6  11  171.08    5.37
   0   6 -11  179.56    6.04
   0   6 -12    8.69    1.41
   0   6 -12   14.07    1.58
   0   6 -13  108.80    3.41
   0   6 -13  118.62    3.65
   0   6 -13  115.07    3.73
   0   6 -14    2.16    0.50
   0   7   0    1.01    0.76
   0   7   0    0.77    0.65
   0   7  -1   21.22    2.14
   0   7   1   23.13    2.02
   0   7   1   22.94    2.07
   0   7  -1   24.87    2.21
   0   7   2   83.81    3.68
   0   7   2   90.28    4.00
   0   7  -3  272.93    7.70
   0   7   3  233.62    6.43
   0   7  -4  374.63    8.87
   0   7  -4  381.17    8.85
   0   7  -4  343.59    8.79
   0   7   4  325.94    7.58
   0   7  -5  208.00    6.64
   0   7  -5  197.55    6.26
   0   7   5  194.34    5.68
   0   7  -6   20.31    2.15
   0   7  -6   23.31    2.08
   0   7  -6   22.20    2.33
   0   7   6   21.00    1.86
   0   7  -7   34.41    2.70
   0   7  -7   34.94    2.32
   0   7  -7   35.19    2.81
   0   7   7   32.63    2.16
   0   7  -8  304.54    7.82
   0   7  -8  319.73    6.29
   0   7  -9  344.80    7.86
   0   7  -9  321.69    7.31
   0   7 -10   17.27    1.62
   0   7 -11   75.33    2.82
   0   7 -12   30.57    1.55
   0   8   0  175.43    5.01
   0   8  -1   11.75    1.44
   0   8  -2   64.91    3.51
   0   8  -2   66.02    3.23
   0   8   2   63.23    2.92
   0   8  -3  131.02    4.64
   0   8   3  141.29    4.22
   0   8  -4   48.70    2.80
   0   8  -4   53.48    2.98
   0   8   4   53.43    2.44
   0   8  -5   55.54    2.82
   0   8  -5   49.25    2.82
   0   8  -6   47.56    2.35
   0   8  -6   46.14    2.66
   0   8  -7   54.97    2.17
   0   8  -7   58.18    2.80
   0   8  -8   15.94    1.41
   0   8  -9    9.25    1.01
   0   9   0    0.03    0.53
   0   9  -1    3.41    0.80
   0   9  -2  150.68    4.05
   0   9   3   94.56    3.21
   0   9  -3  105.47    3.13
   0   9  -4   21.09    1.30
   0   9   4   24.10    1.52
   0   9  -4   25.02    1.34
  -1  -9   4   42.48    1.63
  -1  -9   3   35.94    1.62
  -1  -9   2   36.86    1.71
  -1  -9   1   25.45    1.48
  -1  -9   0   91.49    2.82
  -1  -9   0   95.67    2.56
  -1  -9  -1   82.07    2.67
  -1  -9  -1   65.64    2.17
  -1  -9  -2   95.07    2.65
  -1  -9  -3   11.44    0.93
  -1  -9  -4   10.75    0.88
   1  -8  -9    3.10    0.52
  -1  -8   8   17.69    1.18
   1  -8  -8   15.12    1.18
  -1  -8   7    6.57    0.88
   1  -8  -7    6.98    0.92
  -1  -8   6   34.32    1.95
   1  -8  -6   37.24    2.01
  -1  -8   5   34.26    2.03
   1  -8  -5   24.70    1.70
  -1  -8   4  184.61    4.87
  -1  -8   4  183.06    4.56
  -1  -8   3  139.43    4.40
  -1  -8   3  135.64    4.11
  -1  -8   2   81.21    3.43
  -1  -8   2   72.70    3.08
  -1  -8   1  176.30    4.94
  -1  -8   0   60.19    2.94
  -1  -8  -1  196.14    5.17
  -1  -8  -1  149.25    4.70
  -1  -8  -2  201.34    5.44
  -1  -8  -2  172.91    4.91
  -1  -8  -3  144.85    4.59
  -1  -8  -3  114.44    4.00
  -1  -8  -4  413.27    7.62
  -1  -8  -4  455.48    8.10
  -1  -8  -5   38.43    2.29
  -1  -8  -5   38.98    2.26
  -1  -8  -6    7.45    1.07
  -1  -8  -6    8.58    1.11
  -1  -8  -7   20.39    1.51
  -1  -8  -7   24.27    1.67
  -1  -8  -8   44.59    2.04
  -1  -8  -8   48.97    2.08
  -1  -8  -9   20.78    1.22
  -1  -8  -9   23.81    1.29
   1  -7 -12  185.35    3.50
   1  -7 -11   11.04    1.01
   1  -7 -11   12.14    1.14
   1  -7 -11   13.27    1.14
  -1  -7  10   44.23    2.07
   1  -7 -10   39.58    2.12
   1  -7 -10   39.99    2.21
   1  -7  -9   16.63    1.43
  -1  -7   9   13.44    1.32
   1  -7  -9   16.17    1.58
   1  -7  -9   16.06    1.50
   1  -7  -8   34.56    2.11
  -1  -7   8   32.05    2.13
   1  -7  -8   31.64    2.16
   1  -7  -8   35.64    2.39
   1  -7  -7   75.74    3.11
  -1  -7   7   75.59    3.36
   1  -7  -7   65.56    3.32
   1  -7  -7   68.19    3.24
   1  -7  -6  530.52    9.58
   1  -7  -6  505.11    8.97
  -1  -7   6  513.01    8.69
  -1  -7   5  147.14    4.93
   1  -7  -5  146.37    4.98
  -1  -7   5  162.15    5.30
  -1  -7   4   80.39    3.73
   1  -7  -4   90.94    3.87
   1  -7  -3  186.29    5.46
   1  -7  -3  177.59    5.16
  -1  -7   2   36.75    2.52
   1  -7  -2   30.97    2.17
  -1  -7   1  185.06    5.57
  -1  -7   1  191.67    5.84
  -1  -7   0  432.20    8.79
  -1  -7   0  550.89    9.97
  -1  -7  -1  247.99    6.64
  -1  -7  -1  255.08    6.84
  -1  -7  -2   78.68    3.78
  -1  -7  -2   83.19    3.92
   1  -7   3  305.43    6.35
  -1  -7  -3  297.46    7.44
  -1  -7  -3  288.60    7.04
  -1  -7  -4   60.68    3.44
  -1  -7  -4   59.49    3.35
  -1  -7  -5  331.28    7.92
  -1  -7  -5  316.03    6.77
  -1  -7  -6   33.49    2.53
  -1  -7  -6   36.34    2.62
  -1  -7  -6   34.88    2.31
  -1  -7  -7   64.83    3.39
  -1  -7  -7   63.42    3.08
  -1  -7  -8   95.27    3.93
  -1  -7  -8   94.49    3.63
  -1  -7  -9   69.37    3.15
  -1  -7  -9   69.97    2.96
  -1  -7 -10   98.78    3.43
  -1  -7 -10  100.29    3.27
  -1  -7 -11   37.74    1.86
  -1  -7 -11   40.11    1.83
  -1  -7 -12    1.04    0.34
   1  -6 -14   50.84    1.78
   1  -6 -14   50.37    1.76
   1  -6 -14   48.47    1.74
   1  -6 -13  117.61    3.38
   1  -6 -13  109.24    3.32
   1  -6 -12    8.06    1.11
  -1  -6  12    7.40    0.94
   1  -6 -12    7.26    1.08
   1  -6 -12    8.11    1.18
  -1  -6  11  115.09    3.85
   1  -6 -11  111.50    4.25
   1  -6 -11  117.57    4.27
   1  -6 -10  157.66    5.12
  -1  -6  10  144.13    4.66
   1  -6 -10  147.49    5.10
   1  -6 -10  146.03    5.22
   1  -6  -9  101.94    4.32
  -1  -6   9  107.95    4.22
   1  -6  -9  142.75    5.16
   1  -6  -9  162.71    5.71
   1  -6  -8  350.83    8.01
  -1  -6   8  349.63    7.80
   1  -6  -8  367.04    8.73
   1  -6  -8  348.29    8.21
   1  -6  -7   67.39    3.47
   1  -6  -7   62.39    3.60
  -1  -6   7   63.41    3.24
   1  -6  -7   59.59    3.39
   1  -6  -7   65.43    3.45
   1  -6  -6  313.02    7.28
  -1  -6   6  330.42    7.56
  -1  -6   6  254.78    6.60
   1  -6  -6  285.28    7.54
   1  -6  -6  270.76    7.05
   1  -6  -6  300.88    7.34
  -1  -6   5  318.39    7.46
   1  -6  -5  304.40    6.89
   1  -6  -5  280.45    7.28
   1  -6  -5  309.68    7.33
  -1  -6   5  295.15    7.03
   1  -6  -5  277.74    6.96
   1  -6  -4  776.97   11.45
  -1  -6   4  801.66   11.79
   1  -6  -4  689.72   11.31
   1  -6  -4  699.01   10.93
   1  -6  -3  324.08    7.30
  -1  -6   3  340.68    7.48
   1  -6  -3  317.88    6.91
  -1  -6   3  335.41   10.51
   1  -6  -3  307.44    6.88
  -1  -6   2  117.67    4.38
  -1  -6   2  130.44    4.70
   1  -6  -2  125.25    4.35
   1  -6  -2  119.09    4.09
  -1  -6   1    4.46    0.98
  -1  -6   1    5.15    1.04
   1  -6  -1    4.61    0.91
   1  -6  -1    5.43    0.92
  -1  -6   0   96.67    4.05
  -1  -6   0   95.21    4.05
  -1  -6   0   96.04    3.72
  -1  -6  -1  501.81    9.48
  -1  -6  -1  517.26    8.97
  -1  -6  -2   18.63    1.92
  -1  -6  -2   17.17    1.82
  -1  -6  -2   15.78    1.65
  -1  -6  -3  435.31    8.16
  -1  -6  -3  432.67    9.22
  -1  -6  -3  449.10    9.30
  -1  -6  -3  457.39    8.89
   1  -6   4   24.21    1.77
  -1  -6  -4   22.17    2.14
  -1  -6  -4   21.97    2.16
  -1  -6  -4   18.85    1.94
  -1  -6  -5  224.76    6.42
  -1  -6  -5  239.76    7.01
  -1  -6  -5  237.01    6.99
  -1  -6  -5  247.05    6.72
  -1  -6  -6  373.34    8.92
  -1  -6  -6  373.63    8.87
  -1  -6  -6  399.24    8.65
  -1  -6  -7  279.55    7.75
  -1  -6  -7  324.83    8.21
  -1  -6  -8  313.43    8.16
  -1  -6  -8  271.47    7.34
  -1  -6  -9  362.12    8.54
  -1  -6  -9  309.31    7.65
  -1  -6 -10  128.93    4.81
  -1  -6 -10  134.66    4.78
  -1  -6 -10  133.41    4.80
  -1  -6 -11    5.82    1.03
  -1  -6 -11    5.19    1.06
  -1  -6 -12    0.36    0.53
  -1  -6 -12    0.36    0.51
  -1  -6 -13    1.09    0.51
  -1  -6 -13    0.72    0.38
  -1  -6 -13    1.09    0.49
   1  -5 -15   30.06    1.56
   1  -5 -15   27.20    1.47
   1  -5 -14   44.26    2.28
   1  -5 -13   10.42    1.36
   1  -5 -13    9.60    1.32
  -1  -5  13    9.35    1.16
   1  -5 -13    9.48    1.31
   1  -5 -12  110.60    4.49
   1  -5 -12  106.98    4.33
   1  -5 -11  124.30    4.99
  -1  -5  11  122.25    4.58
   1  -5 -11  129.87    5.10
  -1  -5  10    8.70    1.83
   1  -5 -10   11.98    1.70
   1  -5 -10   10.30    1.45
   1  -5 -10   13.33    1.75
  -1  -5  10   11.70    1.60
   1  -5  -9  334.37    8.32
   1  -5  -9  360.38    8.03
   1  -5  -9  344.07    8.28
  -1  -5   9  339.96    7.88
  -1  -5   8  538.99   12.43
  -1  -5   8  461.18    9.04
   1  -5  -8  490.06    9.95
   1  -5  -8  497.01    9.80
  -1  -5   8  538.04    9.79
  -1  -5   7  344.53    9.55
  -1  -5   7  339.50    7.55
   1  -5  -7  332.15    7.90
   1  -5  -7  360.01    7.85
   1  -5  -7  348.86    7.83
  -1  -5   6  497.44   11.00
  -1  -5   6  496.91    8.97
   1  -5  -6  475.06    8.75
  -1  -5   6  492.41    8.94
   1  -5  -6  482.87    8.94
  -1  -5   5  154.22    5.75
  -1  -5   5  134.00    4.50
   1  -5  -5  145.82    4.78
   1  -5  -5  149.09    4.70
   1  -5  -5  146.47    4.66
  -1  -5   4  249.14    6.85
  -1  -5   4  275.10    6.30
   1  -5  -4  284.82    6.43
   1  -5  -4  255.30    6.37
   1  -5  -4  256.82    5.99
   1  -5  -4  273.20    5.99
  -1  -5   3  492.50    8.95
  -1  -5   3  530.84    8.72
  -1  -5   3  496.43    8.67
   1  -5  -3  507.95    8.20
   1  -5  -3  517.23    8.29
  -1  -5   2  244.44    5.91
   1  -5  -2  255.24    5.55
  -1  -5   1  241.39    5.83
  -1  -5   1  316.44    6.81
   1  -5  -1  262.03    5.59
   1  -5  -1  284.71    5.60
  -1  -5   1  299.52    5.93
  -1  -5   0  547.01    9.01
  -1  -5   0  550.82    8.24
   1  -5   0  572.47    7.61
  -1  -5  -1  203.13    5.49
  -1  -5  -1  207.05    5.53
   1  -5   1  215.74    4.26
  -1  -5  -2  215.64    5.78
  -1  -5  -2  199.71    5.57
  -1  -5  -2  215.82    5.37
  -1  -5  -3   49.61    2.89
  -1  -5  -3   47.00    2.57
  -1  -5  -3   55.07    2.77
  -1  -5  -4  178.85    5.61
  -1  -5  -4  158.71    5.31
  -1  -5  -4  176.13    5.22
  -1  -5  -4  146.88    4.82
  -1  -5  -5  168.56    5.66
  -1  -5  -5  163.01    5.51
  -1  -5  -5  174.14    5.22
  -1  -5  -5  175.84    5.49
   1  -5   6  219.34    6.76
  -1  -5  -6  215.15    6.53
  -1  -5  -6  217.95    6.35
   1  -5   7  220.59    7.19
  -1  -5  -7  210.15    6.63
   1  -5   8   59.56    3.94
  -1  -5  -8   56.44    3.53
  -1  -5  -8   53.83    3.41
  -1  -5  -8   60.06    3.22
  -1  -5  -8   57.52    3.47
   1  -5   9   42.73    3.45
  -1  -5  -9   48.86    3.26
  -1  -5  -9   43.78    3.11
  -1  -5  -9   49.78    2.89
  -1  -5 -10  318.56    8.08
  -1  -5 -10  336.79    8.29
  -1  -5 -11  162.55    5.50
  -1  -5 -11  151.39    5.43
  -1  -5 -11  170.18    5.72
  -1  -5 -12   28.12    2.24
  -1  -5 -12   27.55    2.12
  -1  -5 -13   82.02    3.31
  -1  -5 -13   71.34    2.91
  -1  -5 -14   83.78    2.82
  -1  -5 -14   84.06    2.89
  -1  -5 -15   20.36    1.11
   1  -4 -16   56.88    2.09
   1  -4 -16   58.10    2.02
  -1  -4  15   76.19    2.66
   1  -4 -15   74.35    2.88
  -1  -4  14   86.82    3.43
   1  -4 -14   84.41    3.54
   1  -4 -13   41.00    2.79
  -1  -4  13   39.89    2.57
   1  -4 -12   10.05    1.58
  -1  -4  12    9.51    1.43
  -1  -4  11  152.75    7.00
   1  -4 -11  152.13    5.64
   1  -4 -11  146.60    4.83
  -1  -4  11  135.55    5.04
   1  -4 -11  158.46    5.55
  -1  -4  10  366.05   10.78
   1  -4 -10  385.12    8.94
   1  -4 -10  361.91    7.55
   1  -4 -10  386.59    8.66
  -1  -4   9   84.82    5.06
   1  -4  -9   86.97    4.12
   1  -4  -9   93.18    3.84
  -1  -4   9   85.35    3.87
   1  -4  -9   92.46    4.12
  -1  -4   8  245.81    8.15
   1  -4  -8  214.26    6.24
  -1  -4   8  210.46    5.88
   1  -4  -8  238.08    6.07
   1  -4  -8  257.33    6.60
  -1  -4   8  208.86    5.76
  -1  -4   7  185.60    6.78
  -1  -4   7  183.42    5.23
   1  -4  -7  177.48    5.43
   1  -4  -7  180.79    5.29
  -1  -4   6  956.34   14.65
   1  -4  -6  952.20   12.23
  -1  -4   6  996.30   11.96
   1  -4  -6  954.56   11.70
   1  -4  -6  975.24   11.98
  -1  -4   5  128.90    5.07
   1  -4  -5  121.90    3.99
   1  -4  -5  131.22    4.02
  -1  -4   5  117.88    3.82
   1  -4  -5  139.28    4.14
  -1  -4   4  775.27   11.68
   1  -4  -4  797.24    9.77
  -1  -4   3  395.20    7.63
   1  -4  -3  403.49    6.52
  -1  -4   2   36.20    2.15
   1  -4  -2   39.82    1.94
  -1  -4   1    7.48    0.98
  -1  -4   1    7.06    0.83
   1  -4  -1    8.82    0.90
   1  -4   0  567.59    6.61
  -1  -4   0  583.26    7.44
   1  -4   1 1709.14   12.15
  -1  -4  -1 1793.40   14.19
   1  -4   2  647.83    7.92
   1  -4   2  642.46    6.25
  -1  -4  -2  626.86    8.26
   1  -4   3  630.79    8.77
  -1  -4  -3  693.59    8.90
  -1  -4  -4  167.46    4.43
  -1  -4  -4  177.42    4.97
  -1  -4  -5   42.08    2.57
  -1  -4  -5   43.88    2.60
   1  -4   6   61.75    3.50
  -1  -4  -6   59.95    3.15
  -1  -4  -6   70.10    3.08
   1  -4   7  551.29   11.20
  -1  -4  -7  607.84    9.36
   1  -4   8  151.31    6.20
  -1  -4  -8  164.48    4.90
  -1  -4  -9  326.84    8.24
  -1  -4  -9  329.11    7.08
  -1  -4  -9  346.44    8.38
   1  -4  10   51.71    3.92
  -1  -4 -10   48.55    2.67
   1  -4  11  307.64    9.60
  -1  -4 -11  315.70    7.98
  -1  -4 -11  269.56    7.48
  -1  -4 -11  282.43    6.24
  -1  -4 -12   47.79    3.02
  -1  -4 -12   46.28    2.91
  -1  -4 -12   45.01    2.96
  -1  -4 -13   18.46    1.80
  -1  -4 -13   15.95    1.62
  -1  -4 -13   15.88    1.68
  -1  -4 -14  112.67    3.82
  -1  -4 -14  116.18    3.87
  -1  -4 -15   46.63    2.18
  -1  -4 -15   50.01    2.12
   1  -3 -17  127.94    2.90
  -1  -3  16  127.99    3.38
   1  -3 -16  144.60    3.82
   1  -3 -15   24.22    1.80
  -1  -3  15   21.95    1.80
   1  -3 -15   25.02    2.00
   1  -3 -15   21.44    1.80
   1  -3 -14  342.38    7.63
   1  -3 -14  353.09    7.95
  -1  -3  13   66.77    3.58
   1  -3 -13   70.18    3.57
   1  -3 -13   60.90    3.48
   1  -3 -12  155.67    6.26
  -1  -3  12  147.53    6.36
  -1  -3  12  155.62    5.51
   1  -3 -12  163.90    5.55
   1  -3 -12  147.89    4.49
   1  -3 -11  146.33    4.51
  -1  -3  11  150.17    6.91
   1  -3 -11  135.54    5.45
   1  -3 -11  150.72    6.03
  -1  -3  11  147.42    5.39
  -1  -3  11  153.35    6.44
   1  -3 -11  163.43    5.48
  -1  -3  11  163.80    5.55
   1  -3 -11  155.36    5.58
   1  -3 -10  330.92    6.86
  -1  -3  10  339.52   10.14
   1  -3 -10  331.12    7.94
  -1  -3  10  301.02    7.98
   1  -3 -10  293.56    8.16
  -1  -3  10  298.69    7.38
  -1  -3  10  324.31    9.03
  -1  -3  10  322.01    7.53
   1  -3 -10  333.59    7.94
   1  -3  -9   27.14    1.94
  -1  -3   9   27.08    2.80
   1  -3  -9   28.38    2.25
  -1  -3   9   25.93    2.27
   1  -3  -9   26.15    2.44
  -1  -3   9   31.05    2.66
  -1  -3   9   27.54    2.15
  -1  -3   9   27.07    2.10
   1  -3  -9   26.83    2.17
  -1  -3   8  229.06    7.50
  -1  -3   8  205.27    5.97
   1  -3  -8  202.58    5.61
   1  -3  -8  218.23    6.37
  -1  -3   8  216.96    5.50
  -1  -3   8  231.92    6.74
   1  -3  -8  235.69    5.50
  -1  -3   8  222.37    5.60
  -1  -3   7 1501.45   18.45
   1  -3  -7 1369.65   14.51
  -1  -3   7 1489.40   16.03
   1  -3  -7 1331.83   15.10
   1  -3  -7 1442.41   13.83
  -1  -3   7 1476.52   14.23
  -1  -3   7 1281.57   15.39
  -1  -3   7 1417.78   13.69
  -1  -3   6  304.25    5.47
  -1  -3   6  295.96    6.54
  -1  -3   6  298.07    7.52
  -1  -3   6  282.67    6.46
  -1  -3   5   40.55    2.34
  -1  -3   5   43.77    2.72
  -1  -3   5   46.29    1.89
  -1  -3   5   40.90    2.19
   1  -3  -5   39.73    1.96
  -1  -3   4  455.39    7.51
  -1  -3   4  436.50    5.37
  -1  -3   4  431.12    6.52
  -1  -3   4  443.90    7.90
   1  -3  -4  450.24    6.35
  -1  -3   3   94.83    2.10
  -1  -3   3  103.18    3.52
   1  -3  -3  104.15    2.84
  -1  -3   2  330.85    3.47
  -1  -3   2  339.20    6.05
   1  -3  -2  333.59    4.84
  -1  -3   1  623.87    4.28
  -1  -3   1  648.08    7.67
   1  -3   0  698.90    6.46
  -1  -3   0  668.00    6.85
  -1  -3  -1  901.17    8.49
   1  -3   1  910.22    7.92
   1  -3   2  132.09    3.30
  -1  -3  -2  123.36    2.25
  -1  -3  -2  126.88    3.08
   1  -3   2  129.45    2.20
   1  -3   2  125.67    1.92
  -1  -3  -3 1825.28   12.57
   1  -3   3 1935.18    9.40
   1  -3   3 1891.75   15.45
   1  -3   3 1811.49   11.76
   1  -3   4 1060.83   12.14
   1  -3   4 1067.43    9.73
  -1  -3  -4 1059.77    9.88
   1  -3   5 1378.93   12.57
   1  -3   5 1351.83   15.05
  -1  -3  -6   71.08    2.99
   1  -3   6   71.55    3.62
  -1  -3  -6   65.89    2.99
  -1  -3  -6   76.43    2.82
   1  -3   6   74.11    3.04
  -1  -3  -7  180.72    5.18
   1  -3   7  189.06    5.35
   1  -3   7  169.84    6.94
  -1  -3  -7  179.00    4.45
  -1  -3  -8   83.94    5.29
  -1  -3  -8   92.17    4.00
  -1  -3  -8   78.64    3.60
  -1  -3  -8   95.70    3.96
   1  -3   8   86.38    3.93
   1  -3   8   85.57    4.54
   1  -3   9  197.06    6.43
  -1  -3  -9  205.86    5.01
  -1  -3  -9  193.12    6.18
  -1  -3  -9  198.29    6.02
  -1  -3  -9  200.26    6.10
  -1  -3  -9  215.05    6.17
   1  -3   9  192.25    7.17
   1  -3  10  626.51   12.29
  -1  -3 -10  683.07    9.32
  -1  -3 -10  647.97   12.05
   1  -3  10  699.96   14.18
  -1  -3 -10  700.72   11.79
  -1  -3 -10  731.87   12.38
  -1  -3 -10  625.41   11.06
  -1  -3 -11  129.78    5.29
  -1  -3 -11  149.36    5.93
   1  -3  11  133.29    6.39
   1  -3  11  138.20    5.82
  -1  -3 -11  135.13    5.21
  -1  -3 -11  153.37    5.43
  -1  -3 -12   62.33    3.45
  -1  -3 -12   54.32    3.46
   1  -3  12   62.44    4.45
  -1  -3 -13   18.00    2.02
  -1  -3 -13   19.04    1.88
  -1  -3 -13   16.84    1.75
  -1  -3 -14    6.85    1.24
  -1  -3 -14    6.53    1.10
  -1  -3 -14    8.09    1.18
  -1  -3 -15   17.18    1.59
  -1  -3 -15   15.34    1.55
   1  -2 -17   55.51    2.49
   1  -2 -17   51.58    2.07
  -1  -2  16   24.25    1.79
   1  -2 -16   25.56    1.83
  -1  -2  15  242.50    6.48
   1  -2 -15  260.47    5.86
   1  -2 -15  251.11    6.91
   1  -2 -15  253.57    6.40
  -1  -2  14  233.54    6.84
   1  -2 -14  272.40    6.57
   1  -2 -14  248.15    7.31
   1  -2 -14  261.95    6.99
  -1  -2  13  235.08    8.48
  -1  -2  13  267.05    7.88
   1  -2 -13  242.02    8.30
  -1  -2  13  247.61    8.76
   1  -2 -13  267.07    7.23
  -1  -2  13  221.00    7.03
  -1  -2  13  253.31    7.23
   1  -2 -13  271.51    6.79
   1  -2 -13  284.04    8.03
  -1  -2  12    7.97    1.52
  -1  -2  12    7.11    1.64
   1  -2 -12    6.44    1.54
  -1  -2  12    5.88    1.60
  -1  -2  12    6.26    1.32
  -1  -2  12    5.70    1.23
   1  -2 -12    5.40    1.11
   1  -2 -12    4.38    1.21
   1  -2 -11   87.50    3.22
  -1  -2  11   89.59    4.35
  -1  -2  11   86.14    4.90
   1  -2 -11   96.63    5.02
  -1  -2  11   87.20    5.07
  -1  -2  11   92.93    4.42
   1  -2 -11   90.20    3.84
  -1  -2  11   73.28    3.72
   1  -2 -11   89.87    4.40
   1  -2 -10   11.61    1.61
   1  -2 -10   10.13    1.15
   1  -2 -10   10.98    1.39
   1  -2 -10    8.05    1.52
  -1  -2  10   11.59    1.96
  -1  -2  10    9.88    1.49
  -1  -2  10   10.91    1.41
  -1  -2  10    9.23    1.45
  -1  -2  10   10.80    1.78
   1  -2  -9  445.49    8.89
   1  -2  -9  473.32    7.32
   1  -2  -9  478.51   10.15
  -1  -2   9  483.57    8.56
  -1  -2   9  448.69    8.87
  -1  -2   9  465.24   10.20
   1  -2  -9  502.72    8.45
   1  -2  -8  250.57    5.46
  -1  -2   8  246.50    6.10
  -1  -2   8  244.37    5.58
  -1  -2   8  256.44    7.05
  -1  -2   7  566.77   10.23
  -1  -2   7  549.72    8.65
   1  -2  -7  573.98    7.29
   1  -2  -7  560.52    7.60
  -1  -2   7  571.30    9.77
  -1  -2   6   90.23    3.83
  -1  -2   6   89.25    3.18
   1  -2  -6   98.08    2.80
   1  -2  -6   99.88    2.86
  -1  -2   6   94.60    3.64
  -1  -2   5  603.48    7.85
  -1  -2   5  603.90    7.15
  -1  -2   5  577.74    8.24
   1  -2  -5  551.50    6.30
  -1  -2   5  573.16    8.95
  -1  -2   4  255.30    4.72
  -1  -2   4  256.12    4.81
   1  -2  -4  261.90    3.79
  -1  -2   4  265.87    5.47
  -1  -2   3 8081.87   37.45
  -1  -2   3 8056.04   36.82
  -1  -2   3 7960.04   39.03
  -1  -2   2 2890.60   17.90
  -1  -2   2 2888.58   14.67
   1  -2  -2 2847.56   13.19
  -1  -2   2 2911.99   18.14
   1  -2  -1 3226.40   16.07
   1  -2  -1 3232.51   13.51
  -1  -2   1 3248.20   15.47
  -1  -2   0 3214.09   15.20
   1  -2   0 3377.45   15.60
  -1  -2   0 3272.66   15.37
   1  -2   0 3280.91   15.36
  -1  -2   0 3371.95   17.94
  -1  -2  -1  679.51    6.06
   1  -2   1  686.15    4.82
  -1  -2  -1  658.46    5.73
   1  -2   1  655.68    6.17
   1  -2   2 2017.99   11.73
   1  -2   2 2048.69    9.59
  -1  -2  -3  395.79    5.22
  -1  -2  -3  408.63    4.99
   1  -2   3  394.93    5.04
   1  -2   3  401.46    6.10
  -1  -2  -4  668.01    7.71
  -1  -2  -4  649.46    6.70
   1  -2   4  629.38    8.55
   1  -2   4  608.84    7.23
   1  -2   4  635.47    5.43
  -1  -2  -5 1136.48   11.98
  -1  -2  -5 1156.50    9.76
   1  -2   5 1129.74   12.86
   1  -2   5 1149.01   11.47
  -1  -2  -6 2922.80   17.79
   1  -2   6 2904.74   21.33
   1  -2   6 2934.96   23.53
  -1  -2  -7  270.45    6.61
   1  -2   7  280.50    4.89
  -1  -2  -7  290.20    4.98
   1  -2   7  288.49    7.37
   1  -2   7  293.36    6.68
  -1  -2  -8  726.22   10.14
  -1  -2  -8  709.48    8.32
  -1  -2  -8  789.21   12.32
  -1  -2  -8  734.57   10.22
  -1  -2  -8  696.61    9.39
   1  -2   8  707.58    8.74
  -1  -2  -8  653.10   10.49
   1  -2   8  739.27   11.77
   1  -2   8  700.12   12.59
  -1  -2  -9  443.89    8.36
  -1  -2  -9  494.04    6.95
  -1  -2  -9  556.53   11.08
  -1  -2  -9  502.91    9.70
   1  -2   9  521.25   10.62
  -1  -2  -9  485.73    8.93
   1  -2   9  500.65   11.21
  -1  -2 -10   14.57    1.63
  -1  -2 -10   14.16    1.21
  -1  -2 -10   14.70    1.91
  -1  -2 -10   14.71    1.86
   1  -2  10   15.11    2.01
  -1  -2 -10   15.11    1.62
   1  -2  10   16.97    2.23
  -1  -2 -11   53.48    3.65
  -1  -2 -11   56.11    3.59
   1  -2  11   50.28    3.69
  -1  -2 -11   52.38    3.08
  -1  -2 -11   56.27    3.18
  -1  -2 -12  110.23    4.47
   1  -2  12  127.84    4.54
  -1  -2 -12  121.06    5.61
  -1  -2 -12  127.24    5.49
  -1  -2 -12  119.12    4.49
   1  -2  12  116.05    5.87
  -1  -2 -13    8.11    1.32
  -1  -2 -13    7.50    1.47
   1  -2  13    5.86    1.56
  -1  -2 -13    8.43    1.28
  -1  -2 -13    7.69    1.54
  -1  -2 -14  529.88    8.56
  -1  -2 -14  559.91    9.15
  -1  -2 -15    0.47    0.70
  -1  -2 -16    4.16    0.93
  -1  -2 -16    2.29    0.80
  -1  -2 -17   35.41    1.75
  -1  -2 -17   30.75    1.68
   1  -1 -18   16.19    1.19
   1  -1 -17  150.78    4.54
   1  -1 -17  141.45    3.57
  -1  -1  16  149.30    4.73
   1  -1 -16  157.91    4.49
   1  -1 -16  142.10    5.06
   1  -1 -15   44.64    2.69
   1  -1 -15   43.93    3.20
  -1  -1  15   45.88    3.00
   1  -1 -14  184.96    6.60
  -1  -1  14  179.39    6.24
   1  -1 -14  187.74    5.26
   1  -1 -13  108.17    5.09
   1  -1 -13  113.39    5.67
  -1  -1  13  108.55    5.60
  -1  -1  13  110.84    5.04
   1  -1 -13  112.26    4.10
  -1  -1  13  118.98    5.39
  -1  -1  13  110.12    5.89
  -1  -1  12  192.10    7.68
  -1  -1  12  183.02    6.54
   1  -1 -12  196.40    6.35
   1  -1 -12  171.90    7.03
  -1  -1  12  177.86    7.13
  -1  -1  12  167.13    6.01
   1  -1 -12  177.75    5.15
  -1  -1  12  172.33    6.01
   1  -1 -12  185.71    6.57
   1  -1 -11   78.36    4.09
   1  -1 -11   67.02    2.53
   1  -1 -11   75.91    4.50
  -1  -1  11   80.26    4.61
  -1  -1  11   82.02    4.03
  -1  -1  11   75.51    4.61
  -1  -1  11   76.32    3.80
   1  -1 -10   19.09    1.97
   1  -1 -10   18.67    1.34
   1  -1 -10   18.08    1.77
   1  -1 -10   17.15    2.12
  -1  -1  10   20.53    1.92
  -1  -1  10   17.82    1.77
  -1  -1  10   17.43    2.14
  -1  -1  10   22.16    2.41
   1  -1  -9  193.36    4.07
   1  -1  -9  196.76    5.26
  -1  -1   9  178.52    6.01
  -1  -1   9  202.82    5.50
   1  -1  -9  183.25    5.58
  -1  -1   9  190.72    5.27
  -1  -1   9  193.04    6.41
  -1  -1   8  102.43    4.24
  -1  -1   8  102.00    3.66
   1  -1  -8  115.16    2.98
  -1  -1   8  106.28    4.41
   1  -1  -8  110.55    3.66
  -1  -1   7  280.24    5.61
  -1  -1   7  282.71    6.51
   1  -1  -7  286.48    5.48
   1  -1  -7  281.63    4.48
  -1  -1   6 1357.31   12.08
  -1  -1   6 1382.41   13.88
   1  -1  -6 1357.85   10.21
   1  -1  -5  731.28    6.71
   1  -1  -5  729.97    7.64
  -1  -1   4 2205.81   15.67
   1  -1  -4 2209.99   13.73
  -1  -1   3 3746.55   19.41
  -1  -1   3 3701.67   20.29
  -1  -1   3 3705.11   18.62
  -1  -1   3 3671.96   20.61
   1  -1  -3 3751.67   18.20
  -1  -1   2  527.44    5.28
   1  -1  -2  519.75    4.53
  -1  -1   2  525.48    5.49
  -1  -1   2  525.04    4.79
  -1  -1   1 9954.41   41.46
  -1  -1   1 9999.00   39.53
  -1  -1   0 2546.61   12.18
  -1  -1   0 2584.01   12.66
  -1  -1  -1 1742.36   10.24
  -1  -1  -1 1729.52   10.47
  -1  -1  -2 1678.50    9.25
  -1  -1  -2 1666.83   10.62
  -1  -1  -3  206.66    3.77
  -1  -1  -3  196.06    2.77
   1  -1   3  200.20    3.50
  -1  -1  -4  788.41    8.57
  -1  -1  -4  781.15    6.37
  -1  -1  -5 1284.56    9.04
   1  -1   5 1287.33   12.08
  -1  -1  -6  484.68    5.34
   1  -1   6  485.24    7.78
   1  -1   6  492.77    8.39
  -1  -1  -7  522.90    5.81
   1  -1   7  534.07    9.19
  -1  -1  -8  124.64    4.74
   1  -1   8  125.12    4.75
  -1  -1  -8  126.55    2.84
  -1  -1  -9  144.44    3.10
  -1  -1  -9  150.76    5.65
  -1  -1  -9  145.32    5.12
  -1  -1  -9  146.33    4.29
   1  -1   9  152.17    4.06
   1  -1   9  151.78    5.62
  -1  -1  -9  143.04    4.27
  -1  -1 -10  813.15   14.16
  -1  -1 -10  807.51   13.17
  -1  -1 -10  762.18   10.73
  -1  -1 -10  873.78   11.26
   1  -1  10  834.70   14.88
   1  -1  10  819.01   14.50
  -1  -1 -11   12.37    1.81
   1  -1  11   13.05    1.48
  -1  -1 -11   13.62    2.00
  -1  -1 -11   12.99    1.48
   1  -1  11   13.37    2.07
  -1  -1 -11   13.26    1.50
   1  -1  11   12.22    2.04
  -1  -1 -12 1250.09   17.94
   1  -1  12 1332.32   14.93
  -1  -1 -12 1167.34   18.22
   1  -1  12 1186.41   19.21
  -1  -1 -12 1214.72   13.88
   1  -1  12 1235.95   19.57
  -1  -1 -12 1261.39   14.73
  -1  -1 -13  148.61    4.78
   1  -1  13  144.04    6.54
   1  -1  13  153.06    6.99
  -1  -1 -13  152.21    6.19
  -1  -1 -13  156.44    4.61
  -1  -1 -13  151.04    6.37
  -1  -1 -14  133.08    5.64
  -1  -1 -15   63.34    3.50
  -1  -1 -15   73.55    3.95
  -1  -1 -16   81.76    3.36
  -1  -1 -16   84.24    3.78
  -1  -1 -17    1.22    0.59
  -1  -1 -17    1.33    0.44
  -1  -1 -17    1.46    0.66
  -1  -1 -17    0.99    0.56
   1   0 -17   98.01    2.96
   1   0 -16   11.82    1.40
   1   0 -16   12.80    1.32
   1   0 -16   12.97    1.65
   1   0 -15  199.95    6.68
  -1   0  15  211.88    6.60
   1   0 -14   78.69    4.37
  -1   0  14   87.60    4.52
   1   0 -13  300.01    8.53
   1   0 -13  297.22    9.31
  -1   0  13  285.27    8.43
  -1   0  13  291.13    8.01
  -1   0  13  305.30    8.56
   1   0 -13  288.41    6.03
  -1   0  13  309.70    8.77
  -1   0  12    9.57    1.71
   1   0 -12    9.67    1.57
   1   0 -12    9.91    1.74
  -1   0  12    9.40    1.71
  -1   0  12   11.17    1.64
   1   0 -12    9.37    1.65
  -1   0  12    9.34    1.58
   1   0 -12    9.43    1.18
   1   0 -11  393.81    8.69
   1   0 -11  385.67   10.18
  -1   0  11  391.94    9.56
   1   0 -11  410.11    9.41
  -1   0  11  405.87    9.14
   1   0 -10  383.00    5.33
   1   0 -10  353.51    7.70
   1   0 -10  373.79    9.40
  -1   0  10  380.51    7.93
   1   0 -10  375.65    8.45
  -1   0  10  387.26    8.32
  -1   0  10  349.70    8.50
   1   0  -9 1075.62    9.20
  -1   0   9 1077.33   13.21
   1   0  -9 1056.28   12.85
  -1   0   9 1061.19    8.67
  -1   0   9 1055.10   14.03
   1   0  -8  455.54    7.69
   1   0  -8  465.39    5.55
  -1   0   8  442.69    8.30
  -1   0   7    1.14    0.30
   1   0  -7    1.23    0.37
   1   0  -7    1.55    0.62
  -1   0   7    1.01    0.63
  -1   0   6  862.26    6.16
  -1   0   6  800.01    9.49
   1   0  -5   86.93    2.58
  -1   0   5   79.95    2.65
   1   0  -4  344.77    4.68
  -1   0   4  354.91    5.00
   1   0  -3  176.50    2.99
  -1   0   3  175.67    1.23
  -1   0   2 3111.77   15.21
  -1   0   2 3148.63   15.61
   1   0  -1 1622.09    6.57
  -1   0   1 1576.34    9.06
  -1   0   0    2.36    0.38
  -1   0   0    2.29    0.28
  -1   0   0    1.96    0.33
  -1   0  -1  612.71    5.40
  -1   0  -1  662.69    5.69
  -1   0  -2 1556.92   10.62
  -1   0  -2 1552.27   10.21
  -1   0  -3  189.95    1.98
  -1   0  -3  181.90    3.51
   1   0   4 1352.99    6.65
  -1   0  -4 1359.82    7.28
  -1   0  -4 1375.05   11.67
   1   0   5   69.05    2.65
  -1   0  -5   72.24    1.39
   1   0   6 2045.40   17.40
   1   0   6 2126.68   17.67
  -1   0  -6 2159.02   10.91
  -1   0  -6 2038.53   17.75
   1   0   7  627.46    9.88
   1   0   7  664.69   10.07
  -1   0  -7  637.20    5.00
  -1   0  -7  664.31   10.32
   1   0   8   26.48    1.71
  -1   0  -8   22.48    2.13
   1   0   8   26.11    2.22
   1   0   8   21.72    2.03
  -1   0  -9   14.92    1.81
   1   0   9   16.11    1.43
  -1   0  -9   16.43    1.76
   1   0   9   12.89    1.79
   1   0   9   15.24    1.88
  -1   0 -10  105.57    5.04
   1   0  10  102.54    5.01
   1   0  10   99.38    4.88
   1   0  10  115.92    4.03
  -1   0 -10  103.68    4.63
  -1   0 -11 1724.22   22.27
   1   0  11 1691.91   21.78
   1   0  11 1713.25   22.43
  -1   0 -11 1699.39   15.94
  -1   0 -11 1701.18   20.44
   1   0  11 1740.00   17.02
   1   0  12  657.94   10.31
  -1   0 -12  669.74   13.83
   1   0  12  689.92   10.70
  -1   0 -12  657.99    9.65
   1   0  12  653.10   14.19
  -1   0 -12  652.41   12.84
   1   0  13  241.31    8.18
   1   0  13  259.94    9.03
  -1   0 -13  246.77    8.07
  -1   0 -13  254.08    5.77
  -1   0 -13  236.35    8.08
  -1   0 -14 1549.71   19.98
  -1   0 -15  188.02    6.55
  -1   0 -16   23.47    2.08
  -1   0 -16   21.64    1.98
  -1   0 -16   24.12    2.01
  -1   0 -17    0.35    0.53
  -1   0 -17    0.14    0.43
  -1   0 -17    0.33    0.55
  -1   0 -17    1.72    0.65
   1   1 -18    8.69    0.96
   1   1 -18   16.13    1.17
   1   1 -17  153.99    4.52
   1   1 -16  147.83    5.13
   1   1 -16  128.88    4.08
   1   1 -15   41.21    2.64
   1   1 -15   46.05    3.15
   1   1 -15   50.49    3.16
  -1   1  14  202.43    6.97
   1   1 -14  203.64    6.84
   1   1 -13  114.12    5.10
   1   1 -13  107.99    5.53
  -1   1  13  124.57    5.26
  -1   1  13  111.51    5.20
  -1   1  13  110.88    5.79
  -1   1  13  130.04    5.69
   1   1 -13  116.49    5.25
   1   1 -12  170.14    6.04
  -1   1  12  183.16    7.32
  -1   1  12  182.29    6.54
  -1   1  12  189.22    6.74
   1   1 -12  176.43    6.32
   1   1 -12  189.62    7.29
   1   1 -11   73.75    4.45
   1   1 -11   75.58    4.02
  -1   1  11   71.50    4.36
  -1   1  11   71.53    4.03
  -1   1  11   67.86    3.65
   1   1 -10   19.28    2.17
  -1   1  10   16.84    2.05
  -1   1  10   19.93    2.07
  -1   1  10   18.82    1.89
   1   1 -10   19.98    2.00
   1   1  -9  204.64    5.82
  -1   1   9  198.31    6.39
  -1   1   9  185.27    5.28
  -1   1   9  189.19    5.76
   1   1  -9  185.46    3.08
  -1   1   8  106.53    4.32
  -1   1   8  102.48    3.62
  -1   1   8  113.16    2.56
  -1   1   7  275.49    6.44
  -1   1   7  283.65    3.83
  -1   1   6 1305.29   13.24
  -1   1   6 1366.12    8.73
  -1   1   5  643.13    8.14
  -1   1   5  608.21    6.68
  -1   1   4 2127.59   14.54
  -1   1   4 2153.19   10.48
  -1   1   3 3613.43   19.19
  -1   1   3 3614.69   16.78
  -1   1   3 3592.70   15.25
  -1   1   2  486.02    4.84
  -1   1   2  507.32    4.72
   1   1  -2  441.01    3.72
  -1   1   2  510.54    3.52
   1   1  -2  561.82    5.24
  -1   1   2  502.48    3.71
   1   1   0 2491.36   12.32
  -1   1   0 2511.48   12.85
  -1   1  -1 1713.69    9.90
  -1   1  -1 1716.51    9.77
   1   1   1 1724.21    9.24
  -1   1  -2 1585.58   10.73
   1   1   2 1581.71    9.80
  -1   1  -3  201.85    3.69
   1   1   3  214.49    2.82
   1   1   4  805.01    8.38
   1   1   4  809.79    5.93
   1   1   5 1186.83    7.65
   1   1   5 1280.49   11.92
  -1   1  -5 1251.05   12.26
   1   1   5 1217.08   10.20
   1   1   6  494.35    7.90
   1   1   6  481.54    4.34
  -1   1  -6  478.28    7.95
   1   1   7  504.09    8.69
   1   1   7  494.48    8.26
  -1   1  -7  504.11    9.00
   1   1   8  130.42    4.63
   1   1   8  123.86    4.70
  -1   1  -8  123.55    4.75
  -1   1  -9  144.15    5.34
  -1   1  -9  149.53    5.59
   1   1   9  147.41    5.52
   1   1   9  154.70    5.43
  -1   1  -9  141.67    5.09
   1   1   9  145.99    4.33
   1   1   9  135.47    4.37
   1   1  10  814.92   14.22
   1   1  10  829.25   13.57
  -1   1 -10  844.53   13.68
  -1   1 -10  842.98   14.53
   1   1  10  790.27   10.93
  -1   1 -10  828.38   13.38
   1   1  11   12.82    1.85
   1   1  11   13.65    2.09
  -1   1 -11   14.64    1.93
   1   1  11   16.17    1.64
  -1   1 -11   15.71    2.11
  -1   1 -11   14.13    1.95
  -1   1 -12 1169.43   18.18
  -1   1 -12 1337.75   17.93
   1   1  12 1230.17   14.64
   1   1  12 1100.94   17.10
   1   1  12 1249.88   19.53
  -1   1 -12 1210.49   17.55
   1   1  13  138.77    5.72
   1   1  13  143.56    6.61
  -1   1 -13  155.29    6.44
  -1   1 -13  156.60    5.84
  -1   1 -13  153.67    6.17
  -1   1 -14  112.73    4.63
  -1   1 -14  134.36    5.67
  -1   1 -15   72.77    3.76
  -1   1 -15   69.22    3.83
  -1   1 -16   72.18    3.59
  -1   1 -16   74.82    3.39
  -1   1 -16   81.54    3.70
  -1   1 -17    1.85    0.66
  -1   1 -17    1.45    0.62
  -1   1 -17    1.22    0.57
  -1   1 -17    1.29    0.59
   1   2 -16   28.02    2.10
   1   2 -16   31.74    2.19
   1   2 -15  259.30    7.38
   1   2 -15  260.17    6.94
   1   2 -14  260.22    7.40
   1   2 -14  252.82    6.77
   1   2 -13  247.39    6.94
  -1   2  13  243.59    8.16
  -1   2  13  265.70    7.80
   1   2 -13  266.45    7.64
  -1   2  13  278.47    7.77
   1   2 -12    6.32    1.50
   1   2 -12    5.98    1.33
   1   2 -12    6.08    1.35
  -1   2  12    6.92    1.52
  -1   2  12    4.92    1.52
   1   2 -12    6.13    1.29
   1   2 -11   86.62    4.05
  -1   2  11   89.58    4.84
  -1   2  11   89.74    4.37
   1   2 -11   84.11    4.19
  -1   2  11   78.63    4.43
   1   2 -11   89.47    4.74
   1   2 -11   81.01    4.01
  -1   2  10   11.01    1.74
  -1   2  10   10.79    1.58
   1   2 -10   11.39    1.56
  -1   2  10    9.46    1.58
   1   2 -10   11.25    1.72
   1   2 -10   10.45    1.44
  -1   2   9  475.05    9.84
   1   2  -9  474.19   10.02
  -1   2   9  475.65    9.82
   1   2  -9  462.76    8.64
   1   2  -9  465.68    8.95
  -1   2   8  242.43    4.85
  -1   2   8  258.58    6.65
  -1   2   8  252.05    6.72
  -1   2   8  244.94    4.33
   1   2  -8  255.59    5.97
  -1   2   7  548.10    6.71
  -1   2   7  549.76    6.38
  -1   2   6   92.61    3.29
   1   2  -6   99.91    2.01
  -1   2   6   88.12    2.24
   1   2  -6  103.17    3.41
  -1   2   6   92.60    2.37
  -1   2   5  584.25    7.14
  -1   2   5  572.19    7.53
  -1   2   5  560.60    4.86
   1   2  -5  613.41    6.00
   1   2  -5  629.83    7.71
  -1   2   5  569.82    5.82
  -1   2   4  256.95    4.14
  -1   2   4  268.48    4.48
  -1   2   4  232.77    1.86
   1   2  -4  228.95    3.87
  -1   2   4  253.64    3.54
   1   2  -4  262.80    4.48
  -1   2   3 7997.03   34.36
  -1   2   3 8010.42   34.64
  -1   2   2 2901.20   14.69
  -1   2   2 3047.54   15.19
   1   2  -2 3059.34   18.53
  -1   2   2 2989.97   15.47
   1   2  -2 2795.90   15.92
   1   2  -2 3271.53   16.44
  -1   2   1 3283.22   15.98
   1   2  -1 3266.37   16.67
  -1   2   0 3320.26   15.47
   1   2   0 3248.51   17.52
   1   2   1  727.95    6.59
   1   2   1  611.96    6.16
  -1   2  -1  756.89    5.74
   1   2   2 1948.96   12.70
   1   2   2 1991.26   12.06
   1   2   3  408.01    4.82
  -1   2  -3  384.18    5.07
   1   2   4  596.15    6.06
   1   2   4  602.07    7.27
   1   2   5 1068.39   10.50
   1   2   5 1211.47    9.02
   1   2   5  980.29   10.76
  -1   2  -5 1180.69   11.72
   1   2   6 2857.11   19.83
   1   2   6 2857.23   21.27
   1   2   6 2887.65   16.34
   1   2   7  274.36    5.80
   1   2   7  289.17    6.07
   1   2   7  273.36    6.36
   1   2   7  312.56    4.40
  -1   2  -7  315.21    7.14
   1   2   8  738.41   10.76
   1   2   8  700.68   11.38
  -1   2  -8  709.78   10.91
  -1   2  -8  742.07   12.03
  -1   2  -9  468.24   10.62
  -1   2  -9  506.58   10.43
   1   2   9  485.78   10.10
   1   2   9  488.90    9.22
   1   2   9  491.16    8.67
  -1   2  -9  476.62    7.46
  -1   2  -9  508.72    9.87
   1   2  10   16.97    1.69
   1   2  10   15.85    2.00
   1   2  10   13.09    1.69
  -1   2 -10   14.14    1.83
  -1   2 -10   15.88    2.10
  -1   2 -10   15.82    1.98
  -1   2 -11   51.41    3.60
  -1   2 -11   51.73    3.73
   1   2  11   46.15    3.10
   1   2  11   49.10    3.62
   1   2  11   49.01    2.88
  -1   2 -11   53.22    3.49
  -1   2 -12  116.06    5.44
  -1   2 -12  116.39    5.52
  -1   2 -12  112.78    5.12
   1   2  12  114.48    5.64
  -1   2 -12  123.74    5.42
   1   2  12  123.28    4.48
  -1   2 -13   10.10    1.69
  -1   2 -13    7.71    1.53
  -1   2 -13    5.97    1.49
  -1   2 -14  510.18   10.47
  -1   2 -14  487.96   10.33
  -1   2 -15    0.23    0.64
  -1   2 -15    0.27    0.67
  -1   2 -15    0.87    0.70
  -1   2 -16    3.16    0.87
  -1   2 -16    3.01    0.68
   1   2  16    3.31    0.86
  -1   2 -16    3.33    0.87
  -1   2 -16    3.86    0.90
   1   2  17   39.17    1.88
  -1   2 -17   31.65    1.74
   1   3 -17   58.55    2.40
   1   3 -17  132.08    3.37
   1   3 -16  143.22    4.53
  -1   3  16  151.40    3.80
   1   3 -15   21.35    1.69
   1   3 -15   22.61    2.24
   1   3 -14  340.81    7.48
   1   3 -14  364.78    9.59
  -1   3  13   67.58    3.54
   1   3 -13   71.06    3.65
   1   3 -13   66.10    3.54
   1   3 -12  143.99    5.33
   1   3 -12  121.75    5.44
  -1   3  12  137.49    5.25
  -1   3  12  144.96    5.47
  -1   3  12  130.08    5.63
   1   3 -12  136.64    5.33
   1   3 -12  143.35    5.24
   1   3 -11  152.53    5.88
   1   3 -11  149.58    5.45
  -1   3  11  149.68    5.48
  -1   3  11  147.17    5.85
   1   3 -11  147.36    5.40
   1   3 -11  156.48    5.46
   1   3 -10  311.06    7.72
  -1   3  10  307.23    8.15
  -1   3  10  303.65    7.53
   1   3 -10  310.91    7.51
   1   3  -9   26.10    2.34
   1   3  -9   27.40    2.26
  -1   3   9   34.69    2.42
  -1   3   9   26.89    2.30
   1   3  -9   27.25    2.16
   1   3  -9   26.17    2.10
   1   3  -8  191.12    5.84
   1   3  -8  208.97    5.76
  -1   3   8  198.48    4.38
   1   3  -8  204.88    5.47
   1   3  -8  202.55    5.38
  -1   3   8  211.82    5.53
  -1   3   8  213.33    5.97
  -1   3   7 1386.45   14.65
  -1   3   7 1374.74   13.69
  -1   3   7 1380.59   12.10
   1   3  -7 1408.56   14.15
  -1   3   6  311.25    5.99
  -1   3   6  326.86    5.80
   1   3  -6  304.86    4.00
  -1   3   6  317.33    5.33
   1   3  -6  311.50    5.99
  -1   3   5   42.54    1.90
  -1   3   5   49.18    2.00
   1   3  -5   46.13    1.61
   1   3  -5   48.95    2.28
  -1   3   5   46.20    1.97
  -1   3   4  418.56    5.17
  -1   3   4  443.40    5.53
   1   3  -4  465.42    5.50
   1   3  -4  457.88    6.22
  -1   3   4  418.65    5.98
  -1   3   3  104.71    2.29
  -1   3   3  103.29    2.75
   1   3  -3  109.35    2.74
  -1   3   2  391.37    4.03
   1   3  -2  387.90    5.20
  -1   3   1  597.26    4.43
  -1   3   1  596.42    6.99
   1   3   0  675.77    5.85
   1   3   0  677.97    7.60
   1   3   1 1023.18    9.11
   1   3   1  902.49    9.17
   1   3   2  145.17    3.60
   1   3   2  140.17    3.21
   1   3   3 1917.59   13.79
   1   3   3 1862.66   13.05
   1   3   4 1098.69    9.82
   1   3   4 1075.33   10.36
   1   3   5 1380.87   13.43
   1   3   5 1379.99   11.35
   1   3   6   70.57    3.02
  -1   3  -6   67.69    3.25
   1   3   6   75.70    3.12
   1   3   6   74.48    2.47
  -1   3  -6   73.59    2.98
  -1   3  -7  158.07    4.81
  -1   3  -7  176.75    5.54
   1   3   7  156.66    4.73
   1   3   7  162.40    4.99
   1   3   7  184.91    4.04
   1   3   7  158.20    4.19
  -1   3  -7  180.46    4.77
  -1   3  -8   81.29    3.28
  -1   3  -8   89.56    4.72
  -1   3  -8   80.55    3.71
  -1   3  -8   89.73    4.18
   1   3   8   83.66    3.63
  -1   3  -8   86.25    3.77
   1   3   8   81.25    3.23
   1   3   8   87.53    3.93
  -1   3  -9  200.75    5.17
  -1   3  -9  204.75    7.39
  -1   3  -9  183.12    5.98
  -1   3  -9  193.85    6.44
   1   3   9  202.81    5.83
  -1   3  -9  196.63    6.03
   1   3   9  193.60    6.30
  -1   3 -10  660.75    9.50
  -1   3 -10  664.03   12.06
  -1   3 -10  702.12   14.08
   1   3  10  655.20   12.34
  -1   3 -10  656.44   11.67
   1   3  10  642.13   10.70
  -1   3 -10  693.93   12.74
  -1   3 -11  139.01    5.63
  -1   3 -11  135.00    6.34
   1   3  11  129.48    5.62
  -1   3 -11  134.17    5.35
   1   3  11  130.42    4.83
  -1   3 -11  134.88    5.73
  -1   3 -12   74.74    4.03
   1   3  12   61.96    3.97
  -1   3 -12   67.31    4.04
  -1   3 -12   57.54    3.68
  -1   3 -12   70.26    4.42
  -1   3 -13   15.06    1.84
  -1   3 -13   15.54    2.00
  -1   3 -13   18.80    2.27
   1   3  14    5.95    1.28
  -1   3 -14    5.10    1.27
  -1   3 -14    8.04    1.49
   1   3  15   18.09    1.79
  -1   3 -15   15.29    1.74
  -1   3 -15   15.27    1.66
  -1   3 -15   14.34    1.65
  -1   3 -15   13.84    1.57
   1   3  16   36.62    2.06
  -1   3 -16   34.50    2.04
  -1   3 -16   36.35    2.08
  -1   3 -16   36.40    2.06
  -1   3 -16   34.22    1.83
   1   4 -16   52.44    2.22
   1   4 -16   48.36    2.35
   1   4 -15   67.45    3.11
   1   4 -15   70.80    3.45
   1   4 -14   76.05    3.79
   1   4 -14   96.42    4.57
   1   4 -13   39.99    2.62
   1   4 -13   41.46    3.39
   1   4 -12    9.43    1.49
  -1   4  12   10.08    1.45
   1   4 -11  146.96    5.44
  -1   4  11  150.06    5.52
  -1   4  10  340.27    7.79
   1   4 -10  347.83    7.87
   1   4 -10  350.45    8.51
  -1   4  10  357.03    8.60
  -1   4   9   84.90    3.91
   1   4  -9   79.69    3.60
   1   4  -9   79.09    3.99
  -1   4   9   76.61    3.92
  -1   4   8  234.21    6.50
   1   4  -8  222.93    5.72
   1   4  -8  232.70    6.60
  -1   4   8  234.91    6.63
  -1   4   7  192.48    5.69
  -1   4   7  161.14    5.30
  -1   4   7  188.50    4.76
   1   4  -7  174.35    4.75
   1   4  -7  174.96    5.50
  -1   4   6  872.45   12.11
   1   4  -6  897.98   10.45
   1   4  -6  891.75   12.16
   1   4  -6  891.34    7.97
  -1   4   5  127.59    4.39
   1   4  -5  115.60    4.07
   1   4  -5  128.00    4.54
   1   4  -5  124.36    3.47
   1   4  -5  119.72    2.95
  -1   4   4  753.17    9.55
   1   4  -4  779.93    8.36
  -1   4   4  783.75    9.98
   1   4  -3  403.57    6.06
   1   4  -3  400.42    5.38
  -1   4   3  400.42    6.80
   1   4  -2   40.38    1.94
  -1   4   2   37.07    2.06
   1   4  -2   38.97    1.45
   1   4  -2   40.03    2.18
   1   4  -1    8.65    0.96
   1   4  -1    7.28    0.98
   1   4   0  526.94    7.34
   1   4   0  511.43    7.83
   1   4   1 1444.55   13.88
   1   4   2  705.23    8.63
   1   4   2  722.38    9.67
  -1   4  -3  673.10   10.33
   1   4   3  685.32    8.54
  -1   4  -4  167.90    5.30
  -1   4  -4  161.57    5.20
   1   4   4  173.31    4.27
   1   4   5   31.53    1.78
   1   4   5   35.19    1.94
   1   4   5   37.11    2.56
  -1   4  -5   30.78    2.17
   1   4   5   37.70    2.38
  -1   4  -5   33.86    2.56
  -1   4  -5   34.76    2.54
  -1   4  -5   36.28    2.74
   1   4   6   66.87    2.84
   1   4   6   72.90    2.84
  -1   4  -6   74.65    3.37
   1   4   6   70.34    3.39
  -1   4  -6   69.34    3.72
  -1   4  -6   68.30    3.78
  -1   4  -6   76.93    4.18
   1   4   7  607.38    8.48
  -1   4  -7  598.54   11.39
  -1   4  -7  624.49   12.65
  -1   4  -7  638.48   10.04
   1   4   8  169.10    5.62
  -1   4  -8  156.69    6.56
  -1   4  -8  174.79    5.25
   1   4   9  313.37    7.73
  -1   4  -9  338.65    9.13
  -1   4 -10   51.71    2.73
   1   4  10   44.58    2.99
   1   4  10   45.14    3.45
  -1   4 -11  325.44    9.73
   1   4  11  323.67    9.13
  -1   4 -11  312.36    8.85
   1   4  12   47.37    3.45
  -1   4 -12   47.56    3.63
  -1   4 -12   44.92    3.28
  -1   4 -13   13.70    1.77
   1   4  13   17.16    2.03
  -1   4 -13   16.95    2.11
  -1   4 -13   16.47    1.97
   1   4  14  117.86    4.56
  -1   4 -14  106.97    4.05
  -1   4 -14  119.10    4.67
  -1   4 -14  103.92    4.16
   1   4  15   51.48    2.57
  -1   4 -15   48.59    2.50
  -1   4 -15   46.81    2.48
  -1   4 -16   28.87    1.53
   1   5 -15   28.07    1.53
   1   5 -14   37.54    2.24
  -1   5  13   12.74    1.25
   1   5 -13    9.56    1.44
   1   5 -12  104.81    4.66
   1   5 -12   92.73    4.79
  -1   5  11  118.35    4.63
   1   5 -11  122.01    5.80
   1   5 -10   12.94    1.98
  -1   5  10   13.15    1.71
  -1   5   9  399.22    8.33
   1   5  -9  390.32    9.81
  -1   5   8  563.51   10.15
  -1   5   8  525.11   10.43
  -1   5   7  347.52    7.99
  -1   5   7  345.12    7.26
   1   5  -7  364.48    9.09
  -1   5   6  492.09    8.86
   1   5  -6  492.45   10.17
  -1   5   5  139.82    4.94
   1   5  -5  147.23    3.61
  -1   5   5  149.64    5.23
  -1   5   5  156.87    4.94
   1   5  -5  130.36    5.01
  -1   5   4  260.00    6.61
   1   5  -4  257.88    5.09
  -1   5   4  274.94    6.84
  -1   5   4  270.26    6.54
  -1   5   3  538.70    9.02
   1   5  -3  498.67    7.49
  -1   5   3  468.84    8.94
  -1   5   3  514.21    9.25
  -1   5   3  495.09    9.32
   1   5  -3  477.58    8.75
   1   5  -2  271.32    5.60
   1   5  -2  255.60    6.09
   1   5  -2  254.68    5.70
  -1   5   2  271.80    6.57
  -1   5   2  249.70    6.20
  -1   5   1  251.67    6.40
   1   5  -1  240.52    5.40
  -1   5   1  284.16    6.85
   1   5  -1  273.29    5.74
   1   5  -1  269.06    6.49
   1   5  -1  248.24    5.76
  -1   5   1  264.28    6.50
  -1   5   0  481.34    8.80
  -1   5   0  360.15    7.95
  -1   5   0  407.27    8.29
   1   5   0  505.00    8.53
   1   5   0  579.17    8.52
   1   5   0  315.61    7.74
  -1   5   0  559.94    9.69
  -1   5  -1  209.67    6.01
   1   5   1  222.46    6.29
   1   5   1  227.80    5.94
  -1   5  -1  206.43    5.97
   1   5   2  219.80    5.28
   1   5   2  218.71    6.34
  -1   5  -2  213.05    6.22
  -1   5  -2  219.94    6.03
   1   5   3   44.64    2.41
   1   5   3   43.23    2.93
  -1   5  -3   38.19    2.76
  -1   5  -3   48.83    2.90
  -1   5  -3   35.56    2.53
  -1   5  -3   40.37    2.83
   1   5   4  174.34    4.90
   1   5   4  184.49    6.13
   1   5   4  162.21    5.40
  -1   5  -4  181.27    6.11
  -1   5  -4  166.08    5.73
   1   5   5  177.91    4.96
  -1   5  -5  133.69    4.94
   1   5   5  182.03    5.84
  -1   5  -5  166.38    6.07
  -1   5  -5  173.58    6.21
  -1   5  -5  137.80    5.61
   1   5   6  231.76    5.66
  -1   5  -6  206.93    7.00
  -1   5  -6  223.88    7.26
   1   5   6  200.37    6.25
  -1   5  -6  246.75    7.77
  -1   5  -6  260.60    6.90
  -1   5  -7  237.09    7.73
  -1   5  -7  236.11    7.72
  -1   5  -7  234.89    7.94
  -1   5  -7  244.34    6.59
  -1   5  -8   56.20    3.88
  -1   5  -8   52.88    3.77
   1   5   8   52.39    3.26
  -1   5  -8   55.48    4.00
  -1   5  -8   63.03    3.33
  -1   5  -9   52.92    2.96
   1   5   9   45.57    3.49
   1   5   9   46.40    3.07
  -1   5  -9   44.11    3.50
  -1   5  -9   45.22    3.46
  -1   5 -10  303.46    8.85
   1   5  10  311.64    8.90
  -1   5 -10  316.77    6.74
  -1   5 -11  168.40    6.71
  -1   5 -11  150.07    5.98
  -1   5 -11  151.29    5.91
   1   5  12   29.14    2.51
  -1   5 -12   26.28    2.45
  -1   5 -12   26.93    2.38
   1   5  13   84.70    3.75
  -1   5 -13   76.23    3.52
   1   5  14   81.76    3.12
  -1   5 -14   74.88    3.17
  -1   5 -15   21.72    1.35
   1   6 -14   46.67    1.85
   1   6 -13  110.14    3.20
   1   6 -13  112.28    3.75
   1   6 -12    7.13    1.12
  -1   6  12    6.52    0.96
   1   6 -12    5.17    1.12
   1   6 -11  116.00    4.39
   1   6 -11  103.22    4.54
   1   6 -10  142.05    5.22
  -1   6  10  139.22    5.01
  -1   6   9  139.74    5.05
   1   6  -9  138.56    5.40
  -1   6   9  140.51    5.29
  -1   6   8  322.63    8.01
   1   6  -8  375.92    9.07
  -1   6   8  323.56    8.31
  -1   6   8  404.26    8.15
   1   6  -8  293.84    8.47
  -1   6   7   64.08    3.64
  -1   6   7   60.68    3.65
   1   6  -7   65.18    4.00
  -1   6   6  320.43    8.30
   1   6  -6  319.81    8.39
   1   6  -6  311.80    8.15
   1   6  -6  306.19    7.37
   1   6  -5  302.39    7.88
  -1   6   5  302.73    7.61
  -1   6   5  319.69    8.22
   1   6  -4  759.29    9.68
  -1   6   4  747.11   12.21
   1   6  -4  739.96   12.00
   1   6  -3  344.79    6.73
  -1   6   3  340.89    8.38
   1   6  -3  344.39    7.85
  -1   6   3  325.52    7.60
  -1   6   2  137.88    5.32
  -1   6   2  131.97    5.08
   1   6  -2  138.74    4.38
   1   6  -2  124.39    4.94
  -1   6   2  130.90    4.81
  -1   6   1    5.80    1.21
   1   6  -1    6.10    1.05
   1   6  -1    7.76    1.14
   1   6  -1    6.57    1.26
  -1   6   1    5.68    1.22
   1   6   0  105.61    3.97
  -1   6   0  100.98    4.47
   1   6   0   83.32    3.43
   1   6   0  119.24    4.93
   1   6   0   92.25    3.90
  -1   6   0   98.25    4.34
   1   6   1  552.35    9.38
  -1   6  -1  555.93   10.74
  -1   6  -1  550.43   10.53
   1   6   1  539.48   10.54
  -1   6  -2   19.58    2.12
  -1   6  -2   16.31    1.87
  -1   6  -2   17.96    2.09
  -1   6  -3  459.22    9.73
  -1   6  -3  435.07    9.94
  -1   6  -3  451.30   10.09
   1   6   3  415.24    9.88
   1   6   3  454.06    9.75
   1   6   3  480.66    8.96
   1   6   4   29.44    2.19
  -1   6  -4   19.81    2.11
   1   6   4   26.43    2.41
  -1   6  -4   22.00    2.06
  -1   6  -4   23.35    2.42
  -1   6  -4   26.80    2.58
  -1   6  -5  237.68    7.02
  -1   6  -5  240.96    7.66
  -1   6  -5  238.42    6.99
   1   6   5  228.16    6.95
  -1   6  -6  324.45    8.58
  -1   6  -6  382.99    9.74
  -1   6  -6  292.59    7.61
   1   6   6  349.16    8.63
  -1   6  -7  253.12    7.95
   1   6   7  258.37    7.30
  -1   6  -8  229.54    7.55
  -1   6  -8  243.14    7.81
  -1   6  -8  267.03    8.00
   1   6   8  272.75    8.18
  -1   6  -9  345.78    8.74
   1   6   9  339.08    8.89
  -1   6  -9  349.63    7.16
  -1   6 -10  133.05    5.36
  -1   6 -10  125.81    5.19
  -1   6 -10  124.38    4.90
   1   6  10  132.64    5.29
  -1   6 -10  122.12    3.72
  -1   6 -11    4.05    0.99
  -1   6 -11    4.42    1.11
   1   6  11    5.32    1.17
  -1   6 -11    5.75    1.20
  -1   6 -12    0.11    0.61
   1   6  12    0.10    0.51
  -1   6 -12    0.14    0.58
  -1   6 -13    1.26    0.58
   1   6  13    1.36    0.52
  -1   6 -13    1.05    0.53
   1   7 -12  180.01    3.80
   1   7 -11   11.98    1.01
   1   7 -11   13.12    1.32
   1   7 -10   42.56    2.15
   1   7 -10   46.12    2.65
   1   7  -9   14.30    1.48
   1   7  -9   16.42    1.82
  -1   7   9   15.89    1.54
   1   7  -8   33.58    2.31
   1   7  -8   33.23    2.60
  -1   7   8   25.86    2.09
   1   7  -7   70.62    3.43
   1   7  -7   77.09    4.01
   1   7  -6  503.70   10.42
   1   7  -6  478.17    9.10
   1   7  -5  142.34    5.51
   1   7  -5  146.80    5.11
   1   7  -4   87.99    4.27
  -1   7   4   89.40    4.29
   1   7  -3  187.34    6.10
  -1   7   3  179.05    6.05
   1   7  -2   33.91    2.55
  -1   7   2   34.79    2.54
  -1   7   2   36.90    2.80
  -1   7   1  170.50    5.62
   1   7  -1  175.23    5.50
  -1   7   1  179.44    6.08
   1   7   0  552.73    9.36
  -1   7   0  552.50   10.42
  -1   7   0  540.02   10.60
  -1   7  -1  284.36    7.70
  -1   7  -1  261.27    7.38
  -1   7  -2   80.47    4.20
  -1   7  -2   88.08    4.27
  -1   7  -3  323.40    8.44
  -1   7  -3  344.38    8.69
  -1   7  -4   67.37    3.92
  -1   7  -4   70.44    3.95
  -1   7  -4   66.92    3.73
  -1   7  -5  337.79    8.67
  -1   7  -5  317.43    7.89
  -1   7  -6   37.85    2.91
  -1   7  -6   37.16    2.93
  -1   7  -6   40.73    2.66
  -1   7  -7   66.63    3.71
  -1   7  -7   68.73    3.27
  -1   7  -8  105.27    4.44
  -1   7  -8  103.86    3.64
  -1   7  -9   67.52    3.34
  -1   7  -9   69.89    3.32
  -1   7  -9   70.70    2.63
  -1   7 -10  100.54    3.69
  -1   7 -10   99.64    3.52
  -1   7 -11   41.46    2.07
  -1   7 -11   36.33    1.80
   1   8  -9    3.08    0.63
   1   8  -8   16.89    1.38
   1   8  -7    9.20    1.16
  -1   8   7    7.98    0.93
   1   8  -6   36.14    1.84
   1   8  -6   30.79    2.05
  -1   8   6   34.30    2.01
   1   8  -5   28.39    2.05
  -1   8   5   27.04    1.91
   1   8  -4  193.44    5.31
  -1   8   4  199.54    5.39
   1   8  -3  137.71    4.32
  -1   8   3  137.94    4.61
   1   8  -2   72.23    3.04
  -1   8   2   71.88    3.41
   1   8  -1  218.20    5.03
  -1   8   1  172.00    5.33
  -1   8   0   65.45    3.19
  -1   8   0   57.67    3.14
  -1   8  -1  173.02    5.78
  -1   8  -1  208.12    5.87
  -1   8  -2  187.67    5.93
  -1   8  -2  198.46    5.63
  -1   8  -3  113.51    4.39
  -1   8  -3  137.26    4.69
  -1   8  -4  450.50    8.43
  -1   8  -4  410.66    8.17
  -1   8  -5   43.26    2.46
  -1   8  -5   44.91    2.65
  -1   8  -6    8.94    1.14
  -1   8  -6    8.77    1.24
  -1   8  -7   21.92    1.45
  -1   8  -7   22.77    1.72
  -1   8  -8   45.57    1.64
  -1   8  -9   21.42    1.29
  -1   9   3   34.09    1.75
   1   9  -3   32.10    1.61
  -1   9   2   45.90    2.17
   1   9  -2   42.36    2.01
  -1   9   1   24.59    1.69
   1   9  -1   22.71    1.64
   1   9   0  111.29    3.54
  -1   9  -1   79.49    2.92
  -1   9  -2  108.44    3.27
  -1   9  -3   12.38    1.11
  -1   9  -4   12.29    1.00
  -2  -9   4  155.15    3.04
  -2  -9   3   52.83    1.88
  -2  -9   2    1.93    0.48
  -2  -9   1   22.95    1.26
  -2  -9   1   22.19    1.30
  -2  -9   0   70.90    2.22
  -2  -9   0   96.98    2.68
  -2  -9  -1  107.39    2.74
  -2  -9  -1  107.94    2.80
  -2  -9  -2   75.71    2.26
  -2  -9  -3    1.87    0.42
  -2  -8   8   71.23    2.35
  -2  -8   7  273.03    5.18
  -2  -8   6  199.41    4.69
  -2  -8   5   42.53    2.20
  -2  -8   5   47.06    2.36
  -2  -8   4   58.27    2.70
  -2  -8   4   73.60    3.06
  -2  -8   3   11.23    1.32
  -2  -8   3   11.63    1.33
  -2  -8   2   48.80    2.60
  -2  -8   2   38.09    2.33
  -2  -8   1  127.18    4.24
  -2  -8   1  132.13    4.31
  -2  -8   0  485.95    8.50
  -2  -8  -1  327.35    6.91
  -2  -8  -1  339.82    7.02
  -2  -8  -2   13.45    1.45
  -2  -8  -2   20.17    1.76
  -2  -8  -3   86.42    3.46
  -2  -8  -3  100.15    3.80
  -2  -8  -4   43.71    2.42
  -2  -8  -4   52.74    2.66
  -2  -8  -5   21.27    1.66
  -2  -8  -5   26.55    1.82
  -2  -8  -6   94.97    3.20
  -2  -8  -6   89.44    3.15
  -2  -8  -7   42.30    2.00
  -2  -8  -8   25.35    1.37
   2  -7 -11  114.00    2.83
  -2  -7  11  122.90    3.05
   2  -7 -10   39.07    1.94
  -2  -7  10   40.28    2.05
   2  -7 -10   39.02    1.74
   2  -7  -9   42.76    2.25
  -2  -7   9   46.83    2.43
   2  -7  -8   37.01    2.24
  -2  -7   8   37.43    2.35
  -2  -7   7   14.60    1.57
   2  -7  -7   15.91    1.58
  -2  -7   7   17.42    1.71
  -2  -7   6    1.71    0.76
   2  -7  -6    2.97    0.84
  -2  -7   6    2.85    0.89
  -2  -7   5   92.71    4.03
  -2  -7   5   88.74    3.88
  -2  -7   4  172.55    5.51
  -2  -7   4  157.06    5.26
  -2  -7   3  170.67    5.62
  -2  -7   3  203.60    6.04
  -2  -7   2  104.82    4.39
  -2  -7   1  230.38    6.59
  -2  -7   1  237.75    6.68
  -2  -7   0   30.11    2.44
  -2  -7   0   31.39    2.49
  -2  -7  -1   13.36    1.69
  -2  -7  -1   14.62    1.79
  -2  -7  -2   37.09    2.74
  -2  -7  -2   42.94    2.88
  -2  -7  -3  330.39    7.99
  -2  -7  -3  299.57    7.62
  -2  -7  -4   42.33    2.89
  -2  -7  -4   45.20    2.96
  -2  -7  -4   41.55    2.51
  -2  -7  -5   13.90    1.71
  -2  -7  -5   12.73    1.46
  -2  -7  -6    8.52    1.34
  -2  -7  -6    8.58    1.24
  -2  -7  -7   44.13    2.72
  -2  -7  -7   38.77    2.37
  -2  -7  -8  141.12    4.38
  -2  -7  -8  143.23    4.57
  -2  -7  -8  130.91    4.13
  -2  -7  -9   67.90    2.74
  -2  -7  -9   57.29    2.54
  -2  -7 -10   19.23    1.30
  -2  -7 -10   13.04    1.14
  -2  -7 -11   41.73    1.62
  -2  -7 -11   35.48    1.49
   2  -6 -13   33.16    1.58
   2  -6 -13   34.12    1.70
  -2  -6  13   37.40    1.70
   2  -6 -12   45.08    2.30
   2  -6 -12   38.49    2.02
   2  -6 -12   42.67    2.15
  -2  -6  12   44.93    2.25
   2  -6 -11   16.26    1.61
   2  -6 -11   16.60    1.54
  -2  -6  11   17.51    1.63
   2  -6 -11   13.36    1.41
   2  -6 -10   50.65    2.98
   2  -6 -10   44.15    2.62
  -2  -6  10   44.27    2.71
   2  -6 -10   45.50    2.63
   2  -6  -9   58.26    3.27
   2  -6  -9   65.42    3.28
  -2  -6   9   65.45    3.47
   2  -6  -9   60.05    3.15
   2  -6  -8   65.39    3.54
  -2  -6   8   69.70    3.66
   2  -6  -8   83.40    3.76
  -2  -6   8   86.37    3.99
   2  -6  -8   79.16    3.60
   2  -6  -7  429.22    9.07
  -2  -6   7  440.84    9.30
  -2  -6   7  419.95    8.90
   2  -6  -7  418.55    8.28
  -2  -6   6   89.33    4.05
   2  -6  -6   94.18    3.80
   2  -6  -6   90.06    4.04
  -2  -6   6   84.48    4.09
   2  -6  -6   92.15    4.01
  -2  -6   5  297.94    7.50
   2  -6  -5  255.02    6.67
  -2  -6   5  282.16    7.39
   2  -6  -5  265.72    6.70
  -2  -6   4  127.56    5.00
   2  -6  -4  120.05    4.41
  -2  -6   3  117.27    4.73
   2  -6  -3  108.59    4.01
  -2  -6   2   47.06    3.01
  -2  -6   2   52.26    3.15
  -2  -6   1   47.22    3.08
  -2  -6   1   62.16    3.47
  -2  -6   0   42.63    2.93
  -2  -6   0   45.70    2.98
  -2  -6  -1   75.59    3.88
  -2  -6  -1   71.79    3.76
  -2  -6  -2   13.99    1.76
  -2  -6  -2   18.12    1.98
  -2  -6  -2   18.97    1.79
  -2  -6  -3  119.82    4.97
  -2  -6  -3  122.97    5.03
  -2  -6  -4  219.88    6.34
  -2  -6  -4  211.47    6.25
  -2  -6  -5  235.23    7.10
  -2  -6  -5  241.30    6.77
  -2  -6  -6  109.12    4.77
  -2  -6  -6  111.03    4.89
  -2  -6  -6  106.18    4.57
  -2  -6  -7  197.84    6.25
  -2  -6  -7  216.48    6.54
  -2  -6  -8   74.62    3.71
  -2  -6  -8   77.52    3.87
  -2  -6  -9   58.07    3.09
  -2  -6  -9   57.02    3.22
  -2  -6  -9   57.28    3.20
  -2  -6 -10   85.81    3.43
  -2  -6 -10   90.27    3.71
  -2  -6 -10   87.05    3.72
  -2  -6 -11    0.67    0.54
  -2  -6 -11    0.91    0.62
  -2  -6 -11    1.06    0.51
  -2  -6 -12   48.92    2.20
  -2  -6 -12   44.05    1.98
   2  -5 -15   13.75    1.00
   2  -5 -15   12.47    0.94
  -2  -5  14   47.60    2.20
   2  -5 -14   49.29    2.25
   2  -5 -14   42.14    2.14
   2  -5 -14   49.22    2.23
   2  -5 -13   89.98    3.48
   2  -5 -13   77.48    3.22
   2  -5 -12   89.23    3.77
  -2  -5  12   96.28    4.01
   2  -5 -12   86.17    3.73
   2  -5 -11   26.47    2.20
   2  -5 -11   26.65    2.24
   2  -5 -10   94.30    4.16
   2  -5 -10   86.28    4.10
  -2  -5   9  268.34    8.91
  -2  -5   9  241.50    6.93
   2  -5  -9  250.22    6.82
   2  -5  -9  264.69    7.19
  -2  -5   8  111.84    5.71
   2  -5  -8  106.47    4.40
  -2  -5   8  107.78    4.54
  -2  -5   8  105.13    4.67
   2  -5  -8   95.38    4.24
  -2  -5   7  561.51   12.51
   2  -5  -7  564.18    9.87
   2  -5  -7  553.26    9.85
  -2  -5   7  567.89   10.72
   2  -5  -7  533.98    9.86
  -2  -5   6   18.13    2.31
  -2  -5   6   19.17    1.88
   2  -5  -6   16.62    1.69
   2  -5  -6   15.00    1.65
  -2  -5   6   17.20    1.84
   2  -5  -6   15.91    1.68
  -2  -5   5    8.16    1.55
  -2  -5   5    9.85    1.39
   2  -5  -5    7.63    1.16
   2  -5  -5    8.16    1.18
  -2  -5   5    6.51    1.23
   2  -5  -5    7.38    1.17
  -2  -5   4  307.30    8.11
   2  -5  -4  314.33    6.77
   2  -5  -4  332.49    7.11
   2  -5  -3   76.01    3.15
  -2  -5   3   79.72    3.73
  -2  -5   3   87.26    3.79
   2  -5  -2  102.70    3.51
  -2  -5   2  119.93    4.42
   2  -5  -1   54.90    2.43
  -2  -5   1   63.28    3.26
  -2  -5   1   63.48    3.20
   2  -5   0  589.43    7.72
  -2  -5   0  602.38   10.04
  -2  -5  -1  198.74    5.76
  -2  -5  -1  182.98    5.11
  -2  -5  -2  847.36   11.76
  -2  -5  -2  865.52   11.79
  -2  -5  -3  135.61    4.61
  -2  -5  -3  127.78    4.84
  -2  -5  -4   26.52    2.13
  -2  -5  -4   26.42    2.29
  -2  -5  -4   30.52    2.34
  -2  -5  -5  121.44    4.82
  -2  -5  -5  149.59    5.36
  -2  -5  -6  326.92    8.06
  -2  -5  -6  335.13    8.23
  -2  -5  -7  585.18   10.95
  -2  -5  -7  572.39   11.15
  -2  -5  -8  627.20   11.23
  -2  -5  -8  645.72   11.11
  -2  -5  -8  589.06   10.09
  -2  -5  -8  575.35   11.13
  -2  -5  -9  124.41    5.08
  -2  -5  -9  125.57    4.85
  -2  -5 -10  114.65    4.78
  -2  -5 -10  118.30    4.77
  -2  -5 -10  121.80    4.55
  -2  -5 -10  131.65    4.81
  -2  -5 -11   96.34    3.99
  -2  -5 -11   96.51    3.73
  -2  -5 -11   90.39    3.69
  -2  -5 -12   35.13    2.18
  -2  -5 -12   28.76    1.89
  -2  -5 -13   22.70    1.63
  -2  -5 -14   65.58    2.18
   2  -4 -16    3.16    0.55
   2  -4 -16    3.11    0.57
  -2  -4  15   71.19    2.84
   2  -4 -15   65.92    2.66
   2  -4 -15   70.37    2.77
  -2  -4  14   38.00    2.42
   2  -4 -14   35.93    2.31
  -2  -4  13  170.90    5.56
   2  -4 -13  187.45    5.70
   2  -4 -12   26.75    2.27
  -2  -4  12   27.24    2.38
   2  -4 -12   25.65    2.31
  -2  -4  11   20.96    2.84
  -2  -4  11   21.68    2.16
   2  -4 -11   19.01    1.98
   2  -4 -11   19.26    1.82
   2  -4 -11   20.63    2.11
  -2  -4  10   36.23    3.52
  -2  -4  10   35.32    2.73
   2  -4 -10   34.81    2.63
   2  -4 -10   35.30    2.47
   2  -4 -10   37.73    2.79
  -2  -4   9  190.91    7.70
   2  -4  -9  194.65    5.98
  -2  -4   9  226.06    6.60
   2  -4  -9  218.95    6.08
   2  -4  -9  185.58    5.99
  -2  -4   8  118.94    5.94
  -2  -4   8  120.87    4.66
  -2  -4   8  117.12    4.80
   2  -4  -8  111.95    4.49
  -2  -4   7  762.22   14.40
   2  -4  -7  769.63   11.20
   2  -4  -7  722.61   11.11
  -2  -4   7  752.49   11.92
  -2  -4   6  663.11   12.91
   2  -4  -6  642.92    9.80
  -2  -4   6  648.64   10.58
  -2  -4   5  272.68    7.70
   2  -4  -5  256.41    5.75
   2  -4  -5  269.06    6.01
  -2  -4   4  178.62    5.85
  -2  -4   4  176.36    4.98
  -2  -4   3  183.13    5.07
  -2  -4   3  173.83    4.86
   2  -4  -3  181.75    4.52
  -2  -4   2  625.05    9.11
   2  -4  -2  593.84    7.86
  -2  -4   1   28.44    1.97
  -2  -4   1   27.51    1.92
   2  -4  -1   26.01    1.55
  -2  -4   0  162.11    4.66
   2  -4   0  150.98    3.46
  -2  -4  -1  103.44    3.76
   2  -4   1  103.19    2.60
  -2  -4  -2   81.32    3.24
  -2  -4  -2   82.46    3.20
  -2  -4  -3  441.45    7.98
  -2  -4  -3  463.49    8.17
   2  -4   3  451.58    7.61
  -2  -4  -4 1130.85   13.42
  -2  -4  -4 1125.90   13.88
  -2  -4  -5   85.55    3.82
  -2  -4  -5   86.23    3.75
  -2  -4  -5   90.84    3.93
   2  -4   5   94.88    4.16
  -2  -4  -5   92.22    3.71
  -2  -4  -5   89.36    3.86
  -2  -4  -6  208.73    6.20
   2  -4   6  223.58    6.87
  -2  -4  -6  224.23    5.94
  -2  -4  -6  229.80    6.34
  -2  -4  -6  220.74    6.33
  -2  -4  -7  225.61    6.61
  -2  -4  -7  223.89    5.98
  -2  -4  -7  227.43    5.88
  -2  -4  -7  233.20    6.55
  -2  -4  -7  214.25    6.44
  -2  -4  -8   27.96    2.46
   2  -4   8   27.40    2.73
  -2  -4  -8   26.10    2.12
  -2  -4  -8   28.09    2.08
  -2  -4  -8   26.76    2.29
  -2  -4  -8   25.19    2.30
   2  -4   9   50.35    3.73
  -2  -4  -9   60.03    3.08
  -2  -4  -9   61.32    3.40
  -2  -4  -9   59.71    3.50
  -2  -4  -9   57.24    2.90
   2  -4  10   19.16    2.45
  -2  -4 -10   19.97    1.74
  -2  -4 -10   22.59    2.18
  -2  -4 -10   21.91    2.06
  -2  -4 -11  198.28    6.17
  -2  -4 -11  192.67    5.94
  -2  -4 -11  201.45    5.75
  -2  -4 -12   36.97    2.53
  -2  -4 -12   34.56    2.37
  -2  -4 -13   54.25    3.01
  -2  -4 -13   55.48    2.79
  -2  -4 -14    2.87    0.75
  -2  -4 -14    2.63    0.65
  -2  -4 -15   85.54    2.53
   2  -3 -16   76.81    2.53
  -2  -3  16   79.82    2.99
   2  -3 -15   10.80    1.34
   2  -3 -15   10.41    1.25
  -2  -3  15   12.98    1.52
   2  -3 -15   10.78    1.25
   2  -3 -14   16.00    1.74
   2  -3 -14   14.43    1.62
  -2  -3  14   14.93    1.77
   2  -3 -14   17.86    1.75
   2  -3 -13   24.90    2.24
   2  -3 -13   22.81    2.14
  -2  -3  13   24.83    2.30
   2  -3 -13   28.32    2.27
  -2  -3  12   91.38    5.20
   2  -3 -12   89.94    3.61
  -2  -3  12   91.27    5.44
   2  -3 -12  107.94    4.71
  -2  -3  12   89.93    4.86
   2  -3 -12   87.36    4.20
  -2  -3  12   84.48    4.25
   2  -3 -12   96.30    4.24
  -2  -3  11   68.55    3.85
  -2  -3  11   69.99    4.53
   2  -3 -11   65.01    4.12
   2  -3 -11   67.96    3.25
   2  -3 -11   73.89    3.84
  -2  -3  11   69.56    4.25
   2  -3 -11   77.59    3.98
  -2  -3  11   74.26    3.97
  -2  -3  10   49.85    3.26
  -2  -3  10   53.73    3.83
   2  -3 -10   52.25    2.86
   2  -3 -10   51.33    3.61
  -2  -3  10   54.17    3.28
  -2  -3  10   50.80    3.61
   2  -3 -10   54.06    3.29
   2  -3  -9  726.99   10.52
  -2  -3   9  711.92   14.53
  -2  -3   9  635.86   12.41
  -2  -3   9  776.63   14.03
  -2  -3   9  773.27   12.09
  -2  -3   9  649.97   11.03
   2  -3  -9  709.29   11.56
   2  -3  -8   21.40    1.73
  -2  -3   8   21.18    2.47
  -2  -3   8   25.76    2.40
  -2  -3   8   20.85    2.22
  -2  -3   8   20.13    1.90
  -2  -3   8   20.20    1.84
  -2  -3   8   16.59    1.80
  -2  -3   7   79.22    4.40
  -2  -3   7   84.29    4.11
  -2  -3   7   88.39    4.23
  -2  -3   7   89.37    3.59
  -2  -3   7   85.78    3.50
  -2  -3   7   87.55    3.72
  -2  -3   6  201.94    6.50
  -2  -3   6  210.95    5.15
  -2  -3   6  216.38    5.56
   2  -3  -6  212.50    4.92
  -2  -3   5  414.53    8.48
  -2  -3   5  429.59    8.94
   2  -3  -5  428.49    6.73
  -2  -3   4 1472.32   16.42
  -2  -3   4 1500.82   12.71
  -2  -3   3 3278.08   24.42
   2  -3  -3 3314.75   20.02
  -2  -3   2  224.47    4.06
  -2  -3   2  214.73    5.34
  -2  -3   1 2090.34   13.91
   2  -3  -1 2264.48   14.39
  -2  -3   0  221.71    3.99
   2  -3   0  233.70    3.57
   2  -3   1  156.97    2.79
   2  -3   1  160.12    3.52
  -2  -3  -1  134.61    3.08
  -2  -3  -1  164.22    3.67
   2  -3   1  166.37    2.89
  -2  -3  -1  129.25    3.47
  -2  -3  -2  279.03    5.09
   2  -3   2  280.96    3.47
   2  -3   2  280.19    4.18
   2  -3   2  286.24    5.38
   2  -3   3  152.39    4.31
   2  -3   3  150.51    3.41
  -2  -3  -4   40.96    2.13
   2  -3   4   42.12    2.00
   2  -3   4   45.04    2.59
  -2  -3  -4   44.85    2.17
  -2  -3  -5  254.58    5.88
  -2  -3  -5  219.51    5.57
  -2  -3  -5  257.01    6.68
  -2  -3  -5  248.70    5.80
   2  -3   5  251.95    5.44
   2  -3   5  242.43    6.51
  -2  -3  -5  270.98    5.48
  -2  -3  -5  218.76    5.37
  -2  -3  -6   26.00    2.08
  -2  -3  -6   24.67    1.91
  -2  -3  -6   30.77    2.14
  -2  -3  -6   25.98    2.01
  -2  -3  -6   27.41    1.80
   2  -3   6   28.69    2.02
   2  -3   6   25.13    2.29
  -2  -3  -7  611.34    9.79
  -2  -3  -7  603.90    9.98
  -2  -3  -7  617.20   10.00
   2  -3   7  601.90   11.86
   2  -3   7  610.75   10.15
  -2  -3  -7  632.53    8.92
  -2  -3  -8  143.58    4.24
  -2  -3  -8  141.06    4.77
  -2  -3  -8  158.69    5.24
  -2  -3  -8  159.80    5.80
  -2  -3  -8  153.61    5.47
  -2  -3  -8  136.75    4.76
  -2  -3  -8  142.31    5.05
   2  -3   8  142.27    6.04
   2  -3   8  131.94    5.02
   2  -3   9  340.79    8.54
  -2  -3  -9  352.25    6.71
  -2  -3  -9  346.45    7.66
  -2  -3  -9  370.00    8.22
  -2  -3  -9  384.02    9.47
   2  -3   9  336.62    9.73
  -2  -3  -9  407.87    8.36
  -2  -3  -9  381.85    9.03
  -2  -3  -9  385.29    8.60
   2  -3  10   26.89    2.96
  -2  -3 -10   28.42    2.21
  -2  -3 -10   21.28    2.06
  -2  -3 -10   33.08    2.92
  -2  -3 -10   29.71    2.63
  -2  -3 -10   30.61    2.51
   2  -3  10   27.46    2.58
  -2  -3 -11   60.39    3.11
  -2  -3 -11   62.43    3.33
  -2  -3 -11   72.75    4.35
  -2  -3 -11   61.61    3.86
  -2  -3 -11   57.03    3.64
  -2  -3 -11   63.34    3.50
   2  -3  11   56.52    4.18
  -2  -3 -12  147.62    5.75
  -2  -3 -12  142.75    4.99
  -2  -3 -12  151.37    5.70
  -2  -3 -12  138.45    4.72
  -2  -3 -13   37.48    2.40
  -2  -3 -13   41.00    2.81
  -2  -3 -14   27.31    2.05
  -2  -3 -14   23.16    1.93
  -2  -3 -15   37.42    1.95
  -2  -3 -15   42.24    2.39
  -2  -3 -15   36.39    1.96
  -2  -3 -16   36.89    1.76
   2  -2 -17   23.28    1.50
   2  -2 -17   24.08    1.43
  -2  -2  16  125.01    4.27
   2  -2 -16  124.99    4.16
  -2  -2  15  517.08    9.90
   2  -2 -15  505.94    9.57
  -2  -2  14   59.63    3.59
   2  -2 -14   55.01    2.93
   2  -2 -14   56.22    3.45
  -2  -2  13  242.63    7.35
   2  -2 -13  243.17    6.45
   2  -2 -13  242.13    7.41
   2  -2 -12   28.40    2.61
   2  -2 -12   22.17    2.10
   2  -2 -12   24.24    1.86
   2  -2 -12   30.32    3.09
  -2  -2  12   25.05    2.96
  -2  -2  12   30.59    2.85
  -2  -2  12   31.21    3.19
  -2  -2  12   30.46    2.84
  -2  -2  12   30.59    2.64
   2  -2 -11  143.42    5.68
   2  -2 -11  130.96    4.77
   2  -2 -11  151.18    4.55
   2  -2 -11  142.83    6.26
  -2  -2  11  138.98    5.81
  -2  -2  11  150.65    5.92
  -2  -2  11  143.21    6.58
  -2  -2  11  152.10    6.83
  -2  -2  11  165.22    5.83
   2  -2 -10   68.67    3.31
   2  -2 -10   68.68    2.99
  -2  -2  10   66.11    4.36
  -2  -2  10   62.84    3.81
  -2  -2  10   63.63    4.24
  -2  -2  10   66.29    3.75
  -2  -2  10   59.41    3.37
   2  -2 -10   58.41    3.54
   2  -2  -9  274.98    5.80
  -2  -2   9  255.65    8.06
  -2  -2   9  243.95    6.76
  -2  -2   9  256.29    8.03
   2  -2  -9  239.56    5.93
  -2  -2   9  278.54    6.85
  -2  -2   9  246.70    7.14
  -2  -2   8   87.45    4.33
  -2  -2   8   87.94    3.81
   2  -2  -8   84.60    3.29
   2  -2  -8   91.76    3.19
  -2  -2   8   81.66    3.45
  -2  -2   8   86.02    4.00
   2  -2  -7  190.26    4.42
   2  -2  -7  187.34    4.63
  -2  -2   7  175.13    5.41
  -2  -2   7  172.82    4.99
  -2  -2   7  175.23    5.80
  -2  -2   7  167.35    4.90
  -2  -2   6    2.26    0.83
   2  -2  -6    2.25    0.65
  -2  -2   6    1.75    0.79
  -2  -2   6    1.73    0.69
  -2  -2   5 1310.61   13.94
   2  -2  -5 1462.53   12.02
   2  -2  -5 1429.44   11.91
  -2  -2   5 1253.68   14.76
  -2  -2   5 1292.56   14.47
  -2  -2   5 1400.99   12.94
  -2  -2   4  927.88   10.92
   2  -2  -4  953.45    8.77
  -2  -2   4  934.15   11.73
  -2  -2   3  809.75    9.89
  -2  -2   3  787.28    9.88
  -2  -2   3  811.92    8.51
  -2  -2   2  515.21    7.44
  -2  -2   2  525.42    6.55
  -2  -2   1 1239.11   10.15
   2  -2  -1 1215.60    9.11
  -2  -2   0  903.51    8.61
  -2  -2   0 1018.33    9.09
  -2  -2  -1  936.28    9.05
  -2  -2  -1  941.72    9.53
  -2  -2  -2  325.20    5.41
  -2  -2  -2  312.28    4.73
   2  -2   2  319.00    3.25
   2  -2   3  302.53    2.55
  -2  -2  -3  309.71    4.86
   2  -2   4 1273.69   11.96
  -2  -2  -4 1252.72   10.65
   2  -2   5  392.62    7.78
   2  -2   5  394.79    7.10
  -2  -2  -5  395.91    5.84
   2  -2   6 1013.83   12.58
   2  -2   6  994.92   13.71
  -2  -2  -6 1021.04   10.08
  -2  -2  -7   14.82    1.65
  -2  -2  -7   15.59    1.46
  -2  -2  -7   14.83    1.20
  -2  -2  -7   16.24    1.76
  -2  -2  -7   15.59    1.61
   2  -2   7   13.99    1.63
   2  -2   7   16.17    1.97
  -2  -2  -7   12.51    1.40
  -2  -2  -8   43.17    2.94
  -2  -2  -8   33.47    2.19
  -2  -2  -8   30.72    1.73
  -2  -2  -8   34.24    2.67
  -2  -2  -8   33.40    2.35
  -2  -2  -8   32.34    2.47
   2  -2   8   31.76    2.57
   2  -2   8   32.78    2.85
  -2  -2  -8   35.62    2.34
  -2  -2  -9  481.52   10.36
  -2  -2  -9  466.48    8.52
  -2  -2  -9  455.96    6.77
  -2  -2  -9  480.23    9.18
  -2  -2  -9  465.01    9.74
  -2  -2  -9  481.76    9.00
   2  -2   9  480.66   10.46
   2  -2   9  455.75   11.16
   2  -2  10   85.43    5.11
   2  -2  10   91.94    4.83
  -2  -2 -10  105.50    4.81
  -2  -2 -10   90.97    4.78
  -2  -2 -10   92.50    4.69
  -2  -2 -10   99.31    4.14
  -2  -2 -10   89.40    3.77
  -2  -2 -11  473.78    8.78
  -2  -2 -11  438.61    7.91
   2  -2  11  423.42   11.54
  -2  -2 -11  444.17    9.99
  -2  -2 -11  462.03   11.15
  -2  -2 -11  476.29   10.90
  -2  -2 -11  438.06    8.76
   2  -2  11  455.02   11.18
   2  -2  12  346.73    9.79
  -2  -2 -12  367.86    9.59
   2  -2  12  401.55    8.50
  -2  -2 -12  387.68   10.17
  -2  -2 -12  389.37    9.12
   2  -2  12  345.21   10.48
  -2  -2 -12  334.25    7.12
  -2  -2 -12  371.52    7.81
  -2  -2 -13   33.46    2.86
  -2  -2 -13   35.65    2.27
  -2  -2 -13   32.52    2.52
  -2  -2 -14    0.30    0.60
  -2  -2 -14    1.00    0.80
  -2  -2 -14    1.02    0.76
  -2  -2 -15   82.70    3.71
  -2  -2 -15   65.81    3.24
  -2  -2 -16   53.61    2.43
  -2  -2 -16   52.39    2.37
   2  -1 -17    6.64    0.88
   2  -1 -17    8.76    1.14
   2  -1 -16   54.28    2.71
  -2  -1  16   51.13    2.93
   2  -1 -15   31.77    2.59
  -2  -1  15   28.92    2.50
   2  -1 -14  407.67    9.85
  -2  -1  14  409.86    9.79
   2  -1 -14  385.33    7.52
  -2  -1  13    6.67    1.78
   2  -1 -13    5.30    1.28
   2  -1 -13    4.79    1.50
  -2  -1  13    4.83    1.41
  -2  -1  13    6.24    1.41
  -2  -1  13    6.58    1.57
   2  -1 -13    6.73    1.45
   2  -1 -13    5.27    1.06
  -2  -1  13    5.31    1.33
  -2  -1  12  177.97    7.46
  -2  -1  12  180.65    6.72
   2  -1 -12  173.90    5.92
   2  -1 -12  172.73    7.22
  -2  -1  12  172.79    6.51
   2  -1 -12  180.77    6.64
  -2  -1  12  176.22    6.32
  -2  -1  12  169.00    7.02
   2  -1 -11   17.27    1.45
   2  -1 -11   19.27    1.97
  -2  -1  11   17.80    2.34
  -2  -1  11   17.44    2.13
   2  -1 -11   19.05    2.18
  -2  -1  11   15.59    2.31
  -2  -1  11   18.28    2.14
  -2  -1  11   18.79    2.08
   2  -1 -10  538.15    9.79
  -2  -1  10  538.96   11.60
  -2  -1  10  539.78   10.74
  -2  -1  10  570.14   10.35
  -2  -1  10  556.01   12.33
  -2  -1  10  547.13   10.77
   2  -1 -10  555.83    8.03
  -2  -1   9  612.18   11.75
  -2  -1   9  638.52   11.04
   2  -1  -9  622.42    8.29
  -2  -1   9  605.97   10.70
  -2  -1   9  613.13   12.24
  -2  -1   8  174.39    5.35
  -2  -1   8  170.23    5.99
  -2  -1   8  161.57    5.10
   2  -1  -8  179.43    4.17
  -2  -1   8  167.29    5.72
  -2  -1   7   59.07    2.94
  -2  -1   7   62.79    3.42
  -2  -1   7   61.44    2.92
   2  -1  -7   69.51    2.92
  -2  -1   7   61.00    3.26
  -2  -1   6  305.57    6.27
  -2  -1   6  328.65    6.24
  -2  -1   6  299.61    6.93
  -2  -1   6  309.28    6.86
   2  -1  -6  324.46    5.87
  -2  -1   5  958.12   10.46
  -2  -1   5  965.45   11.64
  -2  -1   5 1065.85   12.33
   2  -1  -5 1024.17   10.17
  -2  -1   4 1305.24   11.57
  -2  -1   4 1287.46   12.83
  -2  -1   3 2365.31   15.85
   2  -1  -3 2366.70   15.22
  -2  -1   2 1913.62   13.82
   2  -1  -2 1933.61   13.09
  -2  -1   1  492.02    6.01
  -2  -1   1  470.31    5.98
  -2  -1   0  133.92    3.16
  -2  -1   0  134.85    3.19
  -2  -1  -1  669.48    7.45
  -2  -1  -1  578.27    6.89
  -2  -1  -2  378.08    5.94
  -2  -1  -2  420.17    6.05
  -2  -1  -3  355.29    6.19
  -2  -1  -3  323.15    5.93
  -2  -1  -4  230.23    5.16
  -2  -1  -4  234.07    3.72
  -2  -1  -5 1250.88    9.71
   2  -1   5 1255.81   13.09
  -2  -1  -6  426.36    8.20
  -2  -1  -6  445.62    5.49
  -2  -1  -7   93.34    4.10
  -2  -1  -7   88.54    4.10
  -2  -1  -7   93.32    3.58
   2  -1   7  102.25    4.24
   2  -1   7  106.38    4.53
  -2  -1  -7   98.80    2.54
  -2  -1  -8   94.59    4.42
   2  -1   8  105.02    4.59
   2  -1   8  100.96    4.79
  -2  -1  -8   93.29    3.78
  -2  -1  -8   94.23    3.51
  -2  -1  -8  100.93    4.38
  -2  -1  -9  310.25    6.25
  -2  -1  -9  340.17    8.93
  -2  -1  -9  329.22    6.92
  -2  -1  -9  362.77    7.80
   2  -1   9  353.04    9.17
  -2  -1  -9  311.56    8.24
   2  -1  10  799.56   11.91
  -2  -1 -10  808.08   14.56
  -2  -1 -10  887.15   11.69
   2  -1  10  851.53   15.05
  -2  -1 -10  858.43   14.56
   2  -1  11  508.77    9.59
  -2  -1 -11  441.78   11.01
  -2  -1 -11  424.02    8.01
  -2  -1 -11  515.64   11.75
  -2  -1 -11  345.78    9.65
   2  -1  11  428.58   11.51
   2  -1  11  453.17   11.43
   2  -1  12  236.98    8.60
   2  -1  12  224.50    6.33
  -2  -1 -12  241.11    8.22
  -2  -1 -12  246.22    8.03
  -2  -1 -12  237.59    5.74
  -2  -1 -12  211.60    7.33
   2  -1  12  237.44    8.44
  -2  -1 -13  121.57    5.56
  -2  -1 -13  134.28    5.65
  -2  -1 -14  189.02    6.57
  -2  -1 -14  191.91    6.23
  -2  -1 -15    2.87    0.88
  -2  -1 -15    2.72    0.87
  -2  -1 -15    1.79    0.76
  -2  -1 -16   90.91    3.03
  -2  -1 -16   97.81    3.76
  -2  -1 -17  149.95    3.57
  -2  -1 -17  149.80    3.37
   2   0 -17  121.53    3.28
   2   0 -16   75.71    3.13
   2   0 -16   79.85    3.76
  -2   0  15    5.92    1.32
   2   0 -15    5.98    1.37
  -2   0  14    2.02    1.05
   2   0 -14    2.87    1.16
  -2   0  13   26.60    2.66
   2   0 -13   23.28    2.33
   2   0 -13   20.50    2.69
  -2   0  13   25.77    2.71
   2   0 -13   24.53    1.86
  -2   0  13   27.68    2.68
   2   0 -13   27.00    2.66
  -2   0  12   10.08    1.73
  -2   0  12    7.71    1.56
   2   0 -12    8.84    1.53
   2   0 -12    7.32    1.70
   2   0 -12    8.20    1.58
  -2   0  12    8.73    1.59
  -2   0  12   12.81    2.04
   2   0 -11   23.33    1.53
  -2   0  11   28.60    2.65
  -2   0  11   27.05    2.48
   2   0 -11   31.20    2.74
   2   0 -11   28.83    2.44
  -2   0  11   29.52    2.65
  -2   0  11   28.67    2.57
  -2   0  10  441.87    9.28
  -2   0  10  453.26    9.39
  -2   0  10  431.94    9.59
  -2   0  10  442.66    9.68
   2   0 -10  445.56    9.14
   2   0 -10  425.55    6.49
  -2   0   9   50.37    3.11
   2   0  -9   59.23    3.15
   2   0  -9   49.58    2.13
  -2   0   9   50.87    3.08
  -2   0   8   22.00    1.96
   2   0  -8   23.98    1.95
  -2   0   8   19.23    1.84
  -2   0   7  545.65    8.99
   2   0  -7  570.12    8.68
  -2   0   7  561.71    8.85
  -2   0   6  427.10    7.43
  -2   0   6  419.82    7.07
   2   0  -6  420.02    6.90
  -2   0   5   75.42    2.66
  -2   0   5   72.75    2.80
  -2   0   5   73.53    2.75
   2   0  -5   69.65    2.64
  -2   0   4    5.24    0.72
  -2   0   4    5.89    0.84
   2   0  -4    6.00    0.81
  -2   0   3  569.16    6.94
   2   0  -3  554.31    6.77
  -2   0   2  190.00    3.69
   2   0  -2  186.57    3.70
   2   0  -2  190.01    1.63
  -2   0   2  190.65    3.31
   2   0  -1  135.61    1.83
  -2   0   1  135.85    3.12
  -2   0   1  143.17    3.23
  -2   0   0 1182.48   10.20
  -2   0   0 1135.37    9.83
  -2   0  -1   95.73    2.74
  -2   0  -1   87.49    2.60
  -2   0  -2 1218.95   10.83
  -2   0  -2 1199.97   10.97
  -2   0  -3 2056.21   16.25
  -2   0  -3 2016.07   15.84
  -2   0  -4    3.20    0.76
  -2   0  -5 1376.41   14.29
   2   0   5 1414.03   13.96
  -2   0  -6  617.75    9.92
   2   0   6  709.44   10.35
  -2   0  -7   56.37    2.72
  -2   0  -7   48.59    3.04
  -2   0  -7   53.51    3.08
   2   0   7   58.45    3.24
  -2   0  -8    1.68    0.82
  -2   0  -8    1.12    0.56
  -2   0  -8    2.52    0.89
   2   0   8    1.41    0.61
  -2   0  -8    2.29    0.85
   2   0   8    2.43    0.97
   2   0   8    0.98    0.82
  -2   0  -9  169.07    6.17
  -2   0  -9  175.30    5.53
  -2   0  -9  176.82    6.17
   2   0   9  178.92    6.52
   2   0   9  180.03    6.62
   2   0   9  184.44    5.35
   2   0  10    5.84    1.11
  -2   0 -10    4.87    1.31
  -2   0 -10    3.17    0.84
   2   0  10    5.79    1.46
  -2   0 -10    4.56    1.27
   2   0  10    3.25    1.20
  -2   0 -11  806.30   14.99
   2   0  11  841.00   12.52
  -2   0 -11  838.96   14.97
   2   0  11  823.12   15.67
   2   0  11  784.99   15.36
  -2   0 -12  463.11   11.56
   2   0  12  436.03    9.05
  -2   0 -12  424.33   11.16
  -2   0 -12  474.55   11.30
   2   0  12  458.86   11.82
   2   0  12  427.15   11.61
  -2   0 -13  121.14    5.65
  -2   0 -13  128.33    5.82
  -2   0 -14  100.50    4.90
  -2   0 -14  111.03    5.09
  -2   0 -15   12.44    1.67
  -2   0 -15   11.83    1.59
  -2   0 -15   10.84    1.62
  -2   0 -16  200.38    5.49
  -2   0 -16  205.67    5.69
  -2   0 -16  217.11    5.35
  -2   0 -17   39.49    1.92
  -2   0 -17   36.38    1.62
   2   1 -17    7.23    1.04
   2   1 -16   49.87    2.89
   2   1 -16   42.19    2.36
   2   1 -15   31.05    2.55
  -2   1  14  391.66    9.83
   2   1 -14  409.07    9.67
  -2   1  13    5.59    1.46
   2   1 -13    4.58    1.55
   2   1 -13    5.64    1.34
  -2   1  13    7.18    1.66
  -2   1  13    5.79    1.45
   2   1 -13    6.49    1.46
  -2   1  13    6.82    1.56
  -2   1  12  180.34    6.45
   2   1 -12  179.80    7.31
   2   1 -12  189.01    6.74
   2   1 -12  162.99    5.94
  -2   1  12  176.54    6.64
  -2   1  12  175.27    7.22
   2   1 -11   17.90    2.13
  -2   1  11   10.93    1.74
   2   1 -11   15.45    1.89
  -2   1  11   15.33    2.00
  -2   1  11   16.41    2.25
  -2   1  10  555.84   12.08
  -2   1  10  543.13   10.68
  -2   1  10  539.53    9.74
   2   1 -10  554.22   10.41
   2   1 -10  526.81    6.79
  -2   1   9  640.15   11.03
  -2   1   9  642.93   12.28
  -2   1   9  663.36   10.41
   2   1  -9  650.07   11.04
  -2   1   8  174.69    5.26
  -2   1   8  167.31    5.80
  -2   1   8  171.35    5.26
   2   1  -8  180.41    5.38
  -2   1   8  171.58    4.85
  -2   1   7   65.75    2.77
  -2   1   7   60.37    3.23
  -2   1   7   57.88    2.86
  -2   1   6  319.63    5.64
  -2   1   6  302.42    6.70
  -2   1   6  309.48    6.10
  -2   1   5  997.99    9.51
  -2   1   5  992.94   11.31
  -2   1   5 1006.15   10.73
  -2   1   4 1313.59   10.28
  -2   1   4 1293.62   12.25
  -2   1   4 1319.91   11.69
   2   1  -3 2359.16   11.55
  -2   1   3 2388.53   16.04
  -2   1   2 2036.43   11.78
   2   1  -2 2039.80   10.64
   2   1  -1  519.11    4.66
  -2   1   1  498.59    6.22
  -2   1   1  486.67    6.00
  -2   1   1  468.58    4.32
  -2   1   0  156.99    3.36
  -2   1   0  142.47    3.26
  -2   1   0  130.01    1.88
   2   1   0  163.26    2.73
  -2   1  -1  745.84    7.78
   2   1   1  724.63    6.55
  -2   1  -2  388.20    6.07
  -2   1  -2  406.55    5.93
  -2   1  -3  356.80    6.20
   2   1   3  361.27    5.18
  -2   1  -4  226.33    5.08
   2   1   4  237.91    4.18
   2   1   5 1332.95   12.19
   2   1   5 1300.15    9.39
   2   1   6  448.23    4.92
  -2   1  -6  435.11    8.30
  -2   1  -7   86.91    4.04
  -2   1  -7   97.38    4.21
  -2   1  -8   94.01    4.26
  -2   1  -8   84.44    4.06
  -2   1  -8   96.53    4.45
  -2   1  -8   93.69    3.36
   2   1   9  353.03    7.64
  -2   1  -9  324.56    8.72
  -2   1  -9  337.65    8.50
   2   1   9  323.55    8.66
   2   1   9  325.13    8.56
  -2   1  -9  335.94    8.61
  -2   1 -10  875.50   11.30
  -2   1 -10  870.53   15.16
   2   1  10  893.63   15.53
   2   1  10  912.56   15.43
  -2   1 -10  903.62   14.98
   2   1  11  427.62    9.00
  -2   1 -11  411.40    9.85
  -2   1 -11  423.82   10.78
   2   1  11  422.10   11.05
   2   1  11  399.54   10.43
  -2   1 -11  418.63   10.51
  -2   1 -12  240.76    5.78
  -2   1 -12  229.61    6.96
  -2   1 -12  236.68    8.16
   2   1  12  276.63    7.23
  -2   1 -12  251.47    8.13
   2   1  12  233.21    8.01
   2   1  12  261.25    8.93
  -2   1 -13  126.49    5.67
  -2   1 -13  119.41    5.67
  -2   1 -13  106.31    4.51
  -2   1 -14  199.79    6.86
  -2   1 -14  188.58    6.62
  -2   1 -15    1.82    0.87
  -2   1 -15    2.40    0.89
  -2   1 -15    2.75    0.85
  -2   1 -16   98.07    3.77
  -2   1 -16   96.63    3.63
  -2   1 -16  106.09    3.81
   2   1  17  165.51    3.64
  -2   1 -17  165.35    3.65
  -2   1 -17  171.65    3.74
  -2   2  17   14.76    1.30
   2   2 -16  131.66    4.16
   2   2 -16  121.48    4.21
   2   2 -15  490.26    9.27
  -2   2  15  458.09    7.64
   2   2 -14   56.16    3.40
   2   2 -13  242.19    7.27
   2   2 -12   28.52    2.57
   2   2 -12   27.73    2.55
   2   2 -12   26.85    2.81
  -2   2  12   29.71    2.14
  -2   2  12   29.89    2.94
  -2   2  12   27.48    2.70
  -2   2  12   27.03    2.49
  -2   2  12   30.51    2.88
   2   2 -11  140.91    6.11
   2   2 -11  145.34    5.52
  -2   2  11  163.54    5.74
  -2   2  11  160.95    4.94
  -2   2  11  152.56    6.33
  -2   2  11  153.42    6.02
   2   2 -11  155.47    5.84
   2   2 -10   67.52    3.66
  -2   2  10   62.45    3.94
  -2   2  10   69.01    3.86
   2   2 -10   65.68    3.65
  -2   2   9  271.05    7.58
   2   2  -9  264.56    6.97
  -2   2   9  254.62    7.54
  -2   2   9  254.17    7.00
  -2   2   8   94.73    4.19
   2   2  -8   93.94    3.96
  -2   2   8   86.56    4.10
  -2   2   8   92.63    3.95
   2   2  -7  162.76    4.98
  -2   2   7  174.71    5.30
  -2   2   7  178.04    5.10
  -2   2   7  171.38    5.26
  -2   2   6    2.47    0.76
  -2   2   6    2.14    0.73
   2   2  -6    2.03    0.72
   2   2  -5 1329.07   13.20
  -2   2   5 1318.36   13.12
  -2   2   5 1323.81   12.70
   2   2  -4  971.19   10.39
  -2   2   4  972.61   10.05
   2   2  -3  792.09    8.93
  -2   2   3  780.79    8.47
   2   2  -2  507.54    6.80
  -2   2   2  483.40    6.38
   2   2  -1 1257.46   11.03
  -2   2   1 1241.63    7.15
  -2   2   0  932.49    8.85
  -2   2   0  954.87    8.77
  -2   2  -1 1075.36   10.00
   2   2   1 1055.81    9.26
  -2   2  -2  301.40    5.49
  -2   2  -2  296.99    5.06
   2   2   3  365.15    5.47
  -2   2  -3  349.14    5.85
   2   2   4 1244.92   12.13
   2   2   4 1271.04   10.43
   2   2   5  346.86    6.51
   2   2   5  338.75    6.79
  -2   2  -5  355.77    6.99
  -2   2  -6  963.54   12.23
  -2   2  -6  950.70   12.58
   2   2   6  985.24    9.04
   2   2   6  985.38   12.70
  -2   2  -7   13.72    1.38
  -2   2  -7   14.31    1.66
  -2   2  -7   13.68    1.80
  -2   2  -7   15.43    1.66
   2   2   7   15.03    1.53
  -2   2  -7   15.11    1.70
   2   2   7   17.41    1.10
   2   2   7   12.86    1.61
  -2   2  -8   30.58    2.05
  -2   2  -8   30.62    2.55
  -2   2  -8   32.81    2.83
  -2   2  -8   30.66    2.43
   2   2   8   35.81    2.45
  -2   2  -8   31.08    2.53
   2   2   8   33.77    2.68
  -2   2  -9  474.68    8.22
  -2   2  -9  467.45   10.73
  -2   2  -9  477.85   10.74
  -2   2  -9  467.01   10.27
   2   2   9  453.70   10.36
   2   2   9  476.04   10.02
  -2   2 -10   98.04    4.98
  -2   2 -10   96.62    5.02
  -2   2 -10   89.40    4.47
   2   2  10   97.03    4.37
   2   2  10   89.56    4.83
   2   2  10   93.38    4.66
  -2   2 -10   92.62    4.73
  -2   2 -11  478.94   11.13
  -2   2 -11  440.54   10.86
  -2   2 -11  459.02    8.25
   2   2  11  451.97    9.58
  -2   2 -11  441.52   10.58
   2   2  11  429.64   10.95
   2   2  11  479.33   10.72
  -2   2 -12  392.82    9.81
  -2   2 -12  372.71   10.19
  -2   2 -12  384.98    9.84
   2   2  12  358.13   10.12
   2   2  12  341.86    8.13
  -2   2 -13   37.25    2.87
  -2   2 -13   31.62    2.80
  -2   2 -14    0.62    0.76
  -2   2 -14    0.30    0.59
  -2   2 -14    0.55    0.69
  -2   2 -15   75.23    3.47
  -2   2 -15   73.74    2.91
  -2   2 -16   50.38    2.43
   2   2  16   53.63    2.51
   2   3 -16   71.55    2.77
  -2   3  16   81.14    2.80
   2   3 -16   76.88    3.21
  -2   3  15   11.91    1.47
   2   3 -15   12.10    1.71
  -2   3  14   18.33    1.66
  -2   3  13   25.15    2.14
   2   3 -13   26.09    2.19
  -2   3  13   28.00    2.04
   2   3 -12   99.11    4.32
  -2   3  12   83.53    4.33
   2   3 -12   85.52    4.27
  -2   3  12   96.99    4.47
  -2   3  12  104.55    4.07
  -2   3  11   72.37    4.05
   2   3 -11   67.68    3.72
   2   3 -11   70.16    3.71
   2   3 -11   59.36    3.94
  -2   3  10   51.35    3.40
  -2   3  10   51.59    3.33
   2   3 -10   53.08    3.25
   2   3 -10   49.70    3.04
   2   3 -10   50.80    3.45
  -2   3   9  748.88   12.14
  -2   3   9  714.06   12.13
   2   3  -9  722.91   11.73
   2   3  -9  707.13   11.25
   2   3  -8   24.16    2.11
  -2   3   8   19.54    1.92
  -2   3   8   22.72    2.04
   2   3  -8   21.01    1.86
  -2   3   7   82.34    3.53
  -2   3   7   78.60    3.43
   2   3  -7   82.68    3.60
   2   3  -7   83.28    2.49
  -2   3   6  205.53    5.21
   2   3  -6  216.08    5.49
  -2   3   5  383.91    6.62
   2   3  -5  402.03    7.06
   2   3  -5  406.85    6.50
  -2   3   4 1439.57   12.69
   2   3  -4 1491.02   13.53
   2   3  -3 3533.85   21.37
   2   3  -3 3430.87   21.93
   2   3  -2  224.67    5.04
   2   3  -2  229.92    4.62
  -2   3   2  218.72    4.06
   2   3  -1 2361.47   16.46
   2   3  -1 2235.38   16.19
   2   3   0  230.56    4.53
  -2   3   0  232.88    4.15
   2   3   1  197.44    4.47
  -2   3  -1  164.83    3.42
   2   3   1  187.72    4.24
  -2   3  -1  160.05    3.68
   2   3   2  300.55    5.70
  -2   3  -2  296.07    5.00
   2   3   3  154.36    3.78
  -2   3  -3  155.64    3.71
   2   3   4   38.05    2.13
   2   3   4   43.67    2.03
  -2   3  -4   36.03    1.96
   2   3   4   40.79    2.33
  -2   3  -5  231.89    5.68
  -2   3  -5  287.56    6.17
  -2   3  -5  238.36    6.84
   2   3   5  287.25    5.28
   2   3   5  265.54    6.03
   2   3   5  308.14    6.57
  -2   3  -5  258.88    6.35
  -2   3  -5  252.96    6.41
   2   3   6   29.28    1.67
   2   3   6   26.69    2.13
  -2   3  -6   21.53    2.06
  -2   3  -6   22.15    1.81
  -2   3  -6   23.33    1.92
  -2   3  -6   22.32    2.03
   2   3   7  556.02    9.88
  -2   3  -7  560.80    9.26
  -2   3  -7  575.63   10.48
  -2   3  -7  619.10   12.23
  -2   3  -7  559.94    9.94
  -2   3  -7  549.39    9.98
   2   3   7  616.33   10.68
   2   3   7  607.96    7.72
  -2   3  -7  619.29   11.11
   2   3   8  131.58    5.04
  -2   3  -8  148.45    6.19
  -2   3  -8  151.33    4.84
  -2   3  -8  125.12    4.94
   2   3   8  143.56    5.42
   2   3   8  137.34    4.90
  -2   3  -8  138.67    5.43
  -2   3  -9  363.96   10.12
  -2   3  -9  323.22    8.31
   2   3   9  329.70    8.05
   2   3   9  354.12    8.96
   2   3   9  348.88    8.17
  -2   3 -10   30.63    2.19
  -2   3 -10   24.83    2.56
  -2   3 -10   33.02    3.15
  -2   3 -10   30.50    2.68
  -2   3 -10   30.04    2.73
  -2   3 -10   27.00    2.80
   2   3  10   28.22    2.43
   2   3  10   30.53    2.77
  -2   3 -11   49.51    3.61
  -2   3 -11   59.48    4.10
  -2   3 -11   54.87    3.54
  -2   3 -11   65.96    4.25
  -2   3 -11   55.52    3.62
   2   3  11   55.15    3.35
   2   3  11   53.65    3.73
  -2   3 -12  146.51    5.60
  -2   3 -12  132.74    5.87
  -2   3 -12  143.35    5.59
  -2   3 -12  145.79    4.36
  -2   3 -12  150.23    6.12
  -2   3 -13   40.20    2.79
  -2   3 -13   36.01    2.78
   2   3  13   36.23    2.90
  -2   3 -13   40.75    3.04
  -2   3 -13   38.94    2.92
  -2   3 -14   26.27    2.15
  -2   3 -14   26.28    2.25
  -2   3 -14   29.12    2.35
   2   3  14   33.32    2.53
  -2   3 -14   29.11    2.25
  -2   3 -15   36.26    2.25
   2   3  15   41.47    2.43
  -2   3 -15   38.60    2.30
  -2   3 -15   41.79    2.17
  -2   3 -16   38.59    1.88
  -2   3 -16   38.27    1.78
   2   4 -16    2.37    0.65
   2   4 -15   71.88    3.35
   2   4 -15   52.86    2.34
  -2   4  14   38.73    1.98
   2   4 -14   33.94    2.28
  -2   4  14   39.18    2.23
  -2   4  13  176.13    5.37
  -2   4  13  173.11    4.85
   2   4 -13  172.62    5.63
  -2   4  12   29.93    2.35
  -2   4  12   27.98    2.38
  -2   4  12   29.55    2.20
  -2   4  11   11.89    1.78
  -2   4  11   20.53    2.12
  -2   4  10   40.75    3.05
  -2   4  10   35.11    2.80
   2   4  -9  185.51    5.72
  -2   4   9  205.00    6.62
  -2   4   9  201.89    6.66
   2   4  -8  115.61    4.36
  -2   4   8   89.23    4.46
   2   4  -7  729.92   10.88
  -2   4   7  729.04   11.83
  -2   4   6  675.57   10.83
   2   4  -6  676.55   10.45
   2   4  -6  660.47    8.12
  -2   4   5  277.66    6.52
  -2   4   5  286.90    7.23
   2   4  -5  270.93    5.89
   2   4  -5  280.33    5.35
   2   4  -4  179.82    4.38
   2   4  -4  176.91    4.48
   2   4  -3  170.64    4.34
   2   4  -3  154.13    4.41
   2   4  -3  162.41    4.07
  -2   4   3  179.38    4.92
  -2   4   2  617.77    9.62
   2   4  -2  592.37    8.76
   2   4  -2  618.04    8.02
   2   4  -2  607.46    8.49
  -2   4   1   27.35    1.97
   2   4  -1   22.73    1.71
   2   4  -1   27.76    1.59
   2   4  -1   26.51    1.77
  -2   4   0  140.21    4.36
  -2   4   0  137.90    4.38
  -2   4   0  149.33    4.50
   2   4   0  148.54    4.36
   2   4   0  149.61    3.59
  -2   4   0  140.46    4.49
   2   4   1  107.11    3.50
  -2   4  -1   96.32    3.69
  -2   4  -1  105.29    3.78
   2   4   1   94.61    2.87
   2   4   1  100.51    3.64
  -2   4  -1   94.15    3.77
  -2   4  -2   76.64    3.49
  -2   4  -2   85.20    3.40
  -2   4  -2   79.73    3.39
  -2   4  -2   84.79    3.51
  -2   4  -2   80.06    3.46
   2   4   2   84.15    3.62
   2   4   2   83.27    3.14
   2   4   2   91.71    2.89
   2   4   2   78.36    3.32
  -2   4  -3  487.24    8.03
  -2   4  -3  490.15    8.52
   2   4   3  442.42    7.40
   2   4   3  381.50    6.45
   2   4   3  385.26    8.16
  -2   4  -3  448.15    8.50
   2   4   3  444.07    8.31
  -2   4  -3  460.42    8.84
  -2   4  -3  476.36    9.02
  -2   4  -4 1035.16   14.18
  -2   4  -4 1000.74   13.93
  -2   4  -4 1022.09   12.44
  -2   4  -4 1031.81   13.20
  -2   4  -4 1082.56   14.89
  -2   4  -4 1031.13   13.79
   2   4   4 1090.58   14.52
   2   4   4 1047.13   13.62
   2   4   4 1156.06   12.35
   2   4   4 1171.67   12.28
  -2   4  -5   93.56    3.90
  -2   4  -5   96.68    4.65
  -2   4  -5   90.91    3.85
   2   4   5   98.12    4.43
   2   4   5  100.43    3.68
   2   4   5   90.96    3.30
  -2   4  -5   90.32    4.23
  -2   4  -5   94.87    4.36
  -2   4  -6  223.45    7.54
  -2   4  -6  235.11    6.28
   2   4   6  236.41    7.11
  -2   4  -6  233.40    7.12
  -2   4  -6  233.06    7.05
   2   4   6  222.69    5.87
   2   4   6  238.12    5.34
   2   4   7  220.18    5.14
   2   4   7  223.98    6.27
  -2   4  -7  196.77    5.84
  -2   4  -7  205.56    6.30
   2   4   7  213.22    7.01
   2   4   7  214.56    6.63
  -2   4  -7  201.10    6.85
  -2   4  -8   25.25    2.13
   2   4   8   27.43    2.43
  -2   4  -8   27.12    2.70
   2   4   8   25.89    2.60
  -2   4  -8   23.80    2.37
  -2   4  -9   64.74    3.32
   2   4   9   61.36    4.01
  -2   4  -9   54.71    3.60
  -2   4  -9   64.81    4.09
  -2   4 -10   27.71    2.13
  -2   4 -10   21.64    2.33
   2   4  10   24.52    2.59
  -2   4 -10   27.03    2.92
   2   4  10   18.45    2.15
  -2   4 -10   21.37    2.49
  -2   4 -11  199.15    7.32
   2   4  11  202.18    7.16
  -2   4 -11  208.48    6.82
  -2   4 -11  193.96    5.21
  -2   4 -12   36.75    2.97
  -2   4 -12   32.53    2.72
  -2   4 -12   34.88    2.83
  -2   4 -12   36.91    2.80
   2   4  12   33.81    2.85
  -2   4 -12   40.95    2.20
  -2   4 -13   51.01    3.15
   2   4  13   57.59    3.40
  -2   4 -13   54.16    2.97
  -2   4 -13   50.89    3.03
  -2   4 -13   49.57    3.08
  -2   4 -14    2.33    0.80
   2   4  14    3.33    0.93
  -2   4 -14    2.41    0.82
  -2   4 -14    2.45    0.82
  -2   4 -15   88.15    2.75
  -2   4 -15   82.27    2.85
  -2   5  14   43.74    1.78
   2   5 -13   95.04    4.27
  -2   5  13   99.17    5.91
  -2   5  12   98.68    3.49
  -2   5  12  100.20    3.73
   2   5 -11   19.09    1.99
  -2   5  11   23.26    1.99
   2   5 -10   77.98    3.91
  -2   5  10   89.76    4.13
   2   5  -9  251.43    7.12
  -2   5   9  255.67    7.28
   2   5  -8   96.71    4.38
  -2   5   8  107.69    4.85
  -2   5   7  576.51   11.21
  -2   5   6   16.65    1.95
  -2   5   5    6.54    1.27
   2   5  -5    8.75    1.06
  -2   5   4  376.09    8.61
   2   5  -4  333.88    6.52
  -2   5   3   54.67    3.24
  -2   5   3   61.61    3.42
   2   5  -3   72.67    3.10
  -2   5   3   71.98    3.49
   2   5  -2  112.62    3.93
  -2   5   2  101.47    4.27
  -2   5   2  104.45    4.38
   2   5  -2  117.27    4.40
  -2   5   2  115.21    4.34
   2   5  -1   62.07    2.96
  -2   5   1   66.91    3.47
  -2   5   1   60.39    3.20
   2   5   0  549.38    9.73
   2   5   0  678.36   10.09
   2   5   1  190.40    6.13
  -2   5  -1  208.90    6.01
  -2   5  -2  850.97   12.81
   2   5   2  839.86   11.31
   2   5   3  120.05    4.16
   2   5   3  126.28    5.15
  -2   5  -3  118.50    4.87
  -2   5  -3  118.15    4.66
  -2   5  -3  113.61    4.10
  -2   5  -3  123.89    4.77
  -2   5  -4   29.49    2.57
  -2   5  -4   19.97    2.02
  -2   5  -4   27.24    2.31
  -2   5  -4   30.21    2.42
  -2   5  -4   35.47    2.76
  -2   5  -4   25.51    2.38
   2   5   4   27.99    2.55
   2   5   4   28.09    2.36
   2   5   4   29.11    2.08
  -2   5  -5  131.50    4.98
  -2   5  -5  125.25    5.20
   2   5   5  138.45    5.68
  -2   5  -5  127.58    5.45
   2   5   5  124.31    4.22
   2   5   6  336.98    7.00
   2   5   6  332.53    9.10
  -2   5  -6  330.86    8.62
  -2   5  -6  324.69    7.90
   2   5   6  317.03    8.39
  -2   5  -6  337.42    9.04
   2   5   7  592.92    9.24
  -2   5  -7  575.11   12.56
   2   5   7  537.90   11.93
  -2   5  -7  588.44   11.60
   2   5   7  549.65   11.10
  -2   5  -7  634.92   12.72
  -2   5  -8  627.52   10.74
  -2   5  -8  575.26   12.60
   2   5   8  632.20   12.99
  -2   5  -8  578.99   11.42
   2   5   8  552.33   11.15
  -2   5  -8  579.85   12.31
  -2   5  -9  136.58    6.04
  -2   5  -9  124.78    4.53
  -2   5  -9  122.21    5.05
  -2   5  -9  114.51    5.40
   2   5   9  104.74    5.27
  -2   5 -10  119.35    5.54
  -2   5 -10  123.37    4.22
  -2   5 -10  117.48    5.26
  -2   5 -10  125.66    5.48
   2   5  10  121.32    5.54
  -2   5 -10  113.38    4.56
  -2   5 -11  106.72    3.56
   2   5  11   99.01    4.72
  -2   5 -11  103.42    4.65
  -2   5 -12   30.20    1.64
  -2   5 -12   32.95    2.44
  -2   5 -12   31.24    2.42
   2   5  12   33.94    2.54
  -2   5 -13   18.33    1.61
  -2   5 -13   20.58    1.77
  -2   5 -14   53.15    2.11
  -2   5 -14   66.49    2.47
  -2   6  13   37.83    1.66
  -2   6  13   41.40    1.86
   2   6 -13   37.80    1.98
  -2   6  12   38.38    2.18
   2   6 -12   39.53    2.39
  -2   6  11   15.81    1.63
  -2   6  11   15.98    1.33
   2   6 -11   16.79    1.85
  -2   6  10   44.71    2.52
  -2   6  10   43.20    2.86
   2   6 -10   40.44    2.89
  -2   6   9   60.21    3.55
  -2   6   9   64.79    3.33
  -2   6   8   89.95    4.16
  -2   6   8   71.24    3.98
  -2   6   7  448.48    9.62
  -2   6   7  377.27    9.26
  -2   6   6   92.18    4.58
  -2   6   6  101.16    4.63
  -2   6   5  307.06    8.28
  -2   6   5  261.34    7.51
   2   6  -4  146.33    4.34
  -2   6   4  143.31    5.67
  -2   6   4  153.62    5.72
   2   6  -3  100.36    4.31
   2   6  -3  104.46    3.84
  -2   6   3  106.79    4.82
  -2   6   2   37.92    2.72
   2   6  -2   44.36    2.58
  -2   6   2   37.29    2.90
  -2   6   2   47.62    3.19
  -2   6   1   55.88    3.33
   2   6  -1   55.95    2.95
  -2   6   1   59.47    3.58
  -2   6   1   62.50    3.64
  -2   6   0   45.72    3.06
   2   6   0   47.43    3.13
  -2   6   0   43.87    3.04
   2   6   0   43.79    2.66
  -2   6  -1   78.50    4.04
  -2   6  -1   80.82    4.20
   2   6   1   82.04    3.64
   2   6   1   86.28    4.45
   2   6   2   18.17    1.86
   2   6   2   19.99    2.09
  -2   6  -3  120.46    5.07
  -2   6  -3  116.93    4.33
   2   6   3  126.88    4.52
   2   6   3  119.39    5.04
  -2   6  -4  219.06    6.83
  -2   6  -4  213.63    6.27
  -2   6  -4  206.93    6.80
   2   6   4  231.92    7.51
   2   6   4  230.68    6.13
   2   6   4  204.26    6.87
  -2   6  -5  238.87    7.37
   2   6   5  234.98    6.13
  -2   6  -5  230.87    6.86
  -2   6  -6   91.02    4.23
  -2   6  -6   96.02    4.58
  -2   6  -6  103.80    4.86
   2   6   6  108.38    5.22
   2   6   6  107.45    4.02
   2   6   6  107.31    5.03
  -2   6  -7  215.97    6.87
   2   6   7  213.07    7.24
  -2   6  -7  214.73    6.96
  -2   6  -7  212.84    6.23
  -2   6  -8   84.20    4.12
   2   6   8   78.64    4.34
  -2   6  -8   84.03    4.32
  -2   6  -8   77.29    3.56
  -2   6  -9   55.78    3.15
  -2   6  -9   54.16    3.37
  -2   6  -9   47.04    2.58
   2   6   9   55.58    3.51
  -2   6 -10   90.95    4.08
  -2   6 -10  103.34    4.34
  -2   6 -10   97.19    3.26
   2   6  10   90.31    4.16
  -2   6 -11    0.88    0.66
  -2   6 -11    0.62    0.66
  -2   6 -11    0.67    0.39
   2   6  11    0.99    0.69
  -2   6 -12   45.94    2.24
  -2   6 -12   46.62    2.28
  -2   6 -13   17.14    1.10
  -2   7  11  130.47    3.22
  -2   7  11  123.64    3.16
   2   7 -10   36.17    2.13
  -2   7  10   32.28    1.98
   2   7  -9   39.76    2.45
  -2   7   9   44.20    2.55
   2   7  -8   39.04    2.56
  -2   7   8   45.60    2.82
   2   7  -7   14.05    1.68
  -2   7   7   17.61    1.70
  -2   7   7   18.07    1.91
   2   7  -6    3.19    1.00
  -2   7   6    4.18    1.11
  -2   7   6    3.09    0.96
   2   7  -5   78.00    3.72
  -2   7   5   84.46    4.34
  -2   7   5   76.58    3.82
   2   7  -4  167.86    5.30
  -2   7   4  175.63    6.09
   2   7  -3  184.49    5.34
  -2   7   3  180.70    6.21
  -2   7   2   96.47    4.54
  -2   7   2   90.19    4.38
  -2   7   1  233.89    6.63
  -2   7   1  229.63    7.08
  -2   7   1  235.06    7.01
  -2   7   0   32.25    2.56
  -2   7   0   30.24    2.69
  -2   7   0   30.24    2.58
  -2   7  -1   12.82    1.72
  -2   7  -1   12.96    1.86
  -2   7  -1   13.61    1.78
  -2   7  -2   40.29    2.91
  -2   7  -2   52.08    3.30
  -2   7  -3  278.47    7.58
  -2   7  -4   49.46    3.15
  -2   7  -5   15.97    1.79
  -2   7  -5   17.70    1.98
  -2   7  -6    7.49    1.37
  -2   7  -6    9.33    1.38
  -2   7  -6    8.72    1.51
  -2   7  -7   47.57    2.85
  -2   7  -7   48.49    2.64
  -2   7  -8  148.80    4.61
  -2   7  -8  140.81    4.07
  -2   7  -9   55.76    2.50
  -2   7  -9   60.23    2.30
  -2   7 -10   10.51    0.80
  -2   8   8   75.57    2.40
  -2   8   8   67.64    2.30
  -2   8   7  227.61    4.51
  -2   8   7  216.48    4.72
  -2   8   6  186.10    4.76
  -2   8   5   44.82    2.47
   2   8  -4   45.42    2.25
  -2   8   4   57.65    2.89
  -2   8   3   12.51    1.46
  -2   8   3   11.63    1.41
  -2   8   2   45.16    2.72
  -2   8   2   48.14    2.78
  -2   8   1  129.77    4.59
  -2   8   1  132.14    4.58
  -2   8   0  522.13    9.52
  -2   8   0  500.96    9.13
  -2   8  -1  360.63    7.38
  -2   8  -1  295.54    7.07
  -2   8  -2   14.75    1.58
  -2   8  -3   90.35    3.60
  -2   8  -3   90.69    3.69
  -2   8  -4   54.37    2.73
  -2   8  -5   24.03    1.73
  -2   8  -6  102.68    3.33
  -2   8  -6   82.46    2.89
  -2   8  -7   44.36    1.98
  -2   8  -7   42.09    1.80
  -2   8  -8   25.06    1.28
   2   9  -1   24.01    1.39
  -2   9   1   25.01    1.41
  -2   9   0   91.95    2.74
   2   9   0  100.33    2.91
  -2   9  -1  110.62    3.00
  -2   9  -3    1.96    0.48
  -3  -8   7   20.13    1.28
  -3  -8   6   11.00    1.06
  -3  -8   5   40.89    2.07
  -3  -8   5   44.87    2.14
  -3  -8   4   38.21    2.09
  -3  -8   3    2.81    0.74
  -3  -8   2   32.60    2.04
  -3  -8   2   34.56    1.98
  -3  -8   1  178.34    4.80
  -3  -8   1  191.94    4.69
  -3  -8   0   20.93    1.68
  -3  -8   0   20.42    1.57
  -3  -8  -1  108.33    3.67
  -3  -8  -1   84.79    3.06
  -3  -8  -2   46.98    2.40
  -3  -8  -2   51.01    2.29
  -3  -8  -3    1.56    0.53
  -3  -8  -4   38.18    2.06
  -3  -8  -5  104.76    3.16
  -3  -8  -5  130.10    3.37
  -3  -8  -6   98.33    2.61
  -3  -8  -6   88.55    2.66
  -3  -7  10    7.52    0.90
  -3  -7   9   85.74    3.10
  -3  -7   8   36.07    2.19
  -3  -7   7  303.37    6.60
  -3  -7   6   51.35    2.92
  -3  -7   6   45.01    2.63
  -3  -7   5  137.93    4.88
  -3  -7   4   68.11    3.48
  -3  -7   3   56.25    3.18
  -3  -7   3   48.32    2.83
  -3  -7   2   53.87    3.19
  -3  -7   2   58.61    3.15
  -3  -7   1  120.69    4.69
  -3  -7   1  143.01    4.83
  -3  -7   0    0.75    0.78
  -3  -7   0    1.36    0.81
  -3  -7  -1   50.75    3.10
  -3  -7  -2   70.19    3.65
  -3  -7  -3  101.25    4.34
  -3  -7  -3  114.39    3.93
  -3  -7  -4  195.38    5.85
  -3  -7  -4  165.01    5.17
  -3  -7  -5   81.58    3.49
  -3  -7  -5   94.45    3.61
  -3  -7  -6   86.07    3.39
  -3  -7  -6   68.65    3.00
  -3  -7  -7   36.84    2.21
  -3  -7  -7   31.79    1.92
  -3  -7  -8   13.64    1.27
  -3  -7  -8   15.44    1.23
  -3  -7  -8   11.10    1.16
  -3  -7  -9    4.77    0.71
  -3  -7  -9    3.92    0.69
   3  -6 -12    6.63    0.78
   3  -6 -12    9.06    0.92
  -3  -6  12    8.80    1.01
   3  -6 -11   19.25    1.49
   3  -6 -11   20.13    1.48
  -3  -6  11   21.12    1.69
   3  -6 -10   43.73    2.41
  -3  -6  10   42.74    2.56
   3  -6  -9   11.68    1.42
  -3  -6   9   14.36    1.67
   3  -6  -9   15.14    1.49
   3  -6  -8   29.82    2.20
  -3  -6   8   28.29    2.30
  -3  -6   7   39.08    2.85
   3  -6  -7   39.60    2.37
  -3  -6   6   94.62    4.41
  -3  -6   5  144.57    5.43
  -3  -6   4    3.62    1.02
  -3  -6   4    4.79    1.19
   3  -6  -4    3.80    0.88
  -3  -6   3  227.76    6.49
  -3  -6   3  230.02    6.89
  -3  -6   2   39.92    2.89
  -3  -6   1   23.19    2.26
  -3  -6   1   23.30    2.20
  -3  -6   0  142.93    5.50
  -3  -6  -1  357.03    7.94
  -3  -6  -1  537.79   10.78
  -3  -6  -2  210.00    6.19
  -3  -6  -2  219.91    6.83
  -3  -6  -2  205.69    6.38
  -3  -6  -3    1.64    0.81
  -3  -6  -3    1.52    0.83
  -3  -6  -4   14.17    1.76
  -3  -6  -4   18.81    1.86
  -3  -6  -5  231.21    6.71
  -3  -6  -5  239.62    6.67
  -3  -6  -5  235.35    6.92
  -3  -6  -6   45.74    2.99
  -3  -6  -6   46.10    2.85
  -3  -6  -6   46.94    3.06
  -3  -6  -7  229.03    6.55
  -3  -6  -7  241.22    6.21
  -3  -6  -7  249.12    6.68
  -3  -6  -8  376.10    8.05
  -3  -6  -8  384.36    9.15
  -3  -6  -9  259.69    6.29
  -3  -6  -9  271.82    6.08
  -3  -6 -10   35.04    2.14
  -3  -6 -10   35.40    1.93
  -3  -6 -11   37.90    1.92
  -3  -5  14   82.11    2.73
   3  -5 -14   87.55    2.59
  -3  -5  13   83.37    3.24
   3  -5 -13   74.47    2.87
   3  -5 -13   80.00    2.80
   3  -5 -12   25.18    1.86
  -3  -5  12   22.33    1.91
   3  -5 -12   26.51    1.89
  -3  -5  11   22.84    2.07
   3  -5 -11   25.20    1.99
   3  -5 -11   21.68    1.85
   3  -5 -10   16.32    1.70
  -3  -5  10   16.64    1.90
   3  -5 -10   17.22    1.75
  -3  -5   9   82.64    4.08
   3  -5  -9   90.51    3.95
   3  -5  -9   90.78    3.97
   3  -5  -8  325.41    7.56
  -3  -5   8  324.97    8.59
   3  -5  -7  343.95    7.54
   3  -5  -7  354.45    7.90
  -3  -5   7  354.50    8.89
   3  -5  -6  124.79    4.65
  -3  -5   6  194.96    6.46
  -3  -5   5  429.54    8.83
  -3  -5   5  453.24    9.65
  -3  -5   4   22.30    2.02
   3  -5  -4   22.77    1.91
  -3  -5   4   23.43    2.20
  -3  -5   3  313.41    7.26
  -3  -5   3  302.08    7.58
  -3  -5   2  150.35    5.44
   3  -5  -2  163.89    4.57
  -3  -5   1  230.42    6.90
  -3  -5   1  223.94    6.05
  -3  -5   0   47.88    3.17
  -3  -5   0   48.90    2.97
  -3  -5  -1   39.35    2.67
  -3  -5  -1   37.66    2.65
  -3  -5  -2   28.03    2.31
  -3  -5  -2   23.28    2.12
  -3  -5  -2   21.77    2.27
  -3  -5  -3   67.42    3.65
  -3  -5  -3   79.00    3.58
  -3  -5  -3   83.74    3.94
  -3  -5  -3   77.35    3.94
  -3  -5  -3   64.39    3.70
  -3  -5  -4   55.42    3.39
  -3  -5  -4   58.53    3.19
  -3  -5  -4   64.59    3.51
  -3  -5  -4   66.15    3.67
  -3  -5  -4   71.02    3.90
  -3  -5  -5 1127.07   15.74
  -3  -5  -5 1102.20   14.47
  -3  -5  -5 1001.31   14.08
  -3  -5  -5 1130.96   15.52
  -3  -5  -5 1020.13   14.10
  -3  -5  -6  162.06    5.92
  -3  -5  -6  167.28    5.60
  -3  -5  -6  179.54    5.75
  -3  -5  -6  175.83    5.97
  -3  -5  -6  179.49    5.69
  -3  -5  -7   21.94    2.25
  -3  -5  -7   18.16    1.93
  -3  -5  -7   23.65    2.10
  -3  -5  -7   22.18    2.17
  -3  -5  -7   20.36    1.96
  -3  -5  -8   28.45    2.50
  -3  -5  -8   27.20    2.29
  -3  -5  -8   33.22    2.34
  -3  -5  -8   32.38    2.50
  -3  -5  -8   29.30    2.18
  -3  -5  -9  273.08    7.25
  -3  -5  -9  237.69    5.85
  -3  -5  -9  259.95    6.61
  -3  -5  -9  229.99    6.32
  -3  -5 -10   58.93    2.90
  -3  -5 -10   55.13    2.90
  -3  -5 -11   81.75    3.18
  -3  -5 -12    4.77    4.52
  -3  -5 -12    6.06    0.92
  -3  -5 -13   26.92    1.41
  -3  -4  15   11.78    1.17
   3  -4 -15    8.01    0.87
  -3  -4  14   60.59    2.93
   3  -4 -14   66.51    2.78
  -3  -4  13   20.10    1.90
   3  -4 -13   24.31    1.93
  -3  -4  12   68.03    3.63
   3  -4 -12   69.87    3.38
   3  -4 -12   78.81    3.68
   3  -4 -11   13.56    1.65
  -3  -4  11   14.21    1.87
   3  -4 -11   12.45    1.64
  -3  -4  10 1031.46   15.09
   3  -4 -10  983.34   13.45
  -3  -4  10 1002.27   17.80
  -3  -4   9  302.36    9.66
   3  -4  -9  275.52    7.21
   3  -4  -8   99.86    4.13
  -3  -4   8   97.18    5.43
  -3  -4   8   86.66    4.43
   3  -4  -8  103.84    4.30
  -3  -4   7  223.21    6.38
   3  -4  -7  221.88    6.02
  -3  -4   7  220.98    7.99
  -3  -4   7  225.80    6.91
  -3  -4   6   79.39    3.63
   3  -4  -6   78.02    3.46
  -3  -4   6   85.63    4.74
  -3  -4   6   76.38    3.94
  -3  -4   5   95.71    3.85
   3  -4  -5   84.79    3.50
  -3  -4   5   79.63    4.43
  -3  -4   5   89.36    4.04
  -3  -4   4  117.42    4.17
   3  -4  -4  127.91    4.10
  -3  -4   3    7.77    1.31
  -3  -4   3    6.04    1.04
   3  -4  -3    7.72    1.02
   3  -4  -2  132.13    3.82
  -3  -4   2  142.85    4.68
  -3  -4   1  231.33    5.92
  -3  -4   1  195.13    5.33
  -3  -4   1  186.56    5.33
   3  -4  -1  225.85    4.76
  -3  -4   0  213.06    5.60
  -3  -4   0  216.62    5.64
  -3  -4   0  209.57    5.76
   3  -4   0  217.73    4.39
  -3  -4  -1  573.67    9.49
  -3  -4  -1  588.45    9.75
  -3  -4  -1  558.11   10.59
  -3  -4  -1  529.23    9.02
  -3  -4  -1  517.75    9.26
  -3  -4  -2   23.43    1.98
  -3  -4  -2   19.95    1.87
  -3  -4  -2   23.13    2.28
  -3  -4  -2   19.83    1.78
  -3  -4  -2   27.15    2.12
  -3  -4  -3  140.92    4.93
  -3  -4  -3  132.97    4.53
  -3  -4  -3  146.34    4.95
  -3  -4  -3  152.68    5.72
  -3  -4  -3  155.05    5.21
  -3  -4  -4  250.16    7.49
  -3  -4  -4  255.96    6.38
  -3  -4  -4  258.28    6.72
  -3  -4  -4  251.04    6.83
  -3  -4  -4  253.42    6.86
  -3  -4  -5  409.53    8.85
  -3  -4  -5  383.90    9.46
  -3  -4  -5  369.25    8.56
  -3  -4  -5  414.61    8.72
  -3  -4  -5  403.32    8.18
  -3  -4  -5  435.40    9.38
  -3  -4  -6  337.71    8.09
  -3  -4  -6  323.30    8.19
   3  -4   6  324.38    8.55
  -3  -4  -6  324.16    7.81
  -3  -4  -6  330.77    7.44
  -3  -4  -6  337.24    8.54
  -3  -4  -7  105.64    4.53
  -3  -4  -7  107.80    4.75
  -3  -4  -7  101.72    4.39
  -3  -4  -7  103.90    4.14
   3  -4   7   97.43    4.89
  -3  -4  -8  172.65    5.69
   3  -4   8  189.13    7.06
  -3  -4  -8  195.12    6.04
  -3  -4  -8  189.58    5.52
  -3  -4  -8  192.19    6.73
  -3  -4  -9  265.29    7.42
  -3  -4  -9  275.69    6.99
  -3  -4  -9  277.86    7.03
  -3  -4  -9  260.27    6.21
  -3  -4  -9  261.49    7.83
  -3  -4 -10    5.72    1.12
  -3  -4 -10    4.49    1.26
  -3  -4 -10    5.77    1.26
  -3  -4 -11   46.05    3.08
  -3  -4 -11   39.54    2.62
  -3  -4 -12  105.68    4.20
  -3  -4 -12  103.94    3.80
  -3  -4 -13   23.92    1.78
  -3  -4 -13   21.05    1.51
  -3  -4 -14   65.08    2.30
   3  -3 -16   12.39    1.04
  -3  -3  16    9.95    1.07
   3  -3 -15   11.29    1.14
   3  -3 -15   12.30    1.27
  -3  -3  15   15.00    1.54
   3  -3 -15   11.64    1.19
   3  -3 -14   54.14    2.77
   3  -3 -14   64.28    3.10
  -3  -3  14   60.49    3.29
   3  -3 -14   55.31    2.77
   3  -3 -13   61.95    3.27
   3  -3 -13   71.87    3.56
  -3  -3  13   64.40    3.61
   3  -3 -12   58.93    3.40
  -3  -3  12   55.25    3.46
   3  -3 -12   55.07    3.26
   3  -3 -11   23.19    2.19
  -3  -3  11   23.17    2.74
   3  -3 -11   22.76    2.00
  -3  -3  11   20.10    2.64
   3  -3 -11   20.41    2.12
  -3  -3  11   22.53    2.29
   3  -3 -10  555.33    9.60
   3  -3 -10  524.28   10.52
  -3  -3  10  532.60   12.53
  -3  -3   9  307.12    9.35
   3  -3  -9  328.88    7.22
  -3  -3   9  308.40    8.08
  -3  -3   8  250.27    7.00
  -3  -3   8  246.46    8.16
   3  -3  -7  311.78    6.67
  -3  -3   7  338.22    7.81
  -3  -3   7  320.01    9.06
  -3  -3   7  313.47    7.13
  -3  -3   7  319.04    7.81
  -3  -3   6  726.46   11.17
  -3  -3   6  756.48   13.60
   3  -3  -6  748.12   10.24
  -3  -3   5 1447.81   18.53
  -3  -3   5 1478.79   14.98
  -3  -3   4   23.39    1.68
  -3  -3   4   28.26    2.39
   3  -3  -4   28.77    1.82
  -3  -3   4   30.39    2.08
  -3  -3   4   27.30    1.97
  -3  -3   3   19.28    1.49
  -3  -3   3   19.51    1.62
  -3  -3   3   19.74    1.65
   3  -3  -3   18.00    1.39
  -3  -3   2  193.40    4.81
  -3  -3   2  202.58    5.16
   3  -3  -2  206.27    4.40
  -3  -3   1  130.66    3.92
   3  -3  -1  145.94    3.48
  -3  -3   0   20.29    1.60
   3  -3   0   21.09    1.25
  -3  -3  -1   89.81    3.24
  -3  -3  -1   88.95    4.01
  -3  -3  -1   85.04    3.35
   3  -3   1   88.61    3.07
   3  -3   1   88.98    2.36
  -3  -3  -1   85.39    3.40
  -3  -3  -2  166.93    4.57
  -3  -3  -2  150.17    5.31
  -3  -3  -2  172.16    5.16
   3  -3   2  146.84    4.31
  -3  -3  -2  135.01    4.39
  -3  -3  -2  149.96    4.39
  -3  -3  -3  355.14    7.73
  -3  -3  -3  341.53    8.32
   3  -3   3  364.25    6.46
   3  -3   3  359.31    7.37
  -3  -3  -3  362.99    7.44
  -3  -3  -3  372.78    6.75
  -3  -3  -3  370.03    7.09
  -3  -3  -4   65.91    3.46
  -3  -3  -4   58.84    2.89
  -3  -3  -4   56.92    2.68
  -3  -3  -4   67.59    3.29
  -3  -3  -4   59.35    3.60
   3  -3   4   60.22    2.77
   3  -3   4   61.35    3.28
  -3  -3  -4   60.40    3.10
  -3  -3  -5  757.39   11.70
  -3  -3  -5  680.40   11.88
  -3  -3  -5  806.34   11.94
  -3  -3  -5  887.48   12.60
  -3  -3  -5  784.57   13.53
  -3  -3  -5  744.11   12.02
  -3  -3  -5  930.58   12.94
  -3  -3  -5  807.02   11.18
  -3  -3  -5  802.35   10.57
   3  -3   5  808.68   11.13
   3  -3   5  813.12   13.03
  -3  -3  -6   83.86    4.01
  -3  -3  -6   87.56    4.35
  -3  -3  -6   92.26    4.20
  -3  -3  -6   91.05    4.74
  -3  -3  -6   94.80    4.20
  -3  -3  -6   81.41    4.08
  -3  -3  -6   91.07    4.24
   3  -3   6   80.68    3.64
   3  -3   6   87.10    4.46
  -3  -3  -6   89.45    3.74
  -3  -3  -6   88.83    3.47
  -3  -3  -7   43.30    2.68
  -3  -3  -7   42.01    2.44
  -3  -3  -7   41.38    2.96
  -3  -3  -7   39.15    2.84
  -3  -3  -7   41.61    2.98
  -3  -3  -7   42.62    3.04
   3  -3   7   43.13    3.35
  -3  -3  -7   39.13    2.77
  -3  -3  -8  438.87    8.63
  -3  -3  -8  412.22    7.66
  -3  -3  -8  415.45    9.72
  -3  -3  -8  437.58    9.87
  -3  -3  -8  435.54   10.06
   3  -3   8  419.97   10.82
  -3  -3  -8  421.84    9.21
  -3  -3  -9   68.57    3.37
  -3  -3  -9   64.21    3.90
  -3  -3  -9   67.44    3.70
   3  -3   9   66.19    4.43
  -3  -3  -9   70.16    4.12
  -3  -3  -9   71.53    3.81
  -3  -3  -9   67.57    3.94
  -3  -3 -10   60.99    3.06
  -3  -3 -10   70.08    3.68
  -3  -3 -10   62.01    3.84
   3  -3  10   56.05    4.12
  -3  -3 -10   65.51    3.57
  -3  -3 -10   61.84    3.79
  -3  -3 -11  184.03    5.65
  -3  -3 -11  178.84    6.18
  -3  -3 -12  131.17    5.01
  -3  -3 -12  133.54    4.49
  -3  -3 -12  130.10    4.92
  -3  -3 -12  131.77    5.38
  -3  -3 -13   47.02    2.65
  -3  -3 -13   40.25    2.48
  -3  -3 -13   46.07    2.90
  -3  -3 -14    6.24    0.88
  -3  -3 -14    8.27    0.97
  -3  -3 -15   37.08    1.79
   3  -2 -17   10.02    0.83
  -3  -2  16  137.72    4.22
   3  -2 -16  131.15    3.68
   3  -2 -16  141.56    3.94
   3  -2 -15   38.31    2.32
   3  -2 -15   39.09    2.47
  -3  -2  15   39.25    2.61
   3  -2 -15   39.23    2.14
   3  -2 -14   95.60    4.02
   3  -2 -14   91.03    4.18
   3  -2 -14   89.34    3.60
   3  -2 -13  181.79    6.31
  -3  -2  13  180.76    6.29
   3  -2 -12   66.29    3.98
   3  -2 -12   57.45    2.90
   3  -2 -12   54.80    4.07
  -3  -2  12   61.88    4.29
  -3  -2  12   63.86    3.83
  -3  -2  12   66.04    4.15
  -3  -2  12   60.95    4.15
   3  -2 -11  185.38    5.26
  -3  -2  11  175.45    6.94
  -3  -2  11  188.13    7.49
  -3  -2  11  189.49    6.92
   3  -2 -11  188.15    6.70
  -3  -2  10  144.63    6.22
  -3  -2  10  154.28    6.71
   3  -2 -10  152.02    5.09
  -3  -2  10  151.61    6.03
   3  -2 -10  152.26    4.78
  -3  -2   9  221.65    7.42
  -3  -2   9  244.91    7.40
   3  -2  -9  241.20    5.86
   3  -2  -9  253.50    6.43
  -3  -2   9  231.59    7.93
  -3  -2   9  232.90    6.61
  -3  -2   8    8.72    1.57
  -3  -2   8    6.70    1.18
   3  -2  -8    6.38    1.18
   3  -2  -8    8.67    1.17
  -3  -2   8    6.00    1.46
  -3  -2   8    5.60    1.29
  -3  -2   7  368.12    9.20
  -3  -2   7  352.15    8.65
  -3  -2   7  348.32    8.03
  -3  -2   7  321.71    7.02
   3  -2  -7  362.89    7.16
  -3  -2   7  400.25    7.68
  -3  -2   6   47.64    2.45
  -3  -2   6   61.45    3.17
  -3  -2   6   63.59    3.09
   3  -2  -6   61.46    2.73
   3  -2  -6   66.75    2.88
  -3  -2   6   49.77    2.60
  -3  -2   5  193.85    5.34
   3  -2  -5  203.90    4.83
  -3  -2   5  198.99    5.16
  -3  -2   4 1521.48   15.27
   3  -2  -4 1435.04   13.21
  -3  -2   3  304.12    6.28
   3  -2  -3  298.58    5.50
   3  -2  -2   99.71    3.07
  -3  -2   2   93.44    3.34
   3  -2  -1  130.20    3.53
  -3  -2   1  131.95    3.97
  -3  -2   0  154.39    4.34
  -3  -2   0  173.37    4.61
  -3  -2  -1 1022.74   11.64
  -3  -2  -1  938.10   11.29
  -3  -2  -2  146.17    4.55
  -3  -2  -2  181.97    5.20
  -3  -2  -3   30.36    2.22
  -3  -2  -3   31.05    2.15
  -3  -2  -4  103.95    4.07
  -3  -2  -4   98.26    4.40
  -3  -2  -4  106.08    3.79
  -3  -2  -4   94.55    3.97
   3  -2   5  255.60    6.32
  -3  -2  -5  289.87    7.32
  -3  -2  -5  248.91    6.62
  -3  -2  -5  254.50    6.34
  -3  -2  -5  225.44    6.95
  -3  -2  -5  262.02    6.79
  -3  -2  -5  236.01    5.91
  -3  -2  -5  215.36    6.42
  -3  -2  -6   19.50    2.16
  -3  -2  -6   19.73    1.61
  -3  -2  -6   24.60    2.22
  -3  -2  -6   20.45    2.32
  -3  -2  -6   19.58    1.91
  -3  -2  -6   23.28    2.20
  -3  -2  -6   20.61    2.13
  -3  -2  -6   16.60    1.76
  -3  -2  -6   23.69    1.96
   3  -2   6   19.37    2.10
   3  -2   6   20.47    1.94
  -3  -2  -7   24.90    2.48
  -3  -2  -7   27.23    2.47
  -3  -2  -7   23.96    2.38
  -3  -2  -7   23.17    2.16
  -3  -2  -7   23.96    1.81
  -3  -2  -7   23.35    2.36
  -3  -2  -7   23.08    2.17
   3  -2   7   25.26    2.28
   3  -2   7   24.24    2.47
  -3  -2  -7   24.20    2.07
  -3  -2  -8  670.44   12.72
  -3  -2  -8  702.55   13.18
  -3  -2  -8  695.13   11.81
  -3  -2  -8  655.39    9.62
  -3  -2  -8  684.34   12.00
  -3  -2  -8  672.97   11.03
   3  -2   8  665.25   13.58
   3  -2   9  660.67   14.00
   3  -2   9  580.81   12.11
  -3  -2  -9  511.09   11.65
  -3  -2  -9  627.29   11.79
  -3  -2  -9  640.42   11.50
  -3  -2  -9  533.28   11.86
  -3  -2  -9  625.94   10.81
  -3  -2  -9  603.12   12.36
   3  -2  10  553.76   11.99
   3  -2  10  565.78   13.28
  -3  -2 -10  505.73   10.68
  -3  -2 -10  511.33   11.76
  -3  -2 -10  588.27   11.03
  -3  -2 -10  562.05   10.09
  -3  -2 -10  558.45   12.10
  -3  -2 -11  122.33    5.63
   3  -2  11  133.48    4.94
  -3  -2 -11  129.39    5.22
  -3  -2 -11  145.42    6.23
   3  -2  11  121.08    6.15
   3  -2  11  133.80    6.01
  -3  -2 -11  127.97    4.61
  -3  -2 -11  107.35    5.22
  -3  -2 -12   74.28    3.27
  -3  -2 -12   70.43    4.09
  -3  -2 -12   80.99    4.46
  -3  -2 -12   77.31    3.82
  -3  -2 -13   19.28    2.05
  -3  -2 -13   16.15    1.66
  -3  -2 -14   33.42    2.33
  -3  -2 -14   33.52    2.38
  -3  -2 -14   34.32    2.40
  -3  -2 -15   23.92    1.63
  -3  -2 -15   17.05    1.42
   3  -1 -17  127.80    3.43
  -3  -1  17  103.14    3.00
  -3  -1  16   28.61    2.11
   3  -1 -16   26.12    1.96
  -3  -1  15  186.39    5.93
   3  -1 -15  176.53    5.70
   3  -1 -14   42.71    2.46
  -3  -1  14   41.99    3.08
   3  -1 -14   40.66    3.05
   3  -1 -13   39.05    3.17
   3  -1 -12  425.15    7.60
  -3  -1  12  432.35   10.90
  -3  -1  12  447.33   10.95
   3  -1 -12  425.47    9.35
  -3  -1  12  434.68   10.69
   3  -1 -12  448.50   10.77
  -3  -1  11   25.83    2.69
  -3  -1  11   24.09    2.90
  -3  -1  11   26.12    2.68
   3  -1 -11   23.87    2.26
  -3  -1  11   23.01    2.67
   3  -1 -11   24.51    1.85
  -3  -1  10  261.97    8.06
   3  -1 -10  256.72    5.89
   3  -1 -10  259.37    7.12
  -3  -1  10  261.62    8.20
  -3  -1  10  250.36    8.85
  -3  -1  10  249.27    7.76
  -3  -1  10  268.08    7.37
  -3  -1   9    4.26    0.99
  -3  -1   9    5.10    1.48
   3  -1  -9    5.32    0.90
   3  -1  -9    5.43    1.23
  -3  -1   9    5.41    1.34
  -3  -1   9    4.19    1.07
  -3  -1   9    4.13    1.24
  -3  -1   8   94.55    4.02
  -3  -1   8  106.89    4.67
  -3  -1   8   97.65    3.89
   3  -1  -8  105.72    4.23
  -3  -1   8   97.16    3.91
  -3  -1   8  102.34    4.77
  -3  -1   7  139.97    4.67
  -3  -1   7  148.36    5.38
   3  -1  -7  150.42    4.78
  -3  -1   7  138.47    4.34
  -3  -1   7  139.88    5.02
  -3  -1   6   49.32    2.86
   3  -1  -6   50.85    2.66
  -3  -1   6   49.02    2.84
  -3  -1   6   48.43    2.97
   3  -1  -5  210.46    5.20
  -3  -1   5  204.79    5.42
  -3  -1   5  224.22    5.73
  -3  -1   5  206.98    5.73
  -3  -1   4  526.01    8.47
  -3  -1   4  539.74    8.93
   3  -1  -3 2717.77   19.48
  -3  -1   3 2700.83   20.16
  -3  -1   2  115.69    3.64
   3  -1  -2  120.71    3.62
   3  -1  -2  121.35    1.82
  -3  -1   1  850.28   10.25
  -3  -1   0  365.43    6.67
  -3  -1   0  363.97    6.69
  -3  -1  -1    5.42    0.99
  -3  -1  -1    5.53    0.97
  -3  -1  -2  468.13    8.09
  -3  -1  -2  625.63    9.45
  -3  -1  -3  105.94    4.12
  -3  -1  -3  117.07    4.10
  -3  -1  -4  309.19    6.99
  -3  -1  -5  139.96    5.08
  -3  -1  -5  147.59    5.36
  -3  -1  -6   97.52    4.37
  -3  -1  -6   94.82    3.53
  -3  -1  -6  103.16    4.61
  -3  -1  -6   95.84    3.90
   3  -1   6  104.25    4.39
  -3  -1  -6   94.96    4.17
  -3  -1  -6   96.88    4.45
  -3  -1  -6   97.55    3.64
  -3  -1  -6   92.31    4.45
  -3  -1  -7  142.21    5.58
  -3  -1  -7  159.70    6.01
  -3  -1  -7  143.60    4.55
  -3  -1  -7  153.93    5.15
   3  -1   7  157.31    5.73
  -3  -1  -7  143.36    5.42
  -3  -1  -7  153.05    5.85
  -3  -1  -7  146.45    4.61
  -3  -1  -7  142.82    5.83
  -3  -1  -8  202.65    6.98
  -3  -1  -8  207.83    7.43
  -3  -1  -8  258.50    6.99
   3  -1   8  223.79    7.25
   3  -1   8  202.77    7.23
  -3  -1  -8  239.59    7.66
  -3  -1  -8  221.22    7.07
  -3  -1  -8  213.01    5.75
  -3  -1  -8  209.41    7.37
   3  -1   9  129.18    5.82
   3  -1   9  146.00    6.54
  -3  -1  -9  154.93    6.43
  -3  -1  -9  149.67    5.97
  -3  -1  -9  151.04    5.47
  -3  -1  -9  135.72    6.25
  -3  -1  -9  140.64    4.72
  -3  -1  -9  130.97    5.80
  -3  -1 -10   60.90    4.16
   3  -1  10   61.77    4.44
   3  -1  10   59.14    4.12
  -3  -1 -10   59.62    3.88
  -3  -1 -10   58.12    4.03
  -3  -1 -10   57.32    2.99
  -3  -1 -10   61.63    4.11
  -3  -1 -11  339.78    9.89
   3  -1  11  324.17    7.88
  -3  -1 -11  344.83    9.22
  -3  -1 -11  344.26    9.88
  -3  -1 -11  340.95    9.66
   3  -1  11  330.11    9.72
  -3  -1 -11  325.97    6.86
  -3  -1 -12   25.64    2.65
  -3  -1 -12   21.06    2.53
  -3  -1 -12   26.35    2.51
  -3  -1 -13   43.72    3.24
  -3  -1 -13   45.20    3.33
  -3  -1 -13   44.87    3.03
  -3  -1 -14  151.80    5.37
  -3  -1 -14  154.66    5.51
  -3  -1 -14  153.25    4.91
  -3  -1 -15    1.16    0.54
  -3  -1 -15    2.50    0.78
  -3  -1 -15    1.17    0.59
  -3  -1 -15    1.84    0.70
  -3  -1 -15    1.58    0.63
  -3  -1 -16  125.74    3.30
  -3  -1 -16  127.49    3.09
  -3   0  17   60.63    2.50
   3   0 -17   61.28    2.16
  -3   0  15  326.04    8.03
   3   0 -14  181.00    6.49
   3   0 -13   45.91    3.49
  -3   0  12    1.22    1.06
  -3   0  12    1.68    1.09
   3   0 -12    0.63    1.08
   3   0 -12    1.35    0.82
  -3   0  11   65.10    3.81
  -3   0  11   68.92    4.67
  -3   0  11   63.93    4.16
  -3   0  11   68.24    3.97
   3   0 -11   70.42    2.95
   3   0 -11   73.48    4.02
  -3   0  10  120.91    5.16
  -3   0  10  123.28    5.34
  -3   0  10  121.82    5.99
  -3   0  10  123.95    5.49
  -3   0  10  119.05    4.97
   3   0 -10  117.61    3.81
   3   0 -10  130.34    5.35
  -3   0   9  230.18    6.02
  -3   0   9  227.28    6.78
  -3   0   9  220.16    6.82
  -3   0   9  228.76    7.16
  -3   0   9  225.11    6.46
   3   0  -9  235.28    6.89
  -3   0   8  265.69    6.99
  -3   0   8  275.59    6.38
  -3   0   8  316.41    7.64
  -3   0   8  296.82    7.42
  -3   0   8  306.20    7.78
   3   0  -8  332.21    7.81
  -3   0   7   55.02    3.03
   3   0  -7   63.92    3.27
  -3   0   7   63.05    3.39
  -3   0   7   54.31    2.75
  -3   0   7   60.29    3.14
  -3   0   7   65.25    3.29
  -3   0   7   57.32    2.84
  -3   0   6  563.84    8.63
  -3   0   6  575.79    9.38
  -3   0   6  567.16    9.23
  -3   0   6  561.06    9.57
  -3   0   5  607.03    8.91
  -3   0   5  585.98    9.34
  -3   0   5  611.84    9.15
  -3   0   4  287.89    5.61
   3   0  -4  305.01    6.29
  -3   0   4  290.28    6.16
  -3   0   3   43.03    2.06
   3   0  -3   47.54    2.43
  -3   0   3   45.91    2.42
   3   0  -2 1656.43    8.77
  -3   0   2 1688.27   15.07
   3   0  -1    4.12    0.44
  -3   0   1    4.90    0.94
  -3   0   1    3.45    0.79
   3   0   0    7.95    0.66
  -3   0   0    5.63    1.00
  -3   0   0    5.83    0.98
   3   0   1 1100.93    9.27
  -3   0  -1 1002.87   11.70
  -3   0  -2  611.68    9.23
  -3   0  -2  612.71    9.08
   3   0   3 3384.51   20.96
  -3   0  -3 3359.87   24.47
  -3   0  -4  564.37    9.99
  -3   0  -4  559.94    9.45
  -3   0  -5    0.96    0.78
  -3   0  -5    1.61    0.74
   3   0   5    0.27    0.57
  -3   0  -5    1.09    0.79
  -3   0  -5    1.20    0.65
   3   0   5    2.38    0.65
  -3   0  -6  635.04   11.23
   3   0   6  652.49   11.34
  -3   0  -6  637.16    9.15
  -3   0  -6  624.65   11.34
  -3   0  -6  618.62   11.06
  -3   0  -6  625.46   11.33
  -3   0  -6  572.85    9.37
  -3   0  -6  587.05   11.36
   3   0   6  605.03    9.22
  -3   0  -7    0.75    0.74
  -3   0  -7    1.41    0.72
  -3   0  -7    0.86    0.61
  -3   0  -7    1.07    0.61
  -3   0  -7    1.13    0.80
  -3   0  -7    1.66    1.02
   3   0   7    1.07    0.78
   3   0   7    1.64    0.67
  -3   0  -7    0.82    0.80
   3   0   8   98.31    4.92
  -3   0  -8  113.80    5.31
  -3   0  -8  101.46    4.91
  -3   0  -8  104.52    3.99
  -3   0  -8  106.46    5.27
  -3   0  -8  101.49    5.17
   3   0   8   96.12    4.03
  -3   0  -8  106.78    5.05
  -3   0  -9    6.59    1.18
  -3   0  -9    7.07    1.24
  -3   0  -9    8.66    1.70
  -3   0  -9    8.14    1.63
  -3   0  -9    8.08    1.63
  -3   0  -9    6.39    1.46
   3   0   9    7.16    1.62
   3   0   9    7.26    1.68
   3   0  10    1.44    1.05
  -3   0 -10    1.12    0.95
  -3   0 -10    1.91    1.08
  -3   0 -10    1.46    0.82
  -3   0 -10    1.97    0.95
  -3   0 -10    2.20    1.02
   3   0  10    2.69    0.93
   3   0  10    1.52    1.11
  -3   0 -11   51.88    3.82
  -3   0 -11   47.20    3.56
  -3   0 -11   49.73    3.86
   3   0  11   48.19    3.10
  -3   0 -11   50.93    3.91
   3   0  11   49.71    3.88
   3   0  11   53.54    4.13
  -3   0 -12   37.96    3.24
  -3   0 -12   40.88    3.43
  -3   0 -12   41.07    3.27
  -3   0 -13   71.76    4.15
  -3   0 -13   74.41    4.32
  -3   0 -13   77.42    4.18
  -3   0 -13   71.57    3.67
  -3   0 -14    2.58    0.93
  -3   0 -14    3.19    0.96
  -3   0 -14    1.64    0.95
  -3   0 -14    1.84    0.78
  -3   0 -15  106.43    3.77
  -3   0 -15  101.55    3.97
  -3   0 -15  107.49    4.03
  -3   0 -15  100.77    3.45
  -3   0 -16   32.96    1.84
  -3   0 -16   38.33    1.75
   3   1 -17  124.48    2.86
   3   1 -17  124.39    3.31
   3   1 -16   27.77    1.99
  -3   1  16   29.49    2.12
   3   1 -15  172.35    5.58
   3   1 -14   45.78    3.24
   3   1 -13   37.44    3.09
   3   1 -12  448.41   10.25
  -3   1  12  436.85   10.52
  -3   1  12  447.65    8.67
  -3   1  12  460.49   11.17
   3   1 -12  470.56   10.98
  -3   1  11   27.14    2.19
  -3   1  11   21.07    2.70
  -3   1  11   25.62    2.69
  -3   1  11   24.77    2.50
   3   1 -11   24.80    2.46
  -3   1  11   25.32    2.54
  -3   1  10  263.80    6.66
  -3   1  10  268.02    7.68
  -3   1  10  264.43    8.73
  -3   1  10  255.83    7.92
  -3   1  10  248.38    7.48
   3   1  -9    5.82    1.34
  -3   1   9    4.71    1.05
  -3   1   9    7.40    1.35
  -3   1   9    4.69    1.37
  -3   1   9    6.60    1.13
  -3   1   9    5.59    1.18
  -3   1   9    5.16    1.33
  -3   1   8  108.78    4.03
  -3   1   8  102.52    4.18
  -3   1   8  103.58    4.57
  -3   1   8  104.82    5.00
  -3   1   8  100.66    3.77
   3   1  -8  101.73    4.45
  -3   1   7  136.47    4.49
  -3   1   7  136.13    4.60
  -3   1   7  145.27    5.16
  -3   1   7  148.19    4.55
   3   1  -7  136.02    4.87
  -3   1   6   54.07    2.63
   3   1  -6   50.80    2.88
  -3   1   6   51.39    2.92
  -3   1   6   52.54    2.61
  -3   1   6   47.23    2.83
   3   1  -5  214.42    5.70
  -3   1   5  203.51    5.47
  -3   1   5  212.82    4.90
  -3   1   4  551.85    8.67
  -3   1   4  571.96    7.58
  -3   1   3 2807.65   20.89
  -3   1   3 2683.27   17.38
   3   1  -2  118.38    2.30
  -3   1   2  115.89    3.74
   3   1  -1  799.95    7.08
  -3   1   1  791.11    7.27
  -3   1   0  369.03    6.67
  -3   1   0  354.86    6.59
   3   1   1    5.12    0.67
  -3   1  -1    5.41    0.96
  -3   1  -1    5.02    0.98
   3   1   2  530.29    6.96
  -3   1  -2  531.37    8.37
  -3   1  -3  117.53    4.06
   3   1   3  110.23    3.31
  -3   1  -3  115.38    4.33
   3   1   4  333.29    6.15
  -3   1  -4  301.26    6.83
  -3   1  -5  138.20    5.21
  -3   1  -5  160.07    5.27
  -3   1  -5  152.57    4.52
  -3   1  -5  156.79    5.22
  -3   1  -5  144.32    4.29
  -3   1  -5  156.25    5.30
   3   1   5  169.45    3.97
   3   1   5  175.33    4.82
  -3   1  -6   91.14    4.45
  -3   1  -6   92.71    3.80
  -3   1  -6  106.41    3.69
  -3   1  -6   99.79    4.44
  -3   1  -6   98.91    4.23
  -3   1  -6   98.30    4.45
  -3   1  -6  101.61    3.80
   3   1   6  101.64    3.86
  -3   1  -6   95.25    4.33
  -3   1  -7  149.63    5.81
  -3   1  -7  148.07    5.39
  -3   1  -7  150.61    5.81
  -3   1  -7  145.02    4.52
  -3   1  -7  137.89    5.75
   3   1   7  166.07    5.17
  -3   1  -7  152.51    5.75
  -3   1  -8  223.70    7.49
  -3   1  -8  220.68    7.51
  -3   1  -8  220.74    6.83
  -3   1  -8  214.66    7.51
  -3   1  -8  214.56    7.21
   3   1   8  225.43    6.40
  -3   1  -9  146.76    5.62
  -3   1  -9  147.62    6.22
  -3   1  -9  147.12    6.23
  -3   1  -9  146.53    6.30
   3   1   9  151.85    6.38
  -3   1  -9  138.59    6.22
  -3   1  -9  136.38    4.68
  -3   1 -10   64.31    4.31
  -3   1 -10   55.60    3.07
  -3   1 -10   63.52    3.73
  -3   1 -10   64.38    4.20
  -3   1 -10   62.56    4.18
  -3   1 -10   62.78    4.23
   3   1  10   57.02    4.10
   3   1  10   51.75    3.30
  -3   1 -11  346.98    8.72
  -3   1 -11  339.95    7.45
  -3   1 -11  342.49    9.97
  -3   1 -11  353.23    8.61
  -3   1 -11  345.70    9.77
  -3   1 -11  345.38    9.92
  -3   1 -11  344.84    9.70
   3   1  11  324.15    9.78
   3   1  11  338.73    8.37
  -3   1 -12   26.30    2.70
  -3   1 -12   24.83    2.70
  -3   1 -12   23.08    2.31
  -3   1 -12   26.83    2.70
  -3   1 -12   24.01    2.10
  -3   1 -13   48.07    3.43
  -3   1 -13   48.37    3.34
  -3   1 -13   43.48    2.91
  -3   1 -13   48.70    3.38
  -3   1 -13   36.11    2.25
  -3   1 -14  152.32    5.45
  -3   1 -14  148.85    5.26
  -3   1 -14  144.03    4.80
  -3   1 -14  150.87    5.35
  -3   1 -15    1.24    0.64
  -3   1 -15    1.25    0.62
  -3   1 -15    1.06    0.63
  -3   1 -15    1.33    0.64
  -3   1 -16  140.04    3.42
  -3   1 -16  108.87    3.05
   3   1  16  134.22    3.20
  -3   1 -16  132.93    3.38
  -3   1 -16  116.94    2.99
  -3   2  16  108.57    3.76
  -3   2  16  115.73    2.95
   3   2 -16  120.62    3.90
   3   2 -15   34.12    2.26
  -3   2  15   32.35    2.09
  -3   2  15   27.59    2.25
   3   2 -14   89.18    4.07
   3   2 -13  182.33    6.23
  -3   2  13  146.25    4.71
   3   2 -12   64.10    3.85
   3   2 -12   57.30    4.05
   3   2 -12   62.67    3.93
  -3   2  12   66.45    3.99
  -3   2  12   64.75    3.35
  -3   2  12   64.04    4.10
  -3   2  11  195.28    5.94
  -3   2  11  193.46    7.05
   3   2 -11  174.25    6.51
  -3   2  11  191.78    6.92
  -3   2  11  178.31    6.25
   3   2 -11  187.64    6.58
   3   2 -10  180.30    6.55
  -3   2  10  168.22    6.33
  -3   2  10  161.80    6.31
  -3   2  10  167.66    5.44
  -3   2  10  159.87    5.75
   3   2  -9  250.80    7.45
  -3   2   9  251.89    7.60
  -3   2   9  252.05    6.57
  -3   2   9  234.13    6.64
  -3   2   8    6.02    1.36
  -3   2   8    6.42    1.16
  -3   2   8    6.73    1.19
   3   2  -8    8.75    1.43
  -3   2   8    6.74    1.32
  -3   2   7  350.38    7.88
  -3   2   7  405.83    7.76
  -3   2   7  391.66    7.63
   3   2  -7  349.91    8.06
  -3   2   7  366.86    8.31
   3   2  -6   68.53    3.48
  -3   2   6   73.50    3.04
  -3   2   6   72.27    3.17
  -3   2   6   63.31    3.26
  -3   2   6   64.65    3.14
  -3   2   5  193.62    5.70
  -3   2   5  201.58    4.63
   3   2  -5  212.79    5.79
  -3   2   5  215.82    5.67
  -3   2   4 1344.43   11.67
  -3   2   4 1391.07   14.57
  -3   2   3  278.17    4.45
   3   2  -3  302.35    4.32
   3   2  -3  273.72    6.19
  -3   2   3  291.87    6.18
   3   2  -2  106.99    3.83
   3   2  -2  100.89    2.63
  -3   2   2   89.37    2.14
  -3   2   2   92.44    3.34
  -3   2   1  125.54    3.93
   3   2  -1  134.21    4.21
  -3   2   0  162.98    4.37
  -3   2   0  154.11    4.31
   3   2   0  168.92    3.80
  -3   2  -1 1116.20   11.98
   3   2   1 1082.27   10.58
  -3   2  -2  167.98    4.89
   3   2   2  160.84    4.15
   3   2   3   31.36    1.94
   3   2   3   34.20    2.19
  -3   2  -3   32.41    2.33
  -3   2  -4  105.28    3.65
  -3   2  -4  102.90    4.01
  -3   2  -4  105.87    4.26
   3   2   4  111.99    3.50
   3   2   4  110.12    3.85
  -3   2  -5  238.63    6.41
  -3   2  -5  234.90    5.84
  -3   2  -5  227.33    6.30
  -3   2  -5  235.86    6.73
  -3   2  -5  223.23    6.63
  -3   2  -5  237.14    6.57
  -3   2  -5  233.86    6.48
   3   2   5  253.14    4.97
   3   2   5  243.48    6.06
  -3   2  -6   22.39    2.15
  -3   2  -6   21.97    1.94
  -3   2  -6   21.21    1.90
  -3   2  -6   22.76    1.84
  -3   2  -6   23.81    2.19
  -3   2  -6   22.82    2.22
  -3   2  -6   19.86    2.17
  -3   2  -6   21.88    2.16
  -3   2  -6   19.24    2.02
   3   2   6   22.70    1.47
   3   2   6   25.06    2.31
   3   2   6   25.46    2.09
  -3   2  -7   28.75    2.55
  -3   2  -7   26.80    2.26
  -3   2  -7   23.83    2.12
  -3   2  -7   31.94    2.22
  -3   2  -7   28.60    2.53
  -3   2  -7   26.64    2.49
  -3   2  -7   28.93    2.67
  -3   2  -7   25.17    2.45
  -3   2  -7   27.65    2.60
   3   2   7   27.38    2.51
   3   2   7   27.36    2.29
  -3   2  -8  638.48   12.65
  -3   2  -8  700.30   10.71
  -3   2  -8  652.37   12.64
  -3   2  -8  671.05   12.76
  -3   2  -8  682.70   13.18
  -3   2  -8  665.43   12.95
  -3   2  -8  669.63   11.81
  -3   2  -8  659.08   11.33
   3   2   8  695.00   13.20
  -3   2  -9  642.96   13.04
  -3   2  -9  606.66   12.30
  -3   2  -9  635.76   12.75
  -3   2  -9  622.88   13.04
  -3   2  -9  581.86   12.49
   3   2   9  640.33   13.08
   3   2   9  568.23   12.08
  -3   2  -9  602.84   11.58
  -3   2  -9  632.16   11.40
  -3   2 -10  568.22   11.40
  -3   2 -10  559.47   10.82
  -3   2 -10  485.75   11.53
  -3   2 -10  648.09   10.40
  -3   2 -10  566.36   11.93
  -3   2 -10  576.02   12.35
  -3   2 -10  570.37   12.59
  -3   2 -10  616.96   13.05
   3   2  10  588.05   13.01
   3   2  10  554.34   12.12
   3   2  10  528.64   10.87
  -3   2 -11  128.83    5.41
  -3   2 -11  123.54    4.95
  -3   2 -11  125.57    5.71
  -3   2 -11  135.30    5.59
  -3   2 -11  120.18    5.61
  -3   2 -11  133.10    6.02
  -3   2 -11  132.52    5.91
   3   2  11  121.22    5.87
   3   2  11  109.50    5.36
   3   2  11  124.58    5.18
  -3   2 -12   78.08    4.00
  -3   2 -12   75.15    3.28
  -3   2 -12   78.62    4.38
  -3   2 -12   76.63    4.29
  -3   2 -12   76.24    4.03
  -3   2 -13   23.00    2.25
  -3   2 -13   19.74    1.99
  -3   2 -13   22.10    2.16
  -3   2 -13   19.27    1.83
  -3   2 -14   34.01    2.35
   3   2  14   34.42    2.33
  -3   2 -14   32.30    2.28
  -3   2 -14   34.42    2.34
  -3   2 -14   29.63    1.83
  -3   2 -15   18.66    1.50
   3   2  15   23.13    1.62
  -3   3  16   11.51    1.02
   3   3 -16   11.16    1.16
  -3   3  15   11.84    1.31
  -3   3  15   11.42    1.10
  -3   3  14   45.22    2.87
  -3   3  14   51.49    2.43
  -3   3  14   45.86    2.60
  -3   3  13   65.30    3.48
  -3   3  13   69.09    3.20
  -3   3  12   58.51    3.19
   3   3 -12   59.41    3.34
   3   3 -11   23.29    2.18
  -3   3  11   20.09    2.41
   3   3 -11   12.60    1.99
   3   3 -11   20.17    2.22
  -3   3  11   20.50    2.15
  -3   3  11   22.53    2.13
  -3   3  11   18.72    2.28
  -3   3  10  536.35   11.86
  -3   3  10  540.97   10.49
  -3   3  10  550.40   11.34
   3   3 -10  543.46   10.95
   3   3 -10  538.47   10.41
  -3   3   9  296.79    8.11
  -3   3   9  291.95    8.59
   3   3  -9  316.71    8.41
  -3   3   9  295.60    7.28
  -3   3   8  252.34    7.19
  -3   3   8  244.97    6.30
  -3   3   8  249.13    7.66
   3   3  -8  269.05    7.40
  -3   3   7  333.62    7.92
   3   3  -7  298.14    6.57
  -3   3   7  327.95    6.86
  -3   3   7  297.26    8.10
   3   3  -7  330.25    7.96
  -3   3   6  734.29   11.42
  -3   3   6  728.62    9.66
  -3   3   6  742.85   12.38
   3   3  -6  746.46   11.61
  -3   3   5 1478.66   16.01
   3   3  -5 1306.14   17.08
  -3   3   5 1589.02   13.56
  -3   3   5 1608.45   17.66
   3   3  -5 1406.26   16.30
  -3   3   4   27.50    2.01
  -3   3   4   32.88    1.65
  -3   3   4   29.70    2.24
   3   3  -4   30.23    2.21
   3   3  -4   29.77    3.37
  -3   3   3   18.19    1.67
  -3   3   3   15.65    1.62
   3   3  -3   23.09    3.25
   3   3  -3   10.62    1.06
   3   3  -3   19.60    1.74
  -3   3   3   16.10    1.49
  -3   3   2  185.06    4.84
   3   3  -2  194.46    6.64
   3   3  -2  213.48    4.72
   3   3  -2  207.89    5.37
  -3   3   1  165.08    4.40
   3   3  -1  153.27    4.63
   3   3  -1  155.94    4.07
   3   3   0   25.82    2.42
   3   3   0   22.51    1.82
   3   3   0   19.60    1.52
  -3   3   0   22.03    1.69
  -3   3  -1   89.25    3.54
  -3   3  -1  100.03    3.37
   3   3   1   95.01    3.80
   3   3   1   91.77    3.35
  -3   3  -2  145.04    4.65
  -3   3  -2  143.34    4.16
  -3   3  -2  147.97    4.47
  -3   3  -2  144.40    4.80
  -3   3  -2  142.51    4.59
   3   3   2  141.58    4.31
   3   3   3  365.17    7.36
  -3   3  -3  371.02    7.70
  -3   3  -3  393.53    7.53
  -3   3  -3  436.66    7.74
  -3   3  -3  344.18    7.92
  -3   3  -3  350.89    6.68
  -3   3  -3  317.77    6.83
  -3   3  -3  374.34    7.43
   3   3   3  395.07    7.29
   3   3   4   64.67    2.77
  -3   3  -4   60.07    2.99
  -3   3  -4   61.06    3.15
   3   3   4   63.04    3.15
  -3   3  -4   60.33    2.81
  -3   3  -4   61.10    3.29
  -3   3  -4   55.08    2.89
  -3   3  -4   65.63    2.86
  -3   3  -4   73.46    3.54
  -3   3  -4   63.23    3.13
  -3   3  -4   66.53    3.63
  -3   3  -4   61.08    3.11
  -3   3  -4   59.58    3.08
   3   3   4   63.39    3.17
   3   3   5  694.23   11.59
   3   3   5  830.57   10.19
   3   3   5  847.33   12.32
  -3   3  -5  795.96   12.30
  -3   3  -5  859.67   12.39
  -3   3  -5  807.40   11.88
  -3   3  -5  791.79   11.92
  -3   3  -5  928.63   12.76
  -3   3  -5  776.89   10.52
   3   3   5  816.25   12.06
  -3   3  -5  727.50   11.88
  -3   3  -5  792.80   11.85
  -3   3  -5  789.00   12.01
   3   3   6   86.67    3.16
   3   3   6   87.76    4.18
  -3   3  -6   97.32    4.48
  -3   3  -6   85.09    4.02
   3   3   6   90.71    4.18
  -3   3  -6   80.07    3.86
  -3   3  -6   89.94    4.26
  -3   3  -6   89.55    3.86
  -3   3  -6   87.03    4.02
  -3   3  -6   80.51    4.06
  -3   3  -6   87.52    4.06
  -3   3  -6   83.61    4.03
   3   3   6   82.96    4.05
   3   3   7   39.50    2.93
  -3   3  -7   44.40    3.04
  -3   3  -7   41.12    2.64
  -3   3  -7   39.09    3.19
  -3   3  -7   40.54    2.89
  -3   3  -7   41.55    3.11
  -3   3  -7   42.90    3.03
   3   3   7   38.77    2.87
   3   3   7   43.00    3.16
  -3   3  -7   37.32    2.81
  -3   3  -7   41.06    2.96
  -3   3  -8  418.35    9.72
  -3   3  -8  453.13    8.84
  -3   3  -8  429.50   10.70
  -3   3  -8  423.01    9.67
  -3   3  -8  434.83   10.34
  -3   3  -8  436.36    9.95
   3   3   8  458.66   10.21
   3   3   8  439.44   10.22
  -3   3  -8  435.72    9.76
  -3   3  -8  423.07    9.86
   3   3   9   67.67    3.94
  -3   3  -9   61.74    3.25
  -3   3  -9   66.19    3.94
  -3   3  -9   69.81    4.36
  -3   3  -9   68.25    3.96
  -3   3  -9   65.02    3.92
   3   3   9   70.94    4.12
  -3   3  -9   67.50    4.19
   3   3   9   68.65    4.17
   3   3   9   62.45    3.78
  -3   3  -9   68.38    3.91
  -3   3  -9   69.91    4.08
   3   3  10   67.45    3.91
  -3   3 -10   54.95    3.62
  -3   3 -10   69.21    3.40
  -3   3 -10   66.40    4.21
  -3   3 -10   61.65    3.69
  -3   3 -10   59.38    3.77
  -3   3 -10   63.10    3.83
  -3   3 -10   65.89    4.16
   3   3  10   61.92    3.86
   3   3  10   57.40    3.87
  -3   3 -10   58.90    3.68
  -3   3 -11  196.15    6.82
  -3   3 -11  181.04    6.22
  -3   3 -11  175.38    5.96
  -3   3 -11  168.83    6.23
  -3   3 -11  189.02    6.75
  -3   3 -11  183.20    6.28
   3   3  11  184.86    6.48
  -3   3 -12  135.99    5.41
   3   3  12  133.76    5.23
  -3   3 -12  132.69    5.24
  -3   3 -12  132.36    5.21
  -3   3 -13   50.64    2.84
   3   3  13   44.38    2.80
  -3   3 -13   51.85    3.06
  -3   3 -13   44.42    2.80
  -3   3 -14    9.37    1.08
  -3   3 -14    9.69    1.23
   3   3  14   11.31    1.31
  -3   3 -14    9.13    1.22
   3   3  15   36.85    1.80
  -3   3 -15   39.02    1.78
  -3   3 -15   37.25    1.81
   3   4 -15    9.33    1.18
  -3   4  14   54.87    2.26
  -3   4  14   54.28    2.45
  -3   4  14   59.28    2.38
  -3   4  13   19.34    1.66
  -3   4  13   17.38    1.71
  -3   4  13   23.05    1.85
  -3   4  12   77.12    3.51
  -3   4  12   73.50    3.73
  -3   4  12   65.07    3.46
  -3   4  11   12.31    1.62
  -3   4  11   13.58    1.80
  -3   4  11   11.28    1.71
  -3   4  10  936.80   15.07
  -3   4  10  972.61   15.24
  -3   4   9  250.28    7.79
   3   4  -9  275.09    7.31
  -3   4   9  277.09    6.98
  -3   4   9  263.93    7.83
  -3   4   8  108.69    5.06
   3   4  -8   98.69    4.44
  -3   4   8   94.76    3.85
  -3   4   8  108.66    4.97
   3   4  -7  220.32    6.46
  -3   4   7  197.96    9.46
   3   4  -6   85.96    3.90
   3   4  -6   92.24    3.40
  -3   4   6   98.30    4.46
  -3   4   5   74.92    3.95
   3   4  -5   75.46    3.60
   3   4  -5   86.68    3.42
  -3   4   5   76.40    3.84
   3   4  -4  128.30    4.46
   3   4  -4  120.75    4.16
  -3   4   3    9.13    1.36
  -3   4   3    8.94    1.19
  -3   4   3    8.23    1.25
   3   4  -3    8.31    1.13
   3   4  -3    8.44    1.21
   3   4  -3    9.82    1.31
  -3   4   2  145.37    4.93
  -3   4   2  123.28    4.48
  -3   4   2  113.96    4.14
  -3   4   2  143.26    4.80
  -3   4   2  143.66    4.68
   3   4  -2  154.30    4.55
   3   4  -2  141.13    4.51
   3   4  -2  141.01    4.63
  -3   4   1  192.84    5.56
  -3   4   1  174.54    5.24
  -3   4   1  206.78    5.11
  -3   4   1  210.81    5.78
  -3   4   1  204.79    5.57
  -3   4   1  213.14    5.58
   3   4  -1  208.96    5.48
   3   4  -1  209.25    5.41
   3   4  -1  230.91    5.84
  -3   4   0  225.71    5.95
  -3   4   0  211.29    5.69
  -3   4   0  215.79    5.86
  -3   4   0  213.13    5.75
  -3   4   0  192.71    5.22
  -3   4   0  208.66    5.55
  -3   4   0  213.12    4.64
   3   4   0  214.58    5.44
   3   4   0  237.62    5.96
  -3   4  -1  543.92    9.57
  -3   4  -1  572.80    9.57
  -3   4  -1  607.10    9.72
  -3   4  -1  550.72    9.55
  -3   4  -1  570.62    9.82
  -3   4  -1  612.63    9.88
  -3   4  -1  596.80    9.73
   3   4   1  597.61    9.84
   3   4   1  630.27    9.74
   3   4   1  565.25    9.12
   3   4   1  623.30    9.96
  -3   4  -2   23.17    2.05
  -3   4  -2   27.21    2.01
  -3   4  -2   27.49    2.06
  -3   4  -2   21.27    2.02
  -3   4  -2   25.86    2.09
  -3   4  -2   27.72    2.22
  -3   4  -2   26.24    2.10
   3   4   2   25.06    2.10
   3   4   2   28.15    2.04
   3   4   2   23.50    1.89
   3   4   2   27.60    2.14
  -3   4  -3  135.23    4.92
  -3   4  -3  142.23    4.66
  -3   4  -3  134.22    4.82
  -3   4  -3  139.20    4.84
  -3   4  -3  125.93    4.98
  -3   4  -3  143.74    4.79
   3   4   3  141.18    5.02
   3   4   3  143.74    4.56
   3   4   3  139.57    4.97
  -3   4  -4  252.63    6.83
  -3   4  -4  255.60    6.40
   3   4   4  243.14    5.91
   3   4   4  282.64    6.82
   3   4   4  263.30    7.17
  -3   4  -4  246.59    6.41
  -3   4  -4  285.12    7.86
   3   4   4  254.56    7.03
  -3   4  -4  242.82    6.86
  -3   4  -4  250.13    7.01
  -3   4  -5  398.84    9.07
  -3   4  -5  447.37    9.74
  -3   4  -5  389.34    8.64
  -3   4  -5  356.06    8.09
  -3   4  -5  382.25    9.54
  -3   4  -5  405.73    8.36
   3   4   5  421.97    9.41
  -3   4  -5  401.58    8.24
   3   4   5  377.72    8.84
   3   4   5  386.11    7.45
   3   4   5  383.67    8.26
   3   4   6  334.25    6.70
   3   4   6  318.31    7.85
   3   4   6  372.70    9.13
  -3   4  -6  289.28    7.43
  -3   4  -6  320.67    7.52
  -3   4  -6  344.99    7.98
  -3   4  -6  338.74    9.29
   3   4   6  328.65    8.51
  -3   4  -6  330.79    8.47
  -3   4  -6  309.57    8.42
   3   4   7   97.54    4.44
   3   4   7   97.70    3.47
  -3   4  -7  107.60    4.44
  -3   4  -7  101.97    4.20
  -3   4  -7   96.18    4.44
   3   4   7  110.75    5.09
   3   4   7  101.73    4.82
  -3   4  -7  117.17    5.15
  -3   4  -7  102.07    4.94
  -3   4  -8  204.08    6.61
   3   4   8  188.46    6.76
  -3   4  -8  179.86    5.46
  -3   4  -8  205.27    6.92
  -3   4  -8  209.04    7.11
  -3   4  -8  198.56    5.98
  -3   4  -9  272.85    8.57
  -3   4  -9  278.89    6.87
  -3   4  -9  278.26    7.79
   3   4   9  262.41    8.03
  -3   4  -9  270.61    7.86
  -3   4  -9  280.61    8.28
  -3   4 -10    5.68    1.08
  -3   4 -10    6.21    1.38
  -3   4 -10    5.53    1.36
  -3   4 -10    4.94    1.20
   3   4  10    4.90    1.30
  -3   4 -10    7.57    1.61
  -3   4 -11   34.67    2.17
  -3   4 -11   33.20    2.55
  -3   4 -11   41.71    3.02
  -3   4 -11   38.70    2.72
   3   4  11   34.90    2.75
  -3   4 -11   39.97    3.03
  -3   4 -12   99.74    3.28
  -3   4 -12   91.92    4.10
   3   4  12  101.99    4.29
  -3   4 -12  107.71    4.39
  -3   4 -13   20.58    1.75
   3   4  13   20.61    1.77
  -3   4 -13   23.44    1.81
   3   4  14   65.53    2.49
  -3   4 -14   64.38    2.32
  -3   5  14   68.51    2.46
   3   5 -14   68.39    2.75
  -3   5  13   71.53    2.69
  -3   5  13   68.57    2.42
  -3   5  12   26.38    1.90
  -3   5  12   25.44    1.85
  -3   5  11   27.14    2.10
  -3   5  11   25.73    2.11
  -3   5  10   14.20    1.63
  -3   5  10   16.21    1.78
  -3   5  10   15.20    1.79
  -3   5   9   61.04    3.37
  -3   5   9  102.46    4.70
  -3   5   8  383.04    8.61
  -3   5   8  395.43    9.67
  -3   5   7  351.12    8.23
  -3   5   7  407.14    9.69
  -3   5   6  160.65    5.51
   3   5  -6  156.93    4.44
  -3   5   6  153.00    5.91
   3   5  -5  401.71    7.56
  -3   5   5  406.66    9.53
  -3   5   4   19.97    1.89
  -3   5   4   20.30    1.94
   3   5  -4   23.54    1.91
  -3   5   4   19.82    2.14
  -3   5   4   20.90    2.13
   3   5  -3  293.83    6.80
  -3   5   3  285.04    7.61
  -3   5   2  152.81    5.53
  -3   5   2  163.91    5.65
  -3   5   2  168.52    5.59
  -3   5   2  153.07    5.29
  -3   5   2  182.98    5.56
   3   5  -2  170.11    5.39
   3   5  -2  179.19    5.36
  -3   5   1  250.10    7.01
  -3   5   1  223.92    6.56
  -3   5   1  231.06    6.25
  -3   5   1  241.02    6.66
  -3   5   1  254.40    6.75
   3   5  -1  263.79    6.87
   3   5  -1  261.90    6.55
  -3   5   0   48.55    3.05
  -3   5   0   47.29    2.98
  -3   5   0   37.90    2.31
  -3   5   0   47.30    3.04
   3   5   0   47.36    2.91
  -3   5   0   46.48    2.88
  -3   5  -1   26.05    2.29
  -3   5  -1   34.73    2.55
  -3   5  -1   38.93    2.70
  -3   5  -1   37.10    2.70
  -3   5  -1   35.69    2.39
  -3   5  -1   36.28    2.62
   3   5   1   36.89    2.54
   3   5   1   39.28    2.83
  -3   5  -2   25.74    2.36
  -3   5  -2   25.68    2.21
  -3   5  -2   32.73    2.60
  -3   5  -2   26.63    2.31
  -3   5  -2   22.43    2.03
  -3   5  -2   26.51    2.30
   3   5   2   22.51    2.18
   3   5   2   28.39    2.22
   3   5   2   24.13    2.22
  -3   5  -3   73.94    3.94
  -3   5  -3   76.83    3.93
  -3   5  -3   71.14    3.64
  -3   5  -3   72.59    3.78
  -3   5  -3   69.56    3.70
  -3   5  -3   80.13    3.94
   3   5   3   72.44    3.89
   3   5   3   75.15    3.51
   3   5   3   74.36    3.94
  -3   5  -4   76.98    4.02
  -3   5  -4   67.41    3.83
  -3   5  -4   72.67    3.97
  -3   5  -4   73.58    3.79
   3   5   4   69.77    3.92
   3   5   4   60.71    3.62
   3   5   4   76.15    3.47
   3   5   5 1068.63   13.17
   3   5   5 1039.02   15.81
  -3   5  -5 1126.46   15.12
  -3   5  -5 1085.28   14.97
  -3   5  -5 1002.09   15.66
   3   5   5  979.39   15.17
  -3   5  -5 1059.37   15.74
   3   5   6  169.73    4.94
  -3   5  -6  176.22    5.87
  -3   5  -6  197.81    7.00
   3   5   6  186.50    6.61
  -3   5  -6  178.96    5.87
   3   5   6  150.49    5.89
  -3   5  -6  195.00    6.66
  -3   5  -7   23.50    2.52
  -3   5  -7   23.68    2.17
  -3   5  -7   22.28    2.11
  -3   5  -7   21.41    2.33
   3   5   7   19.94    2.28
  -3   5  -8   31.65    2.37
  -3   5  -8   30.43    2.64
   3   5   8   33.58    2.85
  -3   5  -8   33.23    2.96
  -3   5  -9  255.51    6.27
  -3   5  -9  249.77    7.13
  -3   5 -10   57.77    2.73
   3   5  10   58.15    3.40
  -3   5 -10   53.95    3.13
  -3   5 -11   90.53    3.04
   3   5  11   90.27    3.89
  -3   5 -12    5.82    0.74
   3   5  12    5.69    1.00
  -3   5 -12    6.09    1.03
   3   5  13   29.59    1.62
  -3   5 -13   25.68    1.51
  -3   6  12    6.05    0.87
  -3   6  12    6.94    0.89
  -3   6  11   20.32    1.68
  -3   6  11   15.81    1.33
  -3   6  11   18.34    1.51
  -3   6  10   36.92    2.50
  -3   6  10   38.30    2.32
  -3   6  10   42.85    2.46
  -3   6   9   10.67    1.51
  -3   6   9   14.74    1.63
  -3   6   8   27.36    2.41
  -3   6   8   25.94    2.25
  -3   6   7   32.23    2.69
  -3   6   7   35.80    2.75
  -3   6   6   64.72    3.73
  -3   6   5  162.04    5.97
  -3   6   4    3.13    1.05
   3   6  -4    3.56    0.83
  -3   6   4    3.85    0.99
   3   6  -3  235.92    6.02
  -3   6   3  244.12    6.68
  -3   6   2   37.80    2.88
   3   6  -2   37.30    2.48
  -3   6   2   37.83    2.75
  -3   6   1   19.52    2.08
  -3   6   1   19.37    2.07
  -3   6   1   21.55    2.13
   3   6  -1   23.23    2.01
  -3   6   0  109.68    4.73
  -3   6   0  111.12    4.62
  -3   6   0  104.57    4.66
   3   6   0  107.74    4.30
  -3   6  -1  460.16    8.37
  -3   6  -1  457.35    9.66
  -3   6  -1  466.38    9.97
  -3   6  -1  491.54    9.79
  -3   6  -2  221.02    6.69
  -3   6  -2  227.77    6.01
  -3   6  -2  215.67    6.74
  -3   6  -2  229.97    6.76
   3   6   2  227.68    6.24
  -3   6  -3    1.15    0.77
  -3   6  -3    1.82    0.92
  -3   6  -3    0.86    0.61
   3   6   3    0.71    0.71
   3   6   3    1.30    0.66
  -3   6  -3    2.29    0.97
  -3   6  -4   21.79    2.19
  -3   6  -4   21.86    2.03
  -3   6  -5  230.25    6.63
   3   6   5  245.89    7.40
  -3   6  -5  254.38    6.98
  -3   6  -5  248.29    7.29
  -3   6  -5  247.26    6.91
  -3   6  -6   50.12    3.13
   3   6   6   48.94    3.29
  -3   6  -6   45.48    2.87
  -3   6  -6   49.08    3.24
  -3   6  -6   45.59    2.88
  -3   6  -7  233.98    6.70
  -3   6  -7  238.38    6.16
  -3   6  -7  236.53    6.82
  -3   6  -7  240.97    6.24
  -3   6  -8  406.60    8.59
  -3   6  -8  401.78    8.46
  -3   6  -8  381.89    7.38
   3   6   9  254.78    6.54
  -3   6  -9  251.47    6.19
  -3   6  -9  265.21    5.55
   3   6  10   34.85    2.23
  -3   6 -10   34.41    2.13
  -3   6 -10   32.18    2.01
   3   6  11   39.00    2.04
  -3   6 -11   33.96    1.42
  -3   6 -11   39.27    1.94
  -3   7  10    7.46    0.92
  -3   7   9   89.43    3.04
  -3   7   9   84.88    3.23
  -3   7   8   43.62    2.31
  -3   7   8   41.73    2.30
  -3   7   8   46.54    2.64
  -3   7   7  293.52    6.17
  -3   7   7  269.88    6.32
  -3   7   6   54.50    2.75
  -3   7   6   52.36    3.07
  -3   7   6   46.16    2.80
  -3   7   5  152.12    4.59
  -3   7   5  146.08    5.26
  -3   7   4   71.76    3.72
  -3   7   2   45.24    2.80
  -3   7   1  126.34    4.79
  -3   7   0    1.99    0.87
  -3   7  -1   48.28    2.93
  -3   7  -1   44.07    2.88
  -3   7  -1   51.07    3.10
  -3   7  -2   66.92    3.52
  -3   7  -2   70.76    3.50
  -3   7  -3  127.42    4.75
  -3   7  -3  139.16    4.82
  -3   7  -4  163.75    5.10
  -3   7  -5   86.76    3.62
  -3   7  -5   92.23    3.65
  -3   7  -6   91.77    3.51
  -3   7  -6   90.81    3.39
  -3   7  -7   34.40    2.00
  -3   7  -8   14.95    1.19
  -3   7  -9    3.78    0.59
  -3   8   7   17.50    1.21
  -3   8   6   12.79    1.16
  -3   8   5   44.93    2.24
  -3   8   4   32.63    2.00
  -3   8   3    2.59    0.72
  -3   8   2   29.07    2.00
  -3   8   1  174.63    4.81
  -3   8   0   19.52    1.59
  -3   8  -1  112.74    3.73
  -3   8  -2   48.34    2.42
  -3   8  -3    1.78    0.57
  -3   8  -5  128.37    3.31
  -3   8  -6   94.40    2.53
  -4  -8   4   10.45    0.88
  -4  -8   3   15.38    1.22
  -4  -8   3   15.98    1.08
  -4  -8   2   37.71    1.87
  -4  -8  -1   48.64    2.08
  -4  -8  -2   81.03    2.48
  -4  -8  -3   13.27    0.96
  -4  -7   9  303.85    4.72
  -4  -7   8  129.61    3.42
  -4  -7   7    8.05    1.01
  -4  -7   6   98.35    3.37
  -4  -7   5   26.72    2.02
  -4  -7   5   26.32    1.81
  -4  -7   4    1.70    0.75
  -4  -7   4    2.07    0.69
  -4  -7   3   17.90    1.75
  -4  -7   3   13.97    1.39
  -4  -7   2   91.86    3.39
  -4  -7   1    3.25    0.78
  -4  -7   0  148.95    4.75
  -4  -7   0  127.27    3.87
  -4  -7  -1    7.85    1.20
  -4  -7  -1    6.02    1.05
  -4  -7  -2   45.65    2.51
  -4  -7  -2   39.79    2.16
  -4  -7  -3   39.47    2.40
  -4  -7  -3   37.98    2.20
  -4  -7  -4  112.63    3.84
  -4  -7  -4  109.20    3.51
  -4  -7  -5  181.05    4.57
  -4  -7  -5  204.28    4.59
  -4  -7  -6  183.26    4.20
  -4  -7  -6  142.72    3.63
   4  -6 -10   39.39    1.75
  -4  -6   9   58.53    2.78
   4  -6  -9   62.65    2.38
  -4  -6   8   24.99    1.96
  -4  -6   7   10.09    1.35
  -4  -6   7    6.84    1.32
  -4  -6   6   66.20    3.28
  -4  -6   6   68.11    3.59
  -4  -6   5   48.61    2.81
  -4  -6   5   44.45    2.98
  -4  -6   5   41.66    2.90
  -4  -6   4   99.50    4.00
  -4  -6   4  102.20    4.50
  -4  -6   3   39.18    2.50
  -4  -6   3   41.46    2.96
  -4  -6   3   40.44    2.56
  -4  -6   2  222.14    6.58
  -4  -6   2  216.55    5.82
  -4  -6   1    4.91    1.19
  -4  -6   1    5.05    1.03
  -4  -6   0   44.22    2.87
  -4  -6   0   39.62    2.44
  -4  -6  -1  123.26    4.72
  -4  -6  -1  162.66    5.69
  -4  -6  -1  168.00    5.50
  -4  -6  -1  138.82    4.43
  -4  -6  -2   63.74    3.55
  -4  -6  -2   57.45    3.25
  -4  -6  -3   41.93    2.73
  -4  -6  -3   47.92    3.03
  -4  -6  -3   48.03    2.84
  -4  -6  -3   47.23    2.98
  -4  -6  -4   25.99    2.12
  -4  -6  -4   26.12    2.24
  -4  -6  -4   21.42    2.01
  -4  -6  -4   28.76    2.14
  -4  -6  -5   23.08    1.91
  -4  -6  -5   28.14    2.20
  -4  -6  -5   24.80    1.90
  -4  -6  -5   28.08    2.27
  -4  -6  -6    4.62    0.94
  -4  -6  -6    4.95    0.99
  -4  -6  -6    4.68    1.10
  -4  -6  -7    6.42    0.90
  -4  -6  -7    7.23    1.17
  -4  -6  -7    6.00    1.00
  -4  -6  -8   83.81    3.31
  -4  -6  -9   61.84    2.56
  -4  -6 -10   60.70    2.16
   4  -5 -13    1.38    0.48
   4  -5 -12   66.66    2.52
   4  -5 -11   39.21    2.14
  -4  -5  10   72.71    3.42
   4  -5 -10   71.60    3.10
  -4  -5   9  129.80    4.74
   4  -5  -9  129.38    4.31
   4  -5  -8   85.18    3.57
  -4  -5   8   82.19    3.92
  -4  -5   7   18.91    2.12
  -4  -5   7   18.42    1.90
  -4  -5   6  172.76    5.57
  -4  -5   5  132.58    4.66
   4  -5  -5  122.42    4.54
  -4  -5   5  131.80    4.79
  -4  -5   4   16.33    1.95
  -4  -5   4   15.45    1.74
  -4  -5   4   18.83    1.86
   4  -5  -4   15.65    1.65
  -4  -5   3  221.88    6.71
  -4  -5   3  218.95    5.98
  -4  -5   2   33.85    2.65
  -4  -5   2   30.83    2.25
  -4  -5   1  102.41    5.08
  -4  -5   1  102.61    3.99
  -4  -5   1  124.06    5.11
  -4  -5   1  116.76    4.73
  -4  -5   0  243.33    7.72
  -4  -5   0  236.55    5.97
  -4  -5   0  232.41    6.94
  -4  -5  -1   74.21    4.30
  -4  -5  -1   79.43    4.06
  -4  -5  -1   71.70    3.83
  -4  -5  -1   77.27    3.76
  -4  -5  -2  235.27    6.58
  -4  -5  -2  266.87    7.98
  -4  -5  -2  242.69    7.07
  -4  -5  -2  281.38    7.13
  -4  -5  -2  240.52    7.13
  -4  -5  -3  142.04    5.18
  -4  -5  -3  145.50    5.88
  -4  -5  -3  164.27    5.72
  -4  -5  -3  176.19    5.56
  -4  -5  -3  157.17    6.54
  -4  -5  -4  210.58    6.35
  -4  -5  -4  205.94    6.91
  -4  -5  -4  192.21    6.19
  -4  -5  -4  211.08    6.42
  -4  -5  -4  225.25    6.11
  -4  -5  -4  227.33    7.09
  -4  -5  -5  107.87    4.53
  -4  -5  -5  114.68    4.72
  -4  -5  -5  121.26    4.71
  -4  -5  -5  112.17    4.18
  -4  -5  -6   64.79    3.47
  -4  -5  -6   60.81    3.36
  -4  -5  -6   69.04    3.12
  -4  -5  -6   70.79    3.50
  -4  -5  -6   68.43    3.80
  -4  -5  -7   20.69    1.98
  -4  -5  -7   23.37    2.06
  -4  -5  -7   19.82    1.81
  -4  -5  -7   16.77    1.94
  -4  -5  -8    4.76    1.05
  -4  -5  -8    4.95    1.14
  -4  -5  -8    4.91    1.05
  -4  -5  -9  158.64    4.71
  -4  -5 -10   18.72    1.48
  -4  -5 -11   26.92    1.44
  -4  -5 -11   28.07    1.67
   4  -4 -14   42.10    1.86
   4  -4 -13   99.76    3.06
   4  -4 -13  110.89    3.46
   4  -4 -12    4.64    0.90
  -4  -4  12    5.47    1.06
   4  -4 -12    5.19    1.00
   4  -4 -11   51.95    2.84
  -4  -4  11   52.64    3.08
   4  -4 -10   10.49    1.43
  -4  -4  10   12.26    1.62
  -4  -4   9  140.04    5.21
   4  -4  -8  185.49    5.67
  -4  -4   8  200.29    6.22
   4  -4  -7   95.12    4.04
  -4  -4   7  113.21    4.60
  -4  -4   6  841.38   12.50
  -4  -4   6  841.80   12.47
  -4  -4   5   40.20    2.74
   4  -4  -5   40.77    2.56
  -4  -4   5   42.25    2.67
  -4  -4   4   95.19    4.31
  -4  -4   4   77.52    3.76
  -4  -4   4   75.75    3.45
   4  -4  -4   91.41    3.75
  -4  -4   3   47.84    2.67
   4  -4  -3   52.84    2.74
  -4  -4   2  205.08    5.35
   4  -4  -2  188.37    4.90
  -4  -4   1  363.76    7.08
  -4  -4   1  356.68    8.22
  -4  -4   1  372.20    8.69
  -4  -4   1  350.47    9.43
  -4  -4   0   71.96    3.72
  -4  -4   0   72.46    4.27
  -4  -4   0   78.88    3.81
  -4  -4   0   77.40    3.57
  -4  -4   0   67.66    3.69
  -4  -4  -1  215.28    6.60
  -4  -4  -1  227.41    7.53
  -4  -4  -1  254.96    7.08
  -4  -4  -1  273.37    7.11
  -4  -4  -1  226.11    6.09
  -4  -4  -2  437.03   10.58
  -4  -4  -2  434.92    9.42
  -4  -4  -2  432.78    8.95
  -4  -4  -2  455.50    8.66
  -4  -4  -3   98.21    5.10
  -4  -4  -3  108.99    5.15
  -4  -4  -3  114.14    4.53
  -4  -4  -3  106.74    4.10
  -4  -4  -4 1270.84   16.99
  -4  -4  -4 1225.64   16.43
  -4  -4  -4 1242.47   16.97
  -4  -4  -4 1221.95   14.22
  -4  -4  -4 1270.06   15.55
  -4  -4  -5  377.15    9.21
  -4  -4  -5  351.04    8.69
  -4  -4  -5  364.74    9.88
  -4  -4  -5  378.44    7.49
  -4  -4  -5  356.20    7.98
  -4  -4  -6   65.80    3.84
  -4  -4  -6   64.75    3.74
  -4  -4  -6   71.93    3.15
  -4  -4  -6   76.76    3.61
  -4  -4  -6   65.58    3.90
  -4  -4  -7  616.06   11.19
  -4  -4  -7  622.73   10.07
  -4  -4  -8   25.64    2.45
  -4  -4  -8   28.18    2.39
  -4  -4  -8   23.95    2.28
  -4  -4  -9   75.72    3.95
  -4  -4  -9   69.65    3.41
  -4  -4  -9   68.19    3.58
  -4  -4 -10   94.60    4.13
  -4  -4 -10   96.87    3.93
  -4  -4 -11   62.65    3.05
  -4  -4 -11   65.07    2.87
  -4  -4 -12    5.54    0.90
  -4  -4 -13   11.97    0.95
   4  -3 -15   58.09    2.01
   4  -3 -15   49.56    1.94
   4  -3 -14   21.13    1.50
   4  -3 -14   23.73    1.62
   4  -3 -14   20.83    1.54
   4  -3 -13  121.37    4.13
  -4  -3  13  126.57    4.56
   4  -3 -13  114.48    3.98
  -4  -3  13  133.99    4.47
  -4  -3  12   44.43    2.92
   4  -3 -12   44.66    2.78
   4  -3 -12   49.81    2.85
  -4  -3  11  422.34    9.21
   4  -3 -11  443.05    9.25
  -4  -3  10  260.30    7.27
   4  -3 -10  318.26    7.62
  -4  -3   9  213.88    6.52
  -4  -3   8  132.27    5.53
   4  -3  -8  121.96    4.50
  -4  -3   7   88.22    4.09
   4  -3  -7   83.26    3.68
  -4  -3   7   76.33    4.14
  -4  -3   6  154.61    5.74
  -4  -3   6  150.42    5.49
  -4  -3   6  138.41    5.04
   4  -3  -6  148.11    4.82
  -4  -3   6  158.81    5.68
  -4  -3   6  144.97    4.88
  -4  -3   5  575.03   10.93
  -4  -3   5  580.61   10.73
  -4  -3   5  618.95   10.68
   4  -3  -5  610.57    9.67
  -4  -3   5  605.08    9.70
  -4  -3   4  616.30   11.12
  -4  -3   4  624.56   10.93
   4  -3  -4  725.56   10.25
  -4  -3   4  652.01    9.62
  -4  -3   4  711.96   11.27
  -4  -3   3  426.56    8.22
  -4  -3   3  404.72    7.22
   4  -3  -3  428.75    7.54
  -4  -3   2   49.37    2.94
  -4  -3   2   54.90    2.84
  -4  -3   2   51.36    3.11
   4  -3  -2   54.82    2.56
  -4  -3   2   49.65    2.88
  -4  -3   2   55.99    2.55
  -4  -3   1   59.90    3.21
  -4  -3   1   60.65    3.33
  -4  -3   1   73.87    3.39
  -4  -3   1   69.01    3.12
   4  -3  -1   65.64    2.68
  -4  -3   1   61.82    3.34
  -4  -3   1   57.05    3.25
  -4  -3   1   64.05    3.24
  -4  -3   1   62.57    2.61
  -4  -3   0  175.98    5.17
  -4  -3   0  185.16    5.00
   4  -3   0  179.96    4.18
  -4  -3   0  149.53    4.72
  -4  -3   0  177.53    5.61
  -4  -3   0  193.19    6.07
  -4  -3   0  159.73    6.15
  -4  -3   0  185.85    5.84
  -4  -3   0  174.99    5.27
  -4  -3   0  158.78    5.30
  -4  -3  -1   12.27    1.46
  -4  -3  -1   11.41    1.31
  -4  -3  -1   11.14    1.43
  -4  -3  -1    9.90    1.80
  -4  -3  -1   12.72    1.48
  -4  -3  -1    9.62    1.58
  -4  -3  -1   14.26    1.76
  -4  -3  -1   14.45    1.71
  -4  -3  -1    9.78    1.55
  -4  -3  -2  780.65   12.48
  -4  -3  -2  845.72   13.17
  -4  -3  -2  881.92   11.83
  -4  -3  -2  852.10   10.90
  -4  -3  -2  778.91   11.90
  -4  -3  -2  793.40   11.42
  -4  -3  -2  848.22   12.29
  -4  -3  -2  832.44   14.50
  -4  -3  -2  854.66   12.99
  -4  -3  -3  208.76    6.58
  -4  -3  -3  209.64    5.19
  -4  -3  -3  210.68    5.62
  -4  -3  -3  185.66    5.86
  -4  -3  -3  184.93    6.85
   4  -3   3  201.21    6.16
  -4  -3  -3  191.02    5.86
  -4  -3  -3  201.12    6.43
  -4  -3  -3  185.82    6.03
  -4  -3  -4  103.17    3.58
  -4  -3  -4   95.78    3.80
  -4  -3  -4   96.69    4.36
  -4  -3  -4   94.72    4.35
  -4  -3  -4   91.02    4.96
   4  -3   4   97.10    4.55
  -4  -3  -4   95.91    4.30
  -4  -3  -4   95.03    4.52
  -4  -3  -4  100.38    4.70
  -4  -3  -5  375.85    9.34
  -4  -3  -5  339.72    8.51
  -4  -3  -5  345.93    9.81
   4  -3   5  363.84    9.36
  -4  -3  -5  358.15    8.56
  -4  -3  -5  322.82    7.03
  -4  -3  -5  294.78    8.14
  -4  -3  -6  429.94   10.02
  -4  -3  -6  463.45   10.15
  -4  -3  -6  438.10   10.40
  -4  -3  -6  507.66   10.88
  -4  -3  -6  453.48   11.41
  -4  -3  -6  447.90    9.89
   4  -3   6  485.18   11.24
  -4  -3  -6  442.25    9.82
  -4  -3  -6  471.58    8.48
  -4  -3  -6  466.50   10.00
  -4  -3  -7  216.97    6.99
  -4  -3  -7  252.77    7.95
  -4  -3  -7  246.70    7.90
  -4  -3  -7  243.32    7.29
  -4  -3  -7  239.64    7.16
  -4  -3  -7  241.18    7.35
  -4  -3  -7  245.79    5.92
   4  -3   7  245.37    8.20
   4  -3   8  601.57   13.12
  -4  -3  -8  581.28   11.47
  -4  -3  -8  621.56   11.50
  -4  -3  -8  650.22   12.20
  -4  -3  -8  617.22   12.50
  -4  -3  -8  630.02   11.49
  -4  -3  -9  125.67    5.17
  -4  -3  -9  132.70    5.15
  -4  -3  -9  137.11    5.40
  -4  -3  -9  134.80    5.74
  -4  -3  -9  128.15    4.96
  -4  -3 -10    6.54    1.30
  -4  -3 -10    6.28    1.29
  -4  -3 -10    5.90    1.23
  -4  -3 -10    6.54    1.41
  -4  -3 -10    7.04    1.23
  -4  -3 -11  211.23    5.95
  -4  -3 -11  231.71    6.17
  -4  -3 -11  232.69    5.73
  -4  -3 -11  218.19    6.54
  -4  -3 -12    4.60    1.04
  -4  -3 -12    5.49    0.91
  -4  -3 -13   36.45    2.09
  -4  -3 -14   49.43    1.87
   4  -2 -15   14.50    1.26
   4  -2 -15   12.24    1.09
   4  -2 -15   13.96    1.27
   4  -2 -14    3.01    0.81
   4  -2 -14    2.62    0.87
   4  -2 -14    3.05    0.78
   4  -2 -13  176.14    5.82
  -4  -2  13  171.66    5.70
   4  -2 -12  405.53    9.48
  -4  -2  12  376.03    8.75
  -4  -2  11  324.72    8.25
  -4  -2  10  116.89    5.58
  -4  -2  10  110.35    4.74
   4  -2 -10  103.99    4.07
  -4  -2   9  506.88   10.02
   4  -2  -9  514.06    9.19
  -4  -2   8   77.36    3.72
  -4  -2   8   81.35    4.86
  -4  -2   8   71.06    3.82
  -4  -2   8   85.26    3.94
   4  -2  -8   91.04    4.06
  -4  -2   8   72.13    4.32
  -4  -2   7   91.24    4.94
  -4  -2   7   94.81    4.35
  -4  -2   7   95.25    3.97
   4  -2  -7   97.47    3.85
   4  -2  -7  100.29    4.16
  -4  -2   7   99.77    4.89
  -4  -2   6   30.05    2.78
  -4  -2   6   28.98    2.35
  -4  -2   6   30.61    2.66
   4  -2  -6   29.90    2.24
  -4  -2   6   29.00    2.14
  -4  -2   5  441.69    9.53
  -4  -2   5  534.47    9.66
   4  -2  -5  488.74    8.88
  -4  -2   5  444.43    8.71
  -4  -2   5  556.75    8.76
  -4  -2   4  110.28    4.68
  -4  -2   4  112.10    4.09
  -4  -2   4  103.58    4.38
  -4  -2   4  104.18    4.12
   4  -2  -4  112.37    4.07
  -4  -2   3  270.29    7.01
   4  -2  -3  298.93    6.60
  -4  -2   3  307.42    7.37
  -4  -2   3  280.61    5.50
  -4  -2   3  269.60    7.18
  -4  -2   2  797.18   10.22
  -4  -2   2  700.14   10.74
   4  -2  -2  753.71   10.60
  -4  -2   2  821.86   12.10
  -4  -2   2  712.17   11.73
  -4  -2   2  712.52   11.37
  -4  -2   2  760.43   11.65
  -4  -2   1  400.02    6.83
  -4  -2   1  376.23    7.68
   4  -2  -1  389.55    7.59
  -4  -2   1  327.53    7.81
  -4  -2   1  397.10    8.23
  -4  -2   1  359.17    7.82
  -4  -2   1  321.62    7.38
  -4  -2   1  350.41    7.65
  -4  -2   0  159.56    5.07
  -4  -2   0  150.39    5.01
  -4  -2   0  176.73    5.26
  -4  -2   0  135.20    5.04
  -4  -2   0  142.31    4.95
  -4  -2   0  131.87    4.75
  -4  -2   0  151.44    4.31
  -4  -2  -1   49.09    2.41
  -4  -2  -1   52.53    3.06
  -4  -2  -1   42.48    2.62
  -4  -2  -1   48.07    3.04
  -4  -2  -1   45.95    3.18
  -4  -2  -1   47.44    2.92
  -4  -2  -1   41.87    2.85
  -4  -2  -1   49.90    2.95
  -4  -2  -2  747.22    9.68
  -4  -2  -2  754.51   12.01
  -4  -2  -2  725.62   11.12
  -4  -2  -2  787.95   12.74
  -4  -2  -2  748.55   11.99
  -4  -2  -2  759.06   13.15
  -4  -2  -2  746.73   12.32
  -4  -2  -2  805.48   12.30
  -4  -2  -3  488.34    9.75
  -4  -2  -3  470.00   10.60
  -4  -2  -3  484.63    9.86
  -4  -2  -3  498.05    9.37
  -4  -2  -3  464.04    9.61
  -4  -2  -3  472.67   10.09
  -4  -2  -3  505.88    9.50
  -4  -2  -4  185.92    6.48
  -4  -2  -4  201.09    6.50
  -4  -2  -4  227.95    6.86
  -4  -2  -4  206.25    6.73
  -4  -2  -4  200.28    6.09
  -4  -2  -4  207.55    7.25
  -4  -2  -4  213.10    6.62
  -4  -2  -4  208.06    6.12
  -4  -2  -5  391.48    9.72
  -4  -2  -5  409.90    9.63
  -4  -2  -5  414.56    9.60
  -4  -2  -5  423.95   10.05
  -4  -2  -5  442.60    9.91
  -4  -2  -5  429.98    9.04
  -4  -2  -5  381.42    8.65
  -4  -2  -5  401.66   10.40
   4  -2   5  433.77    9.38
  -4  -2  -6  130.27    5.84
  -4  -2  -6  112.33    5.17
  -4  -2  -6  134.04    5.61
  -4  -2  -6  128.89    5.58
  -4  -2  -6  115.39    5.72
  -4  -2  -6  116.45    4.88
  -4  -2  -6  145.26    6.00
  -4  -2  -6  133.36    5.26
   4  -2   6  136.66    5.42
   4  -2   6  124.91    5.67
  -4  -2  -6  124.71    4.91
  -4  -2  -7    2.39    1.04
  -4  -2  -7    2.67    1.13
   4  -2   7    2.93    1.22
  -4  -2  -7    2.59    1.03
  -4  -2  -7    1.96    0.98
  -4  -2  -7    3.31    1.23
  -4  -2  -7    1.92    1.03
  -4  -2  -7    2.31    1.16
   4  -2   7    4.30    1.19
  -4  -2  -7    6.79    1.30
  -4  -2  -8   55.95    3.30
  -4  -2  -8   55.83    3.82
  -4  -2  -8   55.48    3.81
  -4  -2  -8   55.84    3.54
   4  -2   8   48.32    2.91
  -4  -2  -8   58.20    3.92
  -4  -2  -8   60.23    3.63
  -4  -2  -8   58.36    3.89
   4  -2   8   58.92    3.78
   4  -2   8   61.81    4.32
  -4  -2  -9   15.40    2.12
  -4  -2  -9   13.62    1.99
  -4  -2  -9   15.44    2.02
  -4  -2  -9   18.29    2.29
  -4  -2  -9   15.33    1.93
  -4  -2  -9   15.97    1.80
   4  -2   9   12.92    1.96
   4  -2   9   15.62    2.36
   4  -2   9   16.12    1.77
  -4  -2 -10   62.38    3.54
  -4  -2 -10   66.12    4.07
  -4  -2 -10   73.19    3.50
  -4  -2 -10   73.38    4.26
  -4  -2 -11  210.75    6.80
  -4  -2 -11  208.19    5.99
  -4  -2 -11  205.37    6.92
  -4  -2 -12   28.28    2.32
  -4  -2 -12   27.20    1.96
  -4  -2 -12   29.01    2.38
  -4  -2 -13    3.41    0.84
  -4  -2 -13    4.40    0.95
  -4  -2 -14    2.20    0.59
   4  -1 -16   19.83    1.28
   4  -1 -16   17.60    1.35
  -4  -1  15  143.35    4.50
   4  -1 -15  150.71    4.15
   4  -1 -14   88.04    4.06
  -4  -1  14   84.25    3.76
   4  -1 -13    7.84    1.55
  -4  -1  13    8.71    1.50
   4  -1 -12    4.87    1.33
  -4  -1  12    3.93    1.13
  -4  -1  11   18.94    2.07
  -4  -1  11   19.29    2.48
   4  -1 -11   15.79    1.62
   4  -1 -11   16.27    1.98
  -4  -1  11   16.39    2.32
  -4  -1  10   98.47    4.54
  -4  -1  10   88.77    5.00
   4  -1 -10   98.28    3.87
   4  -1 -10  106.41    4.88
  -4  -1  10   91.50    5.04
  -4  -1   9   69.91    4.33
  -4  -1   9   65.45    3.91
  -4  -1   9   71.71    3.72
  -4  -1   9   69.40    4.28
   4  -1  -9   76.32    3.45
   4  -1  -9   72.43    3.96
  -4  -1   8  317.23    8.89
  -4  -1   8  322.58    8.35
  -4  -1   8  326.16    7.65
  -4  -1   8  306.09    8.74
  -4  -1   7  284.93    8.17
  -4  -1   7  272.64    7.53
  -4  -1   7  250.75    6.37
  -4  -1   7  251.02    7.62
   4  -1  -7  300.87    7.59
  -4  -1   6 1052.72   12.69
  -4  -1   6 1076.41   15.67
  -4  -1   6 1037.36   13.98
  -4  -1   6 1057.09   14.59
  -4  -1   6 1076.77   15.43
   4  -1  -6 1081.86   14.65
  -4  -1   5  287.26    6.07
  -4  -1   5  343.88    7.69
  -4  -1   5  312.61    8.06
  -4  -1   5  364.85    7.47
  -4  -1   5  309.58    7.77
   4  -1  -5  333.82    7.60
   4  -1  -4  645.77   10.54
  -4  -1   4  566.37   10.44
  -4  -1   4  597.67   10.48
  -4  -1   4  658.38   10.27
  -4  -1   4  518.75   10.08
   4  -1  -3  339.63    7.39
  -4  -1   3  336.93    7.40
  -4  -1   3  301.08    6.74
  -4  -1   3  319.27    7.72
  -4  -1   3  306.79    7.34
  -4  -1   3  314.60    7.52
  -4  -1   2  140.83    4.68
  -4  -1   2  134.40    4.76
  -4  -1   2  132.41    5.03
  -4  -1   2  133.38    4.94
   4  -1  -2  143.45    4.79
  -4  -1   1  814.08   11.55
  -4  -1   1  882.28   12.41
  -4  -1   1  865.10   12.73
  -4  -1   1  821.51   12.07
   4  -1  -1  891.30   12.11
   4  -1   0  505.84    6.10
  -4  -1   0  536.44    9.68
  -4  -1   0  463.67    8.60
  -4  -1   0  482.94    9.43
  -4  -1   0  480.85    9.25
  -4  -1   0  519.21    9.06
  -4  -1   0  489.52    8.65
  -4  -1   0  504.75    9.30
   4  -1   1  714.39    8.07
  -4  -1  -1  751.82   11.31
  -4  -1  -1  717.21    9.77
  -4  -1  -1  705.49   11.63
  -4  -1  -1  729.05   11.99
  -4  -1  -1  737.39   11.00
  -4  -1  -1  726.15   11.66
  -4  -1  -1  750.33   10.86
  -4  -1  -1  749.20   11.56
   4  -1   2 1004.20   10.40
  -4  -1  -2 1045.64   14.46
  -4  -1  -2 1000.68   11.69
  -4  -1  -2 1028.23   13.65
  -4  -1  -2  975.59   14.23
  -4  -1  -2  976.25   14.42
  -4  -1  -2 1045.35   13.03
  -4  -1  -2 1043.02   14.12
  -4  -1  -2 1014.75   13.35
  -4  -1  -2  988.82   14.45
  -4  -1  -3   17.61    2.07
  -4  -1  -3   18.71    1.99
  -4  -1  -3   16.67    1.76
  -4  -1  -3   19.53    2.07
  -4  -1  -3   16.56    1.52
  -4  -1  -3   14.58    1.71
  -4  -1  -3   13.90    1.89
  -4  -1  -3   18.48    2.19
  -4  -1  -3   15.18    1.63
  -4  -1  -3   17.54    1.91
  -4  -1  -3   18.34    1.73
  -4  -1  -4   47.38    3.20
  -4  -1  -4   45.40    2.98
  -4  -1  -4   46.07    3.33
  -4  -1  -4   43.20    2.74
  -4  -1  -4   42.71    3.02
  -4  -1  -4   46.94    3.01
  -4  -1  -4   46.00    3.23
  -4  -1  -4   45.07    2.46
  -4  -1  -4   43.25    3.21
  -4  -1  -4   43.62    2.67
   4  -1   4   48.23    2.46
  -4  -1  -5   73.57    3.91
  -4  -1  -5   77.62    4.24
  -4  -1  -5   85.44    4.17
  -4  -1  -5   75.18    4.17
  -4  -1  -5   82.70    3.88
  -4  -1  -5   86.61    3.82
  -4  -1  -5   79.27    4.46
   4  -1   5   76.03    3.26
   4  -1   6  143.67    5.77
  -4  -1  -6  138.00    5.55
  -4  -1  -6  137.78    5.81
  -4  -1  -6  129.14    5.35
  -4  -1  -6  129.94    5.65
  -4  -1  -6  133.35    5.97
  -4  -1  -6  127.71    5.63
  -4  -1  -6  126.05    4.68
   4  -1   6  125.47    4.41
   4  -1   7   32.15    2.87
  -4  -1  -7   29.04    2.65
  -4  -1  -7   31.79    2.97
  -4  -1  -7   28.93    2.69
  -4  -1  -7   28.12    2.78
  -4  -1  -7   27.46    2.93
  -4  -1  -7   29.59    2.83
  -4  -1  -7   28.91    2.32
   4  -1   7   28.16    2.21
   4  -1   8  202.81    7.29
   4  -1   8  208.21    7.80
  -4  -1  -8  189.99    7.30
  -4  -1  -8  194.91    6.91
  -4  -1  -8  180.50    6.98
  -4  -1  -8  199.04    7.03
  -4  -1  -8  189.82    7.25
  -4  -1  -8  188.37    7.41
   4  -1   8  193.23    5.91
  -4  -1  -8  183.99    5.75
  -4  -1  -9   23.13    2.02
  -4  -1  -9   21.83    2.53
  -4  -1  -9   20.24    2.51
  -4  -1  -9   23.77    2.34
  -4  -1  -9   22.65    2.44
  -4  -1  -9   23.82    2.73
   4  -1   9   20.54    2.01
   4  -1   9   24.94    2.67
   4  -1   9   25.01    2.93
  -4  -1  -9   22.58    2.47
  -4  -1 -10   95.34    5.09
  -4  -1 -10  100.98    4.97
  -4  -1 -10  103.00    5.33
  -4  -1 -10   99.68    4.88
  -4  -1 -11  219.92    7.43
  -4  -1 -11  209.77    6.86
  -4  -1 -11  197.06    7.07
  -4  -1 -11  231.65    7.08
  -4  -1 -12   66.90    3.82
  -4  -1 -12   68.84    3.63
  -4  -1 -12   60.45    3.33
  -4  -1 -12   67.59    3.87
  -4  -1 -13   15.75    1.72
  -4  -1 -13   16.92    1.66
  -4  -1 -13   14.90    1.52
  -4  -1 -13   17.68    1.86
  -4  -1 -14    9.82    1.20
  -4  -1 -14    8.23    1.04
  -4  -1 -14    9.89    1.19
  -4  -1 -14    9.51    1.03
  -4   0  16   65.30    2.53
   4   0 -16   65.78    2.36
  -4   0  15   31.85    2.19
  -4   0  14    1.88    0.86
  -4   0  14    2.06    0.96
  -4   0  13    2.74    1.00
  -4   0  12  121.91    5.21
  -4   0  11   93.72    5.00
  -4   0  11   94.31    4.59
  -4   0  11   83.83    5.01
   4   0 -11   87.75    3.51
   4   0 -11   84.70    4.52
  -4   0  11   84.57    4.07
  -4   0  10  155.71    6.34
  -4   0  10  157.66    5.80
  -4   0  10  173.67    6.94
   4   0 -10  173.09    5.08
  -4   0  10  164.11    5.80
  -4   0   9  244.20    6.98
  -4   0   9  230.54    7.84
   4   0  -9  238.60    7.40
  -4   0   9  229.11    6.85
  -4   0   8  314.72    8.04
  -4   0   8  310.46    8.34
  -4   0   8  364.90    9.26
  -4   0   8  334.60    9.18
   4   0  -8  374.04    9.08
  -4   0   8  339.94    7.88
  -4   0   7  170.74    5.74
  -4   0   7  157.97    5.69
  -4   0   7  170.22    6.07
  -4   0   7  166.39    6.25
   4   0  -7  182.15    6.17
  -4   0   7  156.23    5.01
  -4   0   6  155.31    4.69
  -4   0   6  131.89    5.17
  -4   0   6  146.85    5.18
  -4   0   6  165.31    5.73
   4   0  -6  151.03    5.57
  -4   0   6  172.67    6.11
  -4   0   6  174.77    5.67
  -4   0   5   17.97    1.89
  -4   0   5   20.02    1.89
  -4   0   5   20.31    1.86
   4   0  -5   20.90    2.03
  -4   0   5   17.59    2.03
  -4   0   5   20.81    1.97
  -4   0   4  368.07    7.84
  -4   0   4  339.26    7.24
  -4   0   4  359.36    8.19
  -4   0   4  327.43    7.02
  -4   0   4  337.01    8.01
   4   0  -4  359.59    8.08
  -4   0   4  315.47    7.35
  -4   0   3   17.00    1.90
  -4   0   3   13.66    1.43
  -4   0   3   13.77    1.77
   4   0  -3   15.34    1.72
  -4   0   3   15.66    1.80
  -4   0   2 1276.53   15.51
  -4   0   2 1382.02   15.02
  -4   0   2 1413.69   14.84
  -4   0   2 1409.31   16.15
   4   0  -2 1427.84   16.17
  -4   0   2 1320.00   15.97
  -4   0   1    0.71    0.59
  -4   0   1    2.92    1.27
  -4   0   1    1.63    0.63
  -4   0   1    2.32    0.72
  -4   0   1    2.75    1.38
   4   0   0  661.42    7.15
  -4   0   0  663.16   11.13
  -4   0   0  677.11    9.68
  -4   0   0  645.28   10.28
  -4   0   0  619.40   10.73
  -4   0   0  634.24   10.47
  -4   0   0  689.91   10.82
  -4   0   0  617.00   10.43
   4   0   1  109.32    3.06
  -4   0  -1  107.73    4.37
  -4   0  -1   82.07    3.69
  -4   0  -1  110.31    3.87
  -4   0  -1   99.83    4.35
  -4   0  -1   96.98    4.13
  -4   0  -1  112.67    4.41
  -4   0  -1   73.08    3.24
  -4   0  -1  102.93    4.30
   4   0   2  641.55    8.26
  -4   0  -2  752.46   11.94
  -4   0  -2  689.05    9.03
  -4   0  -2  722.04   11.34
  -4   0  -2  674.39    9.95
  -4   0  -2  628.77   11.22
  -4   0  -2  627.26   10.94
  -4   0  -2  624.96    9.26
  -4   0  -2  687.37   11.27
  -4   0  -2  611.75    9.48
  -4   0  -2  643.22   11.39
  -4   0  -2  645.27   10.00
   4   0   3    5.43    0.87
  -4   0  -3    5.87    1.25
  -4   0  -3    3.27    0.91
  -4   0  -3    5.23    0.89
  -4   0  -3    4.70    0.98
  -4   0  -3    4.85    1.30
  -4   0  -3    4.67    1.21
  -4   0  -3    3.46    0.88
  -4   0  -3    4.57    1.09
  -4   0  -3    5.29    1.15
  -4   0  -3    5.03    0.95
  -4   0  -3    4.31    0.93
  -4   0  -3    5.34    1.33
  -4   0  -3    5.33    1.16
  -4   0  -4   38.76    2.87
  -4   0  -4   41.28    2.68
  -4   0  -4   44.60    2.53
  -4   0  -4   46.47    3.22
  -4   0  -4   42.58    2.43
  -4   0  -4   42.55    2.61
  -4   0  -4   42.22    3.22
  -4   0  -4   35.94    2.85
  -4   0  -4   43.37    2.64
   4   0   4   39.82    2.29
  -4   0  -4   39.47    2.41
  -4   0  -4   43.86    3.03
  -4   0  -4   42.24    2.92
  -4   0  -5  231.77    7.27
  -4   0  -5  247.38    6.79
  -4   0  -5  233.88    5.93
  -4   0  -5  229.87    7.20
  -4   0  -5  260.77    6.25
   4   0   5  250.51    6.05
  -4   0  -5  242.27    6.41
  -4   0  -5  238.52    6.32
  -4   0  -5  236.84    7.45
  -4   0  -5  252.39    7.36
  -4   0  -5  249.90    7.53
  -4   0  -5  234.94    5.96
  -4   0  -5  241.61    7.75
  -4   0  -6    0.20    0.89
   4   0   6    1.13    0.85
  -4   0  -6    0.12    0.71
  -4   0  -6    0.05    0.60
   4   0   6    0.40    0.53
  -4   0  -6    1.45    0.71
  -4   0  -6    0.50    0.71
  -4   0  -6    0.09    0.73
  -4   0  -6    0.52    0.80
  -4   0  -6    0.19    0.82
  -4   0  -6    3.82    0.86
  -4   0  -7  287.60    9.16
  -4   0  -7  306.03    8.95
  -4   0  -7  315.13    8.35
  -4   0  -7  328.14    9.39
  -4   0  -7  286.65    7.19
  -4   0  -7  322.52    7.84
  -4   0  -7  341.95    9.24
  -4   0  -7  308.61    6.86
  -4   0  -7  328.05    9.42
   4   0   7  316.15    9.05
   4   0   7  299.44    7.32
   4   0   8  650.57   13.49
  -4   0  -8  566.03   12.17
  -4   0  -8  611.84   13.28
  -4   0  -8  619.90   11.16
  -4   0  -8  575.29   13.30
  -4   0  -8  624.01   12.13
  -4   0  -8  596.98   13.08
  -4   0  -8  592.75   10.39
  -4   0  -8  600.47   10.48
   4   0   8  673.04   11.34
  -4   0  -8  612.26   10.31
  -4   0  -8  598.21   12.93
  -4   0  -9  913.14   16.23
  -4   0  -9  928.70   15.01
  -4   0  -9  901.01   16.32
  -4   0  -9  891.07   12.60
  -4   0  -9  936.48   16.69
   4   0   9  899.43   13.56
   4   0   9  946.59   16.62
  -4   0  -9  933.69   13.20
  -4   0 -10    8.40    1.57
  -4   0 -10    8.29    1.69
   4   0  10    9.10    1.85
   4   0  10    8.39    1.80
  -4   0 -10    7.71    1.34
  -4   0 -10   10.05    1.89
  -4   0 -10   10.29    1.84
  -4   0 -10    7.92    1.67
   4   0  10    7.21    1.32
  -4   0 -11   11.10    1.78
  -4   0 -11   10.49    1.84
  -4   0 -11    7.64    1.63
  -4   0 -11    7.92    1.42
  -4   0 -12   13.94    1.92
  -4   0 -12   11.50    1.66
  -4   0 -12   12.74    1.79
  -4   0 -12   14.66    1.69
  -4   0 -13   23.74    2.01
  -4   0 -13   21.20    2.08
  -4   0 -13   23.29    2.11
  -4   0 -13   23.04    1.83
  -4   0 -14  325.39    6.73
  -4   0 -14  315.47    6.15
  -4   0 -15  120.44    3.12
  -4   1  16   17.67    1.20
   4   1 -16   18.89    1.36
   4   1 -15  148.02    4.56
   4   1 -14   88.35    4.05
  -4   1  13    9.25    1.49
   4   1 -13    9.68    1.65
  -4   1  12    3.03    1.06
   4   1 -12    5.08    1.31
  -4   1  12    3.53    1.03
  -4   1  11   14.30    2.03
  -4   1  11   17.34    1.96
  -4   1  11   16.80    2.08
   4   1 -11   19.25    2.31
  -4   1  11   17.60    2.40
  -4   1  10   87.07    4.60
  -4   1  10   99.58    4.56
  -4   1  10  105.25    4.84
   4   1 -10  108.48    5.39
  -4   1  10   94.31    5.14
  -4   1   9   63.47    3.81
  -4   1   9   65.78    3.71
  -4   1   9   71.57    3.90
  -4   1   9   73.46    4.46
  -4   1   8  332.15    9.07
  -4   1   8  321.53    8.97
  -4   1   8  322.74    7.92
   4   1  -8  339.45    8.94
  -4   1   8  309.82    7.81
  -4   1   7  283.86    8.19
  -4   1   7  291.22    8.22
  -4   1   7  269.18    7.03
  -4   1   7  260.75    7.80
  -4   1   7  260.83    6.73
   4   1  -7  296.36    8.13
  -4   1   7  280.86    7.33
  -4   1   6 1108.47   15.97
  -4   1   6 1172.42   15.87
  -4   1   6 1024.78   13.35
  -4   1   6  986.94   15.23
  -4   1   6 1012.56   12.78
  -4   1   6 1151.62   14.75
   4   1  -6 1081.52   15.47
  -4   1   5  336.19    7.95
  -4   1   5  335.35    8.32
   4   1  -5  356.59    8.47
  -4   1   5  328.53    7.50
  -4   1   4  509.62    9.86
  -4   1   4  632.00   10.45
  -4   1   4  628.84   10.96
  -4   1   4  549.63    8.42
  -4   1   4  565.04   10.43
   4   1  -4  669.51   11.47
  -4   1   3  322.23    7.61
  -4   1   3  281.52    5.60
  -4   1   3  364.99    7.92
  -4   1   3  321.65    7.15
  -4   1   3  330.52    7.22
  -4   1   3  309.25    7.35
  -4   1   3  310.36    7.57
   4   1  -3  346.86    7.98
  -4   1   3  341.50    7.18
  -4   1   2  134.13    4.76
  -4   1   2  124.12    4.45
  -4   1   2  143.11    4.59
  -4   1   2  145.34    4.53
  -4   1   2  143.85    4.68
  -4   1   2  143.07    4.51
  -4   1   2  136.08    4.97
   4   1  -2  146.52    5.16
  -4   1   2  133.29    5.01
  -4   1   1  859.39   12.77
  -4   1   1  879.22   11.54
  -4   1   1  908.51   12.09
  -4   1   1  848.30   11.03
  -4   1   1  845.44   12.30
   4   1  -1  901.60   12.90
  -4   1   1  910.61   12.46
  -4   1   0  493.14    9.57
  -4   1   0  509.87    9.40
  -4   1   0  502.08    8.51
  -4   1   0  520.21    8.74
  -4   1   0  519.53    9.11
  -4   1   0  462.43    7.86
  -4   1   0  518.22    9.34
  -4   1   0  481.17    9.28
   4   1   0  498.89    6.73
  -4   1  -1  687.41   11.36
  -4   1  -1  735.39   10.38
  -4   1  -1  746.82   11.55
  -4   1  -1  722.22   11.14
  -4   1  -1  765.23   10.87
  -4   1  -1  734.63   11.40
   4   1   1  744.52    8.92
  -4   1  -1  695.27   11.55
  -4   1  -2  994.89   14.38
  -4   1  -2  986.36   13.65
  -4   1  -2  953.10   13.00
  -4   1  -2 1046.82   11.59
  -4   1  -2 1004.25   12.50
  -4   1  -2 1045.99   14.21
  -4   1  -2 1010.69   13.08
  -4   1  -2 1025.18   13.72
  -4   1  -2  959.86   14.14
   4   1   2 1035.21   11.31
  -4   1  -3   14.36    1.91
  -4   1  -3   16.26    2.05
  -4   1  -3   16.72    1.86
  -4   1  -3   17.80    1.62
  -4   1  -3   15.42    1.67
  -4   1  -3   19.24    2.01
  -4   1  -3   18.13    1.56
  -4   1  -3   21.70    1.96
  -4   1  -3   14.92    1.79
  -4   1  -3   14.17    1.45
  -4   1  -3   15.53    1.80
  -4   1  -3   18.02    1.90
   4   1   3   16.76    1.49
  -4   1  -4   39.84    3.11
  -4   1  -4   44.26    3.07
  -4   1  -4   43.89    2.59
  -4   1  -4   49.23    2.87
  -4   1  -4   46.17    2.56
  -4   1  -4   47.87    3.25
  -4   1  -4   42.85    2.80
  -4   1  -4   41.80    2.92
  -4   1  -4   41.56    2.47
  -4   1  -4   44.77    3.07
   4   1   4   43.95    2.53
  -4   1  -5   79.70    4.50
  -4   1  -5   80.55    4.27
  -4   1  -5   80.27    3.65
  -4   1  -5   90.65    4.00
  -4   1  -5   85.92    4.42
  -4   1  -5   77.68    3.45
  -4   1  -5   83.72    4.00
  -4   1  -5   79.67    3.53
  -4   1  -5   76.25    4.18
   4   1   5   85.30    3.29
   4   1   5   80.93    3.60
  -4   1  -6  133.36    5.71
  -4   1  -6  133.81    4.90
  -4   1  -6  136.38    5.04
  -4   1  -6  131.36    5.62
  -4   1  -6  135.25    5.26
  -4   1  -6  131.08    5.95
  -4   1  -6  141.26    4.84
   4   1   6  140.60    5.00
  -4   1  -6  130.63    5.67
  -4   1  -7   31.92    3.00
  -4   1  -7   30.39    2.45
  -4   1  -7   29.58    2.84
  -4   1  -7   30.30    2.31
  -4   1  -7   29.78    2.56
  -4   1  -7   30.69    2.86
  -4   1  -7   30.12    3.07
   4   1   7   30.49    2.44
  -4   1  -7   27.59    2.22
  -4   1  -8  194.60    7.37
  -4   1  -8  180.36    7.00
  -4   1  -8  184.98    6.16
  -4   1  -8  183.67    7.14
  -4   1  -8  163.62    5.43
  -4   1  -8  188.91    6.31
  -4   1  -8  188.79    7.45
  -4   1  -8  184.95    5.82
   4   1   8  178.52    6.08
   4   1   9   23.01    2.26
  -4   1  -9   20.65    2.49
  -4   1  -9   21.81    2.58
  -4   1  -9   19.47    1.95
  -4   1  -9   23.06    2.25
  -4   1  -9   22.90    2.26
  -4   1  -9   24.28    2.62
  -4   1  -9   24.19    2.73
   4   1   9   22.22    2.70
  -4   1  -9   23.26    2.20
  -4   1 -10   94.11    4.28
  -4   1 -10   89.24    4.11
  -4   1 -10   99.44    4.16
  -4   1 -10   94.14    4.98
  -4   1 -10  100.00    5.28
  -4   1 -10   98.21    5.15
  -4   1 -10   93.57    4.23
  -4   1 -11  222.14    7.35
  -4   1 -11  211.76    7.36
  -4   1 -11  207.25    6.02
  -4   1 -11  211.31    5.83
  -4   1 -11  213.34    7.34
  -4   1 -12   69.89    3.82
  -4   1 -12   70.59    3.95
  -4   1 -12   74.13    2.99
  -4   1 -12   68.49    3.88
  -4   1 -13   18.61    1.82
  -4   1 -13   16.28    1.75
   4   1  13   14.95    1.38
  -4   1 -13   16.36    1.77
  -4   1 -14   10.03    1.20
  -4   1 -14    9.44    1.16
   4   1  14    6.88    0.82
  -4   1 -14    9.72    1.20
  -4   1 -15   38.71    1.65
  -4   2  16    9.79    0.94
  -4   2  15   10.77    1.14
  -4   2  15   13.45    1.39
  -4   2  14    2.17    0.90
   4   2 -14    2.49    0.84
  -4   2  13  167.07    5.04
   4   2 -13  173.12    5.68
  -4   2  12  398.37    9.90
   4   2 -12  407.32    9.44
  -4   2  11  359.65    8.50
  -4   2  11  290.13    9.11
  -4   2  10   95.28    4.59
  -4   2  10  107.81    5.44
   4   2 -10  112.93    5.49
  -4   2  10  107.41    4.68
  -4   2   9  569.79   10.85
  -4   2   9  509.62   12.24
  -4   2   9  479.14   10.02
  -4   2   9  512.16   11.70
  -4   2   9  529.77   10.70
   4   2  -9  529.25   11.49
  -4   2   8   96.89    4.42
  -4   2   8   81.21    4.61
   4   2  -8   90.11   10.35
  -4   2   8   74.65    3.76
  -4   2   8   88.44    4.76
  -4   2   8   67.34    3.67
   4   2  -8   92.01    4.70
  -4   2   7   96.51    4.33
  -4   2   7  106.59    5.08
   4   2  -7   74.55   11.46
  -4   2   7   85.78    3.79
  -4   2   7   89.99    4.01
  -4   2   7   99.61    4.90
   4   2  -7  102.56    4.87
  -4   2   6   28.70    2.38
   4   2  -6   29.70    2.65
  -4   2   6   27.44    2.52
  -4   2   6   28.32    2.60
  -4   2   6   23.20    1.89
  -4   2   5  418.11    7.28
  -4   2   5  453.12    9.67
   4   2  -4  118.41    4.90
  -4   2   4  108.15    4.75
  -4   2   4  113.96    4.75
  -4   2   4  118.80    4.32
  -4   2   4  110.23    4.55
  -4   2   3  266.56    6.94
   4   2  -3  316.52    7.89
  -4   2   3  292.27    6.61
  -4   2   3  302.20    6.73
  -4   2   3  267.64    7.26
  -4   2   3  271.94    7.19
  -4   2   3  288.35    6.59
  -4   2   3  292.52    7.14
  -4   2   2  700.18   11.31
   4   2  -2  773.35   12.27
  -4   2   2  786.57   10.99
  -4   2   2  732.86   10.64
  -4   2   2  739.07   10.27
  -4   2   2  713.33   11.54
  -4   2   2  717.96   11.77
  -4   2   2  737.66   10.39
  -4   2   2  779.07   11.71
  -4   2   1  355.45    7.82
  -4   2   1  398.23    8.10
   4   2  -1  384.46    8.55
   4   2  -1  324.54    5.61
  -4   2   1  408.07    7.85
  -4   2   1  398.57    7.78
  -4   2   1  356.44    8.15
  -4   2   1  375.61    7.83
  -4   2   1  366.58    6.95
  -4   2   0  149.60    5.11
  -4   2   0  149.55    4.77
  -4   2   0  148.21    4.92
  -4   2   0  149.41    4.80
  -4   2   0  160.38    5.02
  -4   2   0  139.87    5.13
  -4   2   0  144.04    4.22
   4   2   0  166.97    4.22
  -4   2  -1   41.55    2.83
   4   2   1   45.43    2.31
  -4   2  -1   47.02    2.44
  -4   2  -1   49.77    2.95
  -4   2  -1   40.58    2.57
  -4   2  -1   40.97    2.84
  -4   2  -1   46.46    2.80
  -4   2  -1   38.30    2.17
   4   2   2  805.55   10.57
  -4   2  -2  821.24   10.77
  -4   2  -2  776.81   12.00
  -4   2  -2  815.14   11.80
  -4   2  -2  789.37   11.95
  -4   2  -2  734.80   12.35
  -4   2  -2  753.28   11.66
  -4   2  -2  772.68   12.84
  -4   2  -3  462.65   10.09
  -4   2  -3  488.54    9.20
  -4   2  -3  503.32    8.62
  -4   2  -3  485.38    9.76
  -4   2  -3  466.55    9.46
  -4   2  -3  450.40    9.93
  -4   2  -3  460.32    9.33
  -4   2  -3  484.52    9.58
   4   2   3  479.38    8.55
   4   2   3  446.00    9.13
  -4   2  -4  193.57    6.35
  -4   2  -4  205.02    6.13
  -4   2  -4  212.56    5.73
  -4   2  -4  228.39    6.97
  -4   2  -4  214.19    6.61
  -4   2  -4  207.06    6.95
  -4   2  -4  205.97    6.46
  -4   2  -4  200.62    6.37
   4   2   4  217.74    6.04
   4   2   4  229.75    5.75
   4   2   5  437.27    7.47
  -4   2  -5  418.53    9.62
  -4   2  -5  424.41    9.65
  -4   2  -5  395.43    9.49
  -4   2  -5  446.33    9.20
  -4   2  -5  437.15    8.47
  -4   2  -5  422.54    9.61
  -4   2  -5  411.00   10.12
   4   2   5  398.71    8.59
  -4   2  -5  408.33    8.00
   4   2   6  133.06    5.71
  -4   2  -6  125.25    5.47
  -4   2  -6  132.19    5.56
  -4   2  -6  130.42    5.18
  -4   2  -6  135.85    5.79
  -4   2  -6  127.08    5.39
   4   2   6  125.37    5.02
  -4   2  -6  124.29    5.69
  -4   2  -6  122.64    4.60
  -4   2  -6  119.18    5.31
  -4   2  -7    2.90    1.15
   4   2   7    4.45    1.16
  -4   2  -7    3.94    1.03
  -4   2  -7    4.46    1.32
  -4   2  -7    3.57    1.17
  -4   2  -7    4.52    1.42
   4   2   7    3.15    1.19
  -4   2  -7    3.40    1.03
  -4   2  -7    8.38    1.61
   4   2   7    9.97    1.40
  -4   2  -7    3.33    1.13
   4   2   8   57.54    3.61
  -4   2  -8   62.35    4.06
  -4   2  -8   71.35    3.61
  -4   2  -8   57.13    3.71
  -4   2  -8   57.62    3.41
  -4   2  -8   57.21    3.92
  -4   2  -8   65.12    4.16
   4   2   8   58.34    4.08
  -4   2  -8   58.60    3.92
   4   2   9   14.05    1.89
  -4   2  -9   13.79    2.06
  -4   2  -9   15.88    1.75
  -4   2  -9   16.04    2.03
  -4   2  -9   15.44    1.85
  -4   2  -9   18.30    2.35
  -4   2  -9   16.22    2.15
  -4   2  -9   14.33    2.05
   4   2   9   13.46    2.07
   4   2   9   15.73    2.22
  -4   2 -10   72.66    3.91
  -4   2 -10   76.71    4.37
  -4   2 -10   68.91    3.71
  -4   2 -10   76.64    4.42
  -4   2 -10   61.02    4.04
   4   2  10   63.54    3.40
  -4   2 -10   74.55    3.56
  -4   2 -11  212.59    6.14
  -4   2 -11  209.60    6.83
  -4   2 -11  187.08    5.81
  -4   2 -11  204.18    6.84
  -4   2 -11  166.75    6.18
   4   2  11  180.01    5.46
  -4   2 -11  219.06    5.72
  -4   2 -12   28.92    2.37
  -4   2 -12   29.46    2.06
  -4   2 -12   30.48    2.48
  -4   2 -12   28.18    2.32
   4   2  12   26.03    1.95
  -4   2 -13    2.94    0.83
   4   2  13    3.92    0.78
  -4   2 -13    3.90    0.88
  -4   2 -13    4.18    0.73
   4   2  14    1.71    0.46
  -4   3  15   61.03    2.31
  -4   3  15   55.20    2.00
  -4   3  14   24.28    1.86
  -4   3  14   20.53    1.59
  -4   3  13  122.68    4.12
  -4   3  13  127.81    4.79
  -4   3  13  121.84    4.51
  -4   3  12   44.30    2.77
  -4   3  12   47.57    3.21
  -4   3  11  433.37    9.10
   4   3 -11  408.45    8.68
  -4   3  10  276.01    8.46
  -4   3  10  256.79    7.18
  -4   3   9  199.27    7.04
   4   3  -9  208.10    7.06
  -4   3   9  200.45    6.46
  -4   3   8  125.76    5.50
  -4   3   8  135.30    5.93
  -4   3   8  136.12    5.26
  -4   3   7   84.09    4.13
   4   3  -7   79.62    4.29
  -4   3   7   80.53    4.32
  -4   3   7   70.11    4.17
   4   3  -7   68.58    4.43
  -4   3   6  156.65    5.76
   4   3  -6  164.63    6.02
  -4   3   6  161.96    5.93
   4   3  -6  163.80    7.23
  -4   3   6  169.59    6.28
   4   3  -5  409.08   11.19
  -4   3   5  549.57   11.07
  -4   3   5  515.67   10.27
  -4   3   5  552.18   10.78
  -4   3   5  626.32   11.45
  -4   3   5  593.44   10.35
   4   3  -5  671.18   12.29
  -4   3   4  680.76   11.53
  -4   3   4  637.65   11.54
  -4   3   4  657.38   11.31
  -4   3   4  671.38   11.64
  -4   3   4  725.04   11.05
   4   3  -4  714.82   12.32
   4   3  -3  356.30   11.78
  -4   3   3  485.48    9.29
  -4   3   3  419.00    9.07
  -4   3   3  438.30    8.19
  -4   3   3  374.37    8.29
  -4   3   3  428.66    9.08
  -4   3   3  427.44    8.18
   4   3  -3  429.22    9.35
  -4   3   2   56.19    3.02
  -4   3   2   50.39    3.02
  -4   3   2   52.52    2.91
  -4   3   2   51.06    2.66
  -4   3   2   65.27    3.53
  -4   3   2   55.86    2.79
  -4   3   2   56.90    2.96
  -4   3   2   49.41    3.05
   4   3  -2   55.55    3.32
  -4   3   2   55.76    2.87
   4   3  -1   75.03    5.11
  -4   3   1   66.24    3.26
  -4   3   1   59.73    3.26
  -4   3   1   69.40    3.21
  -4   3   1   61.32    2.87
  -4   3   1   67.08    3.52
  -4   3   1   62.72    2.82
  -4   3   1   55.22    2.80
  -4   3   1   59.41    3.06
  -4   3   1   62.15    3.37
   4   3  -1   62.53    3.54
   4   3  -1   62.75    2.73
  -4   3   1   61.61    2.88
   4   3   0  187.28    6.62
  -4   3   0  177.67    5.27
  -4   3   0  170.58    5.58
  -4   3   0  177.97    4.94
  -4   3   0  181.70    4.83
  -4   3   0  194.14    5.95
  -4   3   0  180.51    5.00
  -4   3   0  167.00    4.94
  -4   3   0  179.99    5.47
  -4   3   0  157.10    5.33
   4   3   0  172.90    5.83
   4   3   0  173.49    4.75
  -4   3   0  163.46    4.47
  -4   3  -1    9.66    1.58
  -4   3  -1   11.30    1.24
  -4   3  -1   11.90    1.30
  -4   3  -1   12.71    1.61
  -4   3  -1   13.05    1.47
  -4   3  -1   13.30    1.51
  -4   3  -1   18.51    1.88
  -4   3  -1   11.00    1.63
  -4   3  -1   12.52    1.48
   4   3   1   17.81    2.30
   4   3   1   12.92    1.71
   4   3   1   17.56    1.66
   4   3   2  872.03   12.02
  -4   3  -2  852.64   12.89
  -4   3  -2  894.97   12.09
  -4   3  -2  822.13   12.83
  -4   3  -2  861.47   12.37
  -4   3  -2  780.09   12.69
  -4   3  -2  813.92   11.90
  -4   3  -2  785.39   12.83
  -4   3  -3  190.30    6.12
  -4   3  -3  206.00    5.81
  -4   3  -3  184.24    5.71
  -4   3  -3  195.73    5.94
  -4   3  -3  203.87    6.47
  -4   3  -3  191.74    5.77
  -4   3  -3  196.84    6.43
   4   3   3  190.24    5.71
  -4   3  -4  103.70    4.12
  -4   3  -4  106.32    4.25
  -4   3  -4   95.64    4.26
  -4   3  -4   91.26    4.50
  -4   3  -4  114.80    4.89
  -4   3  -4   94.50    4.19
  -4   3  -4  106.18    4.55
   4   3   4  104.75    3.92
   4   3   4   95.64    4.22
  -4   3  -5  357.52    8.11
  -4   3  -5  380.05    8.83
  -4   3  -5  353.36    7.92
  -4   3  -5  376.22    8.78
  -4   3  -5  320.04    8.61
  -4   3  -5  350.24    8.34
  -4   3  -5  358.35    8.77
   4   3   5  328.60    7.48
   4   3   5  353.06    8.46
   4   3   5  367.71    9.22
   4   3   5  365.26    7.16
  -4   3  -6  484.22    9.80
  -4   3  -6  476.94   10.11
  -4   3  -6  522.47   10.78
  -4   3  -6  459.96   10.72
  -4   3  -6  454.53   10.41
  -4   3  -6  517.42   10.51
  -4   3  -6  478.09   10.45
   4   3   6  455.02    9.15
   4   3   6  451.84    9.83
   4   3   6  490.35   10.87
   4   3   7  248.67    7.97
   4   3   7  217.93    6.45
  -4   3  -7  229.58    7.12
  -4   3  -7  276.05    8.10
  -4   3  -7  252.73    6.72
  -4   3  -7  249.36    7.67
  -4   3  -7  245.19    7.86
  -4   3  -7  239.60    7.36
   4   3   7  248.03    7.39
  -4   3  -7  254.83    7.24
   4   3   8  613.41   12.52
  -4   3  -8  594.94   10.36
  -4   3  -8  604.21   12.28
   4   3   8  554.95   10.47
  -4   3  -8  577.99   11.39
  -4   3  -8  594.11   12.11
  -4   3  -8  566.69   11.40
   4   3   8  602.13   11.80
  -4   3  -8  590.42   11.25
  -4   3  -9  131.79    5.55
   4   3   9  121.64    4.80
  -4   3  -9  122.70    5.09
  -4   3  -9  122.33    5.41
  -4   3  -9  125.51    5.22
  -4   3  -9  125.42    5.10
  -4   3 -10    5.64    1.27
  -4   3 -10    5.88    1.23
  -4   3 -10    6.46    1.37
   4   3  10    5.00    1.09
  -4   3 -10    6.11    1.28
  -4   3 -10    5.52    1.27
  -4   3 -10    5.69    1.13
  -4   3 -11  232.80    6.37
  -4   3 -11  194.90    5.11
  -4   3 -11  234.58    6.66
   4   3  11  203.78    5.63
  -4   3 -12    5.20    0.96
  -4   3 -12    4.52    0.85
  -4   3 -12    4.95    1.06
   4   3  12    4.94    0.89
  -4   3 -13   36.24    1.80
  -4   3 -13   34.04    1.96
   4   3  13   31.30    1.69
  -4   4  14   44.03    1.80
  -4   4  14   38.28    1.68
  -4   4  13  105.49    3.46
  -4   4  13  107.90    3.59
  -4   4  12    3.20    0.89
  -4   4  12    4.31    0.96
  -4   4  12    4.20    1.01
  -4   4  11   56.41    3.10
  -4   4  11   58.10    3.34
  -4   4  11   48.31    3.06
  -4   4  10   10.67    1.61
  -4   4  10   10.24    1.62
  -4   4  10   11.34    1.69
  -4   4   9  144.50    5.37
  -4   4   9  139.51    5.70
  -4   4   9  147.10    5.79
  -4   4   8  200.48    6.98
  -4   4   8  196.84    6.82
   4   4  -7   97.88    4.57
  -4   4   7   99.27    4.83
   4   4  -6  867.02   13.70
   4   4  -6  881.93   12.05
  -4   4   5   44.30    2.88
  -4   4   5   40.89    3.05
   4   4  -5   37.47    2.82
   4   4  -5   42.26    2.73
  -4   4   5   36.05    2.86
  -4   4   4  104.85    4.30
  -4   4   4   95.58    4.27
  -4   4   4  103.66    4.64
   4   4  -4   97.24    4.48
   4   4  -4  112.48    4.52
  -4   4   4   92.68    4.44
  -4   4   3   51.39    2.92
  -4   4   3   52.63    3.31
  -4   4   3   52.85    3.22
  -4   4   3   46.12    2.87
   4   4  -3   59.72    3.36
   4   4  -3   49.59    3.15
  -4   4   2  193.52    5.40
  -4   4   2  188.11    5.32
  -4   4   2  188.09    6.11
  -4   4   2  180.68    4.99
  -4   4   2  172.38    5.64
  -4   4   2  183.41    5.62
   4   4  -2  182.20    6.00
  -4   4   1  393.44    7.96
  -4   4   1  379.22    7.64
  -4   4   1  400.03    8.33
  -4   4   1  407.85    8.38
  -4   4   1  385.60    7.38
   4   4  -1  397.45    7.77
   4   4  -1  397.58    8.75
  -4   4   0   69.09    3.33
  -4   4   0   63.02    3.20
  -4   4   0   69.45    3.42
  -4   4   0   74.92    3.79
  -4   4   0   74.53    3.49
   4   4   0   81.40    3.89
   4   4   0   67.41    3.57
   4   4   0   62.90    3.21
  -4   4  -1  236.21    6.03
  -4   4  -1  229.75    5.91
  -4   4  -1  232.00    6.51
  -4   4  -1  214.57    6.54
  -4   4  -1  237.20    6.36
  -4   4  -1  248.69    6.16
   4   4   1  259.74    6.81
   4   4   1  228.49    6.61
   4   4   1  263.03    6.74
  -4   4  -2  417.77    9.13
  -4   4  -2  419.33    7.95
  -4   4  -2  448.16    9.51
  -4   4  -2  456.39    9.12
  -4   4  -2  461.87    8.34
   4   4   2  485.18    9.17
   4   4   2  397.82    8.86
   4   4   2  436.88    8.98
  -4   4  -3  104.69    3.92
  -4   4  -3  101.24    4.63
  -4   4  -3  111.29    4.51
  -4   4  -3   99.93    3.93
  -4   4  -3  100.56    4.62
  -4   4  -3  105.02    3.88
   4   4   3   93.97    4.32
   4   4   3  101.06    4.43
   4   4   3  104.63    4.19
  -4   4  -4 1231.66   15.14
  -4   4  -4 1251.62   15.73
  -4   4  -4 1233.77   17.19
  -4   4  -4 1223.76   14.88
  -4   4  -4 1213.82   13.50
   4   4   4 1203.18   14.94
   4   4   4 1209.61   16.17
   4   4   4 1232.84   14.64
   4   4   4 1228.92   16.48
  -4   4  -5  348.74    7.95
  -4   4  -5  367.52    8.26
  -4   4  -5  346.69    9.17
  -4   4  -5  322.42    7.68
  -4   4  -5  367.10    8.87
   4   4   5  338.13    7.90
   4   4   5  339.94    8.71
   4   4   5  345.93    7.30
   4   4   5  351.89    8.66
  -4   4  -6   59.13    3.84
  -4   4  -6   69.07    3.64
   4   4   6   65.19    3.51
   4   4   6   59.20    3.69
  -4   4  -6   63.29    3.39
   4   4   6   65.96    3.94
  -4   4  -7  593.60   10.32
   4   4   7  559.04   10.47
  -4   4  -8   28.57    2.39
   4   4   8   25.13    2.24
  -4   4  -8   26.69    2.43
  -4   4  -8   26.48    2.15
  -4   4  -9   74.49    3.65
   4   4   9   63.96    3.34
  -4   4  -9   72.93    3.97
  -4   4  -9   68.19    3.62
  -4   4  -9   70.35    3.32
  -4   4 -10   94.70    4.21
  -4   4 -10  101.89    3.64
   4   4  11   57.88    2.71
  -4   4 -11   63.75    3.09
  -4   4 -11   62.89    2.62
   4   4  12    5.27    0.78
  -4   4 -12    5.24    0.73
  -4   4 -12    6.59    0.95
  -4   4 -13   13.50    0.95
  -4   5  13    1.37    0.46
  -4   5  13    1.57    0.41
  -4   5  13    1.47    0.50
   4   5 -13    1.36    0.55
  -4   5  12   67.72    2.68
  -4   5  12   58.08    2.09
  -4   5  12   58.10    2.45
  -4   5  12   68.31    2.82
  -4   5  11   30.30    2.06
  -4   5  11   27.33    1.78
  -4   5  11   27.01    2.02
  -4   5  10   72.27    3.39
  -4   5  10   58.81    2.92
  -4   5  10   61.82    3.30
  -4   5  10   72.04    3.49
  -4   5   9  130.23    4.68
  -4   5   9  118.94    4.83
  -4   5   8   66.14    3.52
  -4   5   8   76.35    4.01
  -4   5   8   76.87    4.02
  -4   5   7   19.55    2.05
  -4   5   7   20.98    2.09
  -4   5   7   18.53    2.12
  -4   5   7   18.99    2.09
  -4   5   6  168.28    5.64
  -4   5   6  161.80    5.88
  -4   5   5  116.91    4.85
  -4   5   5  145.66    5.19
   4   5  -5  124.24    4.39
  -4   5   5  137.18    5.35
  -4   5   4   14.10    1.78
  -4   5   4   16.59    1.80
   4   5  -4   16.33    1.74
  -4   5   4   15.39    1.90
  -4   5   4   17.79    1.95
  -4   5   3  217.36    6.49
  -4   5   3  217.66    5.95
   4   5  -3  217.02    6.14
  -4   5   3  211.73    6.54
  -4   5   2   23.49    2.21
  -4   5   2   25.94    2.04
  -4   5   2   33.55    2.63
  -4   5   2   27.55    2.39
  -4   5   2   24.95    1.98
   4   5  -2   25.80    2.21
  -4   5   1  110.08    3.94
  -4   5   1  107.30    4.64
  -4   5   1  126.16    4.61
  -4   5   1  124.34    4.85
  -4   5   1  108.91    4.56
  -4   5   1  122.80    4.04
   4   5  -1  128.40    4.86
  -4   5   0  258.92    7.07
  -4   5   0  259.44    6.86
  -4   5   0  266.27    6.98
  -4   5   0  251.25    6.75
  -4   5   0  239.73    6.10
  -4   5  -1   65.30    3.64
  -4   5  -1   72.60    3.56
  -4   5  -1   72.31    3.49
  -4   5  -1   76.66    3.78
   4   5   1   78.80    3.82
   4   5   1   63.74    3.53
  -4   5  -2  244.92    6.95
  -4   5  -2  311.03    7.23
  -4   5  -2  274.17    7.07
  -4   5  -2  278.99    7.26
  -4   5  -2  280.09    6.87
   4   5   2  233.16    6.57
   4   5   2  271.93    7.39
  -4   5  -3  189.80    6.25
  -4   5  -3  184.27    5.89
  -4   5  -3  182.16    5.98
  -4   5  -3  177.16    5.34
   4   5   3  180.00    5.70
   4   5   3  172.89    6.01
  -4   5  -4  195.45    6.34
  -4   5  -4  219.38    6.74
  -4   5  -4  212.26    5.70
   4   5   4  208.38    6.13
   4   5   4  207.54    6.62
   4   5   4  210.61    5.82
   4   5   5  118.68    4.64
  -4   5  -5  117.42    4.62
  -4   5  -5  111.53    4.89
   4   5   6   53.66    3.10
  -4   5  -6   62.50    3.70
   4   5   7   17.80    1.81
  -4   5  -7   19.34    1.81
  -4   5  -7   20.28    2.13
   4   5   8    4.64    0.99
  -4   5  -8    4.92    1.00
  -4   5  -8    6.75    1.32
   4   5   9  120.83    4.06
  -4   5  -9  119.02    4.50
   4   5  10   16.81    1.42
  -4   5 -10   20.57    1.45
   4   5  11   23.92    1.40
  -4   5 -11   22.43    1.29
  -4   5 -12   38.69    1.54
  -4   6  11   34.41    1.61
  -4   6  11   38.33    1.83
  -4   6  10   34.39    2.04
  -4   6  10   36.92    2.02
  -4   6   9   65.38    3.09
  -4   6   9   66.48    3.00
  -4   6   9   69.14    3.00
  -4   6   8   31.78    2.31
  -4   6   8   27.50    2.12
  -4   6   8   32.54    2.20
  -4   6   7    7.68    1.29
  -4   6   7    6.94    1.25
  -4   6   7    8.31    1.27
  -4   6   6   83.85    3.97
  -4   6   6   75.51    3.16
  -4   6   6   83.40    3.66
  -4   6   5   45.79    3.02
  -4   6   5   49.19    2.84
  -4   6   4   91.62    4.26
  -4   6   4   83.16    3.63
  -4   6   3   42.50    2.91
  -4   6   3   35.70    2.49
  -4   6   2  229.95    6.08
  -4   6   2  251.82    6.93
  -4   6   1    5.18    1.15
  -4   6   1    4.99    1.09
  -4   6   1    4.35    1.33
  -4   6   0   46.99    2.89
  -4   6   0   45.30    2.80
  -4   6  -1  152.05    5.09
  -4   6  -1  158.46    5.29
  -4   6  -2   69.65    3.54
  -4   6  -2   64.08    3.26
  -4   6  -2   66.30    3.42
  -4   6  -3   48.50    2.91
  -4   6  -4   23.86    1.91
  -4   6  -4   26.29    2.13
  -4   6  -5   29.89    2.17
  -4   6  -5   28.17    2.12
  -4   6  -6    5.90    1.06
  -4   6  -7    6.49    1.07
  -4   6  -7    7.40    1.07
  -4   6  -8   84.54    3.16
  -4   6  -8   86.62    2.97
  -4   6  -9   49.65    2.17
  -4   6  -9   53.63    2.06
  -4   6 -10   55.27    1.90
  -4   6 -10   56.87    1.75
  -4   7   7    8.72    1.07
  -4   7   6   74.88    3.11
  -4   7   5   27.14    1.97
  -4   7   4    1.85    0.72
  -4   7   3   14.06    1.51
  -4   7   2   90.70    3.66
  -4   7   1    3.53    0.91
  -4   7   0  144.51    4.53
  -4   7  -1    5.77    1.01
  -4   7  -2   42.89    2.40
  -4   7  -3   38.40    2.22
  -4   7  -4  107.01    3.51
  -4   7  -5  200.21    4.54
  -4   7  -7   38.98    1.65
  -4   8   5   48.55    1.75
  -4   8   4   12.86    1.01
  -5  -7   3  136.60    3.72
  -5  -7   2   33.93    1.87
  -5  -7   2   39.89    2.03
  -5  -7   1   76.16    2.74
  -5  -7   1   85.28    2.90
  -5  -7   0   67.92    2.52
  -5  -7   0   69.84    2.45
  -5  -7  -1   18.32    1.31
  -5  -7  -1   16.23    1.25
  -5  -7  -2  214.25    4.36
  -5  -7  -3  232.13    4.39
  -5  -7  -4   44.52    1.79
  -5  -6   7   52.03    2.51
  -5  -6   6    8.55    1.26
  -5  -6   5   15.33    1.70
  -5  -6   4   61.11    3.20
  -5  -6   4   67.26    2.80
  -5  -6   4   62.69    3.12
  -5  -6   3   76.12    3.15
  -5  -6   3   73.27    3.38
  -5  -6   2   21.38    2.16
  -5  -6   2   21.02    1.79
  -5  -6   2   21.84    1.88
  -5  -6   1  238.39    6.31
  -5  -6   1  247.30    6.11
  -5  -6   0   11.39    1.38
  -5  -6   0   13.30    1.64
  -5  -6  -1  332.15    7.23
  -5  -6  -1  331.16    7.13
  -5  -6  -2    7.44    1.24
  -5  -6  -3   28.82    2.05
  -5  -6  -4    7.16    1.10
  -5  -6  -5   31.12    1.81
  -5  -6  -6   24.53    1.42
  -5  -5  11  111.50    3.38
   5  -5 -11   92.02    2.44
  -5  -5  10  141.90    3.77
   5  -5 -10  154.55    3.63
  -5  -5   9   97.42    3.35
   5  -5  -9  122.60    3.50
   5  -5  -8    1.94    0.64
  -5  -5   8    1.72    0.67
  -5  -5   7   96.44    3.63
   5  -5  -7   99.70    3.41
  -5  -5   6    9.51    1.28
  -5  -5   6   13.32    1.45
  -5  -5   5  154.41    6.13
  -5  -5   5  128.07    4.94
  -5  -5   5  141.97    4.78
  -5  -5   5  115.35    4.01
  -5  -5   4   58.05    3.86
  -5  -5   4   64.07    3.33
  -5  -5   4   52.06    3.15
  -5  -5   3   69.93    4.28
  -5  -5   3   57.52    3.26
  -5  -5   3   63.74    3.44
  -5  -5   2  151.66    6.18
  -5  -5   2  131.22    4.90
  -5  -5   1    8.73    1.94
  -5  -5   1    8.92    1.39
  -5  -5   0  165.40    6.39
  -5  -5   0  182.98    5.44
  -5  -5  -1  213.88    7.18
  -5  -5  -1  227.92    5.89
  -5  -5  -2   77.74    3.92
  -5  -5  -2   81.32    4.39
  -5  -5  -2   85.74    3.48
  -5  -5  -3  259.28    7.25
  -5  -5  -3  263.00    7.05
  -5  -5  -3  265.85    7.67
  -5  -5  -4   51.04    3.09
  -5  -5  -4   54.48    3.27
  -5  -5  -4   47.35    2.84
  -5  -5  -5  218.18    5.92
  -5  -5  -5  217.62    6.33
  -5  -5  -6  122.86    4.17
  -5  -5  -6  111.93    4.35
  -5  -5  -6  124.64    4.25
  -5  -5  -7    7.73    1.12
  -5  -5  -7    6.39    1.11
  -5  -5  -7    7.38    1.08
  -5  -5  -8   36.72    1.87
  -5  -5  -8   31.36    1.82
  -5  -5  -9   67.79    2.53
  -5  -5  -9   54.80    2.03
   5  -4 -13   18.99    1.11
  -5  -4  12    7.74    0.94
   5  -4 -12    7.39    0.91
  -5  -4  11   67.22    2.83
   5  -4 -11   78.10    2.95
  -5  -4  10   65.32    3.00
  -5  -4   9  120.52    4.22
  -5  -4   8   62.32    3.12
  -5  -4   7  278.53    7.13
  -5  -4   7  339.04    7.40
  -5  -4   6   39.02    2.79
  -5  -4   6   43.15    2.62
  -5  -4   5  150.54    5.46
  -5  -4   5  165.21    5.81
  -5  -4   5  163.13    5.02
  -5  -4   4   30.97    2.53
  -5  -4   4   28.31    2.07
  -5  -4   4   34.36    2.67
  -5  -4   3   81.33    3.93
  -5  -4   3   77.53    3.99
  -5  -4   3   83.78    3.39
  -5  -4   3   78.83    4.88
  -5  -4   2   91.76    5.26
  -5  -4   2   68.99    3.56
  -5  -4   1  203.72    7.66
  -5  -4   1  227.56    6.26
  -5  -4   0  131.04    6.12
  -5  -4   0  137.61    4.72
  -5  -4  -1  229.19    7.08
  -5  -4  -1  226.54    8.01
  -5  -4  -2   50.60    3.37
  -5  -4  -2   49.46    2.67
  -5  -4  -2   44.46    3.25
  -5  -4  -2   54.05    3.95
  -5  -4  -3   92.21    4.52
  -5  -4  -3  102.52    4.06
  -5  -4  -3   96.88    4.74
  -5  -4  -3  106.44    4.78
  -5  -4  -3  106.05    5.44
  -5  -4  -4   13.15    1.82
  -5  -4  -4   11.31    1.41
  -5  -4  -4   11.85    1.79
  -5  -4  -4   13.33    1.87
  -5  -4  -4   11.44    2.06
  -5  -4  -5  556.00   10.69
  -5  -4  -5  602.25   11.45
  -5  -4  -6   60.02    3.39
  -5  -4  -6   57.57    3.49
  -5  -4  -7   43.04    2.77
  -5  -4  -7   43.42    2.85
  -5  -4  -7   40.85    2.81
  -5  -4  -8   81.08    3.46
  -5  -4  -8   84.00    3.67
  -5  -4  -8   82.76    3.76
  -5  -4  -9   54.53    2.68
  -5  -4  -9   49.14    2.67
  -5  -4 -10   50.78    2.23
  -5  -4 -10   58.89    2.56
  -5  -4 -11   61.27    2.16
  -5  -3  13  161.69    4.04
   5  -3 -13  159.83    3.83
   5  -3 -12    8.19    1.07
  -5  -3  12    7.50    1.11
  -5  -3  12    7.14    1.08
   5  -3 -11   10.22    1.37
  -5  -3  11   11.87    1.49
  -5  -3  11   10.11    1.35
  -5  -3  10    8.19    1.53
  -5  -3  10    5.76    1.09
  -5  -3   9  103.18    4.75
  -5  -3   9   98.29    4.21
  -5  -3   9  103.35    4.15
  -5  -3   8  132.76    5.53
  -5  -3   8  124.07    4.58
  -5  -3   7    3.99    0.98
  -5  -3   7    3.39    1.12
  -5  -3   7    3.52    1.28
   5  -3  -7    3.81    0.96
  -5  -3   6  157.46    5.03
  -5  -3   6  153.66    6.05
   5  -3  -6  166.40    5.39
  -5  -3   5  124.25    4.32
  -5  -3   5  121.00    5.12
  -5  -3   4  171.76    5.75
  -5  -3   4  200.27    6.77
  -5  -3   4  186.33    6.46
  -5  -3   4  181.44    5.02
  -5  -3   4  195.09    6.44
   5  -3  -4  216.97    6.04
  -5  -3   3  161.79    6.02
  -5  -3   3  146.98    5.15
  -5  -3   3  146.94    5.58
  -5  -3   3  132.26    5.42
   5  -3  -3  162.04    5.04
  -5  -3   2   30.20    2.88
  -5  -3   2   34.96    2.47
  -5  -3   2   30.28    3.00
  -5  -3   2   22.29    2.26
  -5  -3   2   30.42    2.54
   5  -3  -2   32.98    2.24
  -5  -3   1  251.78    8.63
  -5  -3   1  239.08    7.44
  -5  -3   1  234.29    6.90
  -5  -3   1  238.40    7.47
  -5  -3   0  661.88   10.07
  -5  -3   0  652.06   12.22
  -5  -3   0  625.17   13.37
  -5  -3   0  610.66   12.10
  -5  -3   0  676.74   12.49
  -5  -3   0  715.23   12.23
  -5  -3  -1  936.50   13.47
  -5  -3  -1  869.39   14.30
  -5  -3  -1  841.64   15.71
  -5  -3  -1  959.83   15.05
  -5  -3  -1  848.28   14.30
  -5  -3  -1  956.00   14.95
  -5  -3  -1  946.36   14.15
  -5  -3  -2  626.22   10.88
  -5  -3  -2  585.70   11.82
  -5  -3  -2  639.77   13.68
  -5  -3  -2  571.70   11.75
  -5  -3  -3  222.81    6.40
  -5  -3  -3  213.61    7.10
  -5  -3  -3  227.47    8.13
  -5  -3  -3  241.99    7.57
  -5  -3  -3  241.85    7.08
  -5  -3  -4   60.24    3.33
  -5  -3  -4   54.92    3.64
  -5  -3  -4   56.16    4.16
  -5  -3  -4   55.75    3.67
  -5  -3  -4   53.60    3.37
  -5  -3  -5  371.08    9.30
  -5  -3  -5  349.50    8.70
  -5  -3  -5  378.89   10.49
  -5  -3  -5  358.87    9.32
  -5  -3  -5  365.38    9.10
  -5  -3  -5  391.53    9.06
  -5  -3  -6  446.23    8.69
  -5  -3  -6  422.78    9.43
  -5  -3  -6  435.27   10.21
  -5  -3  -6  427.72    9.82
  -5  -3  -6  432.78    9.73
  -5  -3  -7   90.70    4.24
  -5  -3  -7  101.31    4.52
  -5  -3  -7   87.80    4.11
  -5  -3  -7  104.97    4.89
  -5  -3  -8   78.77    3.77
  -5  -3  -8   84.90    3.88
  -5  -3  -8   78.57    3.73
  -5  -3  -8   80.25    4.11
  -5  -3  -9  121.05    4.32
  -5  -3  -9  115.71    4.64
  -5  -3  -9  114.33    4.12
  -5  -3 -10   81.06    3.54
  -5  -3 -10   81.57    3.18
  -5  -3 -11   16.03    1.50
  -5  -3 -12   27.14    1.50
   5  -2 -14    5.69    0.75
  -5  -2  14    4.91    0.89
   5  -2 -14    5.37    0.82
  -5  -2  13  138.08    4.55
   5  -2 -13  137.08    4.32
  -5  -2  13  131.22    4.04
   5  -2 -12   24.34    2.11
  -5  -2  12   19.63    2.08
   5  -2 -12   19.63    1.66
  -5  -2  12   18.98    1.74
  -5  -2  11   65.47    3.85
  -5  -2  11   59.26    3.13
  -5  -2  10   57.37    3.81
  -5  -2  10   54.22    3.09
  -5  -2   9  311.91    9.00
  -5  -2   9  296.26    8.05
  -5  -2   9  289.37    7.15
  -5  -2   8  111.02    5.36
  -5  -2   8  116.84    5.58
  -5  -2   8  116.07    5.18
  -5  -2   8  106.02    4.28
   5  -2  -8  109.50    4.35
  -5  -2   7    6.56    1.57
  -5  -2   7    6.31    1.65
  -5  -2   7    7.45    1.52
  -5  -2   7    5.55    1.10
   5  -2  -7    6.97    1.25
  -5  -2   6  106.59    5.25
  -5  -2   6  115.36    5.56
  -5  -2   6  106.72    4.90
  -5  -2   6   99.78    3.91
  -5  -2   5  263.17    8.24
   5  -2  -5  267.74    7.18
  -5  -2   5  267.96    7.68
  -5  -2   5  252.27    7.93
  -5  -2   4  495.10   11.19
  -5  -2   4  485.16   10.28
  -5  -2   3   69.08    4.03
  -5  -2   3   71.60    3.83
  -5  -2   3   69.43    4.16
  -5  -2   3   57.59    3.10
   5  -2  -3   81.82    4.00
  -5  -2   3   86.65    4.49
  -5  -2   2   31.86    2.90
  -5  -2   2   26.33    2.05
   5  -2  -2   31.99    2.56
  -5  -2   2   30.12    2.86
  -5  -2   2   35.59    2.85
  -5  -2   2   28.91    2.47
  -5  -2   1  186.26    6.44
   5  -2  -1  199.90    6.23
  -5  -2   1  177.90    6.40
  -5  -2   1  186.18    6.62
  -5  -2   0  124.82    5.22
   5  -2   0  126.18    5.06
  -5  -2   0  124.94    5.01
  -5  -2   0  108.14    5.16
  -5  -2   0  126.21    5.24
  -5  -2   0  118.88    5.35
  -5  -2  -1  246.19    7.34
  -5  -2  -1  226.13    6.80
   5  -2   1  248.14    7.24
  -5  -2  -1  243.84    7.70
  -5  -2  -1  244.97    7.35
  -5  -2  -1  229.06    7.65
  -5  -2  -2 1054.64   15.08
  -5  -2  -2  960.68   14.77
  -5  -2  -2  885.06   14.54
  -5  -2  -2  973.61   14.16
  -5  -2  -2  976.50   16.08
  -5  -2  -2  955.90   15.70
  -5  -2  -3    1.52    0.86
  -5  -2  -3    0.69    0.85
  -5  -2  -3    1.11    0.91
  -5  -2  -3    0.73    0.77
  -5  -2  -3    0.58    1.08
  -5  -2  -3    0.27    0.78
   5  -2   4  518.76    8.53
  -5  -2  -4  514.96   11.33
  -5  -2  -4  610.97   11.51
  -5  -2  -4  601.11   11.32
  -5  -2  -4  602.58   11.59
  -5  -2  -4  584.87   11.82
  -5  -2  -4  454.37   11.16
   5  -2   4  625.45   12.01
   5  -2   5  453.07    8.22
  -5  -2  -5  471.04   10.16
  -5  -2  -5  505.24   11.35
  -5  -2  -5  501.91   11.07
  -5  -2  -5  512.55   10.58
  -5  -2  -5  490.07   11.50
   5  -2   5  533.15   11.05
   5  -2   5  539.79   12.26
  -5  -2  -6  320.47    9.04
  -5  -2  -6  314.84    8.18
   5  -2   6  309.71    9.37
   5  -2   6  319.09    8.71
  -5  -2  -6  279.80    8.68
  -5  -2  -6  309.64    8.69
  -5  -2  -6  311.78    8.11
  -5  -2  -7   11.37    1.97
  -5  -2  -7    9.57    1.71
  -5  -2  -7   11.29    1.61
  -5  -2  -7   11.82    1.67
  -5  -2  -8    9.49    1.65
  -5  -2  -8    8.68    1.39
  -5  -2  -8    9.46    1.53
  -5  -2  -8    7.76    1.39
  -5  -2  -9  238.21    7.04
  -5  -2  -9  246.00    6.11
  -5  -2  -9  247.66    6.60
  -5  -2  -9  248.03    6.48
  -5  -2 -10   34.89    2.23
  -5  -2 -10   37.65    2.62
  -5  -2 -11   23.04    1.55
  -5  -2 -11   25.54    1.96
  -5  -2 -11   25.58    1.95
  -5  -2 -12   69.83    2.73
  -5  -2 -12   73.57    2.70
   5  -1 -15   64.99    2.29
   5  -1 -14  160.85    4.53
   5  -1 -14  168.95    3.93
  -5  -1  14  162.99    4.77
  -5  -1  13  271.49    6.11
   5  -1 -13  263.94    6.67
  -5  -1  13  262.58    6.98
  -5  -1  12  380.18    7.88
  -5  -1  12  397.26    9.45
  -5  -1  11   63.21    3.37
  -5  -1  11   55.97    3.18
  -5  -1  10   94.09    4.28
  -5  -1  10   86.94    3.98
  -5  -1   9   89.97    5.06
  -5  -1   9   89.47    4.03
  -5  -1   9   83.17    4.47
  -5  -1   9   94.24    4.34
  -5  -1   8  527.47   10.46
  -5  -1   8  514.99   11.97
  -5  -1   8  566.69   12.68
  -5  -1   8  485.73   11.03
  -5  -1   8  541.44    9.78
   5  -1  -8  564.94   11.33
  -5  -1   7  164.73    5.57
  -5  -1   7  153.42    6.45
  -5  -1   7  168.70    6.84
  -5  -1   7  157.74    6.18
  -5  -1   7  166.11    5.17
   5  -1  -7  167.05    6.07
  -5  -1   6   39.68    3.11
  -5  -1   6   39.60    3.28
  -5  -1   6   40.79    3.39
  -5  -1   6   44.29    2.84
   5  -1  -6   41.01    3.09
  -5  -1   5  150.29    5.77
  -5  -1   5  138.49    5.92
  -5  -1   5  133.81    4.70
   5  -1  -5  157.20    5.85
  -5  -1   5  148.97    6.24
  -5  -1   4  253.19    8.03
  -5  -1   4  253.35    7.39
  -5  -1   4  243.70    7.75
  -5  -1   4  268.98    8.11
  -5  -1   4  283.20    6.60
   5  -1  -4  266.66    7.66
   5  -1  -3  340.36    8.50
  -5  -1   3  340.13    7.01
  -5  -1   3  311.91    8.63
  -5  -1   3  312.47    8.57
  -5  -1   3  298.97    8.64
   5  -1  -2  114.96    4.97
  -5  -1   2  118.51    5.02
  -5  -1   2  107.27    5.03
  -5  -1   2  118.62    5.25
  -5  -1   2  128.76    5.67
  -5  -1   1   70.23    3.67
   5  -1  -1   83.65    4.33
  -5  -1   1   77.35    4.04
  -5  -1   1   76.02    4.26
  -5  -1   1   82.36    4.63
  -5  -1   1   76.73    4.14
  -5  -1   1   90.51    4.76
  -5  -1   0  422.40    8.98
   5  -1   0  424.25    9.64
  -5  -1   0  422.91    9.46
  -5  -1   0  379.07    9.51
  -5  -1   0  426.39    9.31
  -5  -1   0  407.52    9.98
  -5  -1   0  450.77   10.09
  -5  -1   0  391.51    9.75
  -5  -1  -1   83.33    4.56
  -5  -1  -1   81.78    4.18
  -5  -1  -1   95.60    4.43
  -5  -1  -1   82.22    4.57
  -5  -1  -1   91.26    4.80
  -5  -1  -1   83.65    3.84
  -5  -1  -1  101.10    4.80
  -5  -1  -1   92.96    4.16
  -5  -1  -2   47.85    2.97
  -5  -1  -2   46.68    3.40
  -5  -1  -2   48.00    3.25
  -5  -1  -2   45.13    3.54
  -5  -1  -2   45.83    3.13
  -5  -1  -2   46.05    3.54
  -5  -1  -2   47.05    2.96
  -5  -1  -2   42.09    3.17
  -5  -1  -2   43.77    3.43
  -5  -1  -3   14.92    2.19
  -5  -1  -3   10.64    1.70
  -5  -1  -3   12.23    1.85
  -5  -1  -3   11.07    1.49
  -5  -1  -3   14.26    1.88
   5  -1   3    9.71    1.15
  -5  -1  -3   13.62    2.14
  -5  -1  -3   11.12    1.64
  -5  -1  -3   11.20    1.61
  -5  -1  -3   12.12    1.82
  -5  -1  -3   12.97    2.17
  -5  -1  -4  169.76    6.16
   5  -1   4  156.16    4.62
  -5  -1  -4  184.46    6.90
  -5  -1  -4  175.80    6.36
  -5  -1  -4  146.45    4.93
  -5  -1  -4  175.02    5.85
  -5  -1  -4  171.56    6.86
  -5  -1  -4  164.28    6.80
  -5  -1  -4  167.13    6.44
  -5  -1  -4  166.54    5.88
  -5  -1  -5  103.48    4.91
   5  -1   5  101.42    3.89
  -5  -1  -5  108.72    5.38
  -5  -1  -5   87.03    4.54
  -5  -1  -5  106.45    4.14
  -5  -1  -5  111.63    4.75
  -5  -1  -5  111.40    5.63
  -5  -1  -5  114.93    5.44
  -5  -1  -5  109.79    4.73
  -5  -1  -5  110.60    5.72
   5  -1   5  123.37    5.59
  -5  -1  -6   24.57    2.83
  -5  -1  -6   27.23    2.60
  -5  -1  -6   23.97    1.93
  -5  -1  -6   25.66    2.75
  -5  -1  -6   24.23    2.48
  -5  -1  -6   24.57    2.35
  -5  -1  -6   25.82    2.67
  -5  -1  -6   25.62    2.32
   5  -1   6   27.63    2.72
   5  -1   6   21.62    1.90
  -5  -1  -7  180.11    6.52
   5  -1   7  159.54    5.13
  -5  -1  -7  159.76    6.67
  -5  -1  -7  185.42    6.59
  -5  -1  -7  164.47    5.77
  -5  -1  -7  155.04    6.40
  -5  -1  -7  183.61    5.82
  -5  -1  -7  166.92    6.98
   5  -1   7  193.42    7.54
   5  -1   7  194.51    7.17
  -5  -1  -8  664.48   12.43
  -5  -1  -8  613.32   10.11
  -5  -1  -8  659.69   13.14
  -5  -1  -8  690.97   11.65
  -5  -1  -8  635.85   13.46
  -5  -1  -8  638.81   12.13
  -5  -1  -9  100.10    4.91
  -5  -1  -9   83.15    4.52
  -5  -1  -9   95.97    4.49
  -5  -1  -9   97.91    4.53
  -5  -1 -10   80.44    4.19
  -5  -1 -10   88.72    4.04
  -5  -1 -10   87.52    3.99
  -5  -1 -11  104.48    4.28
  -5  -1 -11  102.35    3.91
  -5  -1 -12   39.46    2.31
  -5  -1 -12   40.04    2.13
  -5  -1 -12   35.82    1.97
  -5  -1 -13  197.13    4.15
   5   0 -15   19.86    1.17
  -5   0  15   19.83    1.53
  -5   0  14   55.61    2.94
  -5   0  14   52.24    2.44
  -5   0  13   47.79    3.12
  -5   0  13   46.01    2.66
  -5   0  12  575.95   10.45
  -5   0  11  143.14    5.52
  -5   0  11  136.93    4.95
  -5   0  10    1.77    0.95
  -5   0  10    0.61    0.66
  -5   0   9   83.58    4.70
  -5   0   9   92.82    5.23
   5   0  -9   95.65    4.85
  -5   0   9   94.36    4.75
  -5   0   8  860.28   14.18
  -5   0   8  752.47   13.87
  -5   0   8  800.23   15.31
  -5   0   8  767.97   11.82
   5   0  -8  870.79   14.76
  -5   0   8  709.87   13.74
  -5   0   7  101.78    4.93
  -5   0   7  110.11    4.92
  -5   0   7  115.58    5.73
  -5   0   7  108.99    5.49
   5   0  -7  116.93    5.32
  -5   0   7  110.42    5.28
  -5   0   7  106.37    5.16
  -5   0   6  545.41   10.81
  -5   0   6  585.30   12.78
  -5   0   6  569.64   12.26
   5   0  -6  614.94   12.29
  -5   0   6  596.81   12.03
  -5   0   5   58.47    3.38
  -5   0   5   58.08    3.99
  -5   0   5   56.74    3.85
   5   0  -5   60.08    3.79
  -5   0   5   53.20    3.57
  -5   0   5   51.20    3.47
  -5   0   4  107.98    5.19
  -5   0   4  113.56    5.27
  -5   0   4  111.82    5.35
  -5   0   4  105.04    4.35
   5   0  -4  112.19    5.11
  -5   0   3  148.75    6.09
  -5   0   3  140.87    5.85
  -5   0   3  156.95    5.74
  -5   0   3  164.50    6.23
  -5   0   3  144.61    4.95
   5   0  -3  163.61    6.10
  -5   0   2   13.11    1.99
  -5   0   2    9.20    1.36
  -5   0   2   12.13    1.92
  -5   0   2   12.53    1.67
   5   0  -2   11.55    1.77
  -5   0   2   10.78    1.69
  -5   0   1   83.81    4.50
  -5   0   1   83.12    4.02
  -5   0   1   89.23    3.73
  -5   0   1   81.15    4.43
  -5   0   1   86.73    4.39
  -5   0   1   85.85    3.51
   5   0  -1   89.35    4.50
  -5   0   1   95.64    4.60
  -5   0   0   15.88    2.09
  -5   0   0    9.73    1.45
  -5   0   0   10.12    1.33
  -5   0   0   10.28    1.59
  -5   0   0   16.60    2.05
  -5   0   0    9.22    1.39
  -5   0   0    9.26    1.63
  -5   0   0    8.36    1.27
   5   0   0   16.10    1.99
  -5   0   0   11.14    1.67
  -5   0  -1   14.58    1.68
  -5   0  -1    9.99    1.44
  -5   0  -1   14.81    1.88
  -5   0  -1   14.38    1.69
  -5   0  -1   13.37    1.67
  -5   0  -1   13.82    2.05
  -5   0  -1   11.99    1.88
  -5   0  -1   11.38    1.46
  -5   0  -1   13.73    2.02
  -5   0  -1   14.27    1.91
  -5   0  -2   24.51    2.09
  -5   0  -2   24.28    2.05
  -5   0  -2   25.69    2.57
  -5   0  -2   29.92    2.08
  -5   0  -2   27.62    2.29
  -5   0  -2   24.80    2.40
  -5   0  -2   24.22    2.19
  -5   0  -2   27.16    2.82
  -5   0  -2   24.91    2.58
  -5   0  -2   23.96    2.07
  -5   0  -2   23.00    2.38
  -5   0  -2   23.40    2.61
  -5   0  -3  221.91    7.77
  -5   0  -3  239.41    6.13
  -5   0  -3  228.14    6.13
  -5   0  -3  245.94    7.82
  -5   0  -3  238.35    6.07
  -5   0  -3  235.10    7.32
  -5   0  -3  230.89    6.54
  -5   0  -3  222.82    7.89
  -5   0  -3  227.99    6.71
  -5   0  -3  231.31    7.55
  -5   0  -3  221.75    6.22
   5   0   3  212.01    5.29
  -5   0  -3  244.16    7.64
  -5   0  -4   14.84    2.32
  -5   0  -4   14.57    1.58
  -5   0  -4   13.93    2.01
  -5   0  -4   15.80    1.69
  -5   0  -4   13.57    1.71
  -5   0  -4   18.04    2.18
  -5   0  -4   13.93    1.78
  -5   0  -4   15.54    1.78
  -5   0  -4   11.95    1.99
   5   0   4   14.16    1.51
  -5   0  -4   13.37    1.94
  -5   0  -5   49.59    3.61
  -5   0  -5   53.60    3.21
  -5   0  -5   52.86    3.08
  -5   0  -5   51.30    3.75
  -5   0  -5   51.41    3.60
  -5   0  -5   47.60    2.99
  -5   0  -5   56.48    3.47
   5   0   5   45.07    2.67
  -5   0  -5   53.65    4.08
  -5   0  -6    4.85    1.22
  -5   0  -6    2.89    1.48
   5   0   6    2.75    1.13
  -5   0  -6    2.77    0.92
  -5   0  -6    3.31    1.21
  -5   0  -6    3.98    1.17
   5   0   6    2.69    0.85
  -5   0  -6    3.47    1.24
  -5   0  -6    2.94    1.30
  -5   0  -7  243.15    7.30
  -5   0  -7  227.10    7.99
   5   0   7  248.27    8.15
  -5   0  -7  256.12    8.69
  -5   0  -7  234.36    7.75
  -5   0  -7  238.31    6.42
  -5   0  -7  236.37    8.51
  -5   0  -7  243.15    6.79
   5   0   7  217.00    6.21
  -5   0  -7  242.61    8.16
  -5   0  -8   11.08    2.10
  -5   0  -8    9.85    1.75
  -5   0  -8   11.63    1.89
  -5   0  -8   12.16    1.71
  -5   0  -8    9.86    1.84
  -5   0  -8   11.28    1.43
  -5   0  -9   57.50    3.68
  -5   0  -9   61.51    3.95
  -5   0  -9   59.63    3.41
  -5   0  -9   56.32    3.86
  -5   0 -10   18.28    2.13
  -5   0 -10   17.18    1.76
  -5   0 -10   17.91    2.08
  -5   0 -10   16.40    1.93
  -5   0 -11   53.87    3.05
  -5   0 -11   55.40    3.24
  -5   0 -12  151.87    4.44
  -5   0 -12  157.21    4.76
  -5   0 -13   11.49    1.04
  -5   0 -13   10.81    1.10
  -5   1  15   62.97    2.17
  -5   1  15   49.63    1.96
  -5   1  14  161.19    4.75
  -5   1  14  168.04    4.49
  -5   1  13  265.90    7.04
  -5   1  13  283.22    6.77
   5   1 -13  288.00    7.06
  -5   1  12  360.71    8.52
   5   1 -12  406.61    9.26
  -5   1  11   64.37    3.80
  -5   1  10   92.05    4.52
  -5   1  10   99.78    4.90
   5   1  -9   98.67    5.07
  -5   1   9   81.75    4.44
  -5   1   9   87.44    5.06
  -5   1   9   92.01    4.80
   5   1  -8  578.96   12.32
  -5   1   8  584.10   12.09
  -5   1   8  520.51   12.10
  -5   1   8  505.74   11.57
  -5   1   7  161.30    6.69
  -5   1   7  173.87    6.98
  -5   1   7  178.62    6.51
   5   1  -7  180.39    6.83
  -5   1   7  174.49    6.48
  -5   1   6   41.67    3.37
  -5   1   6   44.09    3.58
  -5   1   6   41.79    3.20
   5   1  -6   44.91    3.45
  -5   1   6   43.20    3.17
  -5   1   5  141.92    6.04
  -5   1   5  150.99    6.31
   5   1  -5  152.76    6.17
  -5   1   5  146.84    5.64
  -5   1   4  267.16    8.10
  -5   1   4  246.28    7.82
  -5   1   4  254.59    7.71
  -5   1   4  262.59    7.28
  -5   1   4  261.63    8.21
  -5   1   4  246.92    7.36
   5   1  -4  274.72    8.23
  -5   1   3  334.76    8.82
  -5   1   3  323.69    8.02
  -5   1   3  303.42    8.53
  -5   1   3  372.37    9.11
  -5   1   3  328.35    7.97
  -5   1   3  317.36    8.10
  -5   1   3  321.31    9.01
  -5   1   3  325.97    8.26
   5   1  -3  354.71    9.19
  -5   1   2  120.68    5.27
  -5   1   2  107.77    4.64
  -5   1   2  108.00    5.02
  -5   1   2  114.76    4.59
  -5   1   2  120.45    4.96
  -5   1   2  113.52    5.35
  -5   1   2  108.46    4.62
   5   1  -2  118.87    5.31
  -5   1   1   78.36    4.45
  -5   1   1   72.33    3.84
  -5   1   1   76.26    3.70
  -5   1   1   78.73    3.85
  -5   1   1   75.65    3.97
  -5   1   1   78.19    4.31
  -5   1   1   80.11    4.09
   5   1  -1   81.32    4.45
  -5   1   1   72.34    3.99
  -5   1   0  395.29    9.72
  -5   1   0  416.30    8.93
  -5   1   0  396.99    8.34
  -5   1   0  411.12    9.23
  -5   1   0  413.45    8.95
  -5   1   0  382.76    9.53
  -5   1   0  394.35    8.87
   5   1   0  403.17    9.74
  -5   1   0  421.13    9.61
  -5   1  -1   83.13    4.59
  -5   1  -1   85.14    3.72
  -5   1  -1   81.79    3.87
  -5   1  -1   81.91    3.89
  -5   1  -1   96.42    3.55
  -5   1  -1   82.44    4.18
  -5   1  -1   85.66    4.07
  -5   1  -1   83.74    4.17
  -5   1  -1   90.17    4.51
  -5   1  -1   83.97    4.56
  -5   1  -2   46.75    2.79
  -5   1  -2   45.22    3.56
  -5   1  -2   44.12    2.78
  -5   1  -2   43.02    2.87
  -5   1  -2   48.48    3.41
  -5   1  -2   49.08    2.68
  -5   1  -2   45.09    3.18
  -5   1  -2   49.24    3.11
  -5   1  -2   39.73    3.00
  -5   1  -2   42.65    2.48
  -5   1  -2   47.73    3.33
  -5   1  -2   43.02    3.43
  -5   1  -3   10.79    1.93
  -5   1  -3    9.89    1.40
  -5   1  -3   11.26    1.98
  -5   1  -3   14.77    1.92
  -5   1  -3   10.63    1.72
  -5   1  -3   10.50    1.40
  -5   1  -3   13.75    1.92
  -5   1  -3   11.48    1.60
  -5   1  -3   10.30    1.38
  -5   1  -3   10.02    1.68
  -5   1  -3   12.10    1.80
   5   1   3    7.82    2.35
   5   1   3   11.36    1.38
  -5   1  -4  160.75    6.78
  -5   1  -4  166.75    5.42
  -5   1  -4  194.82    6.05
  -5   1  -4  172.57    6.63
  -5   1  -4  179.75    5.48
  -5   1  -4  169.58    5.86
  -5   1  -4  178.32    5.32
  -5   1  -4  170.59    6.50
   5   1   4  158.37    5.41
   5   1   4  163.83    5.16
  -5   1  -5  108.21    5.65
  -5   1  -5  107.19    4.42
  -5   1  -5  114.34    4.77
  -5   1  -5  112.71    5.48
  -5   1  -5  116.38    4.51
  -5   1  -5  109.93    4.77
  -5   1  -5  111.50    4.33
   5   1   5  103.11    4.24
  -5   1  -5  105.24    5.18
   5   1   6   26.94    2.80
  -5   1  -6   28.58    2.87
  -5   1  -6   26.32    2.28
  -5   1  -6   23.25    2.25
  -5   1  -6   27.81    2.30
  -5   1  -6   26.32    2.90
   5   1   6   23.31    2.16
  -5   1  -6   25.76    2.69
  -5   1  -7  193.63    5.94
  -5   1  -7  178.20    7.05
  -5   1  -7  178.43    5.94
  -5   1  -7  183.37    5.77
  -5   1  -7  174.83    7.22
   5   1   7  165.22    5.59
  -5   1  -7  175.84    6.82
  -5   1  -8  625.52   13.42
  -5   1  -8  638.02   10.64
  -5   1  -8  645.69   12.98
  -5   1  -8  634.91   10.91
  -5   1  -9   94.28    4.78
  -5   1  -9   93.80    4.71
  -5   1  -9   97.21    3.92
  -5   1 -10   87.51    4.33
  -5   1 -10   87.89    4.25
  -5   1 -10   85.23    3.29
  -5   1 -11  105.04    4.29
  -5   1 -11  109.86    4.36
  -5   1 -12   40.49    2.32
  -5   1 -12   39.94    2.30
  -5   1 -13  200.42    4.16
  -5   1 -13  195.47    4.14
  -5   2  14    6.72    0.88
  -5   2  13  125.38    4.18
  -5   2  13  130.28    4.46
  -5   2  12   22.22    2.19
  -5   2  12   16.53    1.72
   5   2 -12   21.33    1.95
  -5   2  11   59.73    3.74
  -5   2  11   56.25    3.29
  -5   2  10   61.47    4.03
  -5   2  10   52.29    3.39
  -5   2   9  323.43    9.33
  -5   2   9  300.12    8.24
  -5   2   8  111.57    5.44
  -5   2   8  102.37    4.89
  -5   2   8  116.99    5.67
  -5   2   7    4.40    1.40
  -5   2   7    5.79    1.38
  -5   2   7    6.14    1.66
  -5   2   6  107.17    5.30
  -5   2   6  121.17    5.73
   5   2  -6  101.41   14.90
  -5   2   5  286.14    8.19
  -5   2   5  272.51    8.44
  -5   2   5  253.17    8.03
   5   2  -5  280.90    8.45
  -5   2   5  260.63    7.55
  -5   2   4  542.82   10.95
  -5   2   4  517.66   11.24
  -5   2   4  523.42   11.53
  -5   2   4  554.94   10.17
   5   2  -4  555.51   11.98
  -5   2   4  527.97   10.67
  -5   2   3   79.70    4.23
  -5   2   3   73.24    4.13
  -5   2   3   69.31    4.06
  -5   2   3   64.16    3.28
  -5   2   3   76.19    4.01
  -5   2   3   72.76    4.26
  -5   2   3   70.97    3.77
   5   2  -3   82.05    4.51
  -5   2   2   34.12    2.76
  -5   2   2   29.83    2.81
  -5   2   2   28.90    2.10
  -5   2   2   28.46    2.57
  -5   2   2   30.38    2.55
  -5   2   2   25.93    2.29
  -5   2   2   33.65    3.06
  -5   2   2   27.71    2.41
   5   2  -2   28.22    2.74
  -5   2   1  183.13    6.29
  -5   2   1  180.03    6.46
  -5   2   1  169.73    6.01
  -5   2   1  192.35    6.13
  -5   2   1  203.66    6.28
  -5   2   1  191.68    6.11
  -5   2   1  190.20    6.69
  -5   2   1  168.94    5.50
   5   2  -1  188.45    6.74
  -5   2   0  108.88    5.17
  -5   2   0  113.23    4.72
  -5   2   0  115.39    4.71
  -5   2   0  119.51    3.79
  -5   2   0  116.58    4.80
  -5   2   0  108.07    5.06
  -5   2   0  114.94    4.94
   5   2   0  113.12    5.21
  -5   2  -1  241.03    7.83
  -5   2  -1  234.02    6.42
  -5   2  -1  240.10    6.87
  -5   2  -1  271.65    6.09
  -5   2  -1  238.86    6.98
  -5   2  -1  227.01    7.45
  -5   2  -1  246.57    7.25
   5   2   1  257.19    7.77
  -5   2  -2 1012.39   14.39
  -5   2  -2  996.43   14.85
  -5   2  -2 1000.23   14.75
  -5   2  -2  978.06   15.94
  -5   2  -2  959.87   14.91
  -5   2  -2  981.82   16.22
   5   2   2  989.36   16.88
  -5   2  -3    0.96    0.70
  -5   2  -3    3.04    1.43
  -5   2  -3    0.43    0.70
  -5   2  -3    0.88    0.79
  -5   2  -3    0.52    1.03
  -5   2  -3    0.88    0.84
  -5   2  -3    0.51    0.78
   5   2   3    1.82    0.71
  -5   2  -4  599.17   11.04
  -5   2  -4  557.85   11.66
  -5   2  -4  581.12   10.02
  -5   2  -4  570.89   11.56
  -5   2  -4  576.90   11.36
  -5   2  -4  537.49   12.19
  -5   2  -4  576.00   11.69
   5   2   4  627.07   10.03
   5   2   4  562.40   10.01
  -5   2  -5  519.42   10.33
  -5   2  -5  516.44   11.38
  -5   2  -5  506.77    9.46
  -5   2  -5  513.13   11.15
  -5   2  -5  508.47   10.68
  -5   2  -5  481.89   11.54
  -5   2  -5  504.00   11.04
   5   2   5  485.72    9.49
  -5   2  -6  290.54    8.56
  -5   2  -6  318.79    7.53
  -5   2  -6  292.42    8.47
  -5   2  -6  307.40    8.23
  -5   2  -6  307.31    9.19
  -5   2  -6  298.39    8.54
   5   2   6  307.39    9.00
   5   2   6  321.72    7.87
  -5   2  -7    9.79    1.92
  -5   2  -7   11.06    1.78
  -5   2  -7   11.10    1.55
  -5   2  -7   12.11    1.88
  -5   2  -7   10.91    1.63
  -5   2  -8    8.60    1.56
  -5   2  -8    9.58    1.70
  -5   2  -8    8.49    1.43
  -5   2  -9  246.91    7.17
  -5   2  -9  244.65    6.19
  -5   2  -9  245.13    7.28
  -5   2  -9  245.03    6.50
  -5   2 -10   39.11    2.67
  -5   2 -10   39.50    2.77
  -5   2 -10   39.24    2.36
  -5   2 -11   25.43    1.93
  -5   2 -11   25.81    2.03
  -5   2 -11   24.13    1.58
  -5   2 -12   67.28    2.75
  -5   2 -12   63.65    1.91
  -5   2 -13  216.02    3.84
  -5   3  14   16.05    1.13
  -5   3  14   17.68    1.11
  -5   3  13  157.76    4.27
  -5   3  13  153.89    4.10
  -5   3  12   10.83    1.41
  -5   3  12    7.62    1.19
  -5   3  12    8.91    1.24
  -5   3  11   11.62    1.57
  -5   3  11    8.96    1.41
  -5   3  10    5.20    1.29
  -5   3  10    7.13    1.36
  -5   3   9  103.89    4.85
  -5   3   9   98.49    4.80
  -5   3   9  105.93    4.77
  -5   3   9  104.40    4.80
  -5   3   8  133.66    5.66
  -5   3   8  137.14    5.79
  -5   3   8  136.22    5.38
  -5   3   8  131.69    5.48
  -5   3   7    3.56    1.10
  -5   3   7    2.73    1.22
  -5   3   7    3.62    1.26
   5   3  -6  153.21    6.72
  -5   3   6  160.94    6.24
  -5   3   6  141.64    5.94
  -5   3   6  140.88    5.84
   5   3  -6  155.93    6.16
  -5   3   6  151.42    5.75
   5   3  -5  122.13    6.33
  -5   3   5  144.08    5.86
  -5   3   5  130.14    5.65
  -5   3   5  128.15    5.44
   5   3  -5  137.14    5.85
  -5   3   5  146.20    5.53
  -5   3   5  128.84    4.53
  -5   3   5  153.07    5.69
   5   3  -4  214.30    8.94
  -5   3   4  209.02    6.89
  -5   3   4  192.31    6.72
  -5   3   4  183.61    6.48
   5   3  -4  206.45    7.08
  -5   3   4  198.75    6.24
  -5   3   4  183.36    5.20
  -5   3   4  197.25    6.31
   5   3  -3  159.19    7.89
  -5   3   3  147.33    5.72
  -5   3   3  131.87    5.46
  -5   3   3  150.20    5.86
  -5   3   3  132.22    4.84
   5   3  -3  157.07    6.23
  -5   3   3  141.81    5.23
  -5   3   2   28.72    2.45
  -5   3   2   27.15    2.77
  -5   3   2   28.89    2.20
  -5   3   2   27.50    2.48
  -5   3   2   32.14    3.00
  -5   3   2   30.58    2.45
   5   3  -2   28.05    2.76
   5   3  -1  268.15    8.83
  -5   3   1  243.09    6.97
  -5   3   1  234.73    7.37
  -5   3   1  234.24    5.83
  -5   3   1  239.13    7.10
  -5   3   1  228.25    6.31
  -5   3   1  244.69    6.87
  -5   3   1  250.82    7.56
   5   3  -1  266.25    7.94
  -5   3   1  236.51    6.38
  -5   3   0  666.61   12.64
  -5   3   0  583.16    9.66
  -5   3   0  706.71    9.83
  -5   3   0  660.93   11.56
  -5   3   0  672.92   11.12
  -5   3   0  652.57   12.29
  -5   3   0  689.51   11.87
   5   3   0  689.54   12.82
   5   3   0  780.91   13.72
   5   3   1  982.80   14.65
  -5   3  -1  907.75   13.72
  -5   3  -1  931.85   11.92
  -5   3  -1  868.16   13.01
  -5   3  -1  892.35   13.75
  -5   3  -1  844.50   14.17
   5   3   1  895.99   14.84
  -5   3  -1  847.32   14.45
  -5   3  -2  683.37   11.65
  -5   3  -2  669.03   11.98
   5   3   2  645.03   12.40
  -5   3  -2  675.01   11.75
  -5   3  -2  664.83   12.67
  -5   3  -3  242.75    6.34
  -5   3  -3  225.63    6.75
   5   3   3  207.32    6.97
   5   3   3  214.34    6.16
  -5   3  -3  228.21    6.79
   5   3   3  247.36    6.51
  -5   3  -3  232.72    7.47
  -5   3  -4   65.64    3.35
  -5   3  -4   55.44    3.41
   5   3   4   50.56    3.09
  -5   3  -4   59.93    3.53
   5   3   4   57.32    3.01
  -5   3  -4   52.50    3.61
  -5   3  -5  373.85    8.06
  -5   3  -5  378.17    9.08
  -5   3  -5  382.13    9.06
  -5   3  -5  380.70    9.28
   5   3   5  360.92    8.40
  -5   3  -5  388.84    8.96
  -5   3  -5  363.70    9.28
  -5   3  -6  400.65    9.03
  -5   3  -6  418.34    9.84
  -5   3  -6  418.78    8.46
  -5   3  -6  429.29    9.66
  -5   3  -6  447.29   10.03
  -5   3  -7   99.04    4.57
  -5   3  -7   98.31    4.57
  -5   3  -7  102.41    4.09
  -5   3  -7   86.38    4.10
  -5   3  -8   82.53    4.04
  -5   3  -8   84.18    4.05
  -5   3  -9  115.34    4.49
  -5   3  -9  113.37    4.32
  -5   3  -9  121.91    4.09
  -5   3 -10   78.13    3.38
  -5   3 -10   80.57    3.24
  -5   3 -10   78.72    3.01
  -5   3 -11   27.66    1.76
  -5   3 -11   27.27    1.63
  -5   4  13   21.24    1.20
  -5   4  12    6.50    0.92
  -5   4  12    6.36    0.96
  -5   4  12    7.70    0.96
  -5   4  11   63.67    2.94
  -5   4  11   66.98    3.05
  -5   4  10   53.64    2.99
  -5   4  10   63.49    3.21
  -5   4  10   57.78    2.85
  -5   4   9  113.56    4.64
  -5   4   9  115.15    4.26
  -5   4   8   70.44    3.81
  -5   4   8   66.89    3.38
  -5   4   7  314.69    8.32
  -5   4   7  334.31    8.17
  -5   4   7  322.53    8.25
  -5   4   7  317.08    7.46
  -5   4   6   42.44    3.11
  -5   4   6   42.77    2.96
  -5   4   6   43.79    3.05
  -5   4   6   40.64    2.67
  -5   4   5  162.88    6.06
  -5   4   5  168.72    5.75
  -5   4   5  175.44    5.96
  -5   4   5  182.19    5.56
  -5   4   4   34.20    2.61
  -5   4   4   35.56    2.45
   5   4  -4   41.64    2.91
  -5   4   4   31.89    2.69
   5   4  -4   32.34    2.78
  -5   4   4   35.02    2.62
  -5   4   3   69.48    3.57
  -5   4   3   72.66    3.40
   5   4  -3   72.16    4.02
  -5   4   3   70.97    3.57
  -5   4   2   82.17    3.47
  -5   4   2   92.43    3.97
  -5   4   2   85.17    4.29
   5   4  -2   85.86    4.39
  -5   4   2   81.17    3.73
  -5   4   1  263.39    6.87
  -5   4   1  229.88    6.99
   5   4  -1  268.76    7.37
   5   4  -1  231.24    7.22
  -5   4   1  223.59    5.51
  -5   4   1  234.74    6.12
  -5   4   0  137.46    5.03
  -5   4   0  147.65    5.61
  -5   4   0  133.74    4.31
   5   4   0  153.75    5.49
   5   4   0  131.21    5.38
  -5   4   0  138.48    4.46
  -5   4  -1  231.25    6.66
  -5   4  -1  234.94    5.96
   5   4   1  251.13    6.86
   5   4   1  247.52    7.30
  -5   4  -2   48.35    3.12
  -5   4  -2   51.55    2.89
   5   4   2   49.71    2.98
  -5   4  -2   55.12    3.46
  -5   4  -3  105.60    4.14
  -5   4  -3  101.16    4.52
  -5   4  -4   17.16    1.72
  -5   4  -4   12.80    1.76
  -5   4  -5  498.53    9.95
  -5   4  -5  510.02   10.37
  -5   4  -6   56.60    2.96
  -5   4  -7   48.82    2.65
  -5   4  -8   79.65    3.65
  -5   4  -9   52.32    2.41
  -5   4  -9   54.07    2.72
  -5   4 -10   52.96    2.15
  -5   4 -10   55.15    2.41
  -5   4 -11   61.74    2.07
  -5   5  11  100.49    3.07
  -5   5  11  121.94    3.20
  -5   5  10  110.90    3.25
  -5   5  10  128.52    3.81
  -5   5   9   90.72    3.34
  -5   5   9  106.36    3.60
  -5   5   8    1.17    0.67
  -5   5   8    1.06    0.76
  -5   5   8    1.08    0.62
  -5   5   8    0.97    0.70
  -5   5   7   92.94    3.89
  -5   5   7   98.17    4.04
  -5   5   7   92.81    4.00
  -5   5   7   92.00    3.76
  -5   5   6   12.13    1.55
  -5   5   6   10.84    1.49
  -5   5   6   13.26    1.53
  -5   5   5  145.73    5.12
  -5   5   5  142.14    4.92
  -5   5   5  155.20    5.09
  -5   5   5  147.75    5.18
  -5   5   4   52.05    3.12
  -5   5   4   49.80    2.88
  -5   5   4   55.66    2.99
  -5   5   4   55.21    3.16
  -5   5   3   62.40    3.31
  -5   5   3   60.89    3.08
  -5   5   3   55.58    3.28
  -5   5   2  152.24    5.01
  -5   5   2  141.26    4.54
  -5   5   1    8.07    1.22
  -5   5   1    6.25    1.43
  -5   5   0  140.89    5.14
  -5   5   0  144.18    4.64
  -5   5  -1  191.09    5.94
  -5   5  -1  195.74    5.53
  -5   5  -2   85.41    3.51
  -5   5  -2   79.38    3.59
  -5   5  -3  282.21    7.10
  -5   5  -3  293.54    6.54
  -5   5  -3  279.48    6.83
  -5   5  -4   50.04    2.68
  -5   5  -4   48.41    2.86
  -5   5  -5  239.84    5.69
  -5   5  -5  223.89    6.07
  -5   5  -6  111.42    3.74
  -5   5  -6  121.47    4.32
  -5   5  -7    6.57    0.97
  -5   5  -7    7.43    1.10
  -5   5  -8   31.85    1.94
  -5   5  -9   54.29    2.02
  -5   6   9  144.88    3.46
  -5   6   9  157.07    3.54
  -5   6   8   10.71    1.13
  -5   6   7   57.29    2.60
  -5   6   7   49.61    2.06
  -5   6   6    6.69    1.04
  -5   6   6    5.13    0.95
  -5   6   5   14.66    1.46
  -5   6   5   19.27    1.64
  -5   6   4   64.75    2.87
  -5   6   4   77.82    3.29
  -5   6   3   80.42    3.28
  -5   6   2   36.36    2.39
  -5   6   1  269.19    6.04
  -5   6   0   39.28    2.57
  -5   6  -1  344.17    6.78
  -5   6  -3   37.14    2.01
  -5   6  -4    8.26    1.00
  -5   6  -5   38.38    1.94
  -5   6  -6   25.76    1.48
  -5   6  -7   51.77    1.89
  -6  -6   3   24.92    1.40
  -6  -6   3   30.36    1.79
  -6  -6   2   38.58    1.86
  -6  -6   2   40.45    2.07
  -6  -6   1   19.56    1.42
  -6  -6   1   21.69    1.59
  -6  -6   0   32.30    1.80
  -6  -6   0   32.91    1.86
  -6  -6  -1   67.20    2.51
  -6  -6  -1   72.45    2.59
  -6  -6  -2  283.51    5.04
  -6  -6  -2  298.83    4.98
  -6  -6  -3   73.28    2.41
  -6  -5   8   47.58    2.33
  -6  -5   7   32.23    2.17
  -6  -5   6   22.24    1.47
  -6  -5   6   26.96    2.16
  -6  -5   5   43.06    2.27
  -6  -5   5   39.18    2.67
  -6  -5   4  156.19    4.55
  -6  -5   4  163.13    5.45
  -6  -5   3   59.48    2.94
  -6  -5   3   58.85    3.40
  -6  -5   2  124.92    4.31
  -6  -5   2  117.81    4.80
  -6  -5   1   47.37    2.71
  -6  -5   1   51.42    3.24
  -6  -5   0  121.24    4.28
  -6  -5   0  118.95    4.27
  -6  -5   0  112.92    4.58
  -6  -5  -1  198.29    5.42
  -6  -5  -1  199.68    5.91
  -6  -5  -2   56.16    3.10
  -6  -5  -2   55.98    2.85
  -6  -5  -3   93.81    3.48
  -6  -5  -4   13.32    1.28
  -6  -5  -4   13.01    1.33
  -6  -5  -5   21.23    1.46
  -6  -5  -5   22.76    1.54
  -6  -5  -6   92.47    2.64
  -6  -4  10   29.94    2.00
   6  -4 -10   33.67    1.55
  -6  -4   9   59.87    3.12
   6  -4  -9   60.84    2.31
  -6  -4   8   47.28    3.02
  -6  -4   7   51.30    3.33
  -6  -4   7   44.90    2.50
  -6  -4   6   62.19    3.79
  -6  -4   6   55.61    2.99
  -6  -4   5    5.02    1.49
  -6  -4   5    4.11    1.04
  -6  -4   4  204.72    7.09
  -6  -4   4  177.59    5.70
  -6  -4   3   29.55    2.94
  -6  -4   3   21.98    2.10
  -6  -4   2    6.75    1.86
  -6  -4   2    4.05    1.10
  -6  -4   1   75.46    4.47
  -6  -4   1   68.30    3.63
  -6  -4   0   80.20    4.50
  -6  -4   0   88.15    4.06
  -6  -4   0   90.16    4.15
  -6  -4  -1  138.61    5.79
  -6  -4  -2   71.93    4.13
  -6  -4  -2   77.34    3.70
  -6  -4  -3   34.06    2.86
  -6  -4  -3   33.74    2.38
  -6  -4  -4  136.39    4.60
  -6  -4  -4  136.91    4.51
  -6  -4  -5  290.61    6.40
  -6  -4  -5  299.87    6.22
  -6  -4  -6   68.50    2.92
  -6  -4  -6   66.95    3.02
  -6  -4  -7  346.02    5.95
  -6  -4  -7  325.38    6.15
   6  -3 -12    2.46    0.48
   6  -3 -10    1.95    0.62
  -6  -3   9   90.19    3.51
  -6  -3   8  136.86    4.73
  -6  -3   8  178.20    5.41
  -6  -3   7   79.28    3.80
  -6  -3   7   73.93    3.74
  -6  -3   6  165.28    5.67
  -6  -3   6  179.40    6.04
  -6  -3   5  107.14    4.68
  -6  -3   5  114.04    4.90
  -6  -3   4    6.89    1.87
  -6  -3   4    7.30    1.54
  -6  -3   4    6.60    1.36
  -6  -3   3  134.84    6.26
  -6  -3   3  143.38    5.62
  -6  -3   2  167.06    6.98
  -6  -3   2  169.23    6.15
  -6  -3   2  156.61    5.79
  -6  -3   1  148.69    5.77
  -6  -3   1  144.31    6.44
  -6  -3   0    9.96    1.74
  -6  -3   0    9.55    1.51
  -6  -3   0    8.72    1.97
  -6  -3   0   10.20    1.65
  -6  -3  -1  106.81    4.57
  -6  -3  -1  109.59    5.52
  -6  -3  -1  105.36    4.58
  -6  -3  -1  106.62    4.72
  -6  -3  -1  117.11    5.08
  -6  -3  -2   43.62    2.92
  -6  -3  -2   45.66    3.05
  -6  -3  -2   47.65    3.66
  -6  -3  -2   46.52    3.06
  -6  -3  -2   42.58    3.11
  -6  -3  -3    0.60    0.58
  -6  -3  -3    1.92    0.86
  -6  -3  -3    1.21    1.18
  -6  -3  -3    1.87    1.06
  -6  -3  -3    1.26    0.91
  -6  -3  -3    1.81    0.86
  -6  -3  -3    1.94    1.04
  -6  -3  -4   66.50    3.41
  -6  -3  -4   54.10    3.76
  -6  -3  -4   63.76    3.44
  -6  -3  -4   59.46    3.49
  -6  -3  -4   61.53    3.01
  -6  -3  -4   63.77    3.28
  -6  -3  -4   55.91    3.34
  -6  -3  -5  176.39    5.34
  -6  -3  -5  178.66    5.85
  -6  -3  -5  182.98    5.16
  -6  -3  -5  166.43    5.46
  -6  -3  -6   67.92    3.12
  -6  -3  -6   74.72    3.64
  -6  -3  -7    5.73    0.95
  -6  -3  -7    6.78    1.17
  -6  -3  -8    3.20    0.66
  -6  -3  -8    4.36    0.90
  -6  -3  -9    7.22    0.95
  -6  -2  12   13.52    1.26
   6  -2 -12   13.69    1.23
  -6  -2  11   51.47    2.73
   6  -2 -11   37.50    2.29
  -6  -2  10    3.92    1.12
  -6  -2   9  176.73    5.99
  -6  -2   8   35.54    2.91
  -6  -2   8   39.42    2.89
  -6  -2   7  105.84    5.11
  -6  -2   7  113.06    4.95
  -6  -2   6  130.02    5.67
  -6  -2   6  104.84    4.93
  -6  -2   5   13.39    2.14
  -6  -2   5   16.92    2.16
  -6  -2   4  248.78    8.35
  -6  -2   4  271.45    7.99
  -6  -2   3   26.52    3.13
  -6  -2   3   21.97    2.40
  -6  -2   3   22.75    2.82
  -6  -2   2  398.23   10.75
  -6  -2   2  367.57    9.89
  -6  -2   2  389.11    9.75
  -6  -2   1  364.45   10.19
  -6  -2   1  347.05    9.77
  -6  -2   1  341.79    8.72
  -6  -2   1  351.37    9.56
  -6  -2   0  110.87    5.16
  -6  -2   0  106.13    5.51
  -6  -2   0  110.00    4.66
  -6  -2   0  112.07    4.93
  -6  -2   0   98.87    5.35
  -6  -2   0  101.22    4.71
  -6  -2   0   95.22    5.08
  -6  -2  -1  174.84    6.41
  -6  -2  -1  172.08    6.96
  -6  -2  -1  174.96    5.88
  -6  -2  -1  173.89    6.10
  -6  -2  -1  164.32    6.60
  -6  -2  -2   70.01    4.03
  -6  -2  -2   72.40    4.54
  -6  -2  -2   70.49    3.76
  -6  -2  -2   72.32    3.93
  -6  -2  -2   75.56    3.95
  -6  -2  -2   62.81    4.11
  -6  -2  -3   82.45    4.31
  -6  -2  -3   78.51    3.94
  -6  -2  -3   88.06    4.28
  -6  -2  -3   84.24    4.03
  -6  -2  -3   78.14    4.54
  -6  -2  -4   24.93    2.40
  -6  -2  -4   20.31    2.08
  -6  -2  -4   22.91    2.19
  -6  -2  -4   22.46    2.06
  -6  -2  -4   21.08    2.46
  -6  -2  -5    9.21    1.42
  -6  -2  -5    8.80    1.49
  -6  -2  -5    8.31    1.70
  -6  -2  -5    9.68    1.56
  -6  -2  -6  129.73    4.69
  -6  -2  -6  154.20    5.07
  -6  -2  -6  133.62    5.15
  -6  -2  -6  135.01    5.42
  -6  -2  -6  153.60    5.50
  -6  -2  -7    2.59    0.96
  -6  -2  -7    1.75    0.86
  -6  -2  -7    1.95    0.75
  -6  -2  -7    1.85    0.78
  -6  -2  -8    7.03    1.15
  -6  -2  -8    6.68    1.00
  -6  -2  -8    7.46    1.19
  -6  -2  -9   38.68    2.19
  -6  -2  -9   34.56    3.80
  -6  -2  -9   35.71    2.08
  -6  -2 -10    7.75    0.93
  -6  -2 -10    8.19    0.88
  -6  -1  13    9.24    1.06
   6  -1 -13   10.57    1.02
  -6  -1  12   49.28    2.66
   6  -1 -12   50.05    2.55
  -6  -1  11   30.71    2.48
  -6  -1  10   15.97    2.03
  -6  -1   9   51.57    3.62
  -6  -1   8    8.22    1.84
  -6  -1   8    8.65    1.58
  -6  -1   7   69.62    4.41
  -6  -1   7   75.36    4.31
  -6  -1   6   32.31    3.21
  -6  -1   6   43.86    3.35
  -6  -1   5  209.33    7.65
  -6  -1   5  211.30    7.25
  -6  -1   4   68.37    4.36
   6  -1  -4   83.75    4.42
  -6  -1   4   73.12    4.56
  -6  -1   4   82.11    4.80
  -6  -1   3  145.12    6.38
  -6  -1   3  158.90    6.69
   6  -1  -3  147.25    5.99
  -6  -1   2  507.18   10.92
  -6  -1   2  489.02   11.30
  -6  -1   2  516.70   11.99
  -6  -1   2  500.68    9.35
   6  -1  -2  518.97   11.22
  -6  -1   2  507.77   11.97
  -6  -1   1  712.64   12.82
  -6  -1   1  736.84   13.90
  -6  -1   1  708.14   13.94
  -6  -1   1  722.27   11.45
  -6  -1   1  756.08   13.36
  -6  -1   1  657.59   13.76
   6  -1  -1  703.84   13.16
  -6  -1   1  680.07   13.79
  -6  -1   0  313.37    8.39
  -6  -1   0  321.96    9.20
  -6  -1   0  332.85    9.44
  -6  -1   0  334.68    7.84
  -6  -1   0  331.27    8.81
  -6  -1   0  305.59    9.49
   6  -1   0  356.61    9.35
  -6  -1   0  304.65    9.23
  -6  -1  -1  655.79   11.90
  -6  -1  -1  624.57   12.65
  -6  -1  -1  575.47   12.54
  -6  -1  -1  612.38   10.79
  -6  -1  -1  623.70   12.13
  -6  -1  -1  577.48   13.02
   6  -1   1  627.27   12.64
  -6  -1  -1  578.12   12.84
  -6  -1  -2  234.86    6.90
  -6  -1  -2  238.62    7.77
  -6  -1  -2  223.60    7.74
  -6  -1  -2  230.92    6.57
  -6  -1  -2  222.89    7.23
  -6  -1  -2  231.42    7.18
   6  -1   2  224.64    7.58
  -6  -1  -2  233.06    8.13
  -6  -1  -3  142.44    5.95
  -6  -1  -3  134.07    4.98
  -6  -1  -3  134.29    5.97
  -6  -1  -3  147.46    5.85
  -6  -1  -3  136.77    5.52
  -6  -1  -3  127.51    6.01
  -6  -1  -3  143.06    5.18
  -6  -1  -4   40.39    3.19
  -6  -1  -4   41.25    3.40
  -6  -1  -4   40.31    2.79
  -6  -1  -4   46.50    3.27
  -6  -1  -4   38.77    2.96
  -6  -1  -4   34.33    3.28
  -6  -1  -4   36.59    2.51
  -6  -1  -5  137.37    5.44
  -6  -1  -5  146.75    5.55
  -6  -1  -5  148.07    5.09
  -6  -1  -5  137.31    6.06
  -6  -1  -5  129.46    5.59
  -6  -1  -6  411.61    9.06
  -6  -1  -6  408.95    8.28
  -6  -1  -6  422.53   10.39
  -6  -1  -6  422.89    9.80
  -6  -1  -7   12.51    1.63
  -6  -1  -7   12.43    1.58
  -6  -1  -7   11.40    1.46
  -6  -1  -7   10.92    1.86
  -6  -1  -7   12.22    1.68
  -6  -1  -8  105.95    4.04
  -6  -1  -8  101.72    4.32
  -6  -1  -8  108.28    4.16
  -6  -1  -9   18.99    1.60
  -6  -1  -9   14.99    1.45
  -6  -1  -9   17.33    1.69
  -6  -1 -10   14.89    1.23
  -6  -1 -10   17.98    1.49
  -6  -1 -11   24.21    1.39
  -6   0  13   97.70    2.69
  -6   0  13  102.39    3.41
  -6   0  12    0.96    0.79
  -6   0  11    0.14    0.92
  -6   0  10  100.60    4.79
  -6   0   9   89.74    4.80
  -6   0   9   74.06    3.49
  -6   0   8   88.75    4.97
  -6   0   8   81.32    3.77
  -6   0   7    3.77    1.29
  -6   0   7    4.81    1.70
  -6   0   7    3.55    0.99
  -6   0   6    7.26    1.63
  -6   0   6    7.21    1.86
  -6   0   6    7.41    1.29
  -6   0   5   57.46    4.00
  -6   0   5   63.52    4.00
  -6   0   5   64.11    4.38
  -6   0   5   64.97    3.43
   6   0  -5   54.26    3.78
  -6   0   4  205.10    7.65
  -6   0   4  188.51    5.76
  -6   0   4  193.18    7.38
  -6   0   4  185.68    6.89
   6   0  -4  225.28    7.53
  -6   0   4  212.33    7.16
  -6   0   3   43.93    3.66
  -6   0   3   47.67    2.86
  -6   0   3   41.81    3.52
  -6   0   3   47.92    3.52
  -6   0   3   45.07    3.42
   6   0  -3   48.90    3.58
  -6   0   3   48.63    3.66
  -6   0   2   34.48    3.22
  -6   0   2   35.66    2.45
  -6   0   2   33.93    3.19
  -6   0   2   36.34    3.10
  -6   0   2   38.33    3.10
   6   0  -2   40.43    3.25
  -6   0   2   42.78    3.43
  -6   0   1    0.88    1.11
  -6   0   1   -0.64    1.20
  -6   0   1    0.14    0.95
  -6   0   1    0.49    1.03
  -6   0   1    0.06    0.85
   6   0  -1    0.25    0.82
  -6   0   1    0.65    0.91
  -6   0   0    1.65    1.26
  -6   0   0    1.74    0.91
  -6   0   0   -0.04    1.09
   6   0   0    1.15    0.94
  -6   0   0    2.63    1.27
  -6   0   0    0.50    1.08
  -6   0   0    1.70    1.01
  -6   0   0    2.37    1.03
  -6   0  -1   12.02    2.18
  -6   0  -1   13.20    1.77
  -6   0  -1   19.29    1.97
  -6   0  -1   16.16    2.16
  -6   0  -1   13.24    2.11
  -6   0  -1   12.06    1.54
  -6   0  -1   12.60    1.86
  -6   0  -1   13.45    2.26
   6   0   1   14.23    2.05
  -6   0  -2  779.38   15.26
  -6   0  -2  818.89   12.75
  -6   0  -2  786.00   10.90
  -6   0  -2  775.60   13.84
   6   0   2  778.19   14.29
  -6   0  -2  804.82   14.13
  -6   0  -2  805.52   11.60
  -6   0  -2  834.86   14.64
  -6   0  -2  772.61   14.99
  -6   0  -3  129.13    4.45
  -6   0  -3  131.08    4.80
  -6   0  -3  131.60    5.81
  -6   0  -3  133.26    4.70
  -6   0  -3  130.76    5.67
  -6   0  -3  130.05    5.57
  -6   0  -3  135.80    5.20
   6   0   3  124.02    5.61
  -6   0  -3  122.88    6.03
  -6   0  -4  217.86    7.15
  -6   0  -4  219.00    6.57
  -6   0  -4  212.67    5.95
  -6   0  -4  206.81    7.74
  -6   0  -4  225.96    7.59
  -6   0  -5  211.77    6.95
  -6   0  -5  222.43    6.50
  -6   0  -5  224.05    6.02
  -6   0  -5  212.50    7.28
  -6   0  -5  196.39    7.40
  -6   0  -6   87.83    4.38
  -6   0  -6   71.85    4.44
  -6   0  -6   81.12    4.37
  -6   0  -6   85.03    3.88
  -6   0  -7   60.75    3.51
  -6   0  -7   61.31    3.89
  -6   0  -7   68.05    3.86
  -6   0  -7   63.63    3.20
  -6   0  -8   10.51    1.48
  -6   0  -8   14.36    1.79
  -6   0  -9  138.71    4.51
  -6   0  -9  135.26    4.73
  -6   0 -10  159.09    4.27
  -6   0 -10  172.86    4.72
  -6   0 -11  143.36    3.33
  -6   0 -11  139.41    3.56
  -6   1  13   10.33    0.91
  -6   1  13    9.32    1.07
   6   1 -13    8.63    0.88
   6   1 -12   44.98    2.36
  -6   1  12   43.73    2.18
  -6   1  12   51.21    2.73
  -6   1  12   44.86    2.19
  -6   1  11   32.61    2.12
  -6   1  11   29.17    2.44
  -6   1  11   32.17    2.09
  -6   1  10   13.22    1.57
  -6   1  10   14.99    2.02
  -6   1   9   49.03    3.03
  -6   1   9   58.14    3.84
  -6   1   8    8.82    1.46
  -6   1   8    8.97    1.88
  -6   1   7   64.83    3.64
  -6   1   7   63.68    4.29
  -6   1   6   43.74    3.03
  -6   1   6   42.37    3.61
  -6   1   6   38.30    2.58
  -6   1   5  219.97    6.70
  -6   1   5  212.54    7.71
  -6   1   5  202.61    7.22
  -6   1   4   73.46    4.34
  -6   1   4   73.47    4.55
   6   1  -4   78.07    4.53
  -6   1   4   76.32    3.93
  -6   1   4   69.50    4.47
  -6   1   3  125.47    5.56
  -6   1   3  127.85    5.97
   6   1  -3  146.90    6.19
  -6   1   3  136.38    5.19
  -6   1   3  144.89    6.40
  -6   1   2  514.96   12.00
  -6   1   2  497.08   11.00
  -6   1   2  495.61    9.77
  -6   1   2  465.90   11.39
   6   1  -2  504.45   11.48
  -6   1   2  494.01   11.28
  -6   1   1  687.52   13.82
  -6   1   1  660.77   13.73
  -6   1   1  619.44   11.97
  -6   1   1  697.21   11.49
  -6   1   1  626.64   12.07
  -6   1   1  728.88   13.64
   6   1  -1  668.45   13.10
  -6   1   0  326.85    9.57
  -6   1   0  322.98    9.75
  -6   1   0  338.79    7.93
  -6   1   0  342.36    8.91
  -6   1   0  315.86    8.10
  -6   1   0  329.96    9.24
   6   1   0  327.34    9.12
  -6   1  -1  582.32   12.99
  -6   1  -1  639.02   11.30
  -6   1  -1  603.33   10.47
  -6   1  -1  590.35   12.92
  -6   1  -1  592.41   11.80
  -6   1  -1  595.71   11.16
  -6   1  -1  611.01   12.45
   6   1   1  611.96   12.54
   6   1   2  217.23    7.38
  -6   1  -2  226.71    7.30
  -6   1  -2  233.13    7.04
  -6   1  -2  214.39    7.81
  -6   1  -2  232.11    7.59
  -6   1  -2  234.51    6.48
  -6   1  -3  132.90    6.12
  -6   1  -3  151.10    5.23
  -6   1  -3  141.56    5.90
  -6   1  -3  143.18    5.42
  -6   1  -4   34.41    3.29
  -6   1  -4   40.19    2.87
  -6   1  -4   39.88    2.84
  -6   1  -4   39.25    3.14
  -6   1  -5  132.89    5.99
  -6   1  -5  149.14    5.24
  -6   1  -5  138.71    5.80
  -6   1  -6  418.59   10.28
  -6   1  -6  412.38    8.40
  -6   1  -6  424.33    9.82
  -6   1  -7   10.18    1.79
  -6   1  -7   13.78    1.77
  -6   1  -7   10.67    1.36
  -6   1  -8   99.73    4.29
  -6   1  -8   97.52    3.37
  -6   1  -9   19.35    1.77
  -6   1  -9   20.21    1.77
  -6   1 -10   17.34    1.48
  -6   1 -10   16.40    1.40
  -6   1 -11   25.29    1.40
  -6   1 -11   25.17    1.40
  -6   2  12   15.44    1.22
  -6   2  12   14.63    1.25
  -6   2  11   49.64    2.45
  -6   2  11   53.10    2.64
  -6   2  10    3.89    0.86
  -6   2  10    3.52    0.95
  -6   2  10    2.73    1.13
  -6   2   9  179.48    5.47
  -6   2   9  173.51    5.59
  -6   2   9  170.48    6.07
  -6   2   8   39.17    2.64
  -6   2   8   33.96    2.63
  -6   2   8   35.63    2.99
  -6   2   7  100.26    4.18
  -6   2   7  102.35    4.59
  -6   2   7  101.08    5.05
  -6   2   6  131.40    5.29
  -6   2   6  131.09    4.73
  -6   2   6  123.63    5.32
  -6   2   6  136.05    5.93
  -6   2   5   15.01    1.62
  -6   2   5   14.85    1.89
  -6   2   5   13.05    2.10
  -6   2   4  254.37    7.36
  -6   2   4  238.38    7.87
  -6   2   3   20.87    2.15
  -6   2   3   21.90    2.79
  -6   2   2  395.56    9.64
  -6   2   2  378.46    8.77
  -6   2   2  370.91    9.92
   6   2  -2  369.51    9.69
  -6   2   2  349.19    9.86
   6   2  -1  349.25   12.43
  -6   2   1  378.91    9.39
  -6   2   1  354.71    8.43
  -6   2   1  354.26    8.58
  -6   2   1  332.85    9.35
   6   2  -1  378.60    9.74
  -6   2   1  334.53    9.62
   6   2   0  117.60    6.36
  -6   2   0  107.78    4.64
  -6   2   0  111.06    4.81
  -6   2   0   99.03    5.41
  -6   2   0   95.17    5.15
  -6   2   0  112.15    5.12
   6   2   0  109.79    5.21
  -6   2  -1  177.44    6.43
  -6   2  -1  165.07    6.61
  -6   2  -1  173.93    5.77
  -6   2  -1  171.00    6.11
  -6   2  -1  184.94    6.24
  -6   2  -2   72.28    3.93
  -6   2  -2   71.00    3.90
  -6   2  -2   73.90    3.12
  -6   2  -2   74.20    4.10
  -6   2  -2   69.78    4.32
  -6   2  -3   86.06    4.29
  -6   2  -3   83.14    4.19
  -6   2  -3   88.35    3.55
  -6   2  -3   83.00    4.31
  -6   2  -3   83.12    4.71
  -6   2  -4   19.73    2.12
  -6   2  -4   22.46    2.18
  -6   2  -4   24.49    1.94
  -6   2  -4   22.68    2.29
  -6   2  -4   20.40    2.45
  -6   2  -5   10.64    1.64
  -6   2  -5    9.85    1.79
  -6   2  -5   11.50    1.38
  -6   2  -5    9.61    1.55
  -6   2  -5   10.50    1.51
  -6   2  -6  134.70    5.15
  -6   2  -6  133.44    5.41
  -6   2  -6  145.40    4.51
  -6   2  -6  139.74    5.20
  -6   2  -6  139.35    4.86
  -6   2  -7    2.37    0.89
  -6   2  -7    2.69    0.86
  -6   2  -7    2.40    0.82
  -6   2  -8    8.66    1.28
  -6   2  -8    9.64    1.34
  -6   2  -8    9.59    1.17
  -6   2  -9   39.43    2.18
  -6   2  -9   38.70    2.22
  -6   2  -9   39.35    1.89
  -6   2 -10    8.13    0.93
  -6   3  12    2.85    0.55
  -6   3  11   89.99    3.07
  -6   3  11   83.78    2.78
  -6   3  10    2.30    0.76
  -6   3  10    2.94    0.74
  -6   3   9   75.61    3.25
  -6   3   9   99.02    4.03
  -6   3   8  121.21    4.29
  -6   3   7   91.35    3.83
  -6   3   7   85.01    4.08
  -6   3   6  173.37    5.24
  -6   3   6  166.75    5.76
  -6   3   5   89.83    4.25
  -6   3   4    6.56    1.52
  -6   3   4    5.66    1.31
  -6   3   3  132.56    5.51
  -6   3   2  165.46    6.19
  -6   3   1  151.66    5.90
  -6   3   0   10.80    1.60
  -6   3   0   10.09    1.83
  -6   3   0    9.68    1.41
  -6   3  -1  108.56    4.57
  -6   3  -1  103.18    4.83
  -6   3  -1  110.05    4.63
  -6   3  -1  101.37    4.21
  -6   3  -1  101.18    4.42
  -6   3  -2   46.43    2.99
  -6   3  -2   41.46    3.09
  -6   3  -2   46.88    2.90
  -6   3  -3    0.97    0.69
  -6   3  -3    1.53    0.68
  -6   3  -4   69.78    3.60
  -6   3  -4   60.93    3.36
  -6   3  -4   58.45    3.20
  -6   3  -4   62.25    2.88
  -6   3  -5  170.85    5.30
  -6   3  -5  179.79    5.55
  -6   3  -5  181.03    4.84
  -6   3  -6   75.30    3.38
  -6   3  -6   72.55    3.38
  -6   3  -6   76.09    3.05
  -6   3  -7    5.73    1.01
  -6   3  -7    6.73    1.08
  -6   3  -7    6.91    0.97
  -6   3  -8    3.91    0.79
  -6   3  -9    9.23    0.91
  -6   4  10   30.78    1.58
  -6   4  10   31.45    1.70
  -6   4   9   52.32    2.30
  -6   4   9   55.89    2.57
  -6   4   8   42.38    2.24
  -6   4   8   39.37    2.42
  -6   4   8   44.79    2.50
  -6   4   7   49.56    2.54
  -6   4   7   46.60    2.72
  -6   4   7   50.44    2.81
  -6   4   6   68.67    3.03
  -6   4   6   66.25    3.34
  -6   4   5    2.83    0.94
  -6   4   5    4.29    1.07
  -6   4   4  214.10    6.23
  -6   4   3   28.15    2.41
  -6   4   2    3.85    1.19
  -6   4   1   67.92    3.55
  -6   4   0   91.85    4.10
  -6   4  -1  184.68    5.74
  -6   4  -2  109.31    4.46
  -6   4  -2   76.02    3.57
  -6   4  -3   48.01    3.00
  -6   4  -3   35.91    2.42
  -6   4  -4  137.46    4.59
  -6   4  -5  300.30    5.64
  -6   4  -6   70.57    2.59
  -6   4  -7  325.79    5.23
  -6   4  -7  328.64    5.95
  -6   4  -8   14.44    1.12
  -6   5   8   42.80    1.90
  -6   5   8   43.21    1.78
  -6   5   7   26.27    1.73
  -6   5   6   24.81    1.82
  -6   5   5   36.56    2.22
  -6   5   4  163.47    4.73
  -6   5   3   54.23    2.82
  -6   5   2  109.02    3.92
  -6   5   1   63.64    3.12
  -6   5   0  156.70    4.72
  -6   5  -1  212.44    5.38
  -6   5  -2   65.68    3.05
  -6   6   3   41.25    1.85
  -6   6   2   44.27    1.98
  -6   6   1   17.94    1.48
  -7  -4   6    5.29    1.01
  -7  -4   5  127.38    3.54
  -7  -4   5  124.62    4.01
  -7  -4   4    5.85    0.97
  -7  -4   4    5.83    1.19
  -7  -4   3   18.46    1.57
  -7  -4   3   19.84    1.87
  -7  -4   2   63.24    2.83
  -7  -4   2   77.66    3.51
  -7  -4   1  155.00    4.45
  -7  -4   1  160.30    4.06
  -7  -4   1  162.92    4.97
  -7  -4   0   18.53    1.44
  -7  -4   0   16.16    1.69
  -7  -4  -1    7.77    1.04
  -7  -4  -1    7.77    1.00
  -7  -4  -2    2.34    0.62
  -7  -4  -2    3.15    0.72
  -7  -4  -3    7.90    0.88
  -7  -4  -3    8.96    0.94
  -7  -4  -4   26.06    1.35
  -7  -3   8   29.77    1.92
  -7  -3   7   23.69    1.91
  -7  -3   6   11.61    1.35
  -7  -3   6   12.60    1.60
  -7  -3   5   91.29    3.61
  -7  -3   4   13.71    1.57
  -7  -3   4   11.28    1.34
  -7  -3   3   27.51    2.17
  -7  -3   3   25.40    1.97
  -7  -3   2    7.30    1.26
  -7  -3   1   37.55    2.38
  -7  -3   0   52.59    2.86
  -7  -3   0   42.64    2.49
  -7  -3  -1    8.60    1.24
  -7  -3  -1    6.31    1.09
  -7  -3  -1    9.24    1.20
  -7  -3  -2   31.58    2.06
  -7  -3  -2   26.88    1.88
  -7  -3  -2   30.31    1.91
  -7  -3  -3   48.53    2.30
  -7  -3  -4   45.78    2.10
  -7  -3  -5   53.00    2.07
  -7  -2   8   26.62    1.87
  -7  -2   7   24.45    1.97
  -7  -2   7   26.28    2.13
  -7  -2   6   12.56    1.55
  -7  -2   6   12.50    1.60
  -7  -2   6   12.41    1.69
  -7  -2   5   20.58    1.99
  -7  -2   5   16.26    1.90
  -7  -2   5   20.44    2.17
  -7  -2   4   31.30    2.47
  -7  -2   4   33.90    2.62
  -7  -2   4   35.24    2.77
  -7  -2   3   12.49    1.77
  -7  -2   3   12.50    1.89
  -7  -2   2   28.21    2.37
  -7  -2   2   34.59    2.80
  -7  -2   2   35.69    2.98
  -7  -2   1   77.97    3.82
  -7  -2   1   76.93    3.97
  -7  -2   1   79.74    4.16
  -7  -2   0   22.83    2.10
  -7  -2   0   19.90    2.18
  -7  -2   0   20.08    2.12
  -7  -2  -1    7.21    1.25
  -7  -2  -1    6.84    1.25
  -7  -2  -1    7.55    1.55
  -7  -2  -1    6.75    1.40
  -7  -2  -2   52.55    2.82
  -7  -2  -2   55.93    3.05
  -7  -2  -2   47.55    3.12
  -7  -2  -2   52.67    3.13
  -7  -2  -3   53.76    3.05
  -7  -2  -3   58.01    3.01
  -7  -2  -4   42.98    2.63
  -7  -2  -4   47.38    2.59
  -7  -2  -5   65.26    2.81
  -7  -2  -6   48.38    2.17
  -7  -1  10   74.36    2.72
  -7  -1   9   44.64    2.44
  -7  -1   8   16.72    1.77
  -7  -1   7   18.08    1.94
  -7  -1   6    0.96    0.81
  -7  -1   6    0.78    0.92
  -7  -1   5   16.45    2.06
  -7  -1   4   83.86    4.38
  -7  -1   4   88.85    4.24
  -7  -1   3  177.50    6.39
  -7  -1   3  189.33    6.26
  -7  -1   2   17.94    2.55
  -7  -1   2   21.56    2.54
  -7  -1   1  212.37    6.48
  -7  -1   1  215.30    6.70
  -7  -1   1  202.06    6.88
  -7  -1   0    5.66    1.24
  -7  -1   0    5.50    1.30
  -7  -1   0    5.63    1.46
  -7  -1   0    3.63    1.47
  -7  -1  -1  114.64    4.44
  -7  -1  -1  105.81    4.66
  -7  -1  -1  115.14    4.84
  -7  -1  -1   99.29    4.75
  -7  -1  -2  117.63    4.56
  -7  -1  -2  115.87    4.78
  -7  -1  -2  111.42    4.95
  -7  -1  -3   11.85    1.51
  -7  -1  -3   12.28    1.62
  -7  -1  -3   10.91    1.72
  -7  -1  -4   46.30    2.66
  -7  -1  -4   44.13    2.78
  -7  -1  -4   42.52    2.90
  -7  -1  -5   44.47    2.44
  -7  -1  -5   47.01    2.72
  -7  -1  -5   45.71    2.83
  -7  -1  -6    6.87    0.98
  -7  -1  -6    6.35    1.04
  -7  -1  -7    1.55    0.50
  -7  -1  -7    2.24    0.64
  -7   0  10   13.22    1.36
  -7   0   9    0.75    0.76
  -7   0   8    0.04    0.77
  -7   0   7   70.65    3.71
  -7   0   6   84.38    4.20
  -7   0   5   23.33    2.45
  -7   0   4   56.95    3.45
  -7   0   4   52.46    3.62
  -7   0   3  399.22    9.14
  -7   0   3  372.97    9.49
  -7   0   2  585.89   11.02
  -7   0   2  598.11   12.08
  -7   0   1   30.19    2.49
  -7   0   1   29.19    2.88
  -7   0   1   35.01    2.85
  -7   0   0    6.66    1.28
  -7   0   0    7.70    1.45
  -7   0   0    5.43    1.66
  -7   0  -1    0.47    0.71
  -7   0  -1    0.52    0.79
  -7   0  -1   -0.29    1.40
  -7   0  -2   47.31    3.15
  -7   0  -2   43.08    3.21
  -7   0  -2   48.64    3.03
  -7   0  -3    0.26    0.67
  -7   0  -3    0.10    0.69
  -7   0  -3    0.58    1.02
  -7   0  -4   44.19    2.86
  -7   0  -4   41.83    2.97
  -7   0  -4   44.45    2.71
  -7   0  -5    2.25    0.82
  -7   0  -5    2.27    0.89
  -7   0  -5    1.72    0.95
  -7   0  -6   43.88    2.51
  -7   0  -6   42.77    2.35
  -7   0  -7    0.92    0.50
  -7   0  -7    0.66    0.50
  -7   0  -8   94.20    2.86
  -7   0  -8   91.94    2.59
   7   1 -10   44.46    1.92
  -7   1  10   80.66    2.85
  -7   1   9   45.79    2.51
  -7   1   8   18.28    1.85
  -7   1   7   19.22    2.02
  -7   1   6    1.44    1.02
  -7   1   5   18.13    2.14
  -7   1   4   91.34    4.57
  -7   1   3  180.49    6.50
  -7   1   2   20.90    2.68
  -7   1   1  214.42    7.09
  -7   1   0    3.25    1.47
  -7   1   0    5.65    1.31
  -7   1  -1   96.29    4.73
  -7   1  -1  106.11    4.64
  -7   1  -1  104.42    4.34
  -7   1  -2  107.69    4.87
  -7   1  -2  119.13    4.81
  -7   1  -2  115.11    4.50
  -7   1  -3   11.68    1.76
  -7   1  -3   11.03    1.60
  -7   1  -3   11.24    1.49
  -7   1  -4   41.06    2.84
  -7   1  -4   45.91    2.84
  -7   1  -5   43.62    2.78
  -7   1  -5   51.23    2.82
  -7   1  -6    7.65    1.14
  -7   1  -7    2.25    0.64
  -7   2   9   10.30    0.97
  -7   2   8   27.17    1.67
  -7   2   7   23.39    1.99
  -7   2   7   24.66    1.72
  -7   2   6   13.05    1.69
  -7   2   6   15.28    1.46
  -7   2   5   21.18    2.07
  -7   2   5   19.49    1.73
  -7   2   4   35.12    2.70
  -7   2   4   33.38    2.28
  -7   2   3   11.21    1.77
  -7   2   3    9.23    1.34
  -7   2   2   28.72    2.14
  -7   2   2   33.33    2.77
  -7   2   1   88.35    3.54
  -7   2   1   80.23    4.09
  -7   2   0   48.86    2.76
  -7   2   0   17.24    2.00
  -7   2  -1    7.81    1.32
  -7   2  -1    8.04    1.51
  -7   2  -2   55.09    3.01
  -7   2  -2   51.95    3.15
  -7   2  -2   53.85    2.76
  -7   2  -2   53.50    2.83
  -7   2  -3   52.52    3.05
  -7   2  -3   60.81    3.06
  -7   2  -3   57.02    2.85
  -7   2  -4   43.03    2.64
  -7   2  -4   48.92    2.62
  -7   2  -4   47.53    2.51
  -7   2  -5   68.75    2.89
  -7   2  -5   65.62    2.77
  -7   2  -6   47.67    2.17
  -7   2  -7    4.53    0.66
  -7   3   8   27.30    1.59
  -7   3   7   25.23    1.71
  -7   3   6   11.85    1.33
  -7   3   5   89.14    3.37
  -7   3   4   12.34    1.43
  -7   3   3   28.44    2.04
  -7   3   2   10.78    1.42
  -7   3   1   59.79    2.92
  -7   3   0   78.88    3.30
  -7   3  -1   29.58    2.14
  -7   3  -2   32.34    2.14
  -7   4   6    3.69    0.75
  -7   4   5  121.74    3.41
  -8  -1   3   13.23    1.31
  -8  -1   2    7.12    1.05
  -8  -1   1   17.80    1.50
  -8  -1   0   67.60    2.67
  -8  -1  -1   12.93    1.20
  -8   0   5  221.24    4.67
  -8   0   4  128.63    3.81
  -8   0   3   24.29    1.80
  -8   0   2  110.71    3.69
  -8   0   1    5.36    0.95
  -8   0   0   17.62    1.52
  -8   0  -1    1.87    0.71
  -8   0  -2   24.19    1.62
  -8   1   4  144.85    3.80
  -8   1   3   13.94    1.32
  -8   1   2    6.80    1.05
  -8   1   1   17.99    1.53
  -8   1   0   67.61    2.70
  -8   1  -1   11.04    1.12
   0   0   0    0.00    0.00


TITL YHWA_43_P1_auto in P2(1)
REM P2(1) (#4 in standard setting)
CELL 1.54184   6.552173   7.616023  14.542518  90.0000  94.4777  90.0000
ZERR    3.00   0.000090   0.000113   0.000189   0.0000   0.0012   0.0000
LATT -1
SYMM -x, y+1/2,-z
SFAC C H N O
UNIT 33.00 30.00 3.00 3.00
REM  CrysAlisPro recorded range (K): Min=100.0; max=100.0; aver:100.0
TEMP -173
TREF
HKLF 4
END
_computing_structure_solution     'SHELXT 2014/5 (Sheldrick, 2014)'
;
_shelx_hkl_checksum              40473
_olex2_submission_special_instructions 'No special instructions were received'
_oxdiff_exptl_absorpt_empirical_details
;
Empirical correction (ABSPACK) includes:
- Absorption correction using spherical harmonics
- Frame scaling
;
_oxdiff_exptl_absorpt_empirical_full_max 3.970
_oxdiff_exptl_absorpt_empirical_full_min 0.644
loop_
_space_group_symop_operation_xyz
'x, y, z'
'-x, y+1/2, -z'
loop_
_atom_site_label
_atom_site_type_symbol
_atom_site_fract_x
_atom_site_fract_y
_atom_site_fract_z
_atom_site_U_iso_or_equiv
_atom_site_adp_type
_atom_site_occupancy
_atom_site_site_symmetry_order
_atom_site_calc_flag
_atom_site_refinement_flags_posn
_atom_site_refinement_flags_adp
_atom_site_refinement_flags_occupancy
_atom_site_disorder_assembly
_atom_site_disorder_group
O22 O 0.1554(2) 0.7306(2) 0.55296(10) 0.0233(3) Uani 1 1 d . . . . .
O20 O 0.9398(2) 0.3895(2) 0.63985(9) 0.0205(3) Uani 1 1 d . . . . .
O18 O 0.5578(2) 0.88389(19) 0.82472(10) 0.0236(3) Uani 1 1 d . . . . .
O19 O 0.4477(2) 0.5049(2) 0.52235(9) 0.0236(3) Uani 1 1 d . . . . .
O21 O 1.2454(2) 0.3000(2) 0.70309(11) 0.0284(4) Uani 1 1 d . . . . .
C1 C 0.5192(3) 0.7848(3) 0.75940(14) 0.0193(4) Uani 1 1 d . . . . .
C12 C 0.7350(3) 0.4770(3) 0.90458(12) 0.0172(4) Uani 1 1 d . . . . .
C3 C 0.3097(3) 0.7170(3) 0.61807(14) 0.0193(4) Uani 1 1 d . . . . .
C13 C 0.8102(3) 0.5901(3) 0.82742(13) 0.0166(4) Uani 1 1 d . . . . .
H8A H 0.857412 0.704463 0.853566 0.020 Uiso 1 1 calc R U . . .
H8B H 0.929192 0.531721 0.802580 0.020 Uiso 1 1 calc R U . . .
C15 C 1.0609(3) 0.2946(3) 0.70199(14) 0.0206(4) Uani 1 1 d . . . . .
C4 C 0.4557(3) 0.5734(3) 0.59803(13) 0.0181(4) Uani 1 1 d . . . . .
C7 C 0.7357(3) 0.2270(3) 0.73248(14) 0.0178(4) Uani 1 1 d . . . . .
H2 H 0.620012 0.177148 0.758146 0.021 Uiso 1 1 calc R U . . .
C5 C 0.6144(3) 0.5224(3) 0.67267(13) 0.0165(4) Uani 1 1 d . . . . .
C6 C 0.7264(3) 0.3534(3) 0.65355(13) 0.0182(4) Uani 1 1 d . . . . .
H1 H 0.659546 0.295799 0.597203 0.022 Uiso 1 1 calc R U . . .
C8 C 0.9298(3) 0.1943(3) 0.76155(13) 0.0183(4) Uani 1 1 d . . . . .
C14 C 0.6485(3) 0.6230(3) 0.74891(13) 0.0163(4) Uani 1 1 d . . . . .
C11 C 0.8424(3) 0.3445(3) 0.94441(13) 0.0193(4) Uani 1 1 d . . . . .
H6 H 0.783229 0.289284 0.994525 0.023 Uiso 1 1 calc R U . . .
C2 C 0.3455(3) 0.8186(3) 0.69322(14) 0.0227(4) Uani 1 1 d . . . . .
H11 H 0.256061 0.913686 0.703249 0.027 Uiso 1 1 calc R U . . .
C16 C 0.5327(3) 0.5298(3) 0.93767(14) 0.0226(4) Uani 1 1 d . . . . .
H22A H 0.537386 0.653805 0.955619 0.034 Uiso 1 1 calc R U . . .
H22B H 0.503878 0.457681 0.990961 0.034 Uiso 1 1 calc R U . . .
H22C H 0.424592 0.512231 0.888044 0.034 Uiso 1 1 calc R U . . .
C10 C 1.0441(3) 0.2714(3) 0.92044(14) 0.0206(4) Uani 1 1 d . . . . .
H5A H 1.121569 0.229389 0.977364 0.025 Uiso 1 1 calc R U . . .
H5B H 1.124866 0.365888 0.893772 0.025 Uiso 1 1 calc R U . . .
C9 C 1.0168(3) 0.1175(3) 0.85042(14) 0.0211(4) Uani 1 1 d . . . . .
H4A H 1.150286 0.061128 0.842277 0.025 Uiso 1 1 calc R U . . .
H4B H 0.922713 0.028026 0.872669 0.025 Uiso 1 1 calc R U . . .
C17 C 0.0017(4) 0.8606(4) 0.56800(15) 0.0321(5) Uani 1 1 d . . . . .
H19A H -0.112365 0.848639 0.520656 0.048 Uiso 1 1 calc R U . . .
H19B H 0.061342 0.978143 0.564477 0.048 Uiso 1 1 calc R U . . .
H19C H -0.048469 0.843310 0.629103 0.048 Uiso 1 1 calc R U . . .
loop_
_atom_site_aniso_label
_atom_site_aniso_U_11
_atom_site_aniso_U_22
_atom_site_aniso_U_33
_atom_site_aniso_U_23
_atom_site_aniso_U_13
_atom_site_aniso_U_12
O22 0.0242(7) 0.0259(8) 0.0193(7) 0.0032(6) -0.0021(5) 0.0068(7)
O20 0.0193(7) 0.0234(8) 0.0191(7) 0.0015(6) 0.0024(5) 0.0010(6)
O18 0.0325(8) 0.0152(7) 0.0229(7) -0.0025(6) 0.0003(6) -0.0004(6)
O19 0.0255(7) 0.0271(9) 0.0174(7) -0.0022(6) -0.0026(5) 0.0034(6)
O21 0.0192(7) 0.0311(9) 0.0354(8) 0.0029(7) 0.0042(6) 0.0017(7)
C1 0.0256(10) 0.0142(9) 0.0183(9) 0.0012(7) 0.0026(7) -0.0022(8)
C12 0.0189(9) 0.0167(10) 0.0155(8) -0.0019(7) -0.0007(7) -0.0055(8)
C3 0.0209(10) 0.0192(10) 0.0176(9) 0.0055(8) 0.0000(7) 0.0000(8)
C13 0.0190(9) 0.0137(9) 0.0170(9) 0.0002(7) -0.0006(7) -0.0030(7)
C15 0.0209(10) 0.0190(10) 0.0218(10) -0.0014(8) 0.0012(7) 0.0022(8)
C4 0.0199(9) 0.0173(10) 0.0167(9) 0.0017(7) -0.0005(7) -0.0021(8)
C7 0.0205(9) 0.0126(9) 0.0200(9) -0.0022(7) 0.0000(7) -0.0008(8)
C5 0.0179(9) 0.0147(9) 0.0168(9) 0.0013(7) 0.0002(7) -0.0023(8)
C6 0.0197(9) 0.0168(10) 0.0177(8) -0.0015(8) -0.0008(7) -0.0005(8)
C8 0.0212(9) 0.0139(9) 0.0197(9) -0.0014(7) 0.0012(7) 0.0007(8)
C14 0.0186(9) 0.0135(9) 0.0169(9) 0.0020(7) 0.0013(7) -0.0017(7)
C11 0.0225(9) 0.0184(10) 0.0166(8) 0.0001(7) -0.0003(7) -0.0043(8)
C2 0.0275(11) 0.0177(10) 0.0229(10) 0.0030(8) 0.0020(8) 0.0068(9)
C16 0.0220(10) 0.0218(10) 0.0242(9) 0.0031(8) 0.0028(7) -0.0023(8)
C10 0.0210(10) 0.0202(10) 0.0198(9) 0.0033(8) -0.0035(7) -0.0009(8)
C9 0.0211(9) 0.0169(10) 0.0246(10) 0.0022(8) -0.0019(7) 0.0033(8)
C17 0.0298(11) 0.0430(14) 0.0235(10) 0.0041(10) 0.0013(8) 0.0162(11)
loop_
_atom_type_symbol
_atom_type_description
_atom_type_scat_dispersion_real
_atom_type_scat_dispersion_imag
_atom_type_scat_source
C C 0.0181 0.0091 'International Tables Vol C Tables 4.2.6.8 and 6.1.1.4'
H H 0.0000 0.0000 'International Tables Vol C Tables 4.2.6.8 and 6.1.1.4'
O O 0.0492 0.0322 'International Tables Vol C Tables 4.2.6.8 and 6.1.1.4'
loop_
_geom_angle_atom_site_label_1
_geom_angle_atom_site_label_2
_geom_angle_atom_site_label_3
_geom_angle
_geom_angle_site_symmetry_1
_geom_angle_site_symmetry_3
_geom_angle_publ_flag
C3 O22 C17 116.45(17) . . ?
C15 O20 C6 108.97(15) . . ?
O18 C1 C14 119.86(18) . . ?
O18 C1 C2 120.51(19) . . ?
C2 C1 C14 119.60(17) . . ?
C11 C12 C13 123.76(18) . . ?
C11 C12 C16 120.78(18) . . ?
C16 C12 C13 115.38(18) . . ?
O22 C3 C4 112.26(18) . . ?
O22 C3 C2 127.3(2) . . ?
C2 C3 C4 120.36(18) . . ?
C12 C13 H8A 108.8 . . ?
C12 C13 H8B 108.8 . . ?
H8A C13 H8B 107.7 . . ?
C14 C13 C12 113.58(16) . . ?
C14 C13 H8A 108.8 . . ?
C14 C13 H8B 108.8 . . ?
O20 C15 C8 109.14(17) . . ?
O21 C15 O20 121.37(19) . . ?
O21 C15 C8 129.48(19) . . ?
O19 C4 C3 120.46(17) . . ?
O19 C4 C5 121.65(18) . . ?
C5 C4 C3 117.86(16) . . ?
C6 C7 H2 124.9 . . ?
C8 C7 H2 124.9 . . ?
C8 C7 C6 110.15(18) . . ?
C4 C5 C6 113.95(16) . . ?
C14 C5 C4 120.65(18) . . ?
C14 C5 C6 125.40(17) . . ?
O20 C6 C7 104.16(15) . . ?
O20 C6 C5 110.39(16) . . ?
O20 C6 H1 109.6 . . ?
C7 C6 C5 113.38(16) . . ?
C7 C6 H1 109.6 . . ?
C5 C6 H1 109.6 . . ?
C15 C8 C9 120.69(18) . . ?
C7 C8 C15 107.54(18) . . ?
C7 C8 C9 129.74(19) . . ?
C1 C14 C13 115.03(16) . . ?
C5 C14 C1 119.14(17) . . ?
C5 C14 C13 125.82(18) . . ?
C12 C11 H6 115.7 . . ?
C12 C11 C10 128.54(18) . . ?
C10 C11 H6 115.7 . . ?
C1 C2 H11 119.6 . . ?
C3 C2 C1 120.90(19) . . ?
C3 C2 H11 119.6 . . ?
C12 C16 H22A 109.5 . . ?
C12 C16 H22B 109.5 . . ?
C12 C16 H22C 109.5 . . ?
H22A C16 H22B 109.5 . . ?
H22A C16 H22C 109.5 . . ?
H22B C16 H22C 109.5 . . ?
C11 C10 H5A 109.2 . . ?
C11 C10 H5B 109.2 . . ?
C11 C10 C9 111.95(17) . . ?
H5A C10 H5B 107.9 . . ?
C9 C10 H5A 109.2 . . ?
C9 C10 H5B 109.2 . . ?
C8 C9 C10 106.78(17) . . ?
C8 C9 H4A 110.4 . . ?
C8 C9 H4B 110.4 . . ?
C10 C9 H4A 110.4 . . ?
C10 C9 H4B 110.4 . . ?
H4A C9 H4B 108.6 . . ?
O22 C17 H19A 109.5 . . ?
O22 C17 H19B 109.5 . . ?
O22 C17 H19C 109.5 . . ?
H19A C17 H19B 109.5 . . ?
H19A C17 H19C 109.5 . . ?
H19B C17 H19C 109.5 . . ?
loop_
_geom_bond_atom_site_label_1
_geom_bond_atom_site_label_2
_geom_bond_distance
_geom_bond_site_symmetry_2
_geom_bond_publ_flag
O22 C3 1.334(2) . ?
O22 C17 1.441(3) . ?
O20 C15 1.362(2) . ?
O20 C6 1.454(2) . ?
O18 C1 1.224(2) . ?
O19 C4 1.215(2) . ?
O21 C15 1.209(3) . ?
C1 C14 1.510(3) . ?
C1 C2 1.455(3) . ?
C12 C13 1.526(3) . ?
C12 C11 1.336(3) . ?
C12 C16 1.500(3) . ?
C3 C4 1.497(3) . ?
C3 C2 1.344(3) . ?
C13 H8A 0.9900 . ?
C13 H8B 0.9900 . ?
C13 C14 1.516(3) . ?
C15 C8 1.479(3) . ?
C4 C5 1.495(3) . ?
C7 H2 0.9500 . ?
C7 C6 1.496(3) . ?
C7 C8 1.332(3) . ?
C5 C6 1.518(3) . ?
C5 C14 1.351(3) . ?
C6 H1 1.0000 . ?
C8 C9 1.491(3) . ?
C11 H6 0.9500 . ?
C11 C10 1.500(3) . ?
C2 H11 0.9500 . ?
C16 H22A 0.9800 . ?
C16 H22B 0.9800 . ?
C16 H22C 0.9800 . ?
C10 H5A 0.9900 . ?
C10 H5B 0.9900 . ?
C10 C9 1.554(3) . ?
C9 H4A 0.9900 . ?
C9 H4B 0.9900 . ?
C17 H19A 0.9800 . ?
C17 H19B 0.9800 . ?
C17 H19C 0.9800 . ?
loop_
_geom_torsion_atom_site_label_1
_geom_torsion_atom_site_label_2
_geom_torsion_atom_site_label_3
_geom_torsion_atom_site_label_4
_geom_torsion
_geom_torsion_site_symmetry_1
_geom_torsion_site_symmetry_2
_geom_torsion_site_symmetry_3
_geom_torsion_site_symmetry_4
_geom_torsion_publ_flag
O22 C3 C4 O19 12.7(3) . . . . ?
O22 C3 C4 C5 -169.40(17) . . . . ?
O22 C3 C2 C1 178.7(2) . . . . ?
O20 C15 C8 C7 1.7(2) . . . . ?
O20 C15 C8 C9 -163.56(18) . . . . ?
O18 C1 C14 C13 4.7(3) . . . . ?
O18 C1 C14 C5 -174.76(18) . . . . ?
O18 C1 C2 C3 175.6(2) . . . . ?
O19 C4 C5 C6 -13.8(3) . . . . ?
O19 C4 C5 C14 166.20(19) . . . . ?
O21 C15 C8 C7 -178.3(2) . . . . ?
O21 C15 C8 C9 16.3(3) . . . . ?
C12 C13 C14 C1 90.1(2) . . . . ?
C12 C13 C14 C5 -90.5(2) . . . . ?
C12 C11 C10 C9 -91.8(3) . . . . ?
C3 C4 C5 C6 168.27(16) . . . . ?
C3 C4 C5 C14 -11.7(3) . . . . ?
C13 C12 C11 C10 -4.2(3) . . . . ?
C15 O20 C6 C7 0.7(2) . . . . ?
C15 O20 C6 C5 122.77(17) . . . . ?
C15 C8 C9 C10 76.3(2) . . . . ?
C4 C3 C2 C1 -3.7(3) . . . . ?
C4 C5 C6 O20 112.81(17) . . . . ?
C4 C5 C6 C7 -130.77(17) . . . . ?
C4 C5 C14 C1 2.0(3) . . . . ?
C4 C5 C14 C13 -177.31(18) . . . . ?
C7 C8 C9 C10 -85.4(3) . . . . ?
C6 O20 C15 O21 178.6(2) . . . . ?
C6 O20 C15 C8 -1.5(2) . . . . ?
C6 C7 C8 C15 -1.2(2) . . . . ?
C6 C7 C8 C9 162.3(2) . . . . ?
C6 C5 C14 C1 -177.93(17) . . . . ?
C6 C5 C14 C13 2.7(3) . . . . ?
C8 C7 C6 O20 0.4(2) . . . . ?
C8 C7 C6 C5 -119.66(19) . . . . ?
C14 C1 C2 C3 -6.3(3) . . . . ?
C14 C5 C6 O20 -67.2(2) . . . . ?
C14 C5 C6 C7 49.2(3) . . . . ?
C11 C12 C13 C14 135.3(2) . . . . ?
C11 C10 C9 C8 67.8(2) . . . . ?
C2 C1 C14 C13 -173.42(18) . . . . ?
C2 C1 C14 C5 7.2(3) . . . . ?
C2 C3 C4 O19 -165.3(2) . . . . ?
C2 C3 C4 C5 12.7(3) . . . . ?
C16 C12 C13 C14 -47.7(2) . . . . ?
C16 C12 C11 C10 179.02(19) . . . . ?
C17 O22 C3 C4 177.47(18) . . . . ?
C17 O22 C3 C2 -4.8(3) . . . . ?
