#------------------------------------------------------------------------------
#$Date: 2022-01-01 07:13:54 +0200 (Sat, 01 Jan 2022) $
#$Revision: 271676 $
#$URL: file:///home/coder/svn-repositories/cod/cif/1/56/58/1565877.cif $
#------------------------------------------------------------------------------
#
# This file is available in the Crystallography Open Database (COD),
# http://www.crystallography.net/. The original data for this entry
# were provided by IUCr Journals, http://journals.iucr.org/.
#
# The file may be used within the scientific community so long as
# proper attribution is given to the journal article from which the
# data were obtained.
#
data_1565877
loop_
_publ_author_name
'Olejniczak, Anna'
'Katrusiak, Anna'
'Podsiad\/lo, Marcin'
'Katrusiak, Andrzej'
_publ_section_title
;
 Stochastic hydration of a high-nitrogen-content molecular compound
 recrystallized under pressure
;
_journal_issue                   1
_journal_name_full               IUCrJ
_journal_page_first              49
_journal_page_last               54
_journal_paper_doi               10.1107/S2052252521010381
_journal_volume                  9
_journal_year                    2022
_chemical_formula_moiety         'C4 H2 Cl N5'
_chemical_formula_sum            'C4 H2 Cl N5'
_chemical_formula_weight         155.56
_chemical_name_systematic        6-chloro-1,2,3,4-tetrazolo[1,5-b]pyridazine
_space_group_crystal_system      orthorhombic
_space_group_IT_number           62
_space_group_name_Hall           '-P 2ac 2n'
_space_group_name_H-M_alt        'P n m a'
_atom_sites_solution_hydrogens   geom
_atom_sites_solution_primary     direct
_audit_creation_date             2021-06-08
_audit_creation_method
;
Olex2 1.3
(compiled 2020.11.12 svn.r5f609507 for OlexSys, GUI svn.r6272)
;
_cell_angle_alpha                90
_cell_angle_beta                 90
_cell_angle_gamma                90
_cell_formula_units_Z            4
_cell_length_a                   10.654(3)
_cell_length_b                   6.1954(6)
_cell_length_c                   8.7823(8)
_cell_measurement_reflns_used    710
_cell_measurement_temperature    296(2)
_cell_measurement_theta_max      22.7450
_cell_measurement_theta_min      4.4300
_cell_volume                     579.68(18)
_computing_cell_refinement       'CrysAlisPro 1.171.40.67a (Rigaku OD, 2019)'
_computing_data_collection       'CrysAlisPro 1.171.40.67a (Rigaku OD, 2019)'
_computing_data_reduction        'CrysAlisPro 1.171.40.67a (Rigaku OD, 2019)'
_computing_molecular_graphics    'Olex2 1.3 (Dolomanov et al., 2009)'
_computing_publication_material  'Olex2 1.3 (Dolomanov et al., 2009)'
_computing_structure_refinement  'SHELXL 2018/3 (Sheldrick, 2015)'
_computing_structure_solution    'SHELXT 2018/2 (Sheldrick, 2018)'
_diffrn_ambient_environment      'diamond-anvil cell'
_diffrn_ambient_pressure         490000
_diffrn_ambient_temperature      296
_diffrn_detector                 'CCD plate'
_diffrn_detector_area_resol_mean 16.2413
_diffrn_detector_type            Eos
_diffrn_measured_fraction_theta_full 0.430
_diffrn_measured_fraction_theta_max 0.385
_diffrn_measurement_details
;
List of Runs (angles in degrees, time in seconds):

  # Type    Start    End  Width  t~exp~   \w     \q     \k     \f   Frames
--------------------------------------------------------------------------
  1  \f    -35.00  19.75   0.75   35.00   0.00 -30.00   0.00    --    73
  2  \f    140.00 200.00   0.75   35.00   0.00 -30.00   0.00    --    80
  3  \f    160.00 217.00   0.75   35.00   0.00  30.00   0.00    --    76
  4  \f    -20.00  34.75   0.75   35.00   0.00  30.00   0.00    --    73
  5  \w    -24.00  24.00   0.75   35.00    --   30.00  39.46 -12.90   64
  6  \w    -24.00  24.00   0.75   35.00    --   30.00  39.46 167.10   64
  7  \w    -50.00  10.00   0.75   35.00    --  -30.00  39.46 167.10   80
  8  \w    -50.00  10.00   0.75   35.00    --  -30.00  39.46 -12.90   80
  9  \w    -64.00  -8.50   0.75   35.00    --  -30.00  81.40 -28.90   74
 10  \w    -64.00  -8.50   0.75   35.00    --  -30.00  81.40 151.10   74
 11  \w    -19.00   8.00   0.75   35.00    --   30.00  81.40 151.10   36
 12  \w    -19.00   8.00   0.75   35.00    --   30.00  81.40 -28.90   36
 13  \w    -43.00 -21.25   0.75   35.00    --   30.00 134.60 -56.90   29
 14  \w    -43.00 -21.25   0.75   35.00    --   30.00 134.60 123.10   29
 15  \w    -90.00 -36.00   0.75   35.00    --  -30.00 134.60 123.10   72
 16  \w    -90.00 -36.00   0.75   35.00    --  -30.00 134.60 -56.90   72
;
_diffrn_measurement_device       'four-circle diffractometer'
_diffrn_measurement_device_type  'KM-4 CCD'
_diffrn_measurement_method
;
HP omega scans - for more details see:
A. Budzianowski, A. Katrusiak in High-Pressure Crystallography
(Eds.: A. Katrusiak, P. F. McMillan),
Dordrecht: Kluwer Acad. Publ., 2004 pp.157-168       
;
_diffrn_orient_matrix_type
'CrysAlisPro convention (1999,Acta A55,543-557)'
_diffrn_orient_matrix_UB_11      -0.0647888324
_diffrn_orient_matrix_UB_12      -0.0120514782
_diffrn_orient_matrix_UB_13      0.0165637953
_diffrn_orient_matrix_UB_21      0.0107679718
_diffrn_orient_matrix_UB_22      -0.1082752504
_diffrn_orient_matrix_UB_23      0.0227486123
_diffrn_orient_matrix_UB_31      0.0108955779
_diffrn_orient_matrix_UB_32      0.0351960665
_diffrn_orient_matrix_UB_33      0.0757041930
_diffrn_radiation_monochromator  graphite
_diffrn_radiation_probe          x-ray
_diffrn_radiation_type           'Mo K\a'
_diffrn_radiation_wavelength     0.71073
_diffrn_reflns_av_R_equivalents  0.0442
_diffrn_reflns_av_unetI/netI     0.0269
_diffrn_reflns_Laue_measured_fraction_full 0.430
_diffrn_reflns_Laue_measured_fraction_max 0.385
_diffrn_reflns_limit_h_max       4
_diffrn_reflns_limit_h_min       -4
_diffrn_reflns_limit_k_max       7
_diffrn_reflns_limit_k_min       -7
_diffrn_reflns_limit_l_max       11
_diffrn_reflns_limit_l_min       -10
_diffrn_reflns_number            2828
_diffrn_reflns_point_group_measured_fraction_full 0.430
_diffrn_reflns_point_group_measured_fraction_max 0.385
_diffrn_reflns_theta_full        25.242
_diffrn_reflns_theta_max         26.982
_diffrn_reflns_theta_min         4.457
_diffrn_source                   'fine-focus sealed X-ray tube'
_diffrn_source_type              'Enhance (Mo) X-ray Source'
_exptl_absorpt_coefficient_mu    0.568
_exptl_absorpt_correction_T_max  1.00000
_exptl_absorpt_correction_T_min  0.39069
_exptl_absorpt_correction_type   multi-scan
_exptl_absorpt_process_details
;
CrysAlisPro 1.171.40.67a (Rigaku Oxford Diffraction, 2019)
Empirical absorption correction using spherical harmonics,
 implemented in SCALE3 ABSPACK scaling algorithm.
;
_exptl_crystal_colour            colorless
_exptl_crystal_density_diffrn    1.782
_exptl_crystal_description       plate
_exptl_crystal_F_000             312
_exptl_crystal_size_max          0.30
_exptl_crystal_size_mid          0.26
_exptl_crystal_size_min          0.11
_refine_diff_density_max         0.124
_refine_diff_density_min         -0.137
_refine_diff_density_rms         0.028
_refine_ls_extinction_method     none
_refine_ls_goodness_of_fit_ref   1.135
_refine_ls_hydrogen_treatment    constr
_refine_ls_matrix_type           full
_refine_ls_number_parameters     61
_refine_ls_number_reflns         268
_refine_ls_number_restraints     12
_refine_ls_restrained_S_all      1.113
_refine_ls_R_factor_all          0.0567
_refine_ls_R_factor_gt           0.0292
_refine_ls_shift/su_max          0.000
_refine_ls_shift/su_mean         0.000
_refine_ls_structure_factor_coef Fsqd
_refine_ls_weighting_details
'w=1/[\s^2^(Fo^2^)+(0.0336P)^2^] where P=(Fo^2^+2Fc^2^)/3'
_refine_ls_weighting_scheme      calc
_refine_ls_wR_factor_gt          0.0565
_refine_ls_wR_factor_ref         0.0659
_reflns_Friedel_coverage         0.000
_reflns_number_gt                191
_reflns_number_total             268
_reflns_threshold_expression     'I > 2\s(I)'
_cod_data_source_file            lt5042.cif
_cod_data_source_block           C4H2N5Cl1@0_49GPa_phase_alpha_prim
_cod_original_cell_volume        579.69(17)
_cod_database_code               1565877
_shelx_shelxl_version_number     2018/3
_chemical_oxdiff_formula         C4H2N5Cl1
_shelx_space_group_comment
;
The symmetry employed for this shelxl refinement is uniquely defined
by the following loop, which should always be used as a source of
symmetry information in preference to the above space-group names.
They are only intended as comments.
;
_reflns_odcompleteness_completeness 39.82
_reflns_odcompleteness_iscentric 1
_reflns_odcompleteness_theta     26.92
_olex2_refinement_description
;
1. Fixed Uiso
 At 1.2 times of:
  All C(H) groups
2. Uiso/Uaniso restraints and constraints
Uanis(N6) \\sim Ueq, Uanis(N5) \\sim Ueq: with sigma of 0.01 and sigma for
terminal atoms of 0.01
3.a Aromatic/amide H refined with riding coordinates:
 C7(H7), C8(H8)
;
_shelx_res_file
;
TITL nowe2a in Pnma #62
    nowe2a.res
    created by SHELXL-2018/3 at 14:31:04 on 08-Jun-2021
REM reset to Pnma #62
CELL 0.71073 10.654122 6.195403 8.782273 90 90 90
ZERR 4 0.002828 0.000589 0.000796 0 0 0
LATT 1
SYMM 0.5-X,-Y,0.5+Z
SYMM 0.5+X,0.5-Y,0.5-Z
SYMM -X,0.5+Y,-Z
SFAC C H Cl N
UNIT 16 8 4 20
ISOR 0.01 0.01 N6 N5

L.S. 44 0 0
PLAN  10
CONF
BOND
fmap 2 53
ACTA
MORE -1
BOND $H
REM <olex2.extras>
REM <HklSrc "%.\\nowe2a.hkl">
REM </olex2.extras>

WGHT    0.033600
FVAR       7.74129
CL1   3    0.614096    0.750000    0.912160    10.50000    0.10379    0.07253 =
         0.03192    0.00000   -0.00411    0.00000
C6    1    0.626168    0.750000    0.717571    10.50000    0.04410    0.04244 =
         0.03067    0.00000   -0.00563    0.00000
C7    1    0.745678    0.750000    0.652148    10.50000    0.05527    0.05511 =
         0.05287    0.00000   -0.00528    0.00000
AFIX  43
H7    2    0.817347    0.750000    0.712599    10.50000   -1.20000
AFIX   0
N6    4    0.535127    0.750000    0.492207    10.50000    0.02084    0.03904 =
         0.03854    0.00000    0.00655    0.00000
N1    4    0.618081    0.750000    0.266457    10.50000    0.04617    0.05633 =
         0.03347    0.00000   -0.00685    0.00000
N5    4    0.519302    0.750000    0.646165    10.50000    0.03198    0.04799 =
         0.03632    0.00000    0.00764    0.00000
C8    1    0.754349    0.750000    0.498157    10.50000    0.02602    0.05702 =
         0.05695    0.00000    0.02269    0.00000
AFIX  43
H8    2    0.832342    0.750000    0.450604    10.50000   -1.20000
AFIX   0
N2    4    0.490501    0.750000    0.260814    10.50000    0.06113    0.06107 =
         0.04431    0.00000   -0.02678    0.00000
N3    4    0.440140    0.750000    0.394577    10.50000    0.09072    0.05015 =
         0.05284    0.00000   -0.02376    0.00000
C9    1    0.647916    0.750000    0.415185    10.50000    0.04359    0.04585 =
         0.03742    0.00000   -0.00359    0.00000
HKLF 4




REM  nowe2a in Pnma #62
REM wR2 = 0.0659, GooF = S = 1.135, Restrained GooF = 1.113 for all data
REM R1 = 0.0292 for 191 Fo > 4sig(Fo) and 0.0567 for all 268 data
REM 61 parameters refined using 12 restraints

END

WGHT      0.0336      0.0000

REM Highest difference peak  0.124,  deepest hole -0.137,  1-sigma level  0.028
Q1    1   0.7368  0.7500  0.9818  10.50000  0.05    0.12
Q2    1   0.9041  0.7500  0.5621  10.50000  0.05    0.11
Q3    1   0.4429  0.7500  0.1898  10.50000  0.05    0.11
Q4    1   0.7614  0.7500  0.1873  10.50000  0.05    0.10
Q5    1   0.6274  0.8453  0.6761  11.00000  0.05    0.10
Q6    1   0.6256  0.5954  0.8463  11.00000  0.05    0.09
Q7    1   0.5809  0.7500  0.7947  10.50000  0.05    0.09
Q8    1   0.6639  0.9340  0.2724  11.00000  0.05    0.08
Q9    1   0.3823  0.7500  0.4371  10.50000  0.05    0.08
Q10   1   0.7095  0.5843  0.9434  11.00000  0.05    0.08
;
_shelx_res_checksum              43707
_shelx_hkl_file
;
   0   0   2 2689.82 223.066  10
   0   0  -2 3126.31 252.086  13
   0   0   2 2437.90 206.524  15
   0   0   3-68.7321 101.141  16
   0   0   3 47.6609 110.910  15
   0   0  -3 63.8460 133.730  13
   0   0   3-1.26674 85.8913   9
   0   0   3 105.948 92.0342   7
   0   0  -3-23.2323 103.249  12
   0   0  -3 37.9902 95.8061   6
   0   0   3-5.74653 111.759  10
   0   0   4 389.747 195.071  10
   0   0   4 251.968 180.533  15
   0   0   4 192.957 130.525   7
   0   0   4 186.779 132.802   9
   0   0  -4 295.379 190.040  13
   0   0  -4 420.261 176.280   6
   0   0   4 442.512 212.124  16
   0   0  -4 95.9971 175.250  12
   0   0  -5-78.5282 189.549   6
   0   0   5-36.9488 188.063   7
   0   0   5 307.481 265.570  15
   0   0  -5-278.065 264.101  13
   0   0   5-177.697 234.927  16
   0   0   5-165.176 242.096  10
   0   0   5 142.997 161.916   9
   0   0   6 44851.5 1662.85  10
   0   0   6 51257.0 1411.21   9
   0   0   6 51451.3 1704.35  16
   0   0  -6 54796.3 1627.50   6
   0   0  -6 47539.3 1817.44  13
   0   0   6 52662.1 1774.81  15
   0   0   7 471.002 383.861  16
   0   0  -7-619.382 434.172  13
   0   0   7-450.672 439.708  10
   0   0   7 23.9993 303.288  15
   0   0  -8 6099.56 928.333  13
   0   0   8 7681.67 892.182  10
   0   0   8 6754.51 827.596  15
   0   0   8 6429.14 830.822  16
   0   0   9-191.819 494.063  16
   0   0  -9-769.384 740.614  11
   0   1   2-123.422 118.502  15
   0   1   2-2.70315 110.551  16
   0   1   2 156.387 100.249   9
   0  -1   2-15.6539 78.9940   4
   0  -1   2-40.3668 91.2683  10
   0  -1  -2-2.92463 97.1547  12
   0   1  -2 6.77193 76.0499   3
   0   1  -2-131.525 108.104   6
   0  -1   2-27.7164 81.5474   2
   0  -1   2-66.1008 115.822   7
   0  -1  -2 36.7469 88.8068  13
   0   1  -2 35.2761 74.0772   1
   0   1   3 110016. 1871.22  15
   0  -1   3 102325. 1569.78  15
   0  -1   3 104479. 1527.04   4
   0  -1  -3 104784. 1817.27  12
   0   1  -3 104719. 1681.12  13
   0  -1   3 109348. 1804.39   7
   0   1   3 108592. 1421.25   8
   0   1   3 115062. 1666.56  10
   0  -1   3 105800. 1822.39  10
   0  -1   3 105844. 1546.24  16
   0  -1  -3 104230. 1535.00   5
   0   1   3 108323. 1764.62   9
   0   1  -3 106468. 1650.21   1
   0  -1  -3 108623. 1890.69  13
   0   1  -3 105053. 1839.47   6
   0  -1   3 106917. 1620.14   2
   0   1  -3 103704. 1557.39   3
   0   1   3 106885. 1847.94  16
   0  -1   4 799.665 293.964  10
   0   1  -4 630.771 262.041  13
   0  -1   4 366.142 222.103   7
   0  -1  -4 70.5828 129.233   6
   0  -1  -4-23.8041 223.559  13
   0   1  -4 112.820 166.568   3
   0   1   4 432.662 168.773   8
   0   1   4 388.595 253.832   9
   0   1   4 795.304 269.020  10
   0   1   4 265.021 259.062  16
   0  -1   4 264.125 207.720   4
   0   1   4 487.002 281.062  15
   0  -1   4 125.313 201.424  16
   0   1  -4 373.892 275.305   6
   0  -1   4 612.347 259.495  15
   0  -1  -4 374.308 227.792  12
   0   1  -5 36894.8 1394.83  13
   0  -1   5 37882.4 1286.72  16
   0  -1   5 38791.0 1327.03  15
   0   1  -5 37456.6 1399.16   6
   0  -1  -5 41286.0 1468.46  12
   0  -1  -5 39541.3 1487.02  13
   0   1   5 39526.3 1340.60  10
   0   1  -5 36993.0 1079.55   3
   0   1   5 39581.5 1452.98  15
   0   1   5 37666.0 1280.03   9
   0  -1   5 38103.9 1425.35  10
   0  -1   5 41210.0 1084.50   4
   0   1   5 39191.0 1432.10  16
   0  -1   5 38990.7 1364.26   7
   0   1   6 35.1893 293.307  10
   0  -1   6-294.848 255.994   7
   0   1   6-65.4117 293.285  16
   0   1   6-46.6916 314.961  15
   0  -1  -6-221.096 354.752  13
   0  -1  -6 275.908 327.361  12
   0   1  -6-258.782 334.944   6
   0   1  -6-154.152 332.130  13
   0  -1   6 183.142 259.248  16
   0  -1   6 76.4870 246.462  15
   0   1   6 177.743 267.388   9
   0  -1   6-78.3753 283.965  10
   0  -1  -7 276.175 360.081  12
   0  -1   7 226.372 342.322  10
   0  -1   7 351.819 332.162  15
   0   1   7-353.620 338.703  10
   0  -1   7-261.403 359.588  16
   0   1   7 173.417 317.328   9
   0   1   7 302.891 382.100  16
   0   1  -7-218.389 375.380   6
   0  -1  -7-49.4400 421.700  13
   0   1   7-31.9128 345.378  15
   0   1   8 726.107 467.500  15
   0  -1  -8 277.508 626.373  13
   0   1   8 206.386 419.409  16
   0   1   8-408.904 420.866  10
   0  -1   8 169.255 388.471  16
   0  -1  -8 23.5583 457.424  11
   0  -1   8 492.458 467.452  10
   0   1   9 9524.56 1066.69  16
   0   1   9 10253.3 1128.92  15
   0  -1  -9 11439.0 1287.27  11
   0  -1  -9 9957.21 1338.34  13
   0   2  -1-122.993 113.083   1
   0  -2   1 25.5550 109.989   7
   0   2  -1-22.4150 118.421   6
   0  -2  -1-34.9651 97.2687   4
   0  -2   1-58.0232 126.338   2
   0   2  -1-72.9667 127.024   3
   0  -2   1 153.241 131.116   5
   0   2   1-21.7620 115.375   9
   0  -2  -1-57.5230 122.653   2
   0   2  -1-119.320 107.021   8
   0   2   1 10.5717 91.0989   1
   0   2   1 137.842 102.336   3
   0   2   1 164.537 142.701   8
   0  -2  -1-93.4791 143.696   5
   0  -2   1-20.9380 125.597   4
   0   2   2 1763.27 217.262   3
   0  -2  -2 2056.63 293.175   5
   0  -2   2 1856.29 279.843   2
   0   2  -2 1633.74 232.701   8
   0  -2  -2 1893.83 216.260   2
   0  -2   2 1685.30 275.713   7
   0  -2  -2 1918.80 259.029  13
   0  -2   2 1970.74 239.812   5
   0   2   2 1874.21 275.233   8
   0   2   2 1861.83 285.872   9
   0   2  -2 1843.10 295.970   3
   0  -2   2 1844.78 283.787   4
   0  -2   2 1576.87 215.722  10
   0  -2  -2 1575.40 279.751  12
   0   2   2 1707.35 244.709  16
   0   2   2 1963.80 250.246  15
   0   2  -2 1731.22 264.812   1
   0  -2  -2 1850.72 221.684   4
   0   2   2 1680.28 201.309   1
   0   2  -2 1523.85 260.085   6
   0  -2   3-82.9615 118.948  16
   0   2   3-223.115 161.902  10
   0  -2   3-194.775 203.176   2
   0  -2  -3 283.237 258.063  12
   0   2   3 219.153 191.736  16
   0   2   3-103.613 228.708   9
   0  -2   3-209.613 210.261   4
   0  -2  -3 128.056 204.785   5
   0  -2  -3 32.2161 134.696  11
   0  -2  -3 49.0617 110.786   2
   0   2  -3 9.71461 167.223   1
   0  -2   3 14.0524 138.008   5
   0  -2   3-66.9309 183.747   7
   0   2  -3 81.2638 212.231   6
   0   2   3-148.986 181.534   8
   0  -2  -3 26.2791 211.576  13
   0   2   3-278.240 229.911  15
   0  -2   3-156.830 201.776  10
   0   2  -3 36.1853 195.225   3
   0   2   3-413.086 184.316   3
   0   2  -4 113.005 256.974   6
   0   2   4 455.465 202.619  10
   0   2  -4 237.696 204.019   1
   0   2   4 228.854 248.767  16
   0  -2   4 505.159 219.172   2
   0   2   4 303.895 235.624   9
   0  -2  -4 462.812 244.627   5
   0  -2   4 97.2668 234.975   7
   0  -2  -4 216.622 233.291  13
   0  -2   4 384.067 227.844   4
   0   2   4 495.494 201.696   8
   0  -2   4 330.964 231.887  10
   0  -2  -4 426.368 280.487  12
   0   2   4-35.4550 207.012  15
   0  -2   4 235.820 182.907  16
   0   2  -4 175.583 232.713   3
   0   2   5 31.5716 242.620  15
   0  -2  -5 96.0086 244.631   5
   0  -2  -5 172.200 273.951  13
   0   2   5 116.661 198.260   8
   0  -2   5-264.911 243.683  16
   0   2  -5 264.490 258.654   3
   0  -2   5-143.136 265.613   7
   0   2   5-13.4285 263.592   9
   0   2   5-152.982 296.087  16
   0  -2  -5-79.3279 294.727  12
   0   2   5-178.141 213.258  10
   0  -2   5-83.3079 251.404  10
   0  -2   5 48.5749 222.588   4
   0   2  -5-224.602 306.443   6
   0  -2  -6 37197.6 1700.91  12
   0   2   6 32355.5 1414.38   9
   0  -2   6 30985.3 1451.23   7
   0   2   6 35786.2 1566.89  15
   0   2   6 37345.9 1447.81  10
   0  -2   6 34948.1 1583.96  10
   0   2  -6 34909.4 1668.53   6
   0   2   6 33392.4 1513.52  16
   0  -2  -6 36785.2 1682.72  13
   0  -2  -6 36015.4 1483.01  11
   0  -2  -7-6.55624 381.616  11
   0   2   7 32.6301 364.608  15
   0  -2  -7 597.336 469.172  12
   0  -2   7-372.878 347.535   7
   0   2   7-203.381 426.415  16
   0  -2   7-565.334 432.969  10
   0   2   7-501.401 399.377   9
   0  -2  -7-517.255 456.634  13
   0   2  -7-488.434 495.926   6
   0  -2  -8 5562.43 918.649  13
   0   2   8 4706.34 771.373  16
   0  -2   8 6066.10 843.557  10
   0   2   8 4695.63 787.079  15
   0   2  -8 5372.89 989.390   6
   0  -2  -8 7017.39 1035.17  12
   0   2   8 5081.51 706.314   9
   0  -2  -9-399.808 663.221  13
   0  -2  -9-649.810 749.622  14
   0   2   9-229.853 446.648  15
   0   2   9 18.0704 490.748  16
   0   3   0 1165.96 325.765   9
   0   3   0 179.796 217.785   1
   0  -3   0 933.194 336.290   5
   0  -3   0 688.929 239.674   7
   0  -3   0 419.387 303.276   4
   0   3   0 421.668 233.631   6
   0  -3   0 417.796 264.961   2
   0   3   0 810.813 313.929   8
   0   3   0 989.206 343.165   3
   0   3   1 2866.71 360.893   3
   0  -3   1 2887.09 353.608   7
   0   3  -1 3286.23 397.093   8
   0   3  -1 3190.53 420.361   1
   0   3   1 3361.99 397.776   1
   0  -3  -1 3349.95 297.112  13
   0   3   1 3068.10 291.583   6
   0  -3  -1 3082.96 361.886  14
   0  -3  -1 2817.64 361.354   4
   0   3   1 3467.67 345.415  16
   0   3   1 3361.88 412.665   8
   0  -3  -1 2670.39 399.736   5
   0   3  -1 3955.00 438.058   9
   0   3  -1 3088.91 431.072   3
   0  -3   1 3113.18 433.864   4
   0   3  -1 3264.79 382.784   6
   0  -3  -1 3320.76 297.360   7
   0  -3   1 3070.67 414.214   2
   0   3   1 3342.56 398.157   9
   0  -3  -1 3197.14 385.986   2
   0  -3  -1 2807.10 392.892  12
   0  -3   1 3282.08 411.118   5
   0   3   1 3152.06 280.413  15
   0  -3   2-134.962 183.522  10
   0   3   2-179.613 224.801   9
   0   3  -2-191.791 264.953   3
   0  -3  -2 51.5518 161.832   2
   0   3  -2 223.387 192.477   8
   0  -3   2 69.6190 197.200   7
   0  -3  -2-113.362 236.094  12
   0   3   2-92.1965 165.128  16
   0   3  -2 120.253 219.379   6
   0  -3  -2-262.577 212.233  14
   0  -3   2 30.1352 184.291   2
   0  -3  -2 72.4204 224.643   5
   0  -3   2-135.296 196.568   5
   0  -3  -2-110.458 171.941   4
   0   3   2 214.974 196.187   3
   0   3  -2 21.8647 238.016   1
   0  -3  -2-49.8017 170.472  13
   0  -3   2-29.9353 219.335   4
   0   3   2 36.6965 156.888   1
   0   3   2 118.803 152.220  15
   0   3   2-237.666 228.901   8
   0  -3   3 35156.2 1388.26   2
   0  -3   3 33937.6 1158.93   5
   0  -3  -3 33371.3 1211.44  13
   0  -3  -3 33125.4 1134.43   4
   0  -3  -3 33784.6 1324.34   5
   0  -3  -3 33873.9 1047.74   2
   0  -3   3 32596.8 1312.24   4
   0   3   3 32627.5 1156.04  15
   0   3  -3 31976.0 1344.87   3
   0  -3  -3 34599.2 1399.49  12
   0  -3   3 34803.0 1360.67   7
   0   3  -3 31868.6 1301.74   1
   0   3  -3 30421.3 1206.88   8
   0   3   3 34538.6 1350.35   9
   0  -3   3 33562.2 1198.54  10
   0   3   3 32428.9 1087.76   3
   0   3   3 33088.9 1260.17   8
   0   3   3 31443.4 1161.49  16
   0   3  -3 31181.8 1348.64   6
   0   3   3 33698.0 1009.43   1
   0   3   4-88.0633 256.090  16
   0  -3   4-232.446 267.721   4
   0   3  -4 68.6618 311.812   6
   0   3  -4-91.5584 245.369   1
   0   3   4 90.7666 220.958   8
   0   3   4 60.6151 283.432   9
   0  -3  -4-268.025 338.367  12
   0  -3   4 89.6607 236.999   2
   0  -3  -4-446.360 318.000  13
   0   3  -4-13.7088 301.170   3
   0  -3   4 205.284 306.123   7
   0  -3   4-319.015 254.265  10
   0  -3  -4-95.7047 271.615   5
   0   3   4 158.778 238.422  15
   0   3   5 13379.2 984.237   9
   0  -3  -5 13041.0 1052.67  12
   0  -3  -5 14047.9 994.723  13
   0   3   5 12177.6 889.275  15
   0  -3  -5 14017.1 1016.41   5
   0   3   5 13626.1 858.197   8
   0   3   5 14394.5 990.843  16
   0  -3   6-119.694 355.993  10
   0  -3  -6 538.915 453.138  12
   0   3   6-137.701 400.348  16
   0   3   6-449.927 341.403  15
   0   3  -6-39.2513 443.244   6
   0  -3   6 3.39076 353.645   7
   0  -3   6-146.819 325.504   4
   0   3   6 48.1183 373.024   9
   0  -3  -6 101.133 398.758  13
   0  -3   7-425.511 439.995  10
   0   3  -7-730.182 625.267   6
   0  -3  -7-97.0727 473.506  13
   0   3   7-8.55212 384.885  16
   0   3   7-885.122 503.440   9
   0   3   7-56.1957 350.889  15
   0  -3  -7-616.976 515.873  14
   0  -3  -7 264.915 469.832  12
   0  -3   7 143.891 426.435   7
   0  -3  -8-2008.84 870.809  13
   0  -3  -8-3842.32 1166.10  12
   0  -3  -8 1908.71 883.838  14
   0   3   8 1204.80 585.746  15
   0  -3  -9 4125.00 856.826  14
   0   3   9 4310.52 850.760  15
   0  -3  -9 5063.52 1081.14  13
   0   3   9 5242.16 903.475  16
   0   3   9 3752.58 715.833   9
   0   4   0 455778. 5160.41   8
   0  -4   0 458131. 5161.49   2
   0   4   0 472599. 4440.01   6
   0  -4   0 463501. 4706.00  12
   0   4   0 468894. 5199.88   3
   0  -4   0 458316. 5314.24   5
   0   4   0 468306. 5136.16   1
   0   4   0 457726. 4740.71   9
   0  -4   0 468608. 5214.49   4
   0  -4   0 468636. 4406.75   7
   0  -4  -1-112.245 252.836   2
   0   4   1 275.630 258.857   3
   0   4  -1-356.914 292.692   1
   0  -4   1-112.140 343.588   4
   0  -4  -1-51.6670 237.521  12
   0  -4  -1-4.20110 282.737   4
   0   4   1 114.463 255.523   1
   0   4  -1 55.8926 231.864   6
   0   4   1-49.4494 248.397   9
   0  -4  -1 358.607 329.685   5
   0  -4   1-54.8266 280.023   5
   0  -4   1 238.441 217.970   7
   0  -4   1 3.55706 251.085   2
   0   4  -1-14.7116 254.717   8
   0   4   1-258.123 288.163   8
   0   4  -1 141.958 317.194   3
   0   4   2 1165.81 322.781   1
   0   4   2 960.611 379.850   8
   0   4  -2 514.477 339.831   1
   0   4  -2 1136.64 446.761   3
   0   4  -2 877.265 329.306   8
   0  -4  -2 338.409 311.965  12
   0  -4  -2 1016.73 338.029   2
   0  -4   2 892.676 367.776   2
   0  -4  -2 1377.32 389.849   4
   0  -4   2 568.738 318.398   5
   0   4   2 922.275 333.333   9
   0   4  -2 1028.05 382.363   6
   0   4   2 937.819 312.352   3
   0  -4  -2 881.191 372.060   5
   0  -4   2 1131.19 411.816   4
   0  -4   2 774.981 347.019   7
   0  -4  -3 15.6071 353.326  12
   0  -4   3 85.6053 272.156   5
   0  -4   3-446.547 355.724   2
   0   4  -3-81.9187 257.896   1
   0   4  -3-204.682 354.584   6
   0  -4  -3-305.471 326.013   5
   0   4  -3 13.1319 348.265   3
   0   4   3-189.874 301.900   8
   0  -4   3 141.504 316.486   4
   0  -4   3-92.0685 318.442   7
   0   4   3 107.373 327.344   9
   0   4  -3 1.97251 285.207   8
   0   4   4-277.952 338.316   9
   0   4  -4 554.928 462.568   6
   0   4   4-733.113 413.551   8
   0  -4   4-107.152 376.140   4
   0  -4  -4 310.597 341.319  13
   0  -4   4 9.12782 317.778   2
   0   4   4 254.992 312.073  16
   0   4   4 304.561 299.971  15
   0  -4  -4-437.789 378.729  14
   0  -4  -4 508.808 394.772   5
   0  -4   4-62.4258 345.172   7
   0  -4  -4-19.9311 356.498  12
   0   4  -4-299.738 350.993   1
   0   4  -4-135.306 395.980   3
   0  -4  -5-345.884 414.064   5
   0  -4  -5 535.470 486.125  12
   0   4   5-87.2418 374.607  16
   0  -4  -5-88.0806 429.985  14
   0  -4   5-256.859 372.499   2
   0  -4  -5 130.006 380.048  13
   0   4   5 383.578 318.046  15
   0   4  -5 259.272 410.471   3
   0   4  -5-154.275 389.160   1
   0   4   5-281.064 372.075   8
   0  -4   5-19.3615 367.311   4
   0   4  -5-300.141 534.670   6
   0  -4   5 20.2560 397.001   7
   0   4   5 555.192 437.779   9
   0   4   6 10721.0 1065.59   9
   0  -4  -6 11881.6 1132.21  13
   0   4   6 10880.4 1007.40  16
   0   4  -6 13964.7 1267.36   3
   0  -4   6 12334.2 1106.21   4
   0   4   6 10886.1 991.741  15
   0   4  -6 12440.8 1271.88   6
   0  -4  -6 12060.9 1201.55  12
   0  -4   6 13047.3 1181.01   7
   0  -4  -6 12624.9 1217.79  14
   0   4  -6 11737.3 1130.26  11
   0   4   7-1146.77 564.766   9
   0   4   7 618.128 516.851  15
   0  -4  -7-393.688 649.377  14
   0  -4  -7 651.570 579.058  13
   0   4   7 307.197 452.005  16
   0  -4  -7 468.433 628.114  12
   0   4   8 1809.66 611.722   9
   0   4   8 1907.69 628.010  15
   0   4   8 2475.55 643.152  16
   0  -4  -8 1806.53 895.917  14
   0  -4  -8 2608.82 852.117  13
   0  -4  -8 3695.07 1020.49  12
   0  -4  -9 24.4016 901.789  12
   0   4   9 725.316 551.218   9
   0  -4  -9 70.8210 913.644  14
   0   4   9 946.002 663.826  16
   0   5   0-85.4059 340.682   1
   0   5   0 260.967 376.307   3
   0  -5   0 46.2892 385.832   4
   0  -5   0 214.470 436.960   5
   0   5   0-903.540 434.222   8
   0  -5   0-485.291 413.685   2
   0   5  -1 1388.01 476.778   8
   0   5   1 1165.22 485.101   8
   0  -5  -1 1462.42 450.418  12
   0   5  -1 1327.16 442.680   1
   0  -5  -1 1104.40 470.312   5
   0  -5   1 1397.04 415.794   7
   0   5  -1 845.983 479.057   3
   0  -5  -1 1651.60 469.848   2
   0   5  -1 963.035 360.063   6
   0   5   1 1372.31 446.912   1
   0   5   1 1857.16 522.247   9
   0  -5   1 834.581 482.499   4
   0   5   1 1112.27 456.248   3
   0  -5   1 22.5464 420.435   2
   0  -5   1 1142.76 461.911   5
   0  -5  -1 1018.22 496.014   4
   0  -5  -2-586.838 464.588  12
   0   5   2 55.6418 323.188   1
   0  -5  -2 413.076 459.562   5
   0   5  -2 413.692 395.073   1
   0   5  -2-124.496 364.462   8
   0  -5  -2-338.905 395.434   4
   0  -5   2-69.4064 466.390   4
   0   5   2-472.539 427.743   8
   0  -5   2 25.8381 307.979   7
   0  -5  -2-248.800 336.687   2
   0   5  -2-485.994 425.139   6
   0   5  -2 770.825 508.467   3
   0  -5   2 174.811 349.149   5
   0  -5   2-0.98931 413.433   2
   0   5   2-914.791 466.193   9
   0   5   2 125.155 378.823   3
   0   5  -3 4982.18 786.994   3
   0   5   3 7201.90 828.010   8
   0  -5   3 6174.00 742.434   5
   0  -5  -3 6186.11 873.068   5
   0   5   3 5405.58 693.984   9
   0  -5  -3 4972.12 758.690  12
   0   5  -3 5907.94 797.328   8
   0  -5   3 4589.10 727.602   7
   0   5  -3 6213.76 801.896   6
   0  -5   3 5252.15 806.975   4
   0   5  -3 5591.66 777.637   1
   0   5  -4 205.827 510.472   3
   0  -5  -4 512.475 448.314   5
   0  -5  -4 108.402 485.972  12
   0  -5   4 1.31561 402.750   2
   0  -5   4-698.301 544.222   4
   0   5   4 207.035 419.389   9
   0   5  -4-14.8173 493.212   6
   0   5  -4-378.833 457.895   1
   0   5   4 156.531 386.284   8
   0  -5   4-186.421 435.775   7
   0   5  -5 2884.10 757.673   3
   0  -5   5 54.3163 631.454   2
   0   5   5 2660.24 581.934   8
   0   5  -5 2668.94 671.835   1
   0  -5   5 3413.72 737.041   7
   0   5   5 2620.27 671.098   9
   0  -5  -5 3190.94 754.612   5
   0   5  -5 4574.55 948.286   6
   0  -5  -5 3706.13 849.695  12
   0  -5   5 3044.91 744.703   4
   0   5   6 774.447 454.514   9
   0  -5  -6 206.196 504.141  12
   0  -5  -7-500.900 646.388  12
   0   5   7-264.223 561.995   9
   0   5   8-227.393 590.483  16
   0   5   8-1050.07 747.232   9
   0   6   0 86410.9 2944.24   8
   0  -6   0 81866.6 2986.04   4
   0  -6   0 83490.0 2923.99   2
   0  -6   0 82093.4 2964.28   5
   0   6   0 79003.0 2853.83   3
   0   6   0 84983.3 2863.01   1
   0   6  -1 121.403 545.891   3
   0  -6   1-1368.38 585.842   5
   0   6   1 447.368 433.830   1
   0   6   1 25.9895 441.620   3
   0  -6   1-23.0549 485.423   2
   0  -6  -1-453.705 488.896   4
   0  -6   1-475.708 591.892   4
   0   6  -1-544.690 524.035   8
   0  -6  -1-252.672 429.743   2
   0   6  -1-385.804 436.161   1
   0  -6  -1-77.4388 474.376   5
   0   6   1-597.590 544.191   8
   0  -6  -2 707.954 509.126  12
   0  -6  -2 304.604 509.285   5
   0  -6   2 667.689 500.558   5
   0   6   2 642.275 507.903   3
   0  -6   2 329.240 579.551   4
   0   6  -2 96.9471 393.612   1
   0   6  -2-443.781 483.413   8
   0   6  -2-30.9833 561.850   3
   0  -6  -2-152.360 400.311   2
   0   6   2 659.433 441.209   9
   0   6   2-58.0297 404.536   8
   0  -6   2 0.41710 480.770   2
   0  -6   3-559.855 503.934   5
   0   6   3-677.361 513.689   9
   0  -6  -3 339.987 511.961   5
   0   6  -3-159.665 559.034   3
   0   6  -3-149.841 464.640   1
   0   6   3-901.513 524.856   8
   0  -6  -3 182.830 456.078  12
   0   6  -3-62.1933 560.296   6
   0  -6   3-13.6557 487.203   2
   0  -6   3-687.477 513.311   4
   0  -6   4 1.16316 454.411   2
   0   6  -4-897.723 549.838   1
   0   6   4 705.714 549.695   9
   0  -6  -4-1059.51 614.497  12
   0   6  -4 695.887 700.236   3
   0   6  -4 276.105 560.040   6
   0  -6  -4-75.1511 592.371   5
   0  -6   4 12.3898 511.737   4
   0   6   4 110.976 480.312   8
   0   6   5-928.802 586.607   8
   0  -6  -5-715.609 640.793  12
   0   6   5-36.6852 553.582   9
   0  -6  -5 28.3274 624.185   5
   0  -6  -6 2570.44 1082.65   5
   0  -6  -6 1613.32 826.758  12
   0   6   6 2269.24 767.334   9
   0  -7   0-647.473 693.870   5
   0  -7   0-5.84367 635.877   4
   0   7   0-636.299 571.684   1
   0  -7   0-209.282 487.388   2
   0   7   0-143.292 498.699   8
   0   7   0-86.1253 531.142   3
   0  -7   1-0.49763 505.362   2
   0  -7   1 598.026 604.518   5
   0   7  -1 409.259 547.324   8
   0  -7  -1-641.132 657.603   4
   0  -7  -1-372.382 467.765   2
   0  -7   1 435.320 586.242   4
   0   7   1 702.982 605.394   8
   0   7  -1 291.436 610.003   3
   0   7   1 93.4214 636.981   3
   0   7  -1 728.219 573.245   1
   0  -7  -1-502.631 723.473   5
   0   7   1 826.360 552.534   1
   0  -7   2 45.9283 591.165   5
   0   7  -2 991.920 780.345   3
   0   7   2-26.9351 486.904   8
   0  -7   2-43.3532 552.993   2
   0  -7   2 543.681 657.624   4
   0  -7  -2-1233.27 835.887   5
   0   7  -2 820.266 590.949   1
   0  -7  -3 644.456 711.037   5
   0  -7   3 268.824 694.381   4
   0   7   3-176.390 573.035   8
   0   7   3 784.464 676.483   9
   0  -7  -3 1262.49 658.659  12
   0   7  -3-549.470 503.030   1
   0   7  -3-1104.27 867.103   3
   0   7   4-418.377 554.597   9
   0  -7  -4-570.480 832.162  12
   0  -7  -4 505.466 708.117   5
   0   7   4-930.926 709.296   8
   1   0   2 17074.2 584.834  15
  -1   0  -2 16388.0 601.391  14
  -1   0  -2 17181.4 627.631  11
   1   0   2 17060.0 585.411  10
   1   0   2 17938.9 581.074  16
   1   0   3 18941.0 748.031  10
   1   0   3 17770.2 712.240  16
  -1   0  -3 18212.2 769.250  11
   1   0   3 17700.9 717.083  15
   1   0   3 19196.1 599.535   9
  -1   0  -3 18772.2 677.656   6
   1   0   3 19701.2 647.664   7
  -1   0  -4 94893.8 1641.95  12
   1   0   4 90412.5 1580.11   7
  -1   0  -4 87927.4 1917.23  11
   1   0   4 91675.5 1855.53  15
   1   0   4 94107.4 1512.55   9
   1   0   4 91213.0 1827.21  16
  -1   0  -4 92582.1 1718.91   6
  -1   0   4 86900.9 1874.79  15
  -1   0   4 89161.9 1872.79  16
   1   0   4 91325.1 1870.70  10
   1   0   5 51941.4 1585.68  10
  -1   0  -5 55541.0 1445.36  12
  -1   0  -5 51575.6 1667.84  11
   1   0   5 54922.4 1385.66   7
  -1   0  -5 53404.1 1660.85  13
   1   0   5 53161.5 1586.22  16
  -1   0   5 52673.3 1618.31  16
   1   0   5 53732.3 1623.84  15
   1   0   5 55022.9 1291.46   9
  -1   0  -5 54625.5 1477.41   6
  -1   0   5 52750.8 1658.21  15
   1   0   6 77.3044 270.116  15
  -1   0  -6 120.455 244.650   6
   1   0   6-125.183 315.901  10
  -1   0  -6 644.810 370.659  11
   1   0   6 153.445 199.316   7
  -1   0  -6 139.229 354.810  13
  -1   0   6 203.360 288.718  16
   1   0   6 192.486 250.801  16
  -1   0  -7 7535.43 821.090  11
  -1   0  -7 9407.34 955.822  13
   1   0   7 9519.01 861.373  10
  -1   0  -7 7064.16 825.534  14
   1   0   7 8777.11 821.694  16
   1   0   7 8609.63 850.894  15
   1   0   8 10777.7 965.809  16
   1   0   8 12732.2 1100.16  15
   1   0   8 11866.7 1067.08  10
  -1   0  -8 12650.9 1199.16  14
  -1   0  -8 12819.7 1207.61  11
  -1   0  -8 11902.7 1189.19  13
   1   0   9 4932.37 856.182  10
  -1   0  -9 3471.16 890.808  13
  -1   0  -9 3849.79 859.246  14
   1   0   9 2287.33 606.556  15
  -1   0  -9 3539.81 827.055  11
   1   0   9 4156.40 711.789  16
  -1   0 -10 3548.79 1133.20  13
   1   0  10 3353.14 743.204  10
  -1   0 -10 3545.95 1043.77  11
  -1   0 -10 3113.95 1018.07  14
   1   0  10 2609.98 678.444  15
   1   0  10 2126.58 678.112  16
   1   1   1 20209.2 634.580   9
  -1   1  -1 20278.8 651.197   6
   1  -1  -1 21818.5 685.448  12
   1  -1   1 19993.2 594.236   4
   1  -1  -1 20555.6 664.795   5
   1  -1  -2 112835. 1836.96  12
  -1   1  -2 117423. 1557.09   1
  -1   1  -2 117011. 1557.17   3
   1   1   2 117593. 1656.00  16
   1   1   2 114620. 1645.96  15
  -1   1  -2 114279. 1714.90  11
  -1  -1  -2 116878. 1815.35  14
  -1   1   2 117618. 1681.13  15
   1  -1   2 114544. 1512.09   4
   1  -1  -2 117337. 1832.86  13
  -1   1  -2 116439. 1759.50   6
   1  -1   2 114563. 1530.27   2
   1  -1   2 114575. 1702.14   7
  -1  -1  -2 113008. 1764.53  11
   1   1   2 116586. 1655.73   9
   1  -1   2 114010. 1649.22  10
  -1   1  -3 141.721 165.568   6
  -1   1  -3 237.698 124.325   1
   1  -1   3 230.082 158.777  10
  -1   1   3 325.994 164.431   9
  -1  -1  -3 302.988 129.329   5
   1   1   3 227.681 141.366  10
   1  -1   3 99.3934 104.058   4
  -1  -1  -3 185.364 173.128  14
   1  -1  -3 422.587 189.354  13
   1   1   3 152.552 93.9755   8
   1   1   3 89.5413 160.711  15
   1  -1   3 285.440 125.948   2
   1  -1   3 181.452 115.844  15
   1   1   3 343.340 164.067   9
  -1   1  -3 281.291 163.128  11
   1  -1   3 118.289 110.294  16
  -1   1  -3 155.623 123.929   3
  -1  -1  -3 42.7674 131.870  11
   1   1   3-60.3486 146.005  16
  -1   1   3 123.971 129.727  16
   1  -1  -3 124.129 150.850  12
  -1   1  -3 130.628 135.460  14
   1  -1   3 215.440 145.711   7
  -1   1   3 187.601 136.957  15
   1   1   4 95418.6 1835.73   9
   1   1   4 98373.6 2055.67  15
  -1  -1  -4 94354.1 1978.73  12
   1  -1   4 96603.2 1576.22   4
  -1   1   4 95722.5 1582.82   8
  -1   1  -4 92862.4 1596.74   1
   1  -1   4 92518.1 1802.13  15
   1   1   4 96148.9 1397.01   8
   1   1   4 90275.0 1959.19  16
   1  -1   4 95619.9 1574.42   2
  -1   1  -4 96016.0 1839.93  13
  -1   1   4 101091. 2089.92  15
   1   1   4 90260.1 1290.30   7
   1  -1   4 95794.3 1917.70   7
  -1   1  -4 92827.3 1972.89   6
   1  -1   4 90246.7 1971.07  10
  -1   1  -4 96931.9 1604.15   3
  -1  -1  -4 95263.5 1612.41   6
   1  -1  -4 93133.0 2196.08  12
   1  -1   4 96395.8 1783.11  16
  -1   1   4 94808.5 1916.04   9
  -1   1   4 91672.4 2014.33  16
   1  -1  -4 95781.5 2213.68  13
  -1  -1  -4 96457.3 1967.61  11
   1   1   4 98603.8 1870.53  10
  -1  -1  -4 98733.8 1531.03   5
  -1   1   5 67909.9 1770.26   9
   1   1   5 67691.1 1881.01  16
   1   1   5 68042.8 1684.86   9
  -1   1   5 68984.3 1940.82  16
   1   1   5 69539.7 1777.20  10
  -1   1   5 69018.4 1392.83   8
  -1   1  -5 65501.8 1810.16   6
  -1   1   5 69734.9 1950.21  15
   1  -1   5 69256.9 1930.76  10
  -1  -1  -5 70782.8 1913.54  11
  -1   1  -5 65964.1 1765.29  13
   1  -1   5 68359.2 1762.03  15
   1  -1  -5 71435.9 2160.65  13
  -1  -1  -5 66567.2 1963.11  13
   1   1   5 66689.0 1888.30  15
  -1   1  -5 68564.2 1968.32  11
  -1  -1  -5 69444.4 1879.07  12
   1  -1   5 69525.3 1707.79  16
  -1   1  -5 69975.2 1597.57   1
   1  -1   5 68732.1 1796.09   7
  -1  -1  -6 125.526 371.679  13
  -1   1   6 415.055 304.471   9
  -1   1  -6 474.017 307.653  13
   1   1   6 197.225 256.435   9
  -1   1  -6 9.03375 289.510   6
   1  -1   6 248.645 300.001  16
  -1  -1  -6 46.0898 363.769  14
  -1  -1  -6 401.500 302.620  12
  -1   1   6-160.533 350.887  16
  -1   1  -6 295.046 357.224  11
   1  -1   6 73.8613 261.797   7
  -1  -1  -6 361.870 330.229  11
   1  -1   6 314.253 265.574  15
   1  -1   6 478.575 307.376  10
   1  -1  -6 202.756 424.841  13
   1   1   6-80.4926 314.019  16
   1   1   6 43.2457 316.805  15
  -1   1   6 88.3017 257.494  15
   1   1   6 296.911 279.631  10
   1   1   7 6152.29 678.897  10
  -1   1   7 6133.88 668.451   9
  -1  -1  -7 7333.71 852.673  12
   1   1   7 5751.84 604.576   9
  -1  -1  -7 6246.00 804.996  13
  -1   1   7 6554.30 781.687  15
  -1   1   7 6835.50 816.201  16
  -1   1  -7 6706.09 810.597  13
   1   1   7 5860.75 715.298  16
  -1  -1  -7 6133.23 772.465  11
   1  -1   7 5686.77 651.659  16
   1  -1   7 6195.56 676.413  15
   1  -1   7 5931.93 641.402   7
  -1   1  -7 5989.32 731.225  14
   1  -1   7 7836.60 838.942  10
  -1   1  -7 6087.14 739.674   6
  -1  -1  -7 6513.12 829.545  14
  -1   1  -7 6498.58 816.498  11
   1   1   7 6065.55 750.081  15
   1   1   8 23532.9 1442.69  16
  -1   1  -8 26098.7 1707.00  11
  -1   1  -8 28093.8 1728.62  13
   1   1   8 25689.8 1457.61  10
  -1   1  -8 28276.9 1689.18  14
  -1  -1  -8 25079.3 1656.08  14
   1   1   8 28224.0 1623.99  15
   1  -1   8 24913.6 1415.11  16
  -1  -1  -8 24611.6 1610.91  11
  -1  -1  -8 26266.5 1682.34  13
   1  -1   8 25636.1 1455.20  15
   1  -1   8 25549.2 1539.99  10
   1  -1   9-285.363 500.734  10
   1   1   9 740.390 505.366  10
  -1   1  -9 1088.79 676.383  13
  -1   1  -9 276.102 763.495  14
   1   1   9-40.9567 457.415  16
  -1   1  -9 1009.96 675.404  11
   1   1   9 228.970 473.657  15
   1  -1   9 55.8780 424.619  16
   1  -1   9 194.634 428.665  15
  -1  -1  -9 266.037 625.531  14
  -1  -1  -9-40.8401 587.335  13
  -1  -1  -9 48.3095 577.316  11
   1  -1  10 858.751 579.212  10
   1   1  10 1544.52 624.365  10
  -1  -1 -10 3361.90 1130.52  13
  -1   1 -10 1393.49 962.429  14
   1   1  10 1833.07 657.185  15
  -1  -1 -10 999.674 758.182  14
   1   1  10 1362.10 690.483  16
  -1  -1 -10 1400.52 840.737  11
  -1   1 -10 74.5747 754.322  11
  -1   2   0 111.591 98.6666   9
   1  -2   0 232.447 156.365   5
   1   2   0 63.7651 119.138   3
   1  -2   0 176.414 138.291   4
   1  -2   0-70.9753 102.075   2
   1  -2   0-22.7957 101.392   7
  -1  -2   0-48.2541 93.6335   2
   1   2   0 162.238 133.221   8
   1   2   0 25.3357 105.143   1
  -1  -2   0 155.296 139.829   4
  -1   2   0-106.561 132.024   1
   1  -2   0 59.8587 106.145  12
  -1   2   0-0.36699 102.356   6
  -1   2   0-88.0180 114.369   3
  -1   2   0 122.932 115.231   8
  -1  -2  -1 34764.8 968.934   4
  -1   2   1 35315.4 984.632   9
   1   2   1 33881.4 1006.48   9
   1  -2   1 33577.0 1023.81   4
   1  -2  -1 35593.2 968.774   2
  -1   2   1 34699.8 965.948   1
  -1   2   1 34999.9 1041.10   8
   1  -2  -1 36510.8 1004.20   4
   1  -2   1 33903.0 1016.59   2
   1   2   1 34953.4 1024.46   8
  -1   2  -1 33092.6 1018.94   1
   1  -2   1 35560.6 956.485   5
   1   2  -1 31951.9 1069.39   3
   1  -2   1 34162.0 967.607   7
  -1  -2  -1 34045.1 938.347   2
  -1  -2   1 33323.6 1057.28   2
  -1   2  -1 34353.6 919.401  11
  -1   2  -1 32075.2 896.279   8
   1   2   1 32868.4 1049.31  16
   1   2   1 35000.9 939.801   1
  -1   2   1 35846.3 1025.14   3
   1   2   1 34637.3 940.489   3
   1   2  -1 33776.5 1052.74   1
   1   2   1 34971.5 867.598  15
  -1   2  -1 33912.8 1051.19   3
  -1   2  -1 33214.7 1020.15   6
  -1  -2   1 32447.8 1074.05   4
   1  -2  -1 36778.7 1046.51  12
   1  -2  -1 34991.5 1048.61   5
  -1  -2  -1 33310.4 1048.60   5
  -1   2  -2 8333.52 568.440   3
   1   2   2 8728.84 516.114  15
  -1   2   2 9229.80 576.629   9
  -1   2   2 8867.68 483.198   1
  -1  -2  -2 9747.55 466.468   4
  -1  -2  -2 9113.85 478.164   2
  -1   2   2 8867.25 559.474   8
  -1   2  -2 8464.74 465.854   8
   1  -2   2 9310.00 576.844   2
   1  -2   2 8070.44 552.512   4
   1  -2  -2 8834.43 589.580   5
  -1  -2   2 9580.46 608.320   4
   1  -2  -2 8971.99 607.052  12
  -1   2  -2 8717.63 518.600  11
  -1   2   2 8144.39 495.142  15
  -1  -2  -2 8536.23 593.898  14
  -1   2  -2 8751.32 559.922   1
   1   2   2 8605.12 526.053  16
  -1   2   2 9411.30 522.385  16
   1  -2  -2 8730.19 540.280  13
   1   2   2 8824.98 444.898   1
   1   2  -2 9457.37 627.079   3
  -1   2  -2 8638.79 586.659   6
   1   2   2 8852.90 435.556   3
   1   2   2 9147.58 542.114   8
   1   2   2 8700.89 560.671   9
  -1  -2   2 8070.90 555.998   7
   1  -2   2 8678.95 570.441   7
   1  -2   2 9101.39 499.736  10
   1  -2   2 8850.21 464.967   5
  -1  -2  -2 8430.28 554.883   5
   1  -2  -2 8970.19 491.883   2
  -1   2  -3 9121.98 506.808   8
   1  -2   3 8775.57 436.112  16
   1   2   3 9133.98 669.450   9
   1  -2   3 9191.99 463.376  15
  -1   2   3 8658.37 468.285   1
  -1   2   3 8842.63 579.216   8
   1   2   3 8459.18 561.238   8
   1  -2   3 8665.08 619.637   4
  -1   2  -3 9980.08 714.417   6
   1   2   3 9131.81 625.531  16
  -1   2   3 8802.59 611.654  16
   1   2   3 8999.66 621.878  15
   1   2   3 9016.14 408.793   3
  -1   2  -3 9437.49 516.111  14
  -1   2   3 8912.21 646.834   9
   1  -2  -3 8869.11 641.255  13
  -1   2  -3 9826.08 463.383  13
   1  -2   3 9487.58 669.319   7
   1  -2  -3 8838.52 629.540   5
  -1   2   3 9021.28 603.755  15
  -1   2  -3 8375.51 624.486   3
   1  -2  -3 8973.99 689.103  12
  -1   2  -3 9281.29 633.108   1
   1  -2   3 9610.05 621.216   2
  -1  -2  -3 10059.7 688.645  11
  -1   2  -3 8550.47 612.230  11
  -1  -2  -3 10152.9 723.528  14
   1   2   3 9827.93 496.873  10
   1  -2   3 8553.94 599.930  10
   1  -2   3 8516.00 439.491   5
  -1  -2  -3 8878.99 602.532   5
  -1  -2   3 8554.86 645.029   7
   1  -2  -3 8793.27 478.394   2
  -1   2   4 52326.3 1612.23   9
   1  -2   4 50101.7 1565.53   7
  -1   2   4 53226.5 1612.27  16
  -1   2   4 53050.8 1422.98   8
   1  -2   4 50746.1 1409.17   4
   1  -2   4 50369.8 1431.74   2
  -1  -2  -4 48242.6 1649.50  12
   1  -2   4 51010.2 1211.38  16
   1   2   4 50579.7 1321.82   8
  -1   2   4 54642.5 1597.34  15
   1  -2   4 48600.5 1221.98  15
  -1   2  -4 49617.9 1443.53   1
   1   2   4 49371.9 1531.17   9
  -1  -2  -4 51800.0 1673.94  14
   1   2   4 51843.6 1552.75  15
  -1   2  -4 50448.9 1271.40  13
  -1   2  -4 50989.5 1451.12   3
  -1   2  -4 49067.4 1628.92   6
   1  -2  -4 47085.8 1639.21  12
  -1   2  -4 51751.1 1319.24  14
  -1  -2  -4 50772.2 1440.04   5
  -1  -2  -4 52709.5 1538.14  11
   1   2   4 50669.0 1540.93  16
  -1   2  -4 49983.8 1589.83  11
   1  -2  -4 50987.1 1696.80  13
   1   2   4 51744.8 1283.62  10
   1  -2   4 50042.6 1548.15  10
   1  -2   5 33239.7 1237.72   2
  -1   2   5 32774.6 1424.08  16
  -1   2   5 33000.1 1383.68   9
   1  -2  -5 32916.8 1544.89  12
   1   2   5 33086.3 1198.41  10
  -1  -2  -5 34075.5 1504.52  14
  -1   2   5 33841.5 1180.40   8
   1  -2   5 34522.8 1207.48   4
   1  -2   5 33327.5 1136.58  16
   1   2   5 32658.5 1366.51  16
   1   2   5 31539.4 1363.94  15
  -1   2   5 31210.4 1359.57  15
  -1   2  -5 32704.3 1435.04  11
  -1   2  -5 32891.8 1226.44   3
  -1   2  -5 33749.4 1312.67   1
  -1  -2  -5 32838.3 1467.83  13
  -1   2  -5 34222.2 1257.03  14
  -1   2  -5 30382.2 1188.06  13
   1   2   5 32509.0 1337.84   9
   1  -2   5 32676.1 1379.23   7
  -1  -2  -5 34211.3 1391.94  11
  -1  -2  -5 33786.1 1474.19  12
  -1   2  -5 32977.6 1452.23   6
   1  -2   5 31748.8 1133.86  15
   1  -2  -5 33010.7 1548.75  13
   1  -2   5 33205.9 1393.35  10
   1  -2   6-358.889 349.015  10
  -1   2   6-281.792 353.581   9
   1   2   6 528.207 338.743   9
   1  -2   6-91.0299 292.749   7
  -1  -2  -6-477.753 383.905  11
   1   2   6 497.973 376.728  15
   1  -2   6-10.3409 260.628  15
  -1   2   6-272.369 334.091  15
  -1  -2  -6-528.603 432.185  14
   1   2   6-132.587 271.333  10
   1   2   6 296.451 342.952  16
  -1  -2  -6 363.988 382.161  12
   1  -2  -6 414.149 395.168  13
  -1  -2  -6-435.823 454.027  13
   1  -2  -6 202.992 333.323  12
  -1   2   6 197.652 316.782  16
  -1   2  -6 730.886 418.707   6
  -1   2  -6-441.727 432.114  11
   1  -2   7 6026.73 739.575  10
  -1   2   7 5601.48 676.582   9
   1   2   7 5331.30 660.167   9
   1   2   7 5589.50 734.960  16
  -1   2   7 6570.60 811.622  15
   1  -2   7 6573.00 797.848   7
  -1   2   7 5635.50 781.044  16
   1   2   7 6225.03 774.467  15
  -1  -2  -7 4748.86 776.928  14
  -1  -2  -7 7371.65 924.777  13
  -1  -2  -7 7671.48 934.985  12
  -1   2  -7 5034.65 760.402  11
  -1  -2  -7 5881.25 786.072  11
  -1   2  -7 6070.83 797.320   6
   1  -2   8 9701.26 1060.27  10
   1   2   8 8197.55 843.486   9
   1  -2   8 8228.33 930.314   7
   1   2   8 8167.32 915.108  16
   1   2   8 8380.37 944.996  15
  -1  -2  -8 7863.98 1068.22  12
  -1   2  -8 9249.32 1070.76   6
  -1   2  -8 8314.89 1111.10  11
  -1  -2  -8 8192.57 1111.09  13
  -1  -2  -8 10508.6 1184.29  14
   1  -2   9 1718.53 617.576  10
   1   2   9 3328.69 757.939  16
  -1  -2  -9 2047.47 832.620  13
  -1  -2  -9 2548.84 849.999  14
   1   2   9 3027.80 716.939  15
  -1   2  -9 2123.96 680.262   6
  -1   2  -9 1920.80 791.020  11
   1   2  10 1449.09 699.543  15
  -1  -2 -10 1939.12 1027.30  14
  -1  -2 -10 2385.48 973.542  13
   1  -2  10 3053.96 780.872  10
  -1   2 -10 1492.09 997.957  11
   1   2  10 1618.38 643.974  16
  -1   3   0 57.5324 200.933   6
   1  -3   0 270.676 223.081   5
   1   3   0-234.881 229.452   3
   1   3   0 441.128 256.959   9
   1   3   0 462.858 227.936   1
   1  -3   0-155.280 225.104   4
  -1   3   0-156.002 223.044   8
  -1  -3   0-85.0487 228.300   5
   1   3   0 241.149 209.951   8
   1  -3   0 108.910 171.229   7
   1  -3   0-118.138 218.675   2
   1  -3   0-96.8971 185.511  12
  -1   3   0 60.5400 195.157   9
  -1   3   0 37.9764 185.958   1
   1   3   0 218.061 193.592   6
  -1  -3   0 199.471 248.045   4
  -1  -3   0 21.7237 196.216   2
  -1   3   0-4.08329 221.188   3
   1  -3  -1 3379.51 305.657   7
  -1   3   1 3395.33 398.388   6
   1  -3  -1 3132.56 417.485   5
  -1   3   1 3346.10 391.104   9
   1  -3   1 3224.16 406.723   5
  -1   3  -1 3319.67 309.504   9
   1  -3   1 3089.90 425.162   4
   1   3   1 3166.43 382.036   9
  -1  -3  -1 2673.70 416.249   5
  -1  -3   1 3127.60 425.715   5
  -1   3  -1 2811.71 414.683   3
  -1   3   1 3276.53 411.493   8
  -1   3  -1 3425.15 401.530   8
  -1   3   1 3657.30 411.932   1
  -1  -3  -1 3249.80 395.571   2
   1  -3  -1 3033.83 385.183   4
   1   3  -1 3403.55 402.149   6
   1   3   1 3626.89 319.131   6
   1  -3  -1 3084.74 388.531   2
   1   3   1 3483.88 314.500  15
  -1  -3   1 3545.23 479.626   4
   1  -3   1 3181.67 407.028   7
   1  -3   1 3170.46 426.378   2
  -1   3   1 3283.12 283.485  16
   1   3   1 3291.49 388.036   1
   1  -3   1 3026.24 293.162  12
   1   3   1 3023.54 401.833   8
   1  -3  -1 3042.55 387.132  12
   1   3   1 3630.56 423.441   3
   1   3  -1 3387.32 472.252   3
  -1   3  -1 3052.39 389.773   6
  -1   3  -1 2726.63 328.855  11
  -1  -3  -1 3373.35 425.281   4
   1   3  -1 2513.84 363.503   8
  -1   3  -1 3116.99 415.725   1
  -1   3   1 3083.45 390.484   3
   1  -3   1 2981.30 258.072  10
   1   3  -1 3285.32 413.797   1
  -1  -3   1 3468.89 438.182   2
  -1  -3   2 32456.9 1319.38   2
  -1   3   2 31401.6 1234.90   9
   1   3   2 32274.8 1231.82   9
  -1   3  -2 32508.2 1279.69   1
   1  -3  -2 33742.6 1209.87   4
  -1   3   2 32398.1 1238.32   8
   1  -3  -2 34208.0 1160.62   2
  -1   3  -2 32644.1 1154.00   8
   1   3   2 32842.1 1248.73   8
   1  -3   2 33032.9 1280.75   4
   1  -3   2 33004.6 1303.36   2
  -1  -3  -2 34876.9 1143.71   4
  -1  -3   2 32163.2 1340.83   4
  -1   3   2 31653.8 1113.64   1
  -1   3   2 33731.8 1229.39   3
   1   3   2 32600.3 1163.74  16
  -1   3   2 35697.2 1086.32  15
   1   3   2 31769.3 1052.30   1
  -1  -3   2 30904.0 1249.22   7
   1  -3  -2 29856.6 1079.62  13
  -1   3  -2 32603.1 1295.84   3
  -1  -3  -2 29955.8 1081.10   2
  -1  -3  -2 33736.8 1338.88   5
   1  -3   2 30151.5 1117.95   5
   1   3  -2 31746.2 1284.30   1
  -1  -3  -2 33962.1 1469.16  14
  -1   3  -2 34453.2 1283.32   6
   1   3  -2 34132.5 1322.68   6
  -1  -3   2 34409.6 1255.94   5
   1  -3  -2 32796.9 1322.27  12
  -1   3   2 33402.2 1072.98  16
  -1   3  -2 32014.2 1061.45  11
   1  -3   2 34620.5 1259.74   7
   1   3   2 31953.9 1080.92   3
   1   3   2 32032.0 1055.39  15
   1  -3   2 32988.0 1016.44  10
   1  -3  -2 30640.2 1272.44   5
   1   3  -2 32884.0 1362.53   3
   1  -3  -3-338.042 261.615   5
  -1   3  -3 39.1407 319.317   3
   1   3   3-76.9194 172.422   3
  -1  -3  -3 63.0828 165.083   2
  -1   3   3 539.168 298.028   9
  -1   3   3 27.3986 210.628  16
   1  -3   3 12.7669 172.136   5
   1   3  -3-204.438 289.769   3
   1  -3  -3 314.787 200.227   2
  -1  -3   3-81.7269 219.816   5
  -1   3   3-245.833 234.984   8
   1   3   3 266.841 239.552  16
  -1   3  -3 547.951 527.640   1
  -1  -3  -3-247.082 308.872  14
   1   3   3 41.5499 221.710  15
   1   3   3-285.139 193.797   1
   1  -3   3-290.751 273.641   7
  -1   3   3 43.4324 175.129  15
   1   3   3-174.404 235.838   9
   1  -3   3 75.1440 238.035   2
  -1  -3   3-172.787 230.344   7
   1  -3  -3 296.240 230.331  13
  -1  -3   3 141.624 261.199   4
   1   3   3 209.616 244.013   8
  -1   3  -3 251.843 361.162   8
   1  -3  -3-229.114 277.875  12
  -1   3   3 285.655 210.867   1
  -1  -3  -3-17.0845 263.932   5
   1   3  -3 165.768 274.619   6
   1  -3   3-25.4204 252.383   4
   1  -3   3 245.353 213.287  10
  -1   3   4 34755.2 1373.29  16
  -1   3  -4 37261.0 1455.02  11
  -1   3  -4 34205.8 1529.41   6
  -1  -3  -4 34910.5 1534.55  14
  -1   3   4 34481.7 1359.91   8
   1   3   4 35445.2 1348.91   8
   1  -3   4 36885.2 1411.73   4
   1  -3   4 36693.1 1455.77   2
   1   3   4 36374.7 1391.88  16
   1   3   4 34339.5 1447.45   9
   1  -3   4 36525.5 1505.31   7
  -1   3  -4 35860.8 1477.43   1
   1   3   4 35489.0 1391.92  15
  -1   3   4 35247.8 1471.41   9
  -1   3   4 34913.9 1365.55  15
   1  -3  -4 35245.8 1504.73  13
   1  -3  -4 33760.9 1558.59  12
  -1  -3  -4 36103.9 1580.23  12
   1  -3   4 34249.0 1344.55  10
   1  -3  -4 33682.2 1501.34   5
  -1  -3  -4 35063.3 1441.54   5
  -1   3  -4 34357.6 1431.70   3
  -1   3   5 29420.4 1452.06   9
   1   3   5 28418.1 1393.04   9
  -1   3   5 29807.8 1282.55   8
   1  -3   5 29457.6 1317.12   4
  -1   3   5 27872.8 1355.30  16
   1   3   5 27611.1 1337.14  16
  -1   3  -5 27482.2 1416.99  11
   1  -3   5 30532.0 1390.00   2
   1   3   5 27671.2 1343.49  15
   1  -3   5 27610.4 1398.19   7
  -1   3   5 28725.9 1367.28  15
  -1   3  -5 28337.2 1459.52   6
   1  -3  -5 29755.3 1549.34  13
  -1  -3  -5 28772.5 1436.09  13
  -1   3  -5 29206.5 1355.65   3
   1  -3  -5 26613.7 1522.48  12
  -1  -3  -5 25491.5 1489.33  12
  -1  -3  -5 28340.1 1512.01  14
   1  -3   5 28951.4 1347.62  10
  -1   3  -5 26669.3 1353.69   1
   1  -3  -5 24322.3 1415.26   5
  -1  -3  -5 28534.7 1387.22   5
   1   3   5 26641.5 1171.66   8
  -1   3   6 386.887 326.414  15
   1  -3   6-5.48448 324.737  10
  -1   3   6-123.463 397.441   9
   1   3   6 516.561 393.897   9
  -1   3  -6 962.279 480.795   1
   1  -3   6 117.936 344.799   7
  -1   3   6-370.664 361.682  16
   1   3   6 237.811 377.915  16
   1   3   6 339.652 382.684  15
  -1  -3  -6 10.3782 441.452  14
   1  -3  -6 698.005 515.681  13
   1  -3  -6 388.173 515.682  12
  -1  -3  -6 1027.41 533.974  13
   1  -3   6 44.5861 307.234   4
  -1   3  -6 441.347 487.335   6
  -1   3  -6 589.322 416.183  11
  -1  -3  -6-366.258 425.748  12
   1  -3   7 2907.49 639.288  10
  -1   3   7 3303.73 667.526   9
   1   3   7 2815.97 609.783   9
  -1   3   7 2025.55 543.915  16
   1   3   7 2466.72 589.085  15
  -1   3  -7 2730.62 713.403   6
  -1   3   7 3192.31 662.957  15
  -1  -3  -7 3191.53 738.432  14
   1  -3   7 3674.71 645.955   7
  -1  -3  -7 3038.64 733.885  13
   1  -3  -7 3545.83 791.680  12
  -1  -3  -7 3567.96 809.210  12
  -1   3  -7 3326.05 745.015  11
   1   3   7 3478.31 681.918  16
   1   3   8 12152.1 1177.11  16
   1   3   8 13300.8 1249.31  15
   1  -3   8 11870.9 1174.29   7
  -1  -3  -8 14127.4 1500.90  14
  -1  -3  -8 14358.4 1468.54  13
  -1  -3  -8 12586.3 1410.14  12
  -1   3  -8 14432.5 1460.87   6
  -1   3  -8 14285.3 1450.95  11
   1   3   8 14178.1 1188.93   9
   1  -3   8 14667.3 1304.92  10
   1  -3   9 140.061 510.448  10
   1   3   9-168.942 509.510  15
  -1  -3  -9 887.486 863.436  12
  -1  -3  -9-268.998 692.218  13
   1   3   9-647.545 564.362   9
  -1   3  -9 591.458 724.540   6
   1   3   9 358.419 562.748  16
  -1   3  -9 904.961 706.589  11
  -1  -3  -9 494.375 730.039  14
  -1   4   0-181.196 230.789   6
  -1   4   0-194.420 307.525   1
   1  -4   0 283.993 321.481   5
   1   4   0 90.7620 310.769   3
  -1   4   0-121.331 234.550   9
  -1  -4   0-90.6493 307.702   5
  -1   4   0-107.340 276.961   8
   1  -4   0-98.2019 245.859   2
   1   4   0 108.321 245.635   8
   1  -4   0 70.0203 305.202   4
   1  -4   0 207.464 219.572   7
   1   4   0-87.9764 215.464   6
   1  -4   0 72.8788 203.811  12
   1   4   0 46.2928 250.242   1
  -1  -4   0 288.533 350.334   4
  -1   4   0-74.7022 339.264   3
  -1  -4   0-86.8379 282.451   2
  -1   4  -1 5829.31 671.094   3
  -1   4   1 6458.91 619.202   9
   1   4   1 6557.44 652.090   9
   1  -4   1 6176.69 671.798   4
  -1  -4   1 6032.20 663.041   5
  -1   4   1 5790.22 640.670   8
  -1   4  -1 6889.70 666.668   8
   1  -4  -1 6656.84 643.937   4
   1   4   1 7084.37 721.043   8
   1   4  -1 5969.60 644.125   8
   1  -4  -1 6843.15 636.413   2
  -1  -4  -1 7007.05 692.630   4
   1  -4   1 6561.28 674.352   2
  -1  -4   1 6241.40 726.760   4
  -1   4  -1 6131.03 642.253   1
  -1   4   1 6810.92 643.959   1
   1  -4   1 6390.62 609.060   7
   1   4   1 6449.46 608.735   1
   1   4  -1 5766.76 627.992   1
  -1   4   1 5584.56 619.639   3
  -1   4  -1 6096.68 630.673   6
   1   4  -1 5890.04 686.611   3
   1   4  -1 6906.81 656.148   6
   1  -4  -1 6601.22 644.354  12
  -1  -4  -1 5651.27 602.982   2
  -1  -4   1 5766.53 670.648   2
   1  -4  -1 6232.58 672.386   5
   1  -4   1 5926.97 617.137   5
   1   4   1 6407.00 657.136   3
  -1  -4  -1 6376.85 731.186   5
  -1  -4  -2 2637.08 438.405   2
   1   4  -2 1992.89 444.662   1
  -1   4  -2 2042.43 497.528   3
   1  -4  -2 2365.40 514.021   5
  -1  -4   2 2505.41 529.792   2
   1  -4   2 2202.86 420.385   5
  -1   4   2 2136.17 454.742   9
   1   4  -2 2351.98 527.884   3
   1   4   2 2291.83 453.850   9
  -1  -4  -2 2664.36 544.168   5
  -1  -4   2 2130.78 466.398   5
   1  -4   2 2161.58 416.448   7
   1   4   2 2045.47 377.629   1
  -1   4  -2 2329.97 488.290   1
  -1   4   2 1950.40 460.275   8
  -1   4  -2 2136.21 421.798   8
   1   4   2 1889.30 442.388   8
   1  -4  -2 2875.50 478.027   4
   1  -4   2 2110.54 450.102   4
   1  -4  -2 2396.85 432.491   2
   1   4  -2 2701.29 502.055   6
  -1  -4  -2 2805.50 454.781   4
  -1  -4   2 2297.60 530.200   4
   1  -4   2 2068.41 455.495   2
   1   4   2 2585.46 431.047   3
   1  -4  -2 1930.53 423.006  12
  -1   4  -2 2170.73 466.866   6
  -1   4   2 2201.38 441.638   3
  -1   4   2 2145.94 400.994   1
  -1   4  -3 1329.82 429.758   3
   1  -4  -3 1445.18 424.930   5
   1  -4   3 1216.84 350.216   5
  -1   4   3 2088.27 457.361   9
  -1  -4   3 1354.76 414.183   2
  -1  -4  -3 2259.72 538.141   5
   1   4   3 1195.25 394.526   9
  -1  -4   3 1244.19 368.959   5
   1  -4   3 1752.80 506.332   4
  -1   4   3 1125.83 387.672   8
   1   4   3 1945.63 385.623  16
   1   4   3 1793.66 420.417   8
  -1   4  -3 2187.57 448.969   8
   1   4  -3 1699.65 462.079   6
  -1  -4  -3 1982.49 498.415  12
  -1  -4   3 1786.03 527.539   4
  -1   4  -3 1788.07 473.546   1
   1  -4   3 1381.19 474.541   7
   1   4  -3 2093.05 498.442   1
   1  -4  -3 1794.53 416.161   2
  -1  -4  -3 1877.92 423.892  13
   1  -4   3 1689.91 448.283   2
   1  -4  -3 2128.56 513.479  12
  -1   4   3 1412.14 403.022   3
  -1   4  -3 2201.20 532.245   6
   1   4  -3 1612.91 488.384   3
  -1   4   4 12966.5 1026.21   9
  -1  -4  -4 16559.6 1264.52  14
  -1   4   4 15479.2 1066.03   8
   1   4   4 14855.1 1031.74   8
   1  -4   4 14094.9 1036.13   4
   1  -4   4 14901.4 1099.93   2
  -1   4   4 15346.6 970.656  16
   1   4   4 16228.5 1001.15  15
   1  -4   4 13408.3 1061.84   7
  -1   4  -4 15122.7 1108.64   1
  -1  -4  -4 13618.3 1100.37   5
   1  -4  -4 15703.5 1098.27  13
  -1  -4  -4 15190.5 1033.77  13
  -1   4  -4 14630.5 1096.68   3
  -1   4  -4 13052.5 1092.74   6
   1  -4  -4 14122.1 1123.45  12
  -1  -4  -4 14218.4 1143.51  12
   1   4   4 12990.1 915.984  16
   1  -4  -4 14092.4 1107.29   5
   1   4   4 12580.8 1008.41   9
  -1   4   5 8099.74 881.681   9
   1   4   5 11326.4 1017.05   9
  -1  -4  -5 11941.5 1178.75  14
  -1   4   5 10543.2 916.774   8
   1   4   5 10199.9 868.514   8
   1  -4   5 9294.58 888.409   4
   1  -4   5 11694.7 1025.89   2
   1   4   5 9936.54 912.316  16
   1   4   5 11065.8 946.411  15
  -1   4   5 10431.8 920.436  16
   1  -4   5 10025.3 996.070   7
  -1   4   5 11098.3 928.196  15
  -1   4  -5 11804.7 1026.31  11
  -1   4  -5 10163.5 985.439   1
  -1   4  -5 9738.86 1027.16   6
  -1  -4  -5 9309.59 911.538  13
   1  -4  -5 9436.20 1013.77  12
  -1  -4  -5 9235.44 1070.72  12
  -1   4  -5 11311.5 1003.02   3
   1  -4  -5 12518.9 1159.88   5
  -1  -4  -5 10204.4 1044.30   5
   1  -4   5 11423.6 938.264  10
   1  -4   6 521.487 354.051   2
   1  -4   6-425.919 402.348  10
  -1   4   6 545.574 465.501   9
   1   4   6-967.147 521.536   9
  -1   4   6-14.6692 391.747  16
  -1  -4  -6 407.823 535.745  14
   1  -4   6-553.875 481.165   7
  -1  -4  -6-409.221 456.523  13
   1   4   6 313.482 392.905  16
  -1  -4  -6 132.721 480.098  12
  -1   4  -6-129.111 426.161   1
  -1   4  -6 93.0341 479.429   6
   1   4   6-122.467 417.407  15
   1  -4  -6 411.831 516.735  12
  -1   4  -6 697.857 454.881  11
   1  -4   6-115.661 401.881   4
  -1   4  -6-452.658 482.531   3
   1  -4   7 2540.57 653.010  10
  -1   4   7 2665.42 691.075   9
   1   4   7 2895.76 708.415   9
  -1  -4  -7 3012.62 716.490  13
  -1  -4  -7 958.180 624.314  12
  -1   4   7 1203.86 528.276  16
   1   4   7 2607.96 615.556  15
   1  -4   7 3111.46 733.220   7
  -1  -4  -7 2723.47 878.550  14
   1  -4  -7 1683.15 728.599  12
   1   4   7 2256.83 650.970  16
  -1   4  -7 1483.53 694.595   6
  -1   4  -7 1716.54 653.547  11
   1  -4   8 3874.72 820.173  10
   1   4   8 2647.39 618.365   9
   1   4   8 3764.11 794.655  15
  -1  -4  -8 3610.18 1051.33  14
   1  -4   8 3602.67 786.331   7
  -1  -4  -8 4568.98 991.278  13
  -1  -4  -8 4735.79 1143.38  12
   1   4   8 4016.58 811.731  16
  -1   4  -8 4373.28 1072.76   6
  -1   4  -8 1501.64 751.194  11
   1   4   9 2185.43 642.975   9
   1   4   9 402.553 525.960  15
  -1  -4  -9 2070.96 975.299  14
   1   4   9 768.157 657.559  16
  -1  -4  -9 2322.97 1117.29  12
  -1  -4  -9 1739.95 979.011  13
  -1  -5   0-292.457 412.897   2
   1  -5   0-380.481 423.805   5
   1   5   0 508.959 427.935   3
   1  -5   0 586.629 451.691   4
  -1  -5   0 870.514 515.103   5
  -1   5   0 303.973 390.488   8
  -1  -5   0-179.429 427.964   4
   1   5   0 17.6293 306.813   1
   1  -5   0 100.669 383.875   2
  -1   5   0 25.0102 377.529   3
   1   5   0-104.104 332.190   8
  -1   5   0 543.210 385.767   1
  -1  -5  -1 304.704 310.984   2
   1   5   1 669.129 408.128   3
  -1  -5   1 0.64680 377.469   2
   1  -5  -1-242.931 400.578   5
   1  -5   1 688.915 392.709   5
   1   5  -1 396.009 423.264   3
  -1   5   1-317.825 390.635   9
  -1  -5  -1-57.7872 447.845   5
  -1  -5   1 487.748 453.553   5
   1   5  -1 160.277 308.299   1
   1   5   1 828.975 448.348   9
  -1   5   1 411.632 343.295   1
  -1   5   1 259.906 396.040   8
  -1   5  -1 445.269 420.834   8
   1   5   1-40.9109 331.526   8
   1  -5   1 161.960 414.740   4
  -1   5  -1 410.856 363.979   1
  -1  -5  -1 744.396 469.574   4
  -1  -5   1 585.625 479.499   4
   1  -5  -1 155.308 369.077   2
  -1   5  -1 482.222 432.269   6
   1  -5   1 180.940 313.630   7
   1   5  -1 491.943 344.153   8
   1  -5   1-8.28412 416.801   2
   1   5   1 1258.90 427.211   1
   1  -5  -1 285.487 310.578  12
  -1   5   1 820.947 465.095   3
   1  -5  -1-35.1681 354.679   4
  -1   5  -1 241.705 437.873   3
   1  -5  -2 6190.95 827.207   5
   1   5  -2 6558.28 860.888   3
  -1  -5   2 1744.35 803.806   2
  -1   5   2 5850.91 752.101   9
  -1  -5   2 6912.00 842.159   5
   1   5   2 5915.17 735.592   9
   1   5   2 7055.63 850.058   8
   1  -5  -2 7136.31 789.494   2
   1  -5   2 1493.62 865.321   2
  -1   5   2 5675.00 767.611   8
  -1   5   2 7402.80 755.112   1
   1  -5  -2 6912.47 788.722   4
  -1  -5  -2 6602.51 765.166   2
   1  -5   2 5996.42 731.972   7
  -1   5  -2 7049.49 850.495   1
   1  -5   2 5732.71 814.957   4
  -1  -5  -2 7214.79 794.963   4
  -1  -5   2 5407.07 812.844   4
   1   5   2 6155.39 678.136   1
  -1   5  -2 6429.79 790.376   8
   1  -5  -2 6766.94 848.406  12
  -1  -5  -2 7336.70 930.227  12
  -1   5  -2 6306.89 776.722   6
  -1   5   2 6459.33 760.259   3
   1   5   2 7431.68 749.601   3
   1   5  -2 6146.84 805.666   6
   1   5  -2 6123.31 804.515   1
   1  -5   2 6779.79 777.339   5
  -1  -5  -2 7893.82 985.257   5
  -1   5  -2 6356.76 831.640   3
  -1   5  -3-206.933 426.911   3
   1  -5  -3 106.094 394.738   5
   1  -5   3-126.830 430.530   4
   1  -5   3-76.5235 326.949   5
  -1   5   3 285.896 366.952   9
  -1  -5  -3 841.701 531.015   5
   1   5   3 69.5428 376.868   9
  -1   5   3 421.372 413.474   8
   1   5   3-306.820 389.376   8
  -1   5  -3 464.062 410.724   8
   1  -5   3-622.350 428.849   7
   1  -5  -3 540.436 501.337  12
  -1  -5  -3-173.270 458.883  12
   1  -5   3 2.37977 384.718   2
  -1   5  -3-520.026 420.732   6
  -1   5  -3-267.442 386.234   1
  -1   5  -4 8463.40 994.333   3
   1  -5   4 5773.54 898.459   7
   1   5   4 7899.45 934.970   9
  -1   5   4 7841.70 899.225   9
   1   5   4 8565.82 921.007   8
  -1   5  -4 9551.44 1029.37   1
  -1   5   4 7329.05 866.269   8
   1  -5   4 9592.23 1008.92   2
   1  -5   4 8211.45 952.468   4
   1  -5  -4 9446.75 1046.64  12
  -1  -5  -4 8507.39 1013.74  12
  -1   5  -4 6675.57 952.992   6
   1  -5  -4 8919.30 1033.95   5
  -1  -5  -4 9119.39 1105.60   5
   1  -5  -5 6318.37 930.299   5
   1  -5  -5 6747.46 973.363  12
  -1  -5  -5 8225.44 1119.29   5
  -1   5   5 7430.00 966.118   9
   1   5   5 6721.08 891.134   9
  -1   5   5 6220.20 822.488   8
   1   5   5 7404.46 851.044   8
  -1  -5  -5 7265.35 1075.62  12
   1  -5   5 7052.08 897.219   4
   1  -5   5 6923.77 994.869   7
  -1   5  -5 6765.37 974.147   1
  -1   5  -5 7361.69 1029.82   6
   1  -5   5 7698.02 956.832   2
  -1   5  -5 7338.57 993.000   3
   1  -5   6-591.255 513.560   2
  -1   5   6-49.4912 498.736   9
   1   5   6-318.047 502.262   9
  -1   5   6 813.842 467.356   8
  -1   5  -6-284.956 601.044   1
   1  -5   6 662.366 551.954   4
   1  -5   6-57.2087 472.843   7
   1  -5  -6 508.448 652.473  12
  -1  -5  -6-443.018 662.466  12
  -1   5  -6 147.779 607.605   6
  -1   5  -6 499.180 659.817   3
   1  -5  -6-583.671 600.164   5
  -1   5   7 368.233 505.760   9
   1   5   7 1296.33 607.473   9
   1  -5   7 1212.20 634.071   7
   1  -5  -7 460.843 653.608  12
  -1  -5  -7 435.026 768.083  12
  -1   5  -7-1471.05 885.784   6
   1  -5   7 1481.78 614.571   4
   1   5   8 3967.70 898.736   9
   1   5   8 4125.12 850.321  16
  -1  -5  -8 3906.34 1102.52  13
   1   6   0 498.498 481.978   3
   1  -6   0-79.5545 475.629   5
  -1  -6   0-171.538 431.279   2
  -1  -6   0 816.717 586.620   5
   1   6   0-314.611 421.901   1
  -1   6   0 341.093 495.621   8
   1   6   0 138.761 441.286   8
  -1  -6   0-380.616 595.472   4
   1  -6   0-2.25802 461.143   2
  -1   6   0 391.504 454.489   1
  -1   6   0 181.186 487.894   3
   1  -6   0-515.687 589.051   4
   1   6   1 2238.21 648.099   3
   1  -6  -1 1341.24 621.578   5
   1   6  -1 1709.17 678.440   3
   1  -6   1 1118.86 477.247   5
  -1  -6  -1 1930.76 551.448   2
  -1  -6  -1 1527.01 579.850   5
  -1  -6   1 1450.77 661.441   5
  -1  -6   1 0.81968 534.635   2
  -1  -6  -1 4173.15 903.490   4
  -1   6   1 1929.51 600.682   8
   1  -6  -1 1187.08 528.012   4
  -1  -6   1 764.110 602.787   4
   1  -6   1 664.905 523.193   4
   1   6  -1 1419.49 555.680   1
   1  -6  -1 1741.46 555.761   2
  -1   6   1 1023.70 470.654   1
  -1   6  -1 1367.04 557.765   8
   1  -6   1 29.3497 634.917   2
  -1   6   1 1461.38 579.345   3
  -1   6  -1 989.737 563.266   3
  -1   6  -1 1126.82 506.281   1
   1  -6  -2 370.645 488.531   5
   1  -6   2 102.503 444.098   5
  -1  -6  -2 143.241 537.095   5
  -1   6   2 472.134 471.141   9
  -1   6  -2 623.549 486.698   1
   1   6   2 1117.82 517.526   9
  -1   6   2-33.6674 451.004   8
  -1   6  -2-125.945 446.026   8
   1  -6  -2 279.676 453.908  12
   1  -6  -2 11.0507 402.440   2
  -1  -6  -2 806.956 560.147  12
   1  -6   2 547.911 555.756   4
   1   6   2 926.464 529.645   8
  -1   6   2 550.444 506.340   3
   1  -6   2 0.60804 497.841   2
  -1   6  -2 114.776 514.890   3
   1   6   2 656.380 474.826   3
   1  -6  -3 409.145 544.080   5
  -1  -6  -3 480.454 539.069   5
  -1   6   3 889.669 560.398   9
   1   6   3 29.9399 432.990   9
  -1   6   3 600.444 523.408   8
   1   6   3 1212.91 593.978   8
   1  -6   3 155.060 511.066   4
   1  -6   3 447.324 468.097   7
  -1   6  -3-66.8876 584.841   3
   1  -6  -3 1173.27 649.966  12
  -1  -6  -3 431.717 517.589  12
  -1   6  -3 386.671 601.000   6
   1  -6   3 212.455 585.003   2
  -1   6  -3 381.620 473.929   1
   1  -6  -4 2791.29 806.477   5
  -1  -6  -4 3025.45 810.679   5
  -1   6   4 3253.53 764.418   9
   1  -6  -4 3199.65 806.280  12
   1   6   4 2577.90 684.946   9
  -1   6   4 2614.00 725.780   8
   1  -6   4 3225.49 775.978   4
   1   6   4 2628.20 689.875   8
   1  -6   4 2792.09 781.457   7
  -1   6  -4 2682.08 708.442   1
  -1  -6  -4 3798.28 898.444  12
  -1   6  -4 3131.08 816.450   6
   1  -6   4 557.956 748.547   2
  -1   6  -4 1765.03 665.308   3
   1  -6   5 21.8439 722.140   2
  -1  -6  -5 2070.63 934.014   5
   1  -6   5 862.363 582.032   4
  -1   6   5 1453.49 630.856   9
   1   6   5 2814.35 752.980   9
  -1   6   5 2112.62 748.461   8
   1   6   5 1334.58 579.395   8
  -1   6  -5 1803.18 764.922   1
   1  -6   5 812.586 535.963   7
   1  -6  -5 3374.23 951.164  12
  -1  -6  -5 1853.39 809.850  12
  -1   6  -5 2606.90 844.443   6
  -1   6  -5 2322.28 843.930   3
   1  -6  -5 2915.68 943.905   5
   1  -6   6-9.47875 674.148   2
  -1   6   6-52.3549 578.352   9
   1   6   6 2260.84 769.714   9
  -1   6  -6 227.461 725.368   1
  -1   6   6 896.329 573.325   8
   1  -6   6-730.858 712.113   7
   1  -6  -6 23.8672 716.069  12
  -1  -6  -6 451.903 817.000  12
  -1   6  -6 404.239 717.485   6
   1  -6   6-483.734 675.401   4
  -1   6  -6-91.4050 662.328   3
   1  -6  -6 590.857 728.528   5
   1  -7   0 833.042 568.685   5
  -1   7   0 91.9142 509.175   8
   1  -7   0-756.765 636.886   4
  -1   7   0 460.125 543.620   1
  -1   7   0-111.195 626.627   3
   1  -7   0 5.07849 603.432   2
   1  -7  -1-11.7719 534.433   5
   1  -7   1-665.280 555.347   5
  -1  -7  -1-1239.63 753.211   5
   1   7   1-726.330 552.185   8
   1  -7  -1-421.667 671.845   4
  -1   7   1 304.277 634.403   8
  -1   7  -1-88.1781 535.486   8
   1  -7   1-1095.21 724.843   4
  -1   7   1 1263.65 650.363   1
  -1   7  -1 62.2552 516.199   1
  -1   7   1-637.448 586.700   3
  -1   7  -1 599.042 630.541   3
   1  -7  -1 343.240 502.553   2
   1  -7   1-2.72061 564.328   2
   1   7   1 1920.28 732.014   3
   1  -7  -2 1386.22 726.582   5
   1  -7   2 1091.57 616.944   5
  -1  -7  -2 298.146 667.853   5
  -1   7   2 1047.40 589.544   8
  -1   7  -2 442.354 592.140   8
  -1   7  -2 149.639 516.799   1
  -1   7  -2 2249.36 855.193   3
   1   7   2 629.785 526.097   8
   1  -7   2-8.16389 522.205   2
   1  -7   2 1472.42 736.558   4
   1  -7  -3 368.561 630.439   5
  -1  -7  -3-44.7061 745.333   5
  -1   7  -3 134.949 545.340   1
   1  -7   3 154.753 588.336   4
   1   7   3-370.202 538.494   8
  -1   7   3 263.272 549.940   8
  -1  -7  -3-120.073 703.600  12
  -1   7  -3-1074.94 792.986   3
   1  -7   3-12.2328 562.078   2
   1  -7  -4 2647.08 979.234   5
   1  -7   4 24.5372 750.306   2
  -1  -7  -4 1828.82 867.937   5
  -1   7   4 2852.64 800.483   9
   1   7   4 2338.17 782.384   9
   1   7   4 1785.85 760.552   8
  -1   7   4 2260.79 759.251   8
   1  -7  -4 669.087 773.446  12
  -1  -7  -4 751.024 708.858  12
  -1   7  -4 1877.98 947.017   6
  -2   0  -2 11107.4 849.292  11
   2   0   3 128893. 2038.39  15
   2   0   3 128220. 2029.65  16
  -2   0  -3 125182. 2466.21  14
   2   0   3 126814. 1864.11   7
  -2   0  -3 127969. 2396.65   6
  -2   0  -3 126163. 2538.76  11
   2   0   3 131544. 2087.42  10
   2   0   4 426.014 265.558   9
   2   0   4 625.962 276.211  16
   2   0   4 454.919 219.638   7
   2   0   4 347.371 234.983  15
  -2   0  -4 260.483 275.700   6
  -2   0  -4-109.158 264.690  14
  -2   0  -4-40.7076 290.628  11
   2   0   4 479.059 257.546  10
   2   0   5-164.748 189.745   9
   2   0   5 284.121 248.420  16
   2   0   5-159.573 225.223  15
  -2   0  -5 74.3878 328.082  14
   2   0   5-260.516 221.508   7
  -2   0  -5-180.213 259.869   6
  -2   0  -5 198.419 214.774  12
  -2   0  -5-77.6637 309.597  11
   2   0   5-134.504 264.355  10
   2   0   6 4730.33 580.319  16
   2   0   6 4593.33 610.936  15
   2   0   6 4705.23 488.747   7
  -2   0  -6 3878.28 642.231  14
  -2   0  -6 4316.84 572.645   6
  -2   0  -6 4177.11 654.557  11
   2   0   6 4696.74 599.341  10
   2   0   7 6658.38 772.539  15
   2   0   7 5754.75 680.568  16
  -2   0  -7 7237.12 900.827  14
  -2   0  -7 6435.87 858.974  13
  -2   0  -7 6365.44 876.296  11
   2   0   7 6712.27 752.969  10
   2   0   8 3610.51 567.066  16
   2   0   8 3221.23 674.571  15
  -2   0  -8 3516.78 778.399  14
  -2   0  -8 2819.56 683.534  13
  -2   0  -8 2833.77 780.672  11
   2   0   8 3008.69 645.853  10
   2   0   9 12562.0 1126.94  16
   2   0   9 12759.5 1213.49  15
  -2   0  -9 11577.5 1307.35  14
  -2   0  -9 13799.1 1500.80  11
  -2   0  -9 12799.3 1398.91  13
   2   0   9 13669.6 1252.46  10
   2   0  10 1186.19 684.721  10
   2   0  10-975.534 614.496  16
   2   0  10 452.185 542.688  15
  -2   0 -10 488.997 896.786  14
  -2   0 -10 362.960 777.154  13
   2   0  11 856.450 605.671  16
   2  -1   2 34.2243 114.187   7
  -2   1  -2 164.783 164.533   6
  -2   1  -2 192.412 195.236  11
   2  -1   2 82.8855 118.932  10
   2   1   3 17471.2 777.977   9
   2  -1   3 19935.4 726.285   2
   2  -1   3 17625.5 709.137   4
   2  -1   3 17857.9 741.821  16
  -2   1  -3 17130.7 749.158   1
   2   1   3 17430.1 823.280  15
   2   1   3 18707.5 845.638  16
   2  -1   3 18178.5 823.324   7
   2  -1   3 18415.9 719.944  15
   2   1   3 18624.3 765.174  10
  -2   1  -3 18494.8 967.557  14
  -2  -1  -3 16722.4 995.285  14
  -2   1  -3 17725.8 805.753   3
  -2   1  -3 18317.6 926.477   6
  -2  -1  -3 17877.2 1087.83  11
  -2   1  -3 18349.5 960.631  11
   2  -1   3 17944.7 822.492  10
   2   1   4-440.087 222.837   9
  -2  -1  -4 37.7888 146.728   5
  -2  -1  -4-386.569 312.302  14
   2  -1   4 48.7869 137.803   4
   2   1   4 58.8340 205.057  16
   2  -1   4-123.024 165.958   2
   2  -1   4-88.0538 197.388  16
   2   1   4 264.649 222.950  15
   2  -1   4 131.230 193.197  15
   2  -1   4-293.235 224.127   7
  -2   1  -4-0.07169 198.315   3
  -2   1  -4 160.028 233.957   6
  -2   1  -4 118.809 169.986   1
  -2   1  -4-15.3913 242.057  14
  -2  -1  -4-202.423 311.892  11
  -2   1  -4 184.468 262.381  11
   2   1   4 61.6769 127.109   7
   2   1   4-121.504 212.679  10
   2  -1   4-11.1581 191.741  10
   2   1   5 4797.47 482.701   9
  -2   1  -5 4357.78 589.030  14
   2  -1   5 4771.02 522.621   7
   2   1   5 4255.02 535.773  15
   2  -1   5 4268.10 498.558  15
  -2  -1  -5 3785.32 598.206  14
  -2   1  -5 4042.59 522.986   6
   2  -1   5 4759.07 506.798  16
  -2  -1  -5 5051.42 635.632  11
  -2   1  -5 4554.39 636.373  11
   2   1   5 4343.58 503.716  10
   2  -1   5 4981.27 580.640  10
   2   1   5 5001.58 580.667  16
   2   1   6 46990.6 1552.17   9
   2   1   6 44779.9 1696.23  16
   2  -1   6 47178.1 1605.11  16
   2   1   6 46566.5 1777.58  15
   2  -1   6 47719.5 1670.61  15
   2  -1   6 47103.0 1635.89   7
  -2   1  -6 44113.9 1794.74  14
  -2  -1  -6 45291.9 1963.20  14
  -2   1  -6 47164.7 1782.65  13
  -2   1  -6 45692.1 1774.93   6
  -2  -1  -6 49296.8 1833.01  12
  -2  -1  -6 45229.7 1938.92  11
  -2   1  -6 45136.4 1892.36  11
   2   1   6 46183.6 1643.94  10
   2  -1   6 47702.3 1790.27  10
   2  -1   7 685.839 379.736  15
   2   1   7 774.269 412.997  16
   2  -1   7 405.953 334.646  16
   2   1   7 730.696 423.436  15
  -2   1  -7 482.048 452.478  14
  -2  -1  -7 545.160 539.340  14
  -2   1  -7 1453.81 465.877  13
  -2  -1  -7 569.379 530.139  13
  -2   1  -7 328.460 437.009   6
   2  -1   7 981.900 408.523   7
  -2  -1  -7 991.950 521.818  11
  -2   1  -7 1125.01 542.725  11
   2   1   7 954.018 431.124  10
   2  -1   7 27.7926 444.340  10
   2   1   8-154.119 453.322  16
   2  -1   8 693.861 379.803  16
   2   1   8 509.583 460.349  15
   2  -1   8 116.167 384.010  15
  -2   1  -8 483.627 513.801  14
  -2  -1  -8 1138.21 666.568  14
  -2   1  -8 283.936 516.052  13
  -2  -1  -8 154.799 541.449  13
  -2  -1  -8-233.699 538.967  11
  -2   1  -8 525.698 566.583  11
   2   1   8-31.4547 399.263  10
   2  -1   8-688.264 518.856  10
   2  -1   9 1553.32 688.316  10
   2   1   9 1056.38 518.493  10
   2  -1   9 975.226 419.814  16
   2   1   9 1250.14 575.162  15
   2  -1   9 1614.12 511.045  15
  -2   1  -9 2175.70 818.409  14
  -2  -1  -9 2163.80 845.440  14
   2   1   9 1802.12 597.044  16
  -2   1  -9 2262.61 890.025  13
  -2  -1  -9 310.843 651.697  13
  -2  -1  -9 1211.19 758.270  11
  -2   1  -9 1303.67 787.061  11
   2  -1  10 3171.87 830.163  10
   2   1  10 5369.21 927.067  10
   2   1  10 3336.29 787.828  16
   2   1  10 1868.43 662.193  15
   2  -1  10 3259.75 728.504  15
  -2   1 -10 4180.76 1127.95  14
  -2  -1 -10 3537.91 959.724  14
  -2  -1 -10 2898.82 960.704  13
  -2  -1 -10 2588.50 1033.68  11
  -2   1 -10 3967.32 1141.95  11
   2   1  11 269.107 660.684  10
  -2   2   0 70742.3 1685.08   1
   2  -2   0 70282.9 1585.91   2
   2  -2   0 73124.0 1607.59   4
  -2   2   0 69475.7 1610.18   8
  -2   2   0 72929.1 1740.23   3
   2  -2   0 74595.9 1634.64   5
  -2   2  -1 28630.2 1071.87   1
   2  -2   1 30021.1 1022.47   2
  -2   2  -1 28028.3 937.462   8
   2  -2   1 27938.6 1004.98   4
  -2   2  -1 28346.3 1082.46   3
  -2   2  -1 26319.9 1135.94   6
   2  -2   1 28339.9 962.368   7
   2  -2   1 28386.9 963.243   5
   2   2   2 4468.73 454.643   9
   2  -2   2 4533.29 423.489   2
  -2   2  -2 5028.30 382.077   8
  -2   2  -2 4435.51 455.980   1
   2  -2   2 4748.22 442.959   4
   2  -2   2 4933.30 460.919   7
   2   2   2 5354.51 476.681  15
  -2   2  -2 4765.73 470.701   3
  -2   2  -2 5132.77 534.980   6
  -2   2  -2 4524.74 522.527  11
   2  -2   2 4955.13 396.985   5
   2  -2   2 4930.18 418.721  10
   2   2   3 66288.5 1714.71   9
   2  -2   3 66074.3 1615.35   2
  -2   2  -3 65407.9 1308.99   8
   2  -2   3 63537.0 1601.35   4
  -2   2  -3 64676.8 1713.98   1
   2   2   3 66847.7 1703.95  16
   2  -2   3 66613.1 1744.81   7
   2  -2   3 66896.4 1251.20  15
   2   2   3 67040.4 1679.11  15
  -2  -2  -3 63959.9 2194.78  14
  -2   2  -3 63179.2 1685.96   3
  -2   2  -3 61321.0 1828.00   6
   2   2   3 67099.7 1156.15   3
  -2   2  -3 64555.2 1862.50  11
   2   2   3 65761.9 1385.46  10
   2  -2   3 65793.8 1639.74  10
  -2  -2  -3 64804.9 1736.90   5
   2   2   4-189.520 253.082   9
  -2  -2  -4 182.474 223.484   5
   2  -2   4 82.8051 192.660   4
   2   2   4 229.796 233.159  16
   2  -2   4 235.504 221.512   2
   2   2   4 207.746 275.024  15
   2  -2   4 18.5187 168.844  15
   2  -2   4 96.1130 255.375   7
  -2   2  -4-270.555 259.998  14
  -2  -2  -4 40.4492 373.631  14
   2  -2   4-97.9844 195.491  16
  -2   2  -4 329.358 306.348   6
  -2  -2  -4 275.125 347.258  11
  -2   2  -4 462.728 331.478  11
  -2   2  -4-5.26878 237.683   3
  -2   2  -4 141.782 219.402   1
   2   2   4 175.881 225.767  10
   2  -2   4 304.735 245.416  10
   2   2   5 125.509 261.343   9
  -2   2  -5-31.3216 241.134   1
   2  -2   5 415.548 234.387   4
   2   2   5 192.024 303.080  16
   2   2   5-85.0702 266.865  15
  -2   2  -5-420.688 413.273  14
   2  -2   5 108.749 241.599  15
   2  -2   5-456.887 317.742   7
  -2  -2  -5 89.3124 390.702  14
   2  -2   5 26.6308 228.477   2
  -2   2  -5-180.724 257.761  13
  -2   2  -5 176.772 333.081   6
  -2  -2  -5 90.5668 349.476  11
  -2   2  -5-137.975 247.552   3
  -2   2  -5 393.366 361.816  11
   2   2   5 231.463 251.679  10
   2  -2   5-170.574 321.443  10
   2   2   6 3352.43 561.976   9
   2   2   6 3138.78 574.851  16
   2   2   6 3473.76 620.664  15
   2  -2   6 2830.25 537.611   7
  -2  -2  -6 3121.69 732.655  14
  -2  -2  -6 3197.50 675.396  12
  -2   2  -6 3013.02 603.227   6
  -2  -2  -6 3307.72 671.831  11
  -2   2  -6 3195.96 628.900  11
   2   2   6 3618.45 527.046  10
   2  -2   6 3374.01 609.295  10
   2   2   7 5154.64 706.372   9
   2   2   7 4785.75 713.271  16
   2   2   7 4578.00 723.942  15
   2  -2   7 4442.73 693.413   7
  -2  -2  -7 4038.35 827.343  14
  -2  -2  -7 4453.17 827.265  13
  -2  -2  -7 4204.52 763.528  12
  -2   2  -7 4586.16 775.436   6
  -2  -2  -7 4664.46 852.021  11
  -2   2  -7 5248.75 834.287  11
   2   2   7 5001.60 660.525  10
   2  -2   7 5986.93 792.788  10
   2  -2   8 2012.54 602.111  10
   2   2   8 2699.32 583.910   9
   2   2   8 1656.25 587.399  16
   2   2   8 2754.43 663.979  15
  -2  -2  -8 2533.61 853.216  14
   2  -2   8 2276.25 542.712   7
  -2  -2  -8 2170.80 770.023  13
  -2  -2  -8 1075.06 677.007  12
  -2   2  -8 1536.72 609.518   6
  -2   2  -8 2728.10 775.022  11
   2  -2   9 8637.08 1073.48  10
   2   2   9 7796.60 959.456  16
   2  -2   9 9537.87 1059.49   7
   2   2   9 9200.41 1117.88  15
  -2  -2  -9 8694.79 1310.40  14
  -2  -2  -9 8255.27 1321.00  13
  -2   2  -9 8694.33 1228.55   6
  -2   2  -9 10562.6 1387.49  11
   2  -2  10-22.7022 592.381  10
   2   2  10-74.9756 492.457  16
   2   2  10-1147.53 717.712  15
  -2  -2 -10-2331.49 1167.49  14
  -2  -2 -10-717.282 1015.85  13
  -2   2 -10-2167.14 1124.66  11
  -2   3   0 168184. 2448.95   9
   2  -3   0 170901. 2807.27   2
  -2   3   0 172425. 2816.55   8
   2  -3   0 168777. 2822.87   4
  -2   3   0 170747. 2901.67   1
   2  -3   0 166710. 2429.87   7
  -2   3   0 165360. 2959.96   3
  -2   3   0 165456. 3310.52   6
   2  -3   0 170954. 2834.82   5
  -2   3   1 8618.64 632.547   9
  -2   3  -1 9336.02 517.518   9
   2  -3  -1 8955.80 665.081   2
  -2   3   1 9581.61 685.079   1
   2  -3  -1 9806.20 702.059   4
   2  -3   1 7017.39 614.545   2
  -2   3   1 8483.57 679.225   8
  -2   3  -1 8286.29 618.385   8
   2  -3   1 8201.68 675.129   4
  -2   3  -1 9373.58 725.586   1
  -2   3   1 8804.31 488.099  16
   2  -3  -1 9446.52 561.256   7
   2  -3   1 8088.25 614.757   7
  -2   3   1 9134.93 730.490   3
  -2   3  -1 8594.45 720.196   3
  -2   3  -1 8305.43 726.039   6
   2  -3  -1 8625.75 683.780  12
   2  -3   1 8767.91 474.104  10
   2  -3  -1 8873.27 710.732   5
   2  -3   1 9199.20 662.606   5
   2  -3  -2-40.4668 234.190   5
   2  -3   2 160.896 205.448   5
  -2   3   2-38.4018 228.659   9
   2   3   2 122.482 185.914   3
   2   3   2 37.6125 213.000   9
  -2  -3  -2 276.766 279.662   5
  -2   3   2 15.6953 205.958   8
  -2   3  -2 123.586 220.299   8
  -2   3   2 97.4110 194.168  16
   2  -3  -2 2.10699 230.394   2
   2  -3   2 25.4077 246.623   4
   2   3   2 46.8790 206.402  15
   2  -3   2-41.6204 228.088   7
  -2  -3  -2-314.765 222.701   4
  -2   3   2 4.22338 197.285   1
   2  -3  -2-49.3149 223.882  12
   2   3   2-126.146 202.293   8
   2  -3   2-23.1869 228.950   2
  -2   3  -2 111.334 260.265   6
  -2   3  -2-115.476 244.569   1
  -2   3  -2-267.642 295.928  11
  -2   3  -2 238.014 290.207   3
   2  -3   2 159.235 190.763  10
  -2   3   3 5611.62 621.329   9
   2   3   3 5142.62 587.542   9
   2  -3  -3 5552.76 525.461   2
  -2   3   3 5701.28 528.887   1
  -2  -3  -3 5321.92 636.652   5
  -2   3   3 6319.75 637.553   8
  -2   3  -3 6104.15 557.462   8
   2  -3   3 6316.93 625.380   4
   2  -3   3 5812.85 593.171   2
   2   3   3 5454.54 555.996   8
  -2   3   3 6436.15 596.648  16
  -2   3  -3 5559.74 615.133   1
   2   3   3 5723.40 544.814  15
   2  -3   3 6632.21 664.791   7
  -2   3  -3 5402.90 622.473   3
   2   3   3 6006.63 479.558   3
   2  -3  -3 4249.24 629.884  12
  -2   3  -3 5679.83 643.288   6
  -2   3  -3 5277.29 607.867  11
   2  -3  -3 5261.47 620.336   5
   2  -3   3 5847.45 499.401   5
   2  -3   3 5521.47 531.159  10
   2   3   3 5510.25 571.866  16
  -2   3   4 303.156 299.795   9
  -2   3  -4 643.657 359.455   1
   2   3   4 305.271 302.356   9
  -2  -3  -4 52.9051 316.796   5
  -2   3   4 91.1996 245.601   8
  -2   3   4 183.338 292.724  16
   2   3   4 482.085 272.540   8
   2   3   4 81.3350 278.675  16
   2   3   4 189.338 288.699  15
   2  -3   4 352.163 302.929   2
   2  -3   4-61.4229 312.211   7
   2  -3  -4-25.0001 370.497  12
   2  -3   4 811.506 330.616   4
  -2   3  -4-83.5510 351.826   6
  -2  -3  -4 99.6362 536.283  14
  -2   3  -4-131.118 339.280  11
  -2   3  -4 318.175 339.005   3
   2  -3   4-232.618 262.869  10
  -2  -3  -5 1948.02 511.818   5
   2   3   5 1618.24 415.928   9
  -2   3  -5 1974.76 488.647   1
   2   3   5 1529.86 426.236  15
   2  -3   5 1998.32 509.873   7
  -2  -3  -5 1734.58 648.512  14
   2  -3   5 2346.29 463.303   2
   2   3   5 1794.07 464.415  16
   2  -3   5 1745.76 411.307   4
  -2   3  -5 1252.57 507.647   6
  -2   3  -5 2112.38 537.932  11
   2   3   5 1757.81 340.893   8
  -2   3  -5 1370.76 418.224   3
   2  -3   5 1265.14 422.465  10
   2   3   6 23040.1 1362.67   9
   2  -3   6 19797.2 1151.23   4
   2   3   6 22475.6 1382.45  16
   2   3   6 21884.7 1369.32  15
   2  -3   6 24532.8 1430.78   7
  -2   3  -6 23567.4 1431.19   1
  -2  -3  -6 23771.6 1742.16  14
  -2  -3  -6 20836.3 1507.63  13
  -2   3  -6 23058.1 1501.44   6
  -2  -3  -6 21375.9 1569.59  12
  -2   3  -6 24216.4 1561.73  11
   2  -3   6 24057.4 1387.76  10
   2  -3   7 560.509 490.409  10
   2   3   7-340.034 407.003   9
   2   3   7 528.475 444.978  16
   2  -3   7 116.506 467.318   7
   2   3   7 326.160 415.472  15
  -2  -3  -7-309.501 680.911  14
  -2  -3  -7 1324.88 717.616  13
  -2  -3  -7-427.399 549.130  12
  -2   3  -7 450.809 510.481   6
  -2   3  -7 240.052 531.831  11
   2  -3   8-324.754 530.279  10
   2   3   8-43.7835 437.267   9
   2   3   8 556.012 481.472  16
   2   3   8 840.201 491.547  15
  -2  -3  -8 1493.49 813.799  14
   2  -3   8 586.452 450.363   7
  -2  -3  -8 177.275 656.209  13
  -2  -3  -8 43.0876 703.289  12
  -2   3  -8 982.153 684.220   6
  -2   3  -8-56.0714 731.477  11
   2  -3   9-690.299 651.165  10
   2   3   9 403.573 482.753   9
   2   3   9 418.416 541.970  15
  -2  -3  -9-489.108 844.435  14
   2  -3   9 978.102 591.114   7
  -2  -3  -9 1280.33 881.554  13
  -2  -3  -9 1024.09 1014.25  12
  -2   3  -9 1824.11 865.250   6
  -2   3  -9 1606.72 759.793  11
   2   3   9 100.830 468.602  16
   2  -3  10 2160.91 764.859   7
  -2   3 -10 4287.49 1275.56   6
  -2   4   0 15188.4 863.075   9
   2  -4   0 15088.0 1001.96   4
  -2   4   0 15268.1 1007.05   8
   2  -4   0 15206.3 1013.35   2
  -2   4   0 14585.1 1007.04   1
   2  -4   0 16979.7 914.227   7
  -2   4   0 14383.9 1015.77   3
  -2   4   0 16564.6 1167.57   6
   2  -4   0 15350.7 914.289  12
   2  -4   0 15187.0 1014.85   5
  -2   4   1 6283.60 642.063   9
   2  -4  -1 6750.31 687.563   4
  -2   4   1 6863.23 718.651   8
  -2   4  -1 6626.74 669.109   8
   2  -4  -1 7496.25 708.675   2
   2  -4   1 6922.49 719.567   4
   2  -4   1 6513.42 704.090   2
   2   4   1 6765.35 694.446   8
  -2  -4  -1 6882.63 722.701   4
  -2   4   1 6711.16 678.947   1
  -2   4  -1 6953.66 725.701   1
   2  -4   1 7225.96 674.572   7
  -2   4  -1 6992.52 739.042   6
   2  -4  -1 6720.19 679.413  12
   2   4   1 6494.52 664.630   3
  -2   4   1 6374.07 700.812   3
  -2   4  -1 6032.54 717.774   3
   2  -4  -1 6470.90 718.595   5
   2  -4   1 7171.62 696.774   5
  -2  -4  -1 7096.96 808.078   5
   2  -4  -2 83.6327 324.258   5
   2  -4   2 357.956 268.403   5
  -2   4   2 334.854 307.508   9
   2   4   2 1035.09 335.523   3
  -2  -4  -2 724.542 395.545   5
   2   4   2 839.995 350.669   9
  -2   4   2 989.824 338.131   8
  -2   4  -2 559.499 292.708   8
   2  -4  -2 239.987 269.819   2
   2   4   2 720.293 312.277   8
   2  -4   2 390.833 317.197   2
   2  -4   2 875.497 374.991   7
   2  -4   2 516.778 319.149   4
  -2  -4  -2 553.042 365.293   4
   2  -4  -2 434.476 322.590  12
  -2   4   2 499.609 352.806   3
  -2   4   2 877.236 309.275   1
  -2   4  -2 918.299 419.035   6
  -2   4  -2 451.037 363.815   3
  -2   4  -2 647.165 337.317   1
  -2   4   3 13892.8 1036.40   9
   2   4   3 13465.4 1002.31   9
  -2   4   3 14715.9 1056.46   8
   2  -4  -3 14868.8 955.893   2
  -2   4  -3 14348.9 1003.57   8
   2  -4   3 13539.0 1019.41   4
   2   4   3 15756.9 1062.09   8
  -2   4   3 14145.8 928.682   1
  -2   4  -3 13942.7 1089.35   1
   2   4   3 14746.3 914.134  15
   2  -4   3 13914.6 1047.62   7
  -2   4  -3 14212.8 1088.02   3
  -2   4  -3 13780.7 1132.42   6
   2  -4  -3 14751.4 1143.57  12
   2  -4  -3 14231.1 1105.31   5
   2  -4   3 14230.3 881.470   5
  -2  -4  -3 13618.1 1143.62   5
  -2   4   4 2.22150 372.898   9
  -2  -4  -4-371.614 477.650   5
   2   4   4-168.060 351.834   9
  -2   4  -4-103.745 393.318   1
  -2   4   4-2.32979 343.395   8
  -2   4   4 365.584 379.430  16
   2   4   4 10.1498 294.238   8
   2   4   4-426.948 383.437  16
   2   4   4 544.841 377.014  15
   2  -4   4-376.296 382.692   7
   2  -4   4-323.281 370.774   2
   2  -4   4-498.868 391.141   4
   2  -4  -4 363.376 436.682  12
  -2   4  -4-319.446 438.992   6
  -2   4  -4-508.425 442.646   3
   2  -4  -4 364.763 432.034   5
   2  -4   5 534.909 369.347  10
  -2   4   5-538.916 496.654   9
  -2  -4  -5 237.473 520.125   5
   2   4   5 285.798 400.243   9
  -2   4   5-211.163 424.554   8
   2   4   5-439.718 406.068  16
  -2   4   5-164.406 415.353  16
   2   4   5 430.432 352.101   8
   2   4   5-166.561 376.570  15
   2  -4   5 423.798 453.431   7
  -2  -4  -5 399.434 697.651  14
  -2   4  -5-188.869 413.058   1
   2  -4  -5-94.2562 433.046  12
   2  -4   5-436.624 367.721   2
  -2  -4  -5-312.916 519.854  12
  -2   4  -5-402.573 501.408   6
  -2   4  -5-74.1424 460.265  11
  -2   4  -5 45.3876 411.983   3
   2  -4   5-339.107 393.866   4
   2  -4   6 1460.81 508.776  10
   2   4   6 705.198 463.161   9
  -2   4  -6 1651.92 661.771   1
   2   4   6 1264.46 499.658  16
   2  -4   6 1508.24 515.599   4
   2   4   6 1305.56 470.758  15
  -2  -4  -6 36.0349 718.743  14
   2  -4   6 811.532 518.155   7
  -2  -4  -6 593.202 595.747  13
  -2  -4  -6 2440.62 855.050  12
  -2   4  -6 169.786 495.623   6
  -2   4  -6 1585.00 579.037  11
   2  -4   6 1743.17 547.180   2
  -2   4  -6 1256.00 565.643   3
   2  -4   7 1713.73 615.188  10
   2   4   7 1200.63 492.077   9
  -2  -4  -7 642.189 798.067  14
   2   4   7 2072.84 616.947  15
   2   4   7 1557.87 577.124  16
   2  -4   7 871.049 534.435   7
  -2  -4  -7 2484.78 805.712  13
  -2  -4  -7 3271.13 970.742  12
  -2   4  -7 284.957 573.457   6
  -2   4  -7 1167.73 668.179  11
   2  -4   8 1090.32 627.207  10
   2   4   8 1029.06 546.765   9
   2   4   8-73.1925 584.201  16
   2   4   8 1132.48 626.622  15
  -2  -4  -8-648.226 957.920  14
   2  -4   8 1461.18 699.075   7
  -2  -4  -8 1660.79 928.485  13
  -2  -4  -8 1047.40 867.998  12
  -2   4  -8 763.422 806.429   6
  -2   4  -8 842.695 799.633  11
   2  -4   9 4184.38 906.514  10
   2   4   9 4116.95 837.048   9
   2   4   9 3349.13 781.231  16
   2   4   9 3678.66 841.278  15
  -2  -4  -9 3932.73 1453.26  14
   2  -4   9 2265.32 767.468   7
  -2  -4  -9 4077.27 1297.63  13
  -2  -4  -9 3314.36 1235.31  12
  -2   4  -9 4536.32 1205.67   6
  -2   4  -9 2360.16 913.808  11
   2  -5   0 32680.5 1617.39   4
  -2   5   0 33333.3 1653.44   8
   2  -5   0 36111.0 1722.78   2
  -2   5   0 34619.5 1708.16   1
  -2   5   0 31857.5 1684.49   3
   2  -5   0 35224.1 1719.79   5
   2  -5  -1 1237.69 518.098   5
   2  -5   1 1103.09 469.150   5
  -2   5  -1 1450.73 498.169   1
  -2   5   1 1398.82 478.482   9
  -2   5   1 1639.71 510.740   8
  -2   5  -1 1019.02 473.613   8
   2  -5  -1 865.488 418.878   4
   2  -5   1 1191.86 484.176   4
   2  -5  -1 1307.97 472.821   2
   2  -5   1 1477.19 454.191   7
   2  -5   1 15.2392 497.738   2
   2  -5  -1 1897.48 458.834  12
  -2   5  -1 366.405 416.714   6
  -2   5   1 785.387 436.119   3
  -2   5  -1 1543.86 579.178   3
  -2   5   1 860.372 360.986   1
   2  -5  -2-28.5643 410.189   5
   2  -5   2 160.893 345.589   5
   2   5   2-88.8921 356.555   3
  -2   5   2-33.8115 405.367   9
  -2   5  -2-389.160 413.444   1
  -2  -5  -2 256.743 481.045   5
  -2   5   2 46.0040 382.059   8
  -2   5  -2 23.8888 407.068   8
   2  -5   2-145.900 449.868   4
   2  -5  -2-210.804 360.584   2
   2  -5   2-517.891 464.387   7
   2  -5   2 0.63835 390.006   2
   2  -5  -2 472.741 439.774  12
  -2   5   2 645.249 467.133   3
  -2   5  -2-632.841 485.731   6
   2   5   2-73.6379 367.256   8
  -2   5  -2 289.910 460.926   3
  -2   5   2-271.335 388.056   1
   2  -5  -3 1453.51 517.806   5
  -2   5   3 801.356 463.681   9
  -2  -5  -3 523.692 544.476   5
   2   5   3 955.841 448.351   9
  -2   5   3 217.996 411.422   8
  -2   5  -3 945.459 482.094   1
   2   5   3 454.053 407.262   8
   2  -5   3 847.119 500.548   4
   2  -5   3 959.002 525.620   7
   2  -5   3 22.8572 454.499   2
   2  -5  -3 1668.50 590.370  12
  -2   5  -3 623.227 560.772   6
  -2   5  -3 1283.91 551.330   3
  -2   5   4 211.393 479.654   9
  -2  -5  -4 42.6500 637.979   5
   2   5   4-415.881 454.980   9
  -2   5   4 542.466 454.434   8
   2  -5   4-222.999 449.496   4
   2   5   4 184.090 348.094   8
   2  -5   4-39.2689 411.824   7
  -2   5  -4-69.5424 470.704   1
   2  -5  -4 88.1928 484.115  12
   2  -5   4-9.78081 428.134   2
  -2   5  -4 429.404 510.366   6
  -2  -5  -4 774.722 633.493  12
  -2   5  -4-542.750 546.270   3
   2  -5  -4-77.7084 448.935   5
  -2   5  -5 29.6741 513.505   1
  -2   5   5 886.830 563.716   9
  -2  -5  -5 263.576 644.350   5
   2   5   5 532.580 503.463   9
  -2   5   5-537.680 477.289   8
   2  -5   5-57.0744 470.691   4
   2   5   5 675.341 417.473   8
   2  -5   5-26.1087 418.571   7
   2  -5  -5 1619.22 740.254  12
  -2  -5  -5-72.0290 565.994  12
  -2   5  -5-205.480 621.188   6
   2  -5   5 33.6928 479.978   2
  -2   5  -5 629.925 578.769   3
   2   5   6 5917.80 945.827   9
   2  -5   6 6491.19 962.267   4
  -2   5  -6 6048.59 1079.50   1
   2  -5   6 4787.66 983.963   7
  -2  -5  -6 4788.85 1211.05  12
  -2   5  -6 8079.24 1203.33   6
  -2   5  -6 6716.21 1002.60   3
   2  -5   6 4945.92 864.165   2
   2   5   7 385.959 562.089   9
   2  -5   7 528.397 585.442   7
  -2  -5  -7-345.562 750.206  13
  -2  -5  -7-23.2070 820.531  12
   2   5   7 423.670 484.948  16
  -2   5  -7 1281.49 915.943   6
   2   5   8 82.2289 557.461   9
   2   5   8 365.896 547.943  16
  -2  -5  -8 1054.51 967.327  13
   2  -6   0 3484.02 754.435   5
  -2   6   0 3319.69 711.267   1
  -2   6   0 2497.54 647.878   8
   2  -6   0 2590.68 645.579   4
  -2   6   0 1915.34 628.648   3
   2  -6  -1 1321.64 556.359   5
   2  -6   1 1362.29 549.837   5
  -2   6   1 1389.98 513.531   1
  -2   6   1 1323.71 571.770   8
   2  -6  -1 1642.99 567.479   4
  -2   6  -1 1931.58 677.613   8
   2  -6   1 1329.05 596.673   4
  -2   6  -1 995.945 496.988   1
   2  -6  -1 2117.61 602.300   2
   2  -6   1 41.3510 569.385   2
  -2   6   1 1382.58 579.276   3
  -2   6  -1 316.364 539.064   3
   2  -6  -2-204.028 465.066   5
   2  -6   2 987.226 539.910   5
  -2   6   2-336.905 498.414   9
  -2   6   2-234.572 525.089   8
  -2   6  -2 135.319 464.310   8
   2  -6   2-129.443 479.012   4
  -2   6  -2 595.130 497.973   1
   2  -6  -2 176.561 420.164   2
   2  -6   2 33.2864 470.324   2
   2  -6  -2 631.904 550.541  12
  -2   6   2-1255.38 693.405   3
  -2   6  -2-18.4181 524.281   3
   2  -6  -3 1634.09 698.449   5
  -2   6   3 2531.08 740.557   9
  -2  -6  -3 1496.64 691.307   5
  -2   6   3 3351.45 779.985   8
   2  -6   3 2235.83 703.409   4
   2  -6   3 1545.15 586.438   7
   2  -6  -3 2174.64 672.480  12
  -2   6  -3 1157.08 561.055   1
   2  -6   3 16.7731 639.829   2
  -2   6  -3 1886.42 792.839   6
  -2  -6  -3 1191.85 564.869  12
  -2   6  -3 2032.40 699.115   3
  -2   6  -4-204.720 516.481   1
  -2  -6  -4 859.561 799.054   5
  -2   6   4-575.871 583.665   9
   2   6   4 944.319 570.250   9
  -2   6   4-878.215 544.219   8
   2  -6   4-336.041 509.050   4
   2  -6   4 100.364 450.094   7
   2  -6  -4-50.2482 595.736  12
  -2   6  -4 625.972 711.436   6
  -2  -6  -4-851.561 701.101  12
   2  -6   4-27.4972 489.007   2
  -2   6  -4-575.899 639.133   3
   2  -6  -4 152.635 526.445   5
  -2  -6  -5 62.1651 855.502   5
  -2   6   5 405.233 575.562   9
   2   6   5 916.553 650.314   9
   2  -6   5-318.328 558.909   4
  -2   6  -5-98.1033 598.552   1
   2  -6   5-116.383 512.833   7
  -2   6  -5-133.976 674.866   6
  -2  -6  -5 1250.18 873.492  12
  -2   6  -5 791.533 709.265   3
   2  -6   5 1.69818 575.812   2
  -2   6  -6-676.998 879.860   1
   2   6   6-407.262 550.117   9
   2  -6   6 512.020 669.640   4
   2  -6   6 242.538 598.949   7
  -2  -6  -6 108.847 768.694  12
  -2   6  -6 225.252 790.065   6
  -2   6  -6 599.915 703.916   3
   2  -6   6 7.35657 671.347   2
   2  -7   0 6859.16 1089.96   5
   2  -7   0 5695.09 978.907   4
  -2   7   0 6809.60 1096.04   8
   2  -7   0 7660.54 1095.17   2
  -2   7   0 6598.13 1092.71   3
  -2   7   0 5843.13 934.350   1
   2  -7  -1-950.461 672.733   5
   2  -7   1-357.592 505.334   5
   2  -7  -1-1572.30 808.858   4
  -2   7   1 269.585 595.966   8
   2  -7   1-632.851 603.069   4
  -2   7  -1 192.689 592.365   8
  -2   7   1-774.017 602.027   1
   2  -7  -1 28.3529 579.679   2
  -2   7   1-441.132 625.643   3
   2  -7   1 7.06193 607.655   2
  -2   7  -1-1236.79 777.790   3
  -2   7  -1 806.206 640.469   1
   2  -7  -2-627.354 640.497   5
   2  -7   2-677.825 622.448   5
  -2   7  -2 17.4913 591.462   1
  -2   7   2 570.567 639.006   8
   2  -7   2 210.196 563.195   4
  -2   7  -2 533.669 707.941   8
  -2   7  -2 1479.13 821.193   3
   2  -7   2-73.0914 530.471   2
  -2   7  -3 562.855 623.751   1
  -2   7   3-708.316 640.506   8
   2  -7   3-541.029 686.525   4
  -2   7  -3-691.981 854.674   3
   2  -7   3 20.1956 582.881   2
   2  -7  -3 707.166 665.813   5
  -2   7   4 1758.58 721.181   9
   2  -7   4-299.621 556.653   7
  -2   7  -4 987.098 941.931   6
   3   0   4 20802.0 980.263  15
   3   0   4 22330.3 1031.35  16
  -3   0  -4 20792.3 1475.34  14
  -3   0  -4 20675.5 1459.60  11
   3   0   4 21221.6 908.914   7
   3   0   4 21377.7 1003.28  10
   3   0   5 3988.07 509.179  16
   3   0   5 4873.70 504.047   7
   3   0   5 3625.47 514.341  15
  -3   0  -5 3567.83 701.250  14
  -3   0  -5 3866.27 751.694  11
   3   0   5 4940.52 580.732  10
   3   0   6-271.934 323.722  16
   3   0   6-51.1029 335.464  15
   3   0   6-97.7668 295.906   7
  -3   0  -6 606.997 557.619  14
  -3   0  -6 197.335 483.904  11
   3   0   6 468.889 396.819  10
   3   0   7 5465.33 716.951  16
   3   0   7 5439.28 741.520  15
  -3   0  -7 5244.35 966.761  14
  -3   0  -7 6182.94 1037.14  11
   3   0   7 4605.81 709.211  10
   3   0   8 5363.39 752.577  16
   3   0   8 4155.13 742.539  15
  -3   0  -8 3032.70 965.106  14
  -3   0  -8 3701.31 936.382  13
  -3   0  -8 2215.52 810.192  11
   3   0   8 3370.01 676.505  10
   3   0   9-50.2354 424.975  16
   3   0   9 3.38107 491.272  15
  -3   0  -9-134.840 718.158  14
  -3   0  -9 269.788 719.180  13
  -3   0  -9-1058.63 893.787  11
   3   0   9 299.701 552.247  10
   3   0  10 3344.92 813.908  10
   3   0  10 1940.71 695.855  16
   3   0  10 2464.34 727.072  15
  -3   0 -10 5107.06 1399.21  14
  -3   0 -10 3565.04 1232.88  13
  -3   0 -10 3926.35 1130.16  11
   3  -1   3 845.951 226.529   7
  -3   1  -3 117.549 428.536  11
   3  -1   3 657.369 233.023  10
   3  -1   4 14167.7 704.573   2
  -3   1  -4 14353.6 878.920   1
   3   1   4 14004.7 861.653  16
   3  -1   4 14583.0 845.836   7
   3   1   4 13636.8 870.031  15
   3  -1   4 12730.2 746.837  15
  -3  -1  -4 14407.8 1327.72  14
  -3   1  -4 13576.8 1051.78   6
  -3   1  -4 13863.2 1161.47  11
   3   1   4 14137.0 806.273  10
   3  -1   4 14788.4 883.662  10
   3   1   5 50146.5 1737.79  16
   3  -1   5 50393.3 1619.04  16
   3  -1   5 50359.3 1671.85   7
   3   1   5 49826.0 1753.34  15
   3  -1   5 51498.5 1629.64  15
  -3   1  -5 50110.9 2285.38  14
  -3  -1  -5 50478.1 2360.43  14
  -3   1  -5 49159.7 2030.03   6
  -3  -1  -5 49792.2 2436.19  11
  -3   1  -5 50154.5 2210.71  11
   3   1   5 51654.8 1690.01  10
   3  -1   5 49341.6 1750.53  10
   3  -1   6 5941.31 654.002  16
   3   1   6 5572.69 677.996  16
   3  -1   6 6179.95 694.054  15
   3   1   6 5053.11 685.828  15
   3  -1   6 5770.00 638.305   7
  -3   1  -6 5981.11 924.784  14
  -3  -1  -6 5241.94 1000.82  14
  -3   1  -6 5537.78 796.689   6
  -3  -1  -6 5630.52 954.882  11
  -3   1  -6 5712.88 890.776  11
   3   1   6 6348.26 708.174  10
   3  -1   6 5403.00 694.065  10
   3   1   7 2036.84 517.084  16
   3  -1   7 947.593 407.617  16
   3   1   7 2190.93 606.799  15
   3  -1   7 919.851 426.805  15
   3  -1   7 1656.76 460.364   7
  -3   1  -7 1593.70 679.041  14
  -3  -1  -7 711.727 668.756  14
  -3   1  -7 1249.46 604.836  13
  -3   1  -7 1133.94 576.757   6
  -3  -1  -7 1104.95 744.265  11
  -3   1  -7 1475.44 716.211  11
   3   1   7 1181.19 482.279  10
   3  -1   7 1145.92 458.209  10
   3   1   8 1236.81 485.875  16
   3   1   8 1990.81 626.205  15
   3  -1   8 2015.07 515.956  15
  -3   1  -8 1934.17 796.876  14
  -3  -1  -8 899.134 707.500  14
  -3   1  -8 1432.67 691.034  13
  -3  -1  -8 1662.11 819.667  13
   3  -1   8 2273.58 568.562  16
  -3  -1  -8 1774.83 833.731  11
  -3   1  -8 1398.47 713.703  11
   3   1   8 2156.25 619.281  10
   3  -1   8 954.683 540.728  10
   3   1   9-479.797 423.401  16
   3   1   9 554.921 547.661  15
   3  -1   9-542.130 515.770  15
  -3   1  -9-1145.65 828.002  14
  -3  -1  -9-382.676 828.347  14
  -3  -1  -9 39.4616 809.939  13
  -3  -1  -9 695.528 863.407  11
  -3   1  -9-1279.78 841.238  11
   3   1   9-591.338 582.638  10
   3  -1   9 669.367 549.748  10
   3  -1  10 4245.91 911.939  10
   3   1  10 2413.21 718.264  10
   3   1  10 2887.24 774.070  16
   3   1  10 3010.87 747.622  15
  -3  -1 -10 3177.83 1062.21  14
  -3  -1 -10 2661.18 1037.56  13
  -3  -1 -10 3537.02 1305.61  11
  -3   1 -10 3515.08 1227.52  11
  -3   2  -2 22640.2 1182.26   1
   3  -2   2 18541.8 909.532   2
   3  -2   2 22630.5 1028.75   7
  -3   2  -2 24713.6 1385.69   6
  -3   2  -3 255.163 199.715   8
   3  -2   3-49.3978 182.754   2
   3  -2   3-97.2551 159.251  15
   3  -2   3-81.3077 208.982   7
  -3   2  -3-117.689 239.112   1
  -3   2  -3 475.704 372.886   6
  -3   2  -3 45.2732 294.647   3
  -3   2  -3 164.836 417.875  11
   3  -2   3 121.431 193.555  10
   3  -2   4 13507.4 818.859   2
  -3   2  -4 12547.9 916.857   1
   3   2   4 14692.2 947.376  16
   3  -2   4 13727.9 916.632   7
   3   2   4 14727.8 960.206  15
   3  -2   4 13935.4 730.428  15
  -3   2  -4 15091.0 998.196   3
  -3   2  -4 13379.6 1090.03   6
  -3   2  -4 13769.8 1174.40  11
   3   2   4 14303.8 815.383  10
   3  -2   4 13446.7 885.452  10
  -3  -2  -4 14402.0 1046.97   5
   3   2   5 2392.86 461.380   9
   3  -2   5 2188.00 386.371   2
   3   2   5 2743.44 534.806  15
   3  -2   5 2824.15 420.556  15
   3  -2   5 2864.54 522.844   7
  -3  -2  -5 2361.25 762.515  14
   3   2   5 2369.67 460.016  16
  -3   2  -5 2682.44 544.263   3
  -3   2  -5 2206.54 557.200   6
  -3   2  -5 2420.64 652.100  11
  -3   2  -5 3573.17 565.263   1
   3   2   5 3448.41 483.428  10
   3  -2   5 2757.79 510.548  10
   3   2   6-684.474 400.110   9
   3   2   6 468.357 396.979  16
   3   2   6-422.281 436.562  15
   3  -2   6-779.596 426.680   7
  -3  -2  -6 83.1579 662.727  14
  -3   2  -6 332.373 447.108   6
  -3   2  -6-75.2388 454.253  11
   3   2   6 119.206 382.880  10
   3  -2   6 421.658 405.975  10
   3   2   7 3209.75 565.442   9
   3   2   7 2104.54 569.385  16
   3   2   7 5163.39 809.546  15
   3  -2   7 4108.55 711.375   7
  -3  -2  -7 3546.48 940.044  14
  -3   2  -7 4112.77 758.671   6
  -3  -2  -7 3173.22 926.571  12
  -3  -2  -7 4845.90 1139.86  11
  -3   2  -7 4209.51 870.087  11
   3   2   7 5022.67 736.988  10
   3  -2   7 3581.14 642.400  10
   3   2   8 2722.85 662.022  16
   3   2   8 2763.93 694.263  15
   3  -2   8 2406.25 573.460   7
  -3  -2  -8 2931.46 967.882  14
  -3  -2  -8 2566.79 1051.02  13
  -3   2  -8 3054.75 767.473   6
  -3   2  -8 2167.30 838.111  11
   3  -2   8 2586.50 690.321  10
   3  -2   9-529.527 614.743  10
   3   2   9 1101.74 529.948  16
   3   2   9-288.055 558.232  15
  -3  -2  -9-1677.90 1049.34  14
  -3  -2  -9 181.326 913.432  13
  -3   2  -9 1077.44 752.943   6
  -3   2  -9 574.125 799.093  11
   3  -2  10 3341.37 912.952  10
   3   2  10 1741.68 619.020  16
   3   2  10 2731.66 826.956  15
   3  -3   1 30037.4 1294.20   2
  -3   3  -1 29742.9 1441.94   1
  -3   3  -1 31301.6 1343.36   8
   3  -3   1 31762.3 1285.87   7
  -3   3  -1 31766.4 1523.62   3
   3  -3   2 20108.8 1090.78   2
   3  -3   2 21014.0 1112.37   4
  -3   3  -2 20537.2 1081.20   8
  -3   3  -2 23737.5 1315.56   1
   3  -3   2 22709.1 1116.87   7
  -3   3  -2 21462.6 1268.81   3
  -3   3  -2 21032.2 1353.37   6
   3  -3   2 22622.3 948.771  10
  -3   3  -3 603.406 292.415   8
   3  -3   3 578.380 322.946   4
   3  -3   3 619.481 275.098   2
   3  -3   3 193.531 287.784   7
  -3   3  -3 312.949 365.521   1
  -3   3  -3 861.837 486.670   6
  -3   3  -3 186.185 329.614   3
   3  -3   3 595.243 295.249  10
   3   3   4 6467.20 722.987   9
  -3  -3  -4 8082.70 952.527   5
   3  -3   4 7292.31 705.278   4
   3  -3   4 7414.41 731.189   2
   3   3   4 6556.86 712.630  15
   3  -3   4 7056.93 740.489   7
  -3   3  -4 6544.84 864.400   6
  -3   3  -4 6460.13 750.177   3
  -3   3  -4 7735.38 971.880  11
  -3   3  -4 6514.19 786.654   1
   3  -3   4 6953.61 666.514  10
   3   3   5 21732.2 1319.42   9
   3  -3   5 20627.6 1167.93   4
   3  -3   5 22615.7 1237.54   2
   3   3   5 21654.5 1301.36  16
  -3   3  -5 22146.6 1428.79   1
   3   3   5 21561.4 1331.36  15
   3  -3   5 23153.5 1368.84   7
  -3   3  -5 20926.7 1277.09   3
  -3   3  -5 22500.5 1559.01   6
  -3   3  -5 20849.9 1595.45  11
   3  -3   5 22088.4 1262.81  10
   3   3   6 2174.33 522.909   9
   3   3   6 3024.11 617.573  16
   3   3   6 3216.96 673.625  15
   3  -3   6 3790.94 692.465   7
  -3  -3  -6 4368.65 1130.21  14
  -3   3  -6 3612.24 825.146   6
  -3   3  -6 3626.16 850.823  11
   3  -3   6 3778.59 677.509  10
   3   3   7 1154.10 511.429   9
   3   3   7 1232.81 626.252  16
   3   3   7 630.780 543.034  15
   3  -3   7 40.7752 464.920   7
  -3  -3  -7 1252.77 915.147  14
  -3   3  -7-251.659 583.753   6
  -3  -3  -7-365.323 787.046  12
  -3   3  -7-226.472 564.346  11
   3  -3   7 39.1688 496.452  10
   3   3   8 283.062 397.633   9
   3   3   8 44.7506 429.594  16
  -3  -3  -8 73.9533 1097.31  14
   3  -3   8 646.125 546.264   7
  -3  -3  -8 1064.15 975.813  13
  -3   3  -8 840.761 764.175   6
  -3  -3  -8 711.086 840.297  12
  -3   3  -8 1597.78 754.992  11
   3  -3   8 989.162 583.915  10
   3  -3   9-383.422 504.335  10
   3   3   9-529.647 566.283  16
   3   3   9-131.900 573.889  15
  -3  -3  -9-1512.60 1232.97  14
   3  -3   9-586.835 574.837   7
  -3  -3  -9 818.840 1097.37  13
  -3   3  -9-314.299 795.467   6
  -3   3  -9 586.424 937.960  11
   3  -3  10 2149.92 762.315   7
  -3   4   0 205.639 291.861   9
  -3   4   0-275.419 368.524   8
   3  -4   0 284.323 317.147   2
   3  -4   0 246.965 294.467   7
  -3   4   0-222.888 407.097   1
  -3   4   0-189.827 441.900   3
   3  -4   0-283.243 336.645   5
  -3   4   1 13422.0 972.726   9
   3  -4  -1 13507.3 1007.57   2
   3  -4   1 12487.5 981.616   4
   3  -4   1 12405.2 968.705   2
  -3   4   1 12308.9 1028.26   8
  -3   4  -1 13604.7 1010.60   8
  -3   4   1 14995.0 1103.53   1
  -3   4  -1 14707.7 1127.99   1
   3  -4   1 13160.6 928.125   7
  -3   4  -1 14632.9 1153.57   3
   3  -4  -1 11703.5 979.514   5
   3  -4   1 14915.2 1038.54   5
  -3   4  -2 5874.03 704.453   8
   3  -4   2 5013.41 684.544   4
   3  -4   2 2854.26 668.708   2
   3  -4   2 5824.51 672.710   7
  -3   4  -2 6492.89 940.112   6
  -3   4  -2 6108.97 811.210   1
  -3   4  -2 6023.16 826.231   3
   3  -4   2 5333.95 623.480   5
  -3   4  -3-144.104 386.917   8
   3  -4   3 852.405 417.604   4
   3  -4   3 1.94635 325.473   2
   3  -4   3-103.951 351.350   7
  -3   4  -3 424.672 515.706   6
  -3   4  -3 111.815 407.756   3
  -3   4  -3-441.141 399.921   1
   3  -4   4 3980.18 675.812   4
   3  -4   4 4037.11 620.773   2
   3  -4   4 4893.35 684.513   7
  -3   4  -4 3372.01 729.270   6
  -3   4  -4 4231.64 739.910   3
  -3   4  -4 4269.46 765.343   1
  -3  -4  -5 1225.89 878.500   5
  -3   4  -5 222.707 511.041   1
   3   4   5 327.633 404.906   9
   3  -4   5 741.527 399.233   4
   3   4   5 1234.47 480.724  15
   3  -4   5 1302.13 541.288   7
   3  -4   5 835.608 447.521   2
  -3   4  -5 1206.26 574.324   6
  -3   4  -5 805.474 480.363   3
  -3   4  -5 715.998 711.455  11
   3  -4   5 492.767 406.345  10
   3   4   6-177.523 416.179   9
   3  -4   6-116.011 377.216   4
   3   4   6 449.533 498.037  15
   3  -4   6 198.971 503.661   7
  -3   4  -6-72.8754 565.663   1
  -3   4  -6 1441.29 690.258   6
  -3  -4  -6 455.861 851.330  12
  -3   4  -6 1459.01 848.301  11
   3  -4   6-72.6964 440.715  10
   3  -4   7 1687.86 543.826  10
   3   4   7 2420.35 672.534   9
   3   4   7 1290.95 548.643  16
   3   4   7 1414.37 538.176  15
   3  -4   7 2596.12 651.864   7
  -3  -4  -7 3387.64 1143.66  13
  -3   4  -7 1275.43 708.112   6
  -3  -4  -7 3112.97 1245.30  12
  -3   4  -7 3200.59 993.800  11
   3  -4   8 2559.03 732.510  10
   3   4   8 1121.05 623.822   9
   3   4   8 659.704 553.142  16
   3   4   8-560.708 614.769  15
   3  -4   8 859.942 582.493   7
  -3  -4  -8-146.808 937.056  13
  -3   4  -8 2148.74 881.188   6
  -3  -4  -8 933.287 1103.18  12
  -3   4  -8 1448.32 931.840  11
   3  -4   9 1935.00 795.682  10
   3   4   9 398.712 603.753  15
  -3  -4  -9 3616.28 1962.12  12
  -3   4  -9 1560.07 1202.75  11
  -3   5   0-153.320 446.066   8
   3  -5   0 3.54377 410.235   4
   3  -5   0 319.474 383.202   2
  -3   5   0 106.852 445.669   3
  -3   5   0 728.386 503.481   1
   3  -5   0 57.7668 388.467   5
  -3   5   1 6209.44 799.202   9
  -3   5   1 5936.55 832.462   8
  -3   5  -1 5213.30 793.236   8
   3  -5   1 5308.93 755.838   4
   3  -5  -1 6183.50 818.158   2
   3  -5   1 5100.90 752.408   2
   3  -5   1 5392.22 698.291   7
  -3   5  -1 5040.00 830.105   3
  -3   5   1 5356.92 783.203   1
  -3   5  -1 5127.80 804.785   1
   3  -5  -1 5967.91 861.242   5
   3  -5   1 6330.36 808.285   5
  -3   5   2 4765.28 785.086   9
  -3   5   2 4344.93 766.414   8
  -3   5  -2 4403.14 750.635   8
   3  -5   2 4892.37 776.270   4
   3  -5  -2 3907.83 672.493   2
   3  -5   2 4687.11 732.251   2
   3  -5   2 5466.90 783.887   7
  -3   5  -2 5208.55 953.703   6
  -3   5   2 5372.00 778.802   1
  -3   5  -2 4198.24 788.477   3
  -3   5  -2 4718.68 789.763   1
   3  -5  -2 3854.37 718.158   5
   3  -5   2 5392.40 723.007   5
  -3   5  -3 300.415 501.497   1
   3  -5   3 199.169 426.837   4
   3  -5   3 1113.24 528.767   7
   3  -5   3-68.6213 373.481   2
  -3   5  -3 445.583 599.873   6
  -3   5  -3 846.194 551.882   3
   3  -5   4 1328.59 578.369   4
   3  -5   4 1173.75 525.288   7
   3  -5   4 150.722 520.420   2
  -3   5  -4 1965.16 769.614   6
  -3   5  -4 1819.19 642.400   3
   3  -5   5 5520.89 812.130   4
  -3   5  -5 5991.75 1048.22   1
   3  -5   5 4170.63 889.994   7
   3  -5   5 7131.58 936.988   2
  -3   5  -5 4794.90 975.892   6
  -3   5  -5 5353.19 951.050   3
   3  -5   6 1209.71 596.738   4
   3  -5   6 581.387 566.554   7
  -3   5  -6 188.521 706.514   6
   3  -5   6 905.749 492.183   2
  -3   5  -6 722.482 631.039   3
  -3   5  -6 394.375 701.293   1
   3  -5   7 352.707 516.007   7
  -3   5  -7-205.220 754.205   6
  -3   6   0-169.315 445.537   1
  -3   6   0 1318.36 608.826   8
   3  -6   0-244.753 464.523   4
   3  -6   0-0.21086 547.065   2
  -3   6   0 275.770 566.293   3
   3  -6   0-93.4170 540.646   5
  -3   6   1 2277.12 594.887   1
  -3   6  -1 2361.97 708.970   1
  -3   6   1 2019.31 679.426   8
  -3   6  -1 2827.36 687.507   8
   3  -6   1 3321.48 741.837   4
   3  -6  -1 2224.43 679.602   2
   3  -6   1 23.1292 599.021   2
  -3   6  -1 2496.19 790.414   3
   3  -6  -1 3511.56 790.305   5
   3  -6   1 2751.15 671.083   5
  -3   6  -2 978.684 608.347   1
  -3   6   2 759.515 571.603   8
  -3   6  -2 165.772 516.367   8
   3  -6   2 874.831 589.797   4
   3  -6   2 4.86239 541.580   2
  -3   6  -2 539.732 567.625   3
   3  -6  -2 1893.66 695.117   5
   3  -6   2 1010.06 588.175   5
   3  -6   3-665.271 573.658   4
  -3   6  -3-476.054 560.417   1
   3  -6   3 328.724 513.674   7
   3  -6   3-3.45940 628.076   2
  -3   6  -3-583.290 748.826   6
  -3   6  -3 1157.94 705.231   3
   3  -6   4-1130.41 694.596   4
   3  -6   4-379.994 496.708   7
  -3   6  -4 604.980 669.786   1
   3  -6   4 7.90500 538.936   2
  -3   6  -4-1214.97 1000.07   6
  -3   6  -4 1075.63 623.953   3
   3  -6   5-584.202 632.583   4
   3  -6   5 291.216 573.629   7
   3  -6   5 23.5080 494.477   2
  -3   6  -5-868.124 774.139   3
  -3   6  -5-1519.69 910.945   1
   3  -6   6-318.522 556.083   4
  -3   6  -6 1422.00 836.101   1
   3  -6   6-157.288 546.572   7
  -3   6  -6-689.019 930.325   6
  -3   6  -6-787.290 790.326   3
   3  -6   6 3.65020 637.604   2
  -3   7   0-744.226 675.670   8
  -3   7   0-210.848 570.889   1
   3  -7   0 2.14430 670.224   2
  -3   7   0-181.437 729.779   3
   3  -7   0 464.851 625.711   5
   3  -7   1 454.738 630.190   4
  -3   7   1 17.0777 674.498   8
  -3   7  -1 2130.39 848.891   8
  -3   7   1-715.352 628.380   1
  -3   7  -1-23.0373 582.049   1
   3  -7  -1 27.4946 544.283   2
   3  -7   1 93.1108 665.232   2
  -3   7  -1 688.425 739.563   3
   3  -7  -1 829.222 684.982   5
   3  -7   1 530.886 528.065   5
   3  -7   2 323.254 653.092   4
  -3   7  -2 837.287 828.757   8
  -3   7  -2 1684.03 704.981   1
   3  -7   2-5.88851 625.650   2
  -3   7  -2 2116.49 907.268   3
   3  -7   2 1262.90 638.576   5
   3  -7   3-313.411 627.868   2
  -3   7  -3 1661.71 894.249   1
   3  -7   4 996.905 752.009   7
  -3   7  -4-640.865 947.900   6
   4   0   6 99641.9 2298.30   7
   4   0   6 93387.9 2521.09  15
  -4   0  -6 93695.4 4018.86  11
   4   0   6 90989.1 2527.37  10
   4   0   7 3461.79 611.948  16
   4   0   7 3437.64 608.437  15
  -4   0  -7 3591.82 1035.13  11
   4   0   7 3072.75 618.406  10
   4   0   8 12180.5 1114.53  16
   4   0   8 11458.8 1095.54  15
  -4   0  -8 11536.0 1721.40  11
   4   0   8 9650.67 1019.59  10
   4   0   9 1356.21 499.297  16
   4   0   9 1638.12 645.561  15
  -4   0  -9 1703.80 1134.49  13
  -4   0  -9 1290.12 1016.23  11
   4   0   9 804.815 552.695  10
   4   0  10 4256.64 839.287  16
   4   0  10 5482.20 900.545  15
  -4   0 -10 4312.90 1520.73  13
   4   0  10 4690.14 917.203  10
   4  -1   5 24919.9 1226.87   7
  -4   1  -5 21824.7 1880.07  11
   4  -1   5 22869.4 1221.99  10
   4  -1   6 2927.31 530.821  15
   4  -1   6 3378.06 528.099   7
  -4   1  -6 4255.13 1124.04  11
   4  -1   6 2099.18 529.533  10
   4   1   7 5690.16 804.483  16
   4   1   7 5261.94 782.832  15
   4  -1   7 4324.77 648.377  15
   4  -1   7 4609.90 652.633   7
  -4   1  -7 5195.84 1124.57  11
   4   1   7 5953.17 794.123  10
   4  -1   7 5849.41 814.067  10
   4   1   8 410.385 444.874  16
   4   1   8-319.094 482.714  15
   4  -1   8-171.382 451.134  15
  -4   1  -8-112.612 818.516  13
  -4   1  -8-161.565 916.721  11
   4   1   8-39.0907 457.738  10
   4  -1   8 474.515 483.735  10
   4   1   9 6417.06 910.277  16
   4   1   9 6972.78 1004.13  15
   4  -1   9 6572.49 909.114  15
  -4  -1  -9 5340.78 1424.52  13
  -4   1  -9 4744.54 1271.75  11
   4   1   9 7216.40 1003.38  10
   4  -1   9 6417.41 981.727  10
   4   1  10 247.185 505.467  16
   4   1  10 926.556 589.179  15
  -4  -1 -10 2692.94 1674.80  13
  -4   1 -10-1586.02 1321.00  11
   4   1  10 724.190 624.019  10
   4  -1  10 16.5383 581.574  10
   4  -2   5-194.663 313.041   7
  -4   2  -5 579.139 605.120   6
  -4   2  -5 403.860 483.440   1
  -4   2  -5 83.8377 645.787  11
   4  -2   5 193.319 311.446  10
   4  -2   6 70200.1 2350.43   7
  -4   2  -6 70036.3 3097.22   6
  -4   2  -6 72891.8 3473.97  11
   4  -2   6 70081.7 2387.03  10
   4   2   7 2589.20 659.749  16
   4  -2   7 1800.41 570.598   7
  -4   2  -7 2622.07 847.385   6
  -4   2  -7 2714.57 1081.47  11
   4  -2   7 2772.55 644.506  10
   4   2   8 7992.28 991.623  16
   4  -2   8 8453.05 990.878   7
   4   2   8 8956.43 1107.72  15
  -4   2  -8 9295.62 1356.50   6
  -4   2  -8 9460.39 1461.11  11
   4  -2   8 8615.35 1054.22  10
   4   2   9 1919.27 644.361  16
   4   2   9 358.300 573.354  15
  -4  -2  -9 739.125 1270.35  13
  -4   2  -9-1350.56 1194.37  11
   4  -2   9 793.955 570.648  10
   4  -3   4 3861.66 571.459   2
   4  -3   4 2621.15 539.229   7
  -4   3  -4 2959.56 802.943   6
  -4   3  -4 3775.69 756.287   1
   4  -3   4 3580.26 550.930  10
   4  -3   5 13805.0 1049.54   2
  -4   3  -5 13283.8 1285.87   1
   4  -3   5 12818.7 1051.90   7
  -4   3  -5 12675.6 1438.12   6
   4  -3   5 13351.6 1033.89  10
   4  -3   6 1940.86 600.057   7
  -4   3  -6 1762.87 765.645   6
  -4   3  -6 133.970 806.325  11
   4  -3   6 2529.54 566.195  10
   4  -3   7 3036.09 698.526   7
  -4   3  -7 2956.75 894.571   6
  -4   3  -7 2515.70 985.437  11
   4  -3   7 1952.70 575.947  10
   4  -3   8 299.223 510.813   7
  -4   3  -8-138.561 750.441   6
  -4   3  -8-746.065 1100.57  11
   4  -3   8-951.741 675.018  10
   4  -3   9 2381.51 708.811   7
  -4   3  -9 3644.00 1164.32   6
  -4   3  -9 4345.11 1402.95  11
   4  -3   9 2889.26 730.965  10
   4  -4   3 6917.38 793.077   2
   4  -4   3 4444.14 754.026   7
  -4   4  -3 4698.37 835.227   3
  -4   4  -3 4197.70 796.570   1
   4  -4   4 2598.39 589.531   2
   4  -4   4 1415.43 560.830   7
  -4   4  -4 1186.36 683.472   6
  -4   4  -4 2052.79 642.948   3
  -4   4  -4 1137.33 661.274   1
   4  -4   5 50.0202 382.896   2
   4  -4   5 283.967 490.923   7
  -4   4  -5-94.5147 623.181   6
  -4   4  -5-355.024 519.092   3
  -4   4  -5-954.578 755.643   1
   4  -4   5 91.5906 417.534  10
  -4   4  -6 28284.4 2146.55   1
   4  -4   6 28253.9 1736.47   7
  -4   4  -6 28715.0 2214.17   6
   4  -4   6 29121.7 1633.77  10
   4  -4   7 1070.76 609.405   7
  -4   4  -7-262.802 766.842   6
  -4   4  -7 169.398 1033.05  11
   4  -4   7 1303.87 566.992  10
   4  -4   8 4041.52 897.448   7
  -4   4  -8 2201.63 1036.69   6
  -4   4  -8 1727.23 1109.32  11
   4  -4   8 3582.07 826.493  10
   4  -5   3-0.92507 482.204   2
   4  -5   3 374.433 436.102   7
  -4   5  -3 6.31175 541.211   3
  -4   5  -3 858.340 655.664   1
  -4   5  -4 1160.88 766.654   1
   4  -5   4 155.517 528.373   2
   4  -5   4 697.852 540.371   7
  -4   5  -4 1379.95 754.000   6
  -4   5  -4 250.829 595.267   3
  -4   5  -5 4061.06 987.296   1
   4  -5   5 3951.62 878.114   7
  -4   5  -5 3844.55 1062.13   6
  -4   5  -5 3822.79 895.057   3
  -4   5  -6 1821.10 962.517   1
   4  -5   6 1014.45 620.933   7
   4  -5   6 1065.43 558.603   2
  -4   5  -6 586.499 807.663   6
  -4   5  -6 2222.21 845.168   3
   4  -5   7 444.208 642.153   7
  -4   5  -7 1648.97 1003.88   6
  -4   6  -2 676.173 657.801   1
   4  -6   2-201.743 754.768   2
  -4   6  -2-1251.71 812.792   3
  -4   6  -3 1137.87 699.499   1
   4  -6   3-329.168 575.442   7
   4  -6   3 183.415 712.690   2
  -4   6  -3 955.195 790.147   3
  -4   6  -4 384.247 671.936   1
   4  -6   4-12.7139 548.450   7
   4  -6   4-0.69758 554.169   2
  -4   6  -4 1717.33 714.139   3
  -4   6  -5 1549.96 987.440   1
   4  -6   5 617.753 614.133   7
   4  -6   5-8.48220 505.651   2
  -4   6  -5-335.922 1041.44   6
  -4   6  -5-375.446 729.376   3
  -4   6  -6 8476.66 1463.17   3
  -4   6  -6 5377.93 1395.62   1
   0   0   0    0.00    0.00   0

TITL nowe2a in Pnma
REM Pnma (#62 with fixed user cell (not necessary: std = user cell)!)
CELL 0.71073  10.654122   6.195403   8.782273  90.0109  89.9643  89.9878
ZERR    4.00   0.002828   0.000589   0.000796   0.0077   0.0138   0.0154
LATT  1
SYMM -x+1/2,-y, z+1/2
SYMM -x, y+1/2,-z
SYMM  x+1/2,-y+1/2,-z+1/2
SFAC C H N Cl
UNIT 16.00 8.00 20.00 4.00
TREF
HKLF 4
END
;
_shelx_hkl_checksum              4833
_olex2_submission_special_instructions 'No special instructions were received'
_oxdiff_exptl_absorpt_empirical_details
;
Empirical correction (ABSPACK) includes:
- Absorption correction using spherical harmonics
- Frame scaling
;
_oxdiff_exptl_absorpt_empirical_full_max 2.218
_oxdiff_exptl_absorpt_empirical_full_min 0.804
loop_
_space_group_symop_operation_xyz
'x, y, z'
'-x+1/2, -y, z+1/2'
'x+1/2, -y+1/2, -z+1/2'
'-x, y+1/2, -z'
'-x, -y, -z'
'x-1/2, y, -z-1/2'
'-x-1/2, y-1/2, z-1/2'
'x, -y-1/2, z'
loop_
_atom_site_label
_atom_site_type_symbol
_atom_site_fract_x
_atom_site_fract_y
_atom_site_fract_z
_atom_site_U_iso_or_equiv
_atom_site_adp_type
_atom_site_occupancy
_atom_site_site_symmetry_order
_atom_site_calc_flag
_atom_site_refinement_flags_posn
_atom_site_refinement_flags_adp
_atom_site_refinement_flags_occupancy
_atom_site_disorder_assembly
_atom_site_disorder_group
Cl1 Cl 0.6141(2) 0.750000 0.91216(12) 0.0694(17) Uani 1 2 d S T P . .
C6 C 0.6262(19) 0.750000 0.7176(6) 0.039(8) Uani 1 2 d S T P . .
C7 C 0.7457(19) 0.750000 0.6521(7) 0.054(9) Uani 1 2 d S T P . .
H7 H 0.817347 0.750000 0.712599 0.065 Uiso 1 2 calc R U P . .
N6 N 0.5351(14) 0.750000 0.4922(5) 0.033(3) Uani 1 2 d S TU P . .
N1 N 0.6181(17) 0.750000 0.2665(6) 0.045(9) Uani 1 2 d S T P . .
N5 N 0.5193(13) 0.750000 0.6462(5) 0.039(4) Uani 1 2 d S TU P . .
C8 C 0.7543(18) 0.750000 0.4982(6) 0.047(9) Uani 1 2 d S T P . .
H8 H 0.832342 0.750000 0.450604 0.056 Uiso 1 2 calc R U P . .
N2 N 0.4905(15) 0.750000 0.2608(8) 0.056(10) Uani 1 2 d S T P . .
N3 N 0.4401(14) 0.750000 0.3946(5) 0.065(6) Uani 1 2 d S T P . .
C9 C 0.648(2) 0.750000 0.4152(7) 0.042(8) Uani 1 2 d S T P . .
loop_
_atom_site_aniso_label
_atom_site_aniso_U_11
_atom_site_aniso_U_22
_atom_site_aniso_U_33
_atom_site_aniso_U_23
_atom_site_aniso_U_13
_atom_site_aniso_U_12
Cl1 0.104(5) 0.0725(7) 0.0319(6) 0.000 -0.0041(9) 0.000
C6 0.04(3) 0.042(2) 0.031(3) 0.000 -0.006(5) 0.000
C7 0.06(3) 0.055(3) 0.053(5) 0.000 -0.005(6) 0.000
N6 0.021(11) 0.0390(16) 0.039(2) 0.000 0.007(5) 0.000
N1 0.05(3) 0.056(2) 0.033(2) 0.000 -0.007(6) 0.000
N5 0.032(12) 0.0480(17) 0.036(2) 0.000 0.008(4) 0.000
C8 0.03(3) 0.057(3) 0.057(5) 0.000 0.023(5) 0.000
N2 0.06(3) 0.061(2) 0.044(2) 0.000 -0.027(7) 0.000
N3 0.09(2) 0.0502(19) 0.053(3) 0.000 -0.024(4) 0.000
C9 0.04(3) 0.046(2) 0.037(4) 0.000 -0.004(5) 0.000
loop_
_atom_type_symbol
_atom_type_description
_atom_type_scat_dispersion_real
_atom_type_scat_dispersion_imag
_atom_type_scat_source
C C 0.0033 0.0016 'International Tables Vol C Tables 4.2.6.8 and 6.1.1.4'
H H 0.0000 0.0000 'International Tables Vol C Tables 4.2.6.8 and 6.1.1.4'
Cl Cl 0.1484 0.1585 'International Tables Vol C Tables 4.2.6.8 and 6.1.1.4'
N N 0.0061 0.0033 'International Tables Vol C Tables 4.2.6.8 and 6.1.1.4'
loop_
_geom_angle_atom_site_label_1
_geom_angle_atom_site_label_2
_geom_angle_atom_site_label_3
_geom_angle
_geom_angle_site_symmetry_1
_geom_angle_site_symmetry_3
_geom_angle_publ_flag
C7 C6 Cl1 118.6(15) . . ?
N5 C6 Cl1 114.5(14) . . ?
N5 C6 C7 126.9(7) . . ?
C6 C7 H7 120.9 . . ?
C8 C7 C6 118.2(19) . . ?
C8 C7 H7 120.9 . . ?
N5 N6 C9 126.5(16) . . ?
N3 N6 N5 123.2(15) . . ?
N3 N6 C9 110.4(5) . . ?
C9 N1 N2 105.8(15) . . ?
C6 N5 N6 111.7(14) . . ?
C7 C8 H8 120.6 . . ?
C9 C8 C7 119(2) . . ?
C9 C8 H8 120.6 . . ?
N3 N2 N1 112.5(11) . . ?
N2 N3 N6 105.7(16) . . ?
N1 C9 N6 105.7(19) . . ?
N1 C9 C8 136(2) . . ?
C8 C9 N6 117.9(8) . . ?
loop_
_geom_bond_atom_site_label_1
_geom_bond_atom_site_label_2
_geom_bond_distance
_geom_bond_site_symmetry_2
_geom_bond_publ_flag
Cl1 C6 1.714(5) . ?
C6 C7 1.40(3) . ?
C6 N5 1.30(3) . ?
C7 H7 0.9300 . ?
C7 C8 1.356(8) . ?
N6 N5 1.363(6) . ?
N6 N3 1.33(2) . ?
N6 C9 1.38(3) . ?
N1 N2 1.36(2) . ?
N1 C9 1.344(10) . ?
C8 H8 0.9300 . ?
C8 C9 1.35(3) . ?
N2 N3 1.291(13) . ?
loop_
_geom_torsion_atom_site_label_1
_geom_torsion_atom_site_label_2
_geom_torsion_atom_site_label_3
_geom_torsion_atom_site_label_4
_geom_torsion
_geom_torsion_site_symmetry_1
_geom_torsion_site_symmetry_2
_geom_torsion_site_symmetry_3
_geom_torsion_site_symmetry_4
_geom_torsion_publ_flag
Cl1 C6 C7 C8 180.000(2) . . . . ?
Cl1 C6 N5 N6 180.000(2) . . . . ?
C6 C7 C8 C9 0.000(3) . . . . ?
C7 C6 N5 N6 0.000(3) . . . . ?
C7 C8 C9 N6 0.000(2) . . . . ?
C7 C8 C9 N1 180.000(2) . . . . ?
N1 N2 N3 N6 0.000(2) . . . . ?
N5 C6 C7 C8 0.000(5) . . . . ?
N5 N6 N3 N2 180.000(2) . . . . ?
N5 N6 C9 N1 180.000(2) . . . . ?
N5 N6 C9 C8 0.000(3) . . . . ?
N2 N1 C9 N6 0.000(2) . . . . ?
N2 N1 C9 C8 180.000(2) . . . . ?
N3 N6 N5 C6 180.000(2) . . . . ?
N3 N6 C9 N1 0.000(2) . . . . ?
N3 N6 C9 C8 180.000(1) . . . . ?
C9 N6 N5 C6 0.000(3) . . . . ?
C9 N6 N3 N2 0.000(2) . . . . ?
C9 N1 N2 N3 0.000(1) . . . . ?
