#------------------------------------------------------------------------------
#$Date: 2021-12-08 12:03:58 +0200 (Wed, 08 Dec 2021) $
#$Revision: 271263 $
#$URL: file:///home/coder/svn-repositories/cod/cif/1/56/55/1565594.cif $
#------------------------------------------------------------------------------
#
# This file is available in the Crystallography Open Database (COD),
# http://www.crystallography.net/
#
# All data on this site have been placed in the public domain by the
# contributors.
#
data_1565594
loop_
_publ_author_name
'Svistunova, Iryna V.'
'Sharutin, Vladimir V.'
'Tretyakova, Galina O.'
'Puzyrkov, Zakhar N.'
_publ_section_title
;
 Synthesis and structure of boron difluoride binuclear \b-diketonates
;
_journal_name_full               'Inorganica Chimica Acta'
_journal_page_first              119230
_journal_paper_doi               10.1016/j.ica.2019.119230
_journal_volume                  501
_journal_year                    2020
_chemical_formula_moiety         'C10 H12 B2 F4 O4 S, C H2 Cl'
_chemical_formula_sum            'C11 H14 B2 Cl F4 O4 S'
_chemical_formula_weight         375.35
_space_group_crystal_system      triclinic
_space_group_IT_number           2
_space_group_name_Hall           '-P 1'
_space_group_name_H-M_alt        'P -1'
_atom_sites_solution_hydrogens   geom
_atom_sites_solution_primary     direct
_atom_sites_solution_secondary   difmap
_cell_angle_alpha                86.56(3)
_cell_angle_beta                 85.43(2)
_cell_angle_gamma                70.61(3)
_cell_formula_units_Z            2
_cell_length_a                   7.591(4)
_cell_length_b                   10.496(4)
_cell_length_c                   10.791(5)
_cell_measurement_reflns_used    10786
_cell_measurement_temperature    293(2)
_cell_measurement_theta_max      41.33
_cell_measurement_theta_min      2.85
_cell_volume                     807.9(7)
_computing_molecular_graphics    'Olex2 (Dolomanov et al., 2009)'
_computing_publication_material  'Olex2 (Dolomanov et al., 2009)'
_computing_structure_refinement  'ShelXL (Sheldrick, 2015)'
_computing_structure_solution    'ShelXS-1997 (Sheldrick, 2008)'
_diffrn_ambient_temperature      293.15
_diffrn_measured_fraction_theta_full 0.993
_diffrn_measured_fraction_theta_max 0.993
_diffrn_measurement_device_type  Bruker
_diffrn_radiation_monochromator  graphite
_diffrn_radiation_type           MoK\a
_diffrn_radiation_wavelength     0.71073
_diffrn_reflns_av_R_equivalents  0.0382
_diffrn_reflns_av_unetI/netI     0.0321
_diffrn_reflns_limit_h_max       14
_diffrn_reflns_limit_h_min       -14
_diffrn_reflns_limit_k_max       19
_diffrn_reflns_limit_k_min       -19
_diffrn_reflns_limit_l_max       19
_diffrn_reflns_limit_l_min       -20
_diffrn_reflns_number            69665
_diffrn_reflns_theta_full        41.33
_diffrn_reflns_theta_max         41.33
_diffrn_reflns_theta_min         2.85
_diffrn_source                   'fine-focus sealed tube'
_exptl_absorpt_coefficient_mu    0.419
_exptl_absorpt_correction_T_max  0.8535
_exptl_absorpt_correction_T_min  0.7222
_exptl_absorpt_correction_type   multi-scan
_exptl_crystal_colour            colorless
_exptl_crystal_density_diffrn    1.543
_exptl_crystal_density_method    'not measured'
_exptl_crystal_description       block
_exptl_crystal_F_000             382
_exptl_crystal_size_max          0.83
_exptl_crystal_size_mid          0.81
_exptl_crystal_size_min          0.39
_refine_diff_density_max         0.796
_refine_diff_density_min         -0.790
_refine_diff_density_rms         0.103
_refine_ls_extinction_method     none
_refine_ls_goodness_of_fit_ref   1.021
_refine_ls_hydrogen_treatment    constr
_refine_ls_matrix_type           full
_refine_ls_number_parameters     212
_refine_ls_number_reflns         10786
_refine_ls_number_restraints     0
_refine_ls_restrained_S_all      1.021
_refine_ls_R_factor_all          0.1200
_refine_ls_R_factor_gt           0.0669
_refine_ls_shift/su_max          0.001
_refine_ls_shift/su_mean         0.000
_refine_ls_structure_factor_coef Fsqd
_refine_ls_weighting_details
'calc w=1/[\s^2^(Fo^2^)+(0.1009P)^2^+0.1811P] where P=(Fo^2^+2Fc^2^)/3'
_refine_ls_weighting_scheme      calc
_refine_ls_wR_factor_gt          0.1788
_refine_ls_wR_factor_ref         0.2078
_reflns_number_gt                6303
_reflns_number_total             10786
_reflns_threshold_expression     >2sigma(I)
_iucr_refine_instructions_details
;
TITL 1494_0m_a.res in P-1
CELL 0.71073 7.5912 10.4963 10.7912 86.562 85.426 70.611
ZERR 2 0.0036 0.0044 0.0049 0.026 0.021 0.027
LATT 1
SFAC C H O B F S Cl
UNIT 22 28 8 4 8 2 2
 
L.S. 99
PLAN  99 0 0
SIZE 0.39 0.81 0.83
TEMP 20
HTAB
BOND $H
CONF
fmap 2
acta
OMIT -1 3 4
OMIT 1 0 0
OMIT 0 1 3
REM <olex2.extras>
REM <HklSrc "%.\\1494_0m_a.hkl">
REM </olex2.extras>
 
WGHT    0.100900    0.181100
FVAR       0.94708
S1    6    0.706625    0.375022    0.881337    11.00000    0.04090    0.04462 =
         0.02954   -0.01015    0.00545   -0.02481
CL1   7    0.353530    0.125635    0.650402    11.00000    0.11737    0.09890 =
         0.09663   -0.04721    0.02489   -0.04719
F2    5    0.054889    0.313958    1.097217    11.00000    0.04429    0.11777 =
         0.04984   -0.01375    0.01400   -0.02069
O1    3    0.374367    0.206264    1.076582    11.00000    0.03869    0.05930 =
         0.03953    0.01380   -0.00060   -0.02236
O3    3    0.839835    0.383557    0.519576    11.00000    0.05335    0.03900 =
         0.03078    0.00108    0.00846   -0.01809
F3    5    0.978173    0.210713    0.386342    11.00000    0.13213    0.06249 =
         0.04677   -0.01577    0.04474   -0.03085
F4    5    0.665879    0.271627    0.434291    11.00000    0.10600    0.08853 =
         0.07624    0.02897   -0.05021   -0.05723
O2    3    0.197875    0.337341    0.904856    11.00000    0.02948    0.05494 =
         0.04725    0.00999   -0.00183   -0.01447
O4    3    0.871429    0.151105    0.581594    11.00000    0.05653    0.03241 =
         0.02928   -0.00499    0.00410   -0.01025
F1    5    0.166320    0.134447    0.976951    11.00000    0.11138    0.06211 =
         0.07476    0.00489   -0.02793   -0.05155
C2    1    0.518163    0.239092    1.034192    11.00000    0.03333    0.03804 =
         0.02697   -0.00160    0.00208   -0.01256
C3    1    0.510296    0.322729    0.926426    11.00000    0.03058    0.03136 =
         0.02551   -0.00441    0.00442   -0.01160
C8    1    0.770394    0.322537    0.726606    11.00000    0.02676    0.02846 =
         0.02715   -0.00270    0.00281   -0.01021
C7    1    0.790602    0.417374    0.634404    11.00000    0.02957    0.03204 =
         0.03345   -0.00132    0.00447   -0.01227
B2    4    0.838540    0.253202    0.475721    11.00000    0.06499    0.04397 =
         0.02752   -0.00150    0.00330   -0.02263
C1    1    0.682065    0.184877    1.111720    11.00000    0.04232    0.06067 =
         0.03410    0.00606   -0.00756   -0.01690
AFIX 137
H1A   2    0.655034    0.229684    1.189392    11.00000   -1.50000
H1B   2    0.789154    0.200344    1.068645    11.00000   -1.50000
H1C   2    0.707834    0.089596    1.127182    11.00000   -1.50000
AFIX   0
C4    1    0.341202    0.373335    0.867377    11.00000    0.03012    0.03227 =
         0.03366    0.00009    0.00358   -0.00609
C5    1    0.310011    0.469389    0.757999    11.00000    0.03908    0.04963 =
         0.05514    0.02075   -0.00053   -0.00444
AFIX 137
H5C   2    0.332817    0.419933    0.683069    11.00000   -1.50000
H5B   2    0.393922    0.520668    0.757109    11.00000   -1.50000
H5A   2    0.183145    0.529607    0.763172    11.00000   -1.50000
AFIX   0
C9    1    0.830886    0.185734    0.695851    11.00000    0.03316    0.02941 =
         0.02776   -0.00166   -0.00012   -0.00810
C10   1    0.855651    0.072157    0.788735    11.00000    0.06372    0.03109 =
         0.03423    0.00278   -0.00327   -0.00644
AFIX 137
H10A  2    0.735590    0.065452    0.816437    11.00000   -1.50000
H10B  2    0.915650    0.088081    0.858449    11.00000   -1.50000
H10C  2    0.931745   -0.010586    0.751449    11.00000   -1.50000
AFIX   0
C6    1    0.767579    0.560572    0.657237    11.00000    0.05820    0.03330 =
         0.05402   -0.00375    0.01108   -0.02180
AFIX 137
H6A   2    0.846996    0.591570    0.598013    11.00000   -1.50000
H6B   2    0.801347    0.567112    0.739898    11.00000   -1.50000
H6C   2    0.639540    0.615434    0.648533    11.00000   -1.50000
AFIX   0
 
C11   1    0.416576    0.052364    0.493976    11.00000    0.11127    0.08302 =
         0.12665    0.00844   -0.03343   -0.04125
AFIX  23
H11A  2    0.320343    0.018886    0.469277    11.00000   -1.20000
H11B  2    0.432249    0.119547    0.432321    11.00000   -1.20000
AFIX   0
 
B1    4    0.193503    0.246626    1.015004    11.00000    0.03826    0.05364 =
         0.03673   -0.00202    0.00320   -0.02413
HKLF 4
 
REM  1494_0m_a.res in P-1
REM R1 =  0.0669 for   6303 Fo > 4sig(Fo)  and  0.1200 for all  10786 data
REM    212 parameters refined using      0 restraints
 
END  
     
WGHT      0.1008      0.1813 
REM Highest difference peak  0.796,  deepest hole -0.790,  1-sigma level  0.103
Q1    1   0.4745  0.0112  0.4234  11.00000  0.05    0.80
Q2    1   0.7995  0.2581  0.7096  11.00000  0.05    0.48
Q3    1   0.7721  0.3652  0.6839  11.00000  0.05    0.44
Q4    1   0.5079  0.2850  0.9775  11.00000  0.05    0.34
Q5    1   0.4054  0.4460  0.6981  11.00000  0.05    0.32
Q6    1   0.2827  0.0951  0.9571  11.00000  0.05    0.32
Q7    1   1.0553  0.1853  0.4397  11.00000  0.05    0.28
Q8    1  -0.1876  0.4370  1.0566  11.00000  0.05    0.27
Q9    1   0.7477  0.2723  1.1459  11.00000  0.05    0.27
Q10   1   0.4532  0.0763  0.6754  11.00000  0.05    0.26
Q11   1   1.0469  0.3597  0.6676  11.00000  0.05    0.25
Q12   1   0.4269  0.3306  0.8920  11.00000  0.05    0.25
Q13   1   0.8103  0.3957  0.5690  11.00000  0.05    0.25
Q14   1   0.2005  0.5751  0.8133  11.00000  0.05    0.25
Q15   1   0.6749  0.6001  0.7370  11.00000  0.05    0.24
Q16   1   0.9984  0.3134  0.7216  11.00000  0.05    0.24
Q17   1   0.3072  0.1447  0.6744  11.00000  0.05    0.24
Q18   1   1.0264  0.1588  0.7749  11.00000  0.05    0.24
Q19   1   0.3231  0.4339  0.8167  11.00000  0.05    0.24
Q20   1   0.3867  0.0904  0.3397  11.00000  0.05    0.23
Q21   1   0.4609  0.3582  0.6267  11.00000  0.05    0.23
Q22   1   0.3382  0.0678  0.3854  11.00000  0.05    0.23
Q23   1   0.3223  0.1001  0.3600  11.00000  0.05    0.23
Q24   1   0.1830 -0.0672  0.5787  11.00000  0.05    0.23
Q25   1   0.6532  0.0195  1.0086  11.00000  0.05    0.23
Q26   1   1.0426  0.2065  0.8048  11.00000  0.05    0.23
Q27   1   0.0841  0.2368  1.0821  11.00000  0.05    0.23
Q28   1   0.5774  0.0619  0.3925  11.00000  0.05    0.23
Q29   1   0.1568  0.0979  0.4044  11.00000  0.05    0.22
Q30   1   0.4790  0.0109  0.9987  11.00000  0.05    0.22
Q31   1   0.2274  0.6172  0.8809  11.00000  0.05    0.22
Q32   1   0.9439  0.3292  0.7601  11.00000  0.05    0.22
Q33   1   0.6555  0.1529  1.1986  11.00000  0.05    0.22
Q34   1   0.2726  0.5843  0.8334  11.00000  0.05    0.22
Q35   1   0.3213  0.6132  0.8204  11.00000  0.05    0.22
Q36   1   0.2196  0.5000  0.9690  11.00000  0.05    0.22
Q37   1   0.8435  0.1293  0.7432  11.00000  0.05    0.22
Q38   1   1.0211  0.1191  0.8307  11.00000  0.05    0.22
Q39   1   0.3597  0.5735  0.8083  11.00000  0.05    0.22
Q40   1   1.0491  0.3347  0.6176  11.00000  0.05    0.22
Q41   1   1.1100 -0.0273  0.6177  11.00000  0.05    0.22
Q42   1   0.4532  0.5625  0.8985  11.00000  0.05    0.22
Q43   1   0.1021  0.2703  0.7171  11.00000  0.05    0.22
Q44   1   0.2839  0.5569  0.9280  11.00000  0.05    0.22
Q45   1   0.5191  0.3469  0.6813  11.00000  0.05    0.22
Q46   1   0.5000  0.5000  0.5000  10.50000  0.05    0.22
Q47   1   0.2168  0.0840  0.3460  11.00000  0.05    0.22
Q48   1   0.4805  0.4616  0.5477  11.00000  0.05    0.22
Q49   1   0.8221  0.1090  1.0554  11.00000  0.05    0.22
Q50   1   0.3550  0.5801  0.8706  11.00000  0.05    0.22
Q51   1   1.0317  0.2469  0.7624  11.00000  0.05    0.21
Q52   1   0.3451 -0.0398  0.5720  11.00000  0.05    0.21
Q53   1   0.8217  0.0983  0.8526  11.00000  0.05    0.21
Q54   1   0.1635  0.5853  0.8612  11.00000  0.05    0.21
Q55   1   0.2676  0.0578  0.3749  11.00000  0.05    0.21
Q56   1   0.4153  0.0090  1.0473  11.00000  0.05    0.21
Q57   1   0.8599  0.3073  0.7285  11.00000  0.05    0.21
Q58   1   0.5633  0.1719  0.8956  11.00000  0.05    0.21
Q59   1   0.4370 -0.0106  1.0030  11.00000  0.05    0.21
Q60   1   0.9568  0.1406  0.8486  11.00000  0.05    0.21
Q61   1   0.1672  0.0453  0.4502  11.00000  0.05    0.21
Q62   1   0.1050  0.3715  0.6070  11.00000  0.05    0.21
Q63   1   0.2714  0.5391  0.8961  11.00000  0.05    0.21
Q64   1   0.2209 -0.0575  0.6104  11.00000  0.05    0.21
Q65   1   0.4431  0.1396  0.8367  11.00000  0.05    0.21
Q66   1   0.5146  0.1563  0.8044  11.00000  0.05    0.20
Q67   1   0.6438  0.4286  1.0465  11.00000  0.05    0.20
Q68   1   0.5199  0.0542  0.9491  11.00000  0.05    0.20
Q69   1   1.0008  0.3596  0.7710  11.00000  0.05    0.20
Q70   1   0.3216 -0.0875  0.5761  11.00000  0.05    0.20
Q71   1   0.7645  0.5456  0.8990  11.00000  0.05    0.20
Q72   1   0.7650  0.1445  1.0798  11.00000  0.05    0.20
Q73   1   0.9505  0.0118  0.4721  11.00000  0.05    0.20
Q74   1   0.2771  0.4459  1.0315  11.00000  0.05    0.20
Q75   1   0.1322  0.5282  0.9120  11.00000  0.05    0.20
Q76   1   0.4730  0.4006  0.5814  11.00000  0.05    0.20
Q77   1   1.0872  0.0561  0.4294  11.00000  0.05    0.20
Q78   1   0.1173  0.3595  1.0908  11.00000  0.05    0.20
Q79   1   0.0000  0.5000  1.0000  10.50000  0.05    0.20
Q80   1   1.2127  0.1361  0.3285  11.00000  0.05    0.19
Q81   1   0.9679  0.4458  0.5683  11.00000  0.05    0.19
Q82   1   0.4604  0.4575  0.5213  11.00000  0.05    0.19
Q83   1   0.2937  0.5252  0.9684  11.00000  0.05    0.19
Q84   1   0.0502  0.4827  1.0062  11.00000  0.05    0.19
Q85   1   0.4105  0.1369  1.0499  11.00000  0.05    0.19
Q86   1   0.5163  0.1274  0.8934  11.00000  0.05    0.19
Q87   1   0.7338  0.5144  0.9726  11.00000  0.05    0.19
Q88   1   0.5755  0.3386  0.6510  11.00000  0.05    0.19
Q89   1   0.8121  0.2242  1.2304  11.00000  0.05    0.19
Q90   1   0.1460  0.4397  1.0567  11.00000  0.05    0.19
Q91   1   0.0870  0.2860  0.6918  11.00000  0.05    0.19
Q92   1   1.0256  0.3707  0.7231  11.00000  0.05    0.19
Q93   1   0.9981  0.0368  0.4481  11.00000  0.05    0.19
Q94   1   0.2592  0.4322  1.0029  11.00000  0.05    0.19
Q95   1   0.5935  0.2089  1.0756  11.00000  0.05    0.19
Q96   1   0.0112  0.4969  0.9382  11.00000  0.05    0.19
Q97   1   0.7622  0.3331  0.7770  11.00000  0.05    0.19
Q98   1   0.4982  0.1680  0.8426  11.00000  0.05    0.19
Q99   1   0.6117  0.0692  0.9112  11.00000  0.05    0.19

  REM The information below was added by Olex2.
  REM
  REM R1 = 0.0669 for 6303 Fo > 4sig(Fo) and 0.1200 for all 69691 data
  REM n/a parameters refined using n/a restraints
  REM Highest difference peak 0.80, deepest hole -0.79
  REM Mean Shift 0, Max Shift -0.001.

  REM +++ Tabular Listing of Refinement Information +++
  REM R1_all = 0.1200
  REM R1_gt = 0.0669
  REM wR_ref = 0.2078
  REM GOOF = 1.021
  REM Shift_max = -0.001
  REM Shift_mean = 0
  REM Reflections_all = 69691
  REM Reflections_gt = 6303
  REM Parameters = n/a
  REM Hole = -0.79
  REM Peak = 0.80
  REM Flack = n/a

  
;
_cod_data_source_file            1494_0m_aC11H14O4B2F4SCl.cif
_cod_data_source_block           1494_0m_a
_cod_original_cell_volume        808.0(6)
_cod_database_code               1565594
_olex2_refinement_description
;
1. Fixed Uiso
 At 1.2 times of:
  All C(H,H) groups
 At 1.5 times of:
  All C(H,H,H) groups
2.a Secondary CH2 refined with riding coordinates:
 C11(H11A,H11B)
2.b Idealised Me refined as rotating group:
 C1(H1A,H1B,H1C), C5(H5C,H5B,H5A), C10(H10A,H10B,H10C), C6(H6A,H6B,H6C)
;
_olex2_submission_special_instructions 'No special instructions were received'
loop_
_space_group_symop_id
_space_group_symop_operation_xyz
1 'x, y, z'
2 '-x, -y, -z'
loop_
_atom_site_label
_atom_site_type_symbol
_atom_site_fract_x
_atom_site_fract_y
_atom_site_fract_z
_atom_site_U_iso_or_equiv
_atom_site_adp_type
_atom_site_occupancy
_atom_site_calc_flag
_atom_site_disorder_assembly
_atom_site_disorder_group
_atom_site_refinement_flags_posn
S1 S 0.70663(5) 0.37502(3) 0.88134(3) 0.03573(9) Uani 1 d . . .
Cl1 Cl 0.35353(14) 0.12564(9) 0.65040(8) 0.1013(3) Uani 1 d . . .
F2 F 0.05489(16) 0.31396(17) 1.09722(11) 0.0726(4) Uani 1 d . . .
O1 O 0.37437(15) 0.20626(13) 1.07658(10) 0.0450(2) Uani 1 d . . .
O3 O 0.83984(16) 0.38356(10) 0.51958(9) 0.0411(2) Uani 1 d . . .
F3 F 0.9782(3) 0.21071(14) 0.38634(11) 0.0830(5) Uani 1 d . . .
F4 F 0.6659(2) 0.27163(16) 0.43429(14) 0.0828(5) Uani 1 d . . .
O2 O 0.19788(14) 0.33734(12) 0.90486(11) 0.0443(2) Uani 1 d . . .
O4 O 0.87143(16) 0.15110(10) 0.58159(9) 0.0407(2) Uani 1 d . . .
F1 F 0.1663(2) 0.13445(14) 0.97695(14) 0.0761(4) Uani 1 d . . .
C2 C 0.51816(17) 0.23909(13) 1.03419(11) 0.0328(2) Uani 1 d . . .
C3 C 0.51030(16) 0.32273(12) 0.92643(10) 0.02900(19) Uani 1 d . . .
C8 C 0.77039(15) 0.32254(11) 0.72661(10) 0.02736(18) Uani 1 d . . .
C7 C 0.79060(16) 0.41737(12) 0.63440(11) 0.0315(2) Uani 1 d . . .
B2 B 0.8385(3) 0.25320(18) 0.47572(14) 0.0447(4) Uani 1 d . . .
C1 C 0.6821(2) 0.18488(19) 1.11172(14) 0.0457(3) Uani 1 d . . .
H1A H 0.6550 0.2297 1.1894 0.069 Uiso 1 calc . . GR
H1B H 0.7892 0.2003 1.0686 0.069 Uiso 1 calc . . GR
H1C H 0.7078 0.0896 1.1272 0.069 Uiso 1 calc . . GR
C4 C 0.34120(17) 0.37334(12) 0.86738(12) 0.0334(2) Uani 1 d . . .
C5 C 0.3100(2) 0.46939(18) 0.75800(17) 0.0516(4) Uani 1 d . . .
H5C H 0.3328 0.4199 0.6831 0.077 Uiso 1 calc . . GR
H5B H 0.3939 0.5207 0.7571 0.077 Uiso 1 calc . . GR
H5A H 0.1831 0.5296 0.7632 0.077 Uiso 1 calc . . GR
C9 C 0.83089(17) 0.18573(12) 0.69585(11) 0.0307(2) Uani 1 d . . .
C10 C 0.8557(3) 0.07216(14) 0.78874(14) 0.0455(3) Uani 1 d . . .
H10A H 0.7356 0.0655 0.8164 0.068 Uiso 1 calc . . GR
H10B H 0.9157 0.0881 0.8584 0.068 Uiso 1 calc . . GR
H10C H 0.9317 -0.0106 0.7514 0.068 Uiso 1 calc . . GR
C6 C 0.7676(3) 0.56057(15) 0.65724(17) 0.0476(3) Uani 1 d . . .
H6A H 0.8470 0.5916 0.5980 0.071 Uiso 1 calc . . GR
H6B H 0.8013 0.5671 0.7399 0.071 Uiso 1 calc . . GR
H6C H 0.6395 0.6154 0.6485 0.071 Uiso 1 calc . . GR
C11 C 0.4166(5) 0.0524(3) 0.4940(4) 0.1037(11) Uani 1 d . . .
H11A H 0.3203 0.0189 0.4693 0.124 Uiso 1 calc . . R
H11B H 0.4322 0.1195 0.4323 0.124 Uiso 1 calc . . R
B1 B 0.1935(2) 0.24663(19) 1.01500(15) 0.0409(3) Uani 1 d . . .
loop_
_atom_site_aniso_label
_atom_site_aniso_U_11
_atom_site_aniso_U_22
_atom_site_aniso_U_33
_atom_site_aniso_U_23
_atom_site_aniso_U_13
_atom_site_aniso_U_12
S1 0.04090(17) 0.04462(18) 0.02954(14) -0.01015(11) 0.00545(10) -0.02481(13)
Cl1 0.1174(6) 0.0989(5) 0.0966(5) -0.0472(4) 0.0249(5) -0.0472(5)
F2 0.0443(5) 0.1178(11) 0.0498(6) -0.0138(6) 0.0140(4) -0.0207(6)
O1 0.0387(5) 0.0593(6) 0.0395(5) 0.0138(4) -0.0006(4) -0.0224(4)
O3 0.0534(6) 0.0390(5) 0.0308(4) 0.0011(3) 0.0085(4) -0.0181(4)
F3 0.1321(13) 0.0625(7) 0.0468(6) -0.0158(5) 0.0447(7) -0.0309(8)
F4 0.1060(11) 0.0885(9) 0.0762(9) 0.0290(7) -0.0502(8) -0.0572(9)
O2 0.0295(4) 0.0549(6) 0.0473(6) 0.0100(5) -0.0018(4) -0.0145(4)
O4 0.0565(6) 0.0324(4) 0.0293(4) -0.0050(3) 0.0041(4) -0.0102(4)
F1 0.1114(11) 0.0621(7) 0.0748(8) 0.0049(6) -0.0279(8) -0.0515(7)
C2 0.0333(5) 0.0380(6) 0.0270(5) -0.0016(4) 0.0021(4) -0.0126(4)
C3 0.0306(5) 0.0314(5) 0.0255(4) -0.0044(3) 0.0044(3) -0.0116(4)
C8 0.0268(4) 0.0285(4) 0.0271(4) -0.0027(3) 0.0028(3) -0.0102(3)
C7 0.0296(5) 0.0320(5) 0.0334(5) -0.0013(4) 0.0045(4) -0.0123(4)
B2 0.0650(10) 0.0440(8) 0.0275(6) -0.0015(5) 0.0033(6) -0.0226(7)
C1 0.0423(7) 0.0607(9) 0.0341(6) 0.0061(6) -0.0076(5) -0.0169(6)
C4 0.0301(5) 0.0323(5) 0.0337(5) 0.0001(4) 0.0036(4) -0.0061(4)
C5 0.0391(7) 0.0496(8) 0.0551(9) 0.0208(7) -0.0005(6) -0.0044(6)
C9 0.0332(5) 0.0294(5) 0.0278(4) -0.0017(4) -0.0001(4) -0.0081(4)
C10 0.0637(9) 0.0311(6) 0.0342(6) 0.0028(4) -0.0033(6) -0.0064(6)
C6 0.0582(9) 0.0333(6) 0.0540(8) -0.0037(6) 0.0111(7) -0.0218(6)
C11 0.111(3) 0.0830(19) 0.127(3) 0.0084(19) -0.033(2) -0.0413(17)
B1 0.0383(7) 0.0536(9) 0.0367(7) -0.0020(6) 0.0032(5) -0.0241(6)
loop_
_atom_type_symbol
_atom_type_description
_atom_type_scat_dispersion_real
_atom_type_scat_dispersion_imag
_atom_type_scat_source
C C 0.0033 0.0016 'International Tables Vol C Tables 4.2.6.8 and 6.1.1.4'
H H 0.0000 0.0000 'International Tables Vol C Tables 4.2.6.8 and 6.1.1.4'
O O 0.0106 0.0060 'International Tables Vol C Tables 4.2.6.8 and 6.1.1.4'
B B 0.0013 0.0007 'International Tables Vol C Tables 4.2.6.8 and 6.1.1.4'
F F 0.0171 0.0103 'International Tables Vol C Tables 4.2.6.8 and 6.1.1.4'
S S 0.1246 0.1234 'International Tables Vol C Tables 4.2.6.8 and 6.1.1.4'
Cl Cl 0.1484 0.1585 'International Tables Vol C Tables 4.2.6.8 and 6.1.1.4'
loop_
_geom_angle_atom_site_label_1
_geom_angle_atom_site_label_2
_geom_angle_atom_site_label_3
_geom_angle
_geom_angle_site_symmetry_1
_geom_angle_site_symmetry_3
C8 S1 C3 104.58(6) . .
C2 O1 B1 124.20(11) . .
C7 O3 B2 121.30(11) . .
C4 O2 B1 123.90(11) . .
C9 O4 B2 122.04(11) . .
O1 C2 C3 120.87(12) . .
O1 C2 C1 113.81(12) . .
C3 C2 C1 125.28(12) . .
C2 C3 S1 118.23(9) . .
C4 C3 S1 122.62(9) . .
C4 C3 C2 118.75(11) . .
C7 C8 S1 118.78(9) . .
C7 C8 C9 117.99(10) . .
C9 C8 S1 122.41(9) . .
O3 C7 C8 121.23(11) . .
O3 C7 C6 114.07(11) . .
C8 C7 C6 124.65(12) . .
O3 B2 O4 109.55(12) . .
F3 B2 O3 108.35(15) . .
F3 B2 F4 112.87(17) . .
F3 B2 O4 109.19(15) . .
F4 B2 O3 108.33(15) . .
F4 B2 O4 108.51(14) . .
C2 C1 H1A 109.5 . .
C2 C1 H1B 109.5 . .
C2 C1 H1C 109.5 . .
H1A C1 H1B 109.5 . .
H1A C1 H1C 109.5 . .
H1B C1 H1C 109.5 . .
O2 C4 C3 121.46(12) . .
O2 C4 C5 114.22(12) . .
C3 C4 C5 124.32(12) . .
C4 C5 H5C 109.5 . .
C4 C5 H5B 109.5 . .
C4 C5 H5A 109.5 . .
H5C C5 H5B 109.5 . .
H5C C5 H5A 109.5 . .
H5B C5 H5A 109.5 . .
O4 C9 C8 120.83(11) . .
O4 C9 C10 115.26(11) . .
C8 C9 C10 123.90(11) . .
C9 C10 H10A 109.5 . .
C9 C10 H10B 109.5 . .
C9 C10 H10C 109.5 . .
H10A C10 H10B 109.5 . .
H10A C10 H10C 109.5 . .
H10B C10 H10C 109.5 . .
C7 C6 H6A 109.5 . .
C7 C6 H6B 109.5 . .
C7 C6 H6C 109.5 . .
H6A C6 H6B 109.5 . .
H6A C6 H6C 109.5 . .
H6B C6 H6C 109.5 . .
Cl1 C11 H11A 110.7 . .
Cl1 C11 H11B 110.7 . .
C11 C11 Cl1 105.2(4) 2_656 .
C11 C11 H11A 110.7 2_656 .
C11 C11 H11B 110.7 2_656 .
H11A C11 H11B 108.8 . .
F2 B1 O1 108.41(14) . .
F2 B1 O2 108.59(15) . .
F2 B1 F1 111.72(15) . .
O2 B1 O1 110.57(11) . .
F1 B1 O1 108.98(15) . .
F1 B1 O2 108.57(14) . .
loop_
_geom_bond_atom_site_label_1
_geom_bond_atom_site_label_2
_geom_bond_distance
_geom_bond_site_symmetry_2
S1 C3 1.7761(13) .
S1 C8 1.7692(13) .
Cl1 C11 1.858(4) .
F2 B1 1.351(2) .
O1 C2 1.2926(16) .
O1 B1 1.494(2) .
O3 C7 1.3007(16) .
O3 B2 1.478(2) .
F3 B2 1.352(2) .
F4 B2 1.367(3) .
O2 C4 1.2940(17) .
O2 B1 1.483(2) .
O4 B2 1.496(2) .
O4 C9 1.2907(16) .
F1 B1 1.353(2) .
C2 C3 1.4073(17) .
C2 C1 1.487(2) .
C3 C4 1.4046(18) .
C8 C7 1.4009(17) .
C8 C9 1.4064(17) .
C7 C6 1.4878(19) .
C1 H1A 0.9600 .
C1 H1B 0.9600 .
C1 H1C 0.9600 .
C4 C5 1.486(2) .
C5 H5C 0.9600 .
C5 H5B 0.9600 .
C5 H5A 0.9600 .
C9 C10 1.4829(18) .
C10 H10A 0.9600 .
C10 H10B 0.9600 .
C10 H10C 0.9600 .
C6 H6A 0.9600 .
C6 H6B 0.9600 .
C6 H6C 0.9600 .
C11 C11 1.384(7) 2_656
C11 H11A 0.9700 .
C11 H11B 0.9700 .
loop_
_geom_torsion_atom_site_label_1
_geom_torsion_atom_site_label_2
_geom_torsion_atom_site_label_3
_geom_torsion_atom_site_label_4
_geom_torsion
_geom_torsion_site_symmetry_1
_geom_torsion_site_symmetry_2
_geom_torsion_site_symmetry_3
_geom_torsion_site_symmetry_4
S1 C3 C4 O2 -177.45(10) . . . .
S1 C3 C4 C5 3.28(19) . . . .
S1 C8 C7 O3 179.02(10) . . . .
S1 C8 C7 C6 1.87(18) . . . .
S1 C8 C9 O4 178.06(10) . . . .
S1 C8 C9 C10 -2.85(18) . . . .
O1 C2 C3 S1 174.78(10) . . . .
O1 C2 C3 C4 1.79(18) . . . .
C2 O1 B1 F2 -123.20(16) . . . .
C2 O1 B1 O2 -4.3(2) . . . .
C2 O1 B1 F1 115.00(16) . . . .
C2 C3 C4 O2 -4.79(18) . . . .
C2 C3 C4 C5 175.94(14) . . . .
C3 S1 C8 C7 127.74(10) . . . .
C3 S1 C8 C9 -62.82(11) . . . .
C8 S1 C3 C2 124.36(10) . . . .
C8 S1 C3 C4 -62.94(11) . . . .
C7 O3 B2 F3 -147.44(14) . . . .
C7 O3 B2 F4 89.79(16) . . . .
C7 O3 B2 O4 -28.4(2) . . . .
C7 C8 C9 O4 -12.42(18) . . . .
C7 C8 C9 C10 166.66(13) . . . .
B2 O3 C7 C8 12.9(2) . . . .
B2 O3 C7 C6 -169.71(15) . . . .
B2 O4 C9 C8 -6.2(2) . . . .
B2 O4 C9 C10 174.59(15) . . . .
C1 C2 C3 S1 -2.89(18) . . . .
C1 C2 C3 C4 -175.88(13) . . . .
C4 O2 B1 F2 120.03(16) . . . .
C4 O2 B1 O1 1.2(2) . . . .
C4 O2 B1 F1 -118.31(17) . . . .
C9 O4 B2 O3 25.2(2) . . . .
C9 O4 B2 F3 143.71(15) . . . .
C9 O4 B2 F4 -92.89(18) . . . .
C9 C8 C7 O3 9.11(18) . . . .
C9 C8 C7 C6 -168.04(13) . . . .
B1 O1 C2 C3 2.9(2) . . . .
B1 O1 C2 C1 -179.23(14) . . . .
B1 O2 C4 C3 3.1(2) . . . .
B1 O2 C4 C5 -177.57(15) . . . .
loop_
_refln_index_h
_refln_index_k
_refln_index_l
_refln_F_squared_calc
_refln_F_squared_meas
_refln_F_squared_sigma
_refln_observed_status
2 0 0 5026.63 4347.47 33.82 o
3 0 0 15.97 6.94 0.26 o
4 0 0 121.95 126.06 0.82 o
5 0 0 3.25 3.62 0.28 o
6 0 0 434.33 448.21 3.85 o
7 0 0 18.30 14.76 0.62 o
8 0 0 26.26 21.76 0.77 o
9 0 0 7.16 5.47 0.62 o
10 0 0 9.68 7.62 1.06 o
11 0 0 2.42 3.20 1.30 o
12 0 0 1.22 0.70 1.67 o
13 0 0 0.01 0.81 3.78 o
-12 1 0 6.81 11.24 1.90 o
-11 1 0 0.00 0.29 1.61 o
-10 1 0 4.79 4.17 1.28 o
-9 1 0 1.39 1.11 0.64 o
-8 1 0 1.66 2.03 0.44 o
-7 1 0 0.94 0.01 0.29 o
-6 1 0 368.81 358.18 3.36 o
-5 1 0 15.91 15.54 0.46 o
-4 1 0 635.01 627.44 4.32 o
-3 1 0 205.01 210.26 1.52 o
-2 1 0 203.47 260.89 2.37 o
-1 1 0 501.03 542.03 4.68 o
2 1 0 3425.82 3242.41 19.64 o
3 1 0 457.56 550.15 3.24 o
4 1 0 529.75 627.79 3.85 o
5 1 0 45.17 39.68 0.48 o
6 1 0 576.02 505.97 3.85 o
7 1 0 24.70 26.60 0.61 o
8 1 0 85.17 75.30 1.35 o
9 1 0 0.21 -0.31 0.52 o
10 1 0 7.79 8.81 0.95 o
11 1 0 4.70 2.50 1.09 o
12 1 0 1.53 0.64 1.69 o
13 1 0 0.54 1.39 2.86 o
-12 2 0 1.12 2.25 1.97 o
-11 2 0 3.12 5.63 1.77 o
-10 2 0 1.51 0.98 0.91 o
-9 2 0 2.47 2.42 0.74 o
-8 2 0 2.35 3.30 0.47 o
-7 2 0 8.32 8.69 0.48 o
-6 2 0 108.79 116.49 1.31 o
-5 2 0 5.27 5.55 0.40 o
-4 2 0 0.72 0.16 0.16 o
-3 2 0 108.22 121.23 0.92 o
-2 2 0 2318.93 2151.57 17.59 o
-1 2 0 398.64 401.28 2.71 o
0 2 0 4915.95 3614.17 72.65 o
1 2 0 1674.32 1615.08 18.19 o
2 2 0 1025.56 1045.58 6.70 o
3 2 0 89.13 113.28 0.77 o
4 2 0 1.54 2.64 0.21 o
5 2 0 4.47 4.20 0.35 o
6 2 0 23.25 20.64 0.53 o
7 2 0 89.57 80.87 1.04 o
8 2 0 16.30 18.41 0.65 o
9 2 0 21.74 19.55 0.97 o
10 2 0 2.78 1.97 0.65 o
11 2 0 11.26 12.12 1.28 o
12 2 0 0.85 0.15 1.57 o
13 2 0 1.74 2.88 2.18 o
-12 3 0 0.35 2.63 2.85 o
-11 3 0 2.86 2.28 2.11 o
-10 3 0 1.29 -0.31 1.04 o
-9 3 0 2.93 2.05 0.79 o
-8 3 0 23.04 20.24 0.85 o
-7 3 0 2.03 2.46 0.46 o
-6 3 0 1.25 3.92 0.52 o
-5 3 0 17.77 19.83 0.66 o
-4 3 0 311.53 363.13 5.65 o
-3 3 0 2.74 1.87 0.18 o
-2 3 0 695.39 737.17 4.99 o
-1 3 0 32.07 29.55 0.33 o
0 3 0 29.99 23.13 0.24 o
1 3 0 306.69 345.39 2.00 o
2 3 0 1095.59 1085.75 6.97 o
3 3 0 255.40 308.64 2.17 o
4 3 0 596.79 696.65 4.26 o
5 3 0 2.23 4.55 0.28 o
6 3 0 88.23 88.38 0.98 o
7 3 0 20.75 23.13 0.63 o
8 3 0 5.59 6.52 0.64 o
9 3 0 41.14 39.39 1.13 o
10 3 0 0.33 -0.06 0.62 o
11 3 0 3.43 3.22 0.98 o
12 3 0 0.03 -1.69 1.69 o
13 3 0 7.81 10.95 2.19 o
-12 4 0 0.89 9.81 5.46 o
-11 4 0 0.00 1.87 2.08 o
-10 4 0 0.31 -1.09 1.09 o
-9 4 0 7.39 9.37 1.11 o
-8 4 0 4.69 5.03 0.78 o
-7 4 0 4.01 1.49 0.49 o
-6 4 0 0.03 -0.41 0.41 o
-5 4 0 20.16 23.35 0.58 o
-4 4 0 15.91 15.87 0.48 o
-3 4 0 43.46 29.05 0.66 o
-2 4 0 1884.08 1905.89 13.20 o
-1 4 0 10.40 18.88 0.29 o
0 4 0 2095.34 1988.87 12.28 o
1 4 0 22.25 20.74 0.19 o
2 4 0 252.57 306.98 1.80 o
3 4 0 68.83 67.56 0.58 o
4 4 0 204.82 243.07 1.66 o
5 4 0 14.04 12.98 0.36 o
6 4 0 69.91 72.26 0.82 o
7 4 0 251.86 260.97 2.07 o
8 4 0 0.69 0.08 0.48 o
9 4 0 33.23 29.73 0.98 o
10 4 0 2.19 2.27 0.69 o
11 4 0 0.04 -1.03 1.03 o
12 4 0 0.04 -1.37 1.48 o
13 4 0 0.13 -0.53 2.00 o
-11 5 0 1.17 2.09 2.88 o
-10 5 0 0.14 -0.85 1.37 o
-9 5 0 1.81 0.91 1.13 o
-8 5 0 0.64 0.46 0.92 o
-7 5 0 0.80 -0.25 0.54 o
-6 5 0 4.86 4.38 0.56 o
-5 5 0 8.02 9.04 0.62 o
-4 5 0 8.01 7.64 0.41 o
-3 5 0 8.80 8.28 0.39 o
-2 5 0 70.14 61.29 0.75 o
-1 5 0 36.35 37.50 0.44 o
0 5 0 188.34 222.48 1.49 o
1 5 0 20.97 14.04 0.34 o
2 5 0 116.10 124.68 0.78 o
3 5 0 395.81 438.92 3.28 o
4 5 0 1.79 8.47 0.31 o
5 5 0 134.12 128.72 1.20 o
6 5 0 315.12 311.00 2.59 o
7 5 0 171.22 179.23 1.60 o
8 5 0 79.63 75.74 0.87 o
9 5 0 0.58 1.69 0.48 o
10 5 0 5.07 5.49 0.65 o
11 5 0 0.11 -0.98 0.98 o
12 5 0 0.09 1.34 1.33 o
13 5 0 0.94 4.23 2.84 o
-11 6 0 0.60 0.29 2.44 o
-10 6 0 0.50 -0.29 2.10 o
-9 6 0 2.58 2.17 1.76 o
-8 6 0 11.90 10.77 1.13 o
-7 6 0 13.80 13.33 0.89 o
-6 6 0 27.11 31.85 1.03 o
-5 6 0 8.14 7.54 0.49 o
-4 6 0 25.21 24.58 0.60 o
-3 6 0 72.12 68.93 0.95 o
-2 6 0 11.28 10.53 0.56 o
-1 6 0 338.69 335.95 2.71 o
0 6 0 12.40 18.26 0.46 o
1 6 0 1187.60 1137.54 7.30 o
2 6 0 141.22 175.00 1.07 o
3 6 0 181.08 185.34 1.21 o
4 6 0 126.30 113.71 0.85 o
5 6 0 7.65 8.93 0.47 o
6 6 0 154.64 146.01 1.67 o
7 6 0 83.53 88.83 0.96 o
8 6 0 87.35 86.04 0.93 o
9 6 0 34.22 30.46 0.90 o
10 6 0 4.55 3.02 0.72 o
11 6 0 0.54 0.33 0.86 o
12 6 0 0.29 0.04 1.49 o
13 6 0 0.21 -1.24 2.15 o
14 6 0 0.32 6.49 3.17 o
-10 7 0 0.18 -1.66 1.66 o
-9 7 0 0.07 -0.44 1.27 o
-8 7 0 4.44 5.77 1.50 o
-7 7 0 0.04 -0.01 0.93 o
-6 7 0 26.52 19.10 1.23 o
-5 7 0 17.00 13.64 0.70 o
-4 7 0 3.53 2.46 0.40 o
-3 7 0 48.60 46.12 0.82 o
-2 7 0 0.01 -0.14 0.36 o
-1 7 0 88.09 81.73 0.92 o
0 7 0 66.32 63.93 0.73 o
1 7 0 19.91 28.55 0.57 o
2 7 0 15.15 20.50 0.33 o
3 7 0 35.37 36.73 0.42 o
4 7 0 197.92 183.75 1.40 o
5 7 0 1.48 2.72 0.27 o
6 7 0 29.39 30.90 0.67 o
7 7 0 93.30 98.36 1.40 o
8 7 0 14.98 14.63 0.59 o
9 7 0 74.33 65.09 0.98 o
10 7 0 0.33 1.54 0.69 o
11 7 0 22.62 25.60 1.28 o
12 7 0 1.80 1.40 1.32 o
13 7 0 2.57 4.11 2.44 o
14 7 0 0.09 -3.09 3.09 o
-10 8 0 0.10 0.89 2.30 o
-9 8 0 0.92 0.16 1.49 o
-8 8 0 0.49 -0.05 1.29 o
-7 8 0 1.40 1.11 1.06 o
-6 8 0 0.76 1.11 0.76 o
-5 8 0 2.57 4.62 0.63 o
-4 8 0 4.22 4.34 0.56 o
-3 8 0 44.25 37.75 0.94 o
-2 8 0 32.01 34.44 0.78 o
-1 8 0 176.77 182.56 1.88 o
0 8 0 67.56 81.50 0.90 o
1 8 0 22.87 22.94 0.79 o
2 8 0 147.51 153.34 1.39 o
3 8 0 47.33 47.84 0.68 o
4 8 0 80.08 70.42 0.69 o
5 8 0 426.22 416.52 3.61 o
6 8 0 202.96 201.82 1.98 o
7 8 0 119.20 118.26 1.60 o
8 8 0 40.96 42.03 0.91 o
9 8 0 39.46 34.68 1.02 o
10 8 0 8.71 7.59 0.77 o
11 8 0 14.75 14.51 1.19 o
12 8 0 0.36 -1.38 1.59 o
13 8 0 2.63 6.22 3.97 o
-9 9 0 0.07 2.52 3.18 o
-8 9 0 0.07 -1.44 1.48 o
-7 9 0 2.10 -0.14 1.19 o
-6 9 0 0.44 0.38 0.85 o
-5 9 0 0.82 0.57 0.74 o
-4 9 0 7.96 10.10 0.64 o
-3 9 0 16.04 14.26 0.67 o
-2 9 0 29.47 34.79 0.86 o
-1 9 0 6.47 6.72 0.48 o
0 9 0 0.89 0.34 0.24 o
1 9 0 42.82 38.13 0.82 o
2 9 0 15.59 19.32 0.53 o
3 9 0 6.01 8.03 0.49 o
4 9 0 315.25 316.12 2.52 o
5 9 0 263.31 270.27 2.02 o
6 9 0 176.32 167.99 1.45 o
7 9 0 297.43 281.04 3.05 o
8 9 0 129.88 124.17 1.67 o
9 9 0 9.74 11.00 0.64 o
10 9 0 9.80 9.74 0.73 o
11 9 0 0.78 0.82 1.62 o
12 9 0 0.01 0.96 1.52 o
13 9 0 2.30 4.30 3.15 o
-8 10 0 3.90 7.07 1.75 o
-7 10 0 0.01 -1.13 1.27 o
-6 10 0 2.38 2.22 1.15 o
-5 10 0 1.19 3.10 0.76 o
-4 10 0 0.03 1.58 0.59 o
-3 10 0 5.93 6.20 0.54 o
-2 10 0 12.80 13.60 0.66 o
-1 10 0 70.48 65.39 1.03 o
0 10 0 14.05 15.72 0.49 o
1 10 0 184.41 189.82 2.31 o
2 10 0 5.49 5.58 0.44 o
3 10 0 113.01 105.36 1.64 o
4 10 0 15.35 16.65 0.55 o
5 10 0 104.31 102.42 1.01 o
6 10 0 26.90 27.37 0.54 o
7 10 0 26.91 31.44 0.77 o
8 10 0 70.12 66.95 1.01 o
9 10 0 10.26 9.80 0.59 o
10 10 0 5.08 2.98 0.64 o
11 10 0 1.66 1.27 0.89 o
12 10 0 0.88 -0.10 1.71 o
13 10 0 5.48 5.78 2.80 o
-8 11 0 2.56 3.03 2.22 o
-7 11 0 1.95 3.23 1.57 o
-6 11 0 0.47 0.96 1.31 o
-5 11 0 4.90 5.30 1.36 o
-4 11 0 4.44 6.53 0.81 o
-3 11 0 47.68 40.29 1.09 o
-2 11 0 15.97 14.24 0.77 o
-1 11 0 0.05 -0.08 0.42 o
0 11 0 0.21 -0.33 0.33 o
1 11 0 0.25 0.11 0.42 o
2 11 0 31.36 31.24 0.86 o
3 11 0 4.01 4.94 0.55 o
4 11 0 0.36 0.51 0.35 o
5 11 0 3.09 3.62 0.41 o
6 11 0 0.73 1.21 0.36 o
7 11 0 95.03 85.82 1.14 o
8 11 0 0.07 0.74 0.52 o
9 11 0 45.80 46.11 1.02 o
10 11 0 0.24 -0.17 0.66 o
11 11 0 7.85 8.30 0.97 o
12 11 0 0.24 2.03 2.32 o
13 11 0 0.06 2.05 3.06 o
-7 12 0 2.14 6.47 3.07 o
-6 12 0 0.16 -0.89 1.50 o
-5 12 0 3.91 6.80 1.33 o
-4 12 0 0.06 3.11 1.23 o
-3 12 0 32.42 37.20 1.21 o
-2 12 0 8.76 11.01 0.72 o
-1 12 0 11.59 11.08 0.73 o
0 12 0 3.16 1.72 0.56 o
1 12 0 0.31 0.42 0.52 o
2 12 0 0.01 0.99 0.46 o
3 12 0 149.00 144.84 2.21 o
4 12 0 28.92 27.76 1.06 o
5 12 0 4.70 4.83 0.69 o
6 12 0 1.10 1.23 0.53 o
7 12 0 12.69 12.94 0.76 o
8 12 0 15.63 16.02 0.78 o
9 12 0 0.13 1.03 0.63 o
10 12 0 0.48 0.66 0.85 o
11 12 0 4.88 5.63 1.11 o
12 12 0 5.05 8.15 1.88 o
13 12 0 1.15 8.29 3.63 o
-6 13 0 0.10 1.03 2.69 o
-5 13 0 4.35 5.74 1.61 o
-4 13 0 0.58 3.13 1.30 o
-3 13 0 0.06 1.75 1.12 o
-2 13 0 0.06 -0.65 0.73 o
-1 13 0 3.77 5.15 0.72 o
0 13 0 14.30 13.97 0.89 o
1 13 0 4.05 4.25 0.69 o
2 13 0 0.00 -0.01 0.52 o
3 13 0 0.17 -0.52 0.61 o
4 13 0 22.10 22.04 1.13 o
5 13 0 61.96 59.06 1.48 o
6 13 0 28.95 27.48 1.22 o
7 13 0 12.76 13.03 1.04 o
8 13 0 12.97 13.16 1.00 o
9 13 0 4.23 5.76 0.86 o
10 13 0 2.94 4.29 0.99 o
11 13 0 5.66 7.08 1.87 o
12 13 0 3.50 2.94 2.79 o
-5 14 0 0.00 -2.33 2.33 o
-4 14 0 2.67 0.66 1.83 o
-3 14 0 0.22 -1.55 1.55 o
-2 14 0 0.06 1.88 1.09 o
-1 14 0 0.57 -0.44 0.75 o
0 14 0 1.72 -0.22 0.77 o
1 14 0 10.87 9.55 0.82 o
2 14 0 0.32 -0.21 0.60 o
3 14 0 6.12 5.15 0.80 o
4 14 0 0.05 -0.01 0.70 o
5 14 0 0.02 0.81 0.72 o
6 14 0 50.11 47.44 1.82 o
7 14 0 3.86 4.59 1.01 o
8 14 0 24.71 24.06 2.13 o
9 14 0 0.14 -0.30 1.12 o
10 14 0 8.69 7.34 1.58 o
11 14 0 9.24 11.34 2.56 o
12 14 0 1.36 3.84 6.02 o
-4 15 0 0.21 -1.26 2.38 o
-3 15 0 2.20 1.62 2.06 o
-2 15 0 0.02 -1.26 1.26 o
-1 15 0 2.64 3.19 1.10 o
0 15 0 0.06 1.01 0.97 o
1 15 0 0.02 0.16 0.85 o
2 15 0 1.69 2.52 1.07 o
3 15 0 0.50 0.36 0.88 o
4 15 0 6.06 5.82 0.92 o
5 15 0 6.82 7.48 0.94 o
6 15 0 19.19 19.45 1.69 o
7 15 0 9.84 9.52 1.69 o
8 15 0 3.76 4.60 1.56 o
9 15 0 0.34 -1.20 1.65 o
10 15 0 0.66 1.52 2.43 o
11 15 0 0.65 4.15 3.12 o
-3 16 0 0.24 1.50 2.71 o
-2 16 0 2.64 1.76 1.80 o
-1 16 0 1.12 2.66 1.72 o
0 16 0 10.38 13.06 1.79 o
1 16 0 0.00 0.66 1.46 o
2 16 0 2.98 3.10 1.17 o
3 16 0 0.02 0.41 1.15 o
4 16 0 2.13 5.57 1.44 o
5 16 0 2.72 0.88 1.56 o
6 16 0 0.70 0.79 1.46 o
7 16 0 1.13 -1.24 1.88 o
8 16 0 0.63 -2.32 2.58 o
9 16 0 1.34 4.33 1.98 o
10 16 0 1.83 0.49 2.29 o
11 16 0 0.55 7.58 4.46 o
-2 17 0 0.04 -2.41 2.41 o
-1 17 0 0.77 10.12 4.12 o
0 17 0 3.22 5.22 1.73 o
1 17 0 1.18 2.62 1.52 o
2 17 0 2.63 3.34 1.83 o
3 17 0 0.77 -1.62 1.62 o
4 17 0 0.68 0.27 1.46 o
5 17 0 2.09 0.34 1.46 o
6 17 0 1.40 -1.64 1.64 o
7 17 0 0.00 0.56 2.87 o
8 17 0 0.07 -2.07 2.53 o
9 17 0 0.31 4.87 2.73 o
10 17 0 0.50 5.34 3.52 o
0 18 0 0.12 1.18 2.06 o
1 18 0 0.54 -0.04 1.96 o
2 18 0 0.00 -1.37 1.76 o
3 18 0 1.25 -1.41 1.85 o
4 18 0 0.01 0.51 2.02 o
5 18 0 0.70 0.92 3.44 o
6 18 0 0.16 -0.48 3.45 o
7 18 0 0.18 -0.79 2.75 o
8 18 0 0.06 0.35 3.28 o
9 18 0 1.51 8.78 4.20 o
2 19 0 0.20 3.41 5.06 o
3 19 0 0.41 1.02 3.16 o
4 19 0 0.55 1.72 3.06 o
5 19 0 0.43 -2.91 2.91 o
6 19 0 1.21 1.75 5.14 o
7 19 0 0.17 -0.03 3.29 o
-7 -19 1 0.02 1.08 3.55 o
-6 -19 1 0.73 4.04 3.70 o
-5 -19 1 0.56 -0.77 3.26 o
-4 -19 1 0.05 0.31 4.79 o
-3 -19 1 0.01 -1.38 3.11 o
-2 -19 1 0.00 1.33 3.25 o
-9 -18 1 2.65 6.30 3.00 o
-8 -18 1 1.17 2.90 3.06 o
-7 -18 1 0.61 0.10 4.16 o
-6 -18 1 0.01 -2.64 2.64 o
-5 -18 1 2.58 4.85 2.02 o
-4 -18 1 1.03 -1.38 1.87 o
-3 -18 1 1.48 0.86 1.95 o
-2 -18 1 0.10 -1.39 2.30 o
-1 -18 1 0.19 2.06 1.92 o
0 -18 1 0.13 0.71 2.35 o
-10 -17 1 2.94 0.15 3.73 o
-9 -17 1 0.47 0.21 2.90 o
-8 -17 1 1.86 0.52 3.06 o
-7 -17 1 0.02 -1.90 4.57 o
-6 -17 1 1.89 7.10 2.96 o
-5 -17 1 0.36 1.20 2.95 o
-4 -17 1 0.13 2.34 3.79 o
-3 -17 1 0.06 -0.67 1.88 o
-2 -17 1 0.71 -0.26 1.58 o
-1 -17 1 0.05 -1.52 1.52 o
0 -17 1 1.28 1.96 2.41 o
1 -17 1 1.11 0.12 1.91 o
2 -17 1 0.10 0.32 5.05 o
-11 -16 1 2.06 5.14 3.52 o
-10 -16 1 3.21 6.19 3.14 o
-9 -16 1 3.54 5.14 2.40 o
-8 -16 1 0.80 -1.42 1.73 o
-7 -16 1 0.53 -0.59 1.65 o
-6 -16 1 0.09 0.93 1.56 o
-5 -16 1 0.06 -0.39 2.06 o
-4 -16 1 0.63 1.78 5.35 o
-3 -16 1 0.14 -0.09 1.60 o
-2 -16 1 0.02 -1.23 1.23 o
-1 -16 1 0.23 -1.96 2.59 o
0 -16 1 0.24 1.88 1.55 o
1 -16 1 2.60 1.83 1.36 o
2 -16 1 0.04 2.26 2.02 o
3 -16 1 2.65 2.78 2.33 o
-11 -15 1 7.59 9.76 3.03 o
-10 -15 1 0.06 -0.69 2.51 o
-9 -15 1 0.81 2.28 2.25 o
-8 -15 1 0.12 -0.33 1.48 o
-7 -15 1 0.22 -1.31 1.31 o
-6 -15 1 7.73 8.83 1.60 o
-5 -15 1 2.09 3.34 1.06 o
-4 -15 1 8.75 9.39 1.14 o
-3 -15 1 1.11 1.48 1.03 o
-2 -15 1 3.09 3.74 1.13 o
-1 -15 1 1.91 -0.51 1.20 o
0 -15 1 0.23 -1.24 1.24 o
1 -15 1 0.27 -0.14 1.15 o
2 -15 1 1.06 -0.11 1.23 o
3 -15 1 0.79 1.72 2.91 o
4 -15 1 0.64 -1.79 2.97 o
-12 -14 1 0.66 -3.08 3.08 o
-11 -14 1 9.71 12.24 2.71 o
-10 -14 1 10.68 12.70 2.46 o
-9 -14 1 2.84 1.69 2.29 o
-8 -14 1 1.99 2.00 1.32 o
-7 -14 1 0.03 -1.06 1.17 o
-6 -14 1 4.95 4.00 0.92 o
-5 -14 1 41.30 41.56 1.46 o
-4 -14 1 1.21 0.93 0.82 o
-3 -14 1 33.21 34.10 1.48 o
-2 -14 1 4.10 4.12 0.66 o
-1 -14 1 18.55 18.28 1.18 o
0 -14 1 1.31 0.57 0.80 o
1 -14 1 0.04 -0.22 0.90 o
2 -14 1 0.75 1.20 1.10 o
3 -14 1 0.20 -0.49 1.06 o
4 -14 1 0.13 -0.27 1.64 o
5 -14 1 1.06 -2.10 2.10 o
-12 -13 1 3.96 8.05 4.29 o
-11 -13 1 0.58 1.42 5.13 o
-10 -13 1 3.45 3.94 1.13 o
-9 -13 1 0.16 0.60 0.92 o
-8 -13 1 9.04 10.59 1.33 o
-7 -13 1 9.16 9.54 1.38 o
-6 -13 1 0.03 -0.49 0.65 o
-5 -13 1 70.45 75.12 2.32 o
-4 -13 1 7.43 7.69 0.72 o
-3 -13 1 77.27 72.68 1.98 o
-2 -13 1 1.17 2.01 0.55 o
-1 -13 1 18.86 19.36 1.30 o
0 -13 1 0.41 -0.64 0.64 o
1 -13 1 1.82 0.67 0.75 o
2 -13 1 0.61 0.02 0.74 o
3 -13 1 0.01 1.15 1.28 o
4 -13 1 0.58 -1.14 1.19 o
5 -13 1 1.15 3.44 2.66 o
6 -13 1 1.81 11.90 3.48 o
-13 -12 1 0.01 2.28 4.09 o
-12 -12 1 2.08 5.23 2.36 o
-11 -12 1 17.88 22.66 2.03 o
-10 -12 1 6.13 6.30 0.96 o
-9 -12 1 19.64 21.92 1.15 o
-8 -12 1 0.00 -0.01 0.53 o
-7 -12 1 38.14 34.12 1.10 o
-6 -12 1 18.24 19.01 1.18 o
-5 -12 1 0.50 0.69 0.57 o
-4 -12 1 0.30 0.35 0.77 o
-3 -12 1 10.50 10.77 0.87 o
-2 -12 1 67.16 69.89 1.44 o
-1 -12 1 8.69 8.66 0.76 o
0 -12 1 3.08 3.78 0.60 o
1 -12 1 7.73 6.22 0.63 o
2 -12 1 0.83 0.24 0.64 o
3 -12 1 5.08 4.44 0.73 o
4 -12 1 2.17 3.34 1.45 o
5 -12 1 0.06 0.17 1.13 o
6 -12 1 0.20 -1.56 1.56 o
7 -12 1 0.00 -1.80 1.94 o
-13 -11 1 1.70 10.28 3.08 o
-12 -11 1 0.00 0.56 2.08 o
-11 -11 1 7.01 7.46 1.02 o
-10 -11 1 2.06 0.89 0.65 o
-9 -11 1 11.15 12.03 0.65 o
-8 -11 1 36.67 32.02 0.93 o
-7 -11 1 14.67 16.98 0.67 o
-6 -11 1 94.30 83.49 1.31 o
-5 -11 1 0.70 1.14 0.42 o
-4 -11 1 0.49 0.21 0.37 o
-3 -11 1 1.78 2.49 0.54 o
-2 -11 1 3.77 3.41 0.41 o
-1 -11 1 52.34 46.74 0.85 o
0 -11 1 0.00 0.22 0.42 o
1 -11 1 1.27 0.79 0.46 o
2 -11 1 10.86 16.42 0.79 o
3 -11 1 2.60 2.49 0.68 o
4 -11 1 2.11 3.26 0.70 o
5 -11 1 2.04 2.67 1.22 o
6 -11 1 0.00 -1.40 1.40 o
7 -11 1 0.00 1.05 1.84 o
8 -11 1 1.18 0.93 2.81 o
-13 -10 1 9.44 13.11 2.96 o
-12 -10 1 1.05 1.77 2.70 o
-11 -10 1 4.17 4.19 0.87 o
-10 -10 1 3.22 2.14 0.65 o
-9 -10 1 1.83 2.08 0.52 o
-8 -10 1 16.10 16.24 0.78 o
-7 -10 1 120.81 117.01 1.24 o
-6 -10 1 3.46 4.38 0.32 o
-5 -10 1 231.13 223.46 2.14 o
-4 -10 1 81.73 75.76 0.97 o
-3 -10 1 185.31 175.69 2.14 o
-2 -10 1 20.70 23.44 0.58 o
-1 -10 1 5.14 4.62 0.48 o
0 -10 1 23.26 20.44 0.55 o
1 -10 1 4.10 2.58 0.44 o
2 -10 1 1.20 1.97 0.54 o
3 -10 1 3.11 5.01 0.59 o
4 -10 1 4.36 4.90 0.69 o
5 -10 1 3.06 1.57 0.77 o
6 -10 1 0.50 -1.00 1.12 o
7 -10 1 1.27 2.39 1.35 o
8 -10 1 0.10 0.60 2.27 o
-13 -9 1 1.85 9.34 3.63 o
-12 -9 1 0.09 -1.76 1.91 o
-11 -9 1 0.09 1.62 0.99 o
-10 -9 1 1.08 1.23 0.60 o
-9 -9 1 3.42 2.61 0.56 o
-8 -9 1 0.32 0.72 0.47 o
-7 -9 1 163.37 148.54 1.46 o
-6 -9 1 76.88 66.31 0.76 o
-5 -9 1 528.79 509.63 3.58 o
-4 -9 1 2.51 4.18 0.31 o
-3 -9 1 931.47 912.94 7.98 o
-2 -9 1 40.54 36.98 1.22 o
-1 -9 1 7.59 7.70 0.54 o
0 -9 1 0.02 -0.25 0.25 o
1 -9 1 47.18 49.85 0.95 o
2 -9 1 123.22 128.09 1.61 o
3 -9 1 159.80 148.69 1.81 o
4 -9 1 2.31 2.67 0.55 o
5 -9 1 0.01 0.87 0.66 o
6 -9 1 0.92 2.00 0.89 o
7 -9 1 0.13 -1.12 1.22 o
8 -9 1 4.42 2.87 1.57 o
9 -9 1 1.30 2.86 2.67 o
-13 -8 1 2.17 6.13 3.15 o
-12 -8 1 0.28 2.07 1.49 o
-11 -8 1 10.48 10.86 1.08 o
-10 -8 1 3.79 1.30 0.65 o
-9 -8 1 38.73 40.94 1.06 o
-8 -8 1 1.54 1.76 0.45 o
-7 -8 1 15.83 16.14 0.63 o
-6 -8 1 47.61 51.05 0.73 o
-5 -8 1 10.87 11.95 0.39 o
-4 -8 1 516.85 504.26 3.51 o
-3 -8 1 14.61 16.61 0.52 o
-2 -8 1 438.96 448.97 3.78 o
-1 -8 1 283.53 258.87 2.31 o
0 -8 1 10.29 9.70 0.49 o
1 -8 1 27.04 19.79 0.59 o
2 -8 1 0.03 -0.47 0.47 o
3 -8 1 23.03 23.07 0.83 o
4 -8 1 0.78 1.82 0.55 o
5 -8 1 12.31 12.42 0.83 o
6 -8 1 0.82 0.24 0.76 o
7 -8 1 0.13 -0.38 1.07 o
8 -8 1 5.53 7.07 1.43 o
9 -8 1 3.89 3.24 1.75 o
10 -8 1 0.17 1.90 2.50 o
-13 -7 1 1.75 1.01 2.36 o
-12 -7 1 1.16 2.93 1.53 o
-11 -7 1 6.63 9.04 1.00 o
-10 -7 1 3.21 1.68 0.71 o
-9 -7 1 0.00 -0.39 0.39 o
-8 -7 1 81.16 70.43 1.21 o
-7 -7 1 51.58 44.77 0.67 o
-6 -7 1 26.56 32.11 0.52 o
-5 -7 1 4.46 5.89 0.26 o
-4 -7 1 295.40 288.28 2.01 o
-3 -7 1 11.78 14.18 0.31 o
-2 -7 1 903.27 858.21 6.27 o
-1 -7 1 58.28 62.72 0.81 o
0 -7 1 228.35 250.78 3.12 o
1 -7 1 59.35 70.52 0.90 o
2 -7 1 1.99 0.64 0.39 o
3 -7 1 38.13 30.73 0.68 o
4 -7 1 18.82 19.09 0.72 o
5 -7 1 1.41 0.37 0.52 o
6 -7 1 25.36 23.72 1.06 o
7 -7 1 0.29 -0.16 0.95 o
8 -7 1 4.35 4.45 1.50 o
9 -7 1 0.04 2.07 1.29 o
10 -7 1 2.46 6.09 2.19 o
-13 -6 1 0.02 1.83 2.59 o
-12 -6 1 1.80 0.85 1.37 o
-11 -6 1 0.58 0.30 0.87 o
-10 -6 1 1.22 1.12 0.74 o
-9 -6 1 0.43 1.18 0.41 o
-8 -6 1 61.12 67.71 0.95 o
-7 -6 1 55.32 48.98 0.65 o
-6 -6 1 115.25 108.96 1.14 o
-5 -6 1 375.64 410.83 3.31 o
-4 -6 1 41.28 42.27 0.49 o
-3 -6 1 34.38 32.60 0.33 o
-2 -6 1 41.81 42.21 0.38 o
-1 -6 1 0.04 0.95 0.17 o
0 -6 1 243.91 256.64 1.81 o
1 -6 1 15.23 9.23 0.38 o
2 -6 1 2.20 1.22 0.33 o
3 -6 1 10.20 9.51 0.46 o
4 -6 1 20.93 18.96 0.71 o
5 -6 1 1.92 1.35 0.47 o
6 -6 1 23.85 21.71 0.79 o
7 -6 1 5.28 2.36 0.89 o
8 -6 1 2.35 4.29 1.06 o
9 -6 1 0.17 -1.59 1.85 o
10 -6 1 1.47 0.16 1.65 o
11 -6 1 0.55 3.01 2.93 o
-13 -5 1 0.28 -0.95 2.30 o
-12 -5 1 0.65 0.98 1.50 o
-11 -5 1 3.14 3.31 0.96 o
-10 -5 1 0.74 0.99 0.61 o
-9 -5 1 0.01 -0.33 0.56 o
-8 -5 1 6.34 5.64 0.37 o
-7 -5 1 0.24 0.05 0.34 o
-6 -5 1 17.17 10.86 0.38 o
-5 -5 1 344.57 362.27 2.58 o
-4 -5 1 834.09 945.42 5.75 o
-3 -5 1 1434.16 1438.25 10.38 o
-2 -5 1 187.17 185.61 1.14 o
-1 -5 1 273.66 290.22 1.68 o
0 -5 1 869.32 826.39 5.37 o
1 -5 1 2168.38 2022.54 14.00 o
2 -5 1 750.22 767.23 5.97 o
3 -5 1 223.31 240.63 2.18 o
4 -5 1 43.97 37.40 0.68 o
5 -5 1 0.59 1.36 0.35 o
6 -5 1 0.03 -0.06 0.34 o
7 -5 1 1.17 0.03 0.77 o
8 -5 1 0.15 0.88 0.81 o
9 -5 1 0.80 -0.04 1.13 o
10 -5 1 0.29 0.27 1.32 o
11 -5 1 0.00 0.57 1.94 o
-13 -4 1 0.20 2.42 2.41 o
-12 -4 1 3.18 3.81 2.09 o
-11 -4 1 0.49 1.07 1.00 o
-10 -4 1 9.27 6.59 0.68 o
-9 -4 1 18.75 17.70 0.82 o
-8 -4 1 10.93 13.70 0.67 o
-7 -4 1 101.68 105.59 1.13 o
-6 -4 1 133.91 128.37 1.07 o
-5 -4 1 121.25 139.57 1.11 o
-4 -4 1 1328.01 1364.57 7.97 o
-3 -4 1 86.67 98.01 0.71 o
-2 -4 1 112.28 149.79 0.88 o
-1 -4 1 126.18 121.71 0.76 o
0 -4 1 665.06 793.12 5.79 o
1 -4 1 67.24 81.72 0.72 o
2 -4 1 370.98 373.73 2.63 o
3 -4 1 566.56 582.83 5.14 o
4 -4 1 0.21 0.39 0.25 o
5 -4 1 86.04 84.93 1.01 o
6 -4 1 14.07 8.41 0.52 o
7 -4 1 3.72 2.84 0.74 o
8 -4 1 0.91 0.16 0.70 o
9 -4 1 10.40 9.39 0.99 o
10 -4 1 0.16 -0.58 1.31 o
11 -4 1 1.14 2.49 1.76 o
12 -4 1 0.29 3.69 2.79 o
-13 -3 1 5.19 10.07 2.60 o
-12 -3 1 0.44 -1.00 1.63 o
-11 -3 1 3.22 2.95 1.08 o
-10 -3 1 0.00 -0.64 0.64 o
-9 -3 1 25.74 25.40 1.04 o
-8 -3 1 35.03 29.32 0.82 o
-7 -3 1 0.46 0.64 0.36 o
-6 -3 1 101.69 97.89 0.88 o
-5 -3 1 48.33 44.35 0.45 o
-4 -3 1 4196.46 3897.27 22.16 o
-3 -3 1 338.87 390.30 2.47 o
-2 -3 1 1067.43 1033.17 6.01 o
-1 -3 1 5161.16 4417.89 37.28 o
0 -3 1 1043.59 1051.21 6.99 o
1 -3 1 583.74 613.93 4.30 o
2 -3 1 2360.44 2176.45 14.43 o
3 -3 1 85.29 84.63 0.72 o
4 -3 1 122.44 119.24 1.69 o
5 -3 1 46.18 42.96 0.64 o
6 -3 1 0.32 -0.22 0.26 o
7 -3 1 1.79 2.92 0.54 o
8 -3 1 7.80 7.28 0.77 o
9 -3 1 1.27 1.24 0.81 o
10 -3 1 0.12 -0.98 0.98 o
11 -3 1 0.43 -0.88 1.52 o
12 -3 1 1.73 3.94 2.44 o
-13 -2 1 0.34 -0.89 2.18 o
-12 -2 1 0.21 1.82 1.68 o
-11 -2 1 4.05 3.80 1.21 o
-10 -2 1 19.39 20.20 1.08 o
-9 -2 1 5.86 4.34 0.60 o
-8 -2 1 97.70 89.01 1.42 o
-7 -2 1 204.02 193.29 2.20 o
-6 -2 1 241.32 255.79 2.20 o
-5 -2 1 166.17 147.71 1.46 o
-4 -2 1 88.93 78.21 0.58 o
-3 -2 1 790.58 859.47 5.03 o
-2 -2 1 846.72 866.17 5.20 o
-1 -2 1 651.66 618.03 3.31 o
0 -2 1 521.73 507.01 3.39 o
1 -2 1 5.00 0.95 0.13 o
2 -2 1 242.49 319.39 2.53 o
3 -2 1 296.99 366.16 2.68 o
4 -2 1 247.47 237.28 2.13 o
5 -2 1 19.82 12.13 0.40 o
6 -2 1 86.57 93.82 1.06 o
7 -2 1 3.53 2.58 0.48 o
8 -2 1 6.69 8.26 0.71 o
9 -2 1 8.67 10.96 1.05 o
10 -2 1 0.81 0.38 0.92 o
11 -2 1 0.06 0.03 2.29 o
12 -2 1 0.98 2.19 2.18 o
-13 -1 1 3.15 10.54 4.04 o
-12 -1 1 0.12 1.44 1.73 o
-11 -1 1 0.03 0.08 1.17 o
-10 -1 1 9.84 10.37 0.98 o
-9 -1 1 3.48 3.33 0.72 o
-8 -1 1 9.97 13.41 0.99 o
-7 -1 1 16.80 14.65 0.48 o
-6 -1 1 559.79 545.21 4.59 o
-5 -1 1 227.05 240.65 2.11 o
-4 -1 1 96.16 90.27 0.70 o
-3 -1 1 79.21 67.97 0.47 o
-2 -1 1 150.87 198.15 1.14 o
-1 -1 1 926.07 944.14 11.40 o
0 -1 1 3433.92 3176.28 76.36 o
1 -1 1 7694.65 5784.06 43.78 o
2 -1 1 3153.05 2811.23 28.73 o
3 -1 1 2.52 0.68 0.10 o
4 -1 1 85.47 92.24 0.84 o
5 -1 1 41.83 43.59 0.63 o
6 -1 1 138.22 119.35 1.23 o
7 -1 1 9.02 9.92 0.44 o
8 -1 1 2.90 4.59 0.55 o
9 -1 1 0.02 -0.60 0.60 o
10 -1 1 2.17 1.30 1.06 o
11 -1 1 0.00 -1.24 1.24 o
12 -1 1 0.55 1.80 1.73 o
13 -1 1 0.41 0.67 6.24 o
-13 0 1 2.00 2.44 2.93 o
-12 0 1 3.30 6.04 1.65 o
-11 0 1 1.20 2.08 1.18 o
-10 0 1 5.30 3.99 0.93 o
-9 0 1 9.48 8.86 0.70 o
-8 0 1 0.03 0.38 0.39 o
-7 0 1 67.95 62.23 1.04 o
-6 0 1 0.03 2.16 0.44 o
-5 0 1 0.38 0.32 0.19 o
-4 0 1 52.97 52.75 0.61 o
-3 0 1 64.77 75.31 0.56 o
-2 0 1 2420.79 2200.92 20.90 o
-1 0 1 7.55 10.75 0.33 o
1 0 1 1430.89 1439.58 18.66 o
2 0 1 2863.30 2853.16 19.93 o
3 0 1 61.36 79.80 0.61 o
4 0 1 860.45 861.14 5.58 o
5 0 1 499.05 511.34 4.67 o
6 0 1 30.90 28.77 1.12 o
7 0 1 0.53 0.15 0.31 o
8 0 1 55.73 50.86 1.04 o
9 0 1 18.66 20.57 1.29 o
10 0 1 19.42 18.51 1.26 o
11 0 1 0.33 -0.59 1.53 o
12 0 1 0.03 -0.92 1.71 o
13 0 1 0.00 3.17 2.85 o
-12 1 1 2.85 1.19 1.69 o
-11 1 1 6.21 7.81 1.41 o
-10 1 1 0.25 1.79 0.97 o
-9 1 1 3.81 3.29 0.54 o
-8 1 1 1.26 0.97 0.44 o
-7 1 1 4.98 3.77 0.40 o
-6 1 1 242.40 245.86 2.58 o
-5 1 1 127.99 133.34 1.50 o
-4 1 1 449.53 491.19 3.54 o
-3 1 1 110.28 144.06 1.05 o
-2 1 1 182.16 180.67 1.62 o
-1 1 1 1396.07 1436.70 19.57 o
1 1 1 328.68 385.78 3.63 o
2 1 1 14462.79 9928.07 114.04 o
3 1 1 5000.38 4747.73 26.14 o
4 1 1 243.19 302.71 1.99 o
5 1 1 896.26 1010.75 7.74 o
6 1 1 97.93 90.93 0.94 o
7 1 1 9.61 6.13 0.35 o
8 1 1 0.51 0.35 0.48 o
9 1 1 1.15 0.98 0.68 o
10 1 1 0.00 -0.91 0.91 o
11 1 1 4.21 3.29 1.28 o
12 1 1 3.05 2.29 1.91 o
13 1 1 0.38 2.97 2.63 o
-12 2 1 1.44 2.22 2.01 o
-11 2 1 5.00 6.12 1.54 o
-10 2 1 21.58 22.61 1.32 o
-9 2 1 0.09 -0.66 0.66 o
-8 2 1 27.56 25.70 0.91 o
-7 2 1 11.02 9.39 0.56 o
-6 2 1 142.87 139.51 1.60 o
-5 2 1 24.28 23.62 0.60 o
-4 2 1 361.98 389.39 3.16 o
-3 2 1 63.64 56.88 0.55 o
-2 2 1 573.57 553.85 3.38 o
-1 2 1 884.02 969.12 6.21 o
0 2 1 1381.49 1411.57 11.46 o
1 2 1 2417.68 2190.65 17.54 o
2 2 1 18.21 15.31 0.30 o
3 2 1 326.63 401.98 2.65 o
4 2 1 982.47 1078.23 6.31 o
5 2 1 2.39 5.52 0.24 o
6 2 1 234.29 281.89 2.67 o
7 2 1 133.70 141.06 1.50 o
8 2 1 0.08 0.11 0.39 o
9 2 1 0.34 0.42 0.48 o
10 2 1 21.00 19.67 1.52 o
11 2 1 1.96 2.57 1.16 o
12 2 1 3.31 1.83 1.61 o
13 2 1 0.53 2.70 2.15 o
-12 3 1 4.83 7.12 3.58 o
-11 3 1 0.07 0.53 1.54 o
-10 3 1 10.74 10.45 1.25 o
-9 3 1 0.07 -0.78 0.78 o
-8 3 1 29.48 30.19 1.04 o
-7 3 1 4.09 4.01 0.51 o
-6 3 1 2.66 2.37 0.46 o
-5 3 1 21.54 18.94 0.64 o
-4 3 1 39.72 41.31 0.73 o
-3 3 1 229.11 223.80 1.73 o
-2 3 1 3.31 2.80 0.14 o
-1 3 1 7.37 19.39 0.26 o
0 3 1 7867.42 5974.19 57.97 o
1 3 1 276.45 322.89 1.92 o
2 3 1 300.35 281.86 1.89 o
3 3 1 1637.51 1546.08 9.92 o
4 3 1 0.50 1.09 0.13 o
5 3 1 663.92 662.02 4.37 o
6 3 1 250.49 256.96 2.17 o
7 3 1 5.33 5.82 0.39 o
8 3 1 6.22 10.67 0.56 o
9 3 1 12.61 11.32 0.73 o
10 3 1 2.24 1.66 0.85 o
11 3 1 0.76 0.37 0.93 o
12 3 1 0.37 0.50 1.70 o
13 3 1 2.22 1.34 2.04 o
-11 4 1 3.96 3.68 1.98 o
-10 4 1 0.06 2.13 1.22 o
-9 4 1 1.63 1.02 0.86 o
-8 4 1 4.23 3.05 0.61 o
-7 4 1 14.22 11.62 0.84 o
-6 4 1 43.41 38.87 0.95 o
-5 4 1 42.15 37.92 0.94 o
-4 4 1 0.06 2.79 0.29 o
-3 4 1 179.36 162.34 1.74 o
-2 4 1 2.58 5.96 0.27 o
-1 4 1 274.41 297.90 2.10 o
0 4 1 44.27 50.21 0.44 o
1 4 1 10.76 17.77 0.20 o
2 4 1 666.08 744.07 5.65 o
3 4 1 347.56 399.09 2.67 o
4 4 1 67.06 62.92 0.59 o
5 4 1 241.13 220.25 1.72 o
6 4 1 375.52 400.64 2.96 o
7 4 1 167.60 177.27 1.49 o
8 4 1 290.80 261.50 2.52 o
9 4 1 5.35 6.23 0.66 o
10 4 1 9.73 8.07 0.99 o
11 4 1 3.99 3.45 1.12 o
12 4 1 0.37 -1.39 1.54 o
13 4 1 0.15 2.52 2.32 o
-11 5 1 1.44 2.64 2.52 o
-10 5 1 1.40 1.34 2.17 o
-9 5 1 6.17 6.99 1.20 o
-8 5 1 6.36 5.80 1.05 o
-7 5 1 15.01 15.83 0.90 o
-6 5 1 9.56 10.94 0.66 o
-5 5 1 50.37 43.34 0.98 o
-4 5 1 1.96 2.83 0.33 o
-3 5 1 24.51 30.60 0.59 o
-2 5 1 572.15 578.39 4.18 o
-1 5 1 56.01 57.34 0.56 o
0 5 1 1324.44 1418.49 8.81 o
1 5 1 2156.24 2020.37 11.33 o
2 5 1 2087.27 2069.27 11.66 o
3 5 1 2305.74 2301.11 12.64 o
4 5 1 915.73 1053.93 7.13 o
5 5 1 0.19 0.18 0.22 o
6 5 1 0.08 0.01 0.22 o
7 5 1 0.35 1.97 0.31 o
8 5 1 29.77 26.28 0.71 o
9 5 1 67.12 69.31 1.16 o
10 5 1 13.17 14.38 0.91 o
11 5 1 11.08 8.69 1.16 o
12 5 1 2.91 4.92 1.34 o
13 5 1 5.26 5.22 2.70 o
14 5 1 1.68 5.28 4.25 o
-11 6 1 0.52 1.02 2.19 o
-10 6 1 0.12 0.59 1.47 o
-9 6 1 2.01 1.41 1.13 o
-8 6 1 8.66 11.97 1.29 o
-7 6 1 1.29 1.06 0.69 o
-6 6 1 31.39 26.14 1.01 o
-5 6 1 3.34 1.09 0.50 o
-4 6 1 0.17 0.03 0.33 o
-3 6 1 24.84 27.30 0.63 o
-2 6 1 160.49 153.11 1.57 o
-1 6 1 23.50 15.67 0.40 o
0 6 1 165.88 165.60 1.19 o
1 6 1 224.13 217.91 1.44 o
2 6 1 234.57 293.82 1.72 o
3 6 1 345.59 339.67 2.10 o
4 6 1 172.88 196.30 1.63 o
5 6 1 2.59 2.84 0.49 o
6 6 1 102.15 102.87 1.27 o
7 6 1 67.63 63.93 0.80 o
8 6 1 9.53 6.19 0.35 o
9 6 1 111.19 105.97 1.33 o
10 6 1 7.84 6.82 0.85 o
11 6 1 11.85 12.60 1.24 o
12 6 1 0.43 0.59 1.32 o
13 6 1 3.97 5.73 2.16 o
14 6 1 0.23 2.56 3.08 o
-10 7 1 0.00 3.34 2.63 o
-9 7 1 0.82 -0.87 1.42 o
-8 7 1 1.08 -0.06 1.46 o
-7 7 1 0.02 -0.92 0.92 o
-6 7 1 0.76 1.26 0.72 o
-5 7 1 58.84 62.40 1.34 o
-4 7 1 21.44 15.55 0.68 o
-3 7 1 128.20 134.66 1.44 o
-2 7 1 123.11 116.37 1.18 o
-1 7 1 55.75 51.98 0.76 o
0 7 1 480.90 508.69 3.85 o
1 7 1 479.34 542.62 3.88 o
2 7 1 188.87 157.96 1.19 o
3 7 1 724.53 769.52 5.25 o
4 7 1 2.29 8.41 0.32 o
5 7 1 3.29 2.35 0.29 o
6 7 1 27.26 25.43 0.68 o
7 7 1 13.10 13.03 0.56 o
8 7 1 23.61 27.03 0.62 o
9 7 1 0.47 0.73 0.37 o
10 7 1 20.40 22.88 1.21 o
11 7 1 5.36 6.98 1.07 o
12 7 1 13.28 11.10 1.46 o
13 7 1 0.79 -1.43 2.34 o
14 7 1 0.33 0.93 3.00 o
-10 8 1 0.04 1.46 2.46 o
-9 8 1 0.01 0.04 1.92 o
-8 8 1 0.76 2.31 1.33 o
-7 8 1 0.04 -0.96 0.97 o
-6 8 1 30.02 31.64 1.31 o
-5 8 1 1.40 2.16 0.67 o
-4 8 1 41.65 31.69 1.06 o
-3 8 1 1.85 2.08 0.38 o
-2 8 1 0.72 0.02 0.54 o
-1 8 1 6.32 3.75 0.34 o
0 8 1 12.23 10.30 0.39 o
1 8 1 49.75 59.71 0.65 o
2 8 1 58.46 55.49 0.71 o
3 8 1 11.05 13.52 0.38 o
4 8 1 5.99 8.43 0.31 o
5 8 1 0.04 -0.17 0.19 o
6 8 1 181.87 178.51 1.94 o
7 8 1 4.09 4.99 0.45 o
8 8 1 75.62 73.99 1.07 o
9 8 1 8.58 8.13 0.63 o
10 8 1 15.71 18.44 0.96 o
11 8 1 0.97 1.26 1.35 o
12 8 1 3.49 1.47 1.33 o
13 8 1 0.30 4.20 2.39 o
14 8 1 0.49 11.04 5.57 o
-9 9 1 0.14 2.15 1.76 o
-8 9 1 2.24 6.38 1.73 o
-7 9 1 0.35 -0.87 1.05 o
-6 9 1 8.31 10.25 0.87 o
-5 9 1 9.17 7.94 0.80 o
-4 9 1 14.76 16.94 0.99 o
-3 9 1 0.97 3.87 0.48 o
-2 9 1 32.60 32.43 0.78 o
-1 9 1 22.27 20.67 0.64 o
0 9 1 84.89 95.89 1.02 o
1 9 1 0.65 0.77 0.34 o
2 9 1 74.30 81.91 0.93 o
3 9 1 0.22 0.09 0.36 o
4 9 1 11.30 9.58 0.38 o
5 9 1 2.12 2.23 0.28 o
6 9 1 0.23 0.04 0.28 o
7 9 1 0.09 1.10 0.41 o
8 9 1 37.32 34.10 0.87 o
9 9 1 34.95 36.99 1.02 o
10 9 1 10.92 11.64 0.77 o
11 9 1 22.25 24.43 1.32 o
12 9 1 0.00 3.50 1.64 o
13 9 1 6.55 11.66 2.61 o
-8 10 1 2.12 3.06 2.43 o
-7 10 1 0.89 -0.84 1.43 o
-6 10 1 2.34 2.79 1.05 o
-5 10 1 4.30 4.58 0.81 o
-4 10 1 0.38 0.39 0.63 o
-3 10 1 14.10 11.83 0.60 o
-2 10 1 2.47 1.19 0.42 o
-1 10 1 2.88 1.95 0.38 o
0 10 1 23.96 30.05 0.71 o
1 10 1 77.41 82.09 1.21 o
2 10 1 2.17 3.20 0.38 o
3 10 1 54.57 58.15 1.12 o
4 10 1 31.81 36.67 0.87 o
5 10 1 1.98 1.68 0.27 o
6 10 1 16.53 16.65 0.54 o
7 10 1 84.05 88.89 1.35 o
8 10 1 0.57 0.77 0.44 o
9 10 1 106.29 97.49 1.31 o
10 10 1 0.93 2.45 0.58 o
11 10 1 29.61 30.57 1.28 o
12 10 1 0.06 -0.13 1.35 o
13 10 1 7.37 5.51 3.64 o
-8 11 1 0.02 0.21 2.11 o
-7 11 1 1.20 0.88 1.56 o
-6 11 1 0.58 0.51 1.26 o
-5 11 1 3.84 4.06 1.19 o
-4 11 1 0.52 0.32 0.66 o
-3 11 1 65.42 65.83 1.29 o
-2 11 1 31.30 36.48 0.83 o
-1 11 1 20.01 18.79 0.69 o
0 11 1 6.46 6.77 0.52 o
1 11 1 2.15 2.30 0.44 o
2 11 1 51.42 51.81 1.06 o
3 11 1 97.41 99.53 1.67 o
4 11 1 3.98 4.42 0.50 o
5 11 1 36.16 33.05 0.74 o
6 11 1 3.42 2.88 0.35 o
7 11 1 39.16 34.22 0.77 o
8 11 1 47.96 45.79 1.00 o
9 11 1 8.48 8.00 0.59 o
10 11 1 25.86 26.60 1.21 o
11 11 1 2.90 3.69 0.96 o
12 11 1 2.71 1.99 3.38 o
13 11 1 0.01 0.46 3.32 o
-7 12 1 0.22 5.16 2.19 o
-6 12 1 1.77 2.62 1.48 o
-5 12 1 0.37 2.46 1.14 o
-4 12 1 0.64 1.65 1.85 o
-3 12 1 2.88 3.68 0.78 o
-2 12 1 16.53 14.45 0.86 o
-1 12 1 0.00 0.74 0.54 o
0 12 1 22.95 23.59 0.89 o
1 12 1 0.45 0.44 0.51 o
2 12 1 96.50 96.44 1.52 o
3 12 1 39.82 36.11 1.14 o
4 12 1 5.71 5.26 0.61 o
5 12 1 26.57 27.32 0.97 o
6 12 1 8.22 7.76 0.61 o
7 12 1 16.32 15.28 0.73 o
8 12 1 29.64 27.53 0.94 o
9 12 1 12.52 12.39 0.71 o
10 12 1 3.35 3.69 0.78 o
11 12 1 5.60 9.53 1.64 o
12 12 1 5.01 7.68 2.52 o
13 12 1 7.01 10.16 3.76 o
-6 13 1 0.11 -1.30 2.04 o
-5 13 1 1.04 3.67 1.74 o
-4 13 1 5.45 5.94 1.34 o
-3 13 1 5.17 7.25 1.38 o
-2 13 1 0.36 1.59 0.68 o
-1 13 1 2.23 2.50 0.66 o
0 13 1 9.01 8.08 0.65 o
1 13 1 32.88 32.86 1.30 o
2 13 1 1.93 2.88 0.56 o
3 13 1 8.11 7.42 0.72 o
4 13 1 10.00 9.51 0.74 o
5 13 1 0.17 -0.42 0.58 o
6 13 1 7.19 6.15 0.65 o
7 13 1 14.75 15.89 0.90 o
8 13 1 6.58 6.64 0.77 o
9 13 1 20.96 20.15 1.07 o
10 13 1 0.43 2.20 1.12 o
11 13 1 9.35 14.05 3.46 o
12 13 1 0.05 1.90 4.68 o
-5 14 1 1.88 0.18 2.36 o
-4 14 1 0.44 3.36 2.22 o
-3 14 1 11.42 12.66 2.15 o
-2 14 1 0.14 -0.15 0.96 o
-1 14 1 0.32 -0.07 0.88 o
0 14 1 0.71 -0.22 0.67 o
1 14 1 3.65 4.46 0.89 o
2 14 1 5.82 4.51 0.71 o
3 14 1 0.11 0.92 0.75 o
4 14 1 12.30 11.30 0.87 o
5 14 1 0.10 0.38 0.68 o
6 14 1 0.04 0.00 0.84 o
7 14 1 53.25 54.40 1.78 o
8 14 1 0.12 0.91 0.88 o
9 14 1 13.19 14.16 1.83 o
10 14 1 3.85 4.75 1.57 o
11 14 1 7.50 5.84 1.99 o
-4 15 1 0.26 -2.29 2.29 o
-3 15 1 0.19 0.21 1.67 o
-2 15 1 0.30 0.17 1.29 o
-1 15 1 2.18 2.51 1.18 o
0 15 1 2.77 1.94 0.95 o
1 15 1 1.03 -0.75 0.75 o
2 15 1 2.11 2.06 0.85 o
3 15 1 20.04 17.65 1.10 o
4 15 1 3.15 2.69 0.92 o
5 15 1 6.20 6.07 1.31 o
6 15 1 0.38 0.83 0.95 o
7 15 1 1.75 1.84 1.07 o
8 15 1 8.01 9.64 2.06 o
9 15 1 0.29 1.28 2.41 o
10 15 1 1.43 -0.15 2.41 o
11 15 1 1.57 5.80 6.47 o
-3 16 1 0.29 1.61 6.08 o
-2 16 1 0.64 -2.27 2.27 o
-1 16 1 1.15 0.04 1.92 o
0 16 1 4.42 3.49 1.21 o
1 16 1 8.81 10.45 1.26 o
2 16 1 1.40 -0.24 1.01 o
3 16 1 1.70 0.68 0.95 o
4 16 1 1.84 2.89 1.10 o
5 16 1 11.76 11.06 1.54 o
6 16 1 6.87 6.86 1.45 o
7 16 1 0.09 -1.45 1.73 o
8 16 1 5.82 7.28 2.28 o
9 16 1 0.05 -1.54 5.02 o
10 16 1 6.00 12.28 3.73 o
11 16 1 0.98 -4.13 4.13 o
-2 17 1 0.13 -3.03 3.03 o
-1 17 1 0.02 4.13 2.30 o
0 17 1 1.91 3.05 2.20 o
1 17 1 4.97 5.07 1.57 o
2 17 1 2.36 1.48 1.80 o
3 17 1 5.38 8.17 1.49 o
4 17 1 1.16 1.73 1.48 o
5 17 1 4.93 5.39 1.74 o
6 17 1 2.36 -1.09 2.24 o
7 17 1 0.08 3.94 2.37 o
8 17 1 0.09 -3.03 3.03 o
9 17 1 0.01 4.13 3.48 o
10 17 1 0.47 5.74 3.51 o
0 18 1 0.26 0.39 2.52 o
1 18 1 0.54 -1.51 1.91 o
2 18 1 1.87 1.04 1.80 o
3 18 1 0.21 -0.17 2.54 o
4 18 1 2.26 6.37 3.05 o
5 18 1 0.04 -1.60 2.55 o
6 18 1 0.66 -0.71 2.77 o
7 18 1 0.16 0.91 2.77 o
8 18 1 0.29 3.71 3.53 o
9 18 1 0.68 8.49 6.41 o
2 19 1 0.00 -0.37 7.19 o
3 19 1 1.06 7.62 3.71 o
4 19 1 0.05 -0.11 3.06 o
5 19 1 2.56 4.04 2.99 o
6 19 1 0.00 3.91 3.23 o
7 19 1 0.64 9.13 4.14 o
-6 -19 2 0.34 1.61 3.43 o
-5 -19 2 0.34 1.62 3.27 o
-4 -19 2 0.55 0.86 4.24 o
-3 -19 2 0.14 -0.42 2.45 o
-8 -18 2 3.37 1.10 2.80 o
-7 -18 2 0.33 6.80 4.91 o
-6 -18 2 2.69 0.68 2.36 o
-5 -18 2 0.47 1.44 3.28 o
-4 -18 2 1.45 -2.19 2.19 o
-3 -18 2 0.39 2.19 2.30 o
-2 -18 2 1.46 5.69 2.36 o
-1 -18 2 1.36 1.01 2.70 o
0 -18 2 0.76 6.40 2.19 o
-10 -17 2 0.70 12.43 3.12 o
-9 -17 2 8.10 12.00 2.81 o
-8 -17 2 0.63 3.88 2.68 o
-7 -17 2 15.74 14.76 2.23 o
-6 -17 2 0.72 2.39 4.48 o
-5 -17 2 6.78 9.31 4.11 o
-4 -17 2 3.13 0.17 1.80 o
-3 -17 2 0.06 -1.82 1.82 o
-2 -17 2 0.00 -1.77 1.77 o
-1 -17 2 0.77 -1.85 2.13 o
0 -17 2 0.93 1.09 2.41 o
1 -17 2 0.22 0.58 3.11 o
2 -17 2 0.09 -1.22 2.17 o
-11 -16 2 5.68 9.65 3.62 o
-10 -16 2 1.47 1.01 2.60 o
-9 -16 2 9.99 15.20 2.63 o
-8 -16 2 4.09 5.21 1.79 o
-7 -16 2 5.31 1.99 2.20 o
-6 -16 2 6.10 3.85 1.77 o
-5 -16 2 0.95 0.52 1.74 o
-4 -16 2 0.00 0.77 1.35 o
-3 -16 2 0.98 0.29 1.27 o
-2 -16 2 0.71 -0.32 2.60 o
-1 -16 2 0.25 1.02 1.89 o
0 -16 2 1.22 -1.17 1.23 o
1 -16 2 0.08 -0.71 1.38 o
2 -16 2 0.01 -0.63 1.88 o
3 -16 2 0.60 1.49 2.35 o
-11 -15 2 1.55 10.02 3.03 o
-10 -15 2 7.63 9.42 1.96 o
-9 -15 2 1.05 2.57 2.40 o
-8 -15 2 7.68 9.21 1.98 o
-7 -15 2 1.98 0.44 1.38 o
-6 -15 2 7.86 12.49 3.01 o
-5 -15 2 0.56 0.27 1.05 o
-4 -15 2 0.03 0.48 1.03 o
-3 -15 2 1.33 1.28 1.06 o
-2 -15 2 1.70 1.25 1.13 o
-1 -15 2 0.46 -0.40 1.03 o
0 -15 2 0.85 1.80 1.38 o
1 -15 2 1.02 0.17 1.35 o
2 -15 2 0.01 -1.03 1.84 o
3 -15 2 0.12 -1.70 1.70 o
4 -15 2 0.04 3.59 3.31 o
-12 -14 2 1.07 3.96 5.13 o
-11 -14 2 0.25 3.40 2.32 o
-10 -14 2 9.97 11.87 2.00 o
-9 -14 2 4.81 5.85 1.45 o
-8 -14 2 8.33 10.07 1.43 o
-7 -14 2 0.11 -0.09 1.44 o
-6 -14 2 1.74 3.51 1.54 o
-5 -14 2 1.46 1.57 0.94 o
-4 -14 2 9.51 13.07 1.21 o
-3 -14 2 0.42 0.87 1.11 o
-2 -14 2 11.05 13.95 1.17 o
-1 -14 2 11.09 10.56 0.96 o
0 -14 2 9.84 10.22 1.03 o
1 -14 2 0.09 -1.04 1.04 o
2 -14 2 0.08 2.15 1.60 o
3 -14 2 0.14 0.01 1.20 o
4 -14 2 0.41 0.62 1.81 o
5 -14 2 0.52 0.72 3.80 o
-12 -13 2 0.74 0.11 4.57 o
-11 -13 2 4.72 6.87 3.27 o
-10 -13 2 1.01 1.47 1.94 o
-9 -13 2 11.04 8.28 1.44 o
-8 -13 2 0.94 1.62 0.94 o
-7 -13 2 31.78 30.93 1.74 o
-6 -13 2 5.09 5.68 0.72 o
-5 -13 2 1.39 1.00 0.82 o
-4 -13 2 8.85 7.92 0.87 o
-3 -13 2 3.52 3.19 1.25 o
-2 -13 2 11.01 11.93 0.77 o
-1 -13 2 7.86 9.96 1.59 o
0 -13 2 18.40 20.83 1.15 o
1 -13 2 0.19 -0.45 0.74 o
2 -13 2 2.00 1.10 0.77 o
3 -13 2 0.01 -0.52 1.08 o
4 -13 2 0.12 -0.14 1.05 o
5 -13 2 0.00 -1.62 1.62 o
6 -13 2 0.84 -0.42 2.17 o
-13 -12 2 0.35 -2.08 3.63 o
-12 -12 2 0.54 -0.33 2.89 o
-11 -12 2 14.41 14.12 1.45 o
-10 -12 2 21.12 23.14 1.83 o
-9 -12 2 2.53 2.94 0.84 o
-8 -12 2 22.01 19.77 1.03 o
-7 -12 2 8.94 10.49 0.66 o
-6 -12 2 48.38 46.30 1.20 o
-5 -12 2 10.80 10.21 0.61 o
-4 -12 2 2.97 3.12 0.54 o
-3 -12 2 4.56 6.92 0.64 o
-2 -12 2 22.22 18.94 0.69 o
-1 -12 2 50.02 46.09 1.39 o
0 -12 2 1.80 1.60 0.61 o
1 -12 2 1.35 1.26 0.61 o
2 -12 2 3.27 4.20 0.69 o
3 -12 2 0.48 -0.02 0.91 o
4 -12 2 0.05 0.17 1.02 o
5 -12 2 0.70 -0.83 1.35 o
6 -12 2 0.58 -1.07 1.62 o
7 -12 2 0.29 3.27 4.09 o
-13 -11 2 2.15 8.99 6.74 o
-12 -11 2 1.15 1.68 2.62 o
-11 -11 2 6.40 6.91 1.43 o
-10 -11 2 4.52 3.75 0.79 o
-9 -11 2 6.64 7.73 0.70 o
-8 -11 2 31.04 27.12 0.81 o
-7 -11 2 15.18 15.88 0.90 o
-6 -11 2 49.11 45.81 0.96 o
-5 -11 2 52.56 46.06 0.94 o
-4 -11 2 3.32 5.08 0.50 o
-3 -11 2 21.77 18.07 0.86 o
-2 -11 2 0.43 0.46 0.32 o
-1 -11 2 25.06 23.11 0.71 o
0 -11 2 24.96 26.48 0.84 o
1 -11 2 13.04 14.18 0.64 o
2 -11 2 8.73 8.08 0.74 o
3 -11 2 4.96 4.08 0.71 o
4 -11 2 0.23 0.51 0.69 o
5 -11 2 3.54 4.34 1.04 o
6 -11 2 1.53 1.87 1.34 o
7 -11 2 0.02 -0.56 1.81 o
8 -11 2 0.00 -1.90 1.90 o
-13 -10 2 2.81 4.32 2.51 o
-12 -10 2 7.17 4.48 1.63 o
-11 -10 2 1.12 3.75 1.40 o
-10 -10 2 0.47 0.99 0.69 o
-9 -10 2 7.45 8.56 0.69 o
-8 -10 2 4.93 7.75 0.61 o
-7 -10 2 0.05 0.13 0.34 o
-6 -10 2 5.13 5.33 0.36 o
-5 -10 2 23.41 26.57 0.60 o
-4 -10 2 1.60 0.92 0.30 o
-3 -10 2 576.07 554.22 4.71 o
-2 -10 2 47.49 49.75 1.01 o
-1 -10 2 76.30 67.50 0.99 o
0 -10 2 6.78 7.09 0.48 o
1 -10 2 1.49 2.01 0.43 o
2 -10 2 27.40 25.19 0.88 o
3 -10 2 15.78 19.53 0.90 o
4 -10 2 0.14 0.58 0.67 o
5 -10 2 1.28 1.54 0.76 o
6 -10 2 0.02 -1.15 1.15 o
7 -10 2 0.10 -1.25 1.49 o
8 -10 2 0.08 -0.90 1.82 o
-13 -9 2 0.03 0.30 2.88 o
-12 -9 2 0.57 -2.09 2.20 o
-11 -9 2 5.48 7.86 1.35 o
-10 -9 2 1.38 0.09 0.65 o
-9 -9 2 32.27 31.75 0.99 o
-8 -9 2 19.37 15.89 0.68 o
-7 -9 2 19.61 18.00 0.56 o
-6 -9 2 7.73 9.13 0.42 o
-5 -9 2 52.29 51.64 0.99 o
-4 -9 2 4.95 5.41 0.29 o
-3 -9 2 25.55 23.82 0.57 o
-2 -9 2 297.19 292.70 2.48 o
-1 -9 2 8.76 11.19 0.50 o
0 -9 2 97.41 85.99 1.02 o
1 -9 2 3.55 2.85 0.39 o
2 -9 2 94.53 89.63 1.37 o
3 -9 2 108.85 100.98 1.47 o
4 -9 2 0.06 -0.07 0.59 o
5 -9 2 6.20 4.30 0.67 o
6 -9 2 2.04 1.45 0.91 o
7 -9 2 0.59 0.96 1.38 o
8 -9 2 1.50 3.07 1.56 o
9 -9 2 2.73 1.89 1.74 o
-13 -8 2 5.23 8.33 3.16 o
-12 -8 2 0.01 -1.03 1.63 o
-11 -8 2 3.96 2.76 0.98 o
-10 -8 2 3.56 4.11 0.76 o
-9 -8 2 26.79 28.36 1.05 o
-8 -8 2 0.04 0.19 0.36 o
-7 -8 2 7.06 10.60 0.49 o
-6 -8 2 25.40 22.20 0.46 o
-5 -8 2 9.24 9.63 0.34 o
-4 -8 2 73.90 81.91 0.89 o
-3 -8 2 1541.43 1464.09 11.81 o
-2 -8 2 269.39 282.08 2.14 o
-1 -8 2 1367.14 1276.90 9.83 o
0 -8 2 465.10 470.09 4.25 o
1 -8 2 1.88 2.89 0.39 o
2 -8 2 75.23 76.66 1.34 o
3 -8 2 26.88 27.11 0.84 o
4 -8 2 1.38 0.78 0.52 o
5 -8 2 3.20 2.97 0.58 o
6 -8 2 3.52 3.92 1.06 o
7 -8 2 0.99 -0.34 1.11 o
8 -8 2 2.40 2.49 1.35 o
9 -8 2 1.29 0.95 1.55 o
10 -8 2 0.00 0.26 2.54 o
-13 -7 2 7.29 6.63 3.14 o
-12 -7 2 2.00 3.02 1.47 o
-11 -7 2 6.24 7.07 1.17 o
-10 -7 2 0.02 -0.34 0.67 o
-9 -7 2 6.60 7.73 0.59 o
-8 -7 2 121.14 104.30 1.24 o
-7 -7 2 226.50 221.17 1.98 o
-6 -7 2 41.20 45.88 0.63 o
-5 -7 2 307.43 298.90 2.29 o
-4 -7 2 17.00 17.35 0.33 o
-3 -7 2 108.85 110.58 0.91 o
-2 -7 2 507.46 500.56 3.60 o
-1 -7 2 69.79 81.73 0.77 o
0 -7 2 87.75 80.53 1.00 o
1 -7 2 464.71 445.63 5.19 o
2 -7 2 0.02 -0.29 0.29 o
3 -7 2 22.15 19.59 0.90 o
4 -7 2 95.00 90.59 1.32 o
5 -7 2 11.31 8.62 0.74 o
6 -7 2 0.61 -0.25 0.69 o
7 -7 2 3.99 2.98 0.95 o
8 -7 2 0.00 -1.44 1.44 o
9 -7 2 0.85 -0.46 1.33 o
10 -7 2 1.59 0.84 1.95 o
-13 -6 2 0.31 0.89 2.36 o
-12 -6 2 0.00 2.54 1.83 o
-11 -6 2 0.06 0.67 0.94 o
-10 -6 2 6.08 6.37 0.77 o
-9 -6 2 10.91 11.22 0.82 o
-8 -6 2 36.24 39.94 0.78 o
-7 -6 2 37.23 35.69 0.61 o
-6 -6 2 9.19 10.30 0.37 o
-5 -6 2 478.44 452.11 3.94 o
-4 -6 2 142.36 145.11 1.10 o
-3 -6 2 643.87 687.70 3.98 o
-2 -6 2 408.75 425.03 2.58 o
-1 -6 2 232.19 262.66 1.61 o
0 -6 2 496.43 502.55 3.35 o
1 -6 2 129.69 139.83 1.36 o
2 -6 2 2.15 4.59 0.29 o
3 -6 2 51.84 52.41 1.26 o
4 -6 2 2.57 2.80 0.41 o
5 -6 2 13.89 13.49 0.61 o
6 -6 2 5.44 5.65 0.70 o
7 -6 2 0.03 -0.85 0.85 o
8 -6 2 8.76 7.84 0.99 o
9 -6 2 2.27 3.19 1.85 o
10 -6 2 0.11 -0.52 1.71 o
11 -6 2 0.01 -2.75 2.93 o
-13 -5 2 0.50 0.61 2.72 o
-12 -5 2 8.28 12.76 2.67 o
-11 -5 2 10.52 11.62 1.27 o
-10 -5 2 11.11 8.63 0.70 o
-9 -5 2 13.69 12.82 0.74 o
-8 -5 2 5.97 5.55 0.58 o
-7 -5 2 0.17 -0.27 0.27 o
-6 -5 2 15.32 27.82 0.46 o
-5 -5 2 46.25 49.38 0.55 o
-4 -5 2 159.74 168.78 1.16 o
-3 -5 2 377.74 404.30 2.33 o
-2 -5 2 153.71 183.25 1.17 o
-1 -5 2 215.18 216.58 1.37 o
0 -5 2 20.25 21.48 0.29 o
1 -5 2 123.86 148.55 1.20 o
2 -5 2 30.15 24.68 0.64 o
3 -5 2 127.13 103.81 1.13 o
4 -5 2 6.80 8.63 0.40 o
5 -5 2 39.53 33.43 0.78 o
6 -5 2 8.77 7.28 0.48 o
7 -5 2 0.00 -0.74 0.74 o
8 -5 2 2.42 1.25 0.86 o
9 -5 2 1.49 1.28 1.15 o
10 -5 2 2.32 -0.06 1.27 o
11 -5 2 0.76 -1.19 2.46 o
-13 -4 2 1.22 5.14 2.44 o
-12 -4 2 6.15 6.41 1.64 o
-11 -4 2 6.32 5.54 1.09 o
-10 -4 2 12.60 13.14 1.22 o
-9 -4 2 14.46 17.13 0.81 o
-8 -4 2 12.15 14.28 0.67 o
-7 -4 2 17.35 19.16 0.49 o
-6 -4 2 12.36 15.78 0.36 o
-5 -4 2 135.92 163.08 1.23 o
-4 -4 2 1.88 3.46 0.17 o
-3 -4 2 1761.08 1784.11 10.64 o
-2 -4 2 1948.96 1901.85 11.35 o
-1 -4 2 82.45 73.50 0.77 o
0 -4 2 550.21 622.52 4.39 o
1 -4 2 92.28 78.29 0.67 o
2 -4 2 58.99 76.27 0.70 o
3 -4 2 35.69 42.11 0.92 o
4 -4 2 337.54 355.96 3.11 o
5 -4 2 91.31 82.79 1.06 o
6 -4 2 187.42 170.60 1.80 o
7 -4 2 3.96 3.86 0.50 o
8 -4 2 11.16 9.15 0.87 o
9 -4 2 0.42 -0.11 0.90 o
10 -4 2 0.87 1.20 1.23 o
11 -4 2 0.79 1.42 2.12 o
-13 -3 2 1.82 2.65 2.50 o
-12 -3 2 0.02 2.08 1.58 o
-11 -3 2 0.94 2.04 1.07 o
-10 -3 2 0.41 0.34 0.67 o
-9 -3 2 14.52 12.42 0.91 o
-8 -3 2 26.32 23.80 0.79 o
-7 -3 2 0.01 0.12 0.32 o
-6 -3 2 14.43 10.58 0.40 o
-5 -3 2 215.19 244.96 1.67 o
-4 -3 2 177.41 207.30 1.34 o
-3 -3 2 26.97 48.66 0.41 o
-2 -3 2 985.57 1096.97 6.88 o
-1 -3 2 150.46 154.14 0.88 o
0 -3 2 1.76 1.09 0.08 o
1 -3 2 243.30 302.16 2.11 o
2 -3 2 3.05 4.48 0.24 o
3 -3 2 51.93 37.39 0.66 o
4 -3 2 186.49 172.61 1.62 o
5 -3 2 2.15 3.79 0.35 o
6 -3 2 115.14 115.87 1.40 o
7 -3 2 9.91 13.30 0.60 o
8 -3 2 37.00 37.93 1.20 o
9 -3 2 1.19 0.20 0.80 o
10 -3 2 1.60 0.22 1.54 o
11 -3 2 0.00 -1.54 1.54 o
12 -3 2 0.55 6.51 2.47 o
-13 -2 2 0.05 3.28 2.62 o
-12 -2 2 0.04 1.68 1.75 o
-11 -2 2 1.19 3.00 1.16 o
-10 -2 2 16.41 18.31 1.36 o
-9 -2 2 1.93 3.09 0.58 o
-8 -2 2 20.17 24.92 0.91 o
-7 -2 2 15.94 16.33 0.67 o
-6 -2 2 0.08 0.23 0.31 o
-5 -2 2 44.26 34.18 0.41 o
-4 -2 2 77.62 102.45 0.73 o
-3 -2 2 167.67 158.63 1.07 o
-2 -2 2 1605.02 1520.56 8.35 o
-1 -2 2 6610.33 5265.36 42.98 o
0 -2 2 280.75 265.31 1.75 o
1 -2 2 24.52 28.06 0.32 o
2 -2 2 1037.08 1008.10 7.02 o
3 -2 2 727.62 818.23 6.51 o
4 -2 2 20.66 14.92 0.43 o
5 -2 2 133.09 157.18 1.60 o
6 -2 2 9.99 7.60 0.48 o
7 -2 2 31.19 30.88 0.65 o
8 -2 2 3.45 2.23 0.57 o
9 -2 2 0.71 0.93 0.73 o
10 -2 2 1.96 0.25 0.98 o
11 -2 2 0.29 0.36 1.63 o
12 -2 2 0.16 0.20 1.90 o
-13 -1 2 3.00 7.67 2.72 o
-12 -1 2 0.06 -0.44 1.70 o
-11 -1 2 3.73 3.75 1.29 o
-10 -1 2 0.98 0.16 0.71 o
-9 -1 2 41.40 37.27 1.15 o
-8 -1 2 22.74 28.13 0.93 o
-7 -1 2 48.48 42.10 0.71 o
-6 -1 2 6.96 9.50 0.49 o
-5 -1 2 16.29 18.22 0.38 o
-4 -1 2 532.73 593.83 3.66 o
-3 -1 2 87.77 106.84 0.68 o
-2 -1 2 397.42 442.35 2.97 o
-1 -1 2 41.54 44.38 0.38 o
0 -1 2 159.00 178.86 1.11 o
1 -1 2 513.52 526.42 3.40 o
2 -1 2 417.27 459.89 3.94 o
3 -1 2 0.14 0.57 0.16 o
4 -1 2 101.64 129.26 1.03 o
5 -1 2 177.42 168.76 1.87 o
6 -1 2 71.90 72.81 1.20 o
7 -1 2 20.34 22.89 0.65 o
8 -1 2 45.23 46.70 1.10 o
9 -1 2 0.14 -0.60 0.60 o
10 -1 2 5.16 4.76 1.13 o
11 -1 2 1.03 -1.31 1.31 o
12 -1 2 0.05 0.42 1.98 o
-13 0 2 2.39 9.84 3.04 o
-12 0 2 0.92 -0.38 1.80 o
-11 0 2 4.69 5.34 1.20 o
-10 0 2 5.48 6.93 0.99 o
-9 0 2 13.41 14.34 0.85 o
-8 0 2 65.65 64.60 1.11 o
-7 0 2 1.25 0.85 0.55 o
-6 0 2 5.79 4.23 0.33 o
-5 0 2 42.87 34.24 0.57 o
-4 0 2 1037.78 1052.02 7.35 o
-3 0 2 0.70 0.98 0.11 o
-2 0 2 866.96 926.17 5.75 o
-1 0 2 4.87 4.37 0.12 o
0 0 2 3006.28 2585.44 29.43 o
1 0 2 26.67 29.16 0.36 o
2 0 2 4005.98 3792.06 24.37 o
3 0 2 1719.85 1875.45 12.00 o
4 0 2 2054.38 1943.32 13.46 o
5 0 2 9.97 9.69 0.44 o
6 0 2 161.54 167.59 1.73 o
7 0 2 0.39 0.91 0.36 o
8 0 2 50.17 40.85 0.81 o
9 0 2 12.02 12.69 1.09 o
10 0 2 21.33 22.67 1.51 o
11 0 2 0.07 0.69 1.41 o
12 0 2 0.00 -0.61 1.62 o
13 0 2 0.10 -2.36 2.36 o
-12 1 2 0.41 -1.78 1.78 o
-11 1 2 1.36 0.10 1.29 o
-10 1 2 21.36 24.64 1.36 o
-9 1 2 2.59 1.60 0.55 o
-8 1 2 53.66 42.05 0.99 o
-7 1 2 0.54 1.22 0.42 o
-6 1 2 440.96 429.00 4.24 o
-5 1 2 56.02 53.81 0.81 o
-4 1 2 1.89 4.34 0.25 o
-3 1 2 12.73 11.15 0.24 o
-2 1 2 25.89 36.62 0.38 o
-1 1 2 184.38 219.69 1.33 o
0 1 2 129.57 146.51 1.96 o
1 1 2 1348.59 1303.48 8.66 o
2 1 2 900.80 919.46 5.94 o
3 1 2 182.89 272.56 1.53 o
4 1 2 2463.99 2475.86 14.79 o
5 1 2 12.69 18.24 0.39 o
6 1 2 652.29 651.59 5.38 o
7 1 2 73.27 70.21 0.93 o
8 1 2 17.06 21.29 0.86 o
9 1 2 5.13 6.52 0.76 o
10 1 2 1.00 1.05 0.85 o
11 1 2 0.83 2.70 1.18 o
12 1 2 2.49 1.48 1.70 o
13 1 2 0.04 1.00 2.31 o
-12 2 2 0.28 5.44 1.99 o
-11 2 2 0.74 0.84 1.67 o
-10 2 2 17.61 17.48 1.25 o
-9 2 2 2.88 2.77 0.63 o
-8 2 2 19.24 22.86 0.91 o
-7 2 2 7.46 8.23 0.68 o
-6 2 2 508.45 511.11 4.64 o
-5 2 2 11.07 9.90 0.46 o
-4 2 2 23.85 20.31 0.48 o
-3 2 2 461.59 511.03 3.40 o
-2 2 2 2684.48 2416.20 20.17 o
-1 2 2 3122.55 3025.93 27.86 o
0 2 2 16021.41 8816.13 140.20 o
1 2 2 1649.55 1660.00 14.48 o
2 2 2 798.65 730.13 4.15 o
3 2 2 441.43 519.73 3.18 o
4 2 2 1177.36 1284.20 7.29 o
5 2 2 1258.34 1330.44 9.03 o
6 2 2 62.41 61.77 0.87 o
7 2 2 24.84 21.28 0.68 o
8 2 2 5.41 7.41 0.57 o
9 2 2 15.49 10.76 0.78 o
10 2 2 11.93 12.74 0.97 o
11 2 2 0.00 0.52 1.28 o
12 2 2 0.58 -0.18 1.63 o
13 2 2 0.03 -0.86 2.98 o
-12 3 2 0.33 -1.93 2.59 o
-11 3 2 1.84 4.66 2.03 o
-10 3 2 0.16 -0.19 1.04 o
-9 3 2 8.78 9.20 0.88 o
-8 3 2 0.26 0.32 0.55 o
-7 3 2 27.41 21.61 0.98 o
-6 3 2 79.01 75.88 1.16 o
-5 3 2 3.88 6.52 0.47 o
-4 3 2 116.53 116.02 1.39 o
-3 3 2 29.63 35.55 0.49 o
-2 3 2 19.97 23.38 0.32 o
-1 3 2 158.88 218.94 1.50 o
0 3 2 398.87 434.93 2.68 o
1 3 2 624.03 622.61 3.54 o
2 3 2 1097.74 1060.37 6.73 o
3 3 2 4.34 13.17 0.20 o
4 3 2 12.78 22.10 0.39 o
5 3 2 462.37 487.26 3.51 o
6 3 2 646.01 633.97 4.36 o
7 3 2 0.04 0.28 0.46 o
8 3 2 145.57 152.02 2.18 o
9 3 2 32.24 35.91 1.24 o
10 3 2 7.70 8.38 0.86 o
11 3 2 0.04 0.88 1.04 o
12 3 2 4.47 3.52 1.64 o
13 3 2 0.39 -1.99 1.99 o
-11 4 2 0.24 2.78 1.79 o
-10 4 2 17.09 17.64 1.56 o
-9 4 2 0.50 0.70 0.85 o
-8 4 2 10.01 9.72 0.74 o
-7 4 2 23.11 29.11 1.05 o
-6 4 2 145.78 148.54 2.00 o
-5 4 2 0.79 1.24 0.41 o
-4 4 2 217.94 210.17 2.44 o
-3 4 2 7.86 10.37 0.65 o
-2 4 2 345.33 394.31 2.50 o
-1 4 2 494.76 522.39 3.13 o
0 4 2 407.76 502.36 3.08 o
1 4 2 2966.50 3112.45 28.00 o
2 4 2 2584.06 2420.99 15.97 o
3 4 2 20.13 19.57 0.33 o
4 4 2 113.55 95.89 0.78 o
5 4 2 2.01 2.67 0.26 o
6 4 2 0.51 0.85 0.24 o
7 4 2 52.16 45.49 0.62 o
8 4 2 73.89 63.84 1.33 o
9 4 2 2.47 2.52 0.64 o
10 4 2 4.53 3.29 0.94 o
11 4 2 10.39 12.55 1.25 o
12 4 2 0.24 -0.68 1.78 o
13 4 2 0.68 0.04 2.96 o
-11 5 2 0.04 -1.33 3.34 o
-10 5 2 4.16 6.55 1.61 o
-9 5 2 0.24 1.29 1.19 o
-8 5 2 27.17 22.29 1.46 o
-7 5 2 2.02 3.71 0.53 o
-6 5 2 33.12 28.41 0.94 o
-5 5 2 5.01 6.87 0.76 o
-4 5 2 45.03 45.01 0.87 o
-3 5 2 6.34 5.60 0.33 o
-2 5 2 6.17 3.32 0.23 o
-1 5 2 3.18 7.10 0.25 o
0 5 2 249.33 295.59 1.94 o
1 5 2 591.07 687.39 4.14 o
2 5 2 39.91 41.41 0.43 o
3 5 2 92.83 111.24 0.78 o
4 5 2 419.84 507.69 3.28 o
5 5 2 1.91 2.90 0.29 o
6 5 2 32.05 37.02 0.62 o
7 5 2 55.20 54.92 0.73 o
8 5 2 3.27 4.91 0.38 o
9 5 2 46.89 57.83 1.66 o
10 5 2 7.87 5.93 0.83 o
11 5 2 21.71 24.69 1.58 o
12 5 2 0.37 -0.02 1.31 o
13 5 2 10.80 8.92 2.05 o
14 5 2 1.74 4.83 3.75 o
-11 6 2 0.29 1.13 2.26 o
-10 6 2 0.05 -0.64 1.45 o
-9 6 2 0.21 0.57 1.07 o
-8 6 2 1.65 1.58 0.95 o
-7 6 2 4.27 4.87 0.81 o
-6 6 2 1.06 1.85 0.60 o
-5 6 2 14.56 15.25 0.95 o
-4 6 2 0.57 2.07 0.50 o
-3 6 2 259.39 258.08 2.50 o
-2 6 2 152.34 161.96 1.42 o
-1 6 2 2.07 1.16 0.19 o
0 6 2 368.20 377.41 2.55 o
1 6 2 235.03 237.10 1.47 o
2 6 2 556.71 611.78 3.63 o
3 6 2 409.44 445.69 2.71 o
4 6 2 62.50 76.61 0.67 o
5 6 2 560.85 553.05 7.66 o
6 6 2 40.97 40.06 0.61 o
7 6 2 143.59 143.22 1.39 o
8 6 2 0.02 0.40 0.32 o
9 6 2 9.16 5.60 0.61 o
10 6 2 11.06 10.63 0.92 o
11 6 2 1.01 2.77 1.47 o
12 6 2 3.32 3.32 1.36 o
13 6 2 0.36 1.93 3.21 o
14 6 2 1.46 -0.29 3.43 o
-10 7 2 0.02 0.37 1.74 o
-9 7 2 1.30 1.73 1.23 o
-8 7 2 0.03 1.58 1.75 o
-7 7 2 0.16 0.33 0.84 o
-6 7 2 11.38 13.65 0.87 o
-5 7 2 0.07 0.12 0.61 o
-4 7 2 21.32 18.03 0.81 o
-3 7 2 37.63 45.19 0.84 o
-2 7 2 2.38 1.31 0.26 o
-1 7 2 8.07 5.89 0.32 o
0 7 2 24.16 30.75 0.49 o
1 7 2 4.97 5.51 0.27 o
2 7 2 229.09 258.08 1.92 o
3 7 2 752.96 834.67 5.88 o
4 7 2 0.41 3.05 0.24 o
5 7 2 312.24 313.22 2.46 o
6 7 2 25.35 29.95 1.00 o
7 7 2 102.06 105.25 1.34 o
8 7 2 72.12 68.87 0.98 o
9 7 2 2.79 3.57 0.44 o
10 7 2 1.69 3.04 0.75 o
11 7 2 15.15 14.76 1.28 o
12 7 2 2.57 4.82 1.41 o
13 7 2 8.95 12.57 2.64 o
14 7 2 0.03 2.67 3.10 o
-10 8 2 0.83 7.52 2.37 o
-9 8 2 4.46 7.83 1.51 o
-8 8 2 1.49 1.91 1.36 o
-7 8 2 4.32 4.48 1.02 o
-6 8 2 2.10 2.78 0.69 o
-5 8 2 12.08 9.41 0.69 o
-4 8 2 4.76 6.99 0.65 o
-3 8 2 190.17 180.85 1.85 o
-2 8 2 193.08 171.28 1.72 o
-1 8 2 95.10 87.37 0.94 o
0 8 2 17.37 19.29 0.41 o
1 8 2 146.40 141.64 1.26 o
2 8 2 1.52 4.08 0.25 o
3 8 2 25.99 20.91 0.43 o
4 8 2 168.73 158.24 1.25 o
5 8 2 4.40 3.46 0.24 o
6 8 2 195.07 180.06 1.71 o
7 8 2 2.45 3.21 0.41 o
8 8 2 22.52 19.79 0.78 o
9 8 2 25.40 28.76 0.96 o
10 8 2 3.40 5.37 0.70 o
11 8 2 8.05 8.68 1.10 o
12 8 2 1.91 0.36 1.36 o
13 8 2 5.35 4.02 2.51 o
14 8 2 1.58 8.63 3.30 o
-9 9 2 0.00 3.97 2.08 o
-8 9 2 3.70 7.26 1.60 o
-7 9 2 0.93 1.13 1.18 o
-6 9 2 9.82 11.04 0.92 o
-5 9 2 1.35 1.82 0.69 o
-4 9 2 3.04 4.07 0.61 o
-3 9 2 55.99 47.29 0.82 o
-2 9 2 29.17 20.07 0.85 o
-1 9 2 137.01 123.15 1.27 o
0 9 2 8.25 8.02 0.41 o
1 9 2 60.35 48.07 0.76 o
2 9 2 41.84 41.58 0.59 o
3 9 2 74.02 66.64 0.82 o
4 9 2 83.12 80.83 0.86 o
5 9 2 0.79 0.10 0.24 o
6 9 2 16.31 16.08 0.46 o
7 9 2 6.09 6.53 0.51 o
8 9 2 9.79 10.79 0.53 o
9 9 2 35.32 36.93 0.93 o
10 9 2 12.74 10.67 0.79 o
11 9 2 13.02 16.56 1.25 o
12 9 2 10.65 8.68 1.36 o
13 9 2 1.88 4.92 2.27 o
-8 10 2 0.06 3.23 1.69 o
-7 10 2 0.53 1.70 1.47 o
-6 10 2 0.03 0.88 1.18 o
-5 10 2 2.65 2.80 0.78 o
-4 10 2 2.78 3.44 0.65 o
-3 10 2 7.41 11.16 0.61 o
-2 10 2 35.79 34.71 0.72 o
-1 10 2 52.64 43.24 0.71 o
0 10 2 150.84 145.48 1.48 o
1 10 2 7.17 7.08 0.46 o
2 10 2 54.56 48.26 0.76 o
3 10 2 29.96 32.74 0.69 o
4 10 2 13.05 14.75 0.50 o
5 10 2 45.64 40.41 0.71 o
6 10 2 38.83 34.98 0.60 o
7 10 2 5.24 3.87 0.42 o
8 10 2 23.45 21.84 0.76 o
9 10 2 0.74 0.94 0.49 o
10 10 2 15.04 14.36 0.81 o
11 10 2 1.32 1.79 0.84 o
12 10 2 7.84 8.83 1.93 o
13 10 2 0.54 4.62 2.27 o
-8 11 2 0.00 0.99 2.28 o
-7 11 2 0.73 2.38 1.96 o
-6 11 2 3.29 2.09 1.89 o
-5 11 2 1.18 0.08 0.98 o
-4 11 2 0.54 0.90 0.72 o
-3 11 2 10.09 9.71 1.00 o
-2 11 2 3.26 3.33 0.51 o
-1 11 2 0.15 0.24 0.38 o
0 11 2 0.59 0.07 0.38 o
1 11 2 1.02 1.79 0.39 o
2 11 2 19.05 17.50 0.59 o
3 11 2 162.09 162.37 2.69 o
4 11 2 10.86 10.82 0.66 o
5 11 2 95.56 94.96 1.62 o
6 11 2 4.60 5.66 0.45 o
7 11 2 28.21 26.96 0.71 o
8 11 2 20.20 20.40 0.83 o
9 11 2 9.90 10.36 0.63 o
10 11 2 6.80 8.91 0.69 o
11 11 2 12.24 11.16 1.08 o
12 11 2 1.56 3.26 2.10 o
13 11 2 4.71 3.73 3.48 o
-7 12 2 0.34 -3.19 3.19 o
-6 12 2 0.68 1.22 3.07 o
-5 12 2 5.50 6.99 1.19 o
-4 12 2 0.08 -0.01 1.13 o
-3 12 2 7.16 9.61 0.89 o
-2 12 2 1.24 2.33 0.64 o
-1 12 2 25.65 26.88 0.90 o
0 12 2 0.37 0.87 0.50 o
1 12 2 36.57 34.80 1.00 o
2 12 2 7.56 8.52 0.57 o
3 12 2 28.93 26.63 0.91 o
4 12 2 34.47 31.49 1.30 o
5 12 2 0.75 0.03 0.46 o
6 12 2 0.58 0.86 0.47 o
7 12 2 10.22 10.62 0.69 o
8 12 2 3.78 2.64 0.57 o
9 12 2 5.18 5.32 0.71 o
10 12 2 1.09 3.27 0.86 o
11 12 2 11.02 11.76 1.47 o
12 12 2 0.21 -2.16 2.16 o
13 12 2 11.45 10.93 5.69 o
-6 13 2 1.51 0.44 3.70 o
-5 13 2 0.44 -0.54 2.02 o
-4 13 2 1.66 2.86 1.40 o
-3 13 2 29.80 34.50 1.97 o
-2 13 2 15.82 18.22 1.01 o
-1 13 2 6.07 4.93 0.65 o
0 13 2 5.42 5.66 0.64 o
1 13 2 20.93 23.80 1.06 o
2 13 2 19.45 19.82 0.93 o
3 13 2 3.81 3.64 0.63 o
4 13 2 16.80 18.29 0.98 o
5 13 2 11.00 10.04 0.72 o
6 13 2 2.86 1.66 0.58 o
7 13 2 8.71 8.93 0.79 o
8 13 2 3.30 2.69 0.76 o
9 13 2 8.35 10.36 0.90 o
10 13 2 2.18 0.88 1.00 o
11 13 2 2.71 3.02 1.87 o
12 13 2 1.29 0.42 2.84 o
-5 14 2 0.10 1.34 2.44 o
-4 14 2 0.89 1.79 2.13 o
-3 14 2 5.13 4.70 1.60 o
-2 14 2 18.63 17.77 1.44 o
-1 14 2 4.41 5.48 1.11 o
0 14 2 8.58 10.29 0.80 o
1 14 2 0.75 0.00 0.62 o
2 14 2 16.05 14.63 0.93 o
3 14 2 31.23 28.32 1.70 o
4 14 2 2.40 2.00 0.70 o
5 14 2 1.11 0.82 0.67 o
6 14 2 4.10 1.72 0.81 o
7 14 2 3.59 2.35 0.83 o
8 14 2 2.75 4.00 1.22 o
9 14 2 0.26 1.92 1.84 o
10 14 2 0.60 6.00 2.01 o
11 14 2 0.34 -1.71 2.51 o
12 14 2 4.21 10.37 4.35 o
-4 15 2 0.03 -2.11 2.11 o
-3 15 2 1.25 0.51 1.65 o
-2 15 2 0.29 1.11 2.58 o
-1 15 2 0.06 -1.14 1.26 o
0 15 2 7.95 7.81 1.21 o
1 15 2 1.26 2.12 0.94 o
2 15 2 4.10 6.14 0.92 o
3 15 2 5.75 5.81 0.88 o
4 15 2 0.55 1.15 0.80 o
5 15 2 21.17 21.55 1.44 o
6 15 2 0.19 -0.57 0.91 o
7 15 2 0.58 -0.07 1.41 o
8 15 2 3.95 2.36 2.23 o
9 15 2 8.09 10.17 2.76 o
10 15 2 3.61 0.41 2.87 o
11 15 2 2.54 2.07 3.40 o
-3 16 2 0.25 1.11 3.12 o
-2 16 2 0.71 1.01 1.98 o
-1 16 2 0.03 -1.12 1.46 o
0 16 2 0.34 0.06 1.24 o
1 16 2 3.86 3.79 1.45 o
2 16 2 0.98 1.49 1.04 o
3 16 2 0.14 -0.62 1.02 o
4 16 2 0.03 0.25 0.95 o
5 16 2 1.17 1.03 1.07 o
6 16 2 20.13 22.13 1.83 o
7 16 2 0.37 -0.62 1.58 o
8 16 2 6.35 6.92 2.05 o
9 16 2 0.19 -0.48 2.92 o
10 16 2 4.16 4.90 7.25 o
11 16 2 5.58 9.59 4.46 o
-2 17 2 0.28 3.60 3.30 o
-1 17 2 0.00 0.37 2.58 o
0 17 2 0.02 0.65 2.08 o
1 17 2 1.26 0.45 1.66 o
2 17 2 6.10 4.51 1.55 o
3 17 2 0.85 2.54 1.32 o
4 17 2 7.54 11.12 2.28 o
5 17 2 0.00 -0.42 2.11 o
6 17 2 7.73 15.52 3.19 o
7 17 2 2.22 4.48 5.69 o
8 17 2 0.58 -3.13 3.13 o
9 17 2 0.58 1.29 3.49 o
10 17 2 0.32 -1.99 7.02 o
0 18 2 0.64 2.81 2.86 o
1 18 2 0.10 -0.36 3.27 o
2 18 2 0.12 -0.85 2.16 o
3 18 2 2.52 3.70 2.63 o
4 18 2 1.18 5.36 2.57 o
5 18 2 7.30 11.12 4.03 o
6 18 2 0.00 1.82 3.16 o
7 18 2 2.40 4.98 5.24 o
8 18 2 0.00 -3.90 3.90 o
9 18 2 1.39 7.21 4.01 o
2 19 2 0.12 5.02 4.08 o
3 19 2 0.01 4.92 3.75 o
4 19 2 0.17 5.06 12.54 o
5 19 2 2.05 -0.51 5.02 o
6 19 2 1.59 6.26 3.89 o
7 19 2 0.23 -0.08 4.16 o
-5 -19 3 0.24 1.43 7.25 o
-4 -19 3 0.05 2.54 2.89 o
-8 -18 3 2.53 7.37 3.82 o
-7 -18 3 2.41 5.33 2.75 o
-6 -18 3 0.73 3.06 3.80 o
-5 -18 3 5.78 5.91 2.38 o
-4 -18 3 0.01 1.89 2.37 o
-3 -18 3 0.05 3.29 2.37 o
-2 -18 3 0.23 -2.79 2.79 o
-1 -18 3 0.10 5.49 3.17 o
0 -18 3 0.76 -2.29 2.51 o
-9 -17 3 0.13 5.13 3.60 o
-8 -17 3 7.25 14.16 2.32 o
-7 -17 3 0.00 -0.60 1.90 o
-6 -17 3 16.72 20.83 2.32 o
-5 -17 3 0.60 0.22 3.20 o
-4 -17 3 2.80 3.66 2.94 o
-3 -17 3 5.90 4.18 1.80 o
-2 -17 3 0.25 -1.67 1.67 o
-1 -17 3 0.05 -1.78 1.78 o
0 -17 3 1.01 6.11 2.41 o
1 -17 3 0.29 -1.36 1.96 o
-10 -16 3 2.20 5.61 2.85 o
-9 -16 3 0.01 0.55 2.89 o
-8 -16 3 3.34 4.05 1.77 o
-7 -16 3 6.32 4.69 2.41 o
-6 -16 3 6.83 15.61 4.01 o
-5 -16 3 27.75 37.57 5.69 o
-4 -16 3 7.88 12.32 2.22 o
-3 -16 3 2.16 3.23 1.78 o
-2 -16 3 7.41 10.09 2.29 o
-1 -16 3 1.58 0.60 1.54 o
0 -16 3 0.03 0.76 1.67 o
1 -16 3 4.76 6.30 1.51 o
2 -16 3 0.04 0.67 2.28 o
3 -16 3 0.00 -1.02 2.04 o
-11 -15 3 1.50 0.04 3.15 o
-10 -15 3 0.48 0.80 4.23 o
-9 -15 3 5.78 5.13 1.85 o
-8 -15 3 1.55 4.16 1.95 o
-7 -15 3 7.35 7.12 1.42 o
-6 -15 3 5.42 7.12 1.63 o
-5 -15 3 10.18 12.87 1.75 o
-4 -15 3 0.03 0.21 1.13 o
-3 -15 3 15.07 11.75 1.38 o
-2 -15 3 0.13 1.05 1.23 o
-1 -15 3 3.43 5.24 1.27 o
0 -15 3 0.12 0.14 1.42 o
1 -15 3 1.08 1.03 1.25 o
2 -15 3 1.92 5.21 1.46 o
3 -15 3 2.66 3.42 1.49 o
4 -15 3 0.34 -0.20 2.54 o
-12 -14 3 0.23 -1.34 5.46 o
-11 -14 3 2.47 6.10 2.14 o
-10 -14 3 0.01 2.20 2.52 o
-9 -14 3 12.04 14.87 4.79 o
-8 -14 3 3.56 4.39 1.65 o
-7 -14 3 15.49 12.23 1.52 o
-6 -14 3 0.91 1.57 1.21 o
-5 -14 3 7.57 6.39 1.04 o
-4 -14 3 0.56 0.60 1.08 o
-3 -14 3 1.25 -0.32 0.95 o
-2 -14 3 0.04 -0.77 0.77 o
-1 -14 3 0.15 -0.85 0.85 o
0 -14 3 5.21 5.18 1.02 o
1 -14 3 1.23 1.08 1.23 o
2 -14 3 1.52 1.59 1.25 o
3 -14 3 0.88 -1.18 1.18 o
4 -14 3 0.54 1.57 1.44 o
5 -14 3 0.34 1.23 2.04 o
-12 -13 3 0.39 5.13 5.96 o
-11 -13 3 1.80 4.33 1.95 o
-10 -13 3 0.94 1.81 1.67 o
-9 -13 3 0.79 1.21 1.27 o
-8 -13 3 3.21 3.60 1.20 o
-7 -13 3 8.65 8.77 0.88 o
-6 -13 3 33.06 35.83 1.48 o
-5 -13 3 7.07 7.42 0.85 o
-4 -13 3 10.50 8.61 0.95 o
-3 -13 3 2.86 2.31 0.89 o
-2 -13 3 0.15 0.10 0.68 o
-1 -13 3 17.19 16.16 0.91 o
0 -13 3 2.82 3.37 0.70 o
1 -13 3 21.98 22.02 1.34 o
2 -13 3 1.06 1.56 0.82 o
3 -13 3 6.76 8.27 1.47 o
4 -13 3 0.82 2.21 1.12 o
5 -13 3 0.66 -0.98 1.66 o
6 -13 3 0.01 3.02 3.51 o
-12 -12 3 0.38 2.25 3.37 o
-11 -12 3 5.68 4.98 1.97 o
-10 -12 3 7.04 9.28 1.30 o
-9 -12 3 0.11 0.35 0.81 o
-8 -12 3 5.08 6.34 0.76 o
-7 -12 3 6.21 6.77 0.69 o
-6 -12 3 29.30 25.09 1.09 o
-5 -12 3 64.40 64.57 1.84 o
-4 -12 3 9.37 9.35 0.80 o
-3 -12 3 15.13 13.22 0.72 o
-2 -12 3 4.41 4.48 0.51 o
-1 -12 3 34.18 29.97 0.88 o
0 -12 3 22.62 23.10 1.25 o
1 -12 3 1.79 1.88 0.65 o
2 -12 3 10.98 11.10 0.85 o
3 -12 3 5.57 5.21 0.91 o
4 -12 3 0.76 2.16 1.22 o
5 -12 3 0.77 -0.34 1.34 o
6 -12 3 0.46 0.21 2.42 o
7 -12 3 0.34 -2.59 2.59 o
-13 -11 3 0.44 -2.72 2.72 o
-12 -11 3 1.35 0.81 2.45 o
-11 -11 3 0.09 2.18 1.29 o
-10 -11 3 0.64 0.15 0.88 o
-9 -11 3 0.19 0.91 0.76 o
-8 -11 3 10.73 11.05 0.77 o
-7 -11 3 27.33 28.62 0.91 o
-6 -11 3 7.49 8.46 0.51 o
-5 -11 3 106.75 105.46 1.67 o
-4 -11 3 7.62 7.53 0.59 o
-3 -11 3 31.09 29.05 0.73 o
-2 -11 3 56.00 55.69 0.99 o
-1 -11 3 7.12 5.31 0.46 o
0 -11 3 30.32 30.13 0.82 o
1 -11 3 2.32 1.69 0.49 o
2 -11 3 4.66 4.91 0.70 o
3 -11 3 0.64 1.11 0.69 o
4 -11 3 2.79 3.38 0.82 o
5 -11 3 0.42 1.46 0.92 o
6 -11 3 0.13 -1.40 1.40 o
7 -11 3 0.62 -1.22 1.74 o
8 -11 3 0.14 -2.10 2.10 o
-13 -10 3 0.03 0.53 2.58 o
-12 -10 3 6.40 4.93 1.67 o
-11 -10 3 17.43 24.00 2.37 o
-10 -10 3 6.48 6.56 0.82 o
-9 -10 3 9.33 7.49 0.72 o
-8 -10 3 2.78 3.10 0.58 o
-7 -10 3 55.94 54.95 0.96 o
-6 -10 3 43.02 39.02 0.96 o
-5 -10 3 0.74 0.96 0.34 o
-4 -10 3 0.96 0.54 0.35 o
-3 -10 3 30.06 29.89 0.59 o
-2 -10 3 0.98 1.41 0.29 o
-1 -10 3 23.90 22.33 0.64 o
0 -10 3 0.08 -0.04 0.34 o
1 -10 3 4.76 5.32 0.48 o
2 -10 3 1.39 0.67 0.44 o
3 -10 3 20.16 22.09 0.96 o
4 -10 3 1.53 1.82 0.73 o
5 -10 3 0.48 1.10 0.76 o
6 -10 3 2.76 3.67 1.27 o
7 -10 3 0.01 -1.30 1.47 o
8 -10 3 0.30 -1.63 1.74 o
-13 -9 3 3.02 10.75 3.51 o
-12 -9 3 0.26 2.07 1.76 o
-11 -9 3 20.69 15.55 2.67 o
-10 -9 3 2.88 1.94 0.77 o
-9 -9 3 47.41 46.96 1.22 o
-8 -9 3 24.01 22.72 0.78 o
-7 -9 3 48.27 46.38 0.83 o
-6 -9 3 21.76 21.60 0.62 o
-5 -9 3 3.06 2.76 0.39 o
-4 -9 3 108.05 106.21 1.16 o
-3 -9 3 35.95 36.56 0.78 o
-2 -9 3 130.83 130.47 1.22 o
-1 -9 3 380.58 358.76 3.20 o
0 -9 3 14.34 17.37 0.60 o
1 -9 3 23.49 21.74 0.69 o
2 -9 3 50.44 47.91 1.05 o
3 -9 3 36.15 34.79 1.20 o
4 -9 3 0.01 -0.40 0.64 o
5 -9 3 0.05 -0.20 0.70 o
6 -9 3 2.02 1.92 0.85 o
7 -9 3 1.12 1.35 1.30 o
8 -9 3 0.31 -0.18 1.50 o
9 -9 3 0.50 0.06 2.25 o
-13 -8 3 12.49 17.58 2.98 o
-12 -8 3 1.98 2.65 2.15 o
-11 -8 3 8.02 7.32 1.35 o
-10 -8 3 3.25 2.12 0.78 o
-9 -8 3 25.61 29.08 0.89 o
-8 -8 3 12.96 10.44 0.55 o
-7 -8 3 50.73 49.84 0.77 o
-6 -8 3 31.19 28.94 0.55 o
-5 -8 3 28.04 27.75 0.52 o
-4 -8 3 0.29 0.04 0.25 o
-3 -8 3 161.34 160.77 1.64 o
-2 -8 3 136.32 132.25 1.13 o
-1 -8 3 5.00 6.72 0.45 o
0 -8 3 216.36 208.80 1.97 o
1 -8 3 115.49 110.64 1.42 o
2 -8 3 22.79 19.13 0.61 o
3 -8 3 14.67 15.91 0.69 o
4 -8 3 1.27 -0.01 0.55 o
5 -8 3 0.73 0.70 0.64 o
6 -8 3 0.06 -0.23 0.71 o
7 -8 3 0.23 -1.35 1.35 o
8 -8 3 1.51 0.00 1.43 o
9 -8 3 0.20 -1.66 1.66 o
10 -8 3 0.00 -0.50 2.65 o
-13 -7 3 4.29 8.64 3.16 o
-12 -7 3 2.94 3.58 1.74 o
-11 -7 3 4.09 6.41 1.24 o
-10 -7 3 1.17 1.41 0.66 o
-9 -7 3 0.63 1.13 0.48 o
-8 -7 3 16.80 14.83 0.57 o
-7 -7 3 115.86 117.41 1.31 o
-6 -7 3 4.01 5.16 0.34 o
-5 -7 3 62.09 65.57 0.65 o
-4 -7 3 217.29 211.12 1.76 o
-3 -7 3 244.08 249.04 2.10 o
-2 -7 3 22.11 21.26 0.41 o
-1 -7 3 205.66 216.77 1.69 o
0 -7 3 659.59 635.96 5.00 o
1 -7 3 104.39 91.08 0.97 o
2 -7 3 1107.54 1048.44 8.60 o
3 -7 3 65.76 67.79 1.07 o
4 -7 3 28.41 25.80 0.74 o
5 -7 3 2.22 1.24 0.50 o
6 -7 3 0.04 -0.28 0.63 o
7 -7 3 0.00 -0.96 0.96 o
8 -7 3 6.67 5.81 1.52 o
9 -7 3 2.38 3.25 1.75 o
10 -7 3 0.16 2.09 1.77 o
-13 -6 3 4.63 10.14 2.63 o
-12 -6 3 4.07 5.14 2.12 o
-11 -6 3 2.98 6.71 1.12 o
-10 -6 3 25.87 21.01 1.12 o
-9 -6 3 34.23 36.40 1.05 o
-8 -6 3 28.98 28.36 0.72 o
-7 -6 3 0.10 0.11 0.36 o
-6 -6 3 28.71 31.29 0.51 o
-5 -6 3 20.37 14.40 0.40 o
-4 -6 3 170.07 162.86 1.32 o
-3 -6 3 72.23 79.41 0.70 o
-2 -6 3 104.07 106.66 0.88 o
-1 -6 3 86.89 98.30 0.75 o
0 -6 3 0.01 0.52 0.17 o
1 -6 3 52.66 52.25 0.68 o
2 -6 3 180.66 186.15 1.88 o
3 -6 3 449.56 448.49 4.76 o
4 -6 3 102.94 105.92 1.30 o
5 -6 3 36.29 34.31 0.78 o
6 -6 3 8.74 7.98 0.61 o
7 -6 3 1.14 2.35 0.77 o
8 -6 3 8.97 8.82 1.07 o
9 -6 3 11.26 11.87 1.39 o
10 -6 3 0.20 -0.12 2.09 o
11 -6 3 0.49 2.54 2.53 o
-13 -5 3 10.24 10.13 2.57 o
-12 -5 3 2.20 3.76 1.92 o
-11 -5 3 28.12 27.77 1.61 o
-10 -5 3 2.71 3.25 0.67 o
-9 -5 3 17.86 17.58 0.89 o
-8 -5 3 13.13 14.22 0.66 o
-7 -5 3 10.02 7.96 0.38 o
-6 -5 3 0.08 -0.01 0.23 o
-5 -5 3 94.21 85.19 0.80 o
-4 -5 3 6.96 5.66 0.22 o
-3 -5 3 199.16 235.84 1.60 o
-2 -5 3 387.63 408.77 2.82 o
-1 -5 3 856.78 852.25 5.18 o
0 -5 3 1195.13 1283.27 9.35 o
1 -5 3 198.21 204.82 1.62 o
2 -5 3 72.63 69.08 1.29 o
3 -5 3 15.86 11.95 0.48 o
4 -5 3 0.80 3.30 0.31 o
5 -5 3 2.92 1.78 0.41 o
6 -5 3 39.24 37.17 1.13 o
7 -5 3 6.92 7.71 0.67 o
8 -5 3 1.79 0.72 0.85 o
9 -5 3 0.35 -0.73 1.04 o
10 -5 3 2.05 0.76 1.35 o
11 -5 3 1.03 8.75 2.11 o
-13 -4 3 0.58 -1.16 2.48 o
-12 -4 3 0.35 2.71 2.29 o
-11 -4 3 9.54 10.22 1.10 o
-10 -4 3 2.76 2.14 0.67 o
-9 -4 3 1.49 1.56 0.60 o
-8 -4 3 110.12 97.82 1.24 o
-7 -4 3 5.39 3.89 0.32 o
-6 -4 3 81.36 77.64 0.84 o
-5 -4 3 132.40 120.51 1.02 o
-4 -4 3 1.80 3.25 0.15 o
-3 -4 3 84.97 84.49 0.60 o
-2 -4 3 260.00 280.05 1.77 o
-1 -4 3 278.05 319.36 2.06 o
0 -4 3 4.92 6.06 0.18 o
1 -4 3 340.59 375.70 2.45 o
2 -4 3 34.31 36.99 0.48 o
3 -4 3 10.01 11.41 0.40 o
4 -4 3 35.50 33.10 0.66 o
5 -4 3 21.95 19.43 0.64 o
6 -4 3 97.37 88.16 1.17 o
7 -4 3 10.38 7.23 0.59 o
8 -4 3 9.56 8.76 0.78 o
9 -4 3 0.85 0.12 0.92 o
10 -4 3 6.19 6.35 1.42 o
11 -4 3 0.09 -0.83 1.78 o
-13 -3 3 0.01 0.79 2.58 o
-12 -3 3 3.88 9.07 2.27 o
-11 -3 3 2.79 4.14 1.01 o
-10 -3 3 6.34 5.85 0.74 o
-9 -3 3 1.68 1.26 0.63 o
-8 -3 3 46.08 42.72 0.94 o
-7 -3 3 27.79 19.98 0.67 o
-6 -3 3 184.99 186.67 1.61 o
-5 -3 3 71.64 64.20 0.64 o
-4 -3 3 356.94 430.91 2.71 o
-3 -3 3 224.82 276.41 1.57 o
-2 -3 3 343.45 411.64 2.64 o
-1 -3 3 1095.01 1220.39 7.82 o
0 -3 3 10823.01 8823.75 56.53 o
1 -3 3 504.35 573.30 3.76 o
2 -3 3 640.23 693.25 4.71 o
3 -3 3 99.15 98.09 0.92 o
4 -3 3 0.13 0.08 0.27 o
5 -3 3 26.41 23.53 0.69 o
6 -3 3 48.47 50.69 1.15 o
7 -3 3 10.89 12.99 0.74 o
8 -3 3 1.70 0.07 0.53 o
9 -3 3 10.95 10.68 0.86 o
10 -3 3 0.11 -0.37 0.99 o
11 -3 3 0.44 0.57 1.61 o
12 -3 3 0.00 2.00 2.39 o
-13 -2 3 0.03 1.27 2.65 o
-12 -2 3 3.18 2.93 1.99 o
-11 -2 3 3.08 1.13 1.45 o
-10 -2 3 9.79 8.44 0.83 o
-9 -2 3 29.62 27.62 1.00 o
-8 -2 3 3.91 2.88 0.48 o
-7 -2 3 61.88 54.26 0.79 o
-6 -2 3 66.11 60.56 0.66 o
-5 -2 3 11.18 18.16 0.35 o
-4 -2 3 31.02 29.19 0.32 o
-3 -2 3 284.43 364.38 2.15 o
-2 -2 3 710.96 680.71 4.36 o
-1 -2 3 24.85 30.22 0.31 o
0 -2 3 169.34 241.30 1.51 o
1 -2 3 742.18 782.64 4.89 o
2 -2 3 426.58 476.30 3.26 o
3 -2 3 824.95 875.95 6.17 o
4 -2 3 24.14 31.41 0.65 o
5 -2 3 24.28 21.42 0.63 o
6 -2 3 165.30 128.43 1.65 o
7 -2 3 12.01 9.65 0.81 o
8 -2 3 36.06 34.14 0.92 o
9 -2 3 4.17 4.11 0.73 o
10 -2 3 6.26 5.26 1.69 o
11 -2 3 0.04 -1.38 1.42 o
12 -2 3 0.03 -0.69 1.93 o
-13 -1 3 3.33 3.98 3.51 o
-12 -1 3 1.31 2.41 2.25 o
-11 -1 3 2.31 2.17 1.09 o
-10 -1 3 4.30 5.03 0.91 o
-9 -1 3 3.17 4.21 0.65 o
-8 -1 3 89.89 84.34 1.17 o
-7 -1 3 53.63 52.08 0.90 o
-6 -1 3 278.93 289.30 2.35 o
-5 -1 3 181.79 184.01 1.45 o
-4 -1 3 731.04 749.40 4.21 o
-3 -1 3 2147.00 2192.44 14.34 o
-2 -1 3 565.53 586.85 3.46 o
-1 -1 3 3324.47 3124.52 34.75 o
0 -1 3 2002.14 2025.09 19.76 o
1 -1 3 4327.11 4038.37 31.79 o
2 -1 3 0.06 3.52 0.15 o
3 -1 3 408.16 475.31 3.28 o
4 -1 3 16.75 12.02 0.31 o
5 -1 3 58.24 73.21 0.99 o
6 -1 3 24.38 23.60 0.73 o
7 -1 3 15.44 16.00 0.64 o
8 -1 3 30.54 28.13 0.98 o
9 -1 3 28.96 25.28 1.10 o
10 -1 3 8.89 6.96 1.02 o
11 -1 3 1.94 2.13 1.44 o
12 -1 3 0.03 -0.52 1.80 o
-12 0 3 0.22 0.76 1.95 o
-11 0 3 4.15 2.72 1.29 o
-10 0 3 1.92 2.78 0.83 o
-9 0 3 0.05 0.39 0.51 o
-8 0 3 80.93 75.56 1.27 o
-7 0 3 136.14 122.95 1.34 o
-6 0 3 66.11 59.53 1.14 o
-5 0 3 423.55 445.99 3.27 o
-4 0 3 475.91 540.71 3.27 o
-3 0 3 0.42 1.48 0.13 o
-2 0 3 3.70 7.93 0.17 o
-1 0 3 3.02 12.34 0.23 o
0 0 3 165.83 208.06 1.51 o
1 0 3 16.16 19.99 0.28 o
2 0 3 49.59 55.89 0.49 o
3 0 3 765.27 897.53 5.65 o
4 0 3 56.20 52.25 0.55 o
5 0 3 44.04 39.69 0.78 o
6 0 3 41.07 44.70 1.33 o
7 0 3 41.50 40.28 0.80 o
8 0 3 5.59 5.81 0.48 o
9 0 3 3.19 3.88 0.76 o
10 0 3 5.30 5.20 1.06 o
11 0 3 3.92 2.82 1.32 o
12 0 3 0.29 -0.70 1.72 o
13 0 3 0.86 3.34 2.49 o
-12 1 3 0.88 0.83 1.91 o
-11 1 3 0.67 0.61 1.60 o
-10 1 3 8.44 9.50 1.17 o
-9 1 3 2.75 2.59 0.60 o
-8 1 3 5.38 6.11 0.56 o
-7 1 3 5.57 8.21 0.50 o
-6 1 3 126.62 127.13 1.60 o
-5 1 3 591.52 616.83 5.17 o
-4 1 3 263.22 270.67 1.98 o
-3 1 3 60.47 53.26 0.48 o
-2 1 3 910.77 945.75 5.90 o
1 1 3 421.50 517.07 3.72 o
2 1 3 413.36 430.74 2.86 o
3 1 3 285.86 341.68 2.07 o
4 1 3 0.20 0.60 0.21 o
5 1 3 8.36 6.11 0.37 o
6 1 3 41.26 52.88 1.43 o
7 1 3 145.80 152.00 1.64 o
8 1 3 9.75 13.14 0.84 o
9 1 3 8.50 8.98 0.91 o
10 1 3 5.55 5.43 1.32 o
11 1 3 3.97 3.83 1.24 o
12 1 3 2.25 2.51 1.85 o
13 1 3 0.77 -0.30 3.57 o
-12 2 3 0.11 1.73 2.20 o
-11 2 3 1.38 2.38 1.54 o
-10 2 3 0.01 0.54 1.07 o
-9 2 3 6.35 5.58 0.69 o
-8 2 3 24.08 25.35 0.97 o
-7 2 3 0.52 0.51 0.44 o
-6 2 3 14.81 17.40 0.82 o
-5 2 3 11.93 15.61 0.57 o
-4 2 3 95.32 107.80 1.21 o
-3 2 3 4.63 7.30 0.28 o
-2 2 3 125.75 201.49 1.32 o
-1 2 3 2270.09 2310.43 13.81 o
0 2 3 1819.72 1698.94 11.38 o
1 2 3 294.79 342.77 2.18 o
2 2 3 423.69 478.67 2.76 o
3 2 3 358.74 431.36 2.66 o
4 2 3 143.93 149.55 1.18 o
5 2 3 136.47 139.11 1.94 o
6 2 3 326.86 340.38 3.41 o
7 2 3 69.93 75.21 1.27 o
8 2 3 153.35 149.47 2.24 o
9 2 3 29.92 28.06 1.18 o
10 2 3 74.50 78.35 1.99 o
11 2 3 1.53 0.90 1.71 o
12 2 3 0.80 2.69 1.70 o
13 2 3 0.08 3.12 2.20 o
-12 3 3 1.93 5.19 2.59 o
-11 3 3 0.12 0.90 2.33 o
-10 3 3 4.93 5.31 1.12 o
-9 3 3 2.32 2.65 0.73 o
-8 3 3 39.40 37.61 1.11 o
-7 3 3 4.57 4.75 0.59 o
-6 3 3 119.81 131.81 1.69 o
-5 3 3 23.53 20.22 0.82 o
-4 3 3 438.99 434.25 4.24 o
-3 3 3 59.46 92.23 1.02 o
-2 3 3 3.51 4.72 0.24 o
-1 3 3 192.58 187.53 1.36 o
0 3 3 0.54 4.64 0.15 o
1 3 3 424.45 437.62 2.68 o
2 3 3 1.08 2.55 0.15 o
3 3 3 160.40 166.01 1.04 o
4 3 3 171.49 169.18 1.15 o
5 3 3 133.84 139.05 1.15 o
6 3 3 226.61 233.12 1.82 o
7 3 3 121.77 135.40 1.76 o
8 3 3 87.02 82.92 1.62 o
9 3 3 1.05 0.93 0.68 o
10 3 3 30.75 34.10 1.45 o
11 3 3 1.69 1.65 1.03 o
12 3 3 0.63 3.18 1.65 o
13 3 3 0.09 2.55 2.52 o
-11 4 3 0.01 3.95 1.86 o
-10 4 3 3.68 5.32 1.20 o
-9 4 3 6.99 6.69 1.04 o
-8 4 3 8.84 9.18 0.78 o
-7 4 3 5.48 7.58 0.58 o
-6 4 3 204.31 191.00 2.25 o
-5 4 3 125.09 119.74 1.55 o
-4 4 3 8.14 11.10 0.60 o
-3 4 3 20.82 21.24 0.47 o
-2 4 3 6.20 7.21 0.25 o
-1 4 3 346.56 420.06 2.72 o
0 4 3 45.95 70.43 0.71 o
1 4 3 11.47 11.95 0.18 o
2 4 3 5.32 8.86 0.19 o
3 4 3 4.33 5.54 0.19 o
4 4 3 1067.96 1068.42 6.30 o
5 4 3 0.05 0.09 0.18 o
6 4 3 27.08 26.42 0.46 o
7 4 3 9.49 5.98 0.34 o
8 4 3 0.55 1.18 0.53 o
9 4 3 29.88 30.52 1.21 o
10 4 3 24.56 28.50 1.41 o
11 4 3 12.26 13.34 1.29 o
12 4 3 2.31 0.66 1.63 o
13 4 3 1.43 0.42 2.02 o
-11 5 3 0.00 0.95 2.55 o
-10 5 3 0.02 1.42 2.10 o
-9 5 3 0.28 0.81 1.19 o
-8 5 3 0.23 -0.47 0.72 o
-7 5 3 34.66 30.28 0.97 o
-6 5 3 5.89 6.74 0.59 o
-5 5 3 68.22 76.83 1.23 o
-4 5 3 10.71 10.10 0.56 o
-3 5 3 233.11 241.00 2.20 o
-2 5 3 418.12 431.68 4.55 o
-1 5 3 566.68 666.09 4.12 o
0 5 3 2417.71 2455.25 15.14 o
1 5 3 21.73 18.65 0.26 o
2 5 3 484.15 477.30 2.71 o
3 5 3 82.71 87.32 0.67 o
4 5 3 454.22 511.12 3.43 o
5 5 3 567.34 559.57 4.64 o
6 5 3 527.13 533.06 4.26 o
7 5 3 5.87 5.88 0.32 o
8 5 3 15.37 18.46 0.57 o
9 5 3 10.07 9.08 0.74 o
10 5 3 18.48 16.93 1.46 o
11 5 3 0.34 2.05 1.09 o
12 5 3 0.00 0.31 1.51 o
13 5 3 2.74 1.89 2.16 o
-10 6 3 2.04 3.38 1.58 o
-9 6 3 0.04 0.16 1.10 o
-8 6 3 1.49 0.62 0.85 o
-7 6 3 12.80 14.87 0.98 o
-6 6 3 61.43 56.81 1.38 o
-5 6 3 13.86 9.52 0.59 o
-4 6 3 30.88 23.23 0.76 o
-3 6 3 73.61 70.36 0.98 o
-2 6 3 41.00 43.28 0.64 o
-1 6 3 45.13 45.13 0.55 o
0 6 3 0.02 0.28 0.17 o
1 6 3 99.49 121.64 0.83 o
2 6 3 532.61 617.21 3.81 o
3 6 3 25.62 17.61 0.36 o
4 6 3 277.51 316.60 2.37 o
5 6 3 343.60 340.67 2.94 o
6 6 3 352.35 364.30 3.35 o
7 6 3 118.91 114.05 1.25 o
8 6 3 158.13 146.80 1.66 o
9 6 3 6.89 8.95 0.60 o
10 6 3 2.91 3.71 0.92 o
11 6 3 5.72 7.72 1.07 o
12 6 3 1.79 0.06 2.29 o
13 6 3 1.96 3.69 2.48 o
14 6 3 0.02 0.61 2.74 o
-10 7 3 2.27 5.50 1.71 o
-9 7 3 0.87 2.50 1.27 o
-8 7 3 3.75 2.69 1.17 o
-7 7 3 3.14 4.72 1.09 o
-6 7 3 8.38 8.26 0.76 o
-5 7 3 1.80 2.26 0.54 o
-4 7 3 10.34 16.09 0.73 o
-3 7 3 17.99 22.07 0.62 o
-2 7 3 46.37 43.13 0.63 o
-1 7 3 400.84 402.54 2.99 o
0 7 3 55.05 56.22 0.56 o
1 7 3 264.11 278.41 2.10 o
2 7 3 414.87 392.42 2.84 o
3 7 3 372.67 399.75 3.84 o
4 7 3 3.68 4.91 0.31 o
5 7 3 79.30 82.15 0.91 o
6 7 3 2.16 1.11 0.26 o
7 7 3 4.14 5.00 0.40 o
8 7 3 125.08 126.79 1.45 o
9 7 3 12.35 11.63 0.73 o
10 7 3 8.24 7.93 0.91 o
11 7 3 3.47 2.25 1.08 o
12 7 3 0.07 1.56 1.62 o
13 7 3 7.16 9.58 2.48 o
14 7 3 3.96 4.75 2.81 o
-9 8 3 0.00 4.04 1.83 o
-8 8 3 5.70 5.87 1.56 o
-7 8 3 0.10 0.57 1.33 o
-6 8 3 12.41 14.26 1.29 o
-5 8 3 0.67 1.22 0.57 o
-4 8 3 2.96 3.49 0.51 o
-3 8 3 13.78 11.79 0.51 o
-2 8 3 97.90 84.83 1.05 o
-1 8 3 80.05 79.03 0.95 o
0 8 3 13.82 20.11 0.38 o
1 8 3 85.92 69.16 0.69 o
2 8 3 35.14 40.61 0.46 o
3 8 3 98.00 90.88 0.90 o
4 8 3 216.37 215.39 1.52 o
5 8 3 27.17 32.69 0.52 o
6 8 3 93.67 99.40 1.01 o
7 8 3 37.03 34.27 0.56 o
8 8 3 4.28 5.06 0.39 o
9 8 3 29.15 29.22 0.99 o
10 8 3 1.53 2.45 0.61 o
11 8 3 2.33 3.86 1.07 o
12 8 3 0.09 0.34 1.31 o
13 8 3 0.40 2.65 1.94 o
-9 9 3 0.00 2.49 2.04 o
-8 9 3 0.85 4.98 2.14 o
-7 9 3 2.90 3.85 1.21 o
-6 9 3 3.43 4.60 1.04 o
-5 9 3 6.43 5.91 0.89 o
-4 9 3 12.28 12.45 0.70 o
-3 9 3 14.01 20.58 0.92 o
-2 9 3 51.49 51.17 0.87 o
-1 9 3 22.97 18.95 0.57 o
0 9 3 764.31 706.61 5.64 o
1 9 3 13.08 14.24 0.41 o
2 9 3 174.54 147.42 1.17 o
3 9 3 59.31 63.59 0.77 o
4 9 3 4.84 9.70 0.43 o
5 9 3 14.82 12.53 0.40 o
6 9 3 0.55 0.53 0.27 o
7 9 3 2.16 1.89 0.29 o
8 9 3 3.52 3.98 0.47 o
9 9 3 2.92 2.27 0.47 o
10 9 3 4.26 4.11 0.63 o
11 9 3 0.18 1.45 1.07 o
12 9 3 4.36 4.86 1.44 o
13 9 3 1.38 1.26 2.24 o
-8 10 3 0.77 -0.43 1.82 o
-7 10 3 0.16 -0.66 1.44 o
-6 10 3 11.43 12.99 1.24 o
-5 10 3 0.08 0.13 0.74 o
-4 10 3 6.41 7.76 0.72 o
-3 10 3 5.03 6.22 0.60 o
-2 10 3 1.80 1.09 0.49 o
-1 10 3 3.14 1.69 0.36 o
0 10 3 5.14 7.68 0.47 o
1 10 3 7.53 5.10 0.36 o
2 10 3 92.32 84.93 1.08 o
3 10 3 87.07 78.90 0.93 o
4 10 3 4.94 3.44 0.36 o
5 10 3 115.92 108.06 1.29 o
6 10 3 23.06 25.73 0.59 o
7 10 3 12.81 11.93 0.72 o
8 10 3 11.79 12.94 0.67 o
9 10 3 1.66 2.02 0.49 o
10 10 3 0.02 -0.67 0.74 o
11 10 3 3.45 5.01 0.97 o
12 10 3 0.30 2.30 1.71 o
13 10 3 3.22 3.33 2.31 o
-8 11 3 0.00 1.28 4.99 o
-7 11 3 0.18 -1.56 1.70 o
-6 11 3 0.60 1.07 1.30 o
-5 11 3 5.80 6.77 1.06 o
-4 11 3 0.86 1.31 0.75 o
-3 11 3 11.31 11.20 0.84 o
-2 11 3 13.26 14.58 0.70 o
-1 11 3 4.71 6.89 0.50 o
0 11 3 36.51 31.98 0.76 o
1 11 3 11.44 8.26 0.43 o
2 11 3 35.72 32.39 0.66 o
3 11 3 15.28 11.62 0.77 o
4 11 3 8.58 7.97 0.46 o
5 11 3 19.10 17.82 0.69 o
6 11 3 1.88 1.77 0.38 o
7 11 3 15.79 12.52 0.61 o
8 11 3 20.43 18.79 0.73 o
9 11 3 1.72 1.70 0.53 o
10 11 3 0.09 0.96 0.70 o
11 11 3 7.27 7.00 1.05 o
12 11 3 3.55 3.47 2.47 o
13 11 3 3.72 6.88 3.94 o
-7 12 3 1.22 7.44 2.44 o
-6 12 3 0.23 4.56 3.31 o
-5 12 3 1.67 1.79 1.44 o
-4 12 3 4.64 3.37 1.14 o
-3 12 3 3.70 6.09 0.94 o
-2 12 3 15.43 17.20 0.97 o
-1 12 3 26.39 25.65 1.13 o
0 12 3 3.79 3.31 0.49 o
1 12 3 9.22 10.13 0.72 o
2 12 3 4.79 6.05 0.53 o
3 12 3 1.16 1.09 0.51 o
4 12 3 58.49 59.70 1.32 o
5 12 3 20.74 21.33 1.00 o
6 12 3 57.67 57.05 1.31 o
7 12 3 6.53 10.27 1.35 o
8 12 3 12.05 13.82 0.85 o
9 12 3 6.81 5.60 0.87 o
10 12 3 0.08 0.45 0.84 o
11 12 3 1.89 2.20 1.27 o
12 12 3 2.50 8.82 2.73 o
13 12 3 0.82 2.58 3.48 o
-6 13 3 1.17 -2.91 2.91 o
-5 13 3 1.29 0.12 1.98 o
-4 13 3 4.13 3.42 1.61 o
-3 13 3 0.21 -0.68 1.25 o
-2 13 3 23.17 24.03 1.36 o
-1 13 3 2.09 3.15 0.78 o
0 13 3 40.19 43.20 1.43 o
1 13 3 0.14 0.03 0.51 o
2 13 3 69.32 69.26 1.32 o
3 13 3 16.44 15.96 0.97 o
4 13 3 2.07 1.84 0.60 o
5 13 3 24.89 22.09 1.11 o
6 13 3 0.47 0.22 0.57 o
7 13 3 46.63 40.39 2.14 o
8 13 3 2.30 2.17 0.97 o
9 13 3 10.38 9.08 1.11 o
10 13 3 0.49 0.72 1.07 o
11 13 3 0.01 3.47 2.09 o
12 13 3 0.09 3.96 2.92 o
-5 14 3 0.02 2.69 4.08 o
-4 14 3 3.05 3.44 1.67 o
-3 14 3 0.00 -0.33 2.20 o
-2 14 3 0.15 1.87 1.53 o
-1 14 3 12.73 14.16 1.28 o
0 14 3 5.19 5.67 0.81 o
1 14 3 10.91 10.30 0.81 o
2 14 3 25.74 23.24 1.08 o
3 14 3 58.25 58.76 1.69 o
4 14 3 0.02 -0.31 0.66 o
5 14 3 30.74 29.10 1.27 o
6 14 3 1.34 0.68 0.73 o
7 14 3 34.02 37.70 2.01 o
8 14 3 7.25 9.40 1.40 o
9 14 3 0.71 0.36 1.13 o
10 14 3 0.01 3.15 1.54 o
11 14 3 2.01 6.34 2.36 o
12 14 3 0.30 -2.01 4.24 o
-4 15 3 0.01 -2.03 2.17 o
-3 15 3 0.90 1.14 1.68 o
-2 15 3 4.45 5.33 1.52 o
-1 15 3 1.38 0.69 1.45 o
0 15 3 0.45 1.96 1.06 o
1 15 3 21.99 24.08 1.37 o
2 15 3 0.32 0.62 0.89 o
3 15 3 15.10 17.09 1.12 o
4 15 3 0.45 0.10 0.81 o
5 15 3 3.30 2.03 0.81 o
6 15 3 1.35 1.44 1.45 o
7 15 3 1.29 -0.23 1.73 o
8 15 3 2.42 1.56 2.10 o
9 15 3 4.31 4.01 1.92 o
10 15 3 0.22 -1.48 1.87 o
11 15 3 2.66 2.84 2.68 o
12 15 3 0.01 0.00 4.79 o
-3 16 3 1.55 6.23 4.10 o
-2 16 3 0.70 -1.80 1.80 o
-1 16 3 0.15 -0.35 1.54 o
0 16 3 0.15 -0.76 1.68 o
1 16 3 1.19 2.26 1.56 o
2 16 3 4.44 5.51 1.11 o
3 16 3 2.71 1.43 0.98 o
4 16 3 0.00 -0.32 1.01 o
5 16 3 0.00 3.13 1.45 o
6 16 3 6.37 6.85 2.53 o
7 16 3 10.01 10.56 2.94 o
8 16 3 0.44 0.62 2.78 o
9 16 3 0.87 -0.27 2.23 o
10 16 3 0.63 2.81 2.31 o
11 16 3 1.87 4.21 3.19 o
-2 17 3 0.12 0.93 3.94 o
-1 17 3 0.49 -0.99 2.65 o
0 17 3 0.41 0.68 4.02 o
1 17 3 0.50 1.97 1.88 o
2 17 3 0.52 -0.27 1.88 o
3 17 3 5.55 6.87 1.56 o
4 17 3 0.12 0.97 1.74 o
5 17 3 4.05 5.13 2.05 o
6 17 3 0.02 0.51 2.03 o
7 17 3 2.84 1.02 2.94 o
8 17 3 2.22 4.23 3.24 o
9 17 3 0.55 -3.82 4.07 o
10 17 3 0.28 2.29 4.96 o
0 18 3 2.29 -2.21 3.24 o
1 18 3 0.39 1.15 2.79 o
2 18 3 0.02 -0.74 2.50 o
3 18 3 0.03 -1.78 3.11 o
4 18 3 0.43 -1.54 3.19 o
5 18 3 5.88 6.80 3.29 o
6 18 3 6.78 9.57 3.48 o
7 18 3 1.64 -0.37 4.74 o
8 18 3 2.47 2.11 3.67 o
9 18 3 0.52 3.19 4.11 o
2 19 3 0.00 5.76 5.08 o
3 19 3 0.29 3.32 4.22 o
4 19 3 0.11 4.57 3.79 o
5 19 3 0.03 -4.01 4.01 o
6 19 3 2.09 10.18 7.75 o
7 19 3 0.56 3.65 4.14 o
-7 -18 4 0.30 0.00 5.13 o
-6 -18 4 2.81 1.81 2.32 o
-5 -18 4 0.07 0.50 2.94 o
-4 -18 4 3.08 11.13 3.26 o
-3 -18 4 0.00 7.04 3.82 o
-2 -18 4 0.09 4.08 2.21 o
-1 -18 4 0.48 0.50 2.38 o
-9 -17 4 0.25 7.37 3.25 o
-8 -17 4 0.22 0.90 2.47 o
-7 -17 4 0.00 -0.23 2.05 o
-6 -17 4 0.01 2.84 1.90 o
-5 -17 4 12.11 9.13 2.17 o
-4 -17 4 0.07 1.43 2.68 o
-3 -17 4 8.32 7.92 2.08 o
-2 -17 4 2.30 2.42 1.85 o
-1 -17 4 1.35 0.25 1.96 o
0 -17 4 0.19 -0.76 2.11 o
1 -17 4 0.35 2.82 2.32 o
-10 -16 4 0.44 1.34 4.20 o
-9 -16 4 0.07 -2.65 2.65 o
-8 -16 4 0.02 1.03 1.94 o
-7 -16 4 0.22 0.14 1.80 o
-6 -16 4 1.53 0.96 1.76 o
-5 -16 4 13.88 16.55 2.15 o
-4 -16 4 20.18 28.53 3.56 o
-3 -16 4 21.67 24.12 1.79 o
-2 -16 4 3.19 5.85 2.30 o
-1 -16 4 22.34 26.28 2.44 o
0 -16 4 0.01 0.88 1.53 o
1 -16 4 0.01 0.37 1.54 o
2 -16 4 1.25 -0.87 2.93 o
3 -16 4 0.50 0.30 2.15 o
-11 -15 4 0.94 6.75 3.54 o
-10 -15 4 1.83 0.80 4.12 o
-9 -15 4 3.13 1.94 2.24 o
-8 -15 4 1.52 1.78 1.58 o
-7 -15 4 6.21 7.95 1.98 o
-6 -15 4 2.44 3.77 1.42 o
-5 -15 4 1.87 2.96 1.90 o
-4 -15 4 4.08 4.26 1.29 o
-3 -15 4 0.16 0.91 1.27 o
-2 -15 4 28.27 33.62 2.66 o
-1 -15 4 1.81 4.29 1.33 o
0 -15 4 11.87 10.41 1.48 o
1 -15 4 3.45 3.03 2.34 o
2 -15 4 0.01 -1.34 1.43 o
3 -15 4 0.34 -0.51 1.52 o
4 -15 4 1.00 1.20 2.04 o
-11 -14 4 2.69 4.41 2.32 o
-10 -14 4 0.86 1.34 1.70 o
-9 -14 4 2.97 -0.44 1.43 o
-8 -14 4 11.03 11.09 1.46 o
-7 -14 4 0.27 0.58 1.20 o
-6 -14 4 27.00 31.26 1.87 o
-5 -14 4 0.52 1.09 1.00 o
-4 -14 4 3.89 3.74 1.04 o
-3 -14 4 0.97 0.58 1.51 o
-2 -14 4 0.84 0.95 0.85 o
-1 -14 4 1.54 1.06 0.96 o
0 -14 4 0.02 -0.63 0.98 o
1 -14 4 1.42 -0.75 1.39 o
2 -14 4 6.43 6.73 1.53 o
3 -14 4 0.91 2.51 1.27 o
4 -14 4 0.80 2.21 1.50 o
5 -14 4 0.09 -1.73 2.25 o
-12 -13 4 0.01 2.68 3.90 o
-11 -13 4 1.75 0.46 1.72 o
-10 -13 4 0.37 -0.26 1.48 o
-9 -13 4 0.39 -0.42 2.29 o
-8 -13 4 0.91 1.09 1.15 o
-7 -13 4 0.70 0.85 0.81 o
-6 -13 4 1.64 0.66 0.72 o
-5 -13 4 36.06 36.42 1.34 o
-4 -13 4 3.21 2.78 0.80 o
-3 -13 4 12.11 10.20 1.08 o
-2 -13 4 0.72 0.17 0.75 o
-1 -13 4 0.37 -0.02 0.86 o
0 -13 4 1.66 0.84 0.89 o
1 -13 4 3.34 3.99 0.92 o
2 -13 4 1.45 2.27 1.09 o
3 -13 4 1.27 -0.59 1.32 o
4 -13 4 0.00 0.82 1.20 o
5 -13 4 1.94 1.70 1.56 o
6 -13 4 0.17 0.86 2.11 o
-12 -12 4 0.55 -0.53 2.00 o
-11 -12 4 0.91 -0.61 1.41 o
-10 -12 4 3.48 3.77 1.30 o
-9 -12 4 1.28 0.29 1.07 o
-8 -12 4 0.72 1.38 0.83 o
-7 -12 4 1.08 1.49 0.74 o
-6 -12 4 1.65 1.28 0.60 o
-5 -12 4 13.47 13.54 0.81 o
-4 -12 4 9.87 12.59 0.84 o
-3 -12 4 38.21 41.81 1.27 o
-2 -12 4 0.17 0.26 0.57 o
-1 -12 4 11.74 9.31 0.84 o
0 -12 4 0.80 -0.08 0.59 o
1 -12 4 6.92 6.33 0.67 o
2 -12 4 0.73 -0.09 0.71 o
3 -12 4 14.13 14.15 1.04 o
4 -12 4 3.11 2.08 1.15 o
5 -12 4 0.97 2.78 1.29 o
6 -12 4 0.52 0.58 1.96 o
7 -12 4 0.59 1.90 3.08 o
-12 -11 4 2.46 -0.13 2.14 o
-11 -11 4 1.76 2.66 1.42 o
-10 -11 4 1.39 1.20 1.11 o
-9 -11 4 1.23 0.66 0.83 o
-8 -11 4 0.09 0.37 0.72 o
-7 -11 4 13.48 12.94 0.77 o
-6 -11 4 18.77 17.15 0.75 o
-5 -11 4 0.52 0.82 0.61 o
-4 -11 4 53.96 51.78 1.10 o
-3 -11 4 6.21 6.38 0.60 o
-2 -11 4 29.51 28.78 0.91 o
-1 -11 4 1.28 1.99 0.58 o
0 -11 4 16.09 19.10 0.75 o
1 -11 4 0.67 0.43 0.51 o
2 -11 4 0.05 0.14 0.66 o
3 -11 4 7.23 7.79 0.80 o
4 -11 4 0.71 2.09 0.88 o
5 -11 4 10.63 11.96 1.23 o
6 -11 4 0.30 0.57 1.54 o
7 -11 4 0.36 0.52 1.90 o
8 -11 4 0.27 4.88 2.94 o
-13 -10 4 0.57 -2.69 2.69 o
-12 -10 4 1.42 -1.74 1.74 o
-11 -10 4 23.44 22.22 2.05 o
-10 -10 4 10.26 8.81 0.88 o
-9 -10 4 4.92 5.52 0.77 o
-8 -10 4 5.01 4.11 0.71 o
-7 -10 4 2.78 3.04 0.47 o
-6 -10 4 83.94 88.74 1.42 o
-5 -10 4 3.09 3.97 0.61 o
-4 -10 4 47.66 46.17 0.84 o
-3 -10 4 0.17 0.19 0.29 o
-2 -10 4 76.12 69.58 0.91 o
-1 -10 4 40.19 37.33 0.83 o
0 -10 4 30.75 26.82 0.72 o
1 -10 4 21.54 19.89 0.65 o
2 -10 4 5.54 5.57 0.63 o
3 -10 4 7.15 9.06 0.90 o
4 -10 4 5.74 5.73 0.83 o
5 -10 4 0.49 1.43 0.82 o
6 -10 4 0.17 0.38 1.33 o
7 -10 4 0.34 -0.44 1.56 o
8 -10 4 0.10 2.21 2.37 o
-13 -9 4 1.40 2.32 3.52 o
-12 -9 4 0.81 1.29 1.86 o
-11 -9 4 9.44 12.18 1.61 o
-10 -9 4 19.01 20.65 1.41 o
-9 -9 4 31.58 24.88 1.19 o
-8 -9 4 45.16 47.33 1.08 o
-7 -9 4 0.00 0.22 0.41 o
-6 -9 4 36.80 29.30 0.71 o
-5 -9 4 116.50 106.33 1.35 o
-4 -9 4 3.79 2.60 0.39 o
-3 -9 4 30.62 27.93 0.50 o
-2 -9 4 0.21 0.22 0.26 o
-1 -9 4 60.31 52.61 0.68 o
0 -9 4 0.39 0.36 0.26 o
1 -9 4 0.15 0.47 0.38 o
2 -9 4 6.84 8.20 0.45 o
3 -9 4 2.34 2.60 0.55 o
4 -9 4 19.48 18.63 0.97 o
5 -9 4 7.06 7.32 0.83 o
6 -9 4 0.09 1.78 0.86 o
7 -9 4 0.00 -0.95 1.28 o
8 -9 4 1.52 2.14 1.48 o
9 -9 4 0.15 -0.39 1.80 o
-13 -8 4 1.39 1.24 3.47 o
-12 -8 4 7.88 8.76 1.93 o
-11 -8 4 4.00 7.29 1.44 o
-10 -8 4 0.01 1.72 0.96 o
-9 -8 4 5.06 7.05 0.85 o
-8 -8 4 24.93 24.66 0.82 o
-7 -8 4 11.00 11.53 0.63 o
-6 -8 4 18.48 14.63 0.53 o
-5 -8 4 92.98 104.16 1.13 o
-4 -8 4 216.30 187.32 1.93 o
-3 -8 4 528.90 522.86 4.17 o
-2 -8 4 3.49 4.83 0.32 o
-1 -8 4 12.99 12.90 0.49 o
0 -8 4 0.49 0.87 0.18 o
1 -8 4 228.45 221.12 2.08 o
2 -8 4 61.61 57.27 0.97 o
3 -8 4 90.99 94.84 1.34 o
4 -8 4 20.24 16.96 0.80 o
5 -8 4 12.49 12.31 0.78 o
6 -8 4 8.38 7.94 0.87 o
7 -8 4 1.82 1.07 2.30 o
8 -8 4 1.72 1.44 1.33 o
9 -8 4 0.27 0.17 1.58 o
-13 -7 4 1.45 5.50 8.08 o
-12 -7 4 3.58 5.79 2.32 o
-11 -7 4 16.98 16.92 3.33 o
-10 -7 4 2.31 1.26 0.94 o
-9 -7 4 46.77 40.06 1.01 o
-8 -7 4 14.70 9.72 0.54 o
-7 -7 4 63.00 67.97 1.00 o
-6 -7 4 5.04 7.11 0.38 o
-5 -7 4 62.38 61.50 0.80 o
-4 -7 4 29.66 26.55 0.49 o
-3 -7 4 63.72 68.92 0.72 o
-2 -7 4 2.19 0.14 0.19 o
-1 -7 4 20.96 24.35 0.58 o
0 -7 4 10.18 13.90 0.36 o
1 -7 4 5.99 7.45 0.36 o
2 -7 4 76.17 69.65 0.84 o
3 -7 4 511.46 486.23 4.24 o
4 -7 4 0.94 1.64 0.40 o
5 -7 4 62.17 61.17 1.28 o
6 -7 4 15.13 16.56 0.90 o
7 -7 4 6.09 6.06 0.91 o
8 -7 4 0.32 0.41 1.76 o
9 -7 4 1.40 0.04 1.35 o
10 -7 4 0.07 1.51 1.80 o
-13 -6 4 11.84 20.47 3.49 o
-12 -6 4 1.19 3.88 2.94 o
-11 -6 4 15.83 14.70 1.70 o
-10 -6 4 5.25 6.02 0.92 o
-9 -6 4 92.45 94.63 1.46 o
-8 -6 4 3.87 5.49 0.42 o
-7 -6 4 20.36 23.17 0.54 o
-6 -6 4 0.03 0.35 0.30 o
-5 -6 4 11.36 12.42 0.45 o
-4 -6 4 378.67 407.15 3.02 o
-3 -6 4 397.48 412.29 2.79 o
-2 -6 4 27.53 21.01 0.38 o
-1 -6 4 513.29 537.37 5.51 o
0 -6 4 2.26 2.42 0.24 o
1 -6 4 4.33 3.27 0.22 o
2 -6 4 99.70 97.85 1.06 o
3 -6 4 1.07 2.53 0.35 o
4 -6 4 33.06 30.17 0.74 o
5 -6 4 35.06 33.35 0.96 o
6 -6 4 3.36 3.28 0.57 o
7 -6 4 14.88 17.25 0.88 o
8 -6 4 4.77 6.32 1.07 o
9 -6 4 0.61 -0.76 1.22 o
10 -6 4 0.10 -1.53 1.53 o
-13 -5 4 2.46 4.85 3.25 o
-12 -5 4 3.40 1.88 1.99 o
-11 -5 4 7.18 4.83 1.41 o
-10 -5 4 17.42 19.83 1.30 o
-9 -5 4 9.55 10.83 1.12 o
-8 -5 4 97.32 82.46 1.14 o
-7 -5 4 157.00 152.02 1.53 o
-6 -5 4 86.61 89.86 0.95 o
-5 -5 4 7.67 6.29 0.30 o
-4 -5 4 0.61 0.36 0.21 o
-3 -5 4 677.78 644.31 4.09 o
-2 -5 4 115.38 110.57 0.85 o
-1 -5 4 0.64 1.18 0.15 o
0 -5 4 75.63 72.72 0.64 o
1 -5 4 50.57 56.85 0.63 o
2 -5 4 32.64 32.94 0.62 o
3 -5 4 251.54 234.87 2.19 o
4 -5 4 10.37 9.61 0.54 o
5 -5 4 52.36 45.26 0.92 o
6 -5 4 27.70 33.92 0.98 o
7 -5 4 0.98 0.65 0.58 o
8 -5 4 4.88 7.42 0.84 o
9 -5 4 7.65 10.47 1.28 o
10 -5 4 2.47 1.95 1.37 o
11 -5 4 0.13 1.32 2.12 o
-13 -4 4 3.06 9.51 2.73 o
-12 -4 4 2.00 3.17 1.99 o
-11 -4 4 2.41 1.15 2.69 o
-10 -4 4 29.17 27.07 1.17 o
-9 -4 4 24.98 20.96 0.95 o
-8 -4 4 123.57 120.86 1.59 o
-7 -4 4 122.92 116.54 1.20 o
-6 -4 4 175.20 163.08 1.52 o
-5 -4 4 554.45 517.69 3.74 o
-4 -4 4 9.97 11.14 0.34 o
-3 -4 4 434.73 427.09 2.53 o
-2 -4 4 15.83 24.06 0.26 o
-1 -4 4 1562.07 1796.12 10.77 o
0 -4 4 200.24 194.62 1.30 o
1 -4 4 1262.51 1346.45 8.39 o
2 -4 4 490.14 504.56 4.22 o
3 -4 4 88.42 90.91 1.02 o
4 -4 4 0.44 0.44 0.35 o
5 -4 4 0.38 0.82 0.43 o
6 -4 4 0.31 1.12 0.42 o
7 -4 4 1.76 1.35 0.58 o
8 -4 4 14.31 13.64 0.77 o
9 -4 4 1.46 1.43 1.03 o
10 -4 4 1.44 3.27 1.63 o
11 -4 4 0.01 -1.85 1.85 o
-13 -3 4 4.65 6.92 2.70 o
-12 -3 4 3.46 3.78 2.68 o
-11 -3 4 18.23 18.29 1.43 o
-10 -3 4 3.13 2.73 0.73 o
-9 -3 4 82.90 79.24 1.38 o
-8 -3 4 4.10 3.72 0.52 o
-7 -3 4 1.04 0.60 0.30 o
-6 -3 4 8.45 12.04 0.42 o
-5 -3 4 16.12 17.11 0.37 o
-4 -3 4 0.70 0.23 0.13 o
-3 -3 4 65.70 61.01 0.53 o
-2 -3 4 16.72 15.94 0.24 o
-1 -3 4 179.76 259.00 1.60 o
0 -3 4 0.14 0.46 0.13 o
1 -3 4 177.07 240.94 1.67 o
2 -3 4 0.94 2.92 0.20 o
3 -3 4 149.62 158.34 2.66 o
4 -3 4 157.29 163.04 1.86 o
5 -3 4 39.28 39.43 0.85 o
6 -3 4 1.24 0.65 0.50 o
7 -3 4 5.52 3.07 0.50 o
8 -3 4 31.83 30.37 1.05 o
9 -3 4 0.30 -0.02 0.76 o
10 -3 4 12.00 10.13 1.19 o
11 -3 4 0.18 -1.64 1.64 o
12 -3 4 0.67 2.67 2.24 o
-13 -2 4 1.07 4.49 2.84 o
-12 -2 4 0.97 1.92 2.61 o
-11 -2 4 10.53 10.25 1.08 o
-10 -2 4 1.99 2.45 0.78 o
-9 -2 4 22.22 24.08 1.02 o
-8 -2 4 9.30 8.50 0.59 o
-7 -2 4 0.81 1.64 0.40 o
-6 -2 4 198.98 204.10 1.53 o
-5 -2 4 9.29 7.50 0.31 o
-4 -2 4 127.26 154.57 1.11 o
-3 -2 4 45.61 41.28 0.42 o
-2 -2 4 308.71 422.11 2.71 o
-1 -2 4 504.03 539.09 3.66 o
0 -2 4 628.91 702.57 4.41 o
1 -2 4 439.22 517.36 3.28 o
2 -2 4 644.43 708.36 4.63 o
3 -2 4 757.48 782.57 5.78 o
4 -2 4 125.43 136.41 2.20 o
5 -2 4 224.71 199.03 1.91 o
6 -2 4 117.21 100.18 2.65 o
7 -2 4 3.12 2.31 0.52 o
8 -2 4 2.15 1.71 0.55 o
9 -2 4 7.90 10.05 0.83 o
10 -2 4 5.02 4.53 1.23 o
11 -2 4 8.87 10.00 1.60 o
12 -2 4 0.30 2.79 2.02 o
-13 -1 4 0.02 6.34 6.13 o
-12 -1 4 2.16 5.36 2.29 o
-11 -1 4 4.86 5.42 1.27 o
-10 -1 4 0.54 1.06 0.79 o
-9 -1 4 7.36 5.52 0.71 o
-8 -1 4 16.18 15.54 0.74 o
-7 -1 4 0.01 0.14 0.31 o
-6 -1 4 39.08 35.66 0.56 o
-5 -1 4 106.05 112.69 1.72 o
-4 -1 4 133.82 175.32 1.18 o
-3 -1 4 32.77 48.62 0.60 o
-2 -1 4 45.48 44.72 0.60 o
-1 -1 4 111.46 104.85 0.80 o
0 -1 4 9.21 2.96 0.13 o
1 -1 4 856.06 983.80 6.88 o
2 -1 4 10.14 14.64 0.24 o
3 -1 4 167.55 194.17 1.58 o
4 -1 4 206.22 210.55 1.74 o
5 -1 4 0.01 0.70 0.27 o
6 -1 4 276.43 302.59 3.14 o
7 -1 4 1.12 0.85 0.43 o
8 -1 4 6.04 7.03 0.63 o
9 -1 4 10.66 11.03 0.70 o
10 -1 4 1.67 0.35 0.95 o
11 -1 4 4.03 2.56 1.66 o
12 -1 4 2.47 1.47 1.84 o
-12 0 4 1.07 1.90 2.37 o
-11 0 4 0.30 2.76 1.45 o
-10 0 4 8.84 8.60 0.95 o
-9 0 4 0.02 0.01 0.53 o
-8 0 4 14.23 15.85 0.74 o
-7 0 4 4.62 5.81 0.44 o
-6 0 4 39.88 40.19 0.69 o
-5 0 4 281.53 264.23 2.26 o
-4 0 4 1.37 4.94 0.23 o
-3 0 4 2611.04 2469.82 14.78 o
-2 0 4 74.81 102.12 0.76 o
-1 0 4 40.17 64.57 0.77 o
0 0 4 2041.90 2020.98 20.90 o
1 0 4 0.10 0.34 0.09 o
2 0 4 817.45 818.39 6.12 o
3 0 4 1709.94 1698.14 10.53 o
4 0 4 309.64 337.48 2.32 o
5 0 4 32.66 35.83 0.59 o
6 0 4 35.64 35.06 0.95 o
7 0 4 1.39 1.29 0.39 o
8 0 4 11.19 15.90 0.86 o
9 0 4 0.51 1.84 0.61 o
10 0 4 1.11 0.47 0.89 o
11 0 4 0.03 0.24 1.12 o
12 0 4 2.74 2.08 1.74 o
13 0 4 0.41 -3.09 3.09 o
-12 1 4 0.50 3.21 1.96 o
-11 1 4 4.02 5.65 1.47 o
-10 1 4 2.33 1.38 0.93 o
-9 1 4 27.81 28.13 1.08 o
-8 1 4 1.15 2.73 0.54 o
-7 1 4 1.18 0.92 0.42 o
-6 1 4 36.72 33.38 0.67 o
-5 1 4 15.10 20.31 0.52 o
-4 1 4 336.27 361.24 2.82 o
-3 1 4 303.86 345.13 2.28 o
-2 1 4 449.04 561.57 3.59 o
-1 1 4 897.61 936.93 5.84 o
0 1 4 821.57 848.10 5.69 o
1 1 4 310.35 365.34 2.26 o
2 1 4 692.74 741.25 5.27 o
3 1 4 84.32 74.06 0.56 o
4 1 4 77.67 114.62 0.81 o
5 1 4 0.18 0.19 0.25 o
6 1 4 172.46 153.42 1.73 o
7 1 4 1.98 0.36 0.35 o
8 1 4 88.15 81.20 1.35 o
9 1 4 19.83 19.47 1.12 o
10 1 4 11.38 9.85 0.98 o
11 1 4 1.12 -0.68 1.08 o
12 1 4 1.15 3.73 1.84 o
13 1 4 0.19 1.88 2.98 o
-12 2 4 0.47 3.25 2.11 o
-11 2 4 1.38 1.39 1.54 o
-10 2 4 0.19 1.50 1.15 o
-9 2 4 0.23 -0.41 0.65 o
-8 2 4 66.58 60.56 1.26 o
-7 2 4 4.02 4.88 0.55 o
-6 2 4 31.75 28.82 0.73 o
-5 2 4 9.03 8.58 0.63 o
-4 2 4 350.38 396.70 3.44 o
-3 2 4 860.15 882.18 5.98 o
-2 2 4 2268.13 2216.20 13.27 o
-1 2 4 1.68 1.35 0.13 o
0 2 4 271.67 280.91 1.96 o
1 2 4 685.12 804.13 6.30 o
2 2 4 818.98 927.72 5.14 o
3 2 4 697.59 854.72 6.31 o
4 2 4 183.70 178.95 1.17 o
5 2 4 15.59 25.45 0.38 o
6 2 4 21.18 17.80 0.42 o
7 2 4 17.32 26.29 1.11 o
8 2 4 2.18 1.27 0.67 o
9 2 4 10.17 8.57 0.89 o
10 2 4 30.82 30.89 1.61 o
11 2 4 6.14 6.55 1.28 o
12 2 4 0.53 0.03 1.72 o
13 2 4 0.43 -2.10 3.11 o
-11 3 4 2.55 7.67 2.89 o
-10 3 4 0.00 0.68 1.14 o
-9 3 4 1.54 2.12 0.76 o
-8 3 4 10.84 10.82 0.73 o
-7 3 4 15.02 17.01 0.77 o
-6 3 4 103.32 98.94 1.41 o
-5 3 4 249.29 246.58 2.65 o
-4 3 4 38.37 36.53 0.70 o
-3 3 4 22.08 26.87 0.43 o
-2 3 4 80.44 86.80 0.64 o
0 3 4 17.44 12.13 0.20 o
1 3 4 821.51 845.09 4.96 o
2 3 4 434.52 442.71 2.83 o
3 3 4 48.93 59.55 0.46 o
4 3 4 450.59 468.60 2.94 o
5 3 4 0.01 0.69 0.19 o
6 3 4 41.90 41.33 0.58 o
7 3 4 50.59 45.71 0.92 o
8 3 4 20.32 12.42 1.20 o
9 3 4 9.20 9.90 0.94 o
10 3 4 2.30 3.14 0.86 o
11 3 4 10.43 10.80 1.51 o
12 3 4 4.70 6.22 1.94 o
13 3 4 2.19 3.31 2.42 o
-11 4 4 1.29 2.23 2.11 o
-10 4 4 1.93 2.50 1.50 o
-9 4 4 3.55 3.27 0.89 o
-8 4 4 4.07 3.05 0.74 o
-7 4 4 23.66 26.02 0.92 o
-6 4 4 8.79 10.38 0.63 o
-5 4 4 296.11 293.35 3.10 o
-4 4 4 3.15 4.55 0.44 o
-3 4 4 274.43 293.71 2.34 o
-2 4 4 784.86 754.05 5.58 o
-1 4 4 796.84 891.13 5.90 o
0 4 4 2357.61 2264.23 13.14 o
1 4 4 3007.25 2823.93 15.96 o
2 4 4 261.26 296.30 1.90 o
3 4 4 107.01 136.87 0.92 o
4 4 4 118.65 111.54 0.90 o
5 4 4 11.49 6.09 0.28 o
6 4 4 24.90 29.25 0.64 o
7 4 4 2.93 2.61 0.29 o
8 4 4 15.23 16.48 0.79 o
9 4 4 3.07 2.26 0.68 o
10 4 4 67.93 66.27 2.08 o
11 4 4 0.49 0.30 1.20 o
12 4 4 12.02 11.28 1.56 o
13 4 4 0.64 3.50 2.72 o
-11 5 4 0.00 2.52 2.98 o
-10 5 4 0.81 2.39 1.36 o
-9 5 4 4.02 4.24 1.11 o
-8 5 4 1.02 0.37 0.77 o
-7 5 4 4.76 3.15 0.61 o
-6 5 4 50.72 48.49 1.28 o
-5 5 4 18.25 17.53 0.89 o
-4 5 4 227.37 217.92 2.42 o
-3 5 4 7.31 6.88 0.36 o
-2 5 4 55.81 53.09 0.73 o
-1 5 4 315.28 376.74 2.90 o
0 5 4 769.15 784.10 4.97 o
1 5 4 8.73 14.08 0.27 o
2 5 4 1020.61 1001.31 6.50 o
3 5 4 58.44 58.78 0.50 o
4 5 4 55.96 59.39 0.55 o
5 5 4 74.27 85.46 0.85 o
6 5 4 458.22 453.13 3.51 o
7 5 4 0.12 0.22 0.28 o
8 5 4 34.39 32.64 0.89 o
9 5 4 2.39 3.65 0.68 o
10 5 4 25.64 30.45 1.99 o
11 5 4 3.09 3.77 1.24 o
12 5 4 0.30 0.66 1.40 o
13 5 4 0.09 1.56 2.06 o
-10 6 4 0.75 2.42 1.60 o
-9 6 4 1.41 1.82 1.14 o
-8 6 4 0.32 0.24 0.87 o
-7 6 4 1.47 1.09 0.76 o
-6 6 4 41.55 36.09 1.04 o
-5 6 4 70.34 67.30 1.16 o
-4 6 4 171.91 166.14 1.86 o
-3 6 4 0.15 0.59 0.32 o
-2 6 4 211.62 230.92 2.02 o
-1 6 4 235.06 241.43 2.17 o
0 6 4 294.64 339.01 2.78 o
1 6 4 42.49 56.62 0.60 o
2 6 4 289.43 283.71 2.36 o
3 6 4 13.70 11.71 0.30 o
4 6 4 11.15 10.07 0.32 o
5 6 4 255.00 229.33 1.73 o
6 6 4 36.99 40.55 0.71 o
7 6 4 19.08 14.34 0.50 o
8 6 4 30.05 28.36 0.70 o
9 6 4 17.05 17.15 0.88 o
10 6 4 3.03 2.50 0.98 o
11 6 4 8.93 8.31 1.26 o
12 6 4 2.42 0.37 1.29 o
13 6 4 1.62 2.47 2.09 o
-10 7 4 0.03 3.80 1.84 o
-9 7 4 0.02 1.17 1.28 o
-8 7 4 0.84 2.12 1.06 o
-7 7 4 1.77 2.30 0.87 o
-6 7 4 3.44 5.20 0.74 o
-5 7 4 22.59 23.88 0.90 o
-4 7 4 16.30 14.90 0.73 o
-3 7 4 13.83 11.73 0.51 o
-2 7 4 0.40 0.22 0.29 o
-1 7 4 37.18 35.11 0.67 o
0 7 4 7.94 10.15 0.40 o
1 7 4 97.36 91.39 0.89 o
2 7 4 22.56 23.71 0.38 o
3 7 4 214.01 218.97 1.87 o
4 7 4 242.88 248.05 1.91 o
5 7 4 1.41 2.53 0.24 o
6 7 4 32.25 36.74 0.54 o
7 7 4 1.28 2.58 0.31 o
8 7 4 3.96 5.83 0.54 o
9 7 4 63.09 59.78 1.17 o
10 7 4 1.43 0.37 0.85 o
11 7 4 15.68 16.67 1.20 o
12 7 4 0.65 0.05 1.20 o
13 7 4 5.48 5.10 2.23 o
-9 8 4 1.34 2.99 1.66 o
-8 8 4 0.64 2.98 1.36 o
-7 8 4 4.77 5.90 1.14 o
-6 8 4 0.44 1.27 0.72 o
-5 8 4 10.41 11.83 0.73 o
-4 8 4 0.01 -0.35 0.47 o
-3 8 4 76.51 72.31 1.15 o
-2 8 4 54.06 58.46 0.91 o
-1 8 4 10.67 14.14 0.52 o
0 8 4 29.14 27.93 0.53 o
1 8 4 60.31 59.67 0.69 o
2 8 4 30.96 30.95 0.47 o
3 8 4 120.54 120.73 1.18 o
4 8 4 0.71 0.69 0.18 o
5 8 4 139.95 139.43 1.32 o
6 8 4 39.91 35.76 0.60 o
7 8 4 48.36 42.83 0.63 o
8 8 4 1.03 2.02 0.42 o
9 8 4 11.56 10.18 0.66 o
10 8 4 17.94 19.06 1.34 o
11 8 4 0.77 -0.82 1.01 o
12 8 4 0.05 -0.50 1.23 o
13 8 4 0.58 0.99 2.29 o
-9 9 4 0.70 0.33 3.30 o
-8 9 4 0.50 1.98 1.90 o
-7 9 4 0.55 -0.48 1.14 o
-6 9 4 11.17 10.85 1.18 o
-5 9 4 1.15 0.86 0.66 o
-4 9 4 1.15 1.82 0.57 o
-3 9 4 28.87 26.12 0.86 o
-2 9 4 1.14 0.75 0.37 o
-1 9 4 0.15 -0.27 0.27 o
0 9 4 0.36 -0.22 0.22 o
1 9 4 89.01 84.44 1.01 o
2 9 4 338.43 368.77 2.79 o
3 9 4 264.20 255.38 2.22 o
4 9 4 0.32 0.08 0.25 o
5 9 4 209.06 206.43 1.76 o
6 9 4 34.80 33.27 0.67 o
7 9 4 79.79 75.39 1.01 o
8 9 4 81.61 85.42 1.11 o
9 9 4 0.07 0.64 0.45 o
10 9 4 5.28 4.92 0.62 o
11 9 4 2.23 0.54 1.20 o
12 9 4 0.95 0.28 1.52 o
13 9 4 3.92 8.33 2.34 o
-8 10 4 0.08 4.77 2.82 o
-7 10 4 0.06 0.99 1.64 o
-6 10 4 0.84 0.81 1.24 o
-5 10 4 10.38 13.90 0.99 o
-4 10 4 19.22 19.57 1.21 o
-3 10 4 11.36 10.66 0.71 o
-2 10 4 27.27 26.83 0.83 o
-1 10 4 10.54 12.81 0.68 o
0 10 4 1.12 0.61 0.40 o
1 10 4 18.30 23.27 0.73 o
2 10 4 207.55 180.52 1.68 o
3 10 4 165.54 146.08 1.44 o
4 10 4 132.27 114.34 1.28 o
5 10 4 41.54 35.85 0.76 o
6 10 4 42.45 36.66 0.67 o
7 10 4 2.71 1.98 0.33 o
8 10 4 27.02 24.00 0.93 o
9 10 4 6.97 8.05 0.62 o
10 10 4 0.01 0.14 0.68 o
11 10 4 1.31 0.55 1.05 o
12 10 4 0.17 3.84 1.91 o
13 10 4 1.51 7.83 2.37 o
-7 11 4 1.16 5.25 2.22 o
-6 11 4 1.27 1.01 2.00 o
-5 11 4 0.25 -0.14 1.38 o
-4 11 4 0.35 0.92 0.85 o
-3 11 4 19.64 18.60 1.00 o
-2 11 4 6.58 7.57 0.62 o
-1 11 4 52.68 49.99 1.08 o
0 11 4 0.09 -0.40 0.40 o
1 11 4 5.22 6.37 0.52 o
2 11 4 26.65 26.12 0.81 o
3 11 4 2.17 3.45 0.33 o
4 11 4 61.61 55.52 0.87 o
5 11 4 6.25 7.48 0.51 o
6 11 4 46.43 39.78 1.54 o
7 11 4 33.00 30.26 0.68 o
8 11 4 4.00 2.81 0.47 o
9 11 4 12.24 13.14 0.86 o
10 11 4 0.00 0.96 0.75 o
11 11 4 1.55 2.33 1.79 o
12 11 4 0.97 3.52 1.85 o
13 11 4 0.07 5.51 4.53 o
-7 12 4 0.66 0.89 3.09 o
-6 12 4 2.35 5.48 2.51 o
-5 12 4 0.13 0.40 1.64 o
-4 12 4 6.22 4.63 1.35 o
-3 12 4 0.22 0.40 0.99 o
-2 12 4 2.58 1.79 0.91 o
-1 12 4 0.13 0.44 0.61 o
0 12 4 60.38 58.87 1.31 o
1 12 4 0.09 -0.39 0.50 o
2 12 4 12.18 14.31 0.75 o
3 12 4 43.33 36.47 1.18 o
4 12 4 1.10 1.09 0.39 o
5 12 4 39.56 33.25 1.00 o
6 12 4 4.73 4.89 0.49 o
7 12 4 14.15 12.29 0.85 o
8 12 4 1.16 0.69 0.69 o
9 12 4 8.20 7.65 0.88 o
10 12 4 0.31 -0.93 0.93 o
11 12 4 3.98 3.69 1.49 o
12 12 4 0.18 -1.68 4.46 o
13 12 4 0.01 2.95 3.53 o
-6 13 4 0.92 0.18 4.24 o
-5 13 4 1.85 1.28 1.98 o
-4 13 4 2.69 5.45 1.88 o
-3 13 4 11.95 15.64 1.30 o
-2 13 4 13.97 12.40 1.10 o
-1 13 4 2.80 3.23 0.87 o
0 13 4 9.29 8.81 0.96 o
1 13 4 16.08 16.55 0.87 o
2 13 4 16.89 18.19 0.87 o
3 13 4 44.46 43.92 1.28 o
4 13 4 1.10 0.79 0.59 o
5 13 4 23.49 21.71 1.03 o
6 13 4 20.40 20.81 1.58 o
7 13 4 18.36 18.14 1.51 o
8 13 4 46.29 45.06 1.75 o
9 13 4 2.80 2.38 0.98 o
10 13 4 5.75 6.29 1.53 o
11 13 4 0.24 -1.67 1.67 o
12 13 4 0.05 1.82 2.94 o
-5 14 4 0.00 0.33 2.19 o
-4 14 4 0.69 1.53 1.72 o
-3 14 4 1.81 1.80 1.41 o
-2 14 4 0.06 0.42 2.22 o
-1 14 4 4.94 5.55 1.28 o
0 14 4 31.14 32.24 1.70 o
1 14 4 0.76 1.66 0.84 o
2 14 4 42.01 43.20 1.26 o
3 14 4 30.58 30.74 1.34 o
4 14 4 36.08 39.14 1.46 o
5 14 4 19.20 18.12 1.72 o
6 14 4 1.61 1.94 1.13 o
7 14 4 8.22 9.46 1.46 o
8 14 4 8.01 6.51 1.46 o
9 14 4 1.92 2.77 2.54 o
10 14 4 2.33 1.87 1.92 o
11 14 4 3.07 2.60 2.28 o
12 14 4 0.49 1.67 4.35 o
-4 15 4 0.42 -1.74 4.56 o
-3 15 4 2.64 0.89 1.75 o
-2 15 4 0.44 -1.50 1.68 o
-1 15 4 0.20 -1.52 1.52 o
0 15 4 0.02 0.20 1.40 o
1 15 4 0.29 0.43 1.13 o
2 15 4 20.52 20.25 1.65 o
3 15 4 1.17 2.02 1.16 o
4 15 4 18.76 19.39 1.53 o
5 15 4 0.09 -0.50 1.09 o
6 15 4 13.19 14.00 3.12 o
7 15 4 5.43 6.10 2.02 o
8 15 4 1.00 0.87 3.13 o
9 15 4 6.34 8.13 1.87 o
10 15 4 0.15 1.01 2.51 o
11 15 4 1.87 1.32 2.79 o
-3 16 4 1.11 3.73 3.09 o
-2 16 4 0.99 2.03 1.85 o
-1 16 4 0.11 1.89 1.61 o
0 16 4 0.07 -1.66 1.66 o
1 16 4 0.17 -0.49 1.67 o
2 16 4 2.91 2.08 1.36 o
3 16 4 19.90 17.57 1.58 o
4 16 4 0.06 -0.64 1.51 o
5 16 4 7.48 11.39 1.84 o
6 16 4 5.60 11.45 1.92 o
7 16 4 9.09 7.57 2.15 o
8 16 4 0.11 -0.44 2.03 o
9 16 4 0.08 0.04 1.92 o
10 16 4 0.04 1.95 2.99 o
11 16 4 0.24 0.41 3.51 o
-1 17 4 0.06 1.78 2.71 o
0 17 4 1.03 2.77 2.22 o
1 17 4 0.27 -0.16 2.24 o
2 17 4 0.87 1.46 2.40 o
3 17 4 1.77 -1.51 3.29 o
4 17 4 0.00 -0.66 2.71 o
5 17 4 1.94 2.55 2.79 o
6 17 4 3.24 1.48 2.21 o
7 17 4 0.89 2.83 2.30 o
8 17 4 6.47 7.39 2.74 o
9 17 4 0.25 -0.64 3.48 o
10 17 4 2.00 12.49 5.57 o
0 18 4 0.00 -0.61 3.32 o
1 18 4 0.93 -0.37 2.84 o
2 18 4 0.40 -0.04 2.71 o
3 18 4 0.11 4.91 3.60 o
4 18 4 0.19 0.64 3.42 o
5 18 4 0.36 1.15 3.39 o
6 18 4 4.76 8.87 5.41 o
7 18 4 1.19 0.33 3.62 o
8 18 4 2.31 0.65 3.87 o
9 18 4 0.64 3.62 4.19 o
3 19 4 0.00 4.40 6.86 o
4 19 4 0.44 2.97 4.28 o
5 19 4 0.09 10.02 4.25 o
6 19 4 0.18 7.18 4.19 o
-7 -18 5 0.08 -2.94 2.94 o
-6 -18 5 1.42 -2.61 2.61 o
-5 -18 5 0.20 2.23 3.91 o
-4 -18 5 0.04 4.30 3.12 o
-3 -18 5 1.51 -2.17 2.26 o
-2 -18 5 0.80 -2.35 2.35 o
-8 -17 5 0.17 -3.13 3.13 o
-7 -17 5 2.29 2.24 3.02 o
-6 -17 5 0.52 -0.82 2.07 o
-5 -17 5 0.01 0.87 1.97 o
-4 -17 5 3.47 7.29 3.17 o
-3 -17 5 0.00 1.31 2.29 o
-2 -17 5 2.03 4.11 1.99 o
-1 -17 5 4.28 5.05 2.13 o
0 -17 5 2.59 5.60 2.26 o
1 -17 5 0.18 2.74 4.15 o
-10 -16 5 0.11 3.97 2.84 o
-9 -16 5 0.09 0.35 2.35 o
-8 -16 5 0.27 -1.80 2.12 o
-7 -16 5 0.19 1.40 1.95 o
-6 -16 5 0.17 -0.94 1.72 o
-5 -16 5 0.05 5.03 2.21 o
-4 -16 5 0.41 -0.47 1.56 o
-3 -16 5 5.79 6.71 1.64 o
-2 -16 5 1.32 1.64 1.62 o
-1 -16 5 0.00 5.62 1.75 o
0 -16 5 11.73 17.04 2.29 o
1 -16 5 0.13 5.80 2.45 o
2 -16 5 0.94 -2.57 2.57 o
-10 -15 5 1.11 4.26 2.40 o
-9 -15 5 0.07 0.20 2.00 o
-8 -15 5 1.23 0.02 1.64 o
-7 -15 5 0.36 -1.20 1.34 o
-6 -15 5 2.42 1.68 1.46 o
-5 -15 5 0.44 1.09 1.50 o
-4 -15 5 0.56 0.66 1.62 o
-3 -15 5 1.22 4.28 1.65 o
-2 -15 5 0.74 2.77 1.48 o
-1 -15 5 15.39 17.18 1.47 o
0 -15 5 0.21 2.57 1.32 o
1 -15 5 5.68 10.70 1.57 o
2 -15 5 5.37 4.98 1.96 o
3 -15 5 0.16 0.02 2.35 o
4 -15 5 1.90 3.29 2.04 o
-11 -14 5 5.84 8.95 2.22 o
-10 -14 5 0.38 0.94 3.06 o
-9 -14 5 0.83 1.38 1.80 o
-8 -14 5 1.44 1.55 1.42 o
-7 -14 5 4.05 4.52 1.44 o
-6 -14 5 4.54 6.12 1.56 o
-5 -14 5 25.49 31.69 1.67 o
-4 -14 5 0.78 2.99 1.10 o
-3 -14 5 4.00 4.06 1.14 o
-2 -14 5 0.02 0.08 0.89 o
-1 -14 5 1.26 2.21 1.00 o
0 -14 5 12.39 13.88 2.06 o
1 -14 5 0.68 1.63 1.64 o
2 -14 5 0.25 1.67 1.31 o
3 -14 5 4.24 3.21 1.50 o
4 -14 5 0.57 -0.91 1.83 o
5 -14 5 0.14 -0.80 2.22 o
-11 -13 5 0.35 -2.19 2.19 o
-10 -13 5 0.38 0.03 1.98 o
-9 -13 5 0.05 0.73 1.41 o
-8 -13 5 0.78 1.07 1.32 o
-7 -13 5 0.39 -0.18 1.02 o
-6 -13 5 0.02 -0.46 0.72 o
-5 -13 5 14.88 15.45 1.13 o
-4 -13 5 10.47 11.57 1.16 o
-3 -13 5 55.59 58.57 2.12 o
-2 -13 5 12.04 13.32 0.98 o
-1 -13 5 13.34 13.88 1.43 o
0 -13 5 0.00 -0.22 1.05 o
1 -13 5 6.44 9.28 1.01 o
2 -13 5 0.56 1.60 1.36 o
3 -13 5 6.26 8.76 1.26 o
4 -13 5 0.22 -0.07 1.31 o
5 -13 5 0.25 -0.55 1.63 o
6 -13 5 0.01 -1.10 2.43 o
-12 -12 5 4.03 5.27 3.11 o
-11 -12 5 2.86 2.19 2.27 o
-10 -12 5 2.81 -1.78 1.78 o
-9 -12 5 13.65 12.80 1.74 o
-8 -12 5 0.11 -0.94 0.94 o
-7 -12 5 6.89 3.20 0.88 o
-6 -12 5 0.09 -0.62 0.62 o
-5 -12 5 0.01 -0.27 0.60 o
-4 -12 5 3.15 2.19 0.64 o
-3 -12 5 7.89 8.16 0.85 o
-2 -12 5 24.77 29.83 1.49 o
-1 -12 5 0.33 -0.35 0.80 o
0 -12 5 27.48 27.76 1.34 o
1 -12 5 0.19 0.34 0.79 o
2 -12 5 0.28 0.62 0.92 o
3 -12 5 5.05 5.21 1.45 o
4 -12 5 6.14 10.14 1.40 o
5 -12 5 5.52 5.80 1.42 o
6 -12 5 0.62 -1.36 1.87 o
7 -12 5 0.78 8.00 3.45 o
-12 -11 5 1.22 1.92 2.00 o
-11 -11 5 6.48 4.92 2.28 o
-10 -11 5 0.88 3.45 1.25 o
-9 -11 5 12.49 12.32 1.09 o
-8 -11 5 0.93 -0.48 1.07 o
-7 -11 5 23.76 24.35 1.14 o
-6 -11 5 2.84 2.85 0.60 o
-5 -11 5 0.01 0.55 0.53 o
-4 -11 5 4.78 3.36 0.56 o
-3 -11 5 45.84 48.39 1.02 o
-2 -11 5 0.39 0.22 0.37 o
-1 -11 5 92.08 95.82 1.67 o
0 -11 5 6.89 8.74 0.71 o
1 -11 5 14.97 13.54 0.72 o
2 -11 5 11.31 13.26 0.77 o
3 -11 5 0.43 0.10 0.83 o
4 -11 5 0.04 -1.12 1.12 o
5 -11 5 0.06 -0.31 1.11 o
6 -11 5 6.45 6.01 1.75 o
7 -11 5 0.24 -0.92 2.02 o
-12 -10 5 0.59 -2.42 2.68 o
-11 -10 5 6.16 7.80 1.63 o
-10 -10 5 9.58 8.29 1.61 o
-9 -10 5 0.12 0.46 0.75 o
-8 -10 5 12.81 10.90 0.87 o
-7 -10 5 7.87 6.96 0.53 o
-6 -10 5 16.72 14.83 0.78 o
-5 -10 5 24.69 23.40 0.90 o
-4 -10 5 6.82 8.79 0.54 o
-3 -10 5 12.97 14.81 0.67 o
-2 -10 5 2.33 2.92 0.37 o
-1 -10 5 74.15 68.12 0.92 o
0 -10 5 43.83 41.90 1.07 o
1 -10 5 20.33 18.36 0.64 o
2 -10 5 9.38 9.43 0.77 o
3 -10 5 3.52 4.50 0.77 o
4 -10 5 0.01 0.09 0.79 o
5 -10 5 0.66 -0.05 1.30 o
6 -10 5 0.07 -0.86 1.18 o
7 -10 5 0.84 0.01 1.52 o
8 -10 5 1.38 0.79 2.06 o
-13 -9 5 1.56 9.71 4.07 o
-12 -9 5 0.01 -1.12 2.55 o
-11 -9 5 0.01 2.24 1.36 o
-10 -9 5 1.94 2.32 0.99 o
-9 -9 5 2.68 2.35 0.70 o
-8 -9 5 34.87 36.90 1.08 o
-7 -9 5 30.94 31.57 0.97 o
-6 -9 5 23.11 20.48 0.74 o
-5 -9 5 55.74 54.17 1.12 o
-4 -9 5 68.89 78.31 1.18 o
-3 -9 5 67.27 61.84 0.87 o
-2 -9 5 55.24 56.09 0.78 o
-1 -9 5 50.89 49.70 0.76 o
0 -9 5 19.09 17.89 0.64 o
1 -9 5 0.06 0.51 0.30 o
2 -9 5 7.93 6.50 0.48 o
3 -9 5 6.62 6.05 0.53 o
4 -9 5 0.85 0.84 0.61 o
5 -9 5 9.49 10.26 0.84 o
6 -9 5 0.97 -0.08 1.22 o
7 -9 5 0.41 0.43 1.17 o
8 -9 5 0.07 -0.25 1.53 o
9 -9 5 0.30 2.26 3.00 o
-13 -8 5 0.01 -2.08 3.53 o
-12 -8 5 3.78 4.98 1.95 o
-11 -8 5 18.26 19.29 1.93 o
-10 -8 5 13.89 15.34 1.14 o
-9 -8 5 12.53 11.77 0.93 o
-8 -8 5 21.79 22.63 1.06 o
-7 -8 5 181.10 154.86 1.86 o
-6 -8 5 14.73 16.37 0.59 o
-5 -8 5 32.48 28.26 0.62 o
-4 -8 5 16.14 16.35 0.64 o
-3 -8 5 12.33 14.63 0.54 o
-2 -8 5 0.75 3.04 0.32 o
-1 -8 5 41.86 40.48 0.65 o
0 -8 5 23.62 18.48 0.49 o
1 -8 5 0.74 0.59 0.27 o
2 -8 5 1.38 0.66 0.31 o
3 -8 5 2.72 1.57 0.43 o
4 -8 5 7.26 5.73 0.68 o
5 -8 5 4.94 6.37 0.62 o
6 -8 5 0.07 0.56 0.69 o
7 -8 5 2.32 1.89 1.35 o
8 -8 5 0.03 2.22 1.26 o
9 -8 5 0.08 1.06 1.81 o
-13 -7 5 2.11 1.06 2.95 o
-12 -7 5 0.02 0.47 1.90 o
-11 -7 5 25.56 25.99 2.36 o
-10 -7 5 10.10 8.43 1.11 o
-9 -7 5 51.33 50.63 1.31 o
-8 -7 5 49.62 48.50 1.35 o
-7 -7 5 50.04 51.53 1.07 o
-6 -7 5 99.59 96.02 1.28 o
-5 -7 5 20.87 21.46 0.59 o
-4 -7 5 43.65 46.35 0.63 o
-3 -7 5 21.72 29.37 0.59 o
-2 -7 5 1.19 0.23 0.22 o
-1 -7 5 24.44 24.47 0.51 o
0 -7 5 11.22 10.91 0.39 o
1 -7 5 3.28 2.28 0.29 o
2 -7 5 35.57 30.66 0.66 o
3 -7 5 0.62 0.07 0.45 o
4 -7 5 37.92 38.18 1.13 o
5 -7 5 3.07 3.19 0.59 o
6 -7 5 2.18 0.64 0.63 o
7 -7 5 2.05 2.10 0.96 o
8 -7 5 4.90 3.86 1.34 o
9 -7 5 0.12 -1.43 1.43 o
10 -7 5 0.06 0.48 1.97 o
-13 -6 5 2.78 6.03 3.50 o
-12 -6 5 3.06 5.38 1.94 o
-11 -6 5 0.02 -0.64 1.24 o
-10 -6 5 2.89 2.73 0.99 o
-9 -6 5 31.68 28.94 1.26 o
-8 -6 5 52.70 48.32 1.20 o
-7 -6 5 13.50 10.17 0.67 o
-6 -6 5 37.88 25.47 0.76 o
-5 -6 5 47.06 51.57 0.76 o
-4 -6 5 108.97 106.06 0.97 o
-3 -6 5 92.44 96.92 0.82 o
-2 -6 5 53.92 44.96 0.54 o
-1 -6 5 15.81 21.78 0.41 o
0 -6 5 14.11 11.06 0.36 o
1 -6 5 7.80 10.17 0.39 o
2 -6 5 1.63 1.31 0.27 o
3 -6 5 6.07 5.32 0.37 o
4 -6 5 8.17 5.80 0.41 o
5 -6 5 41.44 39.84 1.04 o
6 -6 5 22.34 21.87 1.00 o
7 -6 5 10.74 11.67 0.80 o
8 -6 5 18.32 21.04 2.10 o
9 -6 5 1.44 1.13 1.25 o
10 -6 5 0.62 1.52 1.61 o
-13 -5 5 0.32 6.07 6.74 o
-12 -5 5 0.06 -1.83 2.22 o
-11 -5 5 8.49 5.86 1.48 o
-10 -5 5 1.66 1.98 0.84 o
-9 -5 5 14.40 14.50 0.85 o
-8 -5 5 65.16 66.11 1.07 o
-7 -5 5 114.74 109.10 1.32 o
-6 -5 5 75.93 74.22 1.24 o
-5 -5 5 41.15 46.98 0.85 o
-4 -5 5 318.70 305.23 2.29 o
-3 -5 5 388.80 423.45 2.95 o
-2 -5 5 197.19 225.06 1.81 o
-1 -5 5 465.35 481.97 3.47 o
0 -5 5 20.55 14.25 0.35 o
1 -5 5 0.02 0.31 0.16 o
2 -5 5 581.56 553.16 4.41 o
3 -5 5 315.90 314.77 2.69 o
4 -5 5 4.77 5.17 0.47 o
5 -5 5 77.78 79.31 1.17 o
6 -5 5 0.00 -0.31 0.46 o
7 -5 5 37.33 35.28 1.15 o
8 -5 5 0.88 3.40 0.81 o
9 -5 5 0.01 -0.28 0.98 o
10 -5 5 0.90 1.44 1.43 o
11 -5 5 0.01 -0.82 2.14 o
-13 -4 5 1.80 1.35 5.80 o
-12 -4 5 0.92 0.84 2.11 o
-11 -4 5 2.43 3.83 1.19 o
-10 -4 5 0.35 1.41 0.72 o
-9 -4 5 84.89 73.41 1.35 o
-8 -4 5 0.13 0.73 0.41 o
-7 -4 5 158.01 154.56 1.43 o
-6 -4 5 12.77 11.86 0.43 o
-5 -4 5 13.87 10.13 0.55 o
-4 -4 5 92.66 98.50 0.97 o
-3 -4 5 125.09 105.90 0.83 o
-2 -4 5 13.46 14.67 0.23 o
-1 -4 5 6.91 3.70 0.16 o
0 -4 5 370.84 390.19 2.56 o
1 -4 5 7.97 5.27 0.30 o
2 -4 5 443.75 445.27 3.26 o
3 -4 5 332.21 316.03 2.66 o
4 -4 5 30.86 32.43 0.69 o
5 -4 5 59.46 57.89 1.30 o
6 -4 5 5.72 6.88 0.54 o
7 -4 5 0.20 1.41 0.56 o
8 -4 5 49.14 52.41 1.34 o
9 -4 5 7.85 5.95 1.04 o
10 -4 5 1.62 1.97 2.63 o
11 -4 5 0.02 0.29 1.90 o
-13 -3 5 2.17 0.18 3.48 o
-12 -3 5 0.04 0.61 3.40 o
-11 -3 5 1.50 0.12 1.35 o
-10 -3 5 6.21 7.23 0.80 o
-9 -3 5 20.10 19.26 0.92 o
-8 -3 5 50.39 49.29 1.07 o
-7 -3 5 0.04 1.35 0.34 o
-6 -3 5 12.24 15.09 0.38 o
-5 -3 5 9.77 9.90 0.40 o
-4 -3 5 895.91 900.84 6.66 o
-3 -3 5 195.94 187.63 1.43 o
-2 -3 5 569.05 605.44 3.86 o
-1 -3 5 640.15 645.22 4.22 o
0 -3 5 1886.07 1861.69 11.53 o
1 -3 5 53.20 90.92 0.84 o
2 -3 5 216.23 218.34 1.65 o
3 -3 5 288.07 289.69 2.42 o
4 -3 5 144.00 172.98 1.82 o
5 -3 5 2.82 3.07 0.45 o
6 -3 5 33.15 30.23 0.80 o
7 -3 5 0.52 0.31 0.51 o
8 -3 5 6.31 6.28 0.68 o
9 -3 5 0.02 1.32 0.95 o
10 -3 5 4.85 6.44 1.29 o
11 -3 5 2.04 3.41 2.18 o
12 -3 5 0.41 -0.87 2.28 o
-12 -2 5 0.07 -2.06 2.21 o
-11 -2 5 0.00 1.31 1.29 o
-10 -2 5 17.02 19.85 1.79 o
-9 -2 5 0.00 0.85 0.59 o
-8 -2 5 93.28 77.66 1.29 o
-7 -2 5 108.74 110.54 1.14 o
-6 -2 5 305.91 283.99 2.04 o
-5 -2 5 10.67 9.83 0.28 o
-4 -2 5 15.37 10.37 0.46 o
-3 -2 5 10.90 10.99 0.34 o
-2 -2 5 62.42 69.20 0.58 o
-1 -2 5 141.94 196.08 1.30 o
0 -2 5 65.19 109.80 0.85 o
1 -2 5 80.73 74.61 0.63 o
2 -2 5 23.84 25.96 0.32 o
3 -2 5 116.95 120.68 1.05 o
4 -2 5 25.33 27.03 0.62 o
5 -2 5 60.41 60.83 1.11 o
6 -2 5 132.30 127.68 1.52 o
7 -2 5 2.62 2.55 0.55 o
8 -2 5 4.32 6.87 0.70 o
9 -2 5 13.40 11.28 0.83 o
10 -2 5 0.88 1.41 0.95 o
11 -2 5 0.78 -1.35 1.35 o
12 -2 5 0.57 -0.80 2.07 o
-12 -1 5 1.03 3.11 2.74 o
-11 -1 5 6.94 8.92 1.62 o
-10 -1 5 4.89 2.68 1.03 o
-9 -1 5 8.01 9.54 0.75 o
-8 -1 5 31.49 33.10 0.85 o
-7 -1 5 0.96 1.06 0.32 o
-6 -1 5 241.21 240.12 1.87 o
-5 -1 5 15.11 13.78 0.32 o
-4 -1 5 71.16 62.59 0.69 o
-3 -1 5 892.80 1031.69 8.69 o
-2 -1 5 1008.84 925.75 10.04 o
-1 -1 5 45.11 29.69 0.33 o
0 -1 5 2494.31 2561.09 20.49 o
1 -1 5 512.98 586.68 3.50 o
2 -1 5 0.02 0.35 0.12 o
3 -1 5 3.15 3.95 0.25 o
4 -1 5 201.62 232.68 2.23 o
5 -1 5 71.90 78.61 0.96 o
6 -1 5 0.09 0.45 0.35 o
7 -1 5 10.70 11.01 0.66 o
8 -1 5 0.92 2.58 0.62 o
9 -1 5 1.97 1.03 0.68 o
10 -1 5 0.00 -0.61 1.24 o
11 -1 5 0.51 -0.03 1.54 o
12 -1 5 1.11 4.71 1.96 o
-12 0 5 0.10 6.55 3.50 o
-11 0 5 3.23 2.78 1.62 o
-10 0 5 0.05 -0.89 0.89 o
-9 0 5 61.22 58.89 1.27 o
-8 0 5 3.78 3.97 0.54 o
-7 0 5 3.77 3.23 0.39 o
-6 0 5 28.39 32.00 0.60 o
-5 0 5 28.11 35.17 0.49 o
-4 0 5 1.70 0.48 0.20 o
-3 0 5 133.35 183.35 1.30 o
-2 0 5 168.20 214.92 1.66 o
-1 0 5 205.14 235.92 1.77 o
0 0 5 1068.48 1160.82 9.16 o
1 0 5 350.07 331.14 2.44 o
2 0 5 424.82 496.37 3.17 o
3 0 5 788.92 827.51 5.22 o
4 0 5 11.06 12.82 0.41 o
5 0 5 46.34 39.86 0.64 o
6 0 5 48.65 33.38 0.95 o
7 0 5 14.89 8.98 0.56 o
8 0 5 30.37 35.52 1.07 o
9 0 5 0.06 -0.26 0.80 o
10 0 5 2.19 3.55 0.97 o
11 0 5 2.32 3.12 1.20 o
12 0 5 0.01 -0.83 1.93 o
13 0 5 0.27 1.20 3.14 o
-12 1 5 0.11 1.73 2.44 o
-11 1 5 0.00 2.50 1.42 o
-10 1 5 0.11 0.48 1.06 o
-9 1 5 17.55 15.90 0.86 o
-8 1 5 22.11 25.07 0.97 o
-7 1 5 38.11 43.07 0.96 o
-6 1 5 115.93 99.98 1.05 o
-5 1 5 66.73 72.93 0.82 o
-4 1 5 121.41 114.57 1.01 o
-3 1 5 1825.74 1890.60 12.58 o
-2 1 5 235.07 266.29 1.92 o
-1 1 5 4743.46 4436.36 44.46 o
0 1 5 175.01 260.80 1.86 o
1 1 5 79.12 87.87 0.68 o
2 1 5 92.34 106.37 0.79 o
3 1 5 23.36 34.57 0.35 o
4 1 5 25.32 29.10 0.40 o
5 1 5 0.13 0.55 0.21 o
6 1 5 90.82 87.26 1.07 o
7 1 5 0.38 0.37 0.41 o
8 1 5 14.12 10.78 0.74 o
9 1 5 18.61 19.15 1.24 o
10 1 5 0.00 -0.41 0.87 o
11 1 5 7.20 6.82 1.19 o
12 1 5 0.89 -0.79 1.57 o
13 1 5 0.02 -2.28 2.28 o
-12 2 5 0.16 -1.36 3.97 o
-11 2 5 2.25 3.98 1.69 o
-10 2 5 0.25 0.78 1.20 o
-9 2 5 0.23 0.21 0.71 o
-8 2 5 34.08 30.77 1.08 o
-7 2 5 34.94 32.01 0.92 o
-6 2 5 58.84 55.53 0.96 o
-5 2 5 35.46 46.13 0.76 o
-4 2 5 55.76 58.76 0.69 o
-3 2 5 4.80 8.83 0.29 o
-2 2 5 43.65 63.52 0.59 o
-1 2 5 8.53 19.96 0.32 o
0 2 5 43.24 56.77 0.49 o
1 2 5 1048.39 1120.55 10.30 o
2 2 5 530.70 557.76 3.61 o
3 2 5 76.34 69.92 0.52 o
4 2 5 22.69 27.65 0.35 o
5 2 5 0.53 0.23 0.16 o
6 2 5 38.00 41.30 0.66 o
7 2 5 11.95 8.95 0.64 o
8 2 5 0.44 0.93 0.59 o
9 2 5 0.30 0.92 0.72 o
10 2 5 0.73 0.01 0.87 o
11 2 5 3.37 4.68 1.16 o
12 2 5 3.81 0.83 2.58 o
13 2 5 0.66 1.26 3.52 o
-11 3 5 0.71 3.29 2.99 o
-10 3 5 3.09 3.76 1.20 o
-9 3 5 0.02 0.40 0.83 o
-8 3 5 3.93 2.82 0.68 o
-7 3 5 6.22 4.92 0.55 o
-6 3 5 2.68 4.37 0.52 o
-5 3 5 143.18 129.03 1.60 o
-4 3 5 19.00 13.27 0.50 o
-3 3 5 287.87 319.63 2.63 o
-2 3 5 44.73 63.30 0.75 o
-1 3 5 144.72 132.63 0.98 o
0 3 5 1537.42 1527.81 9.81 o
1 3 5 88.92 92.83 0.79 o
2 3 5 18.50 11.24 0.23 o
3 3 5 13.26 15.62 0.27 o
4 3 5 224.20 237.90 1.79 o
5 3 5 1.73 3.47 0.22 o
6 3 5 55.32 51.43 0.65 o
7 3 5 12.46 12.57 0.60 o
8 3 5 9.03 8.55 1.00 o
9 3 5 2.93 2.83 0.72 o
10 3 5 5.27 4.16 0.92 o
11 3 5 1.02 1.63 1.36 o
12 3 5 8.42 6.86 1.60 o
13 3 5 0.13 -1.54 2.08 o
-11 4 5 1.53 1.62 1.95 o
-10 4 5 3.55 2.65 1.82 o
-9 4 5 2.81 2.39 0.89 o
-8 4 5 1.70 1.18 0.70 o
-7 4 5 49.51 44.82 1.02 o
-6 4 5 10.26 8.61 0.63 o
-5 4 5 53.56 51.24 1.04 o
-4 4 5 89.37 97.32 1.59 o
-3 4 5 60.00 73.13 0.88 o
-2 4 5 45.62 26.33 0.57 o
-1 4 5 738.10 763.72 6.19 o
0 4 5 414.55 453.39 2.76 o
1 4 5 49.52 41.06 0.46 o
2 4 5 238.36 240.69 1.54 o
3 4 5 327.95 336.10 2.17 o
4 4 5 392.13 435.03 4.67 o
5 4 5 327.66 353.88 2.91 o
6 4 5 25.57 25.51 0.75 o
7 4 5 40.65 39.32 0.68 o
8 4 5 18.82 18.43 0.62 o
9 4 5 2.37 3.15 1.06 o
10 4 5 23.93 31.01 2.32 o
11 4 5 7.13 8.20 1.69 o
12 4 5 1.63 2.28 1.42 o
13 4 5 1.37 0.03 2.25 o
-11 5 5 1.71 5.56 2.59 o
-10 5 5 0.07 2.78 1.90 o
-9 5 5 1.36 1.08 1.21 o
-8 5 5 0.44 1.90 0.78 o
-7 5 5 5.99 5.13 0.68 o
-6 5 5 0.01 -0.53 0.53 o
-5 5 5 14.99 12.08 0.63 o
-4 5 5 11.39 14.40 0.55 o
-3 5 5 541.97 481.40 4.37 o
-2 5 5 367.64 387.36 3.55 o
-1 5 5 133.17 121.18 1.34 o
0 5 5 88.67 88.88 0.76 o
1 5 5 389.23 363.68 2.31 o
2 5 5 0.06 0.09 0.22 o
3 5 5 52.78 59.98 0.64 o
4 5 5 262.50 272.84 2.42 o
5 5 5 109.69 109.77 1.24 o
6 5 5 457.93 440.60 3.81 o
7 5 5 19.29 17.35 0.56 o
8 5 5 15.05 11.90 0.52 o
9 5 5 2.80 2.92 0.74 o
10 5 5 2.07 3.48 1.00 o
11 5 5 3.50 3.04 1.23 o
12 5 5 5.95 6.97 1.49 o
13 5 5 0.77 2.95 2.07 o
-10 6 5 0.92 1.32 1.73 o
-9 6 5 0.05 0.69 1.19 o
-8 6 5 1.82 2.99 1.18 o
-7 6 5 15.50 17.09 0.94 o
-6 6 5 26.78 24.88 1.07 o
-5 6 5 15.44 17.47 0.77 o
-4 6 5 49.71 47.66 0.84 o
-3 6 5 3.49 5.61 0.41 o
-2 6 5 115.02 109.16 1.27 o
-1 6 5 318.81 303.87 2.54 o
0 6 5 318.01 350.24 4.05 o
1 6 5 264.57 276.00 1.99 o
2 6 5 107.36 114.07 1.06 o
3 6 5 373.42 341.70 3.44 o
4 6 5 781.45 783.11 7.26 o
5 6 5 0.29 0.73 0.27 o
6 6 5 48.60 48.05 0.93 o
7 6 5 1.37 1.98 0.36 o
8 6 5 5.13 5.17 0.48 o
9 6 5 15.15 16.15 0.76 o
10 6 5 16.18 15.96 1.18 o
11 6 5 1.88 1.89 1.16 o
12 6 5 7.22 6.15 1.44 o
13 6 5 0.31 2.28 2.30 o
-10 7 5 0.52 4.09 2.98 o
-9 7 5 1.35 1.83 1.55 o
-8 7 5 0.70 1.57 1.04 o
-7 7 5 1.32 0.88 0.85 o
-6 7 5 0.09 -0.65 0.65 o
-5 7 5 16.94 16.09 0.81 o
-4 7 5 9.44 7.65 0.59 o
-3 7 5 8.82 9.69 0.53 o
-2 7 5 455.68 415.35 3.63 o
-1 7 5 308.09 340.65 3.40 o
0 7 5 1009.96 1038.02 10.11 o
1 7 5 20.30 21.68 0.52 o
2 7 5 90.10 80.73 0.90 o
3 7 5 18.80 17.46 0.38 o
4 7 5 51.07 47.63 0.81 o
5 7 5 135.80 134.03 1.39 o
6 7 5 181.77 191.75 2.04 o
7 7 5 2.24 1.30 0.32 o
8 7 5 0.33 -0.04 0.42 o
9 7 5 7.90 7.26 0.55 o
10 7 5 15.43 16.17 1.38 o
11 7 5 0.02 0.65 1.31 o
12 7 5 0.14 -1.07 1.24 o
13 7 5 1.72 2.50 2.31 o
-9 8 5 0.70 1.26 2.03 o
-8 8 5 0.61 -1.40 1.40 o
-7 8 5 0.67 0.96 1.00 o
-6 8 5 9.78 10.63 0.93 o
-5 8 5 2.13 2.02 0.62 o
-4 8 5 6.59 7.11 0.60 o
-3 8 5 14.66 13.54 0.68 o
-2 8 5 24.65 28.08 0.71 o
-1 8 5 0.90 0.96 0.36 o
0 8 5 8.03 7.67 0.67 o
1 8 5 5.86 6.33 0.33 o
2 8 5 99.10 111.85 1.25 o
3 8 5 281.74 295.12 2.79 o
4 8 5 1.82 0.63 0.30 o
5 8 5 211.60 202.08 1.94 o
6 8 5 102.34 98.36 1.24 o
7 8 5 37.28 35.43 0.60 o
8 8 5 27.44 28.06 0.78 o
9 8 5 1.27 2.05 0.56 o
10 8 5 4.43 6.69 0.99 o
11 8 5 4.16 2.74 1.04 o
12 8 5 0.04 -1.31 1.31 o
13 8 5 0.20 1.62 2.31 o
-9 9 5 0.89 0.33 4.08 o
-8 9 5 0.20 2.85 2.11 o
-7 9 5 1.71 5.58 1.31 o
-6 9 5 0.02 0.07 0.96 o
-5 9 5 5.83 5.96 0.80 o
-4 9 5 2.41 1.41 0.63 o
-3 9 5 0.32 0.56 0.51 o
-2 9 5 23.71 26.51 0.78 o
-1 9 5 95.71 89.38 2.21 o
0 9 5 16.49 17.60 0.68 o
1 9 5 10.86 13.77 0.53 o
2 9 5 33.75 28.78 0.83 o
3 9 5 6.82 6.52 0.52 o
4 9 5 96.03 80.26 1.45 o
5 9 5 5.48 5.44 0.34 o
6 9 5 1.02 0.56 0.34 o
7 9 5 24.25 23.07 0.72 o
8 9 5 71.53 64.99 1.61 o
9 9 5 3.14 1.98 0.54 o
10 9 5 6.91 4.76 0.77 o
11 9 5 3.80 2.77 1.08 o
12 9 5 0.69 1.32 1.37 o
13 9 5 6.51 8.51 2.12 o
-8 10 5 0.71 1.35 2.24 o
-7 10 5 2.17 4.78 2.25 o
-6 10 5 0.07 -1.12 1.62 o
-5 10 5 0.12 0.55 1.20 o
-4 10 5 5.52 3.88 0.74 o
-3 10 5 20.57 21.07 1.14 o
-2 10 5 1.11 0.76 0.49 o
-1 10 5 17.19 17.93 0.76 o
0 10 5 2.97 1.12 0.37 o
1 10 5 21.88 23.54 0.75 o
2 10 5 8.40 10.86 0.71 o
3 10 5 0.01 0.75 0.43 o
4 10 5 238.02 236.89 2.60 o
5 10 5 2.20 2.25 0.43 o
6 10 5 57.54 50.68 1.30 o
7 10 5 22.12 20.78 0.70 o
8 10 5 11.00 12.14 0.82 o
9 10 5 26.04 25.34 1.04 o
10 10 5 0.06 0.02 0.79 o
11 10 5 4.08 5.50 1.22 o
12 10 5 0.40 4.64 1.63 o
13 10 5 2.13 3.58 2.19 o
-7 11 5 0.01 -0.02 2.72 o
-6 11 5 1.97 0.62 1.73 o
-5 11 5 0.19 -1.39 1.39 o
-4 11 5 0.61 0.10 1.13 o
-3 11 5 4.48 3.28 0.99 o
-2 11 5 47.42 46.64 1.18 o
-1 11 5 3.64 3.95 0.70 o
0 11 5 75.75 66.12 1.40 o
1 11 5 0.70 1.52 0.58 o
2 11 5 12.78 11.90 0.65 o
3 11 5 27.46 27.13 1.42 o
4 11 5 25.05 21.37 0.79 o
5 11 5 43.77 34.72 1.02 o
6 11 5 2.79 3.04 0.64 o
7 11 5 57.23 50.25 1.24 o
8 11 5 0.04 -0.06 0.54 o
9 11 5 14.49 12.81 0.85 o
10 11 5 1.81 0.87 0.90 o
11 11 5 3.20 4.95 2.25 o
12 11 5 1.85 4.76 2.31 o
13 11 5 0.04 -4.57 4.57 o
-6 12 5 1.83 5.20 2.06 o
-5 12 5 0.86 1.31 1.62 o
-4 12 5 0.03 0.85 1.28 o
-3 12 5 2.60 2.41 1.16 o
-2 12 5 0.04 0.76 0.82 o
-1 12 5 0.57 -0.04 0.74 o
0 12 5 2.99 3.30 0.74 o
1 12 5 11.47 13.99 0.95 o
2 12 5 46.75 48.60 1.32 o
3 12 5 33.43 32.46 1.07 o
4 12 5 0.32 0.13 0.40 o
5 12 5 34.10 34.55 1.32 o
6 12 5 20.19 20.24 1.06 o
7 12 5 7.68 6.34 0.83 o
8 12 5 36.82 37.45 1.32 o
9 12 5 0.30 -0.28 0.86 o
10 12 5 9.13 11.60 1.50 o
11 12 5 0.02 -2.14 2.14 o
12 12 5 3.14 1.81 2.15 o
13 12 5 0.17 0.46 3.67 o
-6 13 5 1.78 -2.62 2.62 o
-5 13 5 1.80 0.96 2.07 o
-4 13 5 7.85 8.81 1.65 o
-3 13 5 0.03 -0.41 1.16 o
-2 13 5 10.49 11.01 1.20 o
-1 13 5 1.29 1.83 0.89 o
0 13 5 2.02 1.92 0.86 o
1 13 5 6.78 7.00 0.91 o
2 13 5 19.21 15.48 0.99 o
3 13 5 0.92 0.46 0.86 o
4 13 5 9.48 9.01 0.92 o
5 13 5 0.64 -0.64 0.73 o
6 13 5 18.75 18.22 1.09 o
7 13 5 0.00 -0.06 0.86 o
8 13 5 27.44 25.47 1.43 o
9 13 5 4.91 4.57 1.20 o
10 13 5 5.92 8.47 1.36 o
11 13 5 5.07 6.08 1.99 o
12 13 5 0.25 3.40 6.52 o
-5 14 5 0.39 1.98 2.25 o
-4 14 5 0.12 -1.77 1.77 o
-3 14 5 7.05 7.22 1.56 o
-2 14 5 2.29 4.82 1.26 o
-1 14 5 7.39 7.78 1.40 o
0 14 5 13.03 13.95 1.19 o
1 14 5 5.71 4.42 0.98 o
2 14 5 0.64 0.40 0.81 o
3 14 5 17.73 14.82 1.27 o
4 14 5 36.50 36.70 1.84 o
5 14 5 11.88 12.76 1.06 o
6 14 5 19.39 23.19 1.91 o
7 14 5 4.33 4.72 1.33 o
8 14 5 1.83 1.61 1.41 o
9 14 5 11.85 17.01 1.78 o
10 14 5 0.23 0.52 1.80 o
11 14 5 8.92 14.68 6.19 o
12 14 5 0.25 3.68 4.57 o
-4 15 5 0.59 -1.03 2.83 o
-3 15 5 1.99 4.23 2.32 o
-2 15 5 2.81 3.81 1.58 o
-1 15 5 2.78 2.00 1.36 o
0 15 5 0.90 0.66 1.46 o
1 15 5 8.40 9.74 1.26 o
2 15 5 1.69 0.11 1.50 o
3 15 5 11.44 9.93 1.55 o
4 15 5 8.53 8.83 1.43 o
5 15 5 40.80 36.82 2.41 o
6 15 5 0.35 2.70 2.84 o
7 15 5 46.94 50.68 3.28 o
8 15 5 0.32 -1.04 1.72 o
9 15 5 8.87 11.63 1.85 o
10 15 5 0.35 -0.21 1.78 o
11 15 5 0.86 8.58 4.35 o
-3 16 5 0.97 0.17 3.12 o
-2 16 5 0.01 -0.34 2.50 o
-1 16 5 0.09 2.35 1.69 o
0 16 5 0.63 0.09 1.57 o
1 16 5 0.01 -0.82 1.53 o
2 16 5 4.83 4.37 1.92 o
3 16 5 5.72 6.05 1.52 o
4 16 5 3.27 2.38 1.42 o
5 16 5 5.66 6.72 1.88 o
6 16 5 5.01 10.46 2.76 o
7 16 5 10.83 15.62 3.31 o
8 16 5 10.28 11.61 1.98 o
9 16 5 0.02 0.11 1.99 o
10 16 5 1.27 7.43 3.58 o
11 16 5 0.19 3.46 4.79 o
-1 17 5 0.21 -0.03 2.65 o
0 17 5 0.04 2.82 2.20 o
1 17 5 1.48 5.05 2.05 o
2 17 5 0.00 -0.64 1.92 o
3 17 5 0.60 -0.60 1.77 o
4 17 5 0.05 -1.84 2.08 o
5 17 5 0.00 0.94 2.10 o
6 17 5 1.46 0.53 2.33 o
7 17 5 1.54 4.59 2.31 o
8 17 5 4.47 0.70 2.56 o
9 17 5 2.21 -0.01 2.77 o
10 17 5 1.28 -3.46 3.46 o
1 18 5 0.02 -0.65 2.87 o
2 18 5 1.11 5.37 2.83 o
3 18 5 1.07 1.84 3.32 o
4 18 5 0.05 5.48 2.89 o
5 18 5 0.15 1.45 2.75 o
6 18 5 1.20 4.62 2.99 o
7 18 5 1.76 0.04 3.77 o
8 18 5 0.49 2.58 3.92 o
4 19 5 0.00 -2.98 4.33 o
5 19 5 1.10 7.53 4.44 o
6 19 5 0.10 1.06 5.57 o
-5 -18 6 0.53 2.01 5.83 o
-4 -18 6 0.05 6.54 3.55 o
-3 -18 6 0.30 7.25 2.88 o
-8 -17 6 0.95 4.55 2.85 o
-7 -17 6 0.28 -0.35 2.53 o
-6 -17 6 0.00 0.42 2.40 o
-5 -17 6 0.83 2.92 3.69 o
-4 -17 6 0.26 2.55 2.24 o
-3 -17 6 0.00 -1.78 1.78 o
-2 -17 6 0.99 4.01 2.04 o
-1 -17 6 0.15 0.39 2.35 o
0 -17 6 0.42 0.69 2.35 o
-9 -16 6 2.37 6.97 3.88 o
-8 -16 6 0.61 1.16 2.36 o
-7 -16 6 0.78 -1.98 2.16 o
-6 -16 6 1.18 -1.01 2.05 o
-5 -16 6 0.69 -0.56 1.70 o
-4 -16 6 0.04 0.79 1.59 o
-3 -16 6 0.72 1.06 1.52 o
-2 -16 6 6.10 7.95 2.63 o
-1 -16 6 0.01 1.24 2.29 o
0 -16 6 1.53 5.69 3.51 o
1 -16 6 1.57 -0.78 2.17 o
2 -16 6 0.28 0.20 2.60 o
-10 -15 6 2.88 9.38 2.32 o
-9 -15 6 1.73 1.03 2.64 o
-8 -15 6 0.01 1.88 2.24 o
-7 -15 6 2.69 3.25 1.64 o
-6 -15 6 1.71 0.15 1.34 o
-5 -15 6 1.91 0.92 1.39 o
-4 -15 6 0.26 -1.22 1.22 o
-3 -15 6 0.13 -0.26 1.26 o
-2 -15 6 1.50 -1.25 1.62 o
-1 -15 6 0.95 -0.23 2.04 o
0 -15 6 15.33 18.73 2.43 o
1 -15 6 0.01 2.41 1.73 o
2 -15 6 4.62 5.56 1.62 o
3 -15 6 0.77 0.98 2.62 o
-11 -14 6 5.27 7.63 2.79 o
-10 -14 6 3.91 0.94 2.01 o
-9 -14 6 2.21 0.33 1.71 o
-8 -14 6 1.26 -1.24 1.48 o
-7 -14 6 0.13 1.05 1.37 o
-6 -14 6 0.09 -1.57 1.57 o
-5 -14 6 13.02 13.75 1.43 o
-4 -14 6 7.61 6.90 1.09 o
-3 -14 6 3.51 3.17 1.14 o
-2 -14 6 2.71 0.45 1.05 o
-1 -14 6 4.76 3.91 1.41 o
0 -14 6 8.52 9.81 1.63 o
1 -14 6 4.65 6.42 1.41 o
2 -14 6 2.85 3.48 1.81 o
3 -14 6 0.93 0.81 1.44 o
4 -14 6 3.39 2.41 1.76 o
-11 -13 6 2.50 7.60 3.03 o
-10 -13 6 0.25 -1.29 1.72 o
-9 -13 6 1.11 0.85 1.52 o
-8 -13 6 0.65 1.47 1.39 o
-7 -13 6 6.05 2.26 1.06 o
-6 -13 6 0.35 -0.14 0.79 o
-5 -13 6 3.94 3.73 0.80 o
-4 -13 6 4.15 4.33 0.87 o
-3 -13 6 2.91 2.80 0.87 o
-2 -13 6 11.25 11.90 1.64 o
-1 -13 6 0.01 0.66 0.91 o
0 -13 6 4.55 6.69 1.15 o
1 -13 6 0.17 0.82 1.12 o
2 -13 6 0.16 0.50 1.15 o
3 -13 6 3.81 5.27 1.71 o
4 -13 6 0.03 1.58 1.42 o
5 -13 6 4.46 5.15 1.77 o
-12 -12 6 0.42 2.28 2.37 o
-11 -12 6 16.83 18.90 4.30 o
-10 -12 6 0.51 -0.29 1.55 o
-9 -12 6 20.12 20.10 2.58 o
-8 -12 6 7.83 9.14 1.23 o
-7 -12 6 13.41 10.72 0.99 o
-6 -12 6 8.24 8.44 0.82 o
-5 -12 6 0.22 0.23 0.76 o
-4 -12 6 10.65 13.10 0.81 o
-3 -12 6 0.48 1.03 0.59 o
-2 -12 6 14.80 15.08 1.07 o
-1 -12 6 23.53 23.90 1.45 o
0 -12 6 0.01 1.07 0.79 o
1 -12 6 6.30 7.93 1.22 o
2 -12 6 14.01 16.13 1.18 o
3 -12 6 0.86 1.23 1.13 o
4 -12 6 0.21 0.28 1.15 o
5 -12 6 0.11 -0.29 1.46 o
6 -12 6 0.36 1.29 2.95 o
-12 -11 6 0.93 3.43 2.20 o
-11 -11 6 6.15 5.85 1.85 o
-10 -11 6 1.34 2.05 1.20 o
-9 -11 6 5.60 7.02 1.24 o
-8 -11 6 4.65 2.68 0.97 o
-7 -11 6 0.00 0.60 0.71 o
-6 -11 6 20.91 19.76 1.01 o
-5 -11 6 8.34 6.27 0.64 o
-4 -11 6 2.33 2.03 0.55 o
-3 -11 6 1.14 1.24 0.46 o
-2 -11 6 2.38 2.99 0.46 o
-1 -11 6 22.94 20.24 1.01 o
0 -11 6 28.47 30.69 1.19 o
1 -11 6 0.00 -0.14 0.75 o
2 -11 6 0.20 0.23 0.81 o
3 -11 6 10.50 11.48 1.12 o
4 -11 6 3.55 3.19 1.15 o
5 -11 6 0.65 1.16 1.21 o
6 -11 6 1.26 -0.03 1.55 o
7 -11 6 0.16 -1.47 2.16 o
-12 -10 6 3.20 3.97 2.08 o
-11 -10 6 0.69 1.51 1.63 o
-10 -10 6 4.24 5.23 1.31 o
-9 -10 6 4.80 5.98 0.98 o
-8 -10 6 0.50 0.02 0.74 o
-7 -10 6 5.23 4.95 0.81 o
-6 -10 6 7.69 6.16 0.64 o
-5 -10 6 5.01 6.01 0.56 o
-4 -10 6 10.70 8.76 0.57 o
-3 -10 6 5.21 3.69 0.41 o
-2 -10 6 6.03 6.63 0.57 o
-1 -10 6 0.09 0.04 0.40 o
0 -10 6 14.04 11.99 0.65 o
1 -10 6 22.82 24.09 0.80 o
2 -10 6 23.64 22.79 1.15 o
3 -10 6 9.12 10.60 0.91 o
4 -10 6 3.85 4.03 0.90 o
5 -10 6 0.44 0.95 1.13 o
6 -10 6 0.37 0.81 1.08 o
7 -10 6 0.62 0.80 1.86 o
8 -10 6 0.40 0.95 2.91 o
-12 -9 6 5.76 8.49 2.01 o
-11 -9 6 0.45 2.11 1.51 o
-10 -9 6 3.60 6.32 1.35 o
-9 -9 6 1.95 3.68 0.87 o
-8 -9 6 0.70 0.26 0.60 o
-7 -9 6 18.07 14.05 0.74 o
-6 -9 6 45.62 38.30 0.84 o
-5 -9 6 42.56 35.66 1.04 o
-4 -9 6 9.01 8.83 0.54 o
-3 -9 6 0.35 -0.22 0.34 o
-2 -9 6 18.82 28.07 0.72 o
-1 -9 6 14.74 12.16 0.57 o
0 -9 6 5.08 4.72 0.42 o
1 -9 6 2.35 2.95 0.43 o
2 -9 6 2.42 1.45 0.49 o
3 -9 6 27.28 26.50 0.93 o
4 -9 6 0.00 0.22 0.79 o
5 -9 6 16.02 18.57 1.23 o
6 -9 6 1.47 0.53 0.87 o
7 -9 6 0.06 -1.29 1.29 o
8 -9 6 0.30 0.04 1.80 o
9 -9 6 1.13 4.70 7.30 o
-12 -8 6 2.66 2.51 2.26 o
-11 -8 6 22.55 25.60 1.98 o
-10 -8 6 0.82 1.11 1.17 o
-9 -8 6 0.08 0.43 0.82 o
-8 -8 6 5.97 7.50 0.72 o
-7 -8 6 6.45 6.98 0.55 o
-6 -8 6 186.62 192.58 2.17 o
-5 -8 6 5.57 5.47 0.37 o
-4 -8 6 142.36 130.18 1.62 o
-3 -8 6 8.10 5.11 0.39 o
-2 -8 6 56.98 41.83 0.71 o
-1 -8 6 177.63 161.64 1.59 o
0 -8 6 1.71 0.96 0.29 o
1 -8 6 97.16 95.53 1.07 o
2 -8 6 0.51 0.10 0.37 o
3 -8 6 3.91 2.90 0.57 o
4 -8 6 1.28 1.42 0.53 o
5 -8 6 4.20 4.01 0.57 o
6 -8 6 2.25 2.01 0.66 o
7 -8 6 0.56 0.45 0.94 o
8 -8 6 0.97 0.61 1.30 o
9 -8 6 0.93 0.03 2.20 o
-12 -7 6 0.06 4.41 2.37 o
-11 -7 6 13.07 16.86 1.99 o
-10 -7 6 7.19 8.34 1.40 o
-9 -7 6 10.87 9.37 0.80 o
-8 -7 6 40.63 40.91 1.41 o
-7 -7 6 4.89 3.67 0.55 o
-6 -7 6 16.49 13.41 0.76 o
-5 -7 6 420.23 370.88 3.00 o
-4 -7 6 80.08 69.10 0.76 o
-3 -7 6 95.32 77.33 0.90 o
-2 -7 6 152.16 136.85 1.25 o
-1 -7 6 119.69 113.28 1.06 o
0 -7 6 0.00 -0.17 0.33 o
1 -7 6 2.16 2.26 0.33 o
2 -7 6 0.29 -0.05 0.33 o
3 -7 6 0.53 0.69 0.47 o
4 -7 6 6.47 6.33 0.51 o
5 -7 6 32.11 28.71 0.87 o
6 -7 6 3.86 5.15 0.62 o
7 -7 6 7.64 7.73 0.83 o
8 -7 6 0.69 0.92 0.98 o
9 -7 6 2.75 2.66 1.45 o
10 -7 6 0.31 -0.19 2.26 o
-13 -6 6 1.97 2.70 3.59 o
-12 -6 6 0.36 0.17 2.27 o
-11 -6 6 6.81 9.44 3.14 o
-10 -6 6 4.73 5.71 1.13 o
-9 -6 6 0.00 0.92 0.66 o
-8 -6 6 24.13 23.72 1.02 o
-7 -6 6 46.28 46.39 1.12 o
-6 -6 6 38.55 35.89 0.89 o
-5 -6 6 176.80 179.16 1.81 o
-4 -6 6 51.80 45.95 0.54 o
-3 -6 6 617.15 581.15 3.90 o
-2 -6 6 59.56 67.83 0.67 o
-1 -6 6 17.31 10.34 0.35 o
0 -6 6 39.03 31.55 0.56 o
1 -6 6 2.11 3.37 0.27 o
2 -6 6 0.25 0.54 0.25 o
3 -6 6 32.33 31.71 0.66 o
4 -6 6 0.78 0.87 0.40 o
5 -6 6 5.61 7.26 0.52 o
6 -6 6 3.24 4.22 0.55 o
7 -6 6 8.44 7.01 0.75 o
8 -6 6 0.02 1.17 1.00 o
9 -6 6 4.53 3.40 1.32 o
10 -6 6 0.04 1.11 1.80 o
-13 -5 6 0.53 7.03 3.74 o
-12 -5 6 0.31 0.59 2.15 o
-11 -5 6 5.93 5.19 1.77 o
-10 -5 6 5.78 5.21 0.96 o
-9 -5 6 13.29 13.10 0.91 o
-8 -5 6 35.03 32.54 1.08 o
-7 -5 6 150.55 134.93 2.15 o
-6 -5 6 7.82 5.70 0.50 o
-5 -5 6 4.38 3.05 0.29 o
-4 -5 6 150.20 159.67 1.29 o
-3 -5 6 84.11 90.31 0.79 o
-2 -5 6 37.79 36.48 0.67 o
-1 -5 6 1.61 3.34 0.24 o
0 -5 6 29.30 41.77 0.52 o
1 -5 6 3.88 7.84 0.31 o
2 -5 6 198.12 184.55 1.54 o
3 -5 6 101.03 91.83 1.09 o
4 -5 6 0.83 -0.33 0.33 o
5 -5 6 0.02 -0.22 0.40 o
6 -5 6 0.10 1.02 0.51 o
7 -5 6 1.56 1.36 0.67 o
8 -5 6 10.08 10.90 0.90 o
9 -5 6 0.95 1.05 1.16 o
10 -5 6 1.96 3.66 1.48 o
11 -5 6 0.17 -2.48 2.48 o
-12 -4 6 0.59 1.25 2.75 o
-11 -4 6 0.02 -0.65 1.44 o
-10 -4 6 9.00 12.30 1.39 o
-9 -4 6 1.68 3.55 0.65 o
-8 -4 6 28.96 26.87 0.93 o
-7 -4 6 1.02 2.11 0.57 o
-6 -4 6 139.98 149.71 1.98 o
-5 -4 6 2.31 3.00 0.33 o
-4 -4 6 309.91 312.30 2.49 o
-3 -4 6 418.15 439.21 3.54 o
-2 -4 6 4.33 3.18 0.18 o
-1 -4 6 290.52 366.50 2.85 o
0 -4 6 210.41 225.12 1.92 o
1 -4 6 177.07 204.43 1.87 o
2 -4 6 277.23 275.78 2.46 o
3 -4 6 0.18 0.07 0.36 o
4 -4 6 15.34 15.16 0.51 o
5 -4 6 0.52 -0.03 0.43 o
6 -4 6 0.26 -0.45 0.45 o
7 -4 6 2.41 2.42 0.62 o
8 -4 6 16.89 20.26 1.08 o
9 -4 6 13.46 13.17 1.33 o
10 -4 6 1.62 0.98 1.46 o
11 -4 6 0.32 0.02 2.31 o
-12 -3 6 1.52 5.98 3.57 o
-11 -3 6 0.00 -0.27 1.44 o
-10 -3 6 0.67 -0.21 0.86 o
-9 -3 6 0.31 0.21 0.59 o
-8 -3 6 19.31 20.20 0.90 o
-7 -3 6 288.36 260.11 2.51 o
-6 -3 6 24.40 19.01 0.64 o
-5 -3 6 311.75 312.06 2.95 o
-4 -3 6 583.45 546.48 4.61 o
-3 -3 6 301.13 305.11 2.54 o
-2 -3 6 6.29 4.07 0.18 o
-1 -3 6 134.62 124.08 0.99 o
0 -3 6 73.20 86.66 0.76 o
1 -3 6 0.26 0.19 0.15 o
2 -3 6 184.59 174.86 1.42 o
3 -3 6 283.66 277.30 2.23 o
4 -3 6 9.98 9.18 0.45 o
5 -3 6 7.65 4.95 0.43 o
6 -3 6 4.54 5.75 0.53 o
7 -3 6 5.21 3.12 0.63 o
8 -3 6 0.91 1.01 0.66 o
9 -3 6 1.10 -0.14 1.17 o
10 -3 6 0.50 0.11 1.05 o
11 -3 6 0.21 -1.79 1.91 o
-12 -2 6 1.33 4.33 2.40 o
-11 -2 6 0.35 -1.27 1.27 o
-10 -2 6 4.27 4.70 0.85 o
-9 -2 6 9.10 9.45 0.74 o
-8 -2 6 11.45 11.80 0.70 o
-7 -2 6 181.24 168.14 2.00 o
-6 -2 6 57.26 52.25 0.69 o
-5 -2 6 661.38 649.59 5.46 o
-4 -2 6 34.14 28.73 0.83 o
-3 -2 6 65.97 53.41 0.58 o
-2 -2 6 611.78 642.46 4.26 o
-1 -2 6 74.87 97.40 0.85 o
0 -2 6 64.27 60.08 0.57 o
1 -2 6 306.17 375.02 2.39 o
2 -2 6 793.59 738.48 5.04 o
3 -2 6 24.76 21.10 0.51 o
4 -2 6 0.65 0.48 0.36 o
5 -2 6 0.44 -0.31 0.31 o
6 -2 6 14.22 17.21 0.86 o
7 -2 6 16.67 15.81 0.90 o
8 -2 6 16.37 15.14 1.20 o
9 -2 6 8.16 9.96 0.81 o
10 -2 6 0.48 0.86 1.29 o
11 -2 6 0.10 -1.04 1.35 o
12 -2 6 0.24 4.31 2.25 o
-12 -1 6 0.38 0.41 2.40 o
-11 -1 6 0.64 1.12 1.49 o
-10 -1 6 0.02 0.49 0.96 o
-9 -1 6 16.89 15.10 0.87 o
-8 -1 6 21.70 21.10 0.82 o
-7 -1 6 13.49 16.72 0.60 o
-6 -1 6 0.06 0.48 0.24 o
-5 -1 6 0.15 0.21 0.24 o
-4 -1 6 259.95 255.00 2.17 o
-3 -1 6 77.26 81.93 0.87 o
-2 -1 6 12.61 10.81 0.31 o
-1 -1 6 112.88 136.07 1.09 o
0 -1 6 625.72 625.94 4.20 o
1 -1 6 2.10 1.55 0.15 o
2 -1 6 151.21 149.99 1.09 o
3 -1 6 3.66 3.46 0.20 o
4 -1 6 57.74 50.55 0.73 o
5 -1 6 22.23 20.61 0.56 o
6 -1 6 10.93 6.85 0.45 o
7 -1 6 0.15 1.02 0.44 o
8 -1 6 48.69 45.83 1.30 o
9 -1 6 0.80 0.85 0.70 o
10 -1 6 10.09 13.38 1.33 o
11 -1 6 0.01 -0.23 1.34 o
12 -1 6 0.00 -1.53 1.98 o
-12 0 6 4.01 1.01 2.65 o
-11 0 6 0.38 0.79 1.69 o
-10 0 6 0.48 -0.20 0.99 o
-9 0 6 2.05 2.07 0.64 o
-8 0 6 37.92 37.28 0.90 o
-7 0 6 2.26 1.72 0.40 o
-6 0 6 90.55 86.88 0.85 o
-5 0 6 0.74 4.92 0.27 o
-4 0 6 307.03 305.70 2.46 o
-3 0 6 88.33 96.48 1.05 o
-2 0 6 83.56 95.18 1.10 o
-1 0 6 337.67 396.53 3.10 o
0 0 6 309.53 415.38 2.80 o
1 0 6 81.67 107.60 0.82 o
2 0 6 1.82 2.17 0.17 o
3 0 6 226.58 241.17 1.74 o
4 0 6 4.67 6.47 0.31 o
5 0 6 234.53 212.94 1.83 o
6 0 6 59.20 48.87 0.92 o
7 0 6 7.47 9.90 0.62 o
8 0 6 22.58 21.24 1.01 o
9 0 6 0.09 -0.02 0.62 o
10 0 6 12.03 12.61 1.26 o
11 0 6 2.34 2.41 1.42 o
12 0 6 0.00 -1.71 1.71 o
-12 1 6 0.84 0.58 2.95 o
-11 1 6 0.00 2.59 1.61 o
-10 1 6 1.24 1.63 1.33 o
-9 1 6 0.50 0.98 0.71 o
-8 1 6 1.25 0.86 0.57 o
-7 1 6 20.74 19.47 0.78 o
-6 1 6 185.28 181.98 1.69 o
-5 1 6 0.27 0.42 0.40 o
-4 1 6 15.59 11.23 0.41 o
-3 1 6 8.42 3.15 0.32 o
-2 1 6 23.38 20.11 0.48 o
-1 1 6 0.90 0.47 0.14 o
0 1 6 7.95 27.10 0.51 o
1 1 6 595.36 651.56 4.28 o
2 1 6 143.19 149.46 1.09 o
3 1 6 285.20 347.06 2.22 o
4 1 6 481.71 486.39 3.40 o
5 1 6 0.01 0.42 0.22 o
6 1 6 243.41 244.86 2.45 o
7 1 6 3.23 3.17 0.42 o
8 1 6 19.13 18.50 0.93 o
9 1 6 2.09 2.76 0.81 o
10 1 6 1.61 3.22 0.93 o
11 1 6 2.25 3.98 1.22 o
12 1 6 1.63 1.38 1.79 o
13 1 6 0.02 -2.41 2.41 o
-11 2 6 0.45 3.43 2.42 o
-10 2 6 0.11 -1.17 1.17 o
-9 2 6 0.53 1.96 0.78 o
-8 2 6 0.41 0.27 0.56 o
-7 2 6 10.02 8.56 0.57 o
-6 2 6 12.55 11.67 0.67 o
-5 2 6 52.24 44.37 0.76 o
-4 2 6 5.55 17.46 0.52 o
-3 2 6 647.76 692.76 5.84 o
-2 2 6 2.87 1.47 0.23 o
-1 2 6 40.84 64.51 0.72 o
0 2 6 2611.34 2523.78 17.06 o
1 2 6 732.09 770.85 4.87 o
2 2 6 2691.75 2565.68 17.98 o
3 2 6 47.12 56.38 0.49 o
4 2 6 29.28 33.38 0.41 o
5 2 6 61.17 58.29 0.58 o
6 2 6 0.51 0.23 0.25 o
7 2 6 0.20 0.08 0.31 o
8 2 6 0.96 1.75 0.65 o
9 2 6 0.17 0.16 0.73 o
10 2 6 0.11 -0.90 0.90 o
11 2 6 1.11 0.67 1.08 o
12 2 6 0.53 1.81 1.53 o
13 2 6 0.23 1.78 2.58 o
-11 3 6 0.38 3.85 1.89 o
-10 3 6 0.95 -0.23 1.38 o
-9 3 6 16.56 16.55 1.30 o
-8 3 6 0.76 2.05 0.68 o
-7 3 6 0.09 -0.24 0.57 o
-6 3 6 17.61 15.84 0.70 o
-5 3 6 0.97 0.35 0.39 o
-4 3 6 93.21 101.72 1.15 o
-3 3 6 43.65 60.66 0.82 o
-2 3 6 61.41 56.68 0.73 o
-1 3 6 120.61 139.07 1.27 o
0 3 6 74.91 84.91 0.69 o
1 3 6 0.24 1.30 0.22 o
2 3 6 287.58 292.57 1.97 o
3 3 6 711.87 729.40 5.42 o
4 3 6 1.58 0.78 0.16 o
5 3 6 327.38 329.67 2.49 o
6 3 6 57.96 50.81 0.65 o
7 3 6 0.29 -0.33 0.42 o
8 3 6 27.93 25.99 1.06 o
9 3 6 2.92 2.23 0.69 o
10 3 6 0.77 0.67 0.84 o
11 3 6 2.00 1.66 1.15 o
12 3 6 0.87 -0.15 1.68 o
13 3 6 0.09 6.17 3.09 o
-11 4 6 0.99 1.19 2.37 o
-10 4 6 0.95 -0.06 1.52 o
-9 4 6 12.60 12.10 1.12 o
-8 4 6 15.57 17.42 1.02 o
-7 4 6 4.94 4.85 0.60 o
-6 4 6 10.77 10.44 0.64 o
-5 4 6 39.53 35.17 0.84 o
-4 4 6 19.22 18.21 0.59 o
-3 4 6 321.87 290.93 2.61 o
-2 4 6 3.94 12.19 0.48 o
-1 4 6 908.84 969.84 7.89 o
0 4 6 5.43 7.09 0.32 o
1 4 6 90.56 116.19 0.97 o
2 4 6 907.57 929.27 7.72 o
3 4 6 57.84 57.85 0.64 o
4 4 6 4.25 3.32 0.24 o
5 4 6 32.94 37.01 0.51 o
6 4 6 38.21 36.10 0.66 o
7 4 6 5.23 3.87 0.48 o
8 4 6 28.55 25.74 0.86 o
9 4 6 6.67 6.39 0.76 o
10 4 6 7.27 9.97 1.15 o
11 4 6 0.08 0.05 1.46 o
12 4 6 0.71 0.90 1.81 o
13 4 6 0.00 -0.46 1.88 o
-10 5 6 1.07 1.10 1.65 o
-9 5 6 0.14 0.40 1.19 o
-8 5 6 22.94 21.96 1.13 o
-7 5 6 0.20 0.91 0.61 o
-6 5 6 105.37 102.04 1.60 o
-5 5 6 4.42 4.72 0.53 o
-4 5 6 3.03 3.85 0.44 o
-3 5 6 112.67 95.61 1.27 o
-2 5 6 175.37 195.86 1.98 o
-1 5 6 2.19 0.40 0.39 o
0 5 6 96.03 78.08 0.80 o
1 5 6 331.99 348.01 2.71 o
2 5 6 237.42 263.64 3.58 o
3 5 6 56.51 48.70 0.67 o
4 5 6 193.49 183.31 1.71 o
5 5 6 91.07 97.18 1.19 o
6 5 6 210.53 215.66 2.38 o
7 5 6 18.21 18.35 0.59 o
8 5 6 5.81 6.59 0.47 o
9 5 6 1.77 1.32 0.77 o
10 5 6 4.95 5.67 0.89 o
11 5 6 0.29 -1.37 1.37 o
12 5 6 1.17 2.40 1.43 o
13 5 6 0.01 -1.82 1.82 o
-10 6 6 1.25 -1.14 3.35 o
-9 6 6 0.04 0.69 1.70 o
-8 6 6 1.05 2.59 0.95 o
-7 6 6 5.40 5.11 0.80 o
-6 6 6 64.52 63.49 1.30 o
-5 6 6 48.94 45.71 1.04 o
-4 6 6 25.59 20.51 0.80 o
-3 6 6 2.48 2.27 0.40 o
-2 6 6 0.30 1.15 0.35 o
-1 6 6 301.14 252.96 2.64 o
0 6 6 2133.44 2005.62 19.00 o
1 6 6 436.23 424.20 3.26 o
2 6 6 425.64 393.05 4.54 o
3 6 6 0.59 0.13 0.18 o
4 6 6 193.31 203.65 2.05 o
5 6 6 51.23 46.01 0.80 o
6 6 6 0.75 2.06 0.37 o
7 6 6 2.96 3.11 0.41 o
8 6 6 6.00 5.86 0.52 o
9 6 6 42.65 41.84 1.13 o
10 6 6 12.57 11.29 1.12 o
11 6 6 1.17 0.39 1.20 o
12 6 6 2.24 1.60 1.42 o
13 6 6 0.00 0.10 3.00 o
-9 7 6 0.06 0.61 1.91 o
-8 7 6 0.55 3.71 1.17 o
-7 7 6 0.34 1.15 1.50 o
-6 7 6 0.43 1.85 0.69 o
-5 7 6 0.01 0.33 0.62 o
-4 7 6 2.41 2.80 0.59 o
-3 7 6 11.51 11.67 0.58 o
-2 7 6 4.43 2.49 0.38 o
-1 7 6 65.06 52.51 1.02 o
0 7 6 133.06 127.63 1.29 o
1 7 6 69.72 59.01 0.91 o
2 7 6 98.28 87.10 0.90 o
3 7 6 359.95 369.85 3.44 o
4 7 6 74.84 67.64 0.97 o
5 7 6 372.20 365.16 3.71 o
6 7 6 112.40 111.62 1.51 o
7 7 6 17.79 19.37 0.71 o
8 7 6 12.61 12.70 0.66 o
9 7 6 12.73 12.58 0.76 o
10 7 6 13.54 17.05 1.36 o
11 7 6 1.71 0.43 1.22 o
12 7 6 0.02 -1.36 1.36 o
13 7 6 0.02 7.06 2.47 o
-9 8 6 0.38 4.97 2.57 o
-8 8 6 0.03 3.04 1.78 o
-7 8 6 9.96 12.71 1.45 o
-6 8 6 14.36 20.07 1.19 o
-5 8 6 0.21 -0.01 0.67 o
-4 8 6 0.06 -0.56 0.56 o
-3 8 6 12.82 12.64 0.69 o
-2 8 6 36.91 33.68 0.82 o
-1 8 6 41.90 36.91 0.91 o
0 8 6 241.70 212.20 2.38 o
1 8 6 39.25 34.52 0.67 o
2 8 6 29.31 28.90 0.59 o
3 8 6 83.39 75.84 1.12 o
4 8 6 14.52 12.96 0.56 o
5 8 6 98.79 95.22 1.10 o
6 8 6 4.25 5.34 0.39 o
7 8 6 32.76 26.41 0.84 o
8 8 6 19.87 15.85 0.73 o
9 8 6 4.12 4.93 0.63 o
10 8 6 1.69 2.27 1.06 o
11 8 6 7.54 7.28 1.45 o
12 8 6 1.87 2.26 1.35 o
13 8 6 1.20 1.41 1.85 o
-8 9 6 2.62 5.62 2.56 o
-7 9 6 2.21 2.87 1.95 o
-6 9 6 6.82 7.06 1.14 o
-5 9 6 0.06 0.92 1.20 o
-4 9 6 4.03 4.25 0.71 o
-3 9 6 0.10 -0.37 0.55 o
-2 9 6 1.08 0.48 0.42 o
-1 9 6 66.84 66.42 1.22 o
0 9 6 23.32 28.80 0.66 o
1 9 6 29.64 25.44 0.61 o
2 9 6 0.01 -0.27 0.27 o
3 9 6 24.64 21.14 0.79 o
4 9 6 103.27 108.51 1.63 o
5 9 6 50.52 55.86 0.87 o
6 9 6 12.28 12.07 0.56 o
7 9 6 2.24 3.35 0.42 o
8 9 6 17.94 19.23 0.96 o
9 9 6 33.56 37.01 1.37 o
10 9 6 0.57 0.37 0.99 o
11 9 6 4.10 1.80 1.58 o
12 9 6 0.03 1.14 1.58 o
13 9 6 3.88 7.35 1.95 o
-8 10 6 1.82 4.11 3.52 o
-7 10 6 0.55 2.28 1.93 o
-6 10 6 1.54 0.01 1.95 o
-5 10 6 0.60 1.10 1.17 o
-4 10 6 6.72 5.89 0.93 o
-3 10 6 1.33 1.05 0.65 o
-2 10 6 41.16 35.12 1.17 o
-1 10 6 0.24 -0.39 0.39 o
0 10 6 35.11 34.13 0.91 o
1 10 6 4.53 2.21 0.43 o
2 10 6 25.88 25.02 0.70 o
3 10 6 6.20 7.59 0.48 o
4 10 6 0.01 -0.09 0.53 o
5 10 6 41.38 42.17 1.08 o
6 10 6 9.52 7.86 0.50 o
7 10 6 52.05 49.67 0.90 o
8 10 6 5.15 5.92 0.66 o
9 10 6 28.85 27.12 1.41 o
10 10 6 6.59 4.91 0.83 o
11 10 6 1.32 1.06 1.58 o
12 10 6 0.08 -0.47 2.05 o
13 10 6 0.76 4.55 5.33 o
-7 11 6 1.38 2.71 2.29 o
-6 11 6 0.08 -1.85 1.85 o
-5 11 6 0.75 1.25 1.43 o
-4 11 6 5.35 8.96 1.36 o
-3 11 6 4.02 4.23 1.02 o
-2 11 6 0.01 -0.83 0.83 o
-1 11 6 8.72 8.01 0.83 o
0 11 6 15.35 16.93 0.77 o
1 11 6 3.28 4.31 0.52 o
2 11 6 87.35 78.39 1.36 o
3 11 6 86.38 89.41 1.25 o
4 11 6 2.56 2.43 0.54 o
5 11 6 33.47 32.24 1.10 o
6 11 6 40.84 41.11 1.03 o
7 11 6 53.62 51.94 1.75 o
8 11 6 61.02 57.18 1.27 o
9 11 6 0.07 1.02 1.05 o
10 11 6 10.08 10.86 1.05 o
11 11 6 0.99 1.08 1.74 o
12 11 6 3.04 4.32 1.97 o
13 11 6 1.69 -0.58 3.38 o
-6 12 6 0.97 3.23 3.80 o
-5 12 6 0.18 -1.59 1.70 o
-4 12 6 3.25 5.84 1.52 o
-3 12 6 0.08 -1.03 1.53 o
-2 12 6 0.31 1.54 0.86 o
-1 12 6 10.63 11.23 1.21 o
0 12 6 3.58 4.74 0.80 o
1 12 6 30.77 28.63 1.31 o
2 12 6 3.33 1.23 0.48 o
3 12 6 52.30 49.26 1.22 o
4 12 6 1.45 1.10 0.69 o
5 12 6 1.38 0.34 0.58 o
6 12 6 2.76 2.06 0.64 o
7 12 6 7.24 7.77 0.96 o
8 12 6 23.13 21.05 1.56 o
9 12 6 20.77 22.61 1.49 o
10 12 6 4.43 3.57 1.35 o
11 12 6 4.13 5.32 1.65 o
12 12 6 1.49 2.70 2.18 o
-5 13 6 0.78 1.99 2.18 o
-4 13 6 0.08 1.08 1.45 o
-3 13 6 12.57 11.94 1.36 o
-2 13 6 0.09 4.31 1.78 o
-1 13 6 13.45 15.09 1.11 o
0 13 6 0.25 1.21 0.89 o
1 13 6 13.81 18.15 1.18 o
2 13 6 1.59 1.73 0.76 o
3 13 6 0.36 1.21 0.92 o
4 13 6 17.82 19.71 1.08 o
5 13 6 2.99 3.62 0.72 o
6 13 6 8.16 8.16 0.84 o
7 13 6 14.41 13.58 1.10 o
8 13 6 0.05 -1.04 1.04 o
9 13 6 9.42 11.06 2.62 o
10 13 6 1.24 2.17 1.29 o
11 13 6 4.80 4.23 2.17 o
12 13 6 1.50 3.71 2.85 o
-4 14 6 0.01 -0.29 1.84 o
-3 14 6 1.76 4.54 1.53 o
-2 14 6 7.37 8.22 1.42 o
-1 14 6 7.91 6.53 1.45 o
0 14 6 15.77 13.54 1.38 o
1 14 6 10.60 11.75 1.34 o
2 14 6 1.22 -0.26 0.84 o
3 14 6 0.07 -0.29 1.02 o
4 14 6 7.56 7.43 1.15 o
5 14 6 3.05 2.14 1.06 o
6 14 6 6.14 5.30 1.31 o
7 14 6 5.46 5.35 1.20 o
8 14 6 7.78 7.45 1.63 o
9 14 6 3.01 2.59 1.61 o
10 14 6 4.22 5.86 2.01 o
11 14 6 2.55 2.30 2.95 o
12 14 6 3.22 8.47 5.02 o
-3 15 6 0.41 -1.89 1.89 o
-2 15 6 0.21 0.15 2.47 o
-1 15 6 0.22 0.62 1.41 o
0 15 6 3.74 4.98 1.32 o
1 15 6 0.16 -0.28 1.30 o
2 15 6 23.41 31.21 2.20 o
3 15 6 0.92 0.54 1.25 o
4 15 6 1.20 1.13 1.29 o
5 15 6 0.01 2.09 1.29 o
6 15 6 24.29 28.25 3.67 o
7 15 6 3.65 5.19 2.04 o
8 15 6 22.65 26.36 2.27 o
9 15 6 0.57 3.49 1.80 o
10 15 6 4.34 6.65 2.33 o
11 15 6 0.08 13.27 4.57 o
-2 16 6 0.17 1.10 2.17 o
-1 16 6 0.06 -0.84 1.74 o
0 16 6 1.13 -0.93 1.62 o
1 16 6 1.47 2.91 1.77 o
2 16 6 0.11 -1.94 1.94 o
3 16 6 7.41 7.22 1.60 o
4 16 6 0.78 -0.07 2.41 o
5 16 6 0.00 -2.03 2.49 o
6 16 6 0.14 3.07 2.62 o
7 16 6 1.41 -0.38 2.03 o
8 16 6 6.90 9.96 2.03 o
9 16 6 6.34 5.93 2.16 o
10 16 6 3.86 7.91 2.68 o
-1 17 6 1.02 2.15 2.58 o
0 17 6 0.32 -0.68 2.46 o
1 17 6 0.65 2.00 2.91 o
2 17 6 1.77 1.98 1.97 o
3 17 6 0.01 1.50 1.90 o
4 17 6 1.85 4.91 2.34 o
5 17 6 0.00 -2.17 2.17 o
6 17 6 0.85 0.32 2.31 o
7 17 6 2.20 3.29 2.52 o
8 17 6 0.01 1.90 2.64 o
9 17 6 3.73 2.85 2.98 o
1 18 6 1.88 1.02 3.54 o
2 18 6 0.81 0.70 2.42 o
3 18 6 1.35 5.03 2.92 o
4 18 6 0.03 -2.76 2.76 o
5 18 6 0.35 0.38 2.80 o
6 18 6 0.92 -2.50 2.91 o
7 18 6 1.66 4.52 3.08 o
8 18 6 0.72 0.88 3.91 o
-7 -17 7 0.04 -2.68 2.68 o
-6 -17 7 0.28 4.23 4.70 o
-5 -17 7 0.02 2.98 3.30 o
-4 -17 7 2.54 0.42 2.44 o
-3 -17 7 0.52 -1.72 2.86 o
-2 -17 7 0.02 1.66 4.25 o
-1 -17 7 0.48 -1.90 2.10 o
-8 -16 7 8.21 12.00 3.46 o
-7 -16 7 1.90 0.26 2.41 o
-6 -16 7 4.38 7.72 3.29 o
-5 -16 7 0.01 0.14 2.13 o
-4 -16 7 0.34 -1.37 1.72 o
-3 -16 7 1.59 1.51 1.87 o
-2 -16 7 1.16 3.41 1.73 o
-1 -16 7 0.06 0.45 1.80 o
0 -16 7 0.01 2.94 2.42 o
1 -16 7 0.25 6.98 2.89 o
-9 -15 7 0.89 0.37 2.16 o
-8 -15 7 0.71 -1.98 1.98 o
-7 -15 7 1.14 -1.57 1.74 o
-6 -15 7 7.36 4.87 1.73 o
-5 -15 7 0.21 2.90 1.57 o
-4 -15 7 0.33 1.23 1.36 o
-3 -15 7 0.01 -1.48 1.48 o
-2 -15 7 0.84 -0.23 1.46 o
-1 -15 7 1.10 1.41 1.90 o
0 -15 7 1.51 5.03 1.63 o
1 -15 7 0.80 2.30 1.75 o
2 -15 7 0.06 0.07 1.93 o
3 -15 7 0.93 -1.96 1.96 o
-10 -14 7 2.52 7.44 2.56 o
-9 -14 7 2.46 4.29 1.95 o
-8 -14 7 0.16 0.49 1.71 o
-7 -14 7 0.54 -1.47 1.47 o
-6 -14 7 0.62 -0.98 1.91 o
-5 -14 7 0.86 -0.16 1.12 o
-4 -14 7 0.43 -0.95 1.14 o
-3 -14 7 0.03 -0.41 1.43 o
-2 -14 7 4.05 3.12 1.05 o
-1 -14 7 6.23 5.31 1.14 o
0 -14 7 0.21 0.97 1.17 o
1 -14 7 0.09 -1.23 1.23 o
2 -14 7 0.44 -0.70 1.46 o
3 -14 7 0.70 -1.00 1.65 o
4 -14 7 0.16 0.73 2.95 o
-11 -13 7 7.33 8.61 2.68 o
-10 -13 7 6.01 5.12 2.37 o
-9 -13 7 5.87 4.00 1.74 o
-8 -13 7 0.04 -0.27 1.50 o
-7 -13 7 8.72 6.03 1.41 o
-6 -13 7 1.97 2.15 1.06 o
-5 -13 7 0.79 -0.90 0.91 o
-4 -13 7 0.06 0.11 0.88 o
-3 -13 7 0.25 0.01 0.87 o
-2 -13 7 0.49 -0.02 0.77 o
-1 -13 7 0.67 0.40 1.00 o
0 -13 7 1.75 0.72 1.29 o
1 -13 7 0.07 -0.45 1.17 o
2 -13 7 0.23 0.80 1.09 o
3 -13 7 0.01 0.79 1.31 o
4 -13 7 0.07 4.00 1.82 o
5 -13 7 0.83 1.82 2.11 o
-11 -12 7 5.40 7.77 4.14 o
-10 -12 7 15.46 12.74 2.15 o
-9 -12 7 5.96 5.23 1.42 o
-8 -12 7 15.16 16.65 1.50 o
-7 -12 7 1.05 2.65 1.18 o
-6 -12 7 12.15 12.35 0.92 o
-5 -12 7 12.19 11.29 0.88 o
-4 -12 7 1.97 0.43 0.71 o
-3 -12 7 3.88 3.90 0.70 o
-2 -12 7 0.01 -0.67 0.67 o
-1 -12 7 11.27 10.14 0.82 o
0 -12 7 8.08 10.36 0.88 o
1 -12 7 0.02 0.30 0.82 o
2 -12 7 0.07 0.07 1.08 o
3 -12 7 0.31 -0.38 1.05 o
4 -12 7 0.04 2.27 1.29 o
5 -12 7 1.58 2.31 1.65 o
6 -12 7 1.22 2.89 1.98 o
-12 -11 7 1.99 0.83 3.40 o
-11 -11 7 0.78 2.65 1.94 o
-10 -11 7 2.33 2.76 1.59 o
-9 -11 7 1.05 3.78 1.17 o
-8 -11 7 13.72 12.78 1.41 o
-7 -11 7 10.28 11.41 1.08 o
-6 -11 7 7.71 6.09 0.82 o
-5 -11 7 81.56 81.36 1.58 o
-4 -11 7 1.08 -0.47 0.60 o
-3 -11 7 79.48 73.27 1.44 o
-2 -11 7 0.55 -0.28 0.49 o
-1 -11 7 3.05 1.93 0.50 o
0 -11 7 0.09 -0.65 0.65 o
1 -11 7 38.20 38.77 1.35 o
2 -11 7 0.15 0.53 0.77 o
3 -11 7 12.36 13.38 1.12 o
4 -11 7 0.50 1.73 1.16 o
5 -11 7 0.57 -0.23 1.36 o
6 -11 7 0.91 2.14 1.66 o
7 -11 7 0.28 0.21 2.48 o
-12 -10 7 2.41 7.59 3.03 o
-11 -10 7 13.47 12.94 2.02 o
-10 -10 7 1.57 2.29 1.33 o
-9 -10 7 35.54 36.63 2.17 o
-8 -10 7 0.45 0.52 0.90 o
-7 -10 7 19.02 19.87 1.09 o
-6 -10 7 0.16 0.06 0.62 o
-5 -10 7 1.57 2.06 0.60 o
-4 -10 7 0.05 0.23 0.53 o
-3 -10 7 20.00 23.32 0.82 o
-2 -10 7 16.65 19.32 0.84 o
-1 -10 7 3.64 1.40 0.46 o
0 -10 7 5.96 5.05 0.47 o
1 -10 7 0.05 -0.46 0.46 o
2 -10 7 4.39 5.74 0.58 o
3 -10 7 33.67 34.76 1.33 o
4 -10 7 4.13 5.38 0.89 o
5 -10 7 9.67 11.12 1.43 o
6 -10 7 0.12 -1.27 1.27 o
7 -10 7 0.03 -0.64 2.04 o
8 -10 7 0.00 -0.63 2.42 o
-12 -9 7 0.03 -0.29 2.10 o
-11 -9 7 14.06 11.61 1.80 o
-10 -9 7 0.87 1.57 1.96 o
-9 -9 7 29.84 31.91 1.68 o
-8 -9 7 1.13 1.45 0.64 o
-7 -9 7 22.79 22.82 1.03 o
-6 -9 7 14.45 14.24 0.86 o
-5 -9 7 4.95 7.04 0.70 o
-4 -9 7 44.20 40.16 0.89 o
-3 -9 7 23.74 28.82 0.76 o
-2 -9 7 3.14 2.09 0.44 o
-1 -9 7 15.25 12.93 0.60 o
0 -9 7 8.33 8.37 0.47 o
1 -9 7 0.01 -0.31 0.39 o
2 -9 7 3.60 2.99 0.62 o
3 -9 7 1.63 2.08 0.55 o
4 -9 7 2.45 3.54 0.64 o
5 -9 7 4.09 3.95 0.89 o
6 -9 7 5.02 5.09 0.99 o
7 -9 7 1.69 1.36 1.61 o
8 -9 7 0.82 1.83 3.79 o
-12 -8 7 0.98 -0.71 2.66 o
-11 -8 7 6.70 7.50 2.43 o
-10 -8 7 11.49 13.89 1.63 o
-9 -8 7 5.37 9.49 1.11 o
-8 -8 7 0.68 -0.25 0.62 o
-7 -8 7 8.28 7.19 0.61 o
-6 -8 7 3.96 6.06 0.55 o
-5 -8 7 9.86 7.03 0.49 o
-4 -8 7 0.09 0.41 0.31 o
-3 -8 7 152.89 135.18 1.35 o
-2 -8 7 24.52 22.33 0.64 o
-1 -8 7 103.79 99.04 1.05 o
0 -8 7 32.11 39.65 0.76 o
1 -8 7 31.47 29.54 0.78 o
2 -8 7 0.07 0.78 0.54 o
3 -8 7 2.69 2.71 0.48 o
4 -8 7 2.52 2.15 0.57 o
5 -8 7 0.20 0.98 0.58 o
6 -8 7 0.00 0.84 0.80 o
7 -8 7 0.47 1.44 1.12 o
8 -8 7 1.29 0.89 1.72 o
9 -8 7 0.42 -1.92 3.19 o
-12 -7 7 0.14 3.66 2.33 o
-11 -7 7 0.01 0.00 1.83 o
-10 -7 7 4.97 6.99 1.53 o
-9 -7 7 0.74 1.08 0.98 o
-8 -7 7 29.40 29.52 1.23 o
-7 -7 7 4.36 5.46 0.66 o
-6 -7 7 0.34 0.44 0.43 o
-5 -7 7 67.39 66.62 0.99 o
-4 -7 7 169.36 172.13 1.59 o
-3 -7 7 165.80 155.23 1.33 o
-2 -7 7 19.16 20.84 0.47 o
-1 -7 7 92.12 61.41 0.99 o
0 -7 7 0.87 -0.30 0.30 o
1 -7 7 0.54 -0.35 0.35 o
2 -7 7 1.43 1.70 0.38 o
3 -7 7 1.47 0.72 0.45 o
4 -7 7 8.37 10.07 0.72 o
5 -7 7 1.82 1.22 0.52 o
6 -7 7 3.49 2.69 0.62 o
7 -7 7 0.58 0.03 0.88 o
8 -7 7 1.21 0.83 1.21 o
9 -7 7 0.02 0.98 1.72 o
-12 -6 7 2.41 6.11 2.41 o
-11 -6 7 9.11 9.61 1.84 o
-10 -6 7 9.00 11.94 1.52 o
-9 -6 7 7.00 7.49 0.84 o
-8 -6 7 1.24 1.07 0.64 o
-7 -6 7 49.74 43.24 1.21 o
-6 -6 7 55.94 59.07 1.15 o
-5 -6 7 25.04 24.18 0.85 o
-4 -6 7 7.16 8.98 0.35 o
-3 -6 7 25.47 17.57 0.48 o
-2 -6 7 271.11 247.28 1.90 o
-1 -6 7 5.49 4.10 0.29 o
0 -6 7 26.96 23.75 0.52 o
1 -6 7 3.81 0.64 0.45 o
2 -6 7 1.27 0.23 0.30 o
3 -6 7 1.35 1.31 0.39 o
4 -6 7 2.17 2.64 0.40 o
5 -6 7 0.02 0.29 0.48 o
6 -6 7 1.30 1.12 0.55 o
7 -6 7 1.10 0.42 0.67 o
8 -6 7 0.03 1.43 1.00 o
9 -6 7 2.01 1.25 1.22 o
10 -6 7 0.47 -2.03 2.03 o
-12 -5 7 2.12 -0.59 2.30 o
-11 -5 7 23.62 27.10 4.44 o
-10 -5 7 0.04 -0.25 1.05 o
-9 -5 7 7.55 10.42 0.94 o
-8 -5 7 19.84 18.71 0.94 o
-7 -5 7 0.02 -0.39 0.59 o
-6 -5 7 192.07 190.15 2.43 o
-5 -5 7 46.87 47.49 0.85 o
-4 -5 7 8.36 6.96 0.36 o
-3 -5 7 5.78 6.57 0.39 o
-2 -5 7 12.30 8.38 0.34 o
-1 -5 7 72.99 56.48 0.67 o
0 -5 7 12.38 13.45 0.49 o
1 -5 7 9.52 6.61 0.41 o
2 -5 7 55.47 48.73 0.73 o
3 -5 7 81.48 77.56 0.90 o
4 -5 7 1.40 0.59 0.34 o
5 -5 7 5.90 4.80 0.54 o
6 -5 7 8.75 8.59 0.64 o
7 -5 7 0.22 -0.02 0.60 o
8 -5 7 0.09 -0.82 0.82 o
9 -5 7 5.23 6.84 1.28 o
10 -5 7 0.00 -0.98 1.49 o
-12 -4 7 0.74 7.46 3.13 o
-11 -4 7 7.96 7.37 1.75 o
-10 -4 7 10.07 11.08 1.18 o
-9 -4 7 32.89 28.26 1.43 o
-8 -4 7 1.84 2.74 0.59 o
-7 -4 7 8.47 8.66 0.77 o
-6 -4 7 27.39 27.00 0.77 o
-5 -4 7 467.65 436.20 4.35 o
-4 -4 7 124.24 128.76 1.60 o
-3 -4 7 302.64 297.95 2.33 o
-2 -4 7 26.99 34.91 0.43 o
-1 -4 7 51.28 54.87 0.80 o
0 -4 7 13.37 13.80 0.45 o
1 -4 7 46.95 59.44 0.77 o
2 -4 7 0.57 0.91 0.27 o
3 -4 7 17.64 16.68 0.60 o
4 -4 7 26.97 24.54 0.74 o
5 -4 7 0.01 -0.31 0.41 o
6 -4 7 3.98 3.52 0.54 o
7 -4 7 1.06 -0.14 0.61 o
8 -4 7 1.24 1.23 0.71 o
9 -4 7 4.64 4.81 1.02 o
10 -4 7 0.70 -0.30 1.89 o
11 -4 7 0.05 -0.38 2.58 o
-12 -3 7 0.29 6.20 6.58 o
-11 -3 7 0.13 -0.26 1.83 o
-10 -3 7 0.27 2.59 1.14 o
-9 -3 7 9.18 8.82 0.90 o
-8 -3 7 15.23 15.49 0.90 o
-7 -3 7 0.27 0.34 0.41 o
-6 -3 7 32.02 27.27 0.68 o
-5 -3 7 52.61 56.01 0.90 o
-4 -3 7 10.83 12.57 0.59 o
-3 -3 7 1555.35 1472.26 13.44 o
-2 -3 7 69.34 69.59 0.65 o
-1 -3 7 325.22 360.99 3.09 o
0 -3 7 20.45 24.74 0.46 o
1 -3 7 0.67 2.06 0.23 o
2 -3 7 290.01 286.77 3.85 o
3 -3 7 671.75 638.57 5.08 o
4 -3 7 139.72 138.86 1.60 o
5 -3 7 23.47 21.98 0.74 o
6 -3 7 21.73 20.62 0.84 o
7 -3 7 6.21 6.24 0.68 o
8 -3 7 0.93 3.10 0.71 o
9 -3 7 2.88 5.44 0.92 o
10 -3 7 0.28 -0.20 1.14 o
11 -3 7 0.36 -0.20 1.62 o
-12 -2 7 0.01 0.69 3.51 o
-11 -2 7 0.29 2.31 2.82 o
-10 -2 7 16.27 14.44 2.08 o
-9 -2 7 3.37 1.94 0.81 o
-8 -2 7 1.75 1.54 0.67 o
-7 -2 7 8.09 9.65 0.56 o
-6 -2 7 4.81 3.12 0.36 o
-5 -2 7 55.99 57.13 0.80 o
-4 -2 7 97.17 94.54 1.09 o
-3 -2 7 68.75 62.94 0.83 o
-2 -2 7 589.10 595.75 4.50 o
-1 -2 7 111.64 100.64 0.95 o
0 -2 7 1013.71 997.53 8.12 o
1 -2 7 2.68 2.85 0.21 o
2 -2 7 1120.17 1158.99 8.92 o
3 -2 7 260.90 243.10 2.10 o
4 -2 7 6.70 8.93 0.44 o
5 -2 7 32.05 33.50 0.78 o
6 -2 7 13.47 12.85 0.66 o
7 -2 7 3.00 4.57 0.62 o
8 -2 7 31.93 29.81 1.31 o
9 -2 7 16.79 15.93 1.03 o
10 -2 7 0.59 -0.66 1.23 o
11 -2 7 0.29 -1.01 1.46 o
12 -2 7 0.37 -1.81 2.49 o
-12 -1 7 2.48 5.82 3.32 o
-11 -1 7 0.60 0.11 1.67 o
-10 -1 7 8.35 6.83 1.23 o
-9 -1 7 0.76 1.36 0.78 o
-8 -1 7 11.22 10.02 0.66 o
-7 -1 7 10.31 11.19 0.64 o
-6 -1 7 6.72 6.03 0.40 o
-5 -1 7 7.53 5.29 0.35 o
-4 -1 7 639.40 661.11 4.81 o
-3 -1 7 700.65 684.41 5.70 o
-2 -1 7 931.79 882.92 7.65 o
-1 -1 7 115.87 107.39 1.04 o
0 -1 7 4.49 4.35 0.42 o
1 -1 7 317.70 306.50 2.43 o
2 -1 7 57.67 61.31 0.98 o
3 -1 7 198.78 213.02 1.58 o
4 -1 7 23.88 26.81 0.51 o
5 -1 7 12.34 11.06 0.47 o
6 -1 7 6.91 7.03 0.54 o
7 -1 7 0.83 1.00 0.52 o
8 -1 7 4.82 4.28 0.67 o
9 -1 7 1.18 0.76 0.82 o
10 -1 7 6.91 5.90 1.23 o
11 -1 7 0.39 -1.43 1.43 o
12 -1 7 0.10 2.40 1.90 o
-12 0 7 1.98 2.67 5.18 o
-11 0 7 1.44 0.11 1.79 o
-10 0 7 0.44 0.01 1.17 o
-9 0 7 0.79 1.02 0.68 o
-8 0 7 12.53 11.81 0.67 o
-7 0 7 53.09 45.98 1.08 o
-6 0 7 14.31 16.75 0.69 o
-5 0 7 174.28 170.42 1.86 o
-4 0 7 45.36 39.23 0.73 o
-3 0 7 0.00 -0.13 0.26 o
-2 0 7 19.75 12.90 0.52 o
-1 0 7 6.91 7.06 0.32 o
0 0 7 87.30 89.22 0.84 o
1 0 7 113.55 109.43 1.02 o
2 0 7 199.16 223.94 1.84 o
3 0 7 67.58 59.60 0.58 o
4 0 7 59.27 65.51 0.65 o
5 0 7 5.97 7.04 0.41 o
6 0 7 8.88 7.27 0.50 o
7 0 7 2.12 1.84 0.50 o
8 0 7 0.66 -0.15 0.57 o
9 0 7 10.31 9.90 0.77 o
10 0 7 3.23 4.46 1.25 o
11 0 7 1.18 0.19 1.59 o
12 0 7 0.02 0.95 1.80 o
-11 1 7 0.01 -1.48 2.11 o
-10 1 7 4.56 5.59 1.49 o
-9 1 7 3.70 3.57 0.78 o
-8 1 7 0.05 0.28 0.60 o
-7 1 7 1.28 1.26 0.44 o
-6 1 7 12.59 10.43 0.47 o
-5 1 7 190.40 169.00 1.52 o
-4 1 7 1.44 0.23 0.25 o
-3 1 7 130.68 166.39 1.53 o
-2 1 7 559.57 526.53 4.40 o
-1 1 7 87.97 86.61 1.08 o
0 1 7 13.89 19.94 0.45 o
1 1 7 1775.72 1774.93 13.49 o
2 1 7 26.24 37.44 0.49 o
3 1 7 32.73 49.91 0.59 o
4 1 7 3.72 2.63 0.19 o
5 1 7 0.13 0.48 0.19 o
6 1 7 19.24 17.80 0.65 o
7 1 7 8.18 7.60 0.61 o
8 1 7 3.16 2.99 0.56 o
9 1 7 0.07 -0.48 0.79 o
10 1 7 1.02 1.82 1.21 o
11 1 7 0.16 -1.17 1.17 o
12 1 7 0.58 1.40 1.70 o
-11 2 7 0.68 0.19 2.02 o
-10 2 7 4.20 3.82 1.85 o
-9 2 7 1.68 1.81 0.82 o
-8 2 7 0.35 0.53 0.65 o
-7 2 7 0.50 -0.29 0.49 o
-6 2 7 1.77 1.79 0.44 o
-5 2 7 47.32 37.15 0.80 o
-4 2 7 93.90 95.98 1.11 o
-3 2 7 65.93 50.98 0.83 o
-2 2 7 4.56 0.33 0.31 o
-1 2 7 123.99 182.00 1.57 o
0 2 7 331.28 330.43 2.83 o
1 2 7 81.76 70.38 0.78 o
2 2 7 168.60 161.24 1.44 o
3 2 7 347.72 369.58 3.00 o
4 2 7 0.78 1.00 0.19 o
5 2 7 178.66 178.69 1.40 o
6 2 7 47.81 41.66 0.70 o
7 2 7 4.06 6.67 0.61 o
8 2 7 10.18 11.17 0.80 o
9 2 7 7.51 9.34 0.87 o
10 2 7 6.27 8.08 1.04 o
11 2 7 0.01 -1.11 1.11 o
12 2 7 0.05 3.89 1.84 o
13 2 7 0.08 -0.69 2.10 o
-11 3 7 0.18 6.03 2.30 o
-10 3 7 0.28 0.07 1.72 o
-9 3 7 11.80 14.02 1.29 o
-8 3 7 1.83 3.18 0.73 o
-7 3 7 19.61 20.08 0.87 o
-6 3 7 16.00 14.62 0.73 o
-5 3 7 12.74 12.99 0.65 o
-4 3 7 346.01 304.07 2.92 o
-3 3 7 95.51 75.09 0.99 o
-2 3 7 16.71 25.67 0.53 o
-1 3 7 499.76 519.67 3.93 o
0 3 7 4.68 4.44 0.25 o
1 3 7 86.97 124.91 1.39 o
2 3 7 330.50 317.20 2.90 o
3 3 7 2.69 0.65 0.16 o
4 3 7 164.24 178.78 1.64 o
5 3 7 298.20 271.31 2.12 o
6 3 7 54.35 50.89 0.62 o
7 3 7 10.98 9.57 0.50 o
8 3 7 57.05 55.44 1.36 o
9 3 7 3.09 2.59 0.75 o
10 3 7 4.12 4.70 0.95 o
11 3 7 1.20 1.64 1.20 o
12 3 7 0.58 -0.47 1.57 o
13 3 7 0.22 1.36 2.23 o
-10 4 7 0.22 1.56 1.93 o
-9 4 7 1.25 2.28 1.70 o
-8 4 7 8.07 7.24 1.06 o
-7 4 7 9.38 10.07 0.74 o
-6 4 7 61.99 62.55 1.35 o
-5 4 7 0.19 -0.23 0.48 o
-4 4 7 47.90 53.30 0.90 o
-3 4 7 23.32 31.10 0.69 o
-2 4 7 10.81 3.70 0.40 o
-1 4 7 50.34 43.61 0.58 o
0 4 7 39.26 29.35 0.51 o
1 4 7 333.86 356.50 3.17 o
2 4 7 121.79 129.61 1.29 o
3 4 7 12.29 9.11 0.35 o
4 4 7 86.58 86.72 0.99 o
5 4 7 28.97 28.11 0.58 o
6 4 7 76.21 83.08 1.04 o
7 4 7 27.14 29.83 0.72 o
8 4 7 33.53 31.54 0.95 o
9 4 7 4.22 4.96 0.75 o
10 4 7 2.90 2.67 0.90 o
11 4 7 2.54 3.19 1.32 o
12 4 7 0.00 -1.17 1.57 o
13 4 7 0.05 -1.22 1.98 o
-10 5 7 0.74 2.11 2.09 o
-9 5 7 0.32 2.45 1.37 o
-8 5 7 0.01 1.54 1.20 o
-7 5 7 10.22 11.82 0.83 o
-6 5 7 24.32 20.65 1.03 o
-5 5 7 99.18 93.15 1.47 o
-4 5 7 4.67 5.74 0.47 o
-3 5 7 190.79 172.03 1.75 o
-2 5 7 44.58 57.18 1.19 o
-1 5 7 71.96 50.59 0.87 o
0 5 7 20.03 28.45 0.54 o
1 5 7 328.34 352.30 3.05 o
2 5 7 269.70 292.14 3.19 o
3 5 7 62.44 62.48 0.79 o
4 5 7 77.56 75.79 0.88 o
5 5 7 62.40 63.60 1.03 o
6 5 7 41.46 36.85 0.78 o
7 5 7 25.69 21.25 0.64 o
8 5 7 5.93 6.94 0.63 o
9 5 7 4.14 2.71 0.61 o
10 5 7 1.81 3.01 0.88 o
11 5 7 2.60 1.08 1.42 o
12 5 7 0.15 0.66 1.49 o
13 5 7 0.52 4.78 1.93 o
-10 6 7 0.23 1.70 2.79 o
-9 6 7 3.52 3.84 1.64 o
-8 6 7 0.38 2.01 1.16 o
-7 6 7 4.79 4.76 0.85 o
-6 6 7 0.72 0.62 0.69 o
-5 6 7 7.86 10.23 0.72 o
-4 6 7 27.80 27.39 0.90 o
-3 6 7 41.80 44.11 0.87 o
-2 6 7 8.50 7.55 0.75 o
-1 6 7 398.96 351.35 5.42 o
0 6 7 3.47 5.35 0.52 o
1 6 7 65.92 60.49 0.73 o
2 6 7 10.93 12.72 0.61 o
3 6 7 230.09 245.38 2.22 o
4 6 7 51.86 50.90 0.72 o
5 6 7 326.49 328.43 3.18 o
6 6 7 24.96 24.84 0.78 o
7 6 7 18.52 18.27 0.74 o
8 6 7 78.44 78.84 1.16 o
9 6 7 7.51 8.42 0.74 o
10 6 7 28.96 28.14 1.68 o
11 6 7 0.01 -1.31 1.31 o
12 6 7 1.42 3.04 1.45 o
13 6 7 0.09 -1.76 1.87 o
-9 7 7 1.89 1.69 2.01 o
-8 7 7 1.31 0.50 1.61 o
-7 7 7 1.44 2.23 1.07 o
-6 7 7 9.21 9.58 0.89 o
-5 7 7 0.31 0.35 0.65 o
-4 7 7 23.81 24.27 0.95 o
-3 7 7 25.37 21.70 1.12 o
-2 7 7 65.26 54.37 1.13 o
-1 7 7 1.83 3.91 0.49 o
0 7 7 22.44 29.66 0.62 o
1 7 7 125.44 110.34 1.09 o
2 7 7 582.84 590.66 5.29 o
3 7 7 2.87 2.56 0.30 o
4 7 7 384.37 371.42 3.45 o
5 7 7 159.68 158.04 1.77 o
6 7 7 251.92 247.86 2.95 o
7 7 7 31.02 27.11 0.89 o
8 7 7 13.38 11.21 0.68 o
9 7 7 4.88 6.11 0.72 o
10 7 7 6.35 7.30 1.06 o
11 7 7 4.51 4.34 1.33 o
12 7 7 0.19 -1.38 1.44 o
13 7 7 0.28 4.17 1.94 o
-9 8 7 0.04 -2.33 2.33 o
-8 8 7 2.54 4.77 2.19 o
-7 8 7 3.54 3.96 1.38 o
-6 8 7 34.58 36.41 1.69 o
-5 8 7 3.30 2.67 0.84 o
-4 8 7 0.14 0.32 0.63 o
-3 8 7 3.45 3.56 0.54 o
-2 8 7 0.82 0.45 0.51 o
-1 8 7 107.73 119.59 1.73 o
0 8 7 30.41 35.99 0.74 o
1 8 7 36.80 28.07 0.65 o
2 8 7 59.47 58.27 0.88 o
3 8 7 31.67 28.10 0.65 o
4 8 7 197.25 186.29 2.30 o
5 8 7 69.38 78.11 1.18 o
6 8 7 97.02 94.39 1.31 o
7 8 7 24.55 22.89 0.87 o
8 8 7 6.39 6.14 0.64 o
9 8 7 10.18 13.85 0.96 o
10 8 7 2.11 2.09 1.02 o
11 8 7 1.66 0.23 1.43 o
12 8 7 2.15 5.40 1.86 o
13 8 7 0.20 -1.90 1.90 o
-8 9 7 0.61 -0.86 2.42 o
-7 9 7 0.29 3.25 1.80 o
-6 9 7 4.77 8.82 1.76 o
-5 9 7 18.06 20.28 1.65 o
-4 9 7 0.35 0.05 0.77 o
-3 9 7 29.47 32.29 1.23 o
-2 9 7 3.27 3.89 1.10 o
-1 9 7 5.85 3.28 0.51 o
0 9 7 285.50 255.78 2.89 o
1 9 7 21.86 18.87 0.67 o
2 9 7 4.53 6.02 0.35 o
3 9 7 22.54 17.68 0.73 o
4 9 7 2.94 2.95 0.56 o
5 9 7 83.13 79.27 1.24 o
6 9 7 49.74 47.76 1.09 o
7 9 7 5.78 6.62 0.58 o
8 9 7 0.70 1.42 0.63 o
9 9 7 23.66 22.41 1.18 o
10 9 7 6.03 6.63 1.29 o
11 9 7 0.38 -1.11 1.46 o
12 9 7 0.03 -2.00 2.50 o
13 9 7 0.55 2.71 2.19 o
-7 10 7 3.56 5.24 2.33 o
-6 10 7 4.43 7.14 1.73 o
-5 10 7 1.88 4.53 1.40 o
-4 10 7 0.32 0.49 1.02 o
-3 10 7 36.60 39.71 1.42 o
-2 10 7 0.00 0.07 0.65 o
-1 10 7 5.72 5.96 0.48 o
0 10 7 1.10 4.12 0.53 o
1 10 7 3.27 4.59 0.53 o
2 10 7 49.50 40.60 1.05 o
3 10 7 121.37 116.77 1.36 o
4 10 7 2.63 1.21 0.52 o
5 10 7 32.60 28.77 1.21 o
6 10 7 46.27 45.17 1.02 o
7 10 7 1.40 1.84 0.64 o
8 10 7 40.59 39.88 1.46 o
9 10 7 0.33 0.87 0.91 o
10 10 7 9.52 12.06 1.30 o
11 10 7 0.65 0.52 1.54 o
12 10 7 0.07 6.25 2.01 o
13 10 7 0.01 -1.72 2.47 o
-7 11 7 0.76 1.95 2.67 o
-6 11 7 5.82 5.58 3.43 o
-5 11 7 0.07 0.44 1.48 o
-4 11 7 1.66 3.76 1.24 o
-3 11 7 1.49 1.94 1.07 o
-2 11 7 15.43 15.25 1.03 o
-1 11 7 0.92 1.55 0.58 o
0 11 7 48.77 49.55 1.23 o
1 11 7 0.02 -0.01 0.50 o
2 11 7 11.99 10.22 0.67 o
3 11 7 22.58 24.98 0.89 o
4 11 7 21.76 17.47 0.94 o
5 11 7 11.57 11.80 0.86 o
6 11 7 2.11 1.25 0.73 o
7 11 7 14.23 14.46 1.69 o
8 11 7 12.67 12.11 1.03 o
9 11 7 13.46 14.58 1.31 o
10 11 7 2.92 1.28 2.25 o
11 11 7 8.40 8.73 1.97 o
12 11 7 1.72 3.84 2.05 o
13 11 7 5.29 1.19 3.61 o
-6 12 7 0.55 -2.35 2.35 o
-5 12 7 0.63 -0.38 2.64 o
-4 12 7 1.60 -1.46 1.46 o
-3 12 7 2.73 3.52 1.11 o
-2 12 7 1.79 2.31 0.97 o
-1 12 7 0.78 0.59 0.83 o
0 12 7 0.01 1.19 0.77 o
1 12 7 3.12 4.49 0.83 o
2 12 7 24.53 26.68 1.05 o
3 12 7 7.84 5.06 0.68 o
4 12 7 59.96 54.50 1.41 o
5 12 7 0.87 1.10 0.66 o
6 12 7 5.95 5.16 0.77 o
7 12 7 2.30 4.32 0.90 o
8 12 7 1.09 0.93 0.98 o
9 12 7 18.19 18.35 1.69 o
10 12 7 0.62 0.60 1.28 o
11 12 7 4.92 6.09 1.80 o
12 12 7 0.08 1.37 1.94 o
-5 13 7 0.20 -1.95 1.95 o
-4 13 7 0.17 -1.47 1.67 o
-3 13 7 5.15 5.30 1.42 o
-2 13 7 8.16 8.06 1.35 o
-1 13 7 2.70 2.62 1.03 o
0 13 7 4.38 4.05 1.00 o
1 13 7 0.67 0.33 0.87 o
2 13 7 11.59 7.88 0.91 o
3 13 7 17.66 12.65 1.20 o
4 13 7 3.79 5.04 0.96 o
5 13 7 7.90 7.75 0.83 o
6 13 7 19.32 19.58 1.10 o
7 13 7 9.14 9.18 1.14 o
8 13 7 0.05 -0.47 1.16 o
9 13 7 0.20 1.84 1.31 o
10 13 7 4.93 7.48 2.48 o
11 13 7 0.00 1.73 2.14 o
12 13 7 5.37 8.84 2.85 o
-4 14 7 0.08 -0.38 2.04 o
-3 14 7 0.03 1.16 1.60 o
-2 14 7 1.57 1.28 1.44 o
-1 14 7 0.64 1.90 1.58 o
0 14 7 12.84 17.07 1.86 o
1 14 7 1.56 1.39 1.18 o
2 14 7 33.26 33.62 1.68 o
3 14 7 15.08 15.48 1.34 o
4 14 7 3.55 3.11 1.16 o
5 14 7 2.35 1.37 1.06 o
6 14 7 3.55 3.59 1.61 o
7 14 7 0.90 0.42 1.32 o
8 14 7 12.47 12.47 2.14 o
9 14 7 1.38 2.98 1.52 o
10 14 7 3.29 5.27 2.70 o
11 14 7 0.90 4.96 3.00 o
-3 15 7 0.32 0.70 2.77 o
-2 15 7 0.26 -0.94 1.72 o
-1 15 7 1.57 0.59 1.52 o
0 15 7 0.28 -0.35 1.62 o
1 15 7 3.66 3.76 2.22 o
2 15 7 0.09 -1.51 1.62 o
3 15 7 8.70 6.59 1.59 o
4 15 7 0.82 0.68 1.39 o
5 15 7 3.47 3.76 1.96 o
6 15 7 0.01 -0.21 1.62 o
7 15 7 0.05 -1.51 1.58 o
8 15 7 2.29 2.05 1.73 o
9 15 7 4.92 11.41 2.65 o
10 15 7 0.30 2.62 2.52 o
11 15 7 4.08 4.79 3.63 o
-2 16 7 0.04 1.18 2.86 o
-1 16 7 1.05 3.69 2.57 o
0 16 7 0.22 0.78 2.01 o
1 16 7 0.56 -1.05 1.79 o
2 16 7 3.87 4.92 1.68 o
3 16 7 0.95 3.40 2.03 o
4 16 7 6.86 8.22 1.82 o
5 16 7 1.71 -1.36 1.93 o
6 16 7 0.01 -0.22 1.97 o
7 16 7 0.28 -1.85 1.85 o
8 16 7 1.39 0.14 2.51 o
9 16 7 4.69 8.58 2.31 o
10 16 7 0.90 2.61 3.27 o
0 17 7 0.99 5.33 2.45 o
1 17 7 0.76 1.91 2.23 o
2 17 7 1.26 0.44 2.04 o
3 17 7 2.02 3.37 1.99 o
4 17 7 0.40 0.60 2.51 o
5 17 7 3.19 2.41 2.38 o
6 17 7 1.71 0.43 3.08 o
7 17 7 1.73 3.09 2.55 o
8 17 7 0.12 1.60 2.63 o
9 17 7 0.03 1.94 3.05 o
2 18 7 4.73 3.90 2.62 o
3 18 7 1.75 6.28 3.01 o
4 18 7 0.09 1.13 2.81 o
5 18 7 1.07 1.23 2.87 o
6 18 7 0.08 -0.18 2.86 o
7 18 7 1.99 3.18 3.64 o
-6 -17 8 0.59 2.00 3.00 o
-5 -17 8 0.13 1.74 3.09 o
-4 -17 8 0.65 -0.45 2.65 o
-3 -17 8 0.41 0.52 2.96 o
-2 -17 8 0.00 -0.67 3.22 o
-8 -16 8 0.23 -1.47 3.30 o
-7 -16 8 1.64 -1.93 2.46 o
-6 -16 8 2.93 4.47 2.43 o
-5 -16 8 1.69 1.34 2.65 o
-4 -16 8 0.85 4.11 2.30 o
-3 -16 8 1.08 1.27 2.25 o
-2 -16 8 0.69 -1.28 1.82 o
-1 -16 8 0.28 2.94 1.95 o
0 -16 8 0.01 -0.15 2.19 o
1 -16 8 0.34 -2.53 2.53 o
-9 -15 8 3.98 5.03 3.09 o
-8 -15 8 4.85 6.44 2.19 o
-7 -15 8 0.15 1.49 1.97 o
-6 -15 8 0.54 2.08 2.37 o
-5 -15 8 9.82 8.23 1.78 o
-4 -15 8 0.16 0.96 1.80 o
-3 -15 8 1.32 -0.34 1.55 o
-2 -15 8 1.60 -0.84 1.53 o
-1 -15 8 1.72 5.61 1.87 o
0 -15 8 0.19 -1.43 2.28 o
1 -15 8 0.03 -1.67 1.69 o
2 -15 8 0.22 -0.11 2.04 o
-10 -14 8 1.14 6.13 3.34 o
-9 -14 8 6.72 5.04 2.09 o
-8 -14 8 7.33 8.07 1.95 o
-7 -14 8 3.07 2.83 1.75 o
-6 -14 8 7.05 6.39 1.67 o
-5 -14 8 0.24 2.14 1.46 o
-4 -14 8 7.24 8.43 1.55 o
-3 -14 8 0.67 -0.29 1.20 o
-2 -14 8 1.20 -0.82 1.52 o
-1 -14 8 4.64 4.05 1.42 o
0 -14 8 0.20 -0.53 1.41 o
1 -14 8 0.57 0.13 1.54 o
2 -14 8 1.63 2.22 1.73 o
3 -14 8 1.01 -1.74 1.74 o
4 -14 8 0.01 -1.20 2.64 o
-10 -13 8 10.52 11.36 8.58 o
-9 -13 8 0.32 -1.87 1.87 o
-8 -13 8 9.96 12.60 1.83 o
-7 -13 8 9.27 10.41 2.56 o
-6 -13 8 16.20 16.75 1.32 o
-5 -13 8 0.02 -1.03 1.03 o
-4 -13 8 0.16 0.07 1.22 o
-3 -13 8 1.46 0.79 1.39 o
-2 -13 8 1.43 0.49 1.02 o
-1 -13 8 10.22 7.93 1.21 o
0 -13 8 4.35 5.62 1.20 o
1 -13 8 0.12 0.33 1.06 o
2 -13 8 0.04 -0.54 1.20 o
3 -13 8 1.02 2.01 2.38 o
4 -13 8 0.18 2.40 1.66 o
5 -13 8 0.41 0.34 2.07 o
-11 -12 8 1.00 -2.26 2.53 o
-10 -12 8 0.75 0.85 2.18 o
-9 -12 8 3.58 2.91 1.67 o
-8 -12 8 2.14 3.61 1.34 o
-7 -12 8 9.33 16.47 2.24 o
-6 -12 8 14.30 10.44 1.52 o
-5 -12 8 18.53 16.89 1.00 o
-4 -12 8 2.33 3.28 0.95 o
-3 -12 8 2.75 0.64 0.70 o
-2 -12 8 0.66 -0.73 0.73 o
-1 -12 8 22.52 18.93 1.03 o
0 -12 8 16.88 19.97 1.18 o
1 -12 8 0.77 -0.23 0.96 o
2 -12 8 0.05 0.96 1.12 o
3 -12 8 0.00 0.27 1.40 o
4 -12 8 0.05 0.08 1.38 o
5 -12 8 3.56 4.04 2.06 o
6 -12 8 1.98 4.12 2.11 o
-11 -11 8 0.65 1.92 2.16 o
-10 -11 8 6.41 9.49 1.83 o
-9 -11 8 2.19 -1.67 1.69 o
-8 -11 8 6.09 7.41 1.46 o
-7 -11 8 47.45 42.33 1.91 o
-6 -11 8 2.30 4.42 0.87 o
-5 -11 8 53.80 56.68 1.83 o
-4 -11 8 0.95 0.54 0.73 o
-3 -11 8 31.80 38.14 1.18 o
-2 -11 8 1.54 1.46 0.57 o
-1 -11 8 0.08 -0.68 0.68 o
0 -11 8 1.32 0.32 0.57 o
1 -11 8 0.80 1.37 0.76 o
2 -11 8 0.27 -0.29 0.86 o
3 -11 8 1.51 1.09 1.03 o
4 -11 8 0.30 1.23 1.46 o
5 -11 8 4.07 7.85 1.50 o
6 -11 8 0.30 0.40 1.85 o
-11 -10 8 6.30 8.43 2.07 o
-10 -10 8 9.92 13.39 2.62 o
-9 -10 8 13.18 11.45 1.37 o
-8 -10 8 21.64 24.95 1.98 o
-7 -10 8 11.52 12.65 1.00 o
-6 -10 8 32.40 31.82 1.46 o
-5 -10 8 0.00 1.33 0.79 o
-4 -10 8 1.26 1.84 0.61 o
-3 -10 8 0.03 0.30 0.53 o
-2 -10 8 6.39 4.74 0.59 o
-1 -10 8 3.32 3.12 0.49 o
0 -10 8 4.55 5.20 0.57 o
1 -10 8 0.28 -0.29 0.77 o
2 -10 8 11.96 10.77 0.81 o
3 -10 8 0.01 -0.15 0.80 o
4 -10 8 0.71 -0.38 1.28 o
5 -10 8 0.01 -0.61 1.16 o
6 -10 8 0.02 0.08 1.61 o
7 -10 8 1.04 2.93 2.14 o
-12 -9 8 0.09 -1.53 2.39 o
-11 -9 8 0.01 -2.01 2.01 o
-10 -9 8 4.37 4.78 1.55 o
-9 -9 8 1.37 1.11 1.09 o
-8 -9 8 21.46 20.63 1.04 o
-7 -9 8 1.49 2.12 0.62 o
-6 -9 8 47.94 41.08 1.42 o
-5 -9 8 11.20 11.49 0.67 o
-4 -9 8 1.87 2.23 0.47 o
-3 -9 8 5.20 7.18 0.56 o
-2 -9 8 7.61 5.19 0.54 o
-1 -9 8 0.68 0.98 0.43 o
0 -9 8 1.02 1.13 0.40 o
1 -9 8 0.00 -0.14 0.43 o
2 -9 8 13.24 12.60 0.76 o
3 -9 8 3.08 2.94 0.60 o
4 -9 8 7.30 7.49 0.71 o
5 -9 8 0.73 0.88 1.16 o
6 -9 8 0.12 -0.93 1.15 o
7 -9 8 0.01 -1.74 1.74 o
8 -9 8 1.49 0.04 2.21 o
-12 -8 8 0.11 -0.60 2.91 o
-11 -8 8 1.99 1.26 2.19 o
-10 -8 8 0.96 0.17 1.78 o
-9 -8 8 20.92 22.37 1.72 o
-8 -8 8 6.02 7.12 0.80 o
-7 -8 8 6.69 7.58 0.70 o
-6 -8 8 21.06 21.19 0.92 o
-5 -8 8 3.11 4.08 0.56 o
-4 -8 8 13.63 11.57 0.56 o
-3 -8 8 6.30 6.54 0.44 o
-2 -8 8 16.80 17.10 0.64 o
-1 -8 8 21.51 14.77 0.52 o
0 -8 8 21.00 17.12 0.75 o
1 -8 8 0.53 0.11 0.42 o
2 -8 8 22.88 21.25 0.87 o
3 -8 8 2.35 3.44 0.60 o
4 -8 8 0.02 -0.59 0.59 o
5 -8 8 0.02 0.36 0.63 o
6 -8 8 0.89 1.42 1.46 o
7 -8 8 0.02 1.59 1.44 o
8 -8 8 0.00 -0.94 1.81 o
9 -8 8 0.03 0.05 2.22 o
-12 -7 8 0.84 0.25 4.72 o
-11 -7 8 0.16 -1.95 1.95 o
-10 -7 8 0.02 2.25 1.81 o
-9 -7 8 19.36 19.17 1.30 o
-8 -7 8 0.07 -0.16 0.73 o
-7 -7 8 47.96 44.33 1.20 o
-6 -7 8 1.57 0.54 0.51 o
-5 -7 8 5.55 4.72 0.41 o
-4 -7 8 0.88 1.85 0.35 o
-3 -7 8 0.73 -0.20 0.32 o
-2 -7 8 0.35 3.33 0.35 o
-1 -7 8 6.10 4.67 0.41 o
0 -7 8 132.42 127.96 1.57 o
1 -7 8 10.09 12.74 0.62 o
2 -7 8 41.99 34.42 0.89 o
3 -7 8 58.60 60.43 1.19 o
4 -7 8 5.59 5.86 0.51 o
5 -7 8 20.07 19.20 0.83 o
6 -7 8 0.13 0.30 0.66 o
7 -7 8 0.37 1.41 0.90 o
8 -7 8 0.50 1.07 1.42 o
9 -7 8 2.26 -0.90 2.12 o
-12 -6 8 2.49 0.26 3.80 o
-11 -6 8 6.46 4.67 2.24 o
-10 -6 8 1.44 0.93 1.46 o
-9 -6 8 1.84 2.19 0.91 o
-8 -6 8 1.39 2.12 0.78 o
-7 -6 8 32.80 37.01 1.21 o
-6 -6 8 71.48 72.69 1.45 o
-5 -6 8 7.71 6.00 0.45 o
-4 -6 8 88.67 93.32 1.02 o
-3 -6 8 23.88 24.27 0.57 o
-2 -6 8 29.42 30.92 0.59 o
-1 -6 8 580.62 538.82 4.41 o
0 -6 8 13.55 18.87 0.63 o
1 -6 8 133.80 122.43 1.44 o
2 -6 8 0.75 1.51 0.40 o
3 -6 8 20.25 18.66 0.62 o
4 -6 8 1.53 2.45 0.48 o
5 -6 8 1.45 1.07 0.59 o
6 -6 8 1.40 0.26 0.58 o
7 -6 8 0.13 -0.76 0.76 o
8 -6 8 0.00 -0.69 1.11 o
9 -6 8 1.31 1.82 1.80 o
10 -6 8 0.25 1.52 2.59 o
-12 -5 8 0.00 3.45 2.54 o
-11 -5 8 14.26 16.26 2.03 o
-10 -5 8 3.98 4.20 1.38 o
-9 -5 8 15.76 17.87 1.12 o
-8 -5 8 12.85 10.67 0.86 o
-7 -5 8 1.56 2.80 0.59 o
-6 -5 8 41.89 41.74 0.92 o
-5 -5 8 78.41 72.61 1.10 o
-4 -5 8 3.41 2.51 0.35 o
-3 -5 8 141.17 140.39 1.22 o
-2 -5 8 125.39 113.60 1.10 o
-1 -5 8 106.76 94.14 1.02 o
0 -5 8 144.93 121.64 1.29 o
1 -5 8 127.30 124.10 1.68 o
2 -5 8 80.36 72.79 0.99 o
3 -5 8 21.26 19.95 0.56 o
4 -5 8 15.62 14.53 0.69 o
5 -5 8 13.60 14.36 0.69 o
6 -5 8 2.48 2.98 0.58 o
7 -5 8 0.00 -0.63 0.63 o
8 -5 8 0.01 0.21 1.14 o
9 -5 8 0.01 0.34 1.26 o
10 -5 8 0.09 0.95 2.80 o
-12 -4 8 2.63 2.19 3.40 o
-11 -4 8 1.30 3.17 1.86 o
-10 -4 8 0.00 2.62 1.73 o
-9 -4 8 2.96 3.78 1.10 o
-8 -4 8 66.19 61.49 1.43 o
-7 -4 8 0.03 -0.01 0.56 o
-6 -4 8 18.26 20.32 0.73 o
-5 -4 8 5.47 5.95 0.45 o
-4 -4 8 74.24 82.26 1.08 o
-3 -4 8 474.36 463.63 4.03 o
-2 -4 8 297.91 283.50 1.95 o
-1 -4 8 31.31 24.39 0.70 o
0 -4 8 46.98 39.89 0.70 o
1 -4 8 6.37 6.87 0.47 o
2 -4 8 14.98 14.89 0.60 o
3 -4 8 32.86 28.03 0.72 o
4 -4 8 6.07 5.27 0.43 o
5 -4 8 17.08 16.39 0.74 o
6 -4 8 10.27 9.14 0.64 o
7 -4 8 0.21 0.88 0.60 o
8 -4 8 3.38 3.54 0.86 o
9 -4 8 0.00 1.37 1.43 o
10 -4 8 0.11 -0.29 1.64 o
11 -4 8 1.01 0.88 2.99 o
-12 -3 8 1.41 -3.46 3.46 o
-11 -3 8 11.88 12.31 2.27 o
-10 -3 8 1.12 0.35 1.62 o
-9 -3 8 34.51 36.48 1.65 o
-8 -3 8 15.01 17.68 1.06 o
-7 -3 8 22.23 17.91 0.78 o
-6 -3 8 6.92 5.50 0.52 o
-5 -3 8 36.83 35.99 0.81 o
-4 -3 8 475.73 470.75 4.10 o
-3 -3 8 188.11 164.22 1.67 o
-2 -3 8 217.05 219.25 1.75 o
-1 -3 8 45.42 39.06 0.64 o
0 -3 8 183.67 202.40 2.15 o
1 -3 8 0.08 -0.07 0.26 o
2 -3 8 164.67 153.60 1.67 o
3 -3 8 124.47 127.48 1.43 o
4 -3 8 0.46 0.26 0.38 o
5 -3 8 2.03 1.50 0.42 o
6 -3 8 15.77 17.93 0.90 o
7 -3 8 10.76 11.84 0.73 o
8 -3 8 0.36 -0.57 0.76 o
9 -3 8 0.03 1.21 0.89 o
10 -3 8 0.14 -0.81 1.33 o
11 -3 8 0.12 -2.79 2.96 o
-12 -2 8 0.07 -1.62 3.41 o
-11 -2 8 4.15 5.52 2.00 o
-10 -2 8 8.88 10.64 1.59 o
-9 -2 8 25.97 27.24 1.52 o
-8 -2 8 2.73 3.92 0.64 o
-7 -2 8 25.16 23.27 0.98 o
-6 -2 8 7.20 6.07 0.48 o
-5 -2 8 14.88 15.91 0.56 o
-4 -2 8 52.61 48.39 0.79 o
-3 -2 8 686.72 703.98 5.59 o
-2 -2 8 104.88 91.01 1.12 o
-1 -2 8 1134.33 1088.72 8.90 o
0 -2 8 3.27 5.05 0.39 o
1 -2 8 103.38 118.48 1.34 o
2 -2 8 421.74 398.70 3.69 o
3 -2 8 4.89 6.21 0.47 o
4 -2 8 75.05 81.05 1.03 o
5 -2 8 4.06 5.50 0.59 o
6 -2 8 11.92 10.53 0.67 o
7 -2 8 4.94 5.80 0.68 o
8 -2 8 23.48 26.80 1.27 o
9 -2 8 3.35 1.72 0.94 o
10 -2 8 0.30 -1.19 1.19 o
11 -2 8 0.02 1.20 1.75 o
-11 -1 8 3.70 0.56 2.01 o
-10 -1 8 3.38 3.30 1.70 o
-9 -1 8 3.88 4.11 1.11 o
-8 -1 8 27.60 27.37 1.27 o
-7 -1 8 7.71 6.79 0.75 o
-6 -1 8 1.12 0.65 0.39 o
-5 -1 8 32.96 36.41 0.72 o
-4 -1 8 283.10 257.13 2.31 o
-3 -1 8 65.86 61.37 0.87 o
-2 -1 8 53.33 51.20 0.75 o
-1 -1 8 4.53 6.95 0.32 o
0 -1 8 185.24 184.29 1.86 o
1 -1 8 233.22 263.36 2.27 o
2 -1 8 388.22 373.32 3.27 o
3 -1 8 0.01 0.71 0.26 o
4 -1 8 6.11 8.07 0.38 o
5 -1 8 10.66 11.93 0.62 o
6 -1 8 11.69 11.45 0.60 o
7 -1 8 0.50 0.05 0.55 o
8 -1 8 1.03 1.78 0.67 o
9 -1 8 0.08 -0.19 0.78 o
10 -1 8 1.02 0.59 1.15 o
11 -1 8 0.06 2.05 1.47 o
12 -1 8 0.20 0.02 2.78 o
-11 0 8 0.33 2.72 2.32 o
-10 0 8 10.31 7.97 2.22 o
-9 0 8 0.06 0.78 0.94 o
-8 0 8 49.31 45.81 1.37 o
-7 0 8 2.05 2.97 0.58 o
-6 0 8 12.29 11.60 0.54 o
-5 0 8 98.25 83.55 1.12 o
-4 0 8 6.31 3.15 0.42 o
-3 0 8 103.19 103.60 1.29 o
-2 0 8 269.01 296.92 3.03 o
-1 0 8 26.12 26.75 0.56 o
0 0 8 415.82 390.55 3.57 o
1 0 8 19.86 21.53 0.51 o
2 0 8 203.21 192.76 1.75 o
3 0 8 183.29 177.82 1.56 o
4 0 8 94.59 91.75 0.92 o
5 0 8 0.40 1.26 0.35 o
6 0 8 7.53 6.22 0.48 o
7 0 8 12.49 11.87 0.68 o
8 0 8 14.24 12.86 0.78 o
9 0 8 11.86 11.56 0.86 o
10 0 8 0.00 1.04 1.51 o
11 0 8 0.12 -1.70 1.70 o
12 0 8 1.05 0.14 2.01 o
-11 1 8 3.13 7.19 2.35 o
-10 1 8 12.54 10.00 1.60 o
-9 1 8 6.57 5.23 0.99 o
-8 1 8 0.35 0.70 0.96 o
-7 1 8 0.49 0.13 0.59 o
-6 1 8 25.10 22.70 0.91 o
-5 1 8 0.44 0.39 0.38 o
-4 1 8 52.92 63.97 1.11 o
-3 1 8 26.42 23.74 0.71 o
-2 1 8 176.39 149.82 1.52 o
-1 1 8 117.87 143.49 1.28 o
0 1 8 294.29 310.92 2.74 o
1 1 8 11.67 14.24 0.41 o
2 1 8 107.21 111.24 1.06 o
3 1 8 45.82 48.34 0.65 o
4 1 8 46.82 43.76 0.55 o
5 1 8 92.90 101.82 0.87 o
6 1 8 31.42 28.87 0.87 o
7 1 8 20.69 20.96 0.88 o
8 1 8 20.37 21.81 1.08 o
9 1 8 0.02 -0.82 0.82 o
10 1 8 6.27 7.14 1.61 o
11 1 8 0.31 -1.33 1.33 o
12 1 8 0.30 1.68 2.07 o
-11 2 8 3.23 3.98 2.50 o
-10 2 8 0.43 1.32 1.70 o
-9 2 8 8.62 9.31 1.20 o
-8 2 8 8.57 9.11 0.87 o
-7 2 8 13.99 13.12 0.74 o
-6 2 8 2.15 3.67 0.50 o
-5 2 8 0.59 1.30 0.32 o
-4 2 8 12.11 10.37 0.73 o
-3 2 8 191.95 144.18 1.83 o
-2 2 8 118.83 149.35 1.49 o
-1 2 8 4.36 4.38 0.24 o
0 2 8 83.88 95.67 1.05 o
1 2 8 201.79 188.73 1.87 o
2 2 8 60.87 56.06 0.74 o
3 2 8 82.49 84.30 0.87 o
4 2 8 122.44 124.57 1.08 o
5 2 8 38.36 31.37 0.48 o
6 2 8 193.87 174.06 1.67 o
7 2 8 1.37 1.94 0.43 o
8 2 8 29.54 28.17 1.21 o
9 2 8 2.42 2.32 0.87 o
10 2 8 17.79 20.74 1.52 o
11 2 8 0.68 1.73 1.28 o
12 2 8 0.01 0.35 1.74 o
-10 3 8 0.95 4.41 2.10 o
-9 3 8 3.41 2.15 1.43 o
-8 3 8 8.16 7.23 0.96 o
-7 3 8 8.92 8.67 0.74 o
-6 3 8 17.78 15.39 0.72 o
-5 3 8 0.02 0.46 0.50 o
-4 3 8 4.84 6.83 0.70 o
-3 3 8 1.38 0.21 0.32 o
-2 3 8 4.96 6.39 0.36 o
-1 3 8 157.50 133.95 1.22 o
0 3 8 0.16 0.62 0.20 o
1 3 8 213.32 218.28 1.90 o
2 3 8 35.54 35.08 0.57 o
3 3 8 36.73 38.07 0.78 o
4 3 8 312.47 302.65 2.73 o
5 3 8 3.85 4.47 0.29 o
6 3 8 119.17 117.03 1.16 o
7 3 8 47.04 47.32 0.91 o
8 3 8 12.00 13.26 0.87 o
9 3 8 11.00 10.90 0.92 o
10 3 8 0.77 2.17 1.05 o
11 3 8 3.52 2.40 1.45 o
12 3 8 0.13 -1.06 1.63 o
13 3 8 0.08 3.04 3.16 o
-10 4 8 0.61 4.33 2.32 o
-9 4 8 0.02 0.53 1.26 o
-8 4 8 0.90 1.39 1.11 o
-7 4 8 0.22 0.80 0.69 o
-6 4 8 8.86 9.88 0.75 o
-5 4 8 35.57 38.17 1.28 o
-4 4 8 13.56 14.61 0.70 o
-3 4 8 33.63 29.99 0.73 o
-2 4 8 360.47 305.42 3.14 o
-1 4 8 221.11 256.09 2.34 o
0 4 8 285.81 293.83 2.37 o
1 4 8 46.21 54.92 0.83 o
2 4 8 256.28 233.69 2.28 o
3 4 8 14.31 13.80 0.60 o
4 4 8 24.97 29.33 0.70 o
5 4 8 100.12 91.08 1.12 o
6 4 8 48.79 48.64 0.66 o
7 4 8 48.75 45.25 0.99 o
8 4 8 0.07 1.49 0.63 o
9 4 8 10.28 8.99 0.85 o
10 4 8 2.89 2.73 0.95 o
11 4 8 1.53 0.86 1.34 o
12 4 8 0.44 0.56 2.48 o
13 4 8 0.35 -1.39 2.03 o
-10 5 8 0.32 4.45 5.07 o
-9 5 8 2.75 4.18 1.97 o
-8 5 8 1.95 2.91 1.20 o
-7 5 8 3.05 4.89 0.81 o
-6 5 8 3.79 2.91 0.68 o
-5 5 8 0.01 -0.21 0.55 o
-4 5 8 58.91 55.01 1.24 o
-3 5 8 21.63 24.18 0.76 o
-2 5 8 24.34 33.09 0.83 o
-1 5 8 89.46 79.24 1.03 o
0 5 8 116.74 101.73 1.22 o
1 5 8 4.88 4.84 0.32 o
2 5 8 81.08 84.19 0.98 o
3 5 8 258.42 268.62 2.59 o
4 5 8 2.71 4.14 0.52 o
5 5 8 102.58 100.56 1.16 o
6 5 8 76.35 72.13 1.35 o
7 5 8 0.68 -0.08 0.44 o
8 5 8 44.85 49.11 1.33 o
9 5 8 5.36 5.45 0.71 o
10 5 8 8.23 9.52 1.01 o
11 5 8 0.04 0.34 1.22 o
12 5 8 0.49 2.95 1.68 o
13 5 8 0.35 -0.93 2.04 o
-9 6 8 3.05 2.31 1.96 o
-8 6 8 7.20 6.26 1.42 o
-7 6 8 1.63 4.13 1.08 o
-6 6 8 4.38 3.26 0.78 o
-5 6 8 3.76 5.08 0.76 o
-4 6 8 141.92 142.94 2.12 o
-3 6 8 100.48 100.15 1.62 o
-2 6 8 43.59 37.87 0.97 o
-1 6 8 205.22 181.41 2.28 o
0 6 8 97.64 111.30 1.19 o
1 6 8 51.03 41.82 0.73 o
2 6 8 42.72 39.57 1.02 o
3 6 8 299.21 302.97 2.92 o
4 6 8 59.39 59.14 0.85 o
5 6 8 10.54 9.50 0.54 o
6 6 8 50.34 47.57 1.13 o
7 6 8 0.07 0.35 0.58 o
8 6 8 41.03 38.16 1.23 o
9 6 8 0.01 0.27 0.68 o
10 6 8 13.57 13.47 1.22 o
11 6 8 2.30 3.03 1.40 o
12 6 8 0.43 1.87 1.88 o
13 6 8 0.33 -0.28 2.04 o
-9 7 8 0.02 3.79 2.21 o
-8 7 8 4.62 4.45 2.25 o
-7 7 8 0.34 1.64 1.33 o
-6 7 8 28.93 26.15 1.39 o
-5 7 8 0.64 1.38 0.77 o
-4 7 8 2.15 3.10 0.68 o
-3 7 8 7.22 4.85 0.63 o
-2 7 8 4.08 7.26 0.94 o
-1 7 8 60.48 72.23 1.20 o
0 7 8 21.94 14.98 0.60 o
1 7 8 144.42 140.90 1.47 o
2 7 8 0.55 1.24 0.32 o
3 7 8 51.60 48.70 0.84 o
4 7 8 55.40 52.88 0.88 o
5 7 8 77.14 75.73 1.29 o
6 7 8 75.51 75.45 1.42 o
7 7 8 31.77 31.15 1.01 o
8 7 8 14.42 14.94 1.02 o
9 7 8 0.22 0.69 0.64 o
10 7 8 2.79 4.48 1.11 o
11 7 8 5.25 8.32 1.96 o
12 7 8 0.27 0.90 1.72 o
13 7 8 1.41 -2.00 2.00 o
-8 8 8 0.10 0.63 2.24 o
-7 8 8 0.05 0.52 1.87 o
-6 8 8 19.73 27.76 1.95 o
-5 8 8 20.36 22.48 1.33 o
-4 8 8 0.01 -0.57 0.71 o
-3 8 8 13.56 13.40 0.85 o
-2 8 8 5.16 8.79 0.71 o
-1 8 8 1.10 0.71 0.47 o
0 8 8 245.88 199.05 2.16 o
1 8 8 6.71 4.11 0.36 o
2 8 8 18.18 19.83 0.61 o
3 8 8 81.69 84.30 1.07 o
4 8 8 5.49 4.64 0.37 o
5 8 8 20.12 21.60 0.85 o
6 8 8 11.25 11.81 0.81 o
7 8 8 76.31 74.55 1.35 o
8 8 8 2.61 2.26 0.70 o
9 8 8 48.43 44.60 1.53 o
10 8 8 6.09 8.12 1.65 o
11 8 8 4.66 5.42 1.86 o
12 8 8 1.86 0.47 2.27 o
13 8 8 0.15 -2.03 2.26 o
-8 9 8 0.70 -1.14 2.66 o
-7 9 8 0.02 7.95 3.11 o
-6 9 8 2.48 4.20 1.47 o
-5 9 8 1.50 2.41 1.12 o
-4 9 8 7.76 8.28 0.99 o
-3 9 8 14.62 17.37 1.30 o
-2 9 8 4.15 4.40 0.68 o
-1 9 8 116.26 119.38 1.96 o
0 9 8 40.64 46.05 0.95 o
1 9 8 29.48 39.87 1.01 o
2 9 8 52.33 41.76 0.99 o
3 9 8 85.59 81.44 1.20 o
4 9 8 14.94 11.11 0.69 o
5 9 8 113.79 108.43 1.55 o
6 9 8 43.25 39.31 1.27 o
7 9 8 0.56 0.26 0.60 o
8 9 8 36.30 33.00 1.32 o
9 9 8 9.10 9.86 0.94 o
10 9 8 31.43 33.41 2.45 o
11 9 8 0.22 1.78 1.65 o
12 9 8 0.68 -0.49 2.05 o
13 9 8 0.01 -2.43 3.05 o
-7 10 8 0.62 2.05 3.12 o
-6 10 8 11.60 12.75 1.94 o
-5 10 8 3.18 3.99 1.35 o
-4 10 8 6.50 10.83 1.38 o
-3 10 8 4.23 3.75 1.02 o
-2 10 8 41.69 39.59 1.95 o
-1 10 8 19.06 23.10 1.13 o
0 10 8 0.05 0.48 0.56 o
1 10 8 16.33 23.94 1.03 o
2 10 8 10.09 6.54 0.56 o
3 10 8 11.33 10.08 0.60 o
4 10 8 13.34 14.83 0.91 o
5 10 8 33.82 35.96 1.19 o
6 10 8 21.90 21.50 1.12 o
7 10 8 4.66 2.28 0.96 o
8 10 8 13.91 13.36 1.55 o
9 10 8 5.81 9.14 1.24 o
10 10 8 1.65 0.96 1.30 o
11 10 8 9.29 9.58 1.84 o
12 10 8 0.17 1.18 2.32 o
-6 11 8 3.14 2.13 2.37 o
-5 11 8 5.36 4.22 1.63 o
-4 11 8 0.18 1.51 1.34 o
-3 11 8 3.80 2.40 2.85 o
-2 11 8 2.63 3.45 1.22 o
-1 11 8 70.96 71.18 2.40 o
0 11 8 0.40 2.08 0.77 o
1 11 8 3.46 4.19 0.72 o
2 11 8 0.01 -0.07 0.54 o
3 11 8 1.63 1.12 0.50 o
4 11 8 67.46 63.43 1.47 o
5 11 8 29.91 35.80 1.51 o
6 11 8 6.81 6.03 0.75 o
7 11 8 0.60 2.00 0.75 o
8 11 8 2.81 2.02 1.05 o
9 11 8 11.07 11.65 1.92 o
10 11 8 5.93 6.08 1.66 o
11 11 8 3.87 7.81 2.67 o
12 11 8 0.72 -0.98 2.36 o
-6 12 8 0.26 2.63 2.97 o
-5 12 8 1.26 1.80 2.03 o
-4 12 8 0.03 2.33 1.41 o
-3 12 8 14.02 14.08 1.95 o
-2 12 8 4.29 6.79 1.82 o
-1 12 8 5.17 6.89 1.09 o
0 12 8 10.46 10.30 1.03 o
1 12 8 4.61 4.00 0.87 o
2 12 8 0.78 1.74 0.80 o
3 12 8 3.89 1.16 0.57 o
4 12 8 1.72 1.51 0.66 o
5 12 8 39.39 41.41 1.63 o
6 12 8 0.99 2.05 0.75 o
7 12 8 32.11 34.94 2.03 o
8 12 8 0.37 0.39 1.13 o
9 12 8 8.04 9.47 1.42 o
10 12 8 1.06 0.48 1.43 o
11 12 8 0.36 0.29 1.71 o
12 12 8 0.25 3.20 2.58 o
-5 13 8 0.59 -0.98 2.28 o
-4 13 8 0.00 1.48 1.71 o
-3 13 8 1.43 2.73 1.44 o
-2 13 8 4.10 4.39 1.30 o
-1 13 8 0.06 -1.31 1.34 o
0 13 8 3.99 4.97 1.08 o
1 13 8 0.49 0.68 0.92 o
2 13 8 16.52 20.18 1.28 o
3 13 8 37.52 44.24 2.01 o
4 13 8 2.29 1.69 0.78 o
5 13 8 24.88 25.36 1.39 o
6 13 8 3.23 5.17 0.91 o
7 13 8 21.75 18.06 1.60 o
8 13 8 9.99 11.56 1.98 o
9 13 8 0.00 3.27 1.62 o
10 13 8 0.75 -0.98 2.36 o
11 13 8 1.14 1.93 2.01 o
12 13 8 0.44 -2.24 3.39 o
-4 14 8 0.12 0.14 3.27 o
-3 14 8 1.80 5.25 1.74 o
-2 14 8 0.18 2.88 1.51 o
-1 14 8 5.85 8.69 1.82 o
0 14 8 0.27 -0.81 1.22 o
1 14 8 9.16 7.54 1.30 o
2 14 8 0.50 -0.62 1.09 o
3 14 8 9.21 8.56 1.59 o
4 14 8 1.78 0.69 1.52 o
5 14 8 1.51 2.67 1.36 o
6 14 8 3.35 7.25 3.57 o
7 14 8 1.03 0.39 1.59 o
8 14 8 13.94 14.17 1.57 o
9 14 8 1.37 0.48 2.01 o
10 14 8 0.71 1.28 2.21 o
11 14 8 0.26 0.36 2.32 o
-3 15 8 0.96 4.33 2.26 o
-2 15 8 0.56 2.59 1.86 o
-1 15 8 1.60 2.13 1.80 o
0 15 8 1.47 3.23 2.13 o
1 15 8 3.63 2.88 1.56 o
2 15 8 10.95 13.57 2.10 o
3 15 8 1.43 4.03 1.70 o
4 15 8 15.42 16.89 1.65 o
5 15 8 0.93 0.23 1.46 o
6 15 8 7.99 8.58 1.79 o
7 15 8 0.00 -1.63 1.63 o
8 15 8 0.01 2.63 2.85 o
9 15 8 0.51 -1.91 3.36 o
10 15 8 0.57 -1.55 2.98 o
-1 16 8 0.47 3.83 2.12 o
0 16 8 1.98 1.41 2.10 o
1 16 8 0.00 0.51 1.92 o
2 16 8 4.29 4.90 1.84 o
3 16 8 2.00 1.40 1.74 o
4 16 8 1.31 2.33 1.89 o
5 16 8 1.71 0.80 2.49 o
6 16 8 2.29 3.74 2.22 o
7 16 8 1.31 0.56 2.31 o
8 16 8 0.00 0.56 2.53 o
9 16 8 0.02 -2.65 2.65 o
10 16 8 0.40 -0.71 6.08 o
0 17 8 0.42 -0.51 2.63 o
1 17 8 0.03 -2.55 2.55 o
2 17 8 1.25 0.71 2.25 o
3 17 8 3.04 4.05 4.04 o
4 17 8 0.06 -0.39 2.54 o
5 17 8 5.56 7.49 3.12 o
6 17 8 0.58 1.23 2.54 o
7 17 8 4.56 -2.24 3.94 o
8 17 8 0.42 2.56 4.78 o
3 18 8 1.91 0.63 3.08 o
4 18 8 0.35 -1.40 3.02 o
5 18 8 0.74 -3.04 3.04 o
6 18 8 0.88 3.80 3.14 o
-7 -16 9 0.08 -1.86 4.16 o
-6 -16 9 1.10 2.92 2.30 o
-5 -16 9 0.53 9.04 4.47 o
-4 -16 9 2.41 4.40 2.55 o
-3 -16 9 0.43 1.03 2.20 o
-2 -16 9 0.86 1.73 2.93 o
-1 -16 9 0.00 3.76 2.98 o
0 -16 9 0.20 3.63 3.14 o
-8 -15 9 3.54 4.35 3.32 o
-7 -15 9 1.22 1.65 2.15 o
-6 -15 9 1.60 -1.03 3.77 o
-5 -15 9 0.36 1.45 1.95 o
-4 -15 9 10.33 10.72 2.55 o
-3 -15 9 0.34 2.86 1.81 o
-2 -15 9 0.83 -0.50 1.69 o
-1 -15 9 0.39 2.97 1.77 o
0 -15 9 0.35 -0.14 1.77 o
1 -15 9 0.52 6.70 2.09 o
2 -15 9 0.04 -1.33 2.34 o
-9 -14 9 0.52 1.68 2.71 o
-8 -14 9 7.14 9.21 2.16 o
-7 -14 9 0.04 0.33 1.88 o
-6 -14 9 7.39 9.11 1.82 o
-5 -14 9 2.83 1.12 2.98 o
-4 -14 9 2.64 3.71 1.42 o
-3 -14 9 13.06 11.30 1.54 o
-2 -14 9 0.05 1.62 1.45 o
-1 -14 9 0.10 0.37 1.50 o
0 -14 9 1.00 0.74 1.43 o
1 -14 9 0.05 -0.19 1.53 o
2 -14 9 0.17 1.56 2.10 o
3 -14 9 0.12 2.92 2.16 o
-10 -13 9 0.73 -2.34 4.01 o
-9 -13 9 2.34 -0.99 3.10 o
-8 -13 9 1.70 1.61 2.16 o
-7 -13 9 0.43 0.92 2.29 o
-6 -13 9 8.17 10.20 1.62 o
-5 -13 9 5.41 6.47 1.21 o
-4 -13 9 1.17 0.91 1.68 o
-3 -13 9 0.70 -1.12 1.15 o
-2 -13 9 0.00 -0.95 0.95 o
-1 -13 9 8.97 8.58 1.33 o
0 -13 9 5.25 8.07 1.52 o
1 -13 9 1.84 3.30 1.72 o
2 -13 9 0.00 0.75 1.72 o
3 -13 9 0.27 -0.32 1.73 o
4 -13 9 0.26 0.66 1.81 o
-10 -12 9 0.61 1.58 2.44 o
-9 -12 9 0.19 1.30 2.16 o
-8 -12 9 13.47 10.76 1.64 o
-7 -12 9 0.02 -0.05 1.77 o
-6 -12 9 20.51 20.90 1.60 o
-5 -12 9 21.65 24.91 2.01 o
-4 -12 9 2.69 3.01 0.92 o
-3 -12 9 5.77 4.66 0.86 o
-2 -12 9 11.70 9.33 1.04 o
-1 -12 9 16.63 18.11 1.61 o
0 -12 9 1.06 2.05 1.16 o
1 -12 9 0.23 1.75 1.10 o
2 -12 9 1.62 0.95 1.09 o
3 -12 9 0.31 0.02 1.44 o
4 -12 9 2.44 3.02 1.60 o
5 -12 9 0.86 4.11 1.79 o
-11 -11 9 1.40 2.28 2.86 o
-10 -11 9 0.49 3.27 2.49 o
-9 -11 9 1.28 -1.85 1.93 o
-8 -11 9 0.01 -1.09 1.58 o
-7 -11 9 0.47 -0.31 1.12 o
-6 -11 9 26.56 34.40 1.92 o
-5 -11 9 1.77 4.37 0.94 o
-4 -11 9 33.34 34.05 1.44 o
-3 -11 9 3.42 3.60 0.71 o
-2 -11 9 5.40 3.60 0.65 o
-1 -11 9 0.33 1.23 0.74 o
0 -11 9 3.69 3.72 0.83 o
1 -11 9 0.69 -0.49 0.83 o
2 -11 9 0.36 -1.16 1.16 o
3 -11 9 2.05 1.37 1.29 o
4 -11 9 2.04 2.67 1.36 o
5 -11 9 1.67 3.76 1.60 o
6 -11 9 0.26 4.37 1.93 o
-11 -10 9 6.75 8.93 2.39 o
-10 -10 9 1.53 -2.32 2.45 o
-9 -10 9 0.62 -0.36 1.48 o
-8 -10 9 0.62 1.19 1.36 o
-7 -10 9 1.50 1.01 1.07 o
-6 -10 9 0.44 1.17 0.84 o
-5 -10 9 98.24 97.90 2.08 o
-4 -10 9 0.15 -0.57 0.57 o
-3 -10 9 45.86 49.75 1.28 o
-2 -10 9 18.43 16.47 1.09 o
-1 -10 9 73.80 79.50 1.34 o
0 -10 9 0.09 -0.23 0.53 o
1 -10 9 0.00 -0.58 0.58 o
2 -10 9 0.02 -0.71 0.71 o
3 -10 9 0.21 1.70 1.19 o
4 -10 9 0.24 2.50 1.28 o
5 -10 9 2.89 3.21 1.35 o
6 -10 9 2.20 0.48 1.57 o
7 -10 9 0.03 3.39 2.31 o
-11 -9 9 0.39 -2.06 2.65 o
-10 -9 9 1.13 4.29 1.78 o
-9 -9 9 0.00 1.42 1.18 o
-8 -9 9 0.45 1.22 1.04 o
-7 -9 9 34.02 37.32 1.98 o
-6 -9 9 4.94 4.18 0.80 o
-5 -9 9 123.55 127.02 2.24 o
-4 -9 9 2.34 3.71 0.56 o
-3 -9 9 110.40 105.32 1.58 o
-2 -9 9 22.48 22.43 0.97 o
-1 -9 9 8.77 6.68 0.55 o
0 -9 9 20.66 19.53 0.85 o
1 -9 9 2.53 1.71 0.53 o
2 -9 9 0.03 -0.28 0.58 o
3 -9 9 1.78 0.97 0.65 o
4 -9 9 0.51 -1.19 1.27 o
5 -9 9 2.97 3.79 1.19 o
6 -9 9 4.62 5.01 1.34 o
7 -9 9 0.04 -0.29 1.69 o
8 -9 9 0.13 -2.46 2.46 o
-11 -8 9 1.77 -0.21 2.01 o
-10 -8 9 0.16 -1.56 1.56 o
-9 -8 9 5.59 6.09 1.10 o
-8 -8 9 12.34 14.08 1.03 o
-7 -8 9 30.56 29.31 1.25 o
-6 -8 9 6.11 6.61 0.69 o
-5 -8 9 12.44 13.95 0.91 o
-4 -8 9 0.99 0.59 0.45 o
-3 -8 9 64.93 64.58 1.17 o
-2 -8 9 9.27 11.00 0.65 o
-1 -8 9 0.22 0.49 0.41 o
0 -8 9 7.14 7.60 0.55 o
1 -8 9 23.78 23.89 1.06 o
2 -8 9 2.95 2.05 0.50 o
3 -8 9 26.55 26.17 1.18 o
4 -8 9 0.29 -0.71 0.71 o
5 -8 9 0.79 1.03 1.02 o
6 -8 9 0.14 0.29 1.30 o
7 -8 9 0.03 0.49 1.84 o
8 -8 9 0.20 0.65 2.56 o
-11 -7 9 1.70 1.37 3.52 o
-10 -7 9 2.37 1.25 1.89 o
-9 -7 9 6.33 5.01 1.20 o
-8 -7 9 1.38 1.60 0.75 o
-7 -7 9 3.47 2.81 0.79 o
-6 -7 9 59.38 59.71 1.30 o
-5 -7 9 0.02 0.91 0.44 o
-4 -7 9 22.57 22.09 0.91 o
-3 -7 9 7.59 9.79 0.58 o
-2 -7 9 2.96 2.71 0.44 o
-1 -7 9 3.02 2.70 0.39 o
0 -7 9 11.60 9.31 0.59 o
1 -7 9 9.19 5.78 0.51 o
2 -7 9 12.08 12.25 0.87 o
3 -7 9 22.33 22.08 1.02 o
4 -7 9 0.11 0.55 0.71 o
5 -7 9 13.71 13.89 0.86 o
6 -7 9 0.17 -0.89 0.89 o
7 -7 9 1.93 0.70 0.98 o
8 -7 9 0.69 2.86 1.75 o
9 -7 9 0.42 1.31 2.94 o
-12 -6 9 0.40 -6.13 6.13 o
-11 -6 9 2.77 5.87 2.62 o
-10 -6 9 0.33 -0.26 2.91 o
-9 -6 9 1.41 1.44 1.24 o
-8 -6 9 3.11 2.41 0.79 o
-7 -6 9 0.72 0.02 0.68 o
-6 -6 9 22.26 19.14 0.90 o
-5 -6 9 9.11 8.76 0.53 o
-4 -6 9 39.44 42.51 0.91 o
-3 -6 9 24.14 24.48 0.70 o
-2 -6 9 8.91 8.22 0.47 o
-1 -6 9 31.53 33.78 0.77 o
0 -6 9 14.45 10.03 0.75 o
1 -6 9 0.56 0.64 0.40 o
2 -6 9 23.58 22.33 0.81 o
3 -6 9 4.05 3.42 0.52 o
4 -6 9 0.74 0.82 0.48 o
5 -6 9 3.61 3.78 0.59 o
6 -6 9 4.45 4.53 0.81 o
7 -6 9 0.84 1.67 0.94 o
8 -6 9 4.65 5.02 1.83 o
9 -6 9 0.00 0.73 1.94 o
-12 -5 9 0.38 2.55 5.72 o
-11 -5 9 1.07 2.25 2.52 o
-10 -5 9 2.61 1.58 1.60 o
-9 -5 9 0.00 2.01 1.17 o
-8 -5 9 6.38 6.60 0.81 o
-7 -5 9 9.00 11.64 0.87 o
-6 -5 9 3.51 3.50 0.59 o
-5 -5 9 62.34 59.40 1.26 o
-4 -5 9 1.16 2.37 0.38 o
-3 -5 9 14.47 12.48 0.46 o
-2 -5 9 3.39 5.83 0.40 o
-1 -5 9 19.38 12.02 0.73 o
0 -5 9 11.70 11.37 0.60 o
1 -5 9 26.27 25.39 0.80 o
2 -5 9 88.64 83.89 1.38 o
3 -5 9 0.67 0.97 0.46 o
4 -5 9 35.77 36.95 1.21 o
5 -5 9 9.31 9.72 0.61 o
6 -5 9 0.25 0.09 0.67 o
7 -5 9 0.44 -0.17 0.88 o
8 -5 9 0.30 -1.04 1.04 o
9 -5 9 0.03 -1.43 1.43 o
10 -5 9 0.90 4.74 2.58 o
-11 -4 9 3.75 4.65 2.55 o
-10 -4 9 3.76 3.80 1.41 o
-9 -4 9 8.43 9.83 1.23 o
-8 -4 9 0.63 0.71 0.80 o
-7 -4 9 66.36 67.12 1.40 o
-6 -4 9 3.35 3.39 0.52 o
-5 -4 9 17.39 14.94 0.72 o
-4 -4 9 3.30 3.81 0.45 o
-3 -4 9 18.50 17.49 0.55 o
-2 -4 9 6.49 9.65 0.30 o
-1 -4 9 54.98 58.00 0.85 o
0 -4 9 22.72 27.18 0.60 o
1 -4 9 0.27 0.12 0.50 o
2 -4 9 0.04 -0.03 0.35 o
3 -4 9 44.76 42.66 0.96 o
4 -4 9 1.54 2.02 0.53 o
5 -4 9 38.31 39.01 0.98 o
6 -4 9 1.11 0.87 0.65 o
7 -4 9 2.39 1.97 0.66 o
8 -4 9 0.00 -0.35 1.13 o
9 -4 9 0.01 -0.15 1.21 o
10 -4 9 0.12 5.90 1.90 o
-11 -3 9 11.93 17.71 2.60 o
-10 -3 9 3.78 3.02 1.39 o
-9 -3 9 18.35 22.57 1.30 o
-8 -3 9 24.51 27.42 1.47 o
-7 -3 9 35.27 31.82 1.04 o
-6 -3 9 142.85 137.12 1.74 o
-5 -3 9 8.22 6.94 0.56 o
-4 -3 9 0.07 0.51 0.41 o
-3 -3 9 84.97 82.96 1.23 o
-2 -3 9 128.16 142.85 1.30 o
-1 -3 9 394.33 357.75 3.15 o
0 -3 9 49.12 43.29 0.76 o
1 -3 9 147.51 138.96 1.57 o
2 -3 9 6.52 5.37 0.35 o
3 -3 9 118.12 114.12 1.53 o
4 -3 9 0.07 1.40 0.37 o
5 -3 9 2.57 2.94 0.47 o
6 -3 9 0.05 -0.22 0.51 o
7 -3 9 0.11 -0.24 0.62 o
8 -3 9 3.16 3.13 0.87 o
9 -3 9 0.04 0.55 1.07 o
10 -3 9 0.17 -1.66 1.66 o
11 -3 9 0.05 0.64 2.11 o
-11 -2 9 3.82 8.32 2.62 o
-10 -2 9 0.86 0.98 1.60 o
-9 -2 9 20.23 20.73 1.37 o
-8 -2 9 13.79 12.42 0.88 o
-7 -2 9 18.34 16.61 0.79 o
-6 -2 9 90.97 92.20 1.50 o
-5 -2 9 11.19 10.97 0.52 o
-4 -2 9 81.09 81.98 1.23 o
-3 -2 9 46.30 41.37 0.76 o
-2 -2 9 75.07 81.94 0.95 o
-1 -2 9 135.99 126.16 1.36 o
0 -2 9 145.56 143.10 1.41 o
1 -2 9 13.73 14.77 0.53 o
2 -2 9 133.51 134.10 1.43 o
3 -2 9 89.09 93.15 1.33 o
4 -2 9 78.86 78.87 1.22 o
5 -2 9 4.63 4.81 0.45 o
6 -2 9 12.68 13.51 0.66 o
7 -2 9 4.26 3.60 0.67 o
8 -2 9 8.48 9.83 0.86 o
9 -2 9 3.91 2.50 1.02 o
10 -2 9 0.37 -1.53 1.53 o
11 -2 9 0.10 0.58 1.93 o
-11 -1 9 0.29 3.12 2.18 o
-10 -1 9 0.03 3.03 1.58 o
-9 -1 9 0.81 0.23 1.10 o
-8 -1 9 28.45 25.73 1.22 o
-7 -1 9 9.22 9.01 0.76 o
-6 -1 9 16.01 13.41 0.67 o
-5 -1 9 10.17 8.93 0.54 o
-4 -1 9 106.93 110.76 1.26 o
-3 -1 9 644.88 649.83 5.53 o
-2 -1 9 52.45 50.04 0.74 o
-1 -1 9 66.08 62.86 0.75 o
0 -1 9 54.14 55.51 0.86 o
1 -1 9 242.02 235.98 2.25 o
2 -1 9 659.75 662.99 5.60 o
3 -1 9 495.52 474.93 4.16 o
4 -1 9 185.53 185.79 1.99 o
5 -1 9 12.99 12.06 0.57 o
6 -1 9 66.39 67.75 1.17 o
7 -1 9 2.11 2.51 0.64 o
8 -1 9 0.31 1.04 0.72 o
9 -1 9 0.00 0.90 0.94 o
10 -1 9 0.05 -0.46 1.27 o
11 -1 9 0.00 6.01 2.04 o
-11 0 9 2.21 -2.43 2.52 o
-10 0 9 4.83 2.12 1.54 o
-9 0 9 23.82 22.43 2.00 o
-8 0 9 17.24 20.09 1.63 o
-7 0 9 2.90 2.29 0.64 o
-6 0 9 2.13 1.27 0.45 o
-5 0 9 5.70 7.35 0.54 o
-4 0 9 42.97 36.01 0.80 o
-3 0 9 23.14 22.31 0.68 o
-2 0 9 193.58 181.83 1.96 o
-1 0 9 58.66 56.70 0.86 o
0 0 9 224.70 225.30 2.08 o
1 0 9 0.97 0.46 0.30 o
2 0 9 187.53 180.83 2.14 o
3 0 9 562.29 549.46 4.46 o
4 0 9 2.28 1.14 0.29 o
5 0 9 157.97 160.75 1.59 o
6 0 9 2.34 2.35 0.45 o
7 0 9 16.24 19.08 0.90 o
8 0 9 14.94 15.65 0.91 o
9 0 9 8.77 10.25 0.90 o
10 0 9 0.01 0.43 1.27 o
11 0 9 0.26 1.42 1.65 o
12 0 9 0.89 0.99 2.32 o
-11 1 9 2.53 0.78 5.60 o
-10 1 9 1.37 1.48 1.70 o
-9 1 9 14.04 12.16 1.68 o
-8 1 9 9.72 10.14 0.97 o
-7 1 9 1.35 1.68 0.70 o
-6 1 9 27.99 28.14 0.99 o
-5 1 9 80.13 71.43 1.45 o
-4 1 9 93.46 92.62 1.42 o
-3 1 9 241.01 222.61 2.50 o
-2 1 9 6.12 10.92 0.67 o
-1 1 9 237.39 225.85 2.00 o
0 1 9 4.82 4.30 0.35 o
1 1 9 167.98 154.49 1.63 o
2 1 9 39.55 45.53 0.70 o
3 1 9 17.94 21.53 0.84 o
4 1 9 5.43 5.08 0.31 o
5 1 9 14.95 15.45 0.48 o
6 1 9 53.69 49.77 0.93 o
7 1 9 0.74 1.29 0.54 o
8 1 9 20.21 18.41 0.91 o
9 1 9 0.13 2.27 0.99 o
10 1 9 3.82 4.35 1.22 o
11 1 9 0.05 2.62 1.78 o
12 1 9 0.00 -1.03 2.20 o
-10 2 9 1.98 3.84 1.90 o
-9 2 9 0.02 1.82 1.26 o
-8 2 9 48.12 44.92 1.91 o
-7 2 9 1.81 1.68 0.72 o
-6 2 9 31.54 27.51 1.22 o
-5 2 9 10.60 9.32 0.65 o
-4 2 9 111.34 109.90 1.71 o
-3 2 9 13.96 7.55 0.57 o
-2 2 9 3.64 5.03 0.42 o
-1 2 9 1.55 0.58 0.25 o
0 2 9 38.30 31.13 0.62 o
1 2 9 158.43 171.16 1.67 o
2 2 9 185.65 181.63 1.77 o
3 2 9 26.73 27.56 0.58 o
4 2 9 0.17 0.82 0.24 o
5 2 9 15.35 15.17 0.48 o
6 2 9 8.64 9.16 0.44 o
7 2 9 11.93 12.03 0.64 o
8 2 9 0.63 1.36 0.55 o
9 2 9 2.24 3.05 0.89 o
10 2 9 9.28 8.32 1.34 o
11 2 9 0.76 0.22 1.48 o
12 2 9 0.00 1.10 2.06 o
-10 3 9 1.93 6.90 3.11 o
-9 3 9 3.10 5.04 1.43 o
-8 3 9 11.20 11.65 1.29 o
-7 3 9 0.30 0.19 0.81 o
-6 3 9 37.66 37.51 1.35 o
-5 3 9 88.88 87.15 1.54 o
-4 3 9 3.46 2.23 0.49 o
-3 3 9 15.03 12.73 0.88 o
-2 3 9 28.62 25.39 0.63 o
-1 3 9 168.13 124.84 1.15 o
0 3 9 331.79 360.70 2.74 o
1 3 9 98.30 76.14 1.06 o
2 3 9 26.08 28.05 0.57 o
3 3 9 0.39 0.45 0.22 o
4 3 9 58.96 58.58 0.90 o
5 3 9 53.31 49.93 0.80 o
6 3 9 4.05 5.99 0.38 o
7 3 9 2.50 1.72 0.43 o
8 3 9 10.65 10.23 0.83 o
9 3 9 7.33 8.58 1.00 o
10 3 9 2.43 3.24 1.11 o
11 3 9 2.86 5.48 1.52 o
12 3 9 1.10 1.11 1.74 o
-10 4 9 0.64 2.40 2.63 o
-9 4 9 1.30 1.28 1.52 o
-8 4 9 3.88 4.38 1.29 o
-7 4 9 3.01 3.19 0.99 o
-6 4 9 0.12 0.53 0.66 o
-5 4 9 6.12 6.20 0.74 o
-4 4 9 0.09 0.25 0.52 o
-3 4 9 22.62 23.27 0.79 o
-2 4 9 0.89 2.46 0.39 o
-1 4 9 75.71 71.58 0.91 o
0 4 9 210.37 206.00 1.87 o
1 4 9 69.15 66.29 0.88 o
2 4 9 78.76 82.90 0.93 o
3 4 9 110.25 110.30 1.36 o
4 4 9 28.46 27.24 0.68 o
5 4 9 52.16 53.89 0.88 o
6 4 9 26.68 26.09 0.92 o
7 4 9 5.83 9.39 0.61 o
8 4 9 11.59 12.63 0.78 o
9 4 9 2.26 2.86 0.85 o
10 4 9 21.82 24.58 1.70 o
11 4 9 0.58 0.72 2.00 o
12 4 9 2.43 3.37 1.85 o
-9 5 9 0.86 0.54 1.75 o
-8 5 9 3.02 2.86 1.50 o
-7 5 9 3.02 3.24 1.36 o
-6 5 9 25.84 24.23 1.29 o
-5 5 9 0.64 1.01 0.66 o
-4 5 9 54.64 55.18 1.30 o
-3 5 9 56.45 59.23 1.28 o
-2 5 9 37.61 32.49 1.04 o
-1 5 9 18.72 13.62 0.52 o
0 5 9 75.00 59.53 0.84 o
1 5 9 141.64 140.73 1.47 o
2 5 9 16.85 22.65 0.50 o
3 5 9 80.28 79.34 1.00 o
4 5 9 0.02 0.01 0.31 o
5 5 9 114.77 106.22 1.38 o
6 5 9 18.73 16.26 0.64 o
7 5 9 0.40 0.48 0.56 o
8 5 9 17.57 18.30 0.89 o
9 5 9 19.31 18.44 0.92 o
10 5 9 7.22 10.96 1.22 o
11 5 9 9.59 7.93 1.53 o
12 5 9 0.00 -1.04 2.16 o
-9 6 9 0.57 0.45 2.12 o
-8 6 9 1.04 -1.69 1.69 o
-7 6 9 0.39 -0.32 1.38 o
-6 6 9 5.80 6.25 0.96 o
-5 6 9 6.74 10.18 0.86 o
-4 6 9 24.08 18.94 0.99 o
-3 6 9 36.76 35.10 1.14 o
-2 6 9 7.12 12.21 1.01 o
-1 6 9 187.86 196.45 2.31 o
0 6 9 0.13 1.30 0.33 o
1 6 9 272.54 258.89 2.41 o
2 6 9 25.28 25.16 0.72 o
3 6 9 3.27 2.13 0.37 o
4 6 9 38.83 36.42 0.68 o
5 6 9 14.60 12.42 0.54 o
6 6 9 20.87 21.78 0.88 o
7 6 9 19.91 20.61 1.00 o
8 6 9 6.50 6.75 0.77 o
9 6 9 14.61 15.89 1.27 o
10 6 9 0.50 0.88 1.23 o
11 6 9 4.49 5.58 1.63 o
12 6 9 2.06 3.44 2.44 o
13 6 9 0.77 -1.09 2.22 o
-8 7 9 0.01 -0.51 1.94 o
-7 7 9 0.97 -1.21 1.42 o
-6 7 9 1.25 2.27 1.06 o
-5 7 9 36.50 37.92 1.51 o
-4 7 9 2.25 3.76 0.73 o
-3 7 9 13.73 16.66 0.93 o
-2 7 9 60.31 65.35 1.38 o
-1 7 9 14.68 11.57 0.81 o
0 7 9 65.86 55.89 0.94 o
1 7 9 5.32 2.61 0.34 o
2 7 9 156.55 157.72 1.80 o
3 7 9 25.54 23.66 0.69 o
4 7 9 12.65 13.85 0.63 o
5 7 9 0.04 -0.41 0.41 o
6 7 9 14.94 14.77 0.88 o
7 7 9 18.76 19.13 0.94 o
8 7 9 24.10 24.45 1.22 o
9 7 9 2.31 3.13 0.81 o
10 7 9 6.73 5.19 1.51 o
11 7 9 0.88 0.59 2.29 o
12 7 9 1.76 3.67 2.15 o
13 7 9 0.30 5.52 6.21 o
-8 8 9 2.53 0.59 2.99 o
-7 8 9 0.29 1.59 1.91 o
-6 8 9 0.46 -0.63 1.40 o
-5 8 9 2.03 3.19 1.35 o
-4 8 9 14.70 16.43 1.05 o
-3 8 9 3.34 1.43 0.72 o
-2 8 9 0.85 0.84 0.63 o
-1 8 9 29.46 38.46 1.07 o
0 8 9 92.04 92.14 1.45 o
1 8 9 13.83 17.07 0.65 o
2 8 9 88.86 75.85 1.15 o
3 8 9 21.96 25.27 0.73 o
4 8 9 24.82 18.21 0.70 o
5 8 9 9.74 9.61 0.55 o
6 8 9 36.18 35.25 1.03 o
7 8 9 0.00 0.52 0.61 o
8 8 9 51.89 51.74 1.61 o
9 8 9 0.00 1.31 0.87 o
10 8 9 24.87 29.41 2.08 o
11 8 9 0.21 1.08 1.79 o
12 8 9 1.73 3.54 2.28 o
-7 9 9 0.07 -1.22 2.04 o
-6 9 9 2.89 0.61 1.92 o
-5 9 9 4.57 4.75 1.27 o
-4 9 9 19.60 24.53 2.22 o
-3 9 9 8.93 8.10 0.90 o
-2 9 9 5.29 7.48 0.74 o
-1 9 9 12.83 15.39 0.87 o
0 9 9 7.55 4.93 0.60 o
1 9 9 1.13 -0.11 0.50 o
2 9 9 28.16 18.22 0.87 o
3 9 9 5.35 5.05 0.44 o
4 9 9 2.00 2.39 0.45 o
5 9 9 53.38 56.72 1.28 o
6 9 9 9.57 10.16 0.82 o
7 9 9 1.89 3.43 0.74 o
8 9 9 3.40 2.59 0.76 o
9 9 9 3.40 2.31 0.97 o
10 9 9 8.69 7.83 1.52 o
11 9 9 6.87 4.24 2.06 o
12 9 9 0.15 -1.40 2.43 o
-7 10 9 0.03 -1.10 2.65 o
-6 10 9 4.79 8.17 2.34 o
-5 10 9 4.53 4.58 1.68 o
-4 10 9 0.84 -0.34 1.23 o
-3 10 9 3.34 2.72 0.96 o
-2 10 9 0.03 0.05 0.82 o
-1 10 9 72.93 68.39 1.76 o
0 10 9 11.13 9.31 0.86 o
1 10 9 77.48 87.65 1.70 o
2 10 9 1.03 2.36 0.54 o
3 10 9 8.62 4.07 0.63 o
4 10 9 66.52 68.19 1.50 o
5 10 9 14.32 17.84 1.08 o
6 10 9 22.78 20.97 1.15 o
7 10 9 4.78 5.50 0.92 o
8 10 9 1.14 1.77 1.06 o
9 10 9 1.97 2.24 1.11 o
10 10 9 3.20 5.31 1.51 o
11 10 9 3.21 5.02 2.73 o
12 10 9 2.49 -2.61 3.38 o
-6 11 9 0.01 0.98 2.55 o
-5 11 9 3.41 5.53 1.89 o
-4 11 9 2.28 0.73 1.60 o
-3 11 9 5.62 6.06 1.21 o
-2 11 9 8.16 10.70 1.14 o
-1 11 9 10.44 11.62 1.09 o
0 11 9 125.43 125.41 3.39 o
1 11 9 0.05 -0.11 0.64 o
2 11 9 21.26 18.98 1.00 o
3 11 9 22.37 30.39 1.38 o
4 11 9 1.76 2.04 0.69 o
5 11 9 9.21 7.28 0.79 o
6 11 9 15.05 14.66 1.17 o
7 11 9 5.03 6.27 0.92 o
8 11 9 0.28 -0.80 1.56 o
9 11 9 12.64 13.48 2.44 o
10 11 9 4.78 5.74 1.72 o
11 11 9 0.04 -0.19 1.87 o
12 11 9 0.38 0.54 2.76 o
-5 12 9 0.37 0.22 2.07 o
-4 12 9 0.67 2.46 2.09 o
-3 12 9 2.15 2.40 1.33 o
-2 12 9 8.32 9.47 1.25 o
-1 12 9 1.52 2.21 1.16 o
0 12 9 9.85 11.96 1.15 o
1 12 9 3.23 2.47 0.78 o
2 12 9 52.63 53.96 1.62 o
3 12 9 13.27 12.81 1.07 o
4 12 9 0.86 -0.48 0.73 o
5 12 9 9.74 9.47 0.89 o
6 12 9 25.15 25.92 1.41 o
7 12 9 2.13 0.55 1.09 o
8 12 9 13.94 7.17 1.79 o
9 12 9 3.55 7.19 1.80 o
10 12 9 2.42 1.79 1.69 o
11 12 9 0.13 4.61 3.46 o
12 12 9 0.09 4.91 3.23 o
-4 13 9 0.13 0.19 2.31 o
-3 13 9 0.29 -0.68 1.54 o
-2 13 9 1.88 0.51 1.33 o
-1 13 9 10.79 11.30 1.38 o
0 13 9 2.71 2.08 1.36 o
1 13 9 0.20 0.71 1.14 o
2 13 9 0.09 -0.10 0.90 o
3 13 9 19.51 19.36 1.51 o
4 13 9 0.14 -0.83 0.84 o
5 13 9 1.62 2.23 0.90 o
6 13 9 1.28 0.57 1.14 o
7 13 9 1.43 1.48 1.35 o
8 13 9 13.06 6.15 1.93 o
9 13 9 5.98 6.13 2.25 o
10 13 9 3.77 4.93 4.18 o
11 13 9 1.29 0.49 2.41 o
-3 14 9 0.03 -1.54 1.86 o
-2 14 9 0.77 0.55 1.99 o
-1 14 9 2.37 4.06 1.52 o
0 14 9 1.79 0.23 1.40 o
1 14 9 3.16 3.20 1.31 o
2 14 9 5.42 5.23 1.24 o
3 14 9 2.60 1.89 1.38 o
4 14 9 13.94 16.67 1.82 o
5 14 9 3.61 5.16 1.34 o
6 14 9 4.29 2.04 1.52 o
7 14 9 1.72 3.94 2.10 o
8 14 9 5.16 6.05 1.62 o
9 14 9 6.14 9.39 2.19 o
10 14 9 0.15 0.59 2.58 o
11 14 9 1.03 5.78 3.10 o
-2 15 9 0.06 0.39 3.28 o
-1 15 9 0.94 0.13 2.07 o
0 15 9 1.70 -0.20 1.62 o
1 15 9 0.61 3.31 2.79 o
2 15 9 8.52 5.35 1.88 o
3 15 9 7.05 6.50 2.03 o
4 15 9 5.15 8.11 1.64 o
5 15 9 2.93 2.72 2.02 o
6 15 9 6.57 9.24 1.98 o
7 15 9 6.73 5.69 1.93 o
8 15 9 0.01 1.27 2.25 o
9 15 9 1.50 -3.85 3.85 o
10 15 9 0.62 -1.99 5.07 o
-1 16 9 0.00 3.20 2.70 o
0 16 9 0.38 -2.35 2.40 o
1 16 9 0.40 -1.10 3.07 o
2 16 9 2.23 1.08 1.92 o
3 16 9 8.82 9.53 1.98 o
4 16 9 0.24 2.36 2.19 o
5 16 9 6.97 5.87 2.31 o
6 16 9 1.28 2.73 2.42 o
7 16 9 8.28 8.82 2.41 o
8 16 9 3.06 9.85 2.43 o
9 16 9 0.48 11.32 3.82 o
1 17 9 0.29 3.28 2.80 o
2 17 9 0.04 6.22 2.37 o
3 17 9 0.48 0.70 2.31 o
4 17 9 0.92 5.05 2.65 o
5 17 9 0.86 1.55 2.67 o
6 17 9 2.89 3.11 2.76 o
7 17 9 0.31 3.29 2.93 o
8 17 9 4.15 1.97 2.83 o
-5 -16 10 0.11 3.32 3.99 o
-4 -16 10 0.08 -0.49 2.74 o
-3 -16 10 0.31 -0.12 2.45 o
-2 -16 10 0.10 -0.36 2.83 o
-7 -15 10 0.00 -1.48 2.35 o
-6 -15 10 0.09 0.77 2.22 o
-5 -15 10 0.30 -1.09 2.03 o
-4 -15 10 0.01 0.82 2.04 o
-3 -15 10 2.25 6.91 3.60 o
-2 -15 10 0.01 0.80 2.03 o
-1 -15 10 1.13 3.98 2.19 o
0 -15 10 0.10 -2.42 2.42 o
1 -15 10 1.06 1.59 2.47 o
-8 -14 10 0.99 0.71 4.25 o
-7 -14 10 0.09 0.34 2.08 o
-6 -14 10 0.42 -1.70 1.83 o
-5 -14 10 1.39 3.34 1.94 o
-4 -14 10 0.31 -1.78 1.78 o
-3 -14 10 2.77 3.78 1.58 o
-2 -14 10 5.38 8.84 1.84 o
-1 -14 10 2.01 4.60 1.61 o
0 -14 10 0.26 0.74 1.56 o
1 -14 10 1.64 0.76 1.91 o
2 -14 10 0.14 -0.56 2.07 o
-9 -13 10 1.60 4.51 2.80 o
-8 -13 10 3.20 0.95 2.38 o
-7 -13 10 1.79 -0.05 1.87 o
-6 -13 10 0.86 2.26 1.67 o
-5 -13 10 1.84 1.22 1.46 o
-4 -13 10 6.42 7.45 1.41 o
-3 -13 10 0.10 -1.41 1.41 o
-2 -13 10 1.61 0.91 1.19 o
-1 -13 10 0.33 -0.43 1.44 o
0 -13 10 6.01 8.49 1.53 o
1 -13 10 0.04 2.61 1.60 o
2 -13 10 0.02 0.31 1.89 o
3 -13 10 0.46 0.86 3.34 o
4 -13 10 0.05 2.05 2.19 o
-10 -12 10 0.85 1.56 2.94 o
-9 -12 10 7.52 8.93 2.58 o
-8 -12 10 1.15 0.07 2.13 o
-7 -12 10 0.27 3.38 1.47 o
-6 -12 10 4.06 4.75 1.21 o
-5 -12 10 11.14 14.88 1.50 o
-4 -12 10 24.08 19.23 1.57 o
-3 -12 10 9.61 11.83 1.06 o
-2 -12 10 0.10 0.56 0.93 o
-1 -12 10 3.56 3.30 1.00 o
0 -12 10 0.14 0.18 1.25 o
1 -12 10 0.22 -1.21 1.21 o
2 -12 10 1.97 0.81 2.35 o
3 -12 10 0.00 1.90 1.60 o
4 -12 10 0.83 2.49 2.10 o
5 -12 10 0.54 2.44 2.03 o
-10 -11 10 5.60 8.37 2.65 o
-9 -11 10 4.86 7.37 3.16 o
-8 -11 10 0.03 -0.71 1.92 o
-7 -11 10 23.69 22.93 1.86 o
-6 -11 10 0.36 0.94 1.28 o
-5 -11 10 4.38 4.76 1.40 o
-4 -11 10 15.62 13.76 1.31 o
-3 -11 10 59.54 61.04 1.89 o
-2 -11 10 0.21 0.67 0.72 o
-1 -11 10 37.05 38.70 1.46 o
0 -11 10 1.19 1.01 0.92 o
1 -11 10 0.00 -1.09 1.38 o
2 -11 10 0.09 -0.20 1.08 o
3 -11 10 0.70 1.69 1.39 o
4 -11 10 0.00 -0.07 1.49 o
5 -11 10 0.44 -0.56 1.72 o
6 -11 10 0.02 0.67 3.39 o
-10 -10 10 4.40 5.71 3.27 o
-9 -10 10 0.73 2.64 2.24 o
-8 -10 10 0.63 1.60 1.72 o
-7 -10 10 4.96 4.71 1.18 o
-6 -10 10 0.72 -0.29 1.17 o
-5 -10 10 0.01 -0.79 0.86 o
-4 -10 10 48.27 54.03 2.52 o
-3 -10 10 2.60 2.81 0.70 o
-2 -10 10 22.81 28.16 1.33 o
-1 -10 10 93.33 96.18 1.74 o
0 -10 10 28.58 30.51 1.55 o
1 -10 10 17.67 15.88 0.94 o
2 -10 10 0.11 0.29 0.89 o
3 -10 10 0.35 1.04 1.29 o
4 -10 10 0.53 -0.63 1.49 o
5 -10 10 6.46 8.54 1.55 o
6 -10 10 0.67 2.69 1.74 o
-11 -9 10 0.01 7.57 2.70 o
-10 -9 10 0.12 -1.75 2.02 o
-9 -9 10 0.51 1.09 1.56 o
-8 -9 10 0.41 -1.10 1.10 o
-7 -9 10 6.02 4.47 1.45 o
-6 -9 10 1.60 1.14 0.95 o
-5 -9 10 17.39 18.67 1.09 o
-4 -9 10 0.00 -0.52 0.83 o
-3 -9 10 0.44 -0.06 0.66 o
-2 -9 10 19.74 18.93 0.95 o
-1 -9 10 1.54 2.84 0.60 o
0 -9 10 31.56 32.61 1.08 o
1 -9 10 1.04 2.28 0.60 o
2 -9 10 22.21 25.15 1.26 o
3 -9 10 0.13 0.08 0.89 o
4 -9 10 5.84 6.96 1.03 o
5 -9 10 3.31 3.67 1.28 o
6 -9 10 0.62 2.25 1.71 o
7 -9 10 0.32 0.21 2.01 o
-11 -8 10 9.79 6.76 3.73 o
-10 -8 10 0.01 2.36 1.79 o
-9 -8 10 4.92 3.14 1.49 o
-8 -8 10 0.05 0.19 0.93 o
-7 -8 10 0.58 0.75 0.81 o
-6 -8 10 9.95 11.70 0.91 o
-5 -8 10 15.40 19.92 1.49 o
-4 -8 10 2.19 0.56 0.60 o
-3 -8 10 0.21 0.57 0.52 o
-2 -8 10 18.66 15.93 0.87 o
-1 -8 10 8.57 8.72 0.59 o
0 -8 10 0.80 -0.27 0.49 o
1 -8 10 5.86 4.64 0.58 o
2 -8 10 3.30 4.23 0.60 o
3 -8 10 20.09 19.73 1.40 o
4 -8 10 0.62 1.07 0.88 o
5 -8 10 0.87 1.39 0.93 o
6 -8 10 2.59 1.04 1.24 o
7 -8 10 0.34 0.03 1.46 o
8 -8 10 0.00 2.23 2.22 o
-11 -7 10 6.04 4.17 2.21 o
-10 -7 10 0.00 0.56 1.57 o
-9 -7 10 10.90 9.93 1.37 o
-8 -7 10 3.37 2.26 0.88 o
-7 -7 10 0.62 0.18 0.73 o
-6 -7 10 0.01 0.14 0.65 o
-5 -7 10 96.11 94.80 1.79 o
-4 -7 10 0.78 0.20 0.57 o
-3 -7 10 44.99 47.77 1.06 o
-2 -7 10 0.26 0.86 0.46 o
-1 -7 10 13.58 14.67 0.64 o
0 -7 10 6.13 5.66 0.63 o
1 -7 10 4.28 3.54 0.51 o
2 -7 10 3.42 3.23 0.60 o
3 -7 10 0.01 -0.33 0.71 o
4 -7 10 2.26 2.47 0.83 o
5 -7 10 0.13 -0.17 0.86 o
6 -7 10 0.01 -0.20 0.89 o
7 -7 10 0.88 0.42 1.18 o
8 -7 10 0.47 -1.63 2.11 o
-11 -6 10 0.07 4.14 2.39 o
-10 -6 10 3.91 5.33 1.84 o
-9 -6 10 0.00 -0.48 1.20 o
-8 -6 10 1.53 2.89 0.91 o
-7 -6 10 0.02 -0.22 0.69 o
-6 -6 10 1.12 -0.37 0.51 o
-5 -6 10 6.48 6.36 0.48 o
-4 -6 10 0.04 0.15 0.52 o
-3 -6 10 92.18 84.80 1.59 o
-2 -6 10 5.83 6.58 0.55 o
-1 -6 10 31.89 26.43 0.80 o
0 -6 10 2.38 2.45 0.45 o
1 -6 10 8.66 6.41 0.56 o
2 -6 10 0.47 0.39 0.49 o
3 -6 10 45.23 43.37 1.38 o
4 -6 10 0.12 -0.54 0.70 o
5 -6 10 6.47 6.15 0.78 o
6 -6 10 0.92 0.40 0.94 o
7 -6 10 0.78 -0.51 0.94 o
8 -6 10 1.39 0.65 1.42 o
9 -6 10 0.00 0.83 2.34 o
-11 -5 10 2.29 4.30 2.39 o
-10 -5 10 7.50 10.64 1.96 o
-9 -5 10 4.93 4.05 1.21 o
-8 -5 10 0.48 0.51 0.89 o
-7 -5 10 16.02 16.40 0.93 o
-6 -5 10 0.66 0.47 0.57 o
-5 -5 10 6.60 3.64 0.57 o
-4 -5 10 19.68 20.01 0.69 o
-3 -5 10 2.13 2.33 0.53 o
-2 -5 10 13.28 18.22 0.59 o
-1 -5 10 13.03 8.54 0.59 o
0 -5 10 61.38 60.34 1.21 o
1 -5 10 2.49 3.78 0.49 o
2 -5 10 33.70 40.52 1.45 o
3 -5 10 61.98 59.34 1.34 o
4 -5 10 2.59 2.01 0.71 o
5 -5 10 35.89 36.59 1.45 o
6 -5 10 5.93 6.24 0.79 o
7 -5 10 2.63 3.69 0.98 o
8 -5 10 1.60 3.47 1.17 o
9 -5 10 0.05 -1.52 1.52 o
10 -5 10 0.01 -2.74 2.74 o
-11 -4 10 3.79 5.68 2.34 o
-10 -4 10 0.24 2.88 2.01 o
-9 -4 10 6.38 7.31 1.64 o
-8 -4 10 0.35 0.87 0.91 o
-7 -4 10 28.08 25.83 1.24 o
-6 -4 10 34.74 35.99 1.09 o
-5 -4 10 0.38 0.09 0.51 o
-4 -4 10 109.58 108.67 1.52 o
-3 -4 10 29.56 29.51 0.69 o
-2 -4 10 138.68 130.77 1.39 o
-1 -4 10 77.70 69.61 0.98 o
0 -4 10 0.26 -0.29 0.29 o
1 -4 10 34.00 33.50 1.13 o
2 -4 10 11.21 9.36 0.71 o
3 -4 10 1.07 1.14 0.47 o
4 -4 10 29.84 28.72 0.95 o
5 -4 10 8.64 9.56 0.78 o
6 -4 10 12.44 10.38 0.85 o
7 -4 10 0.29 -0.19 0.83 o
8 -4 10 5.32 3.27 1.28 o
9 -4 10 0.81 -0.17 1.98 o
10 -4 10 0.60 -2.00 2.00 o
-11 -3 10 2.57 6.83 3.09 o
-10 -3 10 6.28 5.38 1.62 o
-9 -3 10 8.92 7.27 1.36 o
-8 -3 10 5.13 4.17 0.94 o
-7 -3 10 1.25 1.29 0.63 o
-6 -3 10 54.01 52.83 1.14 o
-5 -3 10 40.53 39.30 1.03 o
-4 -3 10 35.00 38.43 0.98 o
-3 -3 10 37.99 37.97 0.77 o
-2 -3 10 76.60 67.54 0.86 o
-1 -3 10 184.86 167.47 1.78 o
0 -3 10 7.35 6.93 0.46 o
1 -3 10 9.59 6.71 0.45 o
2 -3 10 60.96 64.22 1.08 o
3 -3 10 0.37 0.26 0.41 o
4 -3 10 19.55 20.81 0.82 o
5 -3 10 43.19 46.05 1.24 o
6 -3 10 0.34 0.78 0.57 o
7 -3 10 4.74 4.39 0.80 o
8 -3 10 1.89 -0.16 1.06 o
9 -3 10 0.47 -1.20 1.20 o
10 -3 10 0.92 3.57 1.84 o
-11 -2 10 1.27 5.03 2.67 o
-10 -2 10 0.08 2.63 1.60 o
-9 -2 10 1.63 1.50 1.32 o
-8 -2 10 18.14 19.68 1.11 o
-7 -2 10 19.05 22.05 1.08 o
-6 -2 10 4.66 5.03 0.59 o
-5 -2 10 128.39 120.69 1.63 o
-4 -2 10 0.17 0.45 0.46 o
-3 -2 10 320.76 309.07 3.05 o
-2 -2 10 15.00 14.02 0.64 o
-1 -2 10 84.97 78.52 1.04 o
0 -2 10 155.36 160.24 1.58 o
1 -2 10 200.64 191.18 1.93 o
2 -2 10 6.73 8.49 0.70 o
3 -2 10 89.11 88.16 1.31 o
4 -2 10 6.17 4.66 0.48 o
5 -2 10 36.78 36.41 1.10 o
6 -2 10 6.83 7.41 0.84 o
7 -2 10 2.38 1.89 0.65 o
8 -2 10 1.70 2.54 0.98 o
9 -2 10 0.85 -0.82 1.34 o
10 -2 10 0.02 -1.03 1.67 o
11 -2 10 0.00 -2.29 2.29 o
-11 -1 10 8.00 5.88 3.02 o
-10 -1 10 2.54 1.71 1.79 o
-9 -1 10 17.94 16.94 2.33 o
-8 -1 10 1.68 0.47 0.81 o
-7 -1 10 29.95 31.13 1.31 o
-6 -1 10 0.02 0.61 0.57 o
-5 -1 10 13.39 10.98 0.68 o
-4 -1 10 15.06 13.79 0.81 o
-3 -1 10 108.47 104.48 1.38 o
-2 -1 10 25.98 28.44 0.72 o
-1 -1 10 0.77 1.97 0.28 o
0 -1 10 11.59 16.77 0.59 o
1 -1 10 57.86 61.79 0.98 o
2 -1 10 8.30 9.70 0.56 o
3 -1 10 76.63 73.19 1.10 o
4 -1 10 34.46 33.51 0.81 o
5 -1 10 33.77 32.53 1.07 o
6 -1 10 13.36 15.08 0.94 o
7 -1 10 17.50 20.71 1.07 o
8 -1 10 0.02 0.30 0.77 o
9 -1 10 0.63 -1.17 1.17 o
10 -1 10 0.26 -1.08 1.57 o
11 -1 10 0.03 -1.99 1.99 o
-11 0 10 1.05 -2.43 2.89 o
-10 0 10 0.13 1.10 1.71 o
-9 0 10 26.03 22.08 2.34 o
-8 0 10 7.09 8.38 0.96 o
-7 0 10 13.44 15.59 1.06 o
-6 0 10 19.51 19.67 0.81 o
-5 0 10 1.09 1.27 0.48 o
-4 0 10 31.50 28.12 0.87 o
-3 0 10 31.28 27.74 0.83 o
-2 0 10 23.99 19.94 0.68 o
-1 0 10 172.23 159.56 1.57 o
0 0 10 83.00 85.97 1.17 o
1 0 10 92.67 78.80 1.23 o
2 0 10 65.52 67.93 1.05 o
3 0 10 0.58 1.43 0.38 o
4 0 10 15.53 16.72 0.65 o
5 0 10 0.18 0.26 0.34 o
6 0 10 36.95 33.28 0.92 o
7 0 10 13.62 16.00 0.89 o
8 0 10 42.32 43.11 1.54 o
9 0 10 0.16 -0.98 0.98 o
10 0 10 1.06 0.50 1.88 o
11 0 10 0.03 -1.26 2.19 o
-10 1 10 0.00 2.24 2.35 o
-9 1 10 2.25 1.83 1.45 o
-8 1 10 15.86 15.03 1.16 o
-7 1 10 24.96 26.63 1.42 o
-6 1 10 41.40 40.80 1.42 o
-5 1 10 1.16 1.71 0.54 o
-4 1 10 178.43 176.58 2.24 o
-3 1 10 136.03 139.49 1.86 o
-2 1 10 59.38 52.19 1.04 o
-1 1 10 1.50 1.19 0.30 o
0 1 10 44.60 44.47 0.84 o
1 1 10 128.01 132.79 1.41 o
2 1 10 154.98 156.81 1.71 o
3 1 10 1.26 2.25 0.39 o
4 1 10 0.66 -0.23 0.29 o
5 1 10 3.94 5.01 0.39 o
6 1 10 39.07 42.03 1.03 o
7 1 10 26.24 26.59 1.39 o
8 1 10 17.80 19.43 1.07 o
9 1 10 4.30 4.75 1.23 o
10 1 10 2.50 4.58 1.29 o
11 1 10 0.27 3.22 1.87 o
12 1 10 0.03 -0.26 2.87 o
-10 2 10 0.51 -0.56 1.98 o
-9 2 10 4.07 4.49 1.48 o
-8 2 10 13.08 12.79 1.49 o
-7 2 10 21.78 22.95 1.16 o
-6 2 10 19.72 20.54 1.18 o
-5 2 10 60.68 57.09 1.36 o
-4 2 10 0.23 1.59 0.61 o
-3 2 10 385.10 363.21 4.14 o
-2 2 10 6.66 6.52 0.61 o
-1 2 10 9.42 7.88 0.38 o
0 2 10 8.59 10.54 0.57 o
1 2 10 29.35 22.75 0.79 o
2 2 10 331.33 338.81 3.05 o
3 2 10 191.70 176.77 1.89 o
4 2 10 114.67 106.33 1.17 o
5 2 10 11.01 10.79 0.47 o
6 2 10 15.60 15.64 0.65 o
7 2 10 3.93 4.44 0.56 o
8 2 10 36.76 38.22 1.21 o
9 2 10 1.61 1.69 1.00 o
10 2 10 0.95 1.95 1.18 o
11 2 10 0.59 0.94 1.74 o
12 2 10 1.08 0.83 2.62 o
-10 3 10 0.19 1.07 2.55 o
-9 3 10 8.79 9.14 2.10 o
-8 3 10 0.25 1.28 1.20 o
-7 3 10 0.01 0.47 0.91 o
-6 3 10 2.24 3.21 0.80 o
-5 3 10 46.44 39.04 1.24 o
-4 3 10 27.59 25.39 0.98 o
-3 3 10 5.12 6.06 0.54 o
-2 3 10 105.30 107.18 1.39 o
-1 3 10 194.24 173.17 1.52 o
0 3 10 111.45 127.50 1.25 o
1 3 10 5.39 6.60 0.42 o
2 3 10 3.69 4.79 0.37 o
3 3 10 106.32 106.37 1.22 o
4 3 10 12.45 13.31 0.54 o
5 3 10 84.47 87.29 1.38 o
6 3 10 3.94 3.65 0.50 o
7 3 10 1.48 1.86 0.51 o
8 3 10 26.88 28.88 1.89 o
9 3 10 4.54 3.02 0.93 o
10 3 10 6.99 6.48 1.21 o
11 3 10 1.21 2.34 1.90 o
12 3 10 1.28 -1.12 2.44 o
-9 4 10 2.02 2.62 1.78 o
-8 4 10 4.57 5.57 1.41 o
-7 4 10 0.72 -1.33 1.42 o
-6 4 10 34.11 29.71 1.53 o
-5 4 10 4.07 7.63 0.80 o
-4 4 10 65.00 69.39 1.42 o
-3 4 10 36.42 39.12 1.08 o
-2 4 10 52.12 44.41 0.91 o
-1 4 10 2.94 4.10 0.38 o
0 4 10 36.59 36.57 0.79 o
1 4 10 7.05 5.77 0.38 o
2 4 10 93.48 97.41 1.25 o
3 4 10 0.01 0.30 0.36 o
4 4 10 43.88 42.72 0.91 o
5 4 10 58.60 55.32 1.14 o
6 4 10 90.92 86.01 1.39 o
7 4 10 9.85 11.32 1.04 o
8 4 10 0.00 -0.13 0.67 o
9 4 10 1.58 1.46 0.93 o
10 4 10 1.94 2.82 1.25 o
11 4 10 4.77 5.64 1.82 o
12 4 10 0.01 0.25 2.88 o
-9 5 10 0.67 2.10 2.00 o
-8 5 10 1.84 1.31 1.52 o
-7 5 10 2.14 2.49 1.21 o
-6 5 10 1.72 3.91 1.12 o
-5 5 10 14.79 16.92 1.05 o
-4 5 10 11.63 9.18 1.01 o
-3 5 10 4.92 4.36 0.78 o
-2 5 10 10.35 14.20 0.83 o
-1 5 10 46.20 50.05 0.84 o
0 5 10 0.06 -0.16 0.35 o
1 5 10 80.09 81.83 0.97 o
2 5 10 68.56 70.64 0.93 o
3 5 10 25.82 20.31 0.69 o
4 5 10 76.93 73.09 1.09 o
5 5 10 1.05 1.01 0.44 o
6 5 10 47.59 44.60 1.08 o
7 5 10 3.98 3.58 0.64 o
8 5 10 0.55 -0.42 0.67 o
9 5 10 0.87 1.62 0.86 o
10 5 10 0.05 0.48 1.36 o
11 5 10 1.30 1.73 1.88 o
12 5 10 1.94 0.85 3.46 o
-9 6 10 0.05 2.15 8.53 o
-8 6 10 1.53 3.95 1.98 o
-7 6 10 2.79 2.17 1.43 o
-6 6 10 0.31 -0.20 1.17 o
-5 6 10 5.77 5.80 0.90 o
-4 6 10 6.95 6.52 1.03 o
-3 6 10 54.53 61.79 1.42 o
-2 6 10 42.69 46.03 1.14 o
-1 6 10 26.08 20.08 0.88 o
0 6 10 152.74 138.44 1.60 o
1 6 10 0.01 0.08 0.27 o
2 6 10 8.39 6.38 0.48 o
3 6 10 30.20 26.16 0.82 o
4 6 10 45.49 46.60 0.88 o
5 6 10 21.72 21.89 0.80 o
6 6 10 0.68 0.56 0.54 o
7 6 10 4.43 4.63 0.73 o
8 6 10 0.08 -0.67 0.67 o
9 6 10 1.86 2.44 0.83 o
10 6 10 2.17 0.96 1.33 o
11 6 10 0.13 -0.99 1.96 o
12 6 10 1.64 4.22 2.34 o
-8 7 10 0.45 0.06 2.15 o
-7 7 10 0.44 0.62 2.03 o
-6 7 10 0.03 2.08 1.47 o
-5 7 10 0.12 -0.16 1.31 o
-4 7 10 5.56 3.82 0.88 o
-3 7 10 0.27 0.14 0.66 o
-2 7 10 18.60 14.17 0.82 o
-1 7 10 2.70 4.65 0.60 o
0 7 10 155.35 169.34 2.01 o
1 7 10 26.90 29.74 0.71 o
2 7 10 148.49 133.38 1.66 o
3 7 10 141.15 143.96 1.76 o
4 7 10 25.14 18.99 0.83 o
5 7 10 19.92 16.33 0.82 o
6 7 10 11.99 11.69 0.85 o
7 7 10 1.63 0.00 0.70 o
8 7 10 8.82 10.43 0.87 o
9 7 10 2.83 2.92 0.89 o
10 7 10 3.94 5.72 1.39 o
11 7 10 1.55 -0.01 1.74 o
12 7 10 0.24 1.96 2.26 o
-7 8 10 0.01 2.38 1.94 o
-6 8 10 3.46 3.78 1.96 o
-5 8 10 0.09 1.10 1.11 o
-4 8 10 18.41 15.74 1.14 o
-3 8 10 47.33 45.80 1.47 o
-2 8 10 16.30 19.90 1.04 o
-1 8 10 20.38 23.36 1.00 o
0 8 10 5.79 10.15 0.69 o
1 8 10 32.87 27.44 0.89 o
2 8 10 3.13 1.58 0.45 o
3 8 10 0.90 1.73 0.46 o
4 8 10 0.16 1.13 0.45 o
5 8 10 37.21 41.84 1.23 o
6 8 10 0.30 0.02 0.61 o
7 8 10 4.08 4.12 0.76 o
8 8 10 0.73 2.24 0.80 o
9 8 10 3.94 2.96 1.25 o
10 8 10 1.49 2.81 1.33 o
11 8 10 4.77 6.41 1.93 o
12 8 10 0.00 2.52 2.57 o
-7 9 10 0.00 8.00 2.28 o
-6 9 10 0.98 3.88 2.16 o
-5 9 10 2.83 4.96 1.85 o
-4 9 10 1.36 -0.21 1.17 o
-3 9 10 8.09 10.62 0.95 o
-2 9 10 1.40 1.77 0.74 o
-1 9 10 20.09 17.27 1.16 o
0 9 10 1.55 0.99 0.54 o
1 9 10 49.61 61.02 1.35 o
2 9 10 57.17 58.75 1.31 o
3 9 10 1.74 1.05 0.53 o
4 9 10 56.09 52.06 1.18 o
5 9 10 0.28 0.67 0.64 o
6 9 10 14.25 12.19 1.02 o
7 9 10 0.05 -0.86 0.86 o
8 9 10 0.02 0.20 1.00 o
9 9 10 0.01 0.61 1.15 o
10 9 10 0.03 1.19 1.47 o
11 9 10 2.95 2.15 2.12 o
12 9 10 1.59 2.11 2.65 o
-6 10 10 0.39 4.61 3.30 o
-5 10 10 3.01 0.78 2.49 o
-4 10 10 1.09 0.14 1.24 o
-3 10 10 0.02 0.85 1.05 o
-2 10 10 10.24 10.25 1.05 o
-1 10 10 6.02 8.20 0.96 o
0 10 10 40.40 41.27 1.43 o
1 10 10 9.93 13.61 1.04 o
2 10 10 24.80 20.71 1.43 o
3 10 10 2.62 2.66 0.60 o
4 10 10 29.42 34.32 1.07 o
5 10 10 6.38 4.81 0.76 o
6 10 10 11.40 11.87 0.91 o
7 10 10 10.75 12.83 1.17 o
8 10 10 0.70 1.19 1.60 o
9 10 10 2.65 0.90 1.72 o
10 10 10 3.97 2.09 1.96 o
11 10 10 0.01 0.62 2.23 o
12 10 10 3.05 -1.54 2.71 o
-6 11 10 0.08 -5.69 5.69 o
-5 11 10 1.00 0.07 1.83 o
-4 11 10 1.78 1.03 1.37 o
-3 11 10 0.00 0.78 1.19 o
-2 11 10 1.03 1.19 1.16 o
-1 11 10 4.22 4.22 0.88 o
0 11 10 31.59 27.97 1.43 o
1 11 10 27.59 28.35 2.02 o
2 11 10 28.92 30.91 1.25 o
3 11 10 41.92 41.52 1.41 o
4 11 10 30.86 28.77 1.54 o
5 11 10 33.23 30.22 1.84 o
6 11 10 9.89 12.32 0.97 o
7 11 10 1.04 1.61 0.94 o
8 11 10 8.41 5.95 1.93 o
9 11 10 4.36 4.87 1.83 o
10 11 10 10.19 10.05 2.01 o
11 11 10 0.29 3.19 2.48 o
12 11 10 0.08 1.28 2.86 o
-5 12 10 2.18 2.74 2.36 o
-4 12 10 0.00 2.44 1.72 o
-3 12 10 1.71 1.49 1.48 o
-2 12 10 1.94 2.59 1.37 o
-1 12 10 11.53 9.99 1.37 o
0 12 10 0.54 0.01 1.35 o
1 12 10 0.45 -0.05 0.85 o
2 12 10 4.12 3.56 0.82 o
3 12 10 28.13 25.96 1.30 o
4 12 10 4.75 5.60 0.90 o
5 12 10 40.13 43.34 1.69 o
6 12 10 2.56 1.68 0.96 o
7 12 10 3.78 3.47 1.87 o
8 12 10 2.68 2.55 2.06 o
9 12 10 1.99 5.68 1.80 o
10 12 10 1.19 1.59 1.91 o
11 12 10 3.49 4.26 2.54 o
-4 13 10 0.19 -0.15 2.23 o
-3 13 10 0.20 -0.79 1.78 o
-2 13 10 0.04 -1.47 1.47 o
-1 13 10 14.74 15.61 1.56 o
0 13 10 8.25 7.48 1.64 o
1 13 10 4.69 1.00 1.45 o
2 13 10 1.94 1.60 1.11 o
3 13 10 4.84 4.81 1.74 o
4 13 10 31.54 31.49 3.06 o
5 13 10 1.26 0.83 1.10 o
6 13 10 0.41 1.98 1.12 o
7 13 10 0.05 -0.64 1.26 o
8 13 10 0.38 1.12 1.87 o
9 13 10 7.89 8.61 2.33 o
10 13 10 1.38 3.06 2.42 o
11 13 10 2.51 1.77 2.38 o
-3 14 10 2.08 1.29 2.67 o
-2 14 10 0.02 -0.30 2.18 o
-1 14 10 0.03 -1.08 1.64 o
0 14 10 2.74 2.77 1.49 o
1 14 10 0.13 -0.46 1.33 o
2 14 10 1.94 -0.41 1.69 o
3 14 10 1.35 0.82 1.61 o
4 14 10 1.41 -0.37 1.54 o
5 14 10 13.55 16.65 1.56 o
6 14 10 0.21 2.48 1.68 o
7 14 10 5.93 5.95 1.86 o
8 14 10 0.45 0.97 4.04 o
9 14 10 2.85 4.95 2.62 o
10 14 10 1.36 -2.97 4.24 o
-1 15 10 0.43 1.75 1.99 o
0 15 10 0.71 1.81 1.80 o
1 15 10 0.27 -1.81 2.04 o
2 15 10 2.66 5.95 1.87 o
3 15 10 13.93 14.43 1.89 o
4 15 10 0.46 0.68 2.29 o
5 15 10 5.89 11.30 3.06 o
6 15 10 0.77 1.65 1.97 o
7 15 10 5.95 5.08 2.13 o
8 15 10 6.49 10.82 2.73 o
9 15 10 0.20 7.27 3.49 o
0 16 10 0.03 -2.40 2.40 o
1 16 10 0.14 0.01 2.26 o
2 16 10 0.11 -0.78 2.08 o
3 16 10 1.15 1.09 2.01 o
4 16 10 3.48 5.11 2.44 o
5 16 10 0.38 1.87 4.20 o
6 16 10 3.10 4.67 2.58 o
7 16 10 1.04 -2.19 2.45 o
8 16 10 8.04 12.88 2.83 o
2 17 10 0.88 -1.31 2.67 o
3 17 10 0.00 -2.76 2.94 o
4 17 10 1.15 2.51 3.19 o
5 17 10 0.36 -0.74 2.90 o
6 17 10 1.44 3.24 2.97 o
7 17 10 1.96 5.40 3.69 o
-6 -15 11 0.03 -1.52 2.97 o
-5 -15 11 0.00 2.91 3.59 o
-4 -15 11 0.17 -1.64 2.26 o
-3 -15 11 0.02 -2.27 2.27 o
-2 -15 11 0.21 1.34 3.91 o
-1 -15 11 0.09 2.19 2.51 o
-7 -14 11 1.10 1.71 2.71 o
-6 -14 11 0.09 -0.51 2.46 o
-5 -14 11 0.79 1.90 2.18 o
-4 -14 11 0.39 -1.04 2.05 o
-3 -14 11 0.04 0.79 1.70 o
-2 -14 11 0.29 1.24 1.91 o
-1 -14 11 1.31 4.09 2.08 o
0 -14 11 0.33 0.28 2.04 o
1 -14 11 0.08 0.07 2.12 o
-8 -13 11 2.75 3.88 2.75 o
-7 -13 11 0.15 -0.04 2.38 o
-6 -13 11 0.24 1.09 2.18 o
-5 -13 11 0.71 0.82 1.59 o
-4 -13 11 2.08 1.49 1.81 o
-3 -13 11 1.56 1.08 1.84 o
-2 -13 11 0.06 0.85 1.44 o
-1 -13 11 1.00 0.55 1.31 o
0 -13 11 0.25 1.64 1.49 o
1 -13 11 4.42 6.54 2.69 o
2 -13 11 0.02 -1.30 3.23 o
3 -13 11 0.49 4.00 2.47 o
-9 -12 11 3.64 -0.57 5.63 o
-8 -12 11 9.58 10.24 4.44 o
-7 -12 11 1.11 1.64 2.19 o
-6 -12 11 6.92 5.84 1.65 o
-5 -12 11 0.11 -0.16 1.28 o
-4 -12 11 0.19 -0.82 1.22 o
-3 -12 11 5.75 8.18 1.83 o
-2 -12 11 4.28 5.88 1.65 o
-1 -12 11 0.43 0.03 1.32 o
0 -12 11 0.33 -0.25 1.24 o
1 -12 11 2.96 3.53 1.39 o
2 -12 11 3.22 3.74 1.73 o
3 -12 11 0.44 -0.43 1.91 o
4 -12 11 0.06 -1.97 2.23 o
-9 -11 11 1.97 4.91 2.89 o
-8 -11 11 1.90 -0.50 2.28 o
-7 -11 11 4.12 2.36 1.96 o
-6 -11 11 21.32 23.69 2.17 o
-5 -11 11 0.91 2.96 1.19 o
-4 -11 11 0.30 -0.13 1.08 o
-3 -11 11 3.23 5.14 0.99 o
-2 -11 11 13.39 13.92 0.96 o
-1 -11 11 7.69 7.69 0.94 o
0 -11 11 17.48 23.24 1.39 o
1 -11 11 2.38 2.63 1.15 o
2 -11 11 0.48 -0.40 1.58 o
3 -11 11 0.09 2.00 1.70 o
4 -11 11 0.00 1.70 2.29 o
5 -11 11 0.02 0.91 2.51 o
-10 -10 11 1.65 -0.04 2.71 o
-9 -10 11 4.26 6.67 2.50 o
-8 -10 11 2.79 1.86 1.99 o
-7 -10 11 2.08 2.51 1.40 o
-6 -10 11 0.42 1.28 1.31 o
-5 -10 11 8.02 8.60 1.52 o
-4 -10 11 9.17 6.47 0.90 o
-3 -10 11 7.65 7.61 0.90 o
-2 -10 11 32.15 32.93 1.60 o
-1 -10 11 1.14 0.25 0.75 o
0 -10 11 18.48 22.46 1.14 o
1 -10 11 4.62 4.27 1.08 o
2 -10 11 8.53 7.59 1.31 o
3 -10 11 0.29 -1.34 1.34 o
4 -10 11 3.26 4.34 1.57 o
5 -10 11 1.58 4.23 1.69 o
6 -10 11 0.36 3.54 1.95 o
-10 -9 11 0.14 -0.57 3.60 o
-9 -9 11 0.97 0.83 2.25 o
-8 -9 11 0.04 1.88 4.74 o
-7 -9 11 12.66 13.73 2.03 o
-6 -9 11 5.41 4.90 1.30 o
-5 -9 11 2.53 2.15 1.04 o
-4 -9 11 0.98 -0.22 0.85 o
-3 -9 11 2.82 1.15 0.75 o
-2 -9 11 18.66 20.07 0.94 o
-1 -9 11 9.96 9.26 0.78 o
0 -9 11 28.03 32.81 1.46 o
1 -9 11 24.86 25.77 1.82 o
2 -9 11 0.36 1.13 0.76 o
3 -9 11 12.66 11.26 1.47 o
4 -9 11 8.24 10.76 1.49 o
5 -9 11 4.10 8.54 1.51 o
6 -9 11 0.45 5.21 1.63 o
7 -9 11 0.03 2.01 2.44 o
-10 -8 11 3.84 6.57 3.63 o
-9 -8 11 5.90 6.18 2.08 o
-8 -8 11 0.57 -0.46 1.24 o
-7 -8 11 8.10 8.60 1.20 o
-6 -8 11 1.49 0.35 1.17 o
-5 -8 11 13.30 14.64 1.02 o
-4 -8 11 7.84 10.10 0.87 o
-3 -8 11 25.68 29.29 1.43 o
-2 -8 11 13.69 10.70 0.72 o
-1 -8 11 41.39 40.09 1.25 o
0 -8 11 27.17 27.39 1.11 o
1 -8 11 0.07 0.39 0.67 o
2 -8 11 16.76 15.23 0.88 o
3 -8 11 0.33 0.24 0.89 o
4 -8 11 8.75 9.06 1.24 o
5 -8 11 0.29 0.57 1.04 o
6 -8 11 1.90 4.00 2.03 o
7 -8 11 0.64 -0.13 1.65 o
-10 -7 11 1.39 1.24 2.23 o
-9 -7 11 0.95 1.49 1.51 o
-8 -7 11 18.15 18.72 1.17 o
-7 -7 11 4.05 5.61 1.10 o
-6 -7 11 19.72 17.74 0.96 o
-5 -7 11 19.69 18.08 1.11 o
-4 -7 11 15.50 19.17 1.10 o
-3 -7 11 40.63 35.56 1.37 o
-2 -7 11 65.48 70.78 1.51 o
-1 -7 11 34.43 32.81 1.05 o
0 -7 11 27.46 30.32 1.30 o
1 -7 11 0.07 -0.57 0.57 o
2 -7 11 4.80 3.44 0.65 o
3 -7 11 12.23 10.81 0.83 o
4 -7 11 0.01 0.09 0.88 o
5 -7 11 22.42 23.33 1.74 o
6 -7 11 0.55 -1.04 1.04 o
7 -7 11 0.43 1.71 1.31 o
8 -7 11 0.11 -2.93 2.93 o
-11 -6 11 7.23 10.14 4.97 o
-10 -6 11 0.29 2.92 2.07 o
-9 -6 11 13.38 12.04 2.57 o
-8 -6 11 1.98 5.43 1.25 o
-7 -6 11 24.57 20.94 1.12 o
-6 -6 11 1.53 2.32 0.63 o
-5 -6 11 19.31 19.72 1.11 o
-4 -6 11 41.32 37.94 1.34 o
-3 -6 11 0.10 0.27 0.64 o
-2 -6 11 44.52 45.05 1.18 o
-1 -6 11 18.59 21.68 0.92 o
0 -6 11 27.92 27.49 1.19 o
1 -6 11 12.01 11.94 0.72 o
2 -6 11 12.26 13.10 0.79 o
3 -6 11 3.06 4.25 0.65 o
4 -6 11 5.34 3.21 0.83 o
5 -6 11 0.01 -0.03 0.83 o
6 -6 11 1.68 -0.17 1.24 o
7 -6 11 1.68 3.03 1.11 o
8 -6 11 0.26 0.31 1.60 o
9 -6 11 0.15 -3.00 3.00 o
-11 -5 11 5.58 9.19 2.99 o
-10 -5 11 0.31 3.39 2.32 o
-9 -5 11 18.77 25.21 2.11 o
-8 -5 11 2.95 5.98 1.20 o
-7 -5 11 26.70 23.28 1.23 o
-6 -5 11 11.64 13.54 0.78 o
-5 -5 11 0.10 0.32 0.52 o
-4 -5 11 2.35 5.01 0.45 o
-3 -5 11 18.10 18.60 1.06 o
-2 -5 11 6.54 6.80 0.57 o
-1 -5 11 21.32 18.68 0.88 o
0 -5 11 0.97 1.25 0.58 o
1 -5 11 6.97 5.84 0.58 o
2 -5 11 53.51 55.29 1.34 o
3 -5 11 4.01 5.64 0.67 o
4 -5 11 5.17 8.08 0.89 o
5 -5 11 0.14 -0.43 0.84 o
6 -5 11 0.81 -0.29 0.92 o
7 -5 11 0.06 -1.01 1.11 o
8 -5 11 5.14 7.69 1.53 o
9 -5 11 0.36 -1.66 1.99 o
-11 -4 11 0.53 1.64 2.60 o
-10 -4 11 0.34 0.23 2.20 o
-9 -4 11 0.00 -0.77 1.53 o
-8 -4 11 8.11 9.30 1.17 o
-7 -4 11 13.27 16.43 1.18 o
-6 -4 11 8.15 7.20 0.70 o
-5 -4 11 1.93 0.79 0.57 o
-4 -4 11 53.71 55.12 1.02 o
-3 -4 11 0.81 1.50 0.41 o
-2 -4 11 3.52 3.27 0.35 o
-1 -4 11 38.31 34.52 0.79 o
0 -4 11 5.20 5.32 0.44 o
1 -4 11 6.49 5.89 0.65 o
2 -4 11 0.10 0.62 0.50 o
3 -4 11 4.39 3.26 0.57 o
4 -4 11 0.76 -0.17 0.76 o
5 -4 11 3.89 6.08 0.85 o
6 -4 11 1.13 0.57 0.79 o
7 -4 11 0.40 -0.35 1.08 o
8 -4 11 3.58 2.73 1.49 o
9 -4 11 2.53 1.21 1.61 o
10 -4 11 0.87 1.02 2.31 o
-11 -3 11 0.03 -2.94 2.94 o
-10 -3 11 1.08 1.73 1.78 o
-9 -3 11 0.85 1.18 1.93 o
-8 -3 11 2.92 1.37 1.30 o
-7 -3 11 9.14 10.87 0.83 o
-6 -3 11 10.38 8.89 0.72 o
-5 -3 11 21.85 20.05 0.94 o
-4 -3 11 0.73 1.48 0.44 o
-3 -3 11 8.19 5.68 0.59 o
-2 -3 11 6.49 6.84 0.52 o
-1 -3 11 65.69 57.78 0.94 o
0 -3 11 45.10 46.12 1.33 o
1 -3 11 39.42 38.98 0.90 o
2 -3 11 25.45 28.16 0.86 o
3 -3 11 0.20 -0.31 0.50 o
4 -3 11 5.88 6.44 0.57 o
5 -3 11 9.74 9.76 0.80 o
6 -3 11 2.09 1.72 0.72 o
7 -3 11 5.01 3.57 0.88 o
8 -3 11 0.50 0.40 1.29 o
9 -3 11 0.40 -1.32 1.32 o
10 -3 11 0.01 1.09 2.18 o
-10 -2 11 0.10 2.59 2.04 o
-9 -2 11 0.04 0.80 1.43 o
-8 -2 11 2.37 1.57 1.09 o
-7 -2 11 53.92 51.94 1.53 o
-6 -2 11 2.09 3.09 0.70 o
-5 -2 11 10.15 10.48 0.66 o
-4 -2 11 34.39 34.88 1.13 o
-3 -2 11 44.32 44.94 0.90 o
-2 -2 11 62.08 71.93 1.04 o
-1 -2 11 1.75 2.07 0.38 o
0 -2 11 30.08 31.08 0.82 o
1 -2 11 0.16 0.98 0.37 o
2 -2 11 15.41 17.40 0.84 o
3 -2 11 6.82 5.97 0.47 o
4 -2 11 0.27 0.12 0.50 o
5 -2 11 26.65 29.07 1.12 o
6 -2 11 6.68 7.34 0.72 o
7 -2 11 1.68 1.73 0.78 o
8 -2 11 4.87 5.17 1.41 o
9 -2 11 0.96 1.01 1.51 o
10 -2 11 0.85 -0.61 2.22 o
-10 -1 11 2.87 2.10 2.69 o
-9 -1 11 4.70 4.36 1.53 o
-8 -1 11 12.99 11.03 1.06 o
-7 -1 11 21.78 23.46 1.48 o
-6 -1 11 63.71 64.31 1.35 o
-5 -1 11 2.34 3.09 0.63 o
-4 -1 11 15.82 16.19 0.79 o
-3 -1 11 12.65 13.30 0.77 o
-2 -1 11 67.50 58.91 0.91 o
-1 -1 11 155.39 136.34 1.63 o
0 -1 11 10.11 13.17 0.69 o
1 -1 11 43.47 44.81 0.98 o
2 -1 11 78.26 79.13 1.25 o
3 -1 11 4.80 3.41 0.41 o
4 -1 11 25.81 24.19 0.84 o
5 -1 11 25.13 26.28 0.91 o
6 -1 11 5.60 4.01 0.67 o
7 -1 11 2.18 1.74 0.83 o
8 -1 11 6.44 5.12 1.19 o
9 -1 11 0.98 1.07 1.23 o
10 -1 11 0.85 2.11 1.82 o
11 -1 11 0.15 -0.47 2.87 o
-10 0 11 0.05 -0.97 2.17 o
-9 0 11 4.85 2.58 1.54 o
-8 0 11 10.73 10.83 1.25 o
-7 0 11 10.50 13.84 1.05 o
-6 0 11 42.57 38.88 1.33 o
-5 0 11 20.78 19.05 0.87 o
-4 0 11 46.49 44.15 1.07 o
-3 0 11 42.62 42.96 0.99 o
-2 0 11 5.16 6.52 0.53 o
-1 0 11 86.11 90.76 1.04 o
0 0 11 0.46 0.19 0.39 o
1 0 11 33.98 30.20 0.84 o
2 0 11 0.28 1.35 0.40 o
3 0 11 14.62 16.13 0.70 o
4 0 11 1.81 2.34 0.41 o
5 0 11 42.75 38.15 1.06 o
6 0 11 0.00 0.51 0.60 o
7 0 11 29.40 29.68 1.49 o
8 0 11 6.97 8.35 1.01 o
9 0 11 6.20 8.05 1.58 o
10 0 11 0.57 2.47 1.73 o
11 0 11 0.00 1.80 2.16 o
-10 1 11 2.24 1.10 3.70 o
-9 1 11 0.00 0.46 1.63 o
-8 1 11 2.81 1.95 1.40 o
-7 1 11 24.03 22.50 1.34 o
-6 1 11 2.47 2.97 0.73 o
-5 1 11 23.13 25.28 0.97 o
-4 1 11 56.09 49.69 1.27 o
-3 1 11 179.02 171.21 2.22 o
-2 1 11 58.00 56.21 1.07 o
-1 1 11 43.99 41.24 0.72 o
0 1 11 1.31 1.88 0.36 o
1 1 11 9.74 6.91 0.58 o
2 1 11 195.99 190.83 2.56 o
3 1 11 25.89 25.81 0.79 o
4 1 11 2.23 2.94 0.44 o
5 1 11 3.30 1.71 0.43 o
6 1 11 0.99 1.63 0.58 o
7 1 11 10.54 10.49 0.94 o
8 1 11 2.00 4.25 1.08 o
9 1 11 2.48 4.22 1.76 o
10 1 11 0.59 -0.10 1.61 o
11 1 11 0.75 -0.98 2.00 o
-10 2 11 0.18 -1.41 2.86 o
-9 2 11 3.23 0.75 1.81 o
-8 2 11 0.67 -0.19 1.32 o
-7 2 11 4.42 5.11 1.07 o
-6 2 11 0.00 -0.09 0.76 o
-5 2 11 2.11 1.48 0.72 o
-4 2 11 5.68 4.43 0.75 o
-3 2 11 27.91 27.48 1.10 o
-2 2 11 75.40 74.95 1.29 o
-1 2 11 28.86 24.35 0.67 o
0 2 11 208.84 215.53 2.27 o
1 2 11 22.86 18.65 0.59 o
2 2 11 109.82 98.25 1.30 o
3 2 11 192.03 177.19 2.14 o
4 2 11 2.56 1.54 0.40 o
5 2 11 45.76 43.68 0.93 o
6 2 11 2.14 2.79 0.45 o
7 2 11 1.30 2.44 0.64 o
8 2 11 16.06 20.99 1.38 o
9 2 11 9.32 11.32 1.44 o
10 2 11 1.98 1.94 1.83 o
11 2 11 0.01 -1.04 2.11 o
-9 3 11 1.64 1.91 1.95 o
-8 3 11 6.31 5.85 1.44 o
-7 3 11 0.85 0.48 1.14 o
-6 3 11 7.82 8.02 1.03 o
-5 3 11 0.00 -0.68 0.68 o
-4 3 11 146.20 151.66 2.60 o
-3 3 11 93.34 94.89 1.94 o
-2 3 11 3.10 2.01 0.51 o
-1 3 11 227.06 211.76 2.03 o
0 3 11 246.64 213.38 2.15 o
1 3 11 0.02 0.22 0.35 o
2 3 11 11.29 15.76 0.63 o
3 3 11 72.61 68.11 1.10 o
4 3 11 2.72 2.67 0.43 o
5 3 11 0.47 0.72 0.53 o
6 3 11 54.55 49.99 1.37 o
7 3 11 2.09 1.69 0.60 o
8 3 11 16.04 18.34 1.67 o
9 3 11 0.14 -0.32 1.17 o
10 3 11 0.30 0.06 1.39 o
11 3 11 0.75 0.22 2.41 o
12 3 11 0.00 3.04 3.25 o
-9 4 11 0.07 -2.10 2.10 o
-8 4 11 4.26 2.42 2.30 o
-7 4 11 8.06 9.88 1.32 o
-6 4 11 15.84 17.35 1.33 o
-5 4 11 1.12 -0.18 0.91 o
-4 4 11 21.80 20.51 1.36 o
-3 4 11 53.27 44.02 1.22 o
-2 4 11 6.31 6.94 0.61 o
-1 4 11 24.67 26.73 0.94 o
0 4 11 3.07 6.02 0.48 o
1 4 11 180.59 185.10 1.89 o
2 4 11 78.37 93.47 1.38 o
3 4 11 12.02 12.31 0.63 o
4 4 11 1.40 1.10 0.47 o
5 4 11 13.58 13.84 1.16 o
6 4 11 16.33 15.37 1.28 o
7 4 11 6.24 5.43 0.61 o
8 4 11 1.47 2.85 0.78 o
9 4 11 6.68 7.42 1.23 o
10 4 11 3.01 6.10 1.68 o
11 4 11 0.14 1.74 1.97 o
12 4 11 0.82 0.06 2.51 o
-9 5 11 1.28 -2.40 3.61 o
-8 5 11 1.84 -0.14 1.68 o
-7 5 11 0.20 0.14 1.56 o
-6 5 11 15.50 17.58 1.39 o
-5 5 11 6.53 5.88 1.10 o
-4 5 11 23.60 20.85 1.37 o
-3 5 11 34.22 40.55 1.48 o
-2 5 11 23.48 26.65 1.00 o
-1 5 11 0.51 -0.52 0.52 o
0 5 11 111.24 98.13 1.31 o
1 5 11 0.00 0.00 0.39 o
2 5 11 19.42 20.80 0.81 o
3 5 11 23.12 27.72 0.82 o
4 5 11 1.37 1.61 0.56 o
5 5 11 0.10 0.20 0.52 o
6 5 11 0.01 0.21 0.53 o
7 5 11 16.96 16.00 0.91 o
8 5 11 2.55 2.56 0.77 o
9 5 11 4.98 5.18 1.50 o
10 5 11 0.13 0.12 1.60 o
11 5 11 0.52 2.94 1.99 o
12 5 11 0.16 -2.52 2.52 o
-8 6 11 0.47 -2.70 3.53 o
-7 6 11 0.41 -1.95 1.95 o
-6 6 11 0.58 -0.22 1.19 o
-5 6 11 3.73 3.12 1.92 o
-4 6 11 1.32 1.41 1.03 o
-3 6 11 1.83 2.54 0.74 o
-2 6 11 18.64 12.63 0.77 o
-1 6 11 26.09 27.31 1.02 o
0 6 11 122.50 126.04 1.57 o
1 6 11 26.32 27.71 0.79 o
2 6 11 25.32 25.01 0.87 o
3 6 11 55.69 61.04 1.37 o
4 6 11 11.01 9.29 0.87 o
5 6 11 75.80 71.89 1.28 o
6 6 11 2.12 1.43 0.70 o
7 6 11 6.95 9.44 0.83 o
8 6 11 3.03 3.11 0.79 o
9 6 11 7.49 11.01 1.07 o
10 6 11 7.53 7.56 1.70 o
11 6 11 0.18 -0.59 2.14 o
12 6 11 0.18 -1.90 2.94 o
-8 7 11 0.99 -0.20 2.43 o
-7 7 11 0.56 3.52 2.09 o
-6 7 11 10.63 8.68 1.77 o
-5 7 11 4.73 5.18 1.35 o
-4 7 11 1.06 0.40 1.00 o
-3 7 11 10.05 7.18 0.98 o
-2 7 11 1.37 0.17 0.61 o
-1 7 11 39.83 44.63 1.20 o
0 7 11 0.43 0.37 0.53 o
1 7 11 37.54 29.51 0.74 o
2 7 11 0.33 0.46 0.48 o
3 7 11 64.55 65.86 1.20 o
4 7 11 0.23 1.19 0.55 o
5 7 11 60.80 60.82 1.16 o
6 7 11 37.20 39.19 1.71 o
7 7 11 6.29 8.01 0.93 o
8 7 11 11.36 11.35 1.01 o
9 7 11 0.45 1.21 1.01 o
10 7 11 2.11 2.32 1.39 o
11 7 11 3.31 1.89 2.23 o
12 7 11 0.20 0.66 2.81 o
-7 8 11 0.16 -0.45 2.16 o
-6 8 11 0.83 0.76 2.07 o
-5 8 11 2.16 1.61 2.14 o
-4 8 11 10.98 8.45 1.15 o
-3 8 11 3.93 4.23 0.93 o
-2 8 11 1.16 0.53 0.69 o
-1 8 11 39.45 30.65 1.17 o
0 8 11 8.29 7.44 0.74 o
1 8 11 34.58 36.66 1.15 o
2 8 11 86.26 89.87 1.43 o
3 8 11 9.44 9.60 0.63 o
4 8 11 90.80 89.60 1.55 o
5 8 11 0.32 0.77 0.61 o
6 8 11 42.58 42.97 1.90 o
7 8 11 0.05 -0.43 0.79 o
8 8 11 4.75 5.47 1.01 o
9 8 11 1.29 0.92 1.18 o
10 8 11 0.58 1.03 1.84 o
11 8 11 0.56 -1.15 2.16 o
12 8 11 1.59 2.06 2.79 o
-6 9 11 0.38 -0.61 2.35 o
-5 9 11 1.09 1.10 1.76 o
-4 9 11 1.15 0.58 1.31 o
-3 9 11 9.35 10.82 1.22 o
-2 9 11 6.00 3.96 0.88 o
-1 9 11 2.35 2.63 0.75 o
0 9 11 27.22 32.59 1.20 o
1 9 11 0.02 0.68 0.62 o
2 9 11 13.72 10.49 0.75 o
3 9 11 14.86 13.79 0.79 o
4 9 11 21.35 19.29 0.96 o
5 9 11 24.87 24.38 1.31 o
6 9 11 4.78 4.38 0.96 o
7 9 11 16.43 16.84 1.69 o
8 9 11 0.47 0.44 1.25 o
9 9 11 0.39 -1.33 1.33 o
10 9 11 0.01 1.16 1.64 o
11 9 11 0.69 0.26 3.24 o
12 9 11 0.33 3.75 2.93 o
-6 10 11 2.99 8.72 4.21 o
-5 10 11 0.11 -0.02 1.77 o
-4 10 11 0.33 0.76 1.51 o
-3 10 11 1.19 1.44 1.50 o
-2 10 11 1.30 2.83 1.25 o
-1 10 11 0.88 0.90 0.81 o
0 10 11 37.01 34.52 1.47 o
1 10 11 4.41 4.75 0.79 o
2 10 11 6.36 5.41 0.73 o
3 10 11 28.74 33.55 1.24 o
4 10 11 0.44 -0.62 0.62 o
5 10 11 41.14 40.55 1.55 o
6 10 11 8.44 9.33 1.04 o
7 10 11 11.15 9.74 1.54 o
8 10 11 4.06 0.58 1.57 o
9 10 11 1.14 1.36 1.70 o
10 10 11 1.12 2.02 3.08 o
11 10 11 0.14 0.37 3.70 o
-5 11 11 0.77 -1.50 2.15 o
-4 11 11 0.42 2.97 1.72 o
-3 11 11 4.59 6.84 1.85 o
-2 11 11 0.31 -0.65 1.20 o
-1 11 11 2.84 1.97 1.09 o
0 11 11 0.52 -0.10 0.93 o
1 11 11 9.51 12.21 1.20 o
2 11 11 2.01 1.40 0.75 o
3 11 11 0.57 0.37 0.71 o
4 11 11 3.38 3.67 0.88 o
5 11 11 14.38 14.88 1.43 o
6 11 11 20.47 17.19 1.43 o
7 11 11 1.74 0.66 1.14 o
8 11 11 9.15 11.73 2.18 o
9 11 11 0.95 2.81 2.11 o
10 11 11 5.04 5.35 2.14 o
11 11 11 0.21 2.04 5.80 o
-4 12 11 0.10 -2.01 2.01 o
-3 12 11 0.75 1.35 1.63 o
-2 12 11 0.21 -0.21 1.36 o
-1 12 11 6.91 7.02 1.95 o
0 12 11 11.52 14.13 1.61 o
1 12 11 6.49 6.51 1.15 o
2 12 11 13.00 13.04 1.88 o
3 12 11 1.67 1.08 0.94 o
4 12 11 41.94 39.92 2.09 o
5 12 11 0.71 0.61 1.13 o
6 12 11 19.92 20.52 2.26 o
7 12 11 0.02 -0.28 1.37 o
8 12 11 1.84 0.79 1.92 o
9 12 11 0.50 1.29 1.84 o
10 12 11 0.04 -1.01 2.00 o
11 12 11 1.46 -0.69 2.38 o
-3 13 11 0.11 0.97 2.01 o
-2 13 11 0.43 0.21 2.43 o
-1 13 11 1.37 0.82 1.51 o
0 13 11 16.93 17.94 1.72 o
1 13 11 1.86 2.39 1.27 o
2 13 11 6.19 6.51 1.46 o
3 13 11 1.08 1.50 1.42 o
4 13 11 6.64 9.36 1.43 o
5 13 11 12.16 10.98 1.21 o
6 13 11 0.09 -1.21 1.21 o
7 13 11 5.63 3.79 1.59 o
8 13 11 0.81 2.43 1.81 o
9 13 11 6.32 14.52 4.66 o
10 13 11 1.34 -0.92 2.21 o
-2 14 11 0.58 2.41 2.00 o
-1 14 11 0.38 -1.44 1.82 o
0 14 11 0.98 1.60 1.87 o
1 14 11 0.96 2.53 2.10 o
2 14 11 3.06 1.49 2.20 o
3 14 11 10.81 14.46 1.73 o
4 14 11 0.14 -0.71 2.54 o
5 14 11 10.85 8.49 1.69 o
6 14 11 4.06 4.68 2.01 o
7 14 11 3.43 5.16 2.09 o
8 14 11 1.64 5.76 2.57 o
9 14 11 1.09 0.40 2.78 o
10 14 11 1.46 2.79 3.84 o
-1 15 11 1.87 1.43 2.21 o
0 15 11 0.01 4.57 2.25 o
1 15 11 0.98 6.03 2.14 o
2 15 11 0.11 -1.46 1.95 o
3 15 11 2.51 4.90 1.88 o
4 15 11 2.01 4.07 1.96 o
5 15 11 0.25 3.52 2.37 o
6 15 11 0.50 1.49 2.18 o
7 15 11 0.55 3.54 4.07 o
8 15 11 6.97 15.55 2.97 o
9 15 11 1.43 5.19 5.27 o
1 16 11 1.16 -2.41 2.41 o
2 16 11 0.04 2.69 4.86 o
3 16 11 0.03 -0.07 2.44 o
4 16 11 2.78 6.76 2.98 o
5 16 11 2.67 6.37 3.02 o
6 16 11 0.92 1.97 2.78 o
7 16 11 0.60 3.17 2.70 o
-6 -14 12 0.56 -1.22 2.84 o
-5 -14 12 0.02 -2.35 2.63 o
-4 -14 12 1.70 -0.54 2.32 o
-3 -14 12 0.00 -0.39 1.92 o
-2 -14 12 0.11 -1.35 1.87 o
-1 -14 12 0.23 2.50 2.32 o
0 -14 12 0.12 3.09 2.80 o
-7 -13 12 0.10 -0.24 2.65 o
-6 -13 12 0.27 -0.64 3.82 o
-5 -13 12 0.01 -1.63 2.19 o
-4 -13 12 1.93 0.05 1.86 o
-3 -13 12 0.32 0.27 1.67 o
-2 -13 12 0.25 0.56 1.63 o
-1 -13 12 0.14 -1.49 1.49 o
0 -13 12 0.00 -1.99 1.99 o
1 -13 12 0.18 2.76 2.09 o
2 -13 12 0.88 3.70 2.24 o
-8 -12 12 1.07 0.22 3.73 o
-7 -12 12 0.54 -2.29 2.39 o
-6 -12 12 0.70 -0.16 2.17 o
-5 -12 12 2.18 1.61 2.07 o
-4 -12 12 0.25 2.55 1.75 o
-3 -12 12 2.39 2.22 1.70 o
-2 -12 12 0.35 2.81 1.92 o
-1 -12 12 0.19 -0.79 1.28 o
0 -12 12 0.05 0.49 1.58 o
1 -12 12 0.00 2.23 2.43 o
2 -12 12 1.14 1.02 1.92 o
3 -12 12 0.40 -2.07 2.07 o
-9 -11 12 2.21 0.54 3.25 o
-8 -11 12 2.64 4.93 2.60 o
-7 -11 12 0.03 1.34 2.30 o
-6 -11 12 0.05 0.28 1.85 o
-5 -11 12 7.70 10.15 1.81 o
-4 -11 12 2.96 5.35 1.59 o
-3 -11 12 3.09 0.77 1.26 o
-2 -11 12 0.07 -1.09 1.09 o
-1 -11 12 0.00 -1.23 1.23 o
0 -11 12 0.24 1.08 1.58 o
1 -11 12 2.96 0.78 1.98 o
2 -11 12 1.01 1.54 1.66 o
3 -11 12 0.47 -0.25 1.83 o
4 -11 12 0.45 4.29 2.02 o
-9 -10 12 10.34 10.91 2.63 o
-8 -10 12 8.10 14.57 3.51 o
-7 -10 12 0.37 1.20 2.08 o
-6 -10 12 19.15 20.30 1.71 o
-5 -10 12 2.06 2.50 1.39 o
-4 -10 12 14.86 16.37 1.46 o
-3 -10 12 0.15 0.55 1.06 o
-2 -10 12 10.45 11.16 1.32 o
-1 -10 12 10.01 12.73 1.06 o
0 -10 12 11.84 13.61 1.18 o
1 -10 12 3.32 3.70 1.14 o
2 -10 12 9.54 11.58 2.24 o
3 -10 12 0.57 1.87 1.63 o
4 -10 12 0.02 -1.77 1.77 o
5 -10 12 0.99 5.68 1.89 o
-9 -9 12 4.10 5.19 2.48 o
-8 -9 12 0.59 -0.30 2.13 o
-7 -9 12 10.66 9.82 2.64 o
-6 -9 12 15.69 19.17 2.52 o
-5 -9 12 1.44 -0.22 1.16 o
-4 -9 12 3.03 2.68 1.09 o
-3 -9 12 9.04 7.54 1.03 o
-2 -9 12 1.37 0.32 0.94 o
-1 -9 12 0.17 -0.12 0.79 o
0 -9 12 7.15 6.06 0.91 o
1 -9 12 12.09 11.12 1.26 o
2 -9 12 12.05 12.45 1.09 o
3 -9 12 0.47 0.14 1.41 o
4 -9 12 1.46 1.87 1.54 o
5 -9 12 2.08 1.42 2.14 o
6 -9 12 0.15 -0.69 1.83 o
-10 -8 12 7.17 10.32 2.96 o
-9 -8 12 0.30 1.92 2.34 o
-8 -8 12 1.98 3.09 2.01 o
-7 -8 12 2.69 2.29 1.58 o
-6 -8 12 5.95 3.62 1.20 o
-5 -8 12 4.34 3.55 1.04 o
-4 -8 12 0.58 0.15 0.85 o
-3 -8 12 0.32 -0.82 0.82 o
-2 -8 12 2.33 1.98 0.87 o
-1 -8 12 59.89 60.72 1.74 o
0 -8 12 2.61 1.49 0.82 o
1 -8 12 0.00 0.62 0.78 o
2 -8 12 0.22 0.37 0.79 o
3 -8 12 3.80 2.30 1.22 o
4 -8 12 5.01 6.51 1.19 o
5 -8 12 12.36 14.33 1.39 o
6 -8 12 0.26 5.68 1.64 o
7 -8 12 0.19 1.41 2.42 o
-10 -7 12 0.19 2.32 2.89 o
-9 -7 12 2.23 -0.77 2.14 o
-8 -7 12 1.66 0.31 1.63 o
-7 -7 12 19.46 25.26 2.21 o
-6 -7 12 0.13 -1.49 1.49 o
-5 -7 12 36.99 37.99 1.60 o
-4 -7 12 4.32 2.78 0.86 o
-3 -7 12 4.68 3.54 0.84 o
-2 -7 12 1.83 1.13 0.79 o
-1 -7 12 0.73 1.35 0.70 o
0 -7 12 15.21 15.47 0.91 o
1 -7 12 0.40 -0.21 0.68 o
2 -7 12 6.83 6.36 0.79 o
3 -7 12 0.05 0.17 0.88 o
4 -7 12 2.06 2.07 1.05 o
5 -7 12 16.17 19.00 2.09 o
6 -7 12 2.31 2.93 1.30 o
7 -7 12 3.39 2.72 1.75 o
8 -7 12 0.07 -1.56 3.05 o
-10 -6 12 2.33 8.48 2.60 o
-9 -6 12 4.96 6.87 1.95 o
-8 -6 12 2.71 4.16 1.25 o
-7 -6 12 14.97 11.39 1.05 o
-6 -6 12 22.68 25.63 1.50 o
-5 -6 12 3.08 1.89 0.90 o
-4 -6 12 2.86 1.12 0.76 o
-3 -6 12 46.13 51.34 1.59 o
-2 -6 12 0.25 0.01 0.71 o
-1 -6 12 20.39 15.30 0.94 o
0 -6 12 16.32 19.69 1.19 o
1 -6 12 41.34 43.13 1.33 o
2 -6 12 3.85 3.69 0.68 o
3 -6 12 32.35 35.47 1.41 o
4 -6 12 4.92 5.07 0.95 o
5 -6 12 0.82 2.35 1.00 o
6 -6 12 1.09 1.95 1.25 o
7 -6 12 0.21 0.87 1.58 o
8 -6 12 0.96 -0.94 1.95 o
-10 -5 12 0.24 -2.15 2.95 o
-9 -5 12 2.40 4.01 1.69 o
-8 -5 12 11.67 12.70 1.61 o
-7 -5 12 1.20 1.09 0.87 o
-6 -5 12 32.80 31.71 1.78 o
-5 -5 12 35.01 33.80 1.28 o
-4 -5 12 11.50 13.97 1.06 o
-3 -5 12 30.46 37.15 1.40 o
-2 -5 12 30.86 26.74 2.32 o
-1 -5 12 4.01 2.31 0.60 o
0 -5 12 8.05 9.49 0.74 o
1 -5 12 5.23 5.21 0.78 o
2 -5 12 5.82 4.07 0.67 o
3 -5 12 4.54 5.43 0.71 o
4 -5 12 6.47 7.22 0.94 o
5 -5 12 0.04 -0.57 1.49 o
6 -5 12 4.07 3.69 1.14 o
7 -5 12 0.00 -0.70 1.15 o
8 -5 12 0.35 -0.86 1.49 o
9 -5 12 0.88 1.59 2.66 o
-10 -4 12 0.24 2.57 2.82 o
-9 -4 12 1.15 1.63 2.44 o
-8 -4 12 1.98 2.50 1.45 o
-7 -4 12 12.03 14.02 1.12 o
-6 -4 12 9.82 9.81 0.82 o
-5 -4 12 28.67 27.48 1.00 o
-4 -4 12 13.34 11.61 0.71 o
-3 -4 12 78.75 73.55 1.41 o
-2 -4 12 0.49 0.66 0.46 o
-1 -4 12 0.06 -0.34 0.36 o
0 -4 12 6.27 4.94 0.45 o
1 -4 12 18.78 18.81 1.09 o
2 -4 12 7.71 7.52 0.91 o
3 -4 12 38.85 44.89 1.35 o
4 -4 12 3.21 2.92 0.70 o
5 -4 12 0.32 0.10 0.86 o
6 -4 12 0.74 -0.64 1.13 o
7 -4 12 0.91 -0.79 1.09 o
8 -4 12 0.05 0.53 1.33 o
9 -4 12 0.09 0.55 1.76 o
-10 -3 12 3.61 0.98 2.81 o
-9 -3 12 2.35 2.02 2.14 o
-8 -3 12 0.02 -1.44 1.44 o
-7 -3 12 1.37 2.22 0.92 o
-6 -3 12 18.71 17.70 0.91 o
-5 -3 12 17.19 17.84 0.83 o
-4 -3 12 1.67 1.28 0.56 o
-3 -3 12 1.74 2.64 0.51 o
-2 -3 12 20.91 26.12 0.83 o
-1 -3 12 21.22 12.92 1.01 o
0 -3 12 24.61 21.25 0.85 o
1 -3 12 5.05 5.40 0.50 o
2 -3 12 33.88 33.27 1.04 o
3 -3 12 40.25 37.98 1.32 o
4 -3 12 0.01 -0.25 0.58 o
5 -3 12 9.84 10.74 0.89 o
6 -3 12 1.16 0.21 0.85 o
7 -3 12 0.43 0.18 1.17 o
8 -3 12 0.55 -0.73 1.30 o
9 -3 12 1.25 -0.20 1.57 o
10 -3 12 0.02 0.03 2.23 o
-10 -2 12 0.87 -1.43 2.30 o
-9 -2 12 1.34 2.44 1.62 o
-8 -2 12 0.76 -0.93 1.39 o
-7 -2 12 3.58 3.23 0.96 o
-6 -2 12 29.54 29.09 1.24 o
-5 -2 12 0.24 -0.03 0.61 o
-4 -2 12 72.66 66.88 1.22 o
-3 -2 12 21.01 25.58 1.07 o
-2 -2 12 63.24 57.88 1.31 o
-1 -2 12 23.16 16.82 1.12 o
0 -2 12 0.07 -0.47 0.47 o
1 -2 12 42.19 38.20 1.12 o
2 -2 12 1.85 1.54 0.44 o
3 -2 12 21.43 23.08 0.93 o
4 -2 12 1.31 0.60 0.74 o
5 -2 12 3.35 3.26 0.79 o
6 -2 12 1.83 2.14 0.75 o
7 -2 12 0.02 1.05 0.95 o
8 -2 12 2.41 1.87 1.51 o
9 -2 12 2.36 0.53 1.57 o
10 -2 12 0.28 2.92 2.22 o
-10 -1 12 0.18 2.40 2.67 o
-9 -1 12 0.32 1.35 2.20 o
-8 -1 12 4.49 5.30 1.28 o
-7 -1 12 4.90 5.19 0.98 o
-6 -1 12 1.17 0.21 0.69 o
-5 -1 12 46.58 41.98 1.21 o
-4 -1 12 34.32 32.78 0.93 o
-3 -1 12 25.73 26.22 0.85 o
-2 -1 12 17.41 17.76 0.76 o
-1 -1 12 262.71 262.82 2.99 o
0 -1 12 5.70 8.09 0.70 o
1 -1 12 80.46 73.89 1.19 o
2 -1 12 10.20 8.87 0.64 o
3 -1 12 1.49 1.31 0.43 o
4 -1 12 1.42 1.71 0.49 o
5 -1 12 6.23 5.00 0.60 o
6 -1 12 4.67 4.46 0.74 o
7 -1 12 1.91 2.01 0.90 o
8 -1 12 0.02 0.73 1.23 o
9 -1 12 1.28 -0.30 1.60 o
10 -1 12 0.15 1.82 2.63 o
-10 0 12 0.63 2.56 3.01 o
-9 0 12 0.82 3.69 3.97 o
-8 0 12 2.58 2.42 1.58 o
-7 0 12 10.78 11.12 1.06 o
-6 0 12 0.24 0.61 0.77 o
-5 0 12 61.99 59.93 1.28 o
-4 0 12 0.01 0.36 0.56 o
-3 0 12 64.91 53.24 1.18 o
-2 0 12 35.16 37.87 0.84 o
-1 0 12 9.00 6.76 0.43 o
0 0 12 27.16 21.86 0.88 o
1 0 12 0.36 1.14 0.45 o
2 0 12 16.70 15.53 0.79 o
3 0 12 2.01 2.17 0.43 o
4 0 12 19.69 20.73 0.85 o
5 0 12 1.38 0.76 0.46 o
6 0 12 4.17 4.20 0.74 o
7 0 12 0.00 -0.74 0.81 o
8 0 12 1.75 1.16 1.18 o
9 0 12 0.25 -1.47 1.47 o
10 0 12 0.62 -1.36 2.39 o
11 0 12 0.00 0.85 2.98 o
-9 1 12 1.11 0.06 1.88 o
-8 1 12 3.69 2.84 1.36 o
-7 1 12 14.49 16.30 1.30 o
-6 1 12 4.80 5.74 0.84 o
-5 1 12 1.21 0.52 0.63 o
-4 1 12 0.07 -0.07 0.58 o
-3 1 12 52.90 50.84 1.18 o
-2 1 12 34.73 36.32 1.01 o
-1 1 12 2.99 2.81 0.54 o
0 1 12 15.56 19.69 0.80 o
1 1 12 5.79 7.91 0.53 o
2 1 12 53.48 52.62 1.16 o
3 1 12 25.92 20.98 0.99 o
4 1 12 5.65 4.27 0.54 o
5 1 12 0.09 -0.35 0.50 o
6 1 12 18.74 17.97 0.92 o
7 1 12 0.33 0.01 0.81 o
8 1 12 0.06 1.68 1.04 o
9 1 12 0.98 0.85 1.66 o
10 1 12 2.48 5.70 1.86 o
11 1 12 0.17 -0.86 2.38 o
-9 2 12 1.13 4.36 3.14 o
-8 2 12 0.95 0.80 1.91 o
-7 2 12 0.15 0.14 1.16 o
-6 2 12 11.24 11.58 1.09 o
-5 2 12 12.63 11.21 0.77 o
-4 2 12 14.15 17.51 1.02 o
-3 2 12 37.22 35.86 1.10 o
-2 2 12 4.14 3.64 0.61 o
-1 2 12 33.17 31.22 0.79 o
0 2 12 0.48 0.50 0.44 o
1 2 12 23.35 25.67 0.90 o
2 2 12 117.45 121.65 1.83 o
3 2 12 24.93 28.01 1.48 o
4 2 12 0.16 -0.42 0.42 o
5 2 12 10.99 9.80 0.53 o
6 2 12 0.04 0.21 0.52 o
7 2 12 3.32 3.17 0.72 o
8 2 12 8.14 10.03 1.24 o
9 2 12 3.78 2.99 1.38 o
10 2 12 0.42 1.07 1.73 o
11 2 12 0.45 1.24 2.41 o
-9 3 12 4.99 6.07 2.33 o
-8 3 12 0.01 0.95 1.58 o
-7 3 12 8.93 9.01 1.47 o
-6 3 12 0.30 1.31 1.22 o
-5 3 12 2.72 5.23 0.99 o
-4 3 12 62.82 54.49 1.65 o
-3 3 12 68.87 63.55 1.59 o
-2 3 12 0.09 -0.01 0.64 o
-1 3 12 49.68 47.46 1.00 o
0 3 12 2.11 2.55 0.47 o
1 3 12 134.50 133.26 1.94 o
2 3 12 53.02 74.39 1.92 o
3 3 12 7.92 7.49 0.68 o
4 3 12 2.07 2.41 0.58 o
5 3 12 0.03 -0.08 0.58 o
6 3 12 23.88 25.23 0.98 o
7 3 12 10.55 9.72 0.91 o
8 3 12 14.10 14.81 1.62 o
9 3 12 1.59 0.44 2.13 o
10 3 12 0.11 0.13 1.64 o
11 3 12 0.09 -1.70 2.69 o
-8 4 12 0.46 -1.55 1.98 o
-7 4 12 1.35 1.49 1.39 o
-6 4 12 0.04 -0.78 1.44 o
-5 4 12 14.58 17.08 1.35 o
-4 4 12 3.35 5.08 1.02 o
-3 4 12 41.94 47.69 1.48 o
-2 4 12 43.77 48.12 1.40 o
-1 4 12 6.41 6.44 0.72 o
0 4 12 18.91 17.71 0.94 o
1 4 12 5.48 5.68 0.49 o
2 4 12 432.15 413.14 4.63 o
3 4 12 4.30 4.20 0.80 o
4 4 12 54.22 58.13 1.32 o
5 4 12 1.70 1.94 0.60 o
6 4 12 1.31 1.60 0.66 o
7 4 12 11.48 11.36 0.76 o
8 4 12 20.99 22.69 1.41 o
9 4 12 0.06 1.62 1.29 o
10 4 12 0.31 1.73 2.14 o
11 4 12 0.37 -1.31 2.25 o
-8 5 12 0.76 0.37 2.13 o
-7 5 12 0.02 -1.34 1.73 o
-6 5 12 0.37 0.01 1.23 o
-5 5 12 3.40 3.81 1.39 o
-4 5 12 21.69 25.11 1.71 o
-3 5 12 2.36 1.10 0.69 o
-2 5 12 24.22 21.48 1.03 o
-1 5 12 11.79 14.20 0.80 o
0 5 12 118.53 114.12 1.84 o
1 5 12 11.22 9.23 0.48 o
2 5 12 33.45 30.04 1.45 o
3 5 12 49.67 53.28 1.58 o
4 5 12 6.75 4.18 0.75 o
5 5 12 33.41 31.62 1.16 o
6 5 12 3.56 2.88 0.66 o
7 5 12 0.23 1.50 0.80 o
8 5 12 22.46 23.73 1.72 o
9 5 12 1.32 -0.62 1.22 o
10 5 12 3.93 4.88 1.79 o
11 5 12 0.03 0.61 3.53 o
-8 6 12 2.12 0.14 2.49 o
-7 6 12 0.19 1.78 1.93 o
-6 6 12 6.47 8.70 1.91 o
-5 6 12 0.58 2.21 1.31 o
-4 6 12 39.30 41.67 2.83 o
-3 6 12 0.46 0.47 0.73 o
-2 6 12 5.78 4.07 0.77 o
-1 6 12 11.60 14.52 0.82 o
0 6 12 11.09 8.43 0.69 o
1 6 12 9.56 10.72 0.66 o
2 6 12 28.46 26.96 1.07 o
3 6 12 1.71 0.84 0.62 o
4 6 12 2.80 2.33 0.58 o
5 6 12 39.94 43.55 1.46 o
6 6 12 17.10 17.00 0.96 o
7 6 12 0.36 0.36 0.85 o
8 6 12 0.57 1.17 1.15 o
9 6 12 0.73 0.67 1.62 o
10 6 12 3.30 2.68 1.84 o
11 6 12 1.06 1.41 2.74 o
-7 7 12 0.17 3.98 2.17 o
-6 7 12 4.84 4.19 1.76 o
-5 7 12 2.03 2.76 1.92 o
-4 7 12 8.29 6.34 1.14 o
-3 7 12 0.81 0.12 0.83 o
-2 7 12 7.17 6.40 0.78 o
-1 7 12 1.17 0.47 0.67 o
0 7 12 17.13 12.83 1.04 o
1 7 12 28.91 27.97 1.03 o
2 7 12 43.71 46.06 1.15 o
3 7 12 4.63 3.19 0.64 o
4 7 12 29.02 29.75 1.35 o
5 7 12 1.72 3.42 0.76 o
6 7 12 27.60 28.10 1.76 o
7 7 12 4.12 3.08 0.91 o
8 7 12 3.78 4.91 1.26 o
9 7 12 0.08 -0.37 1.55 o
10 7 12 1.11 3.50 1.88 o
11 7 12 0.90 -2.03 2.41 o
-6 8 12 0.74 -0.15 1.99 o
-5 8 12 1.14 0.55 1.51 o
-4 8 12 3.26 3.88 1.35 o
-3 8 12 21.55 21.88 1.29 o
-2 8 12 0.11 -0.01 0.80 o
-1 8 12 2.74 3.00 0.77 o
0 8 12 16.35 15.55 0.93 o
1 8 12 9.78 11.96 0.78 o
2 8 12 14.25 16.28 0.85 o
3 8 12 4.55 2.99 0.64 o
4 8 12 25.77 21.75 1.14 o
5 8 12 19.63 16.50 1.39 o
6 8 12 3.51 4.65 1.04 o
7 8 12 10.30 11.10 1.32 o
8 8 12 1.17 0.39 1.26 o
9 8 12 8.95 7.75 1.57 o
10 8 12 0.03 -0.42 2.02 o
11 8 12 0.36 0.81 2.48 o
-6 9 12 0.43 3.03 2.23 o
-5 9 12 0.29 3.85 1.77 o
-4 9 12 0.15 0.92 1.44 o
-3 9 12 0.10 -0.69 1.12 o
-2 9 12 8.88 5.76 1.35 o
-1 9 12 6.04 4.56 0.96 o
0 9 12 31.40 29.91 1.37 o
1 9 12 5.77 4.96 0.78 o
2 9 12 17.04 15.48 0.87 o
3 9 12 31.93 31.36 1.39 o
4 9 12 0.45 -0.35 0.65 o
5 9 12 42.92 43.95 1.87 o
6 9 12 15.27 14.03 1.29 o
7 9 12 9.72 14.16 1.95 o
8 9 12 6.13 5.75 1.37 o
9 9 12 5.02 4.39 1.82 o
10 9 12 1.49 -1.53 2.08 o
11 9 12 0.06 -2.72 3.57 o
-5 10 12 4.35 1.85 2.09 o
-4 10 12 0.68 2.30 1.68 o
-3 10 12 1.27 0.04 1.39 o
-2 10 12 0.87 0.90 1.16 o
-1 10 12 9.78 8.89 1.22 o
0 10 12 0.19 0.08 0.92 o
1 10 12 9.36 10.33 0.95 o
2 10 12 0.01 -0.74 0.74 o
3 10 12 4.84 7.68 0.82 o
4 10 12 0.00 0.04 0.72 o
5 10 12 3.53 3.12 0.99 o
6 10 12 11.12 10.35 1.82 o
7 10 12 0.17 -1.40 1.40 o
8 10 12 15.49 17.94 3.23 o
9 10 12 0.41 4.53 2.35 o
10 10 12 6.30 2.89 2.22 o
11 10 12 0.30 -3.05 3.05 o
-4 11 12 10.15 16.23 2.96 o
-3 11 12 1.35 0.94 1.99 o
-2 11 12 0.65 4.00 1.45 o
-1 11 12 0.23 1.38 1.36 o
0 11 12 4.35 3.68 1.17 o
1 11 12 4.53 3.63 0.99 o
2 11 12 29.20 29.01 1.86 o
3 11 12 0.47 0.44 0.91 o
4 11 12 10.22 13.23 1.64 o
5 11 12 3.09 2.76 1.14 o
6 11 12 7.84 7.57 1.45 o
7 11 12 5.06 7.05 1.64 o
8 11 12 3.76 5.99 1.65 o
9 11 12 2.34 2.70 1.85 o
10 11 12 1.87 3.09 2.30 o
11 11 12 1.54 -2.74 2.74 o
-3 12 12 1.00 3.65 2.01 o
-2 12 12 4.26 5.22 2.31 o
-1 12 12 0.09 -0.05 1.46 o
0 12 12 2.02 1.05 2.21 o
1 12 12 7.08 6.42 1.45 o
2 12 12 4.21 3.22 1.25 o
3 12 12 2.30 1.44 1.04 o
4 12 12 17.31 18.46 1.43 o
5 12 12 5.12 7.22 1.21 o
6 12 12 2.16 3.36 1.24 o
7 12 12 5.99 6.21 1.67 o
8 12 12 0.15 -1.01 1.73 o
9 12 12 4.43 5.85 2.10 o
10 12 12 1.50 1.82 2.29 o
-2 13 12 0.21 3.21 2.05 o
-1 13 12 3.35 4.34 1.80 o
0 13 12 2.19 2.86 1.58 o
1 13 12 2.75 1.38 1.39 o
2 13 12 0.01 -1.37 1.37 o
3 13 12 8.97 8.29 1.76 o
4 13 12 0.38 3.81 1.72 o
5 13 12 17.92 16.36 1.69 o
6 13 12 6.86 9.13 2.24 o
7 13 12 4.89 7.23 1.90 o
8 13 12 3.29 5.88 2.05 o
9 13 12 3.95 5.41 2.31 o
10 13 12 3.44 0.68 2.55 o
-1 14 12 0.19 -1.39 2.37 o
0 14 12 0.18 0.15 2.17 o
1 14 12 0.01 1.36 2.57 o
2 14 12 0.14 1.37 1.88 o
3 14 12 2.51 2.62 1.82 o
4 14 12 2.71 2.26 2.29 o
5 14 12 6.26 7.97 1.76 o
6 14 12 4.40 5.31 2.15 o
7 14 12 0.56 -2.47 3.41 o
8 14 12 3.25 5.24 2.77 o
9 14 12 0.25 0.51 3.20 o
0 15 12 1.44 2.55 3.28 o
1 15 12 1.03 2.62 2.28 o
2 15 12 0.00 -0.90 3.09 o
3 15 12 1.01 5.68 2.77 o
4 15 12 3.71 4.67 3.29 o
5 15 12 2.71 3.39 2.54 o
6 15 12 0.29 0.81 2.51 o
7 15 12 0.52 -1.65 3.57 o
8 15 12 1.36 3.40 4.88 o
3 16 12 0.31 5.97 2.65 o
4 16 12 0.40 0.00 3.02 o
5 16 12 1.46 2.99 3.04 o
6 16 12 0.21 1.73 3.18 o
-3 -14 13 2.48 5.13 5.46 o
-6 -13 13 0.00 -2.45 3.46 o
-5 -13 13 0.74 1.60 4.74 o
-4 -13 13 0.13 -0.10 2.24 o
-3 -13 13 0.00 0.47 3.38 o
-2 -13 13 0.76 4.15 3.38 o
-1 -13 13 0.30 -2.97 2.97 o
0 -13 13 0.68 0.16 2.36 o
1 -13 13 0.16 -0.13 4.91 o
-7 -12 13 0.94 0.74 3.38 o
-6 -12 13 0.00 -2.19 2.45 o
-5 -12 13 0.17 1.76 2.10 o
-4 -12 13 0.47 -1.87 2.97 o
-3 -12 13 0.14 0.55 4.62 o
-2 -12 13 0.79 0.32 1.99 o
-1 -12 13 0.00 -1.64 1.64 o
0 -12 13 0.00 -1.98 1.98 o
1 -12 13 0.17 0.40 2.14 o
2 -12 13 0.20 1.01 2.41 o
-8 -11 13 1.88 -1.17 3.43 o
-7 -11 13 0.21 -2.55 2.55 o
-6 -11 13 0.01 3.65 2.06 o
-5 -11 13 1.70 0.94 1.82 o
-4 -11 13 4.39 5.20 1.79 o
-3 -11 13 0.27 0.46 1.68 o
-2 -11 13 3.59 3.48 1.52 o
-1 -11 13 0.00 -1.10 1.46 o
0 -11 13 1.56 2.71 1.77 o
1 -11 13 0.26 1.54 1.86 o
2 -11 13 0.49 0.21 2.05 o
3 -11 13 0.03 0.32 2.14 o
4 -11 13 0.51 -1.39 3.51 o
-8 -10 13 11.32 12.52 3.68 o
-7 -10 13 0.23 -0.80 2.33 o
-6 -10 13 6.70 8.30 3.23 o
-5 -10 13 0.67 2.82 2.30 o
-4 -10 13 8.35 7.91 1.64 o
-3 -10 13 4.48 7.39 1.27 o
-2 -10 13 0.01 0.31 1.32 o
-1 -10 13 0.42 0.39 1.28 o
0 -10 13 2.69 -0.49 1.12 o
1 -10 13 1.37 2.05 1.45 o
2 -10 13 1.36 0.72 1.83 o
3 -10 13 0.24 -1.90 1.90 o
4 -10 13 0.41 1.35 2.17 o
5 -10 13 0.02 2.09 5.78 o
-9 -9 13 1.30 1.91 2.82 o
-8 -9 13 0.64 5.43 2.73 o
-7 -9 13 0.65 0.09 1.98 o
-6 -9 13 11.44 11.53 1.81 o
-5 -9 13 5.40 7.86 1.72 o
-4 -9 13 0.02 0.17 1.13 o
-3 -9 13 13.92 17.62 2.32 o
-2 -9 13 0.06 0.22 1.06 o
-1 -9 13 16.87 17.09 1.33 o
0 -9 13 0.02 0.17 0.98 o
1 -9 13 0.12 1.10 1.05 o
2 -9 13 2.01 1.92 1.23 o
3 -9 13 2.29 1.04 1.73 o
4 -9 13 0.52 2.03 2.62 o
5 -9 13 0.98 0.48 2.03 o
-9 -8 13 8.84 15.89 3.73 o
-8 -8 13 5.08 8.62 2.33 o
-7 -8 13 3.28 1.53 1.68 o
-6 -8 13 0.13 0.16 1.62 o
-5 -8 13 3.48 5.08 1.38 o
-4 -8 13 2.93 5.15 1.30 o
-3 -8 13 0.54 -0.97 0.97 o
-2 -8 13 5.83 4.95 1.04 o
-1 -8 13 19.85 20.20 1.73 o
0 -8 13 8.14 6.06 1.14 o
1 -8 13 1.92 5.20 2.16 o
2 -8 13 1.68 0.35 1.00 o
3 -8 13 1.35 -0.04 1.12 o
4 -8 13 1.60 -0.42 1.42 o
5 -8 13 3.45 1.37 1.64 o
6 -8 13 2.18 0.03 1.99 o
-9 -7 13 3.06 4.93 5.12 o
-8 -7 13 1.43 2.21 1.89 o
-7 -7 13 11.69 9.16 3.18 o
-6 -7 13 18.04 19.91 1.88 o
-5 -7 13 2.81 2.19 1.38 o
-4 -7 13 6.49 6.84 1.00 o
-3 -7 13 0.02 -0.55 0.89 o
-2 -7 13 0.43 0.73 0.88 o
-1 -7 13 0.02 0.41 0.99 o
0 -7 13 5.42 4.97 0.97 o
1 -7 13 1.16 0.12 0.77 o
2 -7 13 0.01 -0.95 0.95 o
3 -7 13 0.03 0.46 1.02 o
4 -7 13 2.76 3.64 1.15 o
5 -7 13 0.54 2.08 1.29 o
6 -7 13 0.49 -1.05 1.44 o
7 -7 13 0.03 -2.17 2.17 o
-9 -6 13 0.40 -0.08 3.59 o
-8 -6 13 0.23 0.69 1.63 o
-7 -6 13 0.88 4.32 1.74 o
-6 -6 13 13.81 14.44 1.47 o
-5 -6 13 12.09 12.62 1.74 o
-4 -6 13 0.42 1.78 0.88 o
-3 -6 13 20.33 23.24 1.47 o
-2 -6 13 41.38 38.33 1.66 o
-1 -6 13 43.30 44.76 1.78 o
0 -6 13 5.98 5.95 0.82 o
1 -6 13 0.95 1.55 0.73 o
2 -6 13 8.28 7.34 0.84 o
3 -6 13 0.57 0.96 1.01 o
4 -6 13 2.01 2.04 1.04 o
5 -6 13 0.95 3.29 1.36 o
6 -6 13 3.65 4.45 1.30 o
7 -6 13 0.03 -1.13 1.50 o
8 -6 13 0.09 0.16 3.86 o
-9 -5 13 0.16 -0.35 2.38 o
-8 -5 13 6.28 4.86 1.61 o
-7 -5 13 6.13 8.52 1.52 o
-6 -5 13 2.73 2.01 0.97 o
-5 -5 13 54.11 52.49 2.11 o
-4 -5 13 5.63 8.26 1.09 o
-3 -5 13 80.43 82.40 2.22 o
-2 -5 13 5.35 6.06 0.99 o
-1 -5 13 94.82 95.01 3.33 o
0 -5 13 2.58 2.72 0.71 o
1 -5 13 1.62 -0.08 0.66 o
2 -5 13 5.38 5.24 0.84 o
3 -5 13 22.30 25.08 1.36 o
4 -5 13 5.28 3.84 1.38 o
5 -5 13 23.82 28.64 1.65 o
6 -5 13 0.03 0.41 1.16 o
7 -5 13 0.08 -1.32 1.32 o
8 -5 13 0.02 -1.09 1.79 o
-9 -4 13 6.75 4.34 3.69 o
-8 -4 13 1.72 2.23 1.78 o
-7 -4 13 11.19 12.21 1.75 o
-6 -4 13 0.67 2.85 0.93 o
-5 -4 13 9.39 7.06 0.86 o
-4 -4 13 0.02 0.95 0.79 o
-3 -4 13 22.46 25.80 1.16 o
-2 -4 13 50.26 51.41 1.45 o
-1 -4 13 2.39 3.46 0.65 o
0 -4 13 36.61 36.80 1.49 o
1 -4 13 2.86 2.73 0.68 o
2 -4 13 0.01 -0.42 0.62 o
3 -4 13 2.15 1.95 0.68 o
4 -4 13 7.28 5.53 0.95 o
5 -4 13 3.82 2.57 1.13 o
6 -4 13 0.06 -1.18 1.18 o
7 -4 13 2.68 3.94 1.25 o
8 -4 13 0.29 -1.58 1.58 o
9 -4 13 0.06 -0.21 2.66 o
-9 -3 13 11.86 14.86 2.62 o
-8 -3 13 0.45 2.11 1.55 o
-7 -3 13 6.04 5.73 1.47 o
-6 -3 13 6.81 7.09 0.79 o
-5 -3 13 11.57 13.46 0.88 o
-4 -3 13 7.27 5.50 0.69 o
-3 -3 13 5.04 6.10 0.68 o
-2 -3 13 2.27 1.12 0.55 o
-1 -3 13 12.13 8.80 0.85 o
0 -3 13 12.95 15.40 0.73 o
1 -3 13 0.80 0.21 0.48 o
2 -3 13 25.75 31.48 1.11 o
3 -3 13 5.19 3.13 0.72 o
4 -3 13 0.62 0.88 0.68 o
5 -3 13 0.16 0.00 0.83 o
6 -3 13 0.36 -0.15 1.32 o
7 -3 13 1.83 2.18 1.25 o
8 -3 13 1.91 2.39 1.62 o
9 -3 13 0.02 1.67 2.12 o
-9 -2 13 0.60 -1.69 1.97 o
-8 -2 13 3.70 5.51 2.19 o
-7 -2 13 6.02 6.14 1.28 o
-6 -2 13 4.59 3.67 0.91 o
-5 -2 13 0.03 -0.63 0.63 o
-4 -2 13 0.24 0.71 0.58 o
-3 -2 13 63.42 61.54 1.27 o
-2 -2 13 6.43 6.13 0.56 o
-1 -2 13 10.97 12.77 0.72 o
0 -2 13 4.49 6.13 0.58 o
1 -2 13 9.61 8.21 0.58 o
2 -2 13 0.11 0.53 0.49 o
3 -2 13 9.13 8.49 0.62 o
4 -2 13 0.07 -0.65 0.65 o
5 -2 13 8.33 7.71 0.85 o
6 -2 13 2.19 0.55 0.87 o
7 -2 13 0.22 -0.23 1.36 o
8 -2 13 2.64 3.58 1.52 o
9 -2 13 0.80 -1.94 1.94 o
-9 -1 13 1.02 0.45 2.22 o
-8 -1 13 3.74 5.34 1.69 o
-7 -1 13 0.33 1.45 1.22 o
-6 -1 13 7.79 9.64 1.38 o
-5 -1 13 0.27 0.21 0.65 o
-4 -1 13 3.13 2.90 0.61 o
-3 -1 13 13.55 12.98 0.66 o
-2 -1 13 5.99 6.61 0.65 o
-1 -1 13 26.90 20.09 0.82 o
0 -1 13 54.74 50.81 1.24 o
1 -1 13 26.42 27.92 0.94 o
2 -1 13 39.27 45.13 1.08 o
3 -1 13 3.95 4.03 0.55 o
4 -1 13 32.26 32.40 1.11 o
5 -1 13 4.02 5.02 0.84 o
6 -1 13 3.58 4.63 0.86 o
7 -1 13 0.11 -1.39 1.39 o
8 -1 13 0.24 -1.48 1.48 o
9 -1 13 0.02 -1.03 2.58 o
10 -1 13 0.07 -1.16 2.46 o
-9 0 13 0.00 2.02 2.54 o
-8 0 13 0.79 3.13 1.74 o
-7 0 13 2.37 2.40 1.41 o
-6 0 13 10.21 10.75 1.26 o
-5 0 13 20.70 20.13 1.05 o
-4 0 13 0.05 -0.58 0.58 o
-3 0 13 0.01 -0.42 0.53 o
-2 0 13 52.29 52.36 1.05 o
-1 0 13 0.00 0.28 0.48 o
0 0 13 39.19 45.50 1.18 o
1 0 13 22.41 29.65 1.04 o
2 0 13 54.36 51.74 1.12 o
3 0 13 43.55 45.69 1.10 o
4 0 13 22.01 22.52 0.97 o
5 0 13 25.98 24.49 1.14 o
6 0 13 0.03 -0.85 1.03 o
7 0 13 0.79 0.10 1.35 o
8 0 13 1.06 2.32 1.15 o
9 0 13 3.07 4.94 1.78 o
10 0 13 0.17 0.53 2.16 o
-9 1 13 2.18 3.03 2.71 o
-8 1 13 0.72 1.15 1.54 o
-7 1 13 1.51 3.03 1.51 o
-6 1 13 18.63 19.58 1.40 o
-5 1 13 4.78 4.67 0.77 o
-4 1 13 11.95 13.02 0.76 o
-3 1 13 13.04 14.43 0.76 o
-2 1 13 66.12 63.20 1.13 o
-1 1 13 34.79 34.89 0.92 o
0 1 13 5.11 4.87 0.55 o
1 1 13 30.13 25.10 1.05 o
2 1 13 3.55 3.19 0.52 o
3 1 13 44.58 46.06 1.16 o
4 1 13 13.63 12.39 0.76 o
5 1 13 5.08 4.56 0.53 o
6 1 13 0.13 0.06 0.75 o
7 1 13 1.97 1.12 1.15 o
8 1 13 0.53 -1.34 1.34 o
9 1 13 0.84 2.07 1.61 o
10 1 13 0.31 4.30 2.46 o
-9 2 13 8.23 9.08 3.16 o
-8 2 13 3.03 6.42 1.73 o
-7 2 13 6.63 4.92 1.53 o
-6 2 13 3.10 3.38 1.17 o
-5 2 13 24.70 26.26 1.44 o
-4 2 13 6.28 4.34 0.70 o
-3 2 13 39.54 37.20 1.21 o
-2 2 13 0.77 0.42 0.59 o
-1 2 13 77.88 73.83 1.54 o
0 2 13 0.50 0.53 0.47 o
1 2 13 12.62 15.03 0.73 o
2 2 13 12.01 15.66 1.00 o
3 2 13 1.32 0.83 0.47 o
4 2 13 38.72 40.55 0.99 o
5 2 13 5.98 4.80 0.50 o
6 2 13 2.15 2.19 0.73 o
7 2 13 0.00 0.02 0.84 o
8 2 13 1.24 0.12 1.15 o
9 2 13 0.01 -1.49 1.49 o
10 2 13 0.01 3.10 2.09 o
11 2 13 0.52 -2.82 2.82 o
-8 3 13 9.51 11.67 2.20 o
-7 3 13 0.55 1.70 1.49 o
-6 3 13 0.03 0.87 1.10 o
-5 3 13 0.74 1.04 1.63 o
-4 3 13 2.11 1.46 0.82 o
-3 3 13 37.06 33.30 1.46 o
-2 3 13 49.49 50.27 1.67 o
-1 3 13 3.35 2.02 0.67 o
0 3 13 6.60 6.24 0.58 o
1 3 13 1.65 2.23 0.72 o
2 3 13 29.58 21.33 1.01 o
3 3 13 41.01 35.76 1.04 o
4 3 13 21.96 24.06 1.14 o
5 3 13 1.85 1.86 0.69 o
6 3 13 15.45 17.45 1.16 o
7 3 13 4.35 4.48 0.82 o
8 3 13 2.01 4.54 1.52 o
9 3 13 0.07 2.33 1.51 o
10 3 13 0.10 -0.72 1.79 o
11 3 13 0.03 1.70 3.99 o
-8 4 13 0.48 -1.98 1.98 o
-7 4 13 1.21 -0.32 1.68 o
-6 4 13 6.25 6.79 1.90 o
-5 4 13 9.66 8.88 1.24 o
-4 4 13 0.58 2.16 0.90 o
-3 4 13 0.40 -0.82 0.82 o
-2 4 13 27.51 25.71 1.35 o
-1 4 13 0.55 -0.32 0.64 o
0 4 13 58.00 54.58 1.21 o
1 4 13 2.47 1.82 0.53 o
2 4 13 109.65 105.55 1.95 o
3 4 13 98.32 91.15 1.70 o
4 4 13 5.26 4.14 0.68 o
5 4 13 10.06 8.25 0.80 o
6 4 13 4.08 4.52 0.73 o
7 4 13 4.15 5.21 0.81 o
8 4 13 4.67 5.19 1.13 o
9 4 13 1.21 0.52 2.09 o
10 4 13 0.95 0.45 1.87 o
11 4 13 0.29 1.23 2.56 o
-7 5 13 0.00 3.03 2.58 o
-6 5 13 0.02 0.86 1.69 o
-5 5 13 0.19 -0.17 1.35 o
-4 5 13 16.15 15.38 1.44 o
-3 5 13 48.92 47.76 1.73 o
-2 5 13 3.74 4.52 1.01 o
-1 5 13 10.07 9.14 0.97 o
0 5 13 9.88 7.22 0.66 o
1 5 13 21.29 20.18 0.92 o
2 5 13 2.30 2.57 0.54 o
3 5 13 0.15 0.34 0.59 o
4 5 13 7.95 6.44 0.84 o
5 5 13 26.36 27.59 1.25 o
6 5 13 14.11 16.57 1.02 o
7 5 13 7.51 8.88 1.01 o
8 5 13 5.97 8.27 1.12 o
9 5 13 0.37 0.25 1.48 o
10 5 13 0.91 -1.92 1.92 o
11 5 13 0.47 0.24 2.69 o
-7 6 13 0.27 0.38 2.58 o
-6 6 13 0.91 3.80 1.82 o
-5 6 13 0.12 -0.25 1.19 o
-4 6 13 16.74 17.57 1.73 o
-3 6 13 17.01 19.45 1.62 o
-2 6 13 0.28 -0.36 0.91 o
-1 6 13 10.12 10.32 1.05 o
0 6 13 2.00 0.71 0.68 o
1 6 13 52.97 52.07 1.34 o
2 6 13 75.52 79.07 1.70 o
3 6 13 2.89 0.39 0.78 o
4 6 13 6.94 5.23 0.83 o
5 6 13 0.07 -0.11 0.78 o
6 6 13 16.23 16.08 0.98 o
7 6 13 3.26 5.27 1.05 o
8 6 13 0.60 1.52 1.02 o
9 6 13 0.98 1.44 1.39 o
10 6 13 1.02 -1.77 2.64 o
11 6 13 1.16 0.93 5.01 o
-6 7 13 0.62 -0.10 1.78 o
-5 7 13 5.32 5.23 1.59 o
-4 7 13 1.69 2.13 1.33 o
-3 7 13 6.26 5.70 1.34 o
-2 7 13 7.90 7.52 0.94 o
-1 7 13 13.56 18.13 1.09 o
0 7 13 0.92 0.74 0.74 o
1 7 13 5.34 3.99 0.64 o
2 7 13 20.63 22.95 1.19 o
3 7 13 0.48 0.32 0.72 o
4 7 13 7.96 6.99 0.88 o
5 7 13 5.26 4.78 0.87 o
6 7 13 1.72 2.65 1.07 o
7 7 13 14.56 18.45 4.24 o
8 7 13 0.71 1.83 1.19 o
9 7 13 1.58 -0.04 2.50 o
10 7 13 0.04 1.82 2.10 o
11 7 13 0.90 -3.10 3.10 o
-6 8 13 1.46 2.85 1.94 o
-5 8 13 0.05 0.84 1.76 o
-4 8 13 2.38 1.41 1.49 o
-3 8 13 0.20 0.55 1.44 o
-2 8 13 6.86 8.58 1.24 o
-1 8 13 19.50 18.13 1.23 o
0 8 13 31.18 27.69 1.62 o
1 8 13 2.72 1.23 0.72 o
2 8 13 0.02 1.00 0.70 o
3 8 13 13.48 11.87 0.91 o
4 8 13 0.79 0.65 0.76 o
5 8 13 33.99 37.51 1.71 o
6 8 13 5.79 6.39 1.64 o
7 8 13 4.36 4.73 1.47 o
8 8 13 5.76 8.59 1.43 o
9 8 13 5.13 5.38 1.93 o
10 8 13 7.17 6.42 2.31 o
11 8 13 0.09 1.78 3.27 o
-5 9 13 0.30 0.29 2.04 o
-4 9 13 1.90 4.43 2.57 o
-3 9 13 0.16 0.89 1.47 o
-2 9 13 0.85 -0.48 1.18 o
-1 9 13 8.64 8.50 1.28 o
0 9 13 5.74 8.82 1.18 o
1 9 13 0.98 1.17 1.01 o
2 9 13 0.10 0.23 0.77 o
3 9 13 3.49 3.03 0.78 o
4 9 13 3.01 4.31 0.86 o
5 9 13 16.57 18.07 1.94 o
6 9 13 21.95 18.32 1.37 o
7 9 13 0.44 0.75 1.31 o
8 9 13 8.52 8.35 2.17 o
9 9 13 0.20 -1.79 1.79 o
10 9 13 5.07 10.02 2.44 o
11 9 13 1.90 3.49 3.67 o
-4 10 13 6.67 9.17 3.97 o
-3 10 13 0.97 0.30 1.74 o
-2 10 13 5.25 5.70 1.52 o
-1 10 13 3.76 3.54 1.28 o
0 10 13 4.89 4.29 1.17 o
1 10 13 11.12 8.91 1.07 o
2 10 13 12.37 10.62 1.12 o
3 10 13 3.54 3.74 0.99 o
4 10 13 11.34 11.81 1.14 o
5 10 13 0.97 -0.01 1.14 o
6 10 13 3.56 2.32 1.42 o
7 10 13 5.63 7.85 1.35 o
8 10 13 1.67 2.35 1.85 o
9 10 13 7.74 7.78 1.94 o
10 10 13 0.04 3.86 2.48 o
-4 11 13 0.24 4.30 3.00 o
-3 11 13 15.64 20.46 3.27 o
-2 11 13 2.52 0.52 1.88 o
-1 11 13 4.51 4.16 1.66 o
0 11 13 0.09 -0.47 1.23 o
1 11 13 0.92 1.08 1.48 o
2 11 13 2.58 2.13 1.13 o
3 11 13 5.38 4.72 1.05 o
4 11 13 8.56 10.08 1.34 o
5 11 13 10.32 10.99 1.44 o
6 11 13 0.73 2.92 1.73 o
7 11 13 4.44 1.82 2.40 o
8 11 13 0.44 -0.66 1.78 o
9 11 13 1.67 -0.95 2.08 o
10 11 13 1.52 -0.02 2.28 o
-3 12 13 0.68 0.15 2.37 o
-2 12 13 4.99 9.12 2.05 o
-1 12 13 14.72 13.46 1.83 o
0 12 13 2.84 3.89 1.55 o
1 12 13 0.41 1.59 1.44 o
2 12 13 0.14 -0.87 1.33 o
3 12 13 4.61 4.36 1.26 o
4 12 13 0.80 0.77 1.35 o
5 12 13 12.24 9.89 2.48 o
6 12 13 2.76 4.54 1.54 o
7 12 13 1.60 2.58 1.80 o
8 12 13 4.06 2.74 2.07 o
9 12 13 0.09 -1.03 2.80 o
-2 13 13 1.53 2.40 2.97 o
-1 13 13 0.15 1.80 2.07 o
0 13 13 4.45 6.73 1.81 o
1 13 13 0.46 0.61 1.78 o
2 13 13 0.02 -0.01 2.24 o
3 13 13 1.74 4.03 1.87 o
4 13 13 1.92 0.87 1.67 o
5 13 13 0.79 1.20 1.66 o
6 13 13 11.97 18.81 2.65 o
7 13 13 0.33 3.31 2.17 o
8 13 13 4.88 6.63 2.41 o
9 13 13 0.06 4.04 2.69 o
0 14 13 0.28 -2.36 2.36 o
1 14 13 1.57 5.84 3.83 o
2 14 13 0.49 5.84 2.13 o
3 14 13 0.60 -2.00 2.00 o
4 14 13 1.93 3.72 2.08 o
5 14 13 1.26 4.06 2.30 o
6 14 13 1.63 -1.80 3.71 o
7 14 13 1.69 2.22 2.84 o
8 14 13 0.77 2.88 5.55 o
2 15 13 0.83 2.04 2.50 o
3 15 13 0.62 -0.36 2.48 o
4 15 13 2.76 0.50 3.69 o
5 15 13 1.62 8.69 2.96 o
6 15 13 0.14 -0.78 5.02 o
-3 -13 14 0.80 3.86 3.85 o
-2 -13 14 1.18 8.13 4.23 o
-5 -12 14 1.00 4.84 3.28 o
-4 -12 14 0.89 -0.77 2.51 o
-3 -12 14 0.17 2.41 2.32 o
-2 -12 14 0.29 -2.16 2.16 o
-1 -12 14 0.22 -1.17 2.11 o
0 -12 14 0.47 1.43 2.28 o
1 -12 14 0.02 -1.11 3.74 o
-7 -11 14 0.27 -4.68 4.79 o
-6 -11 14 0.65 1.38 2.49 o
-5 -11 14 0.88 6.85 2.19 o
-4 -11 14 2.20 2.28 2.40 o
-3 -11 14 0.11 0.07 2.88 o
-2 -11 14 0.22 -0.10 1.92 o
-1 -11 14 0.63 -1.72 1.72 o
0 -11 14 0.01 -1.02 2.41 o
1 -11 14 0.33 -0.13 2.41 o
2 -11 14 0.02 -0.48 2.27 o
-7 -10 14 3.01 2.49 2.77 o
-6 -10 14 0.25 0.97 2.74 o
-5 -10 14 2.94 8.22 2.86 o
-4 -10 14 0.21 2.17 1.80 o
-3 -10 14 2.72 4.13 1.63 o
-2 -10 14 0.40 3.04 1.68 o
-1 -10 14 0.38 -1.53 1.53 o
0 -10 14 0.15 1.93 1.90 o
1 -10 14 3.08 4.94 2.59 o
2 -10 14 0.30 -0.06 2.05 o
3 -10 14 0.09 1.14 2.23 o
4 -10 14 0.31 -2.50 2.50 o
-8 -9 14 1.87 1.91 2.75 o
-7 -9 14 0.02 0.96 2.22 o
-6 -9 14 0.44 0.19 1.92 o
-5 -9 14 8.91 8.50 1.84 o
-4 -9 14 6.40 7.68 1.75 o
-3 -9 14 2.16 -0.71 1.61 o
-2 -9 14 7.16 11.09 1.51 o
-1 -9 14 1.57 4.32 1.36 o
0 -9 14 2.45 3.85 1.49 o
1 -9 14 0.03 0.39 1.49 o
2 -9 14 0.05 1.93 1.83 o
3 -9 14 0.51 3.39 2.00 o
4 -9 14 0.66 0.11 2.19 o
5 -9 14 0.19 3.40 2.78 o
-8 -8 14 12.42 12.27 2.71 o
-7 -8 14 0.36 -2.78 3.19 o
-6 -8 14 10.81 12.34 1.89 o
-5 -8 14 0.54 -1.61 1.61 o
-4 -8 14 10.95 11.11 1.40 o
-3 -8 14 5.79 8.34 1.26 o
-2 -8 14 0.06 0.42 1.37 o
-1 -8 14 0.02 0.11 1.61 o
0 -8 14 4.11 3.63 1.11 o
1 -8 14 2.42 1.23 1.09 o
2 -8 14 0.00 -1.52 1.52 o
3 -8 14 1.39 3.00 1.52 o
4 -8 14 0.39 0.12 1.71 o
5 -8 14 0.33 -0.83 1.90 o
-8 -7 14 3.06 3.14 2.23 o
-7 -7 14 2.97 5.88 1.89 o
-6 -7 14 18.52 17.51 1.88 o
-5 -7 14 4.41 6.51 1.39 o
-4 -7 14 7.66 9.35 1.41 o
-3 -7 14 4.77 6.91 1.57 o
-2 -7 14 3.42 2.03 1.14 o
-1 -7 14 9.51 11.25 1.27 o
0 -7 14 3.42 3.29 1.17 o
1 -7 14 1.11 -0.46 1.01 o
2 -7 14 0.01 0.56 1.27 o
3 -7 14 0.80 1.03 1.31 o
4 -7 14 3.30 2.77 1.40 o
5 -7 14 0.96 0.51 1.46 o
6 -7 14 0.47 2.79 2.20 o
-9 -6 14 1.04 5.31 2.84 o
-8 -6 14 2.90 4.60 2.10 o
-7 -6 14 0.21 0.60 2.00 o
-6 -6 14 2.99 3.80 1.74 o
-5 -6 14 10.00 10.76 1.32 o
-4 -6 14 0.79 -0.41 1.16 o
-3 -6 14 3.16 3.99 1.03 o
-2 -6 14 1.87 2.17 0.99 o
-1 -6 14 57.56 63.29 2.18 o
0 -6 14 10.25 12.75 1.04 o
1 -6 14 5.32 6.09 0.97 o
2 -6 14 0.04 0.16 0.87 o
3 -6 14 1.03 -0.18 1.20 o
4 -6 14 2.02 2.76 1.35 o
5 -6 14 1.84 1.43 1.27 o
6 -6 14 0.25 0.75 1.67 o
7 -6 14 0.00 2.51 1.79 o
-9 -5 14 0.29 3.89 3.18 o
-8 -5 14 2.47 3.03 1.89 o
-7 -5 14 11.98 16.07 2.48 o
-6 -5 14 0.33 1.43 1.24 o
-5 -5 14 7.17 5.59 1.21 o
-4 -5 14 3.81 3.91 1.31 o
-3 -5 14 6.37 5.44 1.11 o
-2 -5 14 0.05 1.16 1.02 o
-1 -5 14 3.30 4.67 0.95 o
0 -5 14 22.64 21.27 1.41 o
1 -5 14 3.24 1.98 0.79 o
2 -5 14 8.74 7.90 0.90 o
3 -5 14 0.28 0.33 1.06 o
4 -5 14 4.00 4.88 1.23 o
5 -5 14 16.92 17.58 1.43 o
6 -5 14 0.76 -0.93 1.31 o
7 -5 14 1.73 3.63 1.62 o
-9 -4 14 0.17 2.17 2.21 o
-8 -4 14 0.17 0.82 1.80 o
-7 -4 14 4.32 6.55 1.62 o
-6 -4 14 14.79 15.39 1.95 o
-5 -4 14 0.10 -0.31 1.02 o
-4 -4 14 0.38 -0.10 0.96 o
-3 -4 14 0.69 0.17 0.88 o
-2 -4 14 10.15 9.71 0.99 o
-1 -4 14 54.04 58.78 2.10 o
0 -4 14 0.72 0.84 0.74 o
1 -4 14 30.63 31.58 1.57 o
2 -4 14 26.77 28.01 1.71 o
3 -4 14 5.26 5.37 0.91 o
4 -4 14 1.26 0.51 1.14 o
5 -4 14 1.92 3.04 1.20 o
6 -4 14 0.13 -1.36 1.36 o
7 -4 14 0.00 -0.76 1.75 o
8 -4 14 1.18 -1.76 1.98 o
-9 -3 14 1.01 -3.56 3.59 o
-8 -3 14 1.81 -1.49 1.85 o
-7 -3 14 2.51 5.92 1.53 o
-6 -3 14 25.36 25.22 2.06 o
-5 -3 14 11.71 14.63 1.06 o
-4 -3 14 1.25 0.40 0.70 o
-3 -3 14 21.58 25.58 1.17 o
-2 -3 14 5.09 3.30 0.80 o
-1 -3 14 20.27 23.70 1.12 o
0 -3 14 6.97 8.64 0.67 o
1 -3 14 1.81 -0.12 0.66 o
2 -3 14 5.23 6.65 0.75 o
3 -3 14 10.52 7.62 0.82 o
4 -3 14 1.68 1.19 0.96 o
5 -3 14 4.26 5.37 1.27 o
6 -3 14 4.63 4.59 1.13 o
7 -3 14 1.02 3.72 1.60 o
8 -3 14 0.02 -1.74 1.77 o
-9 -2 14 1.28 1.47 2.52 o
-8 -2 14 2.34 2.36 3.17 o
-7 -2 14 9.11 11.75 1.62 o
-6 -2 14 10.00 11.46 1.10 o
-5 -2 14 9.80 8.28 0.87 o
-4 -2 14 8.47 7.41 0.74 o
-3 -2 14 15.80 15.19 0.96 o
-2 -2 14 21.08 20.55 1.63 o
-1 -2 14 2.03 0.19 0.57 o
0 -2 14 8.84 6.97 0.63 o
1 -2 14 7.26 5.95 0.62 o
2 -2 14 11.50 10.95 0.70 o
3 -2 14 10.21 10.33 0.72 o
4 -2 14 1.17 0.06 0.76 o
5 -2 14 0.86 0.10 0.90 o
6 -2 14 0.45 -0.18 1.01 o
7 -2 14 0.28 -0.86 1.37 o
8 -2 14 0.00 -0.92 1.80 o
9 -2 14 0.01 -2.02 2.42 o
-9 -1 14 2.21 4.67 2.99 o
-8 -1 14 0.00 -0.22 2.11 o
-7 -1 14 3.86 5.37 1.53 o
-6 -1 14 1.54 0.49 1.64 o
-5 -1 14 5.13 5.96 0.85 o
-4 -1 14 4.76 3.66 0.73 o
-3 -1 14 2.62 3.24 0.65 o
-2 -1 14 0.10 -0.58 0.58 o
-1 -1 14 6.10 8.12 0.71 o
0 -1 14 37.23 42.57 1.14 o
1 -1 14 1.69 1.48 0.56 o
2 -1 14 19.92 17.45 0.90 o
3 -1 14 29.74 30.01 1.18 o
4 -1 14 0.06 -0.36 0.60 o
5 -1 14 8.49 8.89 0.97 o
6 -1 14 0.78 1.49 1.14 o
7 -1 14 1.57 0.11 1.29 o
8 -1 14 0.06 -1.00 1.54 o
9 -1 14 0.11 0.77 3.57 o
-8 0 14 0.25 -2.46 2.46 o
-7 0 14 2.62 0.00 1.42 o
-6 0 14 8.76 9.23 1.08 o
-5 0 14 0.00 -0.73 0.85 o
-4 0 14 24.94 23.08 0.96 o
-3 0 14 0.04 -0.01 0.63 o
-2 0 14 0.02 0.18 0.58 o
-1 0 14 21.47 17.98 0.91 o
0 0 14 0.36 0.42 0.60 o
1 0 14 10.38 8.77 0.70 o
2 0 14 0.28 0.56 0.54 o
3 0 14 20.52 20.50 1.03 o
4 0 14 0.15 0.70 0.59 o
5 0 14 9.65 10.37 0.86 o
6 0 14 5.71 6.20 1.22 o
7 0 14 4.91 3.84 1.32 o
8 0 14 3.41 4.68 1.47 o
9 0 14 0.11 -1.00 2.15 o
10 0 14 0.02 -1.26 2.69 o
-8 1 14 1.79 0.52 2.28 o
-7 1 14 6.83 3.84 1.54 o
-6 1 14 4.27 4.39 1.23 o
-5 1 14 0.25 -0.90 0.90 o
-4 1 14 0.17 -0.04 0.71 o
-3 1 14 31.12 30.99 1.08 o
-2 1 14 25.12 21.81 0.92 o
-1 1 14 45.26 36.73 0.99 o
0 1 14 10.80 10.27 0.63 o
1 1 14 19.69 19.54 0.86 o
2 1 14 26.61 28.49 1.16 o
3 1 14 0.26 1.19 0.54 o
4 1 14 18.57 17.35 0.79 o
5 1 14 0.95 1.21 0.63 o
6 1 14 6.10 6.99 1.36 o
7 1 14 0.17 -0.01 1.28 o
8 1 14 3.37 4.59 1.48 o
9 1 14 0.03 -0.73 2.06 o
10 1 14 0.65 4.47 2.52 o
-8 2 14 11.14 6.30 5.44 o
-7 2 14 1.35 4.98 1.63 o
-6 2 14 16.96 14.81 1.37 o
-5 2 14 0.73 0.67 0.96 o
-4 2 14 1.34 0.03 0.90 o
-3 2 14 7.89 7.21 0.74 o
-2 2 14 17.55 17.32 0.86 o
-1 2 14 4.58 3.50 0.62 o
0 2 14 44.44 43.03 1.42 o
1 2 14 15.57 13.90 0.82 o
2 2 14 3.24 2.36 0.59 o
3 2 14 1.32 0.63 0.60 o
4 2 14 5.14 5.10 0.66 o
5 2 14 21.02 19.73 1.19 o
6 2 14 0.62 -0.42 0.80 o
7 2 14 7.18 6.21 1.15 o
8 2 14 0.66 0.98 1.52 o
9 2 14 0.89 -1.93 1.93 o
10 2 14 0.49 -0.80 2.50 o
-8 3 14 0.60 1.39 2.36 o
-7 3 14 13.60 14.81 1.91 o
-6 3 14 0.06 1.96 1.41 o
-5 3 14 9.78 11.01 1.21 o
-4 3 14 48.88 42.19 2.68 o
-3 3 14 0.05 -0.34 0.86 o
-2 3 14 11.40 10.38 0.79 o
-1 3 14 23.72 27.71 1.33 o
0 3 14 12.60 11.27 0.77 o
1 3 14 13.14 13.70 1.00 o
2 3 14 29.12 29.23 1.15 o
3 3 14 20.18 22.32 1.22 o
4 3 14 0.57 0.22 0.64 o
5 3 14 3.40 2.67 0.67 o
6 3 14 0.43 0.55 0.78 o
7 3 14 7.74 9.76 1.64 o
8 3 14 0.63 0.17 1.86 o
9 3 14 0.97 3.93 2.52 o
10 3 14 0.33 0.12 2.26 o
-7 4 14 2.63 2.32 1.92 o
-6 4 14 8.88 9.42 1.43 o
-5 4 14 6.51 7.92 1.30 o
-4 4 14 0.81 2.37 1.23 o
-3 4 14 0.27 0.41 1.19 o
-2 4 14 3.20 1.22 0.90 o
-1 4 14 11.45 12.89 0.97 o
0 4 14 12.51 10.54 0.74 o
1 4 14 21.56 22.04 1.05 o
2 4 14 11.48 8.43 0.94 o
3 4 14 39.64 38.54 1.76 o
4 4 14 0.02 0.00 0.71 o
5 4 14 1.07 1.07 0.78 o
6 4 14 2.15 1.85 0.74 o
7 4 14 3.14 4.37 1.00 o
8 4 14 9.42 10.26 1.39 o
9 4 14 0.55 0.06 1.82 o
10 4 14 1.23 1.75 2.64 o
-7 5 14 0.22 1.06 1.80 o
-6 5 14 0.18 1.72 1.48 o
-5 5 14 0.03 1.94 1.41 o
-4 5 14 38.36 38.87 1.89 o
-3 5 14 3.92 5.16 1.15 o
-2 5 14 0.20 -1.06 1.06 o
-1 5 14 2.08 1.79 0.77 o
0 5 14 1.85 1.74 0.63 o
1 5 14 12.07 11.43 0.83 o
2 5 14 45.84 49.76 1.53 o
3 5 14 0.04 0.95 0.82 o
4 5 14 24.42 29.31 1.38 o
5 5 14 0.49 1.88 0.80 o
6 5 14 28.14 26.28 1.46 o
7 5 14 0.78 0.88 1.07 o
8 5 14 6.35 7.87 1.60 o
9 5 14 1.06 1.82 2.01 o
10 5 14 0.08 -3.01 4.35 o
-6 6 14 1.17 1.14 1.83 o
-5 6 14 0.22 1.13 1.58 o
-4 6 14 4.92 7.28 1.41 o
-3 6 14 10.28 11.95 1.35 o
-2 6 14 5.77 5.83 1.39 o
-1 6 14 0.12 -0.08 0.80 o
0 6 14 6.94 8.14 1.32 o
1 6 14 5.06 7.59 0.84 o
2 6 14 66.90 65.28 1.71 o
3 6 14 20.98 21.95 1.22 o
4 6 14 14.91 14.46 1.09 o
5 6 14 2.44 0.94 0.89 o
6 6 14 4.75 6.52 1.15 o
7 6 14 16.12 15.98 1.34 o
8 6 14 2.08 2.26 1.31 o
9 6 14 0.05 4.31 1.77 o
10 6 14 0.01 -1.78 2.79 o
-6 7 14 4.29 5.52 2.08 o
-5 7 14 0.52 3.33 1.69 o
-4 7 14 2.29 3.15 1.77 o
-3 7 14 0.09 -1.35 1.35 o
-2 7 14 7.85 8.48 1.22 o
-1 7 14 3.73 3.91 2.40 o
0 7 14 42.76 39.47 1.86 o
1 7 14 0.55 0.64 0.80 o
2 7 14 7.65 7.65 0.90 o
3 7 14 14.53 13.26 1.19 o
4 7 14 0.04 -0.81 0.81 o
5 7 14 15.59 16.23 1.18 o
6 7 14 4.66 4.14 2.34 o
7 7 14 4.31 3.15 1.42 o
8 7 14 9.18 7.39 1.63 o
9 7 14 0.17 2.71 1.99 o
10 7 14 1.18 -2.14 2.94 o
-5 8 14 3.51 7.08 1.89 o
-4 8 14 2.41 4.22 2.73 o
-3 8 14 6.05 5.61 1.58 o
-2 8 14 0.00 -0.75 1.31 o
-1 8 14 0.90 -1.13 1.15 o
0 8 14 7.09 6.47 1.75 o
1 8 14 12.48 12.71 1.35 o
2 8 14 0.15 2.23 0.90 o
3 8 14 3.18 2.72 0.90 o
4 8 14 0.43 0.92 0.90 o
5 8 14 4.61 4.33 1.13 o
6 8 14 15.27 13.34 1.66 o
7 8 14 0.13 -0.40 1.69 o
8 8 14 2.02 2.56 1.64 o
9 8 14 0.12 2.58 2.08 o
10 8 14 3.01 5.09 2.51 o
-4 9 14 2.64 4.94 1.94 o
-3 9 14 0.11 1.49 1.96 o
-2 9 14 0.11 1.96 1.57 o
-1 9 14 4.61 4.09 1.25 o
0 9 14 4.36 4.45 1.12 o
1 9 14 20.67 19.78 1.41 o
2 9 14 6.13 6.40 1.05 o
3 9 14 1.25 2.24 1.00 o
4 9 14 1.36 0.15 0.94 o
5 9 14 0.23 2.78 1.72 o
6 9 14 3.96 3.16 1.29 o
7 9 14 3.46 3.35 1.51 o
8 9 14 0.11 -1.92 1.92 o
9 9 14 0.30 -2.12 2.12 o
10 9 14 0.33 -0.23 2.57 o
-4 10 14 0.01 1.11 2.53 o
-3 10 14 1.97 4.03 1.92 o
-2 10 14 0.17 1.14 1.77 o
-1 10 14 7.30 8.60 1.80 o
0 10 14 2.52 1.20 1.19 o
1 10 14 0.36 -1.08 1.08 o
2 10 14 7.02 8.40 1.07 o
3 10 14 1.93 1.97 1.15 o
4 10 14 6.71 7.45 1.49 o
5 10 14 2.03 4.28 1.36 o
6 10 14 0.07 -1.40 1.40 o
7 10 14 3.88 2.78 1.74 o
8 10 14 0.12 -1.28 1.85 o
9 10 14 4.23 5.29 2.37 o
10 10 14 1.07 -2.42 2.74 o
-3 11 14 0.03 2.81 2.31 o
-2 11 14 6.86 3.02 2.44 o
-1 11 14 5.11 7.62 1.96 o
0 11 14 14.10 19.44 1.73 o
1 11 14 0.05 1.54 1.33 o
2 11 14 2.21 -1.33 1.33 o
3 11 14 5.28 5.14 1.21 o
4 11 14 0.34 -0.73 1.56 o
5 11 14 12.08 10.13 1.53 o
6 11 14 1.23 -1.72 2.08 o
7 11 14 1.24 5.65 2.40 o
8 11 14 0.96 -0.49 2.02 o
9 11 14 0.18 7.61 2.69 o
-2 12 14 0.30 2.71 3.15 o
-1 12 14 8.99 15.16 2.28 o
0 12 14 9.79 15.99 1.94 o
1 12 14 1.01 2.22 2.34 o
2 12 14 6.53 11.37 2.30 o
3 12 14 0.00 -0.88 1.88 o
4 12 14 0.08 0.15 1.78 o
5 12 14 0.22 -0.38 1.57 o
6 12 14 4.35 5.75 1.88 o
7 12 14 0.01 1.53 2.05 o
8 12 14 4.42 2.42 3.94 o
9 12 14 0.57 -2.82 2.82 o
0 13 14 1.16 -2.16 2.16 o
1 13 14 11.95 13.41 2.25 o
2 13 14 0.19 2.41 2.14 o
3 13 14 1.48 2.58 2.08 o
4 13 14 0.01 2.38 1.87 o
5 13 14 1.03 1.28 2.08 o
6 13 14 0.30 1.71 2.95 o
7 13 14 2.26 4.82 3.08 o
8 13 14 0.65 0.81 3.92 o
1 14 14 0.02 -2.43 2.75 o
2 14 14 3.46 2.84 2.42 o
3 14 14 1.12 1.52 2.31 o
4 14 14 3.04 0.78 4.84 o
5 14 14 0.00 1.31 4.51 o
6 14 14 0.07 -0.28 3.69 o
-5 -11 15 0.52 1.61 3.30 o
-4 -11 15 0.03 4.72 2.38 o
-3 -11 15 0.93 3.61 2.27 o
-2 -11 15 0.17 1.28 3.93 o
-1 -11 15 1.51 -1.88 2.40 o
0 -11 15 0.51 -0.99 2.37 o
1 -11 15 0.12 -2.40 2.44 o
-6 -10 15 1.38 1.23 2.49 o
-5 -10 15 0.12 2.83 2.28 o
-4 -10 15 2.42 9.33 3.46 o
-3 -10 15 0.23 0.10 2.08 o
-2 -10 15 0.25 5.87 1.70 o
-1 -10 15 0.18 -0.70 2.10 o
0 -10 15 0.12 -3.07 3.07 o
1 -10 15 0.26 1.89 2.38 o
2 -10 15 1.58 6.22 2.37 o
-7 -9 15 0.05 -0.81 3.79 o
-6 -9 15 0.37 0.25 2.34 o
-5 -9 15 0.01 -2.56 2.56 o
-4 -9 15 5.96 4.28 3.14 o
-3 -9 15 0.70 0.02 1.62 o
-2 -9 15 4.51 6.06 1.49 o
-1 -9 15 0.71 -0.46 1.77 o
0 -9 15 1.75 -0.82 1.46 o
1 -9 15 1.78 3.64 1.73 o
2 -9 15 0.04 2.11 2.60 o
3 -9 15 1.38 7.06 2.36 o
4 -9 15 0.28 5.89 3.51 o
-7 -8 15 0.21 -2.03 3.00 o
-6 -8 15 2.17 4.63 3.70 o
-5 -8 15 0.21 1.21 1.88 o
-4 -8 15 2.55 -0.99 1.64 o
-3 -8 15 6.39 7.64 1.55 o
-2 -8 15 0.03 1.08 1.46 o
-1 -8 15 3.29 2.94 1.27 o
0 -8 15 0.19 -1.28 1.68 o
1 -8 15 12.31 13.18 1.67 o
2 -8 15 1.72 2.54 1.62 o
3 -8 15 1.23 2.21 2.29 o
4 -8 15 0.15 -2.01 2.18 o
5 -8 15 0.36 -0.67 2.83 o
-7 -7 15 0.04 1.90 2.12 o
-6 -7 15 1.88 2.10 2.04 o
-5 -7 15 11.53 12.15 1.94 o
-4 -7 15 0.01 2.90 1.80 o
-3 -7 15 10.61 11.70 2.01 o
-2 -7 15 0.57 -1.39 1.70 o
-1 -7 15 1.61 0.78 1.48 o
0 -7 15 8.25 8.16 1.36 o
1 -7 15 0.03 -0.02 1.18 o
2 -7 15 3.95 1.17 1.42 o
3 -7 15 0.07 -1.52 1.52 o
4 -7 15 0.21 0.15 2.51 o
5 -7 15 0.57 0.81 1.87 o
-8 -6 15 2.77 1.43 3.77 o
-7 -6 15 4.30 5.79 2.12 o
-6 -6 15 6.63 9.89 1.78 o
-5 -6 15 3.43 3.43 1.71 o
-4 -6 15 11.62 12.98 2.88 o
-3 -6 15 0.66 -0.11 1.32 o
-2 -6 15 0.04 2.14 1.77 o
-1 -6 15 18.46 19.60 2.10 o
0 -6 15 2.17 1.10 1.18 o
1 -6 15 3.69 3.00 1.39 o
2 -6 15 0.22 1.12 1.41 o
3 -6 15 0.53 -1.27 1.27 o
4 -6 15 0.53 0.76 1.44 o
5 -6 15 1.10 0.85 1.51 o
6 -6 15 0.00 1.13 1.93 o
-8 -5 15 1.05 -2.37 2.37 o
-7 -5 15 0.48 -0.04 2.45 o
-6 -5 15 4.18 4.97 1.63 o
-5 -5 15 3.95 2.81 1.95 o
-4 -5 15 7.03 6.85 1.67 o
-3 -5 15 7.35 8.91 2.33 o
-2 -5 15 0.10 -0.05 1.30 o
-1 -5 15 0.15 1.77 1.39 o
0 -5 15 1.09 1.95 1.21 o
1 -5 15 1.69 1.91 1.06 o
2 -5 15 0.04 1.00 1.00 o
3 -5 15 0.47 -1.02 1.19 o
4 -5 15 3.04 2.12 2.11 o
5 -5 15 3.56 1.29 1.35 o
6 -5 15 0.00 -1.11 1.54 o
7 -5 15 0.09 -0.11 1.99 o
-8 -4 15 1.22 2.10 2.15 o
-7 -4 15 6.74 7.33 1.86 o
-6 -4 15 0.01 -1.59 1.59 o
-5 -4 15 16.69 19.63 1.81 o
-4 -4 15 0.08 -0.61 1.30 o
-3 -4 15 5.30 5.43 1.47 o
-2 -4 15 3.21 2.01 1.04 o
-1 -4 15 64.54 75.68 2.15 o
0 -4 15 7.25 9.70 1.25 o
1 -4 15 3.07 2.45 0.99 o
2 -4 15 1.21 0.81 0.89 o
3 -4 15 3.68 1.43 1.26 o
4 -4 15 0.13 0.85 1.22 o
5 -4 15 0.03 0.80 1.65 o
6 -4 15 1.78 -0.98 1.47 o
7 -4 15 0.00 1.56 2.28 o
-8 -3 15 0.03 1.66 2.04 o
-7 -3 15 0.81 -0.33 1.75 o
-6 -3 15 0.35 1.08 1.36 o
-5 -3 15 18.60 16.47 1.48 o
-4 -3 15 1.37 -0.44 1.39 o
-3 -3 15 20.14 18.18 1.37 o
-2 -3 15 0.14 -0.19 0.93 o
-1 -3 15 29.87 30.60 1.81 o
0 -3 15 5.67 5.19 0.87 o
1 -3 15 0.39 1.22 0.79 o
2 -3 15 5.28 4.39 0.94 o
3 -3 15 0.81 0.52 0.91 o
4 -3 15 17.44 21.26 1.41 o
5 -3 15 5.87 6.25 1.19 o
6 -3 15 0.17 -1.37 1.43 o
7 -3 15 0.01 0.91 1.90 o
8 -3 15 0.06 -2.00 2.00 o
-8 -2 15 0.00 -1.75 2.05 o
-7 -2 15 7.93 13.78 2.19 o
-6 -2 15 0.00 0.58 1.30 o
-5 -2 15 1.11 1.59 1.10 o
-4 -2 15 1.46 1.09 1.01 o
-3 -2 15 27.01 25.68 1.25 o
-2 -2 15 12.53 11.88 1.06 o
-1 -2 15 3.54 3.62 0.72 o
0 -2 15 8.76 7.34 0.75 o
1 -2 15 2.04 1.46 0.66 o
2 -2 15 4.27 5.66 0.73 o
3 -2 15 8.22 6.54 0.80 o
4 -2 15 0.00 1.76 1.20 o
5 -2 15 5.82 4.28 1.20 o
6 -2 15 1.09 4.46 1.82 o
7 -2 15 1.27 2.22 1.63 o
8 -2 15 0.01 -1.91 1.91 o
-8 -1 15 0.12 -2.79 3.13 o
-7 -1 15 0.18 -0.54 1.89 o
-6 -1 15 9.42 9.33 1.33 o
-5 -1 15 3.30 6.30 1.01 o
-4 -1 15 6.90 8.25 0.99 o
-3 -1 15 0.28 0.53 0.79 o
-2 -1 15 3.75 4.44 0.76 o
-1 -1 15 2.27 1.56 0.66 o
0 -1 15 0.70 1.95 0.87 o
1 -1 15 2.79 2.89 0.66 o
2 -1 15 7.05 7.00 0.73 o
3 -1 15 8.14 7.20 0.75 o
4 -1 15 1.00 -0.38 0.81 o
5 -1 15 0.04 0.10 1.03 o
6 -1 15 0.08 0.35 1.80 o
7 -1 15 1.44 1.03 1.49 o
8 -1 15 1.69 2.57 1.94 o
9 -1 15 0.01 3.80 2.64 o
-8 0 15 0.03 1.37 2.94 o
-7 0 15 0.02 2.64 1.81 o
-6 0 15 6.55 8.66 1.96 o
-5 0 15 0.79 2.38 1.04 o
-4 0 15 8.05 7.85 0.94 o
-3 0 15 18.61 18.96 1.12 o
-2 0 15 6.41 6.53 0.76 o
-1 0 15 0.47 -0.64 0.64 o
0 0 15 0.21 0.01 0.59 o
1 0 15 1.44 2.17 0.64 o
2 0 15 6.60 8.19 1.02 o
3 0 15 1.60 1.58 0.64 o
4 0 15 2.20 1.78 0.70 o
5 0 15 0.61 0.79 1.03 o
6 0 15 3.80 2.74 1.41 o
7 0 15 0.18 0.17 1.40 o
8 0 15 4.95 7.29 2.10 o
9 0 15 0.39 -2.40 2.40 o
-7 1 15 0.39 4.12 1.85 o
-6 1 15 3.99 4.47 1.57 o
-5 1 15 0.43 0.62 1.47 o
-4 1 15 2.86 1.90 0.86 o
-3 1 15 3.87 5.54 1.03 o
-2 1 15 1.30 2.01 0.72 o
-1 1 15 17.94 16.61 0.97 o
0 1 15 1.49 1.40 0.64 o
1 1 15 0.02 -0.25 0.70 o
2 1 15 26.61 25.30 1.24 o
3 1 15 5.85 6.13 0.68 o
4 1 15 8.83 9.28 0.80 o
5 1 15 5.94 6.99 1.02 o
6 1 15 2.32 4.53 1.09 o
7 1 15 3.38 3.84 1.43 o
8 1 15 0.04 4.05 2.16 o
9 1 15 1.07 1.66 2.39 o
-7 2 15 5.45 2.24 2.21 o
-6 2 15 1.45 3.62 1.60 o
-5 2 15 16.39 17.23 1.65 o
-4 2 15 0.70 0.49 1.16 o
-3 2 15 10.35 8.42 1.06 o
-2 2 15 0.07 -0.25 0.73 o
-1 2 15 1.17 2.28 0.78 o
0 2 15 22.74 23.54 1.11 o
1 2 15 1.30 1.98 0.63 o
2 2 15 15.60 12.99 0.81 o
3 2 15 13.14 14.25 1.38 o
4 2 15 0.37 1.30 0.68 o
5 2 15 20.24 20.47 1.59 o
6 2 15 4.72 3.28 1.10 o
7 2 15 3.76 2.69 1.41 o
8 2 15 5.35 8.06 2.12 o
9 2 15 0.01 -0.40 2.16 o
-7 3 15 1.23 -1.62 1.99 o
-6 3 15 22.19 23.11 2.03 o
-5 3 15 0.76 4.93 1.39 o
-4 3 15 30.46 36.77 2.19 o
-3 3 15 26.26 28.54 1.43 o
-2 3 15 0.82 0.66 1.10 o
-1 3 15 4.51 3.89 0.79 o
0 3 15 8.37 8.60 0.75 o
1 3 15 10.62 11.74 0.79 o
2 3 15 7.77 8.48 0.95 o
3 3 15 34.06 32.00 1.55 o
4 3 15 1.80 2.41 0.76 o
5 3 15 0.84 2.04 0.82 o
6 3 15 0.90 2.47 1.03 o
7 3 15 0.19 0.08 1.12 o
8 3 15 2.17 5.35 1.75 o
9 3 15 0.69 -2.14 2.14 o
-6 4 15 4.96 4.44 1.74 o
-5 4 15 5.64 7.77 1.78 o
-4 4 15 19.12 17.99 1.44 o
-3 4 15 16.38 18.38 1.50 o
-2 4 15 47.16 50.81 2.12 o
-1 4 15 0.03 0.22 0.90 o
0 4 15 0.68 0.72 0.78 o
1 4 15 2.19 1.92 0.77 o
2 4 15 20.21 19.55 1.22 o
3 4 15 0.06 1.23 0.93 o
4 4 15 24.24 25.56 1.41 o
5 4 15 4.42 4.54 0.91 o
6 4 15 1.28 0.49 1.01 o
7 4 15 0.42 0.17 1.22 o
8 4 15 0.55 -0.05 2.01 o
9 4 15 0.46 1.23 2.29 o
10 4 15 0.16 4.91 7.19 o
-6 5 15 0.88 1.94 2.73 o
-5 5 15 0.15 0.58 1.51 o
-4 5 15 1.16 -0.49 1.40 o
-3 5 15 45.07 51.35 2.16 o
-2 5 15 0.22 -1.14 1.17 o
-1 5 15 1.30 2.04 1.67 o
0 5 15 3.77 4.76 1.02 o
1 5 15 0.12 -0.82 0.82 o
2 5 15 0.77 0.94 0.85 o
3 5 15 29.26 24.45 1.50 o
4 5 15 5.17 4.94 1.04 o
5 5 15 8.65 9.60 1.21 o
6 5 15 9.18 9.80 1.25 o
7 5 15 2.89 2.93 1.44 o
8 5 15 0.66 1.69 1.45 o
9 5 15 0.63 10.93 2.99 o
10 5 15 0.01 -1.81 3.37 o
-6 6 15 0.01 -3.45 3.98 o
-5 6 15 2.01 2.24 2.21 o
-4 6 15 4.51 6.86 1.63 o
-3 6 15 1.55 1.14 1.42 o
-2 6 15 10.75 10.02 1.55 o
-1 6 15 0.80 -0.73 1.32 o
0 6 15 9.39 9.32 2.01 o
1 6 15 1.25 3.67 0.97 o
2 6 15 20.68 18.48 1.55 o
3 6 15 13.81 11.14 1.05 o
4 6 15 1.38 1.74 1.10 o
5 6 15 3.47 1.71 1.27 o
6 6 15 0.10 1.01 1.82 o
7 6 15 9.74 11.56 1.88 o
8 6 15 4.03 0.90 1.50 o
9 6 15 0.40 -2.13 2.13 o
10 6 15 0.37 -0.73 3.33 o
-5 7 15 4.87 7.45 2.17 o
-4 7 15 5.25 7.17 1.90 o
-3 7 15 2.45 1.09 1.61 o
-2 7 15 0.11 2.21 1.56 o
-1 7 15 0.30 -1.45 1.45 o
0 7 15 2.86 3.68 1.34 o
1 7 15 8.58 6.61 1.50 o
2 7 15 2.50 4.75 1.08 o
3 7 15 3.39 4.43 1.15 o
4 7 15 0.16 3.69 1.24 o
5 7 15 2.28 0.94 1.48 o
6 7 15 7.20 10.32 2.38 o
7 7 15 0.40 -0.96 1.47 o
8 7 15 8.40 7.09 1.62 o
9 7 15 0.53 3.42 3.25 o
10 7 15 1.90 -5.46 5.46 o
-4 8 15 20.29 23.17 3.41 o
-3 8 15 1.33 3.21 1.82 o
-2 8 15 0.07 2.46 1.76 o
-1 8 15 1.12 3.46 1.61 o
0 8 15 0.57 3.27 1.37 o
1 8 15 19.64 23.71 1.87 o
2 8 15 30.40 30.22 1.82 o
3 8 15 0.23 -0.12 1.26 o
4 8 15 0.47 0.88 1.15 o
5 8 15 0.76 0.06 1.65 o
6 8 15 4.67 2.27 1.69 o
7 8 15 3.43 3.99 1.68 o
8 8 15 0.02 -1.25 1.84 o
9 8 15 0.32 -1.73 2.34 o
-4 9 15 0.24 3.00 2.86 o
-3 9 15 3.78 8.80 2.16 o
-2 9 15 0.31 1.58 2.33 o
-1 9 15 0.65 2.47 1.50 o
0 9 15 2.86 1.93 1.31 o
1 9 15 0.01 -0.39 1.28 o
2 9 15 15.91 15.71 1.55 o
3 9 15 0.23 0.17 1.11 o
4 9 15 11.83 14.05 1.40 o
5 9 15 0.07 -0.92 1.61 o
6 9 15 0.55 0.09 1.43 o
7 9 15 1.81 3.37 1.61 o
8 9 15 2.89 1.15 2.24 o
9 9 15 0.15 1.08 2.42 o
-3 10 15 1.05 3.84 2.98 o
-2 10 15 0.37 2.43 2.22 o
-1 10 15 4.33 3.49 1.70 o
0 10 15 8.00 8.01 1.58 o
1 10 15 2.48 1.87 1.44 o
2 10 15 0.09 -1.33 1.33 o
3 10 15 4.99 5.05 1.45 o
4 10 15 3.56 3.62 1.45 o
5 10 15 9.49 11.74 1.60 o
6 10 15 0.35 1.26 1.58 o
7 10 15 0.71 -0.60 2.01 o
8 10 15 0.54 -0.06 2.13 o
9 10 15 0.40 1.51 2.48 o
-2 11 15 0.16 2.19 2.39 o
-1 11 15 0.88 5.50 2.90 o
0 11 15 1.14 -0.75 2.01 o
1 11 15 3.82 4.02 1.68 o
2 11 15 0.49 -0.71 1.54 o
3 11 15 2.23 -1.54 1.54 o
4 11 15 0.04 -0.32 1.55 o
5 11 15 9.98 12.48 2.14 o
6 11 15 2.73 4.28 1.82 o
7 11 15 0.47 1.03 2.13 o
8 11 15 0.22 2.47 2.43 o
-1 12 15 3.49 -3.01 6.02 o
0 12 15 4.12 1.86 2.56 o
1 12 15 9.88 9.97 2.22 o
2 12 15 1.85 6.54 2.38 o
3 12 15 5.54 0.08 2.38 o
4 12 15 1.06 0.73 2.19 o
5 12 15 0.00 -1.91 1.91 o
6 12 15 0.79 0.09 2.65 o
7 12 15 0.68 2.02 2.36 o
1 13 15 0.22 -0.86 2.78 o
2 13 15 9.97 5.34 5.47 o
3 13 15 0.44 4.18 3.32 o
4 13 15 7.94 12.23 2.94 o
5 13 15 0.01 1.46 3.84 o
6 13 15 0.20 -1.81 3.02 o
-4 -10 16 0.17 1.11 3.59 o
-3 -10 16 0.91 3.10 2.45 o
-2 -10 16 0.05 0.16 2.88 o
-1 -10 16 0.01 4.47 3.46 o
0 -10 16 0.12 -3.03 3.03 o
1 -10 16 0.03 1.61 3.24 o
-5 -9 16 1.94 0.68 2.57 o
-4 -9 16 0.02 -0.13 2.26 o
-3 -9 16 1.19 4.14 2.20 o
-2 -9 16 0.15 0.04 1.87 o
-1 -9 16 2.43 6.76 1.70 o
0 -9 16 0.23 -0.31 1.96 o
1 -9 16 0.11 2.30 2.30 o
2 -9 16 0.15 3.18 3.65 o
-6 -8 16 0.00 2.60 5.36 o
-5 -8 16 0.16 -1.48 2.61 o
-4 -8 16 0.10 2.92 2.43 o
-3 -8 16 0.00 -0.53 1.76 o
-2 -8 16 1.44 1.55 2.76 o
-1 -8 16 0.28 1.67 1.50 o
0 -8 16 0.66 3.42 1.55 o
1 -8 16 1.96 2.36 1.84 o
2 -8 16 1.38 4.46 1.95 o
3 -8 16 0.00 1.93 2.38 o
-6 -7 16 0.09 1.62 2.80 o
-5 -7 16 1.08 1.61 2.13 o
-4 -7 16 4.63 4.58 1.75 o
-3 -7 16 0.47 1.35 1.61 o
-2 -7 16 4.02 5.11 1.95 o
-1 -7 16 0.00 0.04 1.35 o
0 -7 16 1.62 5.13 1.59 o
1 -7 16 1.05 2.31 1.65 o
2 -7 16 0.16 -0.54 2.28 o
3 -7 16 0.61 1.27 2.63 o
4 -7 16 0.13 0.86 2.29 o
-7 -6 16 1.83 4.64 2.67 o
-6 -6 16 1.56 6.91 2.83 o
-5 -6 16 1.12 3.70 2.09 o
-4 -6 16 3.89 2.17 1.61 o
-3 -6 16 11.56 15.28 1.65 o
-2 -6 16 1.44 -0.21 1.41 o
-1 -6 16 0.08 1.86 1.42 o
0 -6 16 5.18 8.87 1.37 o
1 -6 16 1.49 0.31 1.43 o
2 -6 16 3.06 1.31 1.56 o
3 -6 16 0.16 0.75 1.65 o
4 -6 16 0.58 0.55 1.83 o
5 -6 16 1.19 3.32 1.96 o
-7 -5 16 17.16 17.34 2.50 o
-6 -5 16 3.49 7.49 2.14 o
-5 -5 16 1.34 2.79 1.55 o
-4 -5 16 4.00 2.88 1.51 o
-3 -5 16 10.97 12.04 1.51 o
-2 -5 16 10.11 8.65 1.43 o
-1 -5 16 14.54 16.79 1.56 o
0 -5 16 2.54 3.87 1.40 o
1 -5 16 5.34 5.40 1.29 o
2 -5 16 0.02 1.07 1.53 o
3 -5 16 0.00 0.22 1.63 o
4 -5 16 0.11 -1.59 1.59 o
5 -5 16 0.37 0.51 2.51 o
6 -5 16 0.55 2.07 1.99 o
-7 -4 16 2.20 -0.20 2.32 o
-6 -4 16 9.98 13.57 2.27 o
-5 -4 16 0.25 1.30 2.42 o
-4 -4 16 0.74 0.68 1.44 o
-3 -4 16 1.71 2.65 1.56 o
-2 -4 16 0.17 -1.43 1.43 o
-1 -4 16 13.32 14.52 1.75 o
0 -4 16 26.90 26.78 3.60 o
1 -4 16 1.77 1.63 1.10 o
2 -4 16 1.11 0.55 1.13 o
3 -4 16 0.91 -0.08 1.46 o
4 -4 16 1.77 2.69 1.48 o
5 -4 16 1.04 1.21 1.94 o
6 -4 16 0.01 -1.97 2.08 o
-7 -3 16 1.16 2.63 2.25 o
-6 -3 16 0.01 -1.64 1.77 o
-5 -3 16 4.15 6.36 1.54 o
-4 -3 16 1.14 -1.45 1.45 o
-3 -3 16 0.64 2.55 1.20 o
-2 -3 16 0.39 -1.13 1.13 o
-1 -3 16 2.13 3.60 1.27 o
0 -3 16 2.69 1.01 1.12 o
1 -3 16 3.09 4.06 1.01 o
2 -3 16 6.49 5.93 1.10 o
3 -3 16 2.27 -0.51 1.18 o
4 -3 16 10.29 10.89 2.77 o
5 -3 16 12.78 10.74 1.74 o
6 -3 16 0.04 -1.05 2.16 o
7 -3 16 0.52 0.59 2.50 o
-7 -2 16 5.42 8.32 2.15 o
-6 -2 16 0.91 0.30 1.95 o
-5 -2 16 0.32 -0.47 1.75 o
-4 -2 16 0.03 2.50 1.28 o
-3 -2 16 0.05 -1.27 1.27 o
-2 -2 16 13.31 13.69 1.38 o
-1 -2 16 12.39 15.60 1.46 o
0 -2 16 0.26 -1.05 1.05 o
1 -2 16 5.37 3.40 0.99 o
2 -2 16 1.06 0.90 0.92 o
3 -2 16 6.66 6.21 1.14 o
4 -2 16 0.82 1.18 1.49 o
5 -2 16 1.30 2.73 1.40 o
6 -2 16 0.20 -1.06 1.77 o
7 -2 16 0.68 -1.87 1.87 o
-7 -1 16 4.79 12.92 2.23 o
-6 -1 16 0.22 2.06 1.66 o
-5 -1 16 12.19 8.80 3.25 o
-4 -1 16 2.25 1.06 1.19 o
-3 -1 16 6.15 8.43 1.12 o
-2 -1 16 3.23 0.43 0.91 o
-1 -1 16 33.85 35.69 1.55 o
0 -1 16 0.13 -0.03 0.92 o
1 -1 16 0.18 0.74 1.18 o
2 -1 16 0.77 2.02 0.85 o
3 -1 16 0.26 1.16 1.17 o
4 -1 16 8.07 9.11 1.46 o
5 -1 16 7.67 10.52 1.42 o
6 -1 16 0.35 -0.66 1.72 o
7 -1 16 0.46 2.70 1.81 o
8 -1 16 0.29 -2.44 2.44 o
-7 0 16 0.22 -0.82 2.30 o
-6 0 16 2.69 1.73 1.80 o
-5 0 16 1.36 3.52 1.43 o
-4 0 16 0.53 0.19 1.05 o
-3 0 16 15.50 13.07 1.10 o
-2 0 16 9.90 8.33 0.94 o
-1 0 16 9.94 10.70 1.03 o
0 0 16 0.30 -0.01 1.04 o
1 0 16 0.27 0.00 0.98 o
2 0 16 0.20 0.76 0.94 o
3 0 16 10.51 8.67 1.00 o
4 0 16 0.30 -0.30 0.95 o
5 0 16 3.40 4.24 1.16 o
6 0 16 0.00 0.61 1.46 o
7 0 16 0.32 4.79 1.98 o
8 0 16 0.01 6.90 2.74 o
-7 1 16 5.73 12.62 3.26 o
-6 1 16 1.44 0.21 1.63 o
-5 1 16 0.55 2.32 1.40 o
-4 1 16 0.16 2.45 1.53 o
-3 1 16 4.35 3.07 1.05 o
-2 1 16 6.43 5.44 0.99 o
-1 1 16 0.00 0.28 0.95 o
0 1 16 14.23 14.01 1.46 o
1 1 16 1.59 0.12 0.93 o
2 1 16 7.40 9.27 1.27 o
3 1 16 2.64 2.06 0.98 o
4 1 16 2.57 1.73 0.85 o
5 1 16 0.79 -0.12 1.00 o
6 1 16 0.01 -0.43 1.56 o
7 1 16 0.95 1.77 1.63 o
8 1 16 0.42 -0.42 2.09 o
-6 2 16 4.08 2.46 1.95 o
-5 2 16 0.04 -1.61 1.61 o
-4 2 16 10.92 12.14 1.32 o
-3 2 16 0.08 -1.04 1.04 o
-2 2 16 4.96 5.10 1.01 o
-1 2 16 0.20 0.82 0.99 o
0 2 16 1.94 0.67 1.03 o
1 2 16 0.77 0.29 1.17 o
2 2 16 6.17 7.22 1.48 o
3 2 16 0.61 0.33 0.97 o
4 2 16 0.11 0.42 0.87 o
5 2 16 1.88 0.88 1.02 o
6 2 16 2.40 2.28 1.16 o
7 2 16 0.88 0.05 1.80 o
8 2 16 3.74 6.65 2.72 o
9 2 16 0.10 1.67 5.46 o
-6 3 16 2.53 -0.06 1.98 o
-5 3 16 1.44 0.43 1.65 o
-4 3 16 4.83 4.40 1.60 o
-3 3 16 20.43 17.69 1.54 o
-2 3 16 24.30 22.64 1.72 o
-1 3 16 18.27 18.44 1.18 o
0 3 16 1.33 1.46 1.10 o
1 3 16 1.71 0.09 1.53 o
2 3 16 7.21 5.85 1.23 o
3 3 16 0.53 0.72 1.32 o
4 3 16 3.77 1.70 0.96 o
5 3 16 0.02 -0.32 1.12 o
6 3 16 1.02 2.03 1.33 o
7 3 16 0.56 0.47 1.53 o
8 3 16 0.91 2.54 3.49 o
9 3 16 1.05 1.92 4.41 o
-6 4 16 0.13 0.82 2.46 o
-5 4 16 1.57 1.58 1.77 o
-4 4 16 1.47 2.36 1.41 o
-3 4 16 19.01 19.77 1.57 o
-2 4 16 7.14 11.04 1.38 o
-1 4 16 60.40 69.30 3.17 o
0 4 16 1.02 4.42 1.61 o
1 4 16 7.94 10.88 1.31 o
2 4 16 0.01 -0.41 1.27 o
3 4 16 2.52 2.38 1.15 o
4 4 16 1.08 1.08 1.02 o
5 4 16 17.03 17.87 1.34 o
6 4 16 0.44 0.55 1.16 o
7 4 16 3.74 2.58 1.48 o
8 4 16 0.05 0.32 2.05 o
9 4 16 0.41 0.79 3.08 o
-5 5 16 0.80 4.61 2.18 o
-4 5 16 0.07 3.37 1.69 o
-3 5 16 3.23 3.31 1.61 o
-2 5 16 20.50 23.95 2.63 o
-1 5 16 0.03 2.18 1.36 o
0 5 16 22.80 27.49 2.32 o
1 5 16 6.53 7.51 1.12 o
2 5 16 5.05 4.35 1.15 o
3 5 16 0.05 -1.09 1.09 o
4 5 16 3.15 3.85 1.38 o
5 5 16 2.32 2.04 1.04 o
6 5 16 1.26 0.62 1.22 o
7 5 16 3.47 4.63 1.52 o
8 5 16 2.01 3.21 1.85 o
9 5 16 0.17 -1.32 3.17 o
-5 6 16 0.07 4.72 3.53 o
-4 6 16 5.08 3.36 1.98 o
-3 6 16 0.63 6.62 1.77 o
-2 6 16 0.19 -1.96 2.01 o
-1 6 16 10.31 10.18 1.59 o
0 6 16 2.75 2.79 1.22 o
1 6 16 1.47 1.94 1.10 o
2 6 16 11.28 9.95 1.24 o
3 6 16 4.75 5.58 1.30 o
4 6 16 0.05 2.58 1.24 o
5 6 16 1.44 1.78 1.28 o
6 6 16 1.22 -0.32 1.51 o
7 6 16 0.00 -0.14 1.51 o
8 6 16 5.95 2.44 1.83 o
9 6 16 0.41 3.78 2.70 o
-4 7 16 10.31 12.08 2.19 o
-3 7 16 12.03 13.69 2.52 o
-2 7 16 5.00 3.63 1.89 o
-1 7 16 0.27 3.48 1.69 o
0 7 16 0.01 -0.92 1.29 o
1 7 16 4.65 4.20 1.24 o
2 7 16 10.38 10.60 1.26 o
3 7 16 1.78 0.52 1.28 o
4 7 16 2.49 3.36 1.33 o
5 7 16 0.83 -0.15 1.25 o
6 7 16 1.70 -0.16 2.18 o
7 7 16 1.01 -0.83 1.57 o
8 7 16 0.59 3.75 1.89 o
9 7 16 2.07 2.64 2.61 o
-3 8 16 18.45 26.33 2.59 o
-2 8 16 0.09 0.94 2.12 o
-1 8 16 2.62 3.76 1.59 o
0 8 16 0.11 2.10 1.72 o
1 8 16 3.64 3.42 1.40 o
2 8 16 13.66 15.16 1.39 o
3 8 16 8.66 8.85 1.45 o
4 8 16 7.16 5.92 1.40 o
5 8 16 0.49 -0.83 1.82 o
6 8 16 7.13 8.22 2.77 o
7 8 16 1.89 3.47 1.96 o
8 8 16 0.87 -0.53 2.14 o
-2 9 16 7.95 10.25 2.05 o
-1 9 16 6.42 5.09 1.81 o
0 9 16 9.05 10.37 1.75 o
1 9 16 0.15 2.15 1.62 o
2 9 16 1.95 1.48 1.40 o
3 9 16 5.29 8.64 1.38 o
4 9 16 0.04 -1.48 1.48 o
5 9 16 8.25 6.93 1.64 o
6 9 16 0.00 -1.57 1.69 o
7 9 16 2.45 1.22 1.90 o
8 9 16 1.33 3.60 2.03 o
-2 10 16 1.04 0.02 3.65 o
-1 10 16 0.01 1.00 2.17 o
0 10 16 6.64 5.84 1.85 o
1 10 16 1.73 1.33 1.72 o
2 10 16 0.14 -0.41 1.64 o
3 10 16 0.13 2.30 1.94 o
4 10 16 0.43 1.33 1.86 o
5 10 16 4.85 4.57 2.44 o
6 10 16 7.66 9.10 1.95 o
7 10 16 0.93 8.40 2.91 o
8 10 16 0.39 -2.00 2.54 o
0 11 16 0.20 -0.52 3.17 o
1 11 16 4.74 3.82 3.53 o
2 11 16 3.06 3.44 2.23 o
3 11 16 0.34 -2.19 2.19 o
4 11 16 0.85 0.71 1.90 o
5 11 16 0.03 3.41 2.32 o
6 11 16 3.32 4.58 2.14 o
7 11 16 0.52 0.96 2.40 o
1 12 16 0.04 0.43 9.36 o
2 12 16 2.95 3.99 2.81 o
3 12 16 0.07 1.11 2.80 o
4 12 16 5.73 3.89 2.50 o
5 12 16 0.97 -0.29 2.60 o
6 12 16 0.49 2.67 2.96 o
-2 -9 17 0.12 0.43 2.59 o
-1 -9 17 0.35 1.58 2.89 o
0 -9 17 1.90 6.13 4.41 o
-4 -8 17 0.07 0.52 3.95 o
-3 -8 17 0.25 -2.30 2.30 o
-2 -8 17 1.35 4.07 2.21 o
-1 -8 17 0.15 1.62 1.85 o
0 -8 17 0.02 4.97 2.09 o
1 -8 17 0.06 -2.13 2.13 o
2 -8 17 1.14 5.76 2.82 o
-5 -7 17 2.35 2.73 2.56 o
-4 -7 17 0.67 0.28 2.35 o
-3 -7 17 0.02 1.10 2.20 o
-2 -7 17 0.36 1.75 1.87 o
-1 -7 17 0.21 1.56 1.63 o
0 -7 17 0.05 -1.81 1.81 o
1 -7 17 1.12 2.86 2.58 o
2 -7 17 0.05 3.09 2.07 o
3 -7 17 1.20 1.72 2.28 o
-5 -6 17 5.54 4.40 2.21 o
-4 -6 17 0.66 6.92 2.02 o
-3 -6 17 0.15 1.50 1.77 o
-2 -6 17 0.36 0.75 1.70 o
-1 -6 17 1.15 1.57 1.51 o
0 -6 17 0.00 1.83 1.51 o
1 -6 17 5.35 5.98 2.54 o
2 -6 17 2.63 9.44 2.81 o
3 -6 17 0.07 2.05 2.00 o
4 -6 17 1.12 0.82 4.86 o
-6 -5 17 12.12 18.03 2.65 o
-5 -5 17 3.83 5.98 2.15 o
-4 -5 17 9.49 14.08 1.81 o
-3 -5 17 0.58 3.65 1.73 o
-2 -5 17 1.00 2.87 1.90 o
-1 -5 17 0.72 0.90 1.58 o
0 -5 17 10.60 9.99 1.48 o
1 -5 17 0.08 0.74 1.58 o
2 -5 17 3.92 4.07 1.71 o
3 -5 17 0.01 -1.85 1.85 o
4 -5 17 0.02 1.90 3.12 o
5 -5 17 0.18 -2.30 3.41 o
-6 -4 17 0.34 -2.57 2.62 o
-5 -4 17 18.33 21.37 2.23 o
-4 -4 17 0.10 3.75 1.79 o
-3 -4 17 2.65 0.78 1.92 o
-2 -4 17 12.79 13.69 1.89 o
-1 -4 17 0.28 1.78 1.72 o
0 -4 17 0.14 3.54 1.34 o
1 -4 17 14.37 16.22 1.51 o
2 -4 17 0.08 0.20 2.57 o
3 -4 17 2.05 3.11 1.85 o
4 -4 17 0.43 0.82 3.22 o
5 -4 17 0.34 1.46 1.91 o
-6 -3 17 2.97 9.48 2.44 o
-5 -3 17 0.23 -2.00 2.00 o
-4 -3 17 5.20 8.17 1.63 o
-3 -3 17 0.41 1.99 1.45 o
-2 -3 17 1.62 3.28 1.38 o
-1 -3 17 2.47 0.63 1.45 o
0 -3 17 4.04 4.97 1.47 o
1 -3 17 0.09 0.39 1.69 o
2 -3 17 6.03 6.47 1.41 o
3 -3 17 1.27 2.88 2.32 o
4 -3 17 0.32 1.10 1.90 o
5 -3 17 4.33 4.51 1.80 o
6 -3 17 0.04 -2.07 2.30 o
-6 -2 17 4.52 3.77 2.62 o
-5 -2 17 0.03 -1.85 1.85 o
-4 -2 17 0.18 -0.01 1.68 o
-3 -2 17 1.49 3.72 1.55 o
-2 -2 17 5.22 5.16 1.52 o
-1 -2 17 16.86 15.62 1.68 o
0 -2 17 2.47 1.82 1.21 o
1 -2 17 0.05 0.38 1.35 o
2 -2 17 0.10 -0.09 1.28 o
3 -2 17 0.05 -0.01 2.12 o
4 -2 17 1.21 5.30 1.57 o
5 -2 17 0.23 -1.28 1.62 o
6 -2 17 0.25 2.36 2.43 o
-6 -1 17 8.85 10.87 2.46 o
-5 -1 17 1.26 -1.30 2.67 o
-4 -1 17 0.32 -1.62 1.62 o
-3 -1 17 0.80 -1.49 1.49 o
-2 -1 17 0.26 3.12 1.73 o
-1 -1 17 12.18 14.77 1.69 o
0 -1 17 11.90 9.33 1.43 o
1 -1 17 4.10 3.24 1.21 o
2 -1 17 0.32 1.43 1.15 o
3 -1 17 0.32 1.45 1.56 o
4 -1 17 3.42 3.55 1.67 o
5 -1 17 8.45 9.39 1.63 o
6 -1 17 0.41 0.05 1.82 o
7 -1 17 1.19 1.40 2.13 o
-6 0 17 0.00 2.46 2.38 o
-5 0 17 8.41 5.41 3.46 o
-4 0 17 7.61 6.92 1.81 o
-3 0 17 1.59 0.98 1.54 o
-2 0 17 7.14 8.51 1.58 o
-1 0 17 1.87 1.94 1.79 o
0 0 17 5.72 4.10 1.19 o
1 0 17 1.58 0.08 1.16 o
2 0 17 11.81 12.80 1.24 o
3 0 17 1.19 0.62 1.31 o
4 0 17 0.97 1.16 1.53 o
5 0 17 0.87 1.25 2.03 o
6 0 17 0.17 0.75 1.75 o
7 0 17 0.61 0.77 2.08 o
-6 1 17 6.81 6.96 2.75 o
-5 1 17 0.79 5.37 2.10 o
-4 1 17 0.08 -1.01 1.96 o
-3 1 17 0.20 0.31 2.27 o
-2 1 17 2.94 1.70 1.19 o
-1 1 17 6.52 6.85 1.76 o
0 1 17 0.07 -1.12 1.12 o
1 1 17 6.71 6.15 1.52 o
2 1 17 10.35 8.84 1.06 o
3 1 17 5.13 5.04 1.02 o
4 1 17 0.00 -1.08 1.08 o
5 1 17 1.45 1.36 1.33 o
6 1 17 0.04 1.74 1.90 o
7 1 17 0.01 1.81 3.84 o
-5 2 17 2.44 4.84 2.54 o
-4 2 17 12.97 14.28 1.68 o
-3 2 17 0.96 -0.08 1.41 o
-2 2 17 0.00 -1.62 1.91 o
-1 2 17 3.65 2.07 1.58 o
0 2 17 0.75 0.64 1.17 o
1 2 17 1.17 -1.06 1.06 o
2 2 17 1.41 1.38 1.17 o
3 2 17 2.55 1.82 1.15 o
4 2 17 0.51 -0.15 1.12 o
5 2 17 0.42 3.75 1.34 o
6 2 17 0.01 0.24 1.63 o
7 2 17 0.07 0.34 2.27 o
8 2 17 0.24 0.73 2.75 o
-5 3 17 0.47 0.43 2.84 o
-4 3 17 0.81 1.48 1.80 o
-3 3 17 3.13 4.56 1.64 o
-2 3 17 2.98 3.43 1.48 o
-1 3 17 8.96 12.49 1.64 o
0 3 17 3.20 3.32 1.28 o
1 3 17 4.87 5.12 1.18 o
2 3 17 9.86 12.84 1.46 o
3 3 17 0.16 1.31 1.51 o
4 3 17 2.76 4.55 1.09 o
5 3 17 0.00 0.64 1.25 o
6 3 17 0.29 -1.44 1.44 o
7 3 17 0.49 -2.12 2.12 o
8 3 17 0.21 -1.92 2.57 o
-5 4 17 0.00 -2.74 2.74 o
-4 4 17 1.01 5.74 2.10 o
-3 4 17 0.89 -1.64 1.64 o
-2 4 17 6.09 6.16 1.63 o
-1 4 17 0.01 0.86 1.46 o
0 4 17 26.71 28.10 1.76 o
1 4 17 1.15 2.29 1.32 o
2 4 17 16.39 18.93 1.68 o
3 4 17 0.23 -1.15 1.15 o
4 4 17 0.37 2.45 1.31 o
5 4 17 3.91 5.37 1.30 o
6 4 17 0.71 -1.46 1.46 o
7 4 17 1.37 0.80 2.71 o
8 4 17 1.27 1.83 3.79 o
-4 5 17 2.18 3.01 2.09 o
-3 5 17 0.00 -0.36 1.80 o
-2 5 17 1.94 5.97 1.91 o
-1 5 17 11.48 12.58 1.70 o
0 5 17 0.64 -0.35 1.53 o
1 5 17 19.14 19.26 1.58 o
2 5 17 10.70 13.02 1.74 o
3 5 17 4.82 5.27 1.18 o
4 5 17 1.20 1.66 1.27 o
5 5 17 0.01 0.64 1.30 o
6 5 17 0.25 -1.55 1.55 o
7 5 17 0.38 1.09 1.75 o
8 5 17 1.36 3.62 2.08 o
-4 6 17 1.61 1.46 4.55 o
-3 6 17 6.40 7.00 2.08 o
-2 6 17 3.22 7.18 1.92 o
-1 6 17 7.49 11.77 2.75 o
0 6 17 1.89 1.54 1.48 o
1 6 17 6.29 7.41 1.53 o
2 6 17 4.90 8.21 1.34 o
3 6 17 7.48 8.64 1.40 o
4 6 17 1.47 4.26 1.32 o
5 6 17 0.02 -0.52 1.35 o
6 6 17 0.71 0.60 1.62 o
7 6 17 0.40 -0.62 1.99 o
8 6 17 0.01 0.51 2.19 o
-3 7 17 6.48 3.70 2.96 o
-2 7 17 4.78 7.41 2.96 o
-1 7 17 6.64 9.68 1.77 o
0 7 17 0.10 0.73 1.61 o
1 7 17 1.13 0.20 1.51 o
2 7 17 5.71 5.47 1.43 o
3 7 17 0.99 2.94 1.40 o
4 7 17 3.96 3.24 1.52 o
5 7 17 0.24 0.58 1.64 o
6 7 17 2.28 2.91 1.82 o
7 7 17 0.09 0.87 1.82 o
8 7 17 0.00 0.66 2.59 o
-2 8 17 8.37 3.73 2.24 o
-1 8 17 0.23 -1.84 1.84 o
0 8 17 10.65 12.96 1.83 o
1 8 17 2.16 1.91 1.70 o
2 8 17 9.05 6.86 1.60 o
3 8 17 2.53 1.35 1.49 o
4 8 17 0.20 2.67 1.65 o
5 8 17 2.32 -1.15 2.56 o
6 8 17 0.68 0.06 1.85 o
7 8 17 3.93 4.29 1.82 o
-1 9 17 5.17 6.98 2.11 o
0 9 17 6.06 7.56 2.00 o
1 9 17 4.67 4.47 1.85 o
2 9 17 4.92 7.96 1.84 o
3 9 17 1.04 1.20 1.66 o
4 9 17 0.23 -0.45 1.81 o
5 9 17 0.34 0.74 2.52 o
6 9 17 3.43 5.51 2.09 o
7 9 17 0.62 1.06 2.54 o
0 10 17 0.39 -2.27 2.39 o
1 10 17 11.77 10.19 2.66 o
2 10 17 5.80 6.33 1.98 o
3 10 17 0.64 0.89 2.01 o
4 10 17 0.02 0.57 1.97 o
5 10 17 0.36 -1.43 2.37 o
6 10 17 2.74 5.98 2.23 o
2 11 17 6.22 9.78 3.10 o
3 11 17 0.00 -2.63 2.63 o
4 11 17 2.48 1.07 2.42 o
5 11 17 0.02 4.01 6.69 o
-2 -7 18 0.23 2.83 2.47 o
-1 -7 18 0.57 3.94 2.17 o
0 -7 18 0.00 -1.56 2.28 o
-3 -6 18 0.75 -0.01 2.48 o
-2 -6 18 0.58 2.17 2.06 o
-1 -6 18 0.42 1.08 2.16 o
0 -6 18 0.17 -0.03 2.34 o
1 -6 18 0.49 0.79 2.99 o
2 -6 18 0.12 8.21 3.59 o
-4 -5 18 3.45 7.54 2.60 o
-3 -5 18 8.48 12.89 2.13 o
-2 -5 18 0.08 -0.13 2.97 o
-1 -5 18 0.59 0.40 1.91 o
0 -5 18 0.04 2.89 2.22 o
1 -5 18 0.12 3.68 2.04 o
2 -5 18 0.07 -2.17 2.54 o
3 -5 18 0.25 4.27 2.48 o
-4 -4 18 14.66 23.54 2.36 o
-3 -4 18 0.02 2.64 2.01 o
-2 -4 18 5.99 9.29 1.99 o
-1 -4 18 7.14 9.58 1.70 o
0 -4 18 0.55 1.42 1.58 o
1 -4 18 0.06 -2.04 2.09 o
2 -4 18 5.63 6.23 3.09 o
3 -4 18 0.54 2.57 3.33 o
4 -4 18 0.84 0.39 2.10 o
-5 -3 18 0.08 1.06 3.48 o
-4 -3 18 0.61 -2.10 2.10 o
-3 -3 18 11.26 13.77 2.77 o
-2 -3 18 1.66 2.73 1.86 o
-1 -3 18 2.61 3.32 1.80 o
0 -3 18 2.46 3.69 1.70 o
1 -3 18 0.19 0.75 1.93 o
2 -3 18 0.06 1.44 2.24 o
3 -3 18 2.22 5.08 4.17 o
4 -3 18 0.47 0.27 2.06 o
5 -3 18 0.03 5.49 4.07 o
-5 -2 18 4.32 4.08 2.78 o
-4 -2 18 0.41 0.59 3.07 o
-3 -2 18 0.11 -1.88 1.88 o
-2 -2 18 0.25 2.75 1.84 o
-1 -2 18 12.90 19.10 2.29 o
0 -2 18 4.72 5.58 1.62 o
1 -2 18 0.94 0.92 1.64 o
2 -2 18 0.60 1.30 3.96 o
3 -2 18 0.16 2.10 2.22 o
4 -2 18 0.27 5.41 3.06 o
5 -2 18 2.24 4.44 2.30 o
-5 -1 18 10.84 12.60 4.20 o
-4 -1 18 0.03 3.95 2.30 o
-3 -1 18 2.92 3.92 1.94 o
-2 -1 18 5.06 3.91 1.96 o
-1 -1 18 1.37 1.48 2.19 o
0 -1 18 1.65 0.95 1.60 o
1 -1 18 1.12 1.03 1.58 o
2 -1 18 2.57 6.56 1.68 o
3 -1 18 0.00 1.08 1.94 o
4 -1 18 4.52 8.16 2.69 o
5 -1 18 2.09 3.30 1.91 o
6 -1 18 1.00 0.73 2.26 o
-5 0 18 0.16 3.46 5.24 o
-4 0 18 5.71 9.49 2.41 o
-3 0 18 5.83 5.47 2.08 o
-2 0 18 4.86 2.49 2.16 o
-1 0 18 0.39 -1.78 2.23 o
0 0 18 1.51 6.53 1.62 o
1 0 18 1.12 0.19 1.56 o
2 0 18 0.02 -1.50 1.50 o
3 0 18 10.49 9.00 1.66 o
4 0 18 0.59 3.07 1.68 o
5 0 18 1.32 6.34 2.05 o
6 0 18 0.31 3.59 3.96 o
-4 1 18 3.00 3.09 2.58 o
-3 1 18 5.18 4.36 2.17 o
-2 1 18 18.56 18.28 3.94 o
-1 1 18 6.01 5.05 1.90 o
0 1 18 0.33 0.45 1.48 o
1 1 18 0.02 -1.39 1.39 o
2 1 18 1.10 2.50 1.41 o
3 1 18 0.91 0.54 1.67 o
4 1 18 8.22 9.24 1.84 o
5 1 18 0.86 -0.21 1.81 o
6 1 18 0.13 3.64 2.32 o
-4 2 18 0.15 2.19 4.51 o
-3 2 18 15.71 15.18 2.39 o
-2 2 18 0.00 -2.01 2.01 o
-1 2 18 2.31 -0.97 1.59 o
0 2 18 0.54 -1.33 1.33 o
1 2 18 0.00 -0.34 1.28 o
2 2 18 1.30 1.72 1.28 o
3 2 18 3.64 2.37 1.38 o
4 2 18 3.75 1.96 1.54 o
5 2 18 1.21 -0.10 1.81 o
6 2 18 0.54 10.35 3.46 o
-4 3 18 0.06 0.00 2.51 o
-3 3 18 0.80 2.01 1.97 o
-2 3 18 8.81 9.91 1.85 o
-1 3 18 0.22 -1.62 1.62 o
0 3 18 2.50 2.88 1.43 o
1 3 18 0.03 -1.50 1.50 o
2 3 18 5.49 7.32 2.09 o
3 3 18 3.03 2.28 1.26 o
4 3 18 0.00 0.05 1.41 o
5 3 18 0.21 -0.41 1.52 o
6 3 18 0.49 0.48 1.94 o
7 3 18 0.79 -2.25 5.13 o
-3 4 18 0.97 -0.67 2.03 o
-2 4 18 1.68 1.58 1.85 o
-1 4 18 0.82 0.49 1.75 o
0 4 18 0.18 1.32 1.53 o
1 4 18 3.50 1.11 2.10 o
2 4 18 3.26 5.86 1.64 o
3 4 18 4.35 8.05 1.45 o
4 4 18 0.25 0.16 1.29 o
5 4 18 1.65 1.96 1.71 o
6 4 18 0.08 0.76 1.82 o
7 4 18 1.15 3.66 3.01 o
-3 5 18 0.52 0.94 2.38 o
-2 5 18 0.06 1.98 2.08 o
-1 5 18 5.12 2.66 1.82 o
0 5 18 1.94 1.46 1.50 o
1 5 18 5.92 5.24 1.50 o
2 5 18 7.03 10.83 1.57 o
3 5 18 6.27 8.69 1.55 o
4 5 18 1.46 5.48 1.45 o
5 5 18 2.87 4.92 1.66 o
6 5 18 0.27 1.16 1.85 o
7 5 18 0.00 -1.01 3.34 o
-2 6 18 0.67 1.96 2.15 o
-1 6 18 4.03 4.29 2.13 o
0 6 18 1.85 1.35 1.57 o
1 6 18 0.38 3.30 1.59 o
2 6 18 9.41 5.33 1.59 o
3 6 18 0.61 4.78 1.56 o
4 6 18 11.83 9.53 1.60 o
5 6 18 0.33 4.60 2.11 o
6 6 18 1.47 -0.95 1.95 o
-1 7 18 0.70 0.33 1.88 o
0 7 18 4.24 5.22 1.91 o
1 7 18 0.13 0.44 2.03 o
2 7 18 3.55 2.17 1.79 o
3 7 18 4.12 5.17 1.80 o
4 7 18 0.33 5.20 1.79 o
5 7 18 4.24 7.02 1.98 o
6 7 18 0.34 3.20 1.88 o
0 8 18 0.09 -0.05 2.06 o
1 8 18 5.12 5.17 2.01 o
2 8 18 2.57 5.96 1.97 o
3 8 18 4.59 7.04 2.38 o
4 8 18 0.09 1.27 1.97 o
5 8 18 0.34 -2.25 2.25 o
6 8 18 0.21 0.38 4.40 o
1 9 18 2.68 3.87 2.27 o
2 9 18 5.72 11.65 2.22 o
3 9 18 2.58 1.99 2.35 o
4 9 18 1.06 3.21 2.39 o
5 9 18 0.61 1.12 6.80 o
0 -5 19 0.40 1.34 4.57 o
-2 -4 19 0.45 3.29 2.46 o
-1 -4 19 4.61 7.09 2.55 o
0 -4 19 3.56 1.01 2.42 o
1 -4 19 1.79 8.66 2.63 o
2 -4 19 0.02 8.74 6.41 o
-3 -3 19 1.71 15.94 5.57 o
-2 -3 19 2.60 2.53 3.58 o
-1 -3 19 5.49 3.86 2.32 o
0 -3 19 1.51 14.72 2.58 o
1 -3 19 5.41 9.88 2.72 o
2 -3 19 0.00 -0.11 3.21 o
3 -3 19 0.08 0.31 4.17 o
-3 -2 19 1.63 -2.33 2.68 o
-2 -2 19 0.02 1.59 3.93 o
-1 -2 19 0.75 4.20 2.01 o
0 -2 19 6.92 10.09 2.10 o
1 -2 19 0.65 4.11 2.57 o
2 -2 19 0.52 -2.46 2.98 o
3 -2 19 0.67 2.45 2.64 o
-3 -1 19 0.53 -3.38 3.38 o
-2 -1 19 1.04 1.61 2.41 o
-1 -1 19 0.91 -2.44 2.44 o
0 -1 19 0.11 3.93 2.00 o
1 -1 19 0.36 -1.69 2.21 o
2 -1 19 0.45 -0.57 2.20 o
3 -1 19 0.34 1.31 5.80 o
4 -1 19 1.21 5.63 2.71 o
-3 0 19 7.81 12.20 2.87 o
-2 0 19 6.02 5.34 2.45 o
-1 0 19 13.51 10.50 2.52 o
0 0 19 0.50 1.03 2.00 o
1 0 19 0.13 2.12 2.00 o
2 0 19 0.20 2.79 2.18 o
3 0 19 0.01 2.37 2.33 o
4 0 19 0.70 -0.16 2.99 o
-3 1 19 1.17 -2.87 2.87 o
-2 1 19 0.37 9.96 3.43 o
-1 1 19 22.49 27.00 2.84 o
0 1 19 2.07 5.32 1.92 o
1 1 19 4.27 7.55 1.95 o
2 1 19 0.43 3.72 2.23 o
3 1 19 0.15 0.66 2.31 o
4 1 19 1.47 -0.36 2.07 o
5 1 19 6.76 9.81 2.90 o
-2 2 19 5.20 3.76 4.17 o
-1 2 19 0.30 4.08 2.22 o
0 2 19 7.78 9.39 3.37 o
1 2 19 0.29 4.02 1.82 o
2 2 19 5.31 5.88 2.01 o
3 2 19 0.11 1.88 2.27 o
4 2 19 0.33 0.98 2.06 o
5 2 19 1.60 0.81 2.26 o
-2 3 19 2.75 6.08 2.51 o
-1 3 19 6.79 4.87 1.96 o
0 3 19 0.70 1.01 2.24 o
1 3 19 0.92 0.43 1.79 o
2 3 19 2.44 0.62 1.93 o
3 3 19 3.89 4.97 1.89 o
4 3 19 0.22 -1.73 2.01 o
5 3 19 0.26 1.39 2.62 o
-1 4 19 1.33 1.74 1.88 o
0 4 19 1.08 1.83 1.94 o
1 4 19 0.93 -1.99 1.99 o
2 4 19 1.35 0.84 1.72 o
3 4 19 1.02 0.13 1.64 o
4 4 19 1.90 1.11 1.80 o
5 4 19 0.05 0.03 2.47 o
-1 5 19 0.08 0.02 1.96 o
0 5 19 1.41 1.98 1.85 o
1 5 19 0.38 1.42 2.85 o
2 5 19 4.65 5.59 1.79 o
3 5 19 1.55 1.59 1.79 o
4 5 19 3.27 4.84 2.19 o
5 5 19 0.10 1.26 2.27 o
0 6 19 0.86 -1.28 1.95 o
1 6 19 0.03 3.91 1.85 o
2 6 19 1.45 -1.04 1.93 o
3 6 19 4.17 6.48 2.29 o
4 6 19 0.23 0.12 2.46 o
2 7 19 0.06 2.29 1.95 o
3 7 19 1.73 2.32 2.16 o
1 1 20 0.85 8.71 3.66 o
1 2 20 3.39 -2.23 4.79 o
