#------------------------------------------------------------------------------
#$Date: 2022-01-04 04:06:19 +0200 (Tue, 04 Jan 2022) $
#$Revision: 271776 $
#$URL: file:///home/coder/svn-repositories/cod/cif/1/56/58/1565896.cif $
#------------------------------------------------------------------------------
#
# This file is available in the Crystallography Open Database (COD),
# http://www.crystallography.net/
#
# All data on this site have been placed in the public domain by the
# contributors.
#
data_1565896
loop_
_publ_author_name
'Kshirsagar, Anuraj S.'
'Arfin, Habibul'
'Banerjee, Srijita'
'Mondal, Barnali'
'Nag, Angshuman'
_publ_section_title
;
 Colloidal Sb3+-Doped Cs2InCl5&#x00B7;H2O Perovskite Nanocrystals with
 Temperature-Dependent Luminescence
;
_journal_issue                   50
_journal_name_full               'The Journal of Physical Chemistry C'
_journal_page_first              27671
_journal_page_last               27677
_journal_paper_doi               10.1021/acs.jpcc.1c08720
_journal_volume                  125
_journal_year                    2021
_chemical_formula_sum            'Cl5 Cs2 H2 In O'
_chemical_formula_weight         575.91
_space_group_crystal_system      orthorhombic
_space_group_IT_number           62
_space_group_name_Hall           '-P 2ac 2n'
_space_group_name_H-M_alt        'P n m a'
_atom_sites_solution_hydrogens   difmap
_cell_angle_alpha                90
_cell_angle_beta                 90
_cell_angle_gamma                90
_cell_formula_units_Z            4
_cell_length_a                   14.2798(8)
_cell_length_b                   10.3222(6)
_cell_length_c                   7.3243(4)
_cell_measurement_reflns_used    6815
_cell_measurement_temperature    100.(2)
_cell_measurement_theta_max      28.2995
_cell_measurement_theta_min      2.4347
_cell_volume                     1079.59(11)
_computing_cell_refinement       'SAINT V8.38A (Bruker AXS Inc., 2017)'
_computing_data_reduction        'SAINT V8.38A (Bruker AXS Inc., 2017)'
_computing_molecular_graphics    'shelXle (C.B. Huebschle, rev 882)'
_computing_structure_refinement  'SHELXL-2017/1 (Sheldrick, 2017)'
_computing_structure_solution    'SHELXT 2014/5 (Sheldrick, 2014)'
_diffrn_ambient_temperature      100.(2)
_diffrn_detector_area_resol_mean 10.4167
_diffrn_measured_fraction_theta_full 0.996
_diffrn_measured_fraction_theta_max 0.996
_diffrn_radiation_wavelength     0.71073
_diffrn_reflns_av_R_equivalents  0.0286
_diffrn_reflns_av_unetI/netI     0.0199
_diffrn_reflns_limit_h_max       19
_diffrn_reflns_limit_h_min       -16
_diffrn_reflns_limit_k_max       11
_diffrn_reflns_limit_k_min       -13
_diffrn_reflns_limit_l_max       9
_diffrn_reflns_limit_l_min       -9
_diffrn_reflns_number            8910
_diffrn_reflns_theta_full        28.30
_diffrn_reflns_theta_max         28.30
_diffrn_reflns_theta_min         2.85
_exptl_absorpt_coefficient_mu    10.009
_exptl_absorpt_correction_type   multi-scan
_exptl_absorpt_process_details
;
SADABS-2016/2 - Bruker AXS area detector scaling and absorption correction
;
_exptl_crystal_density_diffrn    3.543
_exptl_crystal_density_method    'not measured'
_exptl_crystal_F_000             1016
_refine_diff_density_max         0.944
_refine_diff_density_min         -4.605
_refine_ls_extinction_method     none
_refine_ls_goodness_of_fit_ref   0.790
_refine_ls_hydrogen_treatment    refall
_refine_ls_matrix_type           full
_refine_ls_number_parameters     53
_refine_ls_number_reflns         1412
_refine_ls_number_restraints     0
_refine_ls_restrained_S_all      0.790
_refine_ls_R_factor_all          0.0255
_refine_ls_R_factor_gt           0.0239
_refine_ls_shift/su_max          0.001
_refine_ls_shift/su_mean         0.000
_refine_ls_structure_factor_coef Fsqd
_refine_ls_weighting_details
'w=1/[\s^2^(Fo^2^)+(0.1000P)^2^] where P=(Fo^2^+2Fc^2^)/3'
_refine_ls_weighting_scheme      calc
_refine_ls_wR_factor_gt          0.0845
_refine_ls_wR_factor_ref         0.0875
_reflns_number_gt                1343
_reflns_number_total             1412
_reflns_threshold_expression     'I > 2\s(I)'
_cod_data_source_file            jp1c08720_si_002.cif
_cod_data_source_block           CIC
_cod_depositor_comments
;
The following automatic conversions were performed:

data item '_exptl_absorpt_correction_type' value 'Multi-Scan' was
changed to 'multi-scan' in accordance with the
/home/data/users/saulius/crontab/automatic-downloads/current/ACS/lib/dictionaries/cif_core.dic
dictionary named 'cif_core.dic' version 2.4.2 last updated on
2011-04-26.

Automatic conversion script
Id: cif_fix_values 7556 2019-12-06 15:28:31Z antanas 
;
_cod_original_formula_sum        'Cl5 H2 Cs2 In O'
_cod_database_code               1565896
_shelx_res_file
;

TITL CIC_0ma_a.res in Pnma
    CIC_0ma_a.res
    created by SHELXL-2017/1 at 18:27:17 on 06-Feb-2021
REM Old TITL CIC_0ma in Pnma
REM SHELXT solution in Pnma
REM R1 0.043,  Rweak 0.001,  Alpha 0.013,  Orientation as input
REM Formula found by SHELXT:  Cl5 Cs2 In O
CELL  0.71073  14.2798  10.3222   7.3243   90.000   90.000   90.000
ZERR    4.000   0.0008   0.0006   0.0004    0.000    0.000    0.000
LATT  1
SYMM 1/2-X, -Y, 1/2+Z
SYMM -X, 1/2+Y, -Z
SYMM 1/2+X, 1/2-Y, 1/2-Z
SFAC H CL CS IN O
UNIT 8 20 8 4 4
ACTA
TEMP -173
L.S. 10
BOND $H
LIST 6
FMAP 2
PLAN 20
WGHT    0.100000
FVAR       0.21915
CS01  3    0.642280    0.497548    0.163797    11.00000    0.00787    0.00835 =
         0.00929   -0.00073   -0.00073    0.00047
H1    1    0.471650    0.317160    0.447787    11.00000    0.04454
IN02  4    0.616391    0.250000    0.690536    10.50000    0.00582    0.00534 =
         0.00690    0.00000   -0.00068    0.00000
CL03  2    0.602918    0.007637    0.671782    11.00000    0.00981    0.00698 =
         0.01137   -0.00068   -0.00162   -0.00051
CL04  2    0.749894    0.250000    0.908776    10.50000    0.00651    0.00842 =
         0.00831    0.00000   -0.00057    0.00000
CL05  2    0.505147    0.250000    0.950048    10.50000    0.00790    0.00767 =
         0.01268    0.00000    0.00266    0.00000
CL06  2    0.727938    0.250000    0.433737    10.50000    0.01263    0.00990 =
         0.00665    0.00000    0.00273    0.00000
O007  5    0.496010    0.250000    0.487404    10.50000    0.01516    0.00880 =
         0.01692    0.00000   -0.00747    0.00000
HKLF 4




REM  CIC_0ma_a.res in Pnma
REM R1 =  0.0239 for    1343 Fo > 4sig(Fo)  and  0.0255 for all    1412 data
REM     53 parameters refined using      0 restraints

END

WGHT      0.0238      0.4913

REM Highest difference peak  0.944,  deepest hole -4.605,  1-sigma level  0.406
Q1    1   0.6008  0.2124  0.2968  11.00000  0.05    0.94
Q2    1   0.3865  0.2822  0.6085  11.00000  0.05    0.77
Q3    1   0.4113  0.2500  0.7198  10.50000  0.05    0.76
Q4    1   0.8385  0.2500  0.3202  10.50000  0.05    0.76
Q5    1   0.6183  0.2061  0.4272  11.00000  0.05    0.74
Q6    1   0.7105 -0.0216  0.7714  11.00000  0.05    0.71
Q7    1   0.6300  0.2066  1.0732  11.00000  0.05    0.70
Q8    1   0.6772  0.0278  0.8537  11.00000  0.05    0.69
Q9    1   0.6532  0.2216  0.4063  11.00000  0.05    0.68
Q10   1   0.6622 -0.0428  0.8746  11.00000  0.05    0.66
Q11   1   0.3837  0.2098  0.9046  11.00000  0.05    0.65
Q12   1   0.6651  0.2094  1.0592  11.00000  0.05    0.65
Q13   1   0.4894 -0.0374  0.6986  11.00000  0.05    0.64
Q14   1   0.8383  0.2020  0.8370  11.00000  0.05    0.64
Q15   1   0.4018  0.2500  0.9341  10.50000  0.05    0.64
Q16   1   0.5706 -0.0409  0.8752  11.00000  0.05    0.63
Q17   1   0.6636  0.2008  0.9095  11.00000  0.05    0.63
Q18   1   0.6705  0.2042  0.2830  11.00000  0.05    0.63
Q19   1   0.8309  0.2088  0.5559  11.00000  0.05    0.62
Q20   1   0.8762  0.2076  0.4027  11.00000  0.05    0.61
;
_shelx_res_checksum              88899
_shelx_hkl_file
;
   0   0   1    1.00    0.20
   0   0  -1    0.50    0.20
   0   0   3    1.90    0.70
   0   0  -3    2.20    0.60
   0   0  -3    0.60    0.80
   0   0  -4 1621.84   51.79
   0   0   4 1515.55   51.19
   0   0  -4 1659.13   51.69
   0   0   6 3499.05  119.49
   0   0  -6 3926.31  120.39
   0   0   6 3867.31  119.49
   0   0   7    2.10    1.20
   0   0   7    0.90    1.10
   0   0  -7    1.20    3.00
   0   0   8 2078.39   69.69
   0   0   8 2306.77   69.99
   0   0  -8 2137.19   71.29
   0   0  -9    0.90    2.70
   0   1   0    0.10    0.10
   0   1  -2    0.60    0.30
   0  -1   2    1.00    0.20
   0  -1  -2    0.90    0.60
   0   1   2    0.70    0.40
   0  -1  -2    0.70    0.80
   0   1  -3   52.19    2.30
   0  -1   3   48.80    2.20
   0   1  -3   55.19    2.50
   0  -1  -3   52.99    2.70
   0  -1   3   53.59    2.10
   0   1  -3   52.59    2.60
   0  -1  -4   -0.10    0.70
   0  -1   4    1.70    0.70
   0   1  -4    4.50    1.10
   0   1   4   -0.10    0.60
   0  -1   4    0.90    0.40
   0   1   4    0.50    0.60
   0  -1  -4    0.70    1.10
   0  -1   5   39.20    2.00
   0  -1  -5   39.00    3.00
   0   1   5   38.50    2.40
   0  -1   5   34.10    2.50
   0   1  -5   33.90    2.70
   0   1   5   36.10    2.40
   0   1   6    1.10    1.00
   0  -1   6    2.40    0.90
   0  -1  -6    2.50    1.60
   0  -1   6    3.10    1.20
   0   1   6    1.90    1.10
   0   1  -6    1.10    1.40
   0   1   7  204.08   10.10
   0   1   7  220.08    8.50
   0  -1   7  220.88    9.10
   0  -1  -7  217.38    9.70
   0   1  -7  215.08    9.20
   0   1   8    0.50    1.60
   0  -1  -8    1.20    2.20
   0   1   8    3.60    1.60
   0   1  -8    1.50    2.30
   0   1  -9  254.07   11.60
   0  -1  -9  251.97   11.80
   0  -2   0  695.33   22.90
   0   2   0  740.63   23.00
   0  -2  -1    4.00    0.70
   0  -2  -1    2.10    0.90
   0   2  -1    2.90    0.30
   0   2   1    2.20    0.50
   0  -2  -2 2505.35   80.09
   0   2   3    2.10    0.70
   0  -2  -3   -1.30    1.00
   0   2  -3    0.50    0.70
   0   2  -3    0.80    0.50
   0  -2  -3    0.40    0.60
   0   2  -4 1782.32   56.69
   0  -2  -4 1806.32   57.99
   0   2   4 1764.92   57.09
   0  -2  -4 1748.53   57.59
   0   2  -5    5.80    1.40
   0   2   5    2.20    1.10
   0  -2  -5    5.90    1.80
   0  -2  -5    1.10    1.20
   0   2   6 3242.88  104.99
   0  -2  -6 3518.05  107.79
   0   2  -6 3360.86  105.09
   0   2   6 3045.90  105.09
   0   2  -7    7.10    2.10
   0  -2  -7    2.40    1.90
   0   2   7    5.60    1.60
   0   2   7   -0.20    1.40
   0   2   8   24.70    3.30
   0  -2  -8   27.50    4.20
   0   2   8   22.90    3.10
   0  -2  -9    3.20    2.70
   0   2   9    5.00    2.40
   0   2  -9   -1.80    3.00
   0  -3   0    0.80    0.40
   0  -3   0    1.40    0.80
   0   3   0    0.20    0.30
   0   3   1 1369.66   44.50
   0  -3  -1 1358.06   44.50
   0  -3  -1 1442.56   45.20
   0  -3  -2    1.00    1.10
   0   3   2    0.30    0.50
   0   3  -2    0.70    0.30
   0  -3  -2    1.30    0.60
   0   3  -3   40.70    2.00
   0  -3  -3   44.50    2.70
   0  -3  -3   45.10    3.30
   0   3   3   45.90    2.60
   0  -3  -4    1.20    0.90
   0  -3  -4    0.40    1.50
   0   3  -4    2.30    0.80
   0   3   4   -0.10    0.70
   0  -3  -5   38.90    3.20
   0  -3  -5   39.70    3.70
   0   3   5   38.10    2.90
   0  -3  -6    1.30    1.90
   0  -3  -6   -1.00    1.40
   0   3   6    0.20    1.10
   0   3   7  223.08    9.30
   0  -3  -7  215.18   10.30
   0   3   7  206.78    9.00
   0  -3  -8    2.50    2.50
   0   3   8    0.60    1.80
   0  -3  -9  222.48   11.50
   0   3   9  230.28   11.40
   0  -4   1    2.30    1.00
   0   4  -1    4.80    0.70
   0  -4  -1    3.20    0.70
   0  -4  -1    3.30    1.30
   0  -4  -2 1882.81   59.49
   0  -4  -2 1721.73   58.49
   0   4   2 1861.31   58.49
   0   4  -3    0.90    0.50
   0   4   3    0.50    0.70
   0  -4  -3    1.40    1.60
   0   4   4 1314.67   42.80
   0  -4  -4 1343.27   43.40
   0   4  -4 1226.78   42.00
   0  -4   4 1330.47   41.90
   0   4   5    0.00    1.10
   0  -4  -5    1.60    1.40
   0  -4   5    4.80    1.10
   0   4  -5    2.30    1.80
   0  -4  -6 3346.47  107.39
   0   4   6 3265.57  105.89
   0  -4   6 3391.76  104.89
   0   4  -6 3113.49  105.09
   0  -4  -6 3383.06  107.19
   0  -4   7    3.10    1.60
   0  -4  -7    3.10    2.50
   0   4   7    6.00    1.80
   0   4   8 1628.34   59.89
   0  -4  -8 1898.01   60.19
   0  -4  -9    5.00    3.30
   0   4   9   -2.30    2.80
   0  -5   0    2.00    1.30
   0   5   0   -0.70    0.50
   0  -5   0    0.70    0.50
   0  -5  -1  974.10   31.90
   0   5   1  965.20   31.90
   0  -5  -1  981.50   32.80
   0   5  -1  953.20   31.40
   0  -5   1  990.40   32.10
   0   5  -2    0.90    0.50
   0  -5  -2    2.30    1.50
   0  -5   2    0.40    1.00
   0  -5  -2   -0.40    0.60
   0   5   2    0.80    0.80
   0  -5  -3   42.30    3.80
   0  -5   3   34.10    2.50
   0  -5  -3   35.10    2.70
   0   5   3   38.90    2.70
   0   5  -3   40.10    2.00
   0  -5   4    3.90    1.20
   0  -5  -4   -1.20    1.00
   0   5   4    0.00    1.00
   0  -5  -4    1.20    1.90
   0  -5  -5   16.40    3.20
   0   5   5   13.40    2.10
   0  -5  -5   15.60    2.60
   0  -5   5   17.30    1.80
   0   5  -6   -0.40    1.30
   0  -5   6    2.70    1.40
   0  -5  -6    4.00    1.90
   0  -5  -6    0.50    2.20
   0  -5  -7  169.28    9.50
   0   5   8   -0.20    2.30
   0  -5  -8    0.20    2.80
   0  -5  -9  213.68   12.20
   0   5   9  204.98   10.50
   0  -6   0  525.95   17.60
   0   6   0  528.25   17.70
   0  -6   0  508.15   18.60
   0  -6   1    1.90    1.40
   0   6  -1    1.00    0.60
   0  -6  -1    1.30    1.40
   0   6   1    0.20    0.70
   0  -6   2 1065.59   36.00
   0   6  -2 1061.99   35.30
   0  -6  -2 1105.49   36.40
   0  -6  -2 1125.59   37.50
   0   6   2 1116.89   36.20
   0  -6  -3    0.40    1.00
   0   6  -3    1.00    0.70
   0   6   3   -0.20    1.00
   0  -6  -3   -0.10    1.80
   0  -6   3    1.90    1.30
   0  -6  -4 1186.58   39.10
   0  -6  -4 1158.38   39.90
   0   6   4 1128.29   38.40
   0  -6   4 1111.19   37.30
   0   6  -4 1160.58   37.20
   0  -6  -5   -1.60    1.70
   0  -6  -5   -2.60    2.00
   0  -6   5    1.80    1.40
   0  -6  -6 2446.96   81.09
   0   6  -6 2420.16   78.29
   0   6  -7   -1.30    2.00
   0  -6  -7    1.90    2.80
   0  -6  -8   24.90    4.70
   0  -7   0    0.40    0.80
   0  -7   0   -1.20    1.50
   0   7   0    2.80    0.90
   0   7   1  833.92   28.10
   0  -7  -1  832.02   29.40
   0   7  -1  853.51   27.70
   0  -7   1  811.42   28.60
   0  -7  -1  859.01   28.20
   0  -7   2    0.30    1.50
   0  -7  -2    0.30    1.80
   0  -7  -2    0.40    1.10
   0   7   2    1.50    1.30
   0   7  -2    0.60    0.80
   0  -7  -3   21.70    2.80
   0  -7  -3   18.10    3.20
   0   7   3   22.00    2.50
   0  -7   3   20.00    2.70
   0  -7   4    0.60    1.60
   0  -7  -4   -0.90    1.80
   0  -7  -4   -0.40    1.40
   0   7  -4    0.30    1.10
   0   7   4    0.90    1.60
   0   7  -5   31.70    3.00
   0  -7  -5   33.60    4.30
   0  -7  -5   29.30    4.30
   0   7  -6   -0.10    1.80
   0  -7  -6   -1.40    2.30
   0  -7  -7  163.28    9.90
   0  -7  -8   -0.50    3.70
   0  -8   0 9999.00  316.67
   0  -8  -1   -0.90    1.80
   0  -8   1    0.10    1.70
   0  -8  -1    2.00    1.10
   0   8  -1    2.20    1.10
   0  -8   2 1116.29   37.30
   0   8  -2 1122.29   36.50
   0  -8  -2 1111.69   43.10
   0   8   2 1111.79   37.30
   0  -8  -2 1112.09   37.60
   0   8   3    1.20    1.70
   0  -8  -3   -1.30    2.30
   0   8  -3    1.30    1.10
   0  -8   3    2.40    1.80
   0  -8  -4  846.82   29.30
   0   8  -4  820.32   27.10
   0  -8   4  792.22   27.20
   0  -8  -4  807.32   30.20
   0  -8  -5    1.60    2.50
   0   8  -5    0.50    1.60
   0  -8  -6 2132.49   72.39
   0   8  -6 2128.09   69.29
   0  -8  -7   -0.30    3.30
   0   9   0    2.10    1.40
   0  -9   0   -1.90    2.00
   0  -9   1  456.75   17.70
   0   9  -1  470.35   16.60
   0   9   1  471.75   17.00
   0  -9  -2    0.40    2.50
   0   9  -2    0.60    1.20
   0  -9   2   -1.20    1.90
   0   9  -3   24.10    2.50
   0  -9   3   16.80    2.60
   0  -9  -3   20.50    3.80
   0   9  -4    1.80    1.50
   0  -9  -4    3.30    2.50
   0   9  -5    6.10    2.30
   0  -9  -5    4.90    3.10
   0  -9  -6   -1.40    2.90
   0  -9  -7  121.19   10.30
   0  10   0  258.57   10.00
   0 -10   0  195.78   12.90
   0 -10  -1    0.60    2.60
   0 -10   1   -0.50    2.30
   0  10  -1    0.60    1.50
   0 -10   2  546.65   20.70
   0 -10  -2  581.54   22.30
   0  10  -2  562.54   19.80
   0 -10  -3    0.70    2.60
   0  10  -3   -1.00    1.60
   0 -10   3    1.80    2.40
   0 -10  -4  620.14   24.90
   0  10  -4  625.54   21.70
   0 -10  -5   -1.00    3.00
   0 -10  -6 1412.46   50.89
   0 -11   0   -1.00    2.70
   0 -11  -1  405.86   17.20
   0 -11   1  401.76   17.70
   0 -11  -2    0.40    2.90
   0 -11   2    0.70    2.60
   0  11  -2    0.20    2.20
   0 -11  -3    5.70    2.90
   0  11  -3   11.00    2.50
   0 -11  -4    6.00    3.50
   0 -11  -5   17.70    4.80
   0 -12   0 5598.74  180.18
   0 -12  -1    0.20    3.00
   0 -12   1   -0.40    3.10
   0 -12   2  533.35   25.10
   0 -12  -2  531.05   22.00
   0 -12  -3   -1.10    3.30
   0 -12  -4  401.06   18.80
   0 -13   0   -4.50    3.20
   0 -13   1  242.88   12.20
   0 -13  -1  244.38   12.80
   0 -13   2   -2.70    3.70
   0 -13  -2   -3.40    3.30
   0 -13  -3    7.80    4.10
   1   0   1  122.79    4.30
   1   0  -1  122.39    4.10
  -1   0   1  126.29    4.10
  -1   0  -1  125.39    4.30
  -1   0  -2 3534.55  111.59
  -1   0  -3   54.89    2.80
  -1   0   3   53.59    2.30
   1   0   3   55.89    2.60
   1   0  -3   55.69    2.90
   1   0  -3   49.70    2.70
  -1   0   3   54.79    2.40
   1   0   3   54.19    2.60
   1   0  -4 5980.80  188.88
  -1   0  -4 5962.80  188.78
   1   0   5  147.99    6.20
  -1   0   5  155.78    5.80
   1   0  -5  148.59    6.50
  -1   0  -5  167.98    6.80
  -1   0   5  151.88    6.00
   1   0   5  152.38    6.40
   1   0  -5  157.68    6.80
   1   0   6   45.30    3.00
   1   0   6   50.29    3.00
  -1   0   6   48.50    2.90
   1   0  -6   53.09    4.00
  -1   0   6   51.79    2.70
   1   0  -6   51.89    3.80
   1   0   7  336.77   11.90
   1   0  -7  339.67   13.00
  -1   0   7  305.47   11.60
   1   0   7  300.67   12.10
  -1   0  -7  351.76   13.10
   1   0   8 1285.97   42.90
   1   0  -8 1312.47   44.10
  -1   0   8 1282.87   42.10
  -1   0  -8 1343.47   44.20
  -1   0  -9  262.17   12.00
   1   0  -9  258.07   11.90
   1   1   1   87.69    3.40
   1  -1  -1   91.19    3.30
  -1   1  -1   90.69    3.20
   1  -1   1   90.59    3.10
  -1   1   1   87.89    3.20
  -1   1  -2   97.69    3.80
   1  -1  -2   97.09    3.80
   1   1   2   96.29    3.90
   1  -1  -2  101.09    4.40
   1   1  -2  103.19    3.50
  -1  -1  -2  102.19    4.20
   1  -1   2   96.29    3.70
   1   1  -2  103.29    3.50
  -1   1   2  104.59    3.80
   1  -1   2  100.09    3.80
   1   1   3  238.98    8.20
  -1   1  -3  222.68    8.00
  -1  -1   3  210.18    7.40
  -1   1  -3  230.08    8.00
  -1  -1   3  224.68    7.30
   1  -1  -3  242.98    8.30
   1  -1  -3  227.68    8.70
   1   1  -3  220.68    7.90
   1  -1   3  234.78    7.80
  -1   1   3  223.28    7.90
   1   1  -3  220.48    7.80
   1  -1   3  205.28    7.80
  -1  -1  -3  231.28    8.50
  -1  -1   4  976.20   33.60
   1  -1  -4 1122.49   35.30
  -1  -1   4 1051.99   33.50
   1   1   4 1057.29   34.60
   1  -1  -4 1047.90   34.70
  -1   1  -4 1086.09   34.40
   1   1   4 1020.80   34.40
  -1   1   4 1066.29   34.20
   1   1  -4 1093.39   34.30
   1   1  -4 1058.19   34.30
   1  -1   4 1005.70   34.10
   1  -1   4 1032.30   34.00
  -1  -1  -4 1115.99   35.00
  -1  -1   5  385.26   12.40
   1  -1  -5  380.56   13.90
  -1   1  -5  396.36   13.50
   1  -1  -5  385.26   14.20
  -1  -1   5  352.06   12.50
   1   1   5  387.66   13.40
   1   1   5  361.86   13.40
   1   1  -5  384.06   13.40
   1  -1   5  350.16   13.00
   1  -1   5  383.56   12.90
  -1  -1  -5  396.76   14.10
  -1   1   5  359.96   13.20
  -1   1   5  378.76   13.10
   1   1  -5  388.76   13.60
   1  -1  -6   32.10    3.00
  -1   1  -6   35.70    3.20
  -1  -1   6   34.10    1.70
  -1  -1   6   34.20    1.90
   1   1   6   30.60    2.70
   1  -1  -6   35.10    3.60
   1   1   6   27.70    2.50
  -1   1   6   33.60    2.40
  -1   1   6   34.10    2.60
   1  -1   6   32.20    2.20
   1  -1   6   39.90    2.40
   1   1  -6   35.60    3.20
  -1  -1  -6   38.70    3.50
  -1   1  -7   73.09    4.90
   1  -1  -7   75.19    5.30
   1   1   7   75.09    4.50
   1   1   7   77.79    4.20
  -1   1   7   74.69    4.20
   1  -1   7   77.39    3.70
  -1  -1  -7   71.79    5.10
  -1   1   7   70.89    3.90
   1  -1  -8   20.10    3.30
  -1   1  -8   27.70    4.10
   1   1   8   17.80    2.80
   1   1   8   20.30    3.10
   1  -1   8   24.20    2.10
  -1   1   8   19.30    2.60
   1   1  -8   26.30    3.50
  -1  -1  -8   26.60    3.90
  -1   1   8   16.60    2.90
   1   1   9   60.79    4.90
   1  -1  -9   62.09    5.90
  -1   1  -9   63.19    6.00
   1   1  -9   56.89    5.90
  -1  -1  -9   64.39    5.90
   1  -2  -1  541.75   17.50
  -1   2  -1  524.75   17.20
   1   2   1  525.45   17.60
   1  -2  -1  545.85   18.10
   1  -2   1  515.85   17.20
  -1   2   1  545.75   17.50
  -1  -2  -1  553.74   17.90
   1  -2  -2 3962.90  128.69
  -1  -2  -2 4138.89  128.49
   1   2   3 2153.38   74.39
   1  -2  -3 2323.57   73.99
  -1   2  -3 2030.60   73.49
  -1   2  -3 2207.78   73.49
   1  -2  -3 2564.24   74.89
  -1  -2  -3 2331.27   74.29
  -1   2   3 2376.16   73.79
  -1  -2  -3 2546.25   74.59
   1  -2  -4  263.07   10.60
   1  -2  -4  264.67    9.90
  -1   2  -4  260.87    9.50
   1   2   4  268.07    9.80
  -1   2  -4  265.67    9.50
   1   2  -4  256.87    9.70
   1  -2   4  256.77    8.90
   1  -2   4  251.27    8.90
   1   2  -4  274.07    9.20
   1   2  -4  274.47    9.10
  -1   2   4  261.87    9.50
  -1  -2  -4  262.37   10.30
  -1   2  -5  733.53   24.30
  -1   2  -5  760.22   24.50
   1  -2  -5  717.53   25.00
   1  -2  -5  736.13   25.60
   1   2   5  739.03   24.60
   1   2   5  737.83   24.60
  -1   2   5  732.43   24.30
   1  -2   5  664.63   23.90
   1  -2   5  712.33   23.50
   1   2  -5  733.83   24.10
   1  -2  -6  151.08    7.70
   1   2   6  146.59    6.60
  -1   2  -6  148.89    6.70
   1   2   6  151.08    6.70
   1  -2  -6  154.88    7.30
  -1   2   6  153.78    6.40
  -1  -2  -6  124.89    8.50
   1   2  -6  156.28    6.60
  -1   2   6  147.99    6.50
   1  -2   6  149.79    5.40
   1   2   7  111.89    5.60
  -1   2  -7  106.59    6.00
   1  -2  -7  112.69    6.70
   1   2   7  110.69    5.90
   1  -2  -7  102.59    6.50
  -1   2   7  113.09    5.60
   1  -2   7  109.49    4.00
  -1   2   7  115.59    5.40
  -1  -2  -7  109.59    6.50
   1   2  -7  112.99    6.00
   1  -2   7  103.29    3.90
   1   2   8  762.72   26.50
  -1   2  -8  751.12   26.60
   1  -2  -8  764.72   27.50
   1   2   8  725.73   25.80
   1   2  -8  751.92   26.30
  -1  -2  -8  743.43   27.20
  -1   2   8  759.32   26.10
  -1   2   8  750.42   25.60
   1  -2  -9  170.38    9.50
  -1   2  -9  150.98    9.10
   1   2   9  172.28    8.60
   1   2  -9  153.88    9.00
  -1   2   9  201.48    8.50
  -1  -2  -9  165.08    9.40
   1  -3   0    0.60    0.90
   1   3   0    0.50    0.30
  -1   3   0    2.10    0.50
   1  -3   0    1.00    0.40
   1   3   1   88.19    3.60
   1  -3  -1   82.99    4.20
  -1   3  -1   90.19    3.30
   1  -3   1   90.79    4.20
  -1   3   1   84.29    3.50
  -1  -3  -1   85.09    3.70
   1  -3   1   82.79    3.10
   1   3  -1   86.39    3.00
  -1  -3  -1   82.69    4.00
   1  -3  -2   25.00    1.70
  -1   3  -2   25.40    1.40
   1  -3  -2   26.30    2.70
   1   3   2   24.60    1.70
   1  -3   2   27.20    1.80
   1  -3   2   24.80    1.10
  -1   3   2   26.30    1.70
   1   3  -2   26.80    0.90
  -1  -3  -2   25.10    2.20
  -1  -3  -2   24.10    1.80
   1  -3  -3  233.28    9.70
  -1   3  -3  239.98    8.30
   1  -3  -3  231.38    8.80
   1   3   3  232.28    8.80
   1   3  -3  232.98    7.80
  -1  -3  -3  247.58    9.50
   1  -3   3  221.08    7.60
   1  -3   3  228.88    8.30
   1  -3   3  231.88    7.60
  -1   3   3  239.28    8.70
  -1  -3  -3  247.18    9.20
  -1   3  -4  707.13   23.30
   1  -3  -4  704.93   24.80
   1   3   4  676.43   23.70
   1  -3  -4  694.63   23.90
  -1   3   4  683.93   23.50
   1   3  -4  676.13   22.80
  -1  -3  -4  748.13   24.70
   1  -3   4  719.93   23.10
  -1  -3  -4  698.23   24.30
  -1   3  -5  380.66   13.00
   1   3   5  361.56   13.30
   1  -3  -5  356.16   14.40
   1  -3  -5  351.46   13.60
  -1  -3  -5  365.66   14.20
  -1   3   5  361.16   13.10
   1   3  -5  362.86   12.50
   1   3  -5  350.66   12.50
   1  -3  -6   27.00    3.10
   1   3   6   26.60    2.70
   1   3   6   27.40    2.70
   1  -3  -6   28.60    3.90
   1   3  -6   21.60    3.00
  -1   3   6   29.50    2.60
  -1  -3  -6   29.50    3.40
   1   3   7   60.59    4.20
   1  -3  -7   61.49    5.40
   1   3   7   49.70    4.10
   1  -3  -7   60.69    5.40
  -1  -3  -7   62.69    5.10
  -1   3   7   58.99    4.10
  -1   3   7   54.79    3.80
   1   3  -7   55.99    4.50
   1   3   8   48.80    4.60
   1  -3  -8   46.80    5.40
  -1   3   8   35.50    3.90
  -1   3   8   35.10    4.20
  -1  -3  -8   45.80    5.00
   1  -3  -9   66.59    6.70
  -1   3   9   69.89    5.70
  -1  -3  -9   69.49    6.40
  -1  -4   0    1.60    1.00
   1  -4  -1  120.79    5.70
  -1   4  -1  128.69    4.40
   1  -4  -1  113.29    4.70
   1   4   1  120.09    4.80
  -1  -4  -1  114.19    5.20
  -1   4   1  115.89    4.70
   1   4  -1  116.29    4.20
   1  -4   1  105.19    4.90
  -1  -4  -1  114.39    4.80
   1  -4   1  106.19    4.20
   1  -4  -2 2818.92   90.09
   1  -4  -2 2939.51   91.19
   1   4   2 2838.12   90.09
  -1   4   2 2725.73   89.89
   1  -4   2 2656.53   89.69
  -1  -4  -2 2974.60   90.89
  -1  -4  -2 2825.82   90.29
   1   4   3   42.30    2.90
   1  -4  -3   43.10    2.80
   1  -4  -3   45.90    3.90
  -1   4  -3   53.69    2.40
  -1   4   3   47.60    2.80
   1   4  -3   45.00    1.90
   1  -4   3   44.40    2.50
  -1  -4  -3   46.90    3.80
  -1  -4  -3   49.40    3.20
   1  -4  -4 4957.40  155.78
   1   4   4 4922.51  155.58
   1  -4   4 4907.11  154.78
  -1   4   4 4993.40  155.38
  -1  -4  -4 5063.29  156.28
  -1  -4  -4 4529.15  157.48
  -1   4  -5  118.99    5.50
   1  -4  -5  121.09    6.20
  -1  -4   5  117.39    4.80
   1   4   5  120.49    5.80
  -1  -4  -5  116.49    6.70
   1  -4   5  120.99    5.20
   1   4  -5  129.19    5.00
  -1   4   5  125.09    5.70
   1   4   6   39.90    3.70
   1  -4  -6   39.90    4.40
   1  -4  -6   41.30    3.90
  -1  -4   6   34.20    2.60
   1  -4   6   47.00    3.10
  -1  -4  -6   43.20    4.50
  -1   4   6   34.20    3.30
  -1  -4   7  287.97   10.60
   1  -4  -7  276.27   13.10
   1  -4  -7  282.37   13.10
   1   4   7  287.57   11.80
   1  -4   7  294.37   11.10
  -1   4   7  309.77   12.60
  -1  -4  -7  282.07   12.70
   1   4   8 1177.58   39.90
   1  -4  -8 1142.29   41.20
  -1   4   8 1145.49   40.60
  -1  -4  -8 1127.89   40.80
   1  -4   8 1222.58   38.90
   1  -4  -9  226.88   12.10
   1   4   9  239.08   11.10
  -1  -4  -9  228.28   12.00
  -1  -5   0   -0.60    1.10
  -1   5   0    1.00    0.60
   1  -5   0    0.80    0.60
   1   5   0    0.90    0.60
   1  -5   0    0.90    1.30
   1  -5  -1   48.60    2.60
   1   5   1   47.40    2.70
  -1  -5   1   46.60    2.90
   1  -5  -1   53.29    3.90
  -1   5  -1   50.99    2.40
   1  -5   1   45.60    3.20
  -1  -5  -1   54.19    2.80
   1  -5   1   44.80    2.30
  -1  -5  -1   46.40    3.30
   1   5  -1   52.09    2.30
   1   5   2  200.38    7.90
   1  -5  -2  201.18    9.00
   1  -5  -2  207.18    7.90
  -1  -5  -2  216.98    8.80
   1  -5   2  191.78    7.80
   1  -5   2  193.08    6.70
   1   5  -2  204.08    6.90
  -1  -5  -2  196.88    8.00
  -1   5   2  199.18    7.80
   1  -5  -3  133.49    7.30
   1  -5  -3  140.09    6.20
  -1   5  -3  142.69    5.30
   1   5   3  143.79    6.10
   1  -5   3  133.89    5.70
  -1  -5  -3  136.39    6.40
  -1   5   3  130.19    5.90
  -1  -5  -3  129.79    6.80
   1   5  -3  148.39    4.90
  -1   5  -4  907.01   31.30
   1  -5  -4  988.50   33.90
   1  -5  -4  990.80   32.60
   1   5   4  937.31   32.20
   1   5  -4  954.60   30.90
  -1  -5  -4  960.60   33.40
  -1  -5  -4  947.21   32.80
   1  -5   4  967.80   31.50
  -1   5   4  978.10   32.10
   1  -5  -5  267.57   12.30
  -1   5  -5  273.27   10.50
   1   5   5  278.37   11.20
   1  -5  -5  283.27   11.70
  -1   5   5  282.47   11.00
   1  -5   5  297.47   10.40
  -1  -5  -5  282.17   12.20
   1   5  -5  266.87   10.00
   1  -5  -6   31.40    4.00
  -1   5  -6   35.40    3.40
   1  -5  -6   35.40    4.70
   1   5  -6   32.90    2.90
   1  -5   6   35.10    3.10
  -1  -5  -6   33.80    4.20
   1  -5  -7   67.79    5.90
  -1   5  -7   69.19    4.80
   1  -5  -7   74.19    6.00
   1  -5   7   72.09    4.50
  -1  -5  -7   70.59    6.00
   1   5   8    2.80    2.20
   1  -5  -8    9.20    3.20
  -1   5   8    2.80    2.30
  -1  -5  -8    2.60    2.70
   1   5   9   42.10    5.80
   1  -5  -9   36.40    5.70
  -1  -5  -9   37.50    5.90
  -1   5   9   41.90    5.80
   1   6   0    1.30    0.80
   1  -6   0    1.90    1.50
   1  -6   0    0.70    0.60
  -1  -6   0    1.00    1.40
  -1   6   0    0.30    0.70
   1  -6  -1  342.87   12.20
  -1  -6   1  334.37   12.30
  -1   6  -1  322.97   12.20
   1   6   1  343.67   12.20
   1  -6  -1  327.17   13.30
  -1  -6  -1  330.67   13.00
   1  -6   1  331.97   12.70
  -1   6   1  357.76   12.20
   1   6  -1  345.37   11.70
   1  -6   1  339.47   11.60
  -1  -6   2 2221.08   70.39
   1   6   2 2132.89   70.89
   1  -6  -2 2187.58   70.99
   1  -6  -2 2255.47   72.49
  -1   6  -2 2185.58   70.19
   1  -6   2 2251.67   71.09
  -1  -6  -2 2289.17   72.09
  -1  -6  -2 2175.18   71.19
  -1   6   2 2196.78   70.89
   1   6  -2 2134.19   69.89
  -1   6  -3 1732.13   55.89
   1  -6  -3 1723.43   56.99
   1   6   3 1698.53   56.79
   1  -6  -3 1809.32   58.59
  -1  -6  -3 1791.72   58.09
   1  -6   3 1726.93   56.39
  -1  -6  -3 1749.92   57.29
   1   6  -3 1726.23   55.49
  -1   6   3 1746.03   56.79
   1  -6  -4  168.78    7.80
  -1   6  -4  171.08    6.80
   1  -6  -4  182.98    9.20
   1   6   4  165.58    7.60
   1   6  -4  181.98    6.40
  -1   6   4  168.08    7.50
  -1  -6  -4  174.88    8.70
   1  -6   4  168.08    7.10
   1  -6  -5  518.55   20.50
  -1   6  -5  520.55   18.10
   1  -6  -5  529.55   19.50
  -1   6   5  535.25   19.70
   1   6  -5  483.85   17.50
   1  -6   5  511.95   17.90
  -1  -6  -5  513.55   20.10
   1  -6  -6  123.99    7.50
   1  -6  -6  110.19    7.70
  -1   6  -6  113.59    6.10
   1   6  -6  118.39    5.50
   1  -6   6  117.49    5.60
  -1  -6  -6  107.19    7.30
   1  -6  -7   74.49    6.50
  -1   6  -7   82.59    5.70
  -1  -6  -7   82.29    6.80
   1   6  -7   81.39    4.90
   1  -6  -8  538.85   22.50
   1   6   8  563.74   21.00
  -1  -6  -8  532.55   22.10
   1   7   0    1.30    1.00
  -1   7   0    0.50    0.90
   1  -7   0   -2.10    1.70
   1  -7   0    1.00    0.70
  -1  -7   0   -0.20    1.50
   1  -7  -1   55.99    3.40
  -1   7  -1   59.09    3.20
  -1  -7   1   60.29    3.90
   1   7   1   57.39    3.50
   1  -7  -1   45.50    4.30
   1  -7   1   60.79    2.90
   1   7  -1   64.79    3.20
  -1   7   1   58.89    3.40
  -1  -7  -1   61.29    4.50
   1  -7   1   58.39    4.40
   1  -7  -2    2.70    1.10
   1   7   2    2.90    1.30
  -1  -7   2    2.30    1.30
   1  -7  -2    1.70    2.00
   1  -7   2    0.50    1.60
   1   7  -2    4.30    0.90
  -1  -7  -2    1.50    1.80
  -1   7   2    4.50    1.30
  -1   7  -3  176.28    6.70
   1  -7  -3  173.68    7.70
   1   7   3  172.98    7.60
  -1  -7   3  163.08    6.70
   1  -7  -3  162.88    8.90
   1  -7   3  164.18    7.40
  -1   7   3  169.28    7.50
   1   7  -3  179.38    6.40
  -1  -7  -3  164.58    8.60
   1  -7  -4  297.77   12.30
   1  -7  -4  295.27   13.50
  -1   7  -4  298.87   10.80
   1   7  -4  299.37   10.40
  -1  -7  -4  290.47   13.10
  -1   7   4  306.87   12.60
   1  -7   4  285.77   11.20
   1  -7  -5  248.78   12.30
   1  -7  -5  251.47   12.30
  -1   7  -5  250.77    9.80
   1  -7   5  244.38    9.70
  -1  -7  -5  239.78   11.70
   1  -7  -6   17.30    4.00
  -1   7  -6   16.00    2.80
   1  -7  -6   15.60    3.40
   1   7  -6   18.40    2.50
  -1  -7  -6   13.80    3.20
   1  -7  -7   39.00    5.90
  -1  -7  -7   36.20    5.50
   1  -7  -8   67.69    8.10
  -1  -7  -8   62.99    7.20
   1  -8   0    1.20    2.00
   1  -8   0    0.70    0.90
  -1   8   0    2.00    1.20
  -1  -8   0    3.40    1.90
  -1  -8   1   78.39    4.90
   1   8   1   81.99    4.50
  -1   8  -1   87.79    4.30
   1  -8  -1   77.39    5.60
   1  -8  -1   81.69    4.40
   1  -8   1   82.99    3.90
   1  -8   1   81.49    5.50
   1   8  -1   77.59    4.00
  -1   8   1   85.99    4.50
  -1  -8  -1   74.49    6.20
  -1   8  -2 1659.03   52.99
   1  -8  -2 1626.14   53.99
  -1  -8   2 1666.93   53.49
   1  -8  -2 1656.93   55.69
   1   8   2 1596.54   53.79
   1   8  -2 1633.34   52.79
   1  -8   2 1665.63   54.19
  -1   8   2 1618.34   53.79
  -1  -8   3   25.00    2.90
   1  -8  -3   22.20    2.90
  -1   8  -3   26.60    2.40
   1   8   3   25.70    3.60
   1  -8  -3   18.90    3.60
   1  -8   3   25.10    3.10
   1   8  -3   24.80    2.10
  -1  -8  -3   25.60    3.80
   1  -8  -4 3168.98  105.49
  -1   8  -4 3125.09  102.19
   1  -8  -4 3292.77  104.19
   1   8  -4 3075.19  101.69
   1  -8   4 3292.47  102.79
  -1  -8  -4 3281.37  105.19
  -1   8  -5   79.99    4.60
   1  -8  -5   67.79    6.60
   1  -8  -5   68.19    5.90
  -1  -8  -5   77.49    6.50
   1   8  -5   71.09    4.10
  -1   8  -6   24.50    3.60
   1  -8  -6   28.20    5.00
   1  -8  -6   34.40    4.90
  -1  -8  -6   30.70    4.70
   1  -8  -7  190.28   11.50
  -1  -8  -7  194.98   11.20
   1  -9   0   -0.30    2.00
   1  -9   0    0.10    1.10
   1   9   0    0.80    1.40
  -1   9   0    1.00    1.40
  -1   9  -1   19.30    2.50
  -1  -9   1   15.00    2.60
   1   9   1   17.90    2.90
   1  -9  -1   13.60    2.10
   1  -9  -1   21.10    3.60
  -1   9   1   17.40    2.90
  -1  -9  -1   17.80    3.50
   1  -9   1   16.90    3.20
   1   9  -1   22.40    2.40
   1   9   2  182.18    9.00
   1  -9  -2  181.08    8.40
   1  -9  -2  186.58   10.00
  -1   9  -2  192.48    7.70
  -1  -9   2  172.88    8.00
   1   9  -2  193.28    7.50
  -1  -9  -2  176.78    9.40
   1  -9   2  168.48    8.80
   1  -9  -3   61.49    4.80
  -1  -9   3   59.29    4.10
   1  -9  -3   60.89    5.90
  -1   9  -3   63.79    3.90
   1  -9   3   61.59    5.10
  -1  -9  -3   69.89    5.50
   1   9  -3   64.49    3.70
   1  -9  -4  723.23   27.50
  -1   9  -4  709.03   24.10
   1  -9  -4  746.53   26.40
   1  -9   4  690.03   24.60
   1   9  -4  707.23   23.70
  -1  -9  -4  659.53   26.60
   1  -9  -5  158.88    9.90
  -1   9  -5  170.88    7.70
   1  -9  -5  177.18    9.50
   1   9  -5  161.28    7.20
  -1  -9  -5  148.89    9.40
   1  -9  -6   19.10    4.50
  -1  -9  -6   24.70    4.40
   1  -9  -7   39.60    6.50
  -1  -9  -7   39.70    6.40
  -1  10   0    1.00    2.00
   1  10   0    7.00    2.00
   1 -10   0    2.70    2.60
  -1 -10   0    2.20    2.40
   1 -10  -1  166.48    7.60
   1 -10  -1  148.09    9.10
  -1  10  -1  157.98    7.30
   1  10  -1  160.78    7.30
   1 -10   1  158.08    8.70
  -1 -10  -1  165.58    8.80
  -1 -10   2 1201.28   40.00
   1 -10  -2 1201.78   40.60
   1 -10  -2 1183.58   42.30
  -1  10  -2 1137.59   39.50
   1  10  -2 1225.08   39.40
  -1 -10  -2 1197.38   41.70
   1 -10  -3 1004.80   34.80
   1 -10  -3  971.40   36.40
  -1  10  -3 1009.60   33.20
   1 -10   3  986.30   34.20
   1  10  -3 1018.40   33.00
  -1 -10  -3  946.61   35.60
  -1  10  -4   85.29    5.20
   1 -10  -4   91.39    7.60
   1 -10  -4   88.99    6.40
  -1 -10  -4   80.29    7.00
   1  10  -4   83.99    5.00
   1 -10  -5  271.47   14.30
  -1 -10  -5  291.77   14.20
   1 -10  -6   81.59    8.90
  -1 -10  -6   65.29    7.40
   1 -11   0    0.60    2.70
  -1 -11   0    0.50    2.60
   1 -11  -1   29.30    4.80
  -1 -11   1   32.40    4.80
   1  11  -1   40.60    5.00
  -1 -11  -1   29.10    4.20
   1 -11   1   32.50    4.60
   1 -11  -2    7.20    3.30
  -1 -11   2    3.60    2.70
   1 -11   2    4.20    3.00
  -1 -11  -2    5.10    2.60
   1  11  -2    4.80    2.10
  -1  11  -3  106.79    7.20
   1 -11  -3   95.59    7.70
   1  11  -3   99.09    5.80
  -1 -11  -3   96.89    7.60
   1 -11  -4  112.39    8.50
  -1 -11  -4  105.89    8.30
   1 -11  -5  145.29   10.70
  -1 -11  -5  154.28   10.10
   1 -12   0    1.00    3.20
  -1 -12   0    5.50    3.00
   1 -12  -1   47.20    6.30
  -1 -12   1   48.40    5.40
  -1 -12  -1   42.80    5.70
   1 -12   1   40.10    5.40
  -1 -12   2  814.32   28.50
   1 -12  -2  782.32   31.00
  -1 -12  -2  819.92   30.60
   1 -12   2  824.52   29.60
   1 -12  -3   14.00    4.40
  -1 -12  -3    6.20    3.50
   1 -12  -4 1732.03   61.59
  -1 -12  -4 1763.72   60.99
   1 -13   0   -0.80    3.40
  -1 -13   0    5.70    3.30
  -1 -13   1    9.30    3.70
   1 -13  -1   12.60    4.40
   1 -13   1    3.00    3.70
  -1 -13  -1    9.40    3.60
   1 -13  -2  126.19    9.80
  -1 -13  -2  132.79    9.40
   1 -13   2  144.09    9.30
   1 -13  -3   20.60    5.30
  -1 -13  -3   22.00    4.90
  -2   0   0  171.88    5.70
   2   0   0  163.98    5.70
   2   0  -1  224.68    7.50
  -2   0  -1  239.88    7.90
   2   0   1  225.48    7.80
  -2   0   1  231.18    7.50
  -2   0  -2   23.60    1.50
   2   0   2   21.30    1.60
  -2   0   2   28.40    1.20
  -2   0  -2   22.80    1.50
   2   0   3  485.15   16.00
  -2   0  -3  487.55   15.90
   2   0  -3  462.75   16.10
   2   0   3  450.45   15.70
  -2   0   3  451.95   15.20
   2   0   4  332.57   12.80
   2   0  -4  352.06   12.30
   2   0  -4  351.06   12.70
  -2   0  -4  376.06   12.70
  -2   0   4  350.56   11.70
   2   0   4  351.36   12.40
   2   0  -5  990.60   32.10
   2   0   5  974.80   31.60
   2   0  -5  956.10   31.70
  -2   0   5  903.31   31.00
  -2   0   5  942.21   30.80
  -2   0  -5 1000.50   32.00
   2   0   5  923.11   31.60
   2   0  -6   29.80    3.40
   2   0   6   24.70    2.40
  -2   0  -6   25.70    3.00
   2   0   6   24.70    2.40
  -2   0   6   28.50    2.10
   2   0  -6   23.00    2.60
  -2   0  -7   58.69    4.40
   2   0   7   66.79    4.40
   2   0  -7   52.79    4.60
   2   0  -7   60.19    4.50
  -2   0   7   54.59    3.10
   2   0   7   50.49    3.50
   2   0   8    8.00    1.80
   2   0  -8    3.80    2.50
  -2   0  -8    5.90    2.50
  -2   0   8    4.60    0.80
  -2   0   8    4.20    1.60
   2   0   8    7.30    1.70
  -2   0  -9  463.55   18.40
   2   0  -9  455.35   18.10
   2  -1  -1   34.40    1.50
  -2   1  -1   31.30    1.60
   2  -1   1   31.10    1.50
  -2   1   1   32.20    1.50
  -2  -1  -1   38.30    2.00
   2  -1  -2  613.14   19.50
   2   1   2  559.94   18.80
  -2   1  -2  582.44   18.90
   2  -1  -2  557.74   18.70
  -2   1  -2  570.84   18.80
   2   1  -2  552.54   18.20
  -2  -1  -2  620.24   19.00
   2  -1   2  501.75   18.60
  -2   1   2  594.94   18.60
  -2   1  -3   16.80    1.50
   2  -1  -3   17.40    2.10
   2   1   3   16.20    1.60
   2  -1  -3   15.70    1.30
   2   1   3   16.80    1.40
  -2   1  -3   17.10    1.50
   2  -1   3   18.40    1.40
   2   1  -3   18.80    2.10
   2  -1   3   16.10    1.40
  -2  -1  -3   14.70    1.60
   2   1  -3   15.70    1.10
  -2   1   3   16.30    1.20
   2   1   4    1.20    0.70
   2  -1  -4    0.60    0.70
   2  -1  -4    2.40    1.40
   2   1   4    1.20    0.90
   2   1  -4    2.70    0.70
   2  -1   4    2.30    0.80
   2  -1   4    2.40    0.80
  -2   1   4    0.80    0.60
  -2  -1  -4    3.00    1.20
   2   1  -4    3.10    1.10
   2  -1  -5   83.89    5.00
   2   1   5   78.79    4.10
  -2   1  -5   85.59    4.30
   2  -1  -5   78.99    4.20
   2   1   5   82.59    4.10
  -2  -1  -5   85.79    4.50
   2  -1   5   73.09    4.80
   2  -1   5   79.29    3.90
   2   1  -5   77.49    3.90
  -2   1   5   77.89    3.70
   2   1  -5   77.69    4.10
   2  -1  -6  186.38   11.50
   2  -1  -6  177.88    8.00
   2   1   6  177.88    7.70
   2   1   6  195.58    7.80
   2   1  -6  195.38    7.90
  -2   1   6  187.58    7.40
   2  -1   6  182.88    7.30
  -2   1   6  190.48    7.10
  -2  -1  -6  180.78    8.20
   2  -1   6  183.28    7.20
   2   1  -6  179.38    7.80
   2   1   7  119.19    6.00
  -2   1  -7  118.79    7.40
   2   1   7  131.49    6.30
   2  -1  -7  129.69    7.00
   2  -1  -7  144.39    7.30
   2   1  -7  124.99    6.50
   2  -1   7  122.19    5.60
  -2   1   7  131.49    5.80
  -2   1   7  131.09    5.40
   2  -1   7  127.09    5.50
  -2  -1  -7  119.89    6.70
   2   1   8  364.26   13.60
   2  -1  -8  375.66   15.00
   2   1   8  358.86   14.10
  -2   1  -8  367.86   14.60
   2  -1   8  360.66   12.90
   2  -1   8  357.66   13.40
  -2  -1  -8  377.26   14.90
  -2   1   8  359.76   13.00
  -2   1   8  340.47   13.10
   2  -1  -9    3.80    3.00
  -2   1  -9   -2.00    2.70
   2   1   9   -3.50    2.20
  -2  -1  -9    1.10    2.60
   2   1  -9   -3.80    2.80
  -2   2   0   98.99    3.70
   2  -2   0   94.19    4.20
   2  -2   0  100.99    3.70
   2  -2  -1 5040.90  159.18
   2  -2   1 5015.40  158.58
  -2   2  -2   20.60    1.40
   2   2   2   21.40    1.70
   2  -2  -2   21.00    2.40
   2  -2  -2   21.00    1.40
  -2  -2  -2   20.10    1.80
   2  -2   2   20.00    1.20
   2  -2   2   22.40    1.50
  -2   2  -3   99.89    4.50
   2   2   3   94.49    4.50
   2  -2  -3   95.89    4.20
   2  -2  -3   91.79    5.20
   2   2  -3  102.49    3.50
   2   2  -3   97.99    3.50
  -2   2   3  111.09    4.20
  -2  -2  -3   97.69    4.70
   2   2   4   36.10    2.50
   2  -2  -4   36.10    2.50
  -2   2  -4   33.40    2.80
   2  -2  -4   32.00    3.30
  -2   2  -4   35.10    2.50
   2  -2   4   34.80    2.00
   2   2  -4   36.30    2.00
   2  -2   4   37.10    2.10
  -2   2   4   42.90    2.30
   2   2  -4   36.30    2.20
  -2  -2  -4   36.90    2.90
  -2   2  -5 2229.08   69.09
   2  -2  -5 2097.29   69.29
   2  -2  -5 2200.08   70.19
   2   2   5 2156.28   69.19
   2   2   5 2056.39   68.99
  -2   2  -5 2176.58   68.99
   2  -2   5 1985.50   68.19
  -2  -2  -5 2242.98   69.79
   2   2  -5 2087.09   68.49
   2   2  -5 2178.28   68.39
  -2   2   5 2158.68   68.59
  -2   2  -6  385.26   14.20
   2  -2  -6  378.16   15.20
   2  -2  -6  379.46   14.60
   2   2   6  364.46   14.10
   2   2   6  355.76   14.00
   2  -2   6  416.56   13.50
   2  -2   6  389.66   13.10
  -2   2   6  371.56   13.50
  -2  -2  -6  372.76   14.70
   2   2  -6  399.86   13.70
   2   2  -6  387.46   14.00
   2   2   7 1559.64   52.49
   2   2   7 1577.64   52.29
   2  -2  -7 1597.04   53.59
   2  -2  -7 1685.13   53.59
  -2   2  -7 1602.94   52.59
  -2   2   7 1664.93   51.69
   2   2  -7 1636.44   51.99
  -2  -2  -7 1599.94   53.19
  -2   2   7 1555.24   51.99
   2  -2   7 1418.26   51.89
   2  -2   7 1602.84   50.89
   2   2   8    0.90    2.20
   2   2   8    1.40    2.00
  -2   2  -8    0.60    2.50
   2  -2  -8    3.70    2.70
  -2   2   8    3.20    1.50
   2   2  -8    4.80    2.60
  -2   2   8   -0.40    1.70
  -2  -2  -8    0.80    2.30
   2  -2  -9   41.10    5.60
   2   2   9   39.70    5.10
   2   2  -9   39.20    5.70
  -2  -2  -9   38.10    5.10
  -2   3   0  939.11   31.00
   2  -3   0  991.90   31.80
  -2   3  -1   11.70    1.00
   2   3   1   11.00    1.20
   2  -3  -1   10.70    1.70
   2  -3  -1   10.80    1.00
   2  -3   1   11.50    1.50
  -2  -3  -1   12.90    1.60
  -2   3   1   14.10    1.30
   2  -3   1   11.10    0.90
   2  -3  -2  338.67   12.80
   2   3   2  329.07   11.90
  -2   3  -2  331.77   11.40
   2  -3  -2  330.27   11.70
   2  -3   2  331.97   11.10
   2  -3   2  337.97   11.70
  -2   3   2  336.27   11.60
  -2  -3  -2  352.96   12.20
   2   3   3   18.60    1.90
   2  -3  -3   15.90    2.40
   2  -3  -3   19.30    1.70
  -2   3  -3   19.70    1.60
   2  -3   3   17.10    1.70
   2  -3   3   16.90    1.20
  -2   3   3   18.80    1.70
  -2  -3  -3   21.90    2.30
   2  -3  -4   14.90    2.60
   2   3   4   17.20    2.00
   2  -3  -4   15.90    1.90
   2  -3   4   16.50    1.30
   2   3  -4   15.70    1.30
   2   3  -4   15.30    1.20
   2  -3   4   17.10    1.20
   2  -3   4   16.10    1.70
  -2   3   4   16.00    1.60
  -2  -3  -4   17.40    2.50
   2  -3  -5   97.39    5.00
   2   3   5   88.79    4.90
  -2   3  -5   97.19    4.80
   2  -3  -5  103.39    6.00
   2  -3   5   88.29    3.70
  -2   3   5   95.69    4.60
   2   3  -5   93.89    4.10
  -2  -3  -5  100.39    5.60
   2   3  -5   94.19    4.30
   2  -3   5   96.79    3.70
  -2   3  -6   61.59    4.00
   2  -3  -6   58.79    4.30
   2  -3  -6   62.69    5.40
   2   3   6   57.59    4.10
   2   3   6   63.29    4.00
  -2  -3  -6   62.89    4.70
   2  -3   6   61.39    2.50
   2   3  -6   56.29    3.70
   2  -3   6   59.29    2.50
  -2   3   6   64.69    3.80
   2  -3  -7  100.19    6.80
   2   3   7  105.39    5.80
   2   3   7   88.69    5.60
   2  -3  -7   89.49    6.10
  -2   3   7   99.89    5.10
  -2   3   7   99.79    5.40
  -2  -3  -7  100.19    6.30
   2   3  -7   92.09    5.30
   2  -3  -8  269.37   12.60
   2  -3  -8  266.17   12.50
   2   3   8  284.47   11.80
  -2   3   8  248.98   10.40
  -2   3   8  258.87   11.00
  -2  -3  -8  262.27   12.20
   2  -3  -9    0.40    3.00
   2   3   9   -0.20    2.90
  -2   3   9   -0.50    2.40
  -2  -3  -9    0.10    2.60
   2  -3   9    0.70    2.60
   2   4   0  151.98    5.50
   2  -4   0  138.89    5.50
  -2  -4   0  151.38    5.80
  -2   4   0  143.79    5.50
   2  -4   0  143.19    6.40
   2   4   1  224.78    8.00
   2  -4  -1  214.18    7.90
   2  -4  -1  211.68    8.90
   2  -4   1  206.68    8.30
  -2  -4  -1  232.28    8.40
  -2   4   1  213.48    7.90
   2   4  -1  215.98    7.40
   2  -4   1  201.98    7.80
   2  -4  -2   13.20    2.40
   2   4   2   11.00    1.60
   2  -4  -2   13.10    1.40
   2  -4   2   14.10    1.90
  -2  -4  -2   11.60    1.80
   2  -4   2   16.10    1.10
   2  -4  -3  364.76   13.30
   2  -4  -3  351.86   14.50
  -2   4  -3  376.26   12.80
   2   4   3  382.76   13.50
   2  -4   3  345.27   12.10
   2  -4   3  390.96   13.10
  -2  -4  -3  369.46   13.90
  -2   4   3  377.66   13.10
   2   4   4  291.27   10.50
  -2   4  -4  250.17    9.80
   2  -4  -4  250.97   10.20
  -2  -4  -4  260.47   10.90
   2   4  -4  256.97    8.90
  -2   4   4  253.77    9.90
   2  -4   4  269.47    8.70
   2  -4   4  273.47    9.80
   2  -4   4  260.67    8.60
   2   4   5  786.62   27.50
   2  -4  -5  817.92   27.90
  -2   4  -5  774.12   27.10
   2   4  -5  785.42   26.20
  -2   4   5  798.52   27.10
   2  -4   5  850.71   27.00
  -2  -4  -5  806.32   28.30
  -2   4  -6   21.90    3.00
   2  -4  -6   23.50    3.10
   2  -4  -6   25.20    3.90
  -2  -4   6   25.30    2.00
   2   4   6   26.50    3.40
  -2   4   6   22.80    2.70
  -2  -4  -6   22.30    3.30
   2  -4   6   28.00    3.00
   2  -4  -7   44.50    5.30
   2  -4  -7   47.10    4.80
   2   4   7   49.40    4.20
  -2   4   7   48.60    4.10
  -2  -4  -7   47.80    4.60
   2  -4  -8   17.10    4.30
   2   4   9  462.35   20.40
   2  -4  -9  402.16   18.50
  -2   4   9  411.46   17.00
   2  -4   9  464.85   17.80
  -2  -4  -9  416.26   18.30
   2   5   0 1716.13   55.89
   2  -5   0 1701.23   55.89
  -2  -5   0 1804.72   56.39
  -2   5   0 1724.53   55.99
   2  -5   0 1788.72   57.19
  -2  -5   1   39.30    2.50
   2  -5  -1   40.30    2.40
   2   5   1   38.70    2.50
   2  -5  -1   39.10    3.60
  -2   5  -1   43.10    2.20
  -2  -5  -1   42.40    3.00
   2  -5   1   38.70    2.10
  -2   5   1   37.80    2.30
   2  -5   1   36.80    3.10
   2   5  -1   40.40    2.00
   2   5   2  565.04   19.20
   2  -5  -2  561.84   20.60
  -2   5  -2  564.24   18.50
   2  -5  -2  540.55   19.10
  -2  -5  -2  582.34   19.90
   2  -5   2  551.04   19.20
   2  -5   2  523.05   18.20
   2   5  -2  552.74   18.00
  -2   5   2  567.64   19.00
   2  -5  -3   12.00    2.60
   2   5   3   12.70    1.90
   2  -5  -3   11.80    1.70
  -2   5  -3   13.30    1.70
  -2   5   3   12.80    1.70
   2  -5   3   15.00    1.90
   2   5  -3   12.90    0.80
  -2  -5  -3   14.30    2.30
   2  -5   3   12.00    0.90
   2  -5  -4    4.70    2.30
   2   5   4    1.60    1.40
   2  -5  -4    2.30    1.20
  -2   5  -4    3.90    1.20
  -2  -5  -4    1.60    1.60
   2   5  -4    4.10    0.60
  -2   5   4    2.80    1.10
   2  -5   4    3.20    1.40
   2  -5  -5   50.89    3.90
  -2   5  -5   50.29    3.60
   2   5   5   46.50    3.90
   2  -5  -5   51.49    5.00
  -2   5   5   47.90    3.50
   2  -5   5   53.79    3.60
  -2  -5  -5   50.19    4.40
   2   5  -5   51.09    2.70
   2  -5  -6  288.57   12.20
  -2   5  -6  280.17   11.30
   2  -5  -6  289.87   13.40
  -2  -5  -6  276.77   12.40
   2  -5   6  300.77   11.10
  -2   5   6  267.17   11.30
   2  -5  -7  123.99    8.30
   2   5   7  136.89    7.80
   2  -5  -7  126.69    8.10
  -2   5  -7  125.39    6.80
  -2  -5  -7  124.29    7.80
   2  -5   7  134.39    6.70
   2  -5  -8  395.16   17.50
   2   5   8  394.26   16.00
   2  -5  -8  381.96   17.60
   2  -5   8  421.66   15.80
  -2  -5  -8  398.76   17.10
   2   5   9    2.80    3.10
   2  -5  -9    0.60    3.80
  -2  -5  -9    4.10    3.70
  -2   5   9   -3.00    3.00
   2  -6   0   58.29    4.50
   2  -6   0   64.79    3.20
  -2  -6   0   69.99    3.90
  -2   6   0   63.39    3.30
   2  -6  -1 3784.02  118.69
  -2  -6   1 3742.23  116.79
   2  -6  -1 3482.75  116.89
  -2   6  -1 3671.33  116.69
   2   6   1 3558.64  116.99
   2   6  -1 3674.83  116.49
   2  -6   1 3770.52  117.89
  -2  -6  -1 3753.62  117.69
  -2   6   1 3672.13  116.99
   2  -6  -2   19.40    3.00
  -2   6  -2   25.70    1.80
   2   6   2   20.50    2.50
   2  -6  -2   22.60    2.10
   2  -6   2   26.20    2.90
  -2  -6  -2   25.00    3.10
  -2   6   2   24.80    2.20
   2   6  -2   25.40    1.50
   2  -6  -3   62.99    3.80
   2   6   3   55.09    3.80
   2  -6  -3   72.89    5.60
  -2   6  -3   65.99    3.30
   2   6  -3   66.29    2.60
  -2   6   3   59.19    3.70
   2  -6   3   63.99    4.10
  -2  -6  -3   61.49    4.60
   2   6   4   16.50    2.70
   2  -6  -4   15.00    2.60
  -2   6  -4   18.40    2.10
   2  -6  -4   18.00    3.50
   2  -6   4   16.90    2.30
   2   6  -4   18.90    1.30
  -2   6   4   16.10    2.50
  -2  -6  -4   16.20    2.80
   2  -6  -5 1564.64   52.79
   2  -6  -5 1620.44   54.39
  -2   6  -5 1516.95   51.59
  -2  -6  -5 1597.94   53.49
   2  -6   5 1655.33   51.69
   2   6  -5 1473.75   50.59
  -2   6   5 1633.44   53.09
   2  -6  -6  271.67   12.30
   2  -6  -6  272.17   13.30
  -2   6  -6  280.67   11.40
  -2  -6  -6  272.07   12.60
   2  -6   6  289.37   11.10
   2  -6  -7 1230.58   44.30
  -2   6  -7 1219.88   41.60
  -2  -6  -7 1165.88   43.20
   2  -6   7 1323.07   41.70
   2   6   8    2.30    2.40
   2  -6  -8    6.50    3.60
  -2  -6  -8    8.10    3.20
  -2   7   0  297.67   11.40
   2  -7   0  318.37   11.40
  -2  -7   0  328.67   12.10
   2   7   0  320.87   11.40
   2  -7   0  302.37   12.80
  -2  -7   1    2.20    1.50
   2  -7  -1    3.00    1.00
  -2   7  -1    1.90    1.00
   2  -7  -1    1.00    2.10
   2   7   1    0.00    1.00
   2  -7   1    2.10    0.80
  -2  -7  -1    1.30    1.60
   2  -7   1    3.50    2.00
  -2   7   1    3.40    1.10
   2   7   2  117.39    5.80
  -2  -7   2  115.29    5.20
   2  -7  -2  113.29    7.20
  -2   7  -2  125.79    5.20
   2  -7  -2  130.29    5.80
  -2  -7  -2  120.09    6.40
  -2   7   2  122.19    5.70
   2   7  -2  121.89    4.80
   2  -7   2  114.09    6.30
  -2   7  -3   12.10    1.80
   2  -7  -3   12.80    3.20
   2   7   3   10.40    2.00
   2  -7  -3   12.60    2.10
  -2   7   3   12.80    2.10
   2   7  -3    9.90    1.40
   2  -7   3    9.20    2.20
  -2  -7  -3    7.90    2.50
   2  -7  -4   31.10    4.50
   2  -7  -4   33.20    3.60
  -2   7  -4   38.00    2.90
  -2  -7  -4   27.40    3.70
   2   7  -4   32.70    2.00
   2  -7   4   31.30    3.60
   2  -7  -5   88.39    7.20
  -2   7  -5   83.89    5.00
  -2  -7  -5   77.79    6.00
   2  -7   5   87.79    5.30
   2   7  -5   86.09    4.00
   2  -7  -6    6.30    2.90
   2  -7  -6    1.70    2.20
  -2   7  -6    3.10    2.40
   2   7  -6    4.90    2.10
  -2  -7  -6    5.20    2.60
   2  -7   6    5.30    2.30
   2  -7  -7   55.89    6.50
  -2  -7  -7   64.19    6.00
   2  -7  -8  135.49   10.40
   2   7   8  147.89    8.90
  -2  -7  -8  140.49   10.20
   2  -8   0   85.89    4.40
   2   8   0   91.09    4.50
  -2   8   0   86.99    4.50
  -2  -8   0   89.49    5.30
   2   8   1  135.39    6.30
  -2  -8   1  139.49    6.40
  -2   8  -1  137.09    6.00
   2  -8  -1  137.89    6.20
   2  -8  -1  117.79    7.50
   2  -8   1  129.69    7.50
   2  -8   1  141.39    5.70
   2   8  -1  138.69    5.90
  -2   8   1  139.69    6.30
  -2  -8   2    5.00    1.50
   2  -8  -2    4.50    1.40
  -2   8  -2    5.20    1.40
   2  -8  -2    4.30    2.60
   2   8   2    5.20    1.60
   2  -8   2    5.90    2.40
   2   8  -2    3.50    1.10
  -2   8   2    3.90    1.50
   2   8   3  201.28    9.70
  -2   8  -3  216.98    8.20
   2  -8  -3  201.68   10.80
   2  -8  -3  211.78    9.20
   2   8  -3  193.88    7.90
  -2  -8  -3  210.78   10.10
   2  -8   3  198.08    9.20
   2  -8  -4  150.58    7.70
  -2   8  -4  153.08    6.70
   2  -8  -4  143.59    9.10
   2  -8   4  147.59    7.60
  -2  -8  -4  147.19    8.30
   2   8  -4  154.98    5.90
   2  -8  -5  482.95   21.10
   2  -8  -5  528.85   19.90
  -2   8  -5  524.35   18.40
   2   8  -5  517.75   17.70
   2  -8   5  511.15   18.60
  -2  -8  -5  488.25   20.30
   2  -8  -6   13.00    3.10
  -2   8  -6   13.60    3.30
   2  -8  -6   12.60    3.70
  -2  -8  -6   15.60    3.70
   2  -8  -7   22.30    5.20
   2  -8  -7   24.60    4.90
  -2  -8  -7   23.20    4.80
   2   9   0 1252.97   41.70
   2  -9   0 1294.07   44.10
  -2  -9   0 1268.17   42.60
  -2   9   0 1248.18   41.80
   2  -9   0 1247.78   41.60
  -2   9  -1   31.50    2.90
   2  -9  -1   29.90    2.80
  -2  -9   1   26.00    3.50
   2  -9  -1   32.60    4.60
   2   9   1   30.20    3.20
   2  -9   1   30.10    4.30
  -2   9   1   29.10    3.00
   2   9  -1   26.90    2.80
   2  -9   1   25.10    2.30
  -2  -9  -1   29.50    3.90
   2  -9  -2  399.66   15.10
   2   9   2  383.06   15.90
  -2  -9   2  408.36   14.30
  -2   9  -2  393.06   14.30
   2  -9  -2  367.06   16.70
  -2  -9  -2  411.96   16.10
   2  -9   2  379.26   15.70
   2   9  -2  405.76   14.10
  -2   9  -3    8.20    1.80
   2  -9  -3    9.40    3.00
   2  -9  -3    9.50    2.30
   2  -9   3    3.70    2.80
   2   9  -3    8.40    1.60
  -2  -9  -3    5.60    2.40
   2  -9  -4   11.10    2.70
  -2   9  -4   12.90    2.30
   2  -9  -4   10.80    3.40
   2  -9   4    8.90    2.90
  -2  -9  -4    9.70    3.00
   2   9  -4   13.90    2.30
   2  -9  -5   22.50    3.60
  -2   9  -5   32.00    4.00
   2  -9  -5   15.60    4.30
  -2  -9  -5   24.60    4.10
   2   9  -5   23.90    3.00
   2  -9  -6  297.77   15.80
   2  -9  -6  329.37   15.00
  -2  -9  -6  304.07   14.90
   2  -9  -7   89.29    9.50
  -2  -9  -7   91.39    8.90
   2 -10   0   23.30    4.20
  -2 -10   0   31.80    4.10
   2  10   0   28.70    3.30
   2 -10   0   22.70    2.70
   2 -10  -1 2167.88   67.29
  -2  10  -1 2016.10   65.99
   2 -10  -1 1959.70   68.49
  -2 -10   1 2079.29   66.39
  -2 -10  -1 1965.20   67.19
   2  10  -1 1975.00   65.69
  -2  10  -2   18.20    3.00
   2 -10  -2   13.00    2.60
  -2 -10   2   16.10    2.60
   2 -10  -2   17.70    3.90
   2  10  -2   18.20    2.80
   2 -10   2   15.50    3.50
  -2 -10  -2   30.20    4.20
   2 -10  -3   40.20    5.80
  -2  10  -3   36.80    3.70
  -2 -10  -3   28.60    4.50
   2  10  -3   32.40    3.20
   2 -10  -4    5.70    2.90
   2 -10  -4    8.80    3.70
  -2  10  -4    9.50    2.40
   2 -10   4   17.30    3.70
  -2 -10  -4   12.90    3.30
   2  10  -4   11.90    2.10
   2 -10  -5  974.50   34.30
   2 -10  -5  904.31   35.60
  -2 -10  -5  912.31   34.40
   2 -10  -6  161.18   11.80
  -2 -10  -6  155.08   10.70
  -2 -11   0   64.99    5.40
   2 -11   0   59.99    6.40
   2 -11  -1   -4.40    3.00
   2 -11  -1   -0.90    1.70
  -2 -11   1    0.70    2.30
   2  11  -1    0.40    2.10
  -2 -11  -1   -2.60    2.40
   2 -11   1    1.30    2.80
   2 -11  -2   24.00    4.10
   2 -11  -2   29.20    4.70
  -2 -11   2   27.50    4.10
   2  11  -2   33.60    3.80
   2 -11   2   21.90    4.00
  -2 -11  -2   34.80    4.80
   2 -11  -3    4.80    2.50
   2 -11  -3    8.10    3.40
   2  11  -3    8.10    2.20
  -2 -11  -3    5.00    3.00
   2 -11   3    8.10    3.60
   2 -11  -4   27.20    5.30
   2 -11  -4   41.60    5.20
  -2 -11  -4   31.20    5.00
   2 -11  -5   66.19    8.50
  -2 -11  -5   53.09    6.80
   2 -12   0   33.20    5.50
  -2 -12   0   46.40    5.40
  -2 -12   1   61.09    5.60
   2 -12  -1   59.19    6.90
  -2 -12  -1   49.90    5.80
   2 -12   1   60.19    6.70
   2 -12  -2    2.30    3.50
   2 -12   2    3.20    3.40
  -2 -12  -2    3.90    3.00
   2 -12  -3  120.49    9.20
   2 -12   3  107.79    8.00
  -2 -12  -3   98.89    8.00
   2 -12  -4   78.79    9.10
  -2 -12  -4   91.99    8.00
   2 -13   0  849.22   32.20
  -2 -13   0  837.92   30.50
   2 -13  -1   25.50    5.20
  -2 -13   1   20.10    3.50
  -2 -13  -1   15.50    3.90
   2 -13   1   23.10    4.70
   2 -13  -2  261.77   14.70
   2 -13   2  261.17   13.30
  -2 -13  -2  265.87   13.20
   2 -13  -3    1.10    4.70
  -2 -13  -3    3.50    3.40
  -3   0   0    1.90    0.40
   3   0   0    2.50    0.50
  -3   0  -1  263.87    8.90
  -3   0  -1  266.17    9.00
   3   0  -1  256.97    8.70
   3   0   1  254.97    8.90
  -3   0   1  259.07    8.60
   3   0  -2 5523.35  174.48
  -3   0  -3 1330.07   50.79
  -3   0   3 1544.55   49.00
   3   0   3 1458.05   49.70
   3   0  -3 1555.44   49.60
   3   0  -3 1683.93   50.19
  -3   0  -3 1698.73   49.90
  -3   0  -4 2135.59   65.29
   3   0  -4 1952.80   64.79
   3   0   4 2083.89   65.39
  -3   0   4 1918.41   64.29
  -3   0   4 1987.70   64.19
   3   0   4 1978.60   65.09
   3   0  -4 2144.89   65.59
   3   0  -5   51.69    4.00
   3   0  -5   55.59    3.30
   3   0   5   66.09    3.60
  -3   0  -5   63.59    3.90
   3   0   5   61.59    3.60
  -3   0   5   73.29    2.70
   3   0  -6  229.28    9.90
  -3   0  -6  250.87    9.90
  -3   0   6  238.28    8.10
   3   0  -6  232.08    9.40
   3   0   6  235.08    9.30
   3   0   6  226.18    9.40
  -3   0   7 1119.49   37.30
   3   0  -7 1224.78   39.80
  -3   0  -7 1172.18   39.70
   3   0   7 1209.38   38.90
   3   0  -7 1175.78   39.70
   3   0   7 1139.39   39.20
   3   0   8  192.68    8.50
   3   0  -8  182.08    9.50
  -3   0  -8  203.48    9.40
   3   0   8  174.08    7.90
   3   0  -8  192.48    9.40
   3   0   9  332.57   14.30
  -3   0  -9  341.27   14.50
   3   0  -9  316.37   14.10
  -3   1   0    1.60    0.40
   3   1   0    2.70    0.50
   3  -1   0    0.90    0.70
  -3   1  -1   90.09    3.50
   3  -1  -1   82.59    3.30
   3   1   1   87.69    3.40
   3  -1  -1   78.69    3.80
  -3   1   1   86.49    3.20
  -3  -1  -1   81.49    3.30
   3  -1   1   86.19    3.50
   3   1  -1   82.39    3.00
   3  -1   1   78.69    3.40
   3  -1  -2  367.56   13.00
   3   1   2  365.36   12.30
   3  -1  -2  362.46   12.10
  -3   1  -2  354.16   12.70
  -3  -1  -2  397.06   12.40
   3   1  -2  341.47   11.60
   3  -1   2  314.47   12.10
  -3   1   2  371.16   11.90
  -3   1  -3  814.22   26.40
  -3   1  -3  769.42   26.40
   3   1   3  771.92   26.40
   3  -1  -3  849.02   27.30
   3  -1  -3  798.72   26.20
   3  -1   3  750.12   26.30
   3   1  -3  766.92   25.70
   3   1  -3  852.51   26.50
  -3   1   3  793.52   25.90
  -3  -1  -3  851.61   26.60
   3  -1  -4  142.29    5.70
   3   1   4  139.39    5.90
   3   1   4  143.89    6.20
  -3   1  -4  141.69    6.00
   3  -1  -4  137.19    6.70
  -3   1  -4  152.28    6.10
   3  -1   4  117.29    7.10
   3  -1   4  138.39    5.80
   3   1  -4  138.39    5.90
  -3   1   4  145.59    5.40
   3   1  -4  145.89    5.40
  -3  -1  -4  149.39    6.20
   3   1   5  249.18    9.60
   3  -1  -5  235.38   10.20
   3  -1  -5  242.98    9.40
   3   1   5  229.88    9.30
  -3   1  -5  242.68    9.50
   3  -1   5  239.48    9.20
   3   1  -5  243.58    9.30
   3   1  -5  246.98    9.00
  -3   1   5  242.28    8.80
   3  -1   5  241.08    9.20
  -3   1  -6  220.38    9.20
   3   1   6  218.58    9.10
   3  -1  -6  229.98    9.30
   3   1   6  218.18    9.10
   3   1  -6  227.18    8.80
   3   1  -6  223.48    9.00
   3  -1   6  221.68    8.60
   3  -1   6  225.08    8.70
  -3  -1  -6  209.68    9.70
  -3   1   6  227.38    8.40
  -3   1   6  196.18    8.70
   3  -1  -7   35.60    3.70
  -3   1  -7   37.20    3.90
   3   1   7   48.30    3.50
   3   1   7   38.10    4.40
   3  -1  -7   51.89    5.20
  -3  -1  -7   38.00    3.90
   3   1  -7   37.10    4.10
  -3   1   7   37.80    2.80
   3  -1   7   38.20    3.00
   3  -1   7   40.50    3.00
   3   1  -7   37.00    3.50
  -3   1   7   39.50    2.70
   3   1   8    6.70    2.20
   3  -1  -8   12.80    3.30
  -3   1  -8   11.00    2.80
   3   1   8    7.80    2.30
   3  -1   8   10.50    1.80
  -3   1   8    8.10    1.60
   3  -1   8    8.00    2.00
   3   1  -8    8.70    2.90
  -3  -1  -8   10.30    2.60
   3   1   9   10.10    2.90
   3  -1  -9    5.40    3.40
  -3   1  -9    4.60    3.10
  -3  -1  -9    7.90    2.90
   3   1  -9   14.10    3.60
   3  -2  -1 2221.38   72.59
   3  -2   1 2206.38   72.09
  -3  -2  -1 2354.76   71.89
   3  -2  -2  114.09    4.50
   3  -2  -2  112.39    5.60
  -3   2   2  120.99    4.50
   3  -2   2  109.59    4.40
  -3  -2  -2  119.89    4.80
   3  -2   2  108.59    4.60
   3  -2  -3 4117.79  134.79
   3   2   3 4252.47  134.29
  -3  -2  -3 4295.47  134.09
   3  -2  -4  700.53   23.80
   3   2   4  671.63   22.80
   3   2   4  644.14   22.50
   3  -2  -4  651.63   22.50
  -3   2  -4  690.73   22.60
  -3  -2  -4  699.03   23.00
   3   2  -4  635.94   21.60
   3  -2   4  635.34   22.00
   3   2  -4  663.63   21.80
  -3   2   4  662.93   22.10
   3  -2   4  668.43   22.40
   3   2   5  724.33   25.10
   3  -2  -5  732.63   26.30
   3  -2  -5  748.13   25.40
  -3   2  -5  756.82   25.30
  -3   2  -5  757.52   25.20
   3   2   5  711.23   25.30
   3  -2   5  697.33   24.50
   3   2  -5  728.23   24.40
  -3   2   5  768.62   24.70
  -3  -2  -5  752.42   25.60
   3   2  -5  757.92   24.50
   3  -2  -6  212.68    9.00
   3   2   6  201.58    8.80
   3  -2  -6  204.68    9.90
  -3   2  -6  205.28    9.70
   3   2   6  200.48    8.70
   3   2  -6  198.68    8.20
   3  -2   6  210.48    8.00
  -3   2   6  219.18    8.10
  -3  -2  -6  209.58    9.10
   3   2  -6  213.58    8.20
   3  -2   6  206.38    7.90
   3  -2  -7  114.79    6.50
   3  -2  -7  109.79    7.10
   3   2   7  111.69    6.00
  -3   2  -7  104.99    6.50
   3   2   7  106.59    5.90
  -3   2   7  110.99    5.10
  -3  -2  -7  109.69    6.40
   3  -2   7  121.89    5.40
   3   2  -7  109.19    5.80
  -3   2   7  106.29    5.40
   3  -2   7  106.79    4.80
   3   2  -7  105.49    5.70
   3   2   8  927.41   30.30
  -3   2  -8  851.51   30.40
   3  -2  -8  884.91   31.20
   3  -2  -8  887.31   31.20
   3   2  -8  755.32   29.80
  -3   2   8  846.82   29.10
  -3  -2  -8  841.42   30.50
   3  -2   8  866.61   28.10
   3  -2  -9 1106.69   38.90
   3   2   9 1081.79   38.90
  -3  -2  -9 1090.99   38.60
  -3  -3   0    1.10    0.60
   3  -3   0    1.50    0.50
   3  -3   0    1.90    1.00
  -3   3   0    0.90    0.40
   3  -3  -1   65.69    3.00
   3  -3  -1   62.19    3.80
   3  -3   1   68.09    2.90
  -3   3   1   69.89    3.00
   3  -3   1   66.49    3.50
  -3  -3  -1   67.49    3.20
   3  -3  -2  165.08    7.60
   3  -3  -2  157.68    6.40
  -3   3  -2  180.28    6.40
   3  -3   2  173.18    6.10
   3  -3   2  168.08    6.70
  -3  -3  -2  170.28    6.80
   3  -3  -3  634.14   21.70
   3   3   3  662.93   22.20
   3  -3  -3  651.33   23.10
  -3   3  -3  645.44   21.70
  -3   3   3  642.44   21.50
   3  -3   3  635.74   21.60
  -3  -3  -3  681.13   22.20
   3  -3   3  601.74   21.00
  -3   3  -4   61.09    3.60
   3   3   4   60.39    3.70
   3  -3  -4   59.29    4.90
   3  -3  -4   63.19    3.50
   3   3  -4   58.49    2.40
  -3   3   4   62.89    3.30
   3  -3   4   63.79    2.80
  -3  -3  -4   60.59    4.00
   3  -3   4   62.69    3.40
   3  -3  -5  206.28    8.70
   3   3   5  207.28    8.80
   3  -3  -5  192.08    9.70
   3   3   5  201.78    8.40
  -3   3  -5  204.08    8.50
   3   3  -5  204.78    7.70
   3   3  -5  202.08    7.50
  -3   3   5  209.88    8.10
   3  -3   5  197.28    7.40
   3  -3   5  234.98    8.90
   3  -3   5  215.48    8.20
   3   3   6  178.78    8.60
  -3   3  -6  193.08    8.40
   3  -3  -6  192.38    9.70
   3   3   6  195.58    8.40
   3  -3  -6  204.98    8.90
   3  -3   6  198.78    7.10
  -3   3   6  197.68    7.90
   3   3  -6  201.68    7.80
   3   3  -6  190.78    7.50
  -3  -3  -6  194.58    9.10
   3  -3  -7   41.70    4.30
   3   3   7   40.80    3.90
   3  -3  -7   40.10    5.10
  -3   3   7   39.70    3.20
   3   3  -7   30.10    3.70
  -3  -3  -7   48.90    4.50
   3  -3   7   37.20    2.50
   3  -3  -8    2.70    2.90
   3  -3  -8   -1.60    2.80
   3   3   8    0.00    2.10
  -3   3   8    4.00    1.90
  -3   3   8    0.50    1.80
  -3  -3  -8    0.00    2.10
   3  -3   8   -0.80    2.20
   3  -3  -9    6.40    3.50
   3   3   9   14.10    3.30
  -3  -3  -9   10.50    3.30
   3  -3   9   17.00    3.30
   3  -4   0    1.20    0.60
  -3   4   0    1.60    0.60
  -3  -4   0    0.40    0.70
   3  -4   0    1.60    1.30
  -3   4  -1  208.08    7.50
   3   4   1  213.38    8.00
   3  -4  -1  208.38    7.70
   3  -4  -1  202.28    8.90
   3  -4   1  203.38    8.30
  -3  -4  -1  207.98    7.90
  -3   4   1  216.48    7.70
   3  -4   1  204.38    7.40
   3   4   2 4359.36  137.39
   3  -4  -2 4312.77  138.59
  -3  -4  -2 4404.86  137.49
   3  -4   2 4218.28  137.29
   3  -4  -3 1347.67   44.50
  -3   4  -3 1365.46   44.20
   3   4   3 1330.07   44.70
   3  -4  -3 1362.46   46.10
  -3  -4  -3 1432.26   45.10
   3  -4   3 1412.46   44.50
  -3   4   3 1348.97   44.20
   3  -4   3 1301.27   43.50
   3  -4  -4 1761.12   57.49
   3   4   4 1761.62   55.99
   3  -4  -4 1716.03   55.79
  -3   4  -4 1641.74   55.39
   3  -4   4 1595.54   54.39
   3  -4   4 1771.22   55.39
   3   4  -4 1548.95   53.89
  -3   4   4 1750.32   55.29
  -3  -4  -4 1837.52   56.39
   3  -4  -5   35.00    5.10
  -3   4  -5   47.20    3.60
   3  -4  -5   46.50    3.50
   3   4   5   44.30    3.80
   3  -4   5   44.60    3.40
  -3  -4  -5   45.40    4.00
   3   4  -5   46.60    2.60
   3  -4   5   48.60    2.30
  -3   4   5   47.00    3.20
   3  -4  -6  190.88   10.20
   3  -4  -6  206.98    9.30
   3   4   6  204.58    8.70
  -3   4  -6  180.38    8.50
   3   4   6  200.88   10.00
  -3  -4  -6  190.38    9.30
  -3   4   6  194.38    8.20
   3  -4   6  210.78    8.50
   3  -4   6  189.48    6.60
   3  -4   6  202.78    6.70
   3  -4  -7 1049.20   36.60
  -3   4  -7 1036.10   35.50
   3  -4  -7 1022.10   37.40
  -3   4   7 1025.70   35.00
  -3  -4  -7 1006.40   36.30
   3  -4   7 1098.49   35.20
   3   4   8  153.48    8.10
   3  -4  -8  159.78    9.70
   3  -4  -8  154.18    9.20
   3  -4   8  165.28    8.00
  -3   4   8  156.88    7.90
  -3  -4  -8  145.09    8.50
   3   4   9  291.87   13.50
   3  -4  -9  312.27   15.10
  -3  -4  -9  282.97   14.10
   3  -4   9  324.37   13.20
  -3  -5   0    1.30    0.90
   3  -5   0   -1.80    1.40
   3   5   0    1.60    0.70
  -3   5   0    4.30    1.00
   3  -5   0    1.80    0.70
  -3   5  -1   79.79    3.50
   3  -5  -1   69.99    5.10
   3   5   1   77.79    3.90
  -3  -5   1   75.89    3.30
   3  -5  -1   75.49    3.70
   3  -5   1   73.09    3.40
  -3  -5  -1   76.09    4.00
  -3   5   1   79.39    3.70
   3  -5   1   78.29    4.50
   3   5   2  346.47   13.10
   3  -5  -2  344.37   12.90
  -3   5  -2  364.86   12.50
   3  -5  -2  343.77   14.30
   3  -5   2  341.77   12.10
   3  -5   2  370.76   13.30
  -3  -5  -2  375.46   13.50
  -3   5   2  379.36   12.90
   3  -5  -3  606.14   20.80
  -3   5  -3  598.04   20.20
   3   5   3  604.84   21.00
   3  -5   3  578.54   19.60
  -3   5   3  605.54   20.50
   3  -5   3  601.14   20.80
   3   5   4  201.88    8.70
   3  -5  -4  199.18   11.40
  -3   5  -4  205.28    8.20
   3  -5  -4  202.78    8.70
   3  -5   4  203.88    7.30
   3  -5   4  197.18    7.00
   3   5  -4  210.68    6.70
   3  -5   4  219.88    8.50
  -3   5   4  202.28    8.30
   3  -5  -5  202.88   10.50
  -3   5  -5  190.98    8.50
   3   5   5  180.38    8.90
   3  -5  -5  206.58    9.00
  -3  -5  -5  201.38    9.30
   3  -5   5  206.18    8.60
   3   5  -5  206.18    7.00
  -3   5   5  201.58    8.30
   3  -5  -6  177.38    9.00
  -3   5  -6  191.78    8.50
   3  -5  -6  188.68   10.20
   3  -5   6  187.88    8.20
  -3  -5  -6  174.18    9.10
  -3   5   6  173.68    8.20
   3  -5  -7   31.90    4.70
  -3   5  -7   33.60    5.00
   3  -5  -7   40.20    5.50
   3   5   7   33.40    3.60
   3  -5   7   40.20    4.10
  -3  -5  -7   35.20    4.30
   3  -5  -8   21.70    4.50
   3   5   8   20.00    3.60
   3  -5  -8   15.00    4.00
  -3  -5  -8   23.30    3.90
   3  -5   8   25.00    3.60
   3  -6   0    1.40    1.70
   3  -6  -1 1379.66   46.80
   3  -6  -1 1486.85   48.70
   3   6   1 1436.16   46.90
  -3   6  -1 1419.16   46.50
  -3  -6   1 1454.45   46.30
  -3   6   1 1446.26   46.80
   3  -6   1 1385.66   46.30
   3  -6   1 1452.45   47.90
  -3  -6  -1 1495.15   47.30
   3  -6  -2   66.49    3.70
  -3   6  -2   69.09    3.40
   3   6   2   67.49    3.90
  -3   6   2   63.79    3.70
  -3  -6  -2   71.69    4.40
   3   6  -2   65.29    2.90
   3  -6   2   65.49    3.00
   3  -6   2   67.09    4.40
   3   6   3 2877.21   90.19
   3  -6  -3 2811.72   91.99
   3  -6  -3 2763.62   89.99
  -3   6  -3 2696.53   89.09
   3  -6   3 2818.22   90.09
  -3  -6  -3 2948.41   90.79
  -3   6   3 2653.43   89.59
   3  -6  -4  417.46   17.70
   3  -6  -4  447.56   16.20
  -3   6  -4  469.95   15.40
   3   6   4  399.06   16.00
  -3  -6  -4  424.76   16.60
   3   6  -4  422.76   13.80
  -3   6   4  400.86   15.50
   3  -6   4  439.26   15.80
  -3   6  -5  546.35   19.60
   3  -6  -5  562.74   22.20
   3  -6  -5  532.75   20.20
   3   6  -5  548.95   18.00
  -3  -6  -5  541.15   20.80
   3  -6   5  549.54   19.60
   3  -6  -6  154.98    8.20
   3  -6  -6  151.68    9.50
  -3   6  -6  149.79    7.80
  -3  -6  -6  145.39    8.20
   3  -6   6  160.68    7.60
   3   6  -6  154.88    6.00
  -3   6  -7  107.39    9.80
   3  -6  -7   84.19    6.80
   3   6   7   81.09    5.60
   3  -6  -7   76.39    7.20
   3  -6   7   82.59    6.00
  -3  -6  -7   80.49    6.20
   3  -6  -8  658.33   27.10
   3   6   8  693.23   25.10
   3  -6  -8  678.73   26.60
  -3  -6  -8  652.33   25.90
   3  -7   0    1.70    2.10
  -3  -7   0    3.10    1.40
   3   7   0    0.40    1.00
   3  -7  -1   43.60    2.90
  -3   7  -1   38.40    2.70
  -3  -7   1   42.80    2.90
   3   7   1   42.20    3.00
   3  -7  -1   42.60    4.60
   3  -7   1   39.30    2.40
   3  -7   1   37.30    4.00
  -3   7   1   41.70    2.80
  -3  -7  -1   38.90    3.50
  -3   7  -2   34.40    2.60
   3   7   2   35.60    3.00
   3  -7  -2   32.40    4.40
  -3  -7   2   31.40    2.20
   3  -7  -2   37.10    3.00
  -3  -7  -2   38.00    3.40
   3  -7   2   38.20    4.10
   3  -7   2   37.90    2.20
   3   7  -2   39.90    3.10
  -3   7   2   36.50    2.90
   3  -7  -3  340.17   13.40
   3   7   3  331.87   13.40
   3  -7  -3  334.17   15.10
  -3   7  -3  348.37   12.60
   3   7  -3  355.66   11.70
   3  -7   3  358.16   13.70
  -3   7   3  350.36   13.20
  -3  -7  -3  355.96   14.10
   3  -7  -4   10.40    2.10
  -3   7  -4   12.80    2.00
   3  -7  -4    9.50    3.10
   3  -7   4   14.50    2.70
  -3  -7  -4   13.60    2.70
   3  -7  -5  133.79    8.10
  -3   7  -5  123.09    6.40
   3  -7  -5  123.99    8.80
   3   7  -5  122.59    4.90
   3  -7   5  115.69    6.60
  -3  -7  -5  118.09    7.40
  -3   7  -6  127.79    7.40
   3  -7  -6  128.09    7.70
   3  -7  -6  123.79    8.80
   3  -7   6  138.19    7.40
  -3  -7  -6  133.59    8.00
   3   7  -6  137.09    5.60
   3  -7  -7   27.10    4.70
   3  -7  -7   30.90    5.50
  -3  -7  -7   34.10    4.80
   3  -7  -8    2.30    3.80
   3  -7  -8    2.20    4.10
   3   7   8   -2.90    3.00
  -3  -7  -8   -0.10    3.50
   3  -8   0    0.90    2.30
  -3   8   0    1.70    1.10
   3   8   0    1.90    1.30
   3  -8   0   -0.40    0.90
  -3  -8   0   -0.20    1.70
  -3  -8   1  112.69    5.20
  -3   8  -1  106.89    5.10
   3   8   1   94.59    5.20
   3  -8  -1   99.99    5.20
  -3   8   1  112.69    5.50
   3  -8   1  105.99    4.80
   3   8  -1  110.99    5.00
  -3  -8   2 2542.15   77.29
  -3   8  -2 2395.76   77.89
   3   8   2 2409.86   78.69
   3  -8  -2 2525.65   78.79
   3  -8  -2 2404.26   80.89
  -3   8   2 2409.66   78.49
   3   8  -2 2244.98   77.59
   3  -8   2 2399.46   77.29
   3  -8   2 2497.95   79.59
   3  -8  -3  832.12   32.10
  -3   8  -3  882.71   29.10
   3  -8  -3  869.81   30.10
   3  -8   3  867.31   27.70
  -3  -8  -3  873.91   30.80
   3   8  -3  874.31   28.20
   3  -8   3  848.42   30.30
   3  -8  -4 1071.59   37.10
  -3   8  -4 1093.79   35.60
   3  -8  -4 1047.00   38.90
   3  -8   4 1039.00   36.40
  -3  -8  -4 1079.49   37.50
   3  -8  -5   19.30    4.40
  -3   8  -5   20.60    3.50
   3  -8  -5   26.70    3.80
   3   8  -5   28.10    2.80
   3  -8   5   37.70    4.80
  -3  -8  -5   18.80    3.70
   3  -8  -6  129.89    8.10
   3  -8  -6  129.79    9.70
  -3   8  -6  130.99    8.00
  -3  -8  -6  136.29    8.50
   3  -8   6  124.99    7.80
   3  -8  -7  689.83   28.60
   3  -8  -7  714.23   27.30
  -3  -8  -7  678.83   27.00
  -3  -9   0   -0.40    1.80
   3   9   0    1.90    1.40
   3  -9   0    0.10    2.40
   3  -9   0   -1.00    1.10
  -3   9   0   -0.20    1.40
  -3   9  -1   43.10    3.40
   3  -9  -1   37.30    5.30
  -3  -9   1   45.10    3.70
   3   9   1   43.70    3.50
   3  -9  -1   42.80    3.30
   3  -9   1   44.90    3.00
   3   9  -1   49.10    3.40
  -3   9   1   49.20    3.90
   3  -9   1   47.20    5.30
  -3  -9  -1   48.50    4.30
   3  -9  -2  254.57   13.10
  -3   9  -2  283.67   10.80
  -3  -9   2  275.27   10.10
   3  -9  -2  275.47   11.30
   3   9  -2  282.97   10.30
   3  -9   2  285.17   10.00
   3  -9   2  273.67   12.50
  -3  -9  -2  269.07   11.90
   3  -9  -3  337.37   16.30
  -3   9  -3  356.16   13.50
   3  -9  -3  377.46   14.70
   3   9  -3  376.66   12.90
  -3  -9  -3  361.26   15.20
  -3   9  -4  186.28    8.30
   3  -9  -4  172.48   10.70
   3  -9  -4  205.08    9.50
   3   9  -4  184.38    7.70
  -3  -9  -4  185.58    9.80
   3  -9   4  181.78    9.40
   3  -9  -5  141.79    8.00
  -3   9  -5  122.19    7.20
   3  -9  -5  122.89    9.30
  -3  -9  -5  135.09    8.30
   3  -9   5  138.89    8.00
   3  -9  -6  106.39    8.30
   3  -9  -6  115.69    9.20
  -3  -9  -6  119.09    8.30
   3  -9  -7   19.10    5.60
   3  -9  -7   18.40    6.10
  -3  -9  -7   21.40    4.90
  -3 -10   0   -1.60    2.10
   3 -10   0    1.40    3.00
   3  10   0    2.80    1.80
   3 -10   0    1.30    1.30
   3 -10  -1  798.92   27.10
   3 -10  -1  733.63   29.30
  -3 -10   1  794.92   26.70
   3  10  -1  748.53   26.50
  -3 -10  -1  779.52   27.70
   3 -10   1  753.12   28.70
   3 -10   1  808.02   26.30
  -3 -10   2   27.30    3.00
   3 -10  -2   27.50    4.70
  -3  10  -2   26.50    3.70
   3 -10  -2   34.20    3.80
  -3 -10  -2   31.10    4.10
   3  10  -2   33.00    3.30
   3 -10  -3 1611.74   52.39
   3 -10  -3 1568.54   54.89
  -3  10  -3 1492.35   51.09
  -3 -10  -3 1496.05   52.69
   3  10  -3 1570.54   50.29
   3 -10   3 1558.24   52.69
   3 -10  -4  225.68   13.00
   3 -10  -4  231.28   11.20
   3 -10   4  226.38   11.30
  -3 -10  -4  224.78   11.30
   3 -10  -5  311.47   15.90
  -3 -10  -5  287.97   14.00
   3 -10  -6  103.49   10.50
   3 -10  -6  102.69    8.90
  -3 -10  -6   97.19    8.60
   3 -11   0   -2.70    1.60
  -3 -11   0    2.20    2.30
   3 -11   0   -1.80    2.90
   3 -11  -1   14.70    2.60
   3 -11  -1   16.80    4.10
  -3 -11   1   16.40    2.80
   3 -11   1   14.50    2.60
  -3 -11  -1   24.60    3.70
   3 -11   1   22.20    4.50
   3  11  -1   18.30    2.90
   3 -11  -2    5.40    3.50
   3  11  -2    4.60    2.10
  -3 -11  -2    5.20    2.60
   3 -11   2    7.00    3.30
   3 -11  -3  165.08   10.90
   3 -11  -3  168.28    9.10
   3 -11   3  163.08    9.80
  -3 -11  -3  161.88    9.30
   3 -11  -4   -1.70    2.60
   3 -11  -4   -3.20    3.30
  -3 -11  -4    2.30    3.00
   3 -11  -5   68.09    9.40
   3 -11  -5   66.29    7.60
  -3 -11  -5   75.09    7.40
  -3 -12   0    2.60    2.60
   3 -12   0    3.10    3.40
   3 -12  -1   44.50    5.00
   3 -12  -1   34.50    5.80
   3 -12   1   36.50    5.40
  -3 -12  -1   48.70    5.30
   3 -12  -2 1363.66   44.80
   3 -12  -2 1287.47   47.20
  -3 -12  -2 1273.67   45.00
   3 -12   2 1244.58   45.50
   3 -12  -3  418.26   17.70
   3 -12  -3  418.76   20.00
  -3 -12  -3  410.26   17.80
   3 -12   3  425.76   18.10
   3 -12  -4  547.85   22.50
   3 -12  -4  557.84   25.20
  -3 -12  -4  555.14   22.80
  -3 -13   0   -1.20    2.70
   3 -13   0    2.20    4.10
  -3 -13   1   26.20    3.80
   3 -13  -1   23.10    5.60
   3 -13   1   23.10    5.20
  -3 -13  -1   26.00    4.10
   3 -13  -2  188.58   12.50
  -3 -13  -2  178.98   10.30
   3 -13   2  184.58   11.40
  -4   0   1 2103.49   66.59
   4   0  -1 2105.09   67.19
   4   0  -2 6021.20  190.28
  -4   0   3   13.20    0.90
  -4   0  -3   11.00    1.60
   4   0   3   11.90    1.30
  -4   0  -3   10.80    1.60
   4   0  -3   12.30    1.10
   4   0  -3   16.60    2.20
   4   0  -4 1058.99   34.90
   4   0  -4 1096.49   35.80
   4   0   4 1054.29   35.30
  -4   0  -4 1140.29   35.60
  -4   0   4 1017.90   34.20
   4   0   4 1076.29   35.80
  -4   0  -5  522.35   20.30
   4   0   5  563.64   19.60
   4   0  -5  584.04   20.00
   4   0  -5  581.34   19.20
  -4   0   5  535.65   18.30
  -4   0   5  544.95   18.10
   4   0   5  585.34   19.80
   4   0   6 5122.69  169.28
   4   0   6 5521.75  169.38
   4   0  -6 5368.36  169.78
  -4   0  -6 5211.78  169.68
   4   0  -6 5401.26  169.18
   4   0   7  569.74   20.40
   4   0  -7  593.34   21.10
   4   0   7  547.35   20.50
   4   0  -7  592.34   20.80
  -4   0  -7  565.64   21.00
   4   0  -8  729.83   26.20
   4   0   8  723.23   25.00
   4   0  -8  694.93   25.80
  -4   0  -8  731.73   26.20
   4   0   8  719.53   25.40
  -4   0  -9    5.20    2.90
   4   0   9    8.30    2.40
   4   0  -9   11.20    3.50
   4   1   0    3.50    0.70
   4  -1   0    4.80    0.80
  -4   1   0    4.10    0.70
  -4  -1   0    3.70    0.60
   4  -1   0    7.00    1.10
   4  -1  -1  656.33   22.10
   4  -1  -1  689.43   22.80
   4   1   1  651.13   22.10
  -4   1  -1  688.53   22.40
   4   1  -1  626.14   21.80
  -4   1   1  677.53   22.00
   4  -1   1  661.63   22.30
  -4  -1  -1  732.13   22.30
   4  -1   1  720.63   22.50
   4   1   2   82.59    3.60
   4  -1  -2   78.89    3.40
   4  -1  -2   84.59    4.40
  -4   1  -2   77.19    3.70
  -4  -1  -2   85.39    3.70
   4   1  -2   82.59    3.10
  -4   1   2   83.49    3.30
   4  -1   2   83.99    3.70
   4   1   3  431.56   14.40
  -4   1  -3  423.46   14.50
  -4   1  -3  418.66   14.40
   4  -1  -3  411.76   14.00
   4  -1  -3  410.06   15.10
   4   1  -3  408.36   14.30
   4  -1   3  388.76   14.20
  -4  -1  -3  435.76   14.50
  -4   1   3  381.76   13.90
   4   1  -3  402.46   13.50
   4  -1  -4    2.90    1.80
   4  -1  -4    1.80    0.80
  -4   1  -4    1.70    1.10
   4   1   4    2.10    1.20
   4   1   4    1.20    0.70
  -4   1  -4    4.00    1.30
   4  -1   4    1.50    0.80
  -4  -1  -4    2.90    1.20
   4   1  -4    0.80    1.30
   4   1  -4    3.10    0.70
  -4   1   4    1.60    0.60
   4  -1  -5   85.99    5.60
  -4   1  -5   84.89    4.60
   4   1   5   87.69    4.50
   4   1   5   81.99    4.80
  -4   1   5   87.79    3.70
   4  -1   5   91.39    4.60
   4   1  -5   80.39    4.70
   4  -1   5   79.59    4.30
   4   1  -5   84.49    3.90
  -4  -1  -5   89.29    4.70
   4   1   6   28.80    3.20
  -4   1  -6   28.70    3.30
   4  -1  -6   28.60    2.90
   4  -1   6   33.40    2.90
   4  -1   6   35.00    2.90
   4   1  -6   27.60    3.50
  -4   1   6   28.10    2.20
  -4  -1  -6   26.70    3.00
   4   1  -6   32.90    2.60
   4  -1  -7  327.07   12.90
   4   1   7  312.77   12.60
   4  -1  -7  310.47   14.60
   4   1   7  318.87   12.70
  -4   1  -7  319.67   13.00
   4   1  -7  328.77   12.50
  -4  -1  -7  315.17   13.00
   4   1  -7  326.47   12.60
   4  -1   7  314.97   12.10
  -4   1   7  306.87   11.40
   4  -1   7  329.97   12.30
  -4   1  -8    3.80    2.40
   4   1   8    1.00    2.10
   4  -1  -8    2.50    2.70
   4   1  -8    1.20    2.50
   4  -1   8    1.80    1.60
  -4  -1  -8    4.00    2.40
   4  -1   8    4.10    2.00
  -4   1   8    2.80    2.10
   4   1  -8    2.80    2.40
  -4   1  -9  159.98    9.50
   4   1   9  161.38    8.90
   4  -1  -9  173.78   10.50
   4  -1  -9  171.08    9.70
  -4  -1  -9  159.88    9.20
   4   1  -9  159.88    9.00
   4  -2   0 6492.55  205.18
   4  -2  -1  792.82   26.20
   4  -2  -1  748.23   25.30
  -4   2  -1  771.52   25.30
  -4  -2  -1  807.32   25.30
   4  -2   1  748.03   25.70
   4  -2   1  736.93   25.30
  -4   2   1  822.92   25.70
  -4   2  -2   35.00    2.20
   4  -2  -2   34.70    2.00
   4  -2  -2   31.70    3.10
   4   2   2   34.60    2.00
  -4   2   2   36.80    1.90
   4  -2   2   34.20    2.00
   4   2  -2   32.40    1.30
   4  -2   2   36.60    2.40
  -4  -2  -2   32.20    2.20
   4   2   3    5.10    1.00
  -4   2  -3    3.30    1.00
   4  -2  -3    3.50    1.70
   4  -2  -3    3.60    0.80
  -4  -2  -3    5.10    1.30
   4   2  -3    3.70    0.60
  -4   2   3    3.90    0.70
   4  -2   3    3.60    0.80
  -4   2  -4 1344.97   44.10
   4  -2  -4 1363.36   45.30
   4   2   4 1266.37   43.80
   4  -2  -4 1376.66   43.90
   4   2   4 1387.56   44.50
   4  -2   4 1236.18   43.50
  -4  -2  -4 1448.46   44.30
   4   2  -4 1275.67   42.80
   4   2  -4 1392.76   43.20
  -4   2   4 1347.37   43.30
   4  -2  -5  790.42   28.30
   4   2   5  806.42   27.40
  -4   2  -5  828.62   27.10
   4   2   5  764.52   26.90
   4  -2  -5  768.52   26.90
   4   2  -5  794.62   26.10
   4   2  -5  771.42   25.90
  -4  -2  -5  834.52   27.40
   4  -2   5  745.83   26.40
  -4   2   5  800.12   26.20
   4  -2   5  807.32   26.70
   4   2   6  851.11   29.80
   4   2   6  870.11   29.70
   4  -2  -6  864.81   29.80
   4  -2  -6  869.31   30.90
  -4  -2  -6  857.91   30.00
   4   2  -6  859.61   28.70
  -4   2   6  862.41   28.60
   4  -2   6  877.31   29.00
   4  -2   6  882.81   28.90
   4   2  -6  858.61   28.80
   4  -2  -7  225.88    9.90
   4   2   7  216.78    9.50
   4  -2  -7  204.28   10.40
   4   2   7  204.98    9.70
  -4   2   7  210.88    8.60
   4   2  -7  208.28    8.90
  -4   2   7  209.08    8.10
   4  -2   7  211.28    8.40
   4  -2   7  206.58    8.50
   4   2  -7  209.68    8.70
  -4  -2  -7  214.28    9.80
   4  -2  -8   86.79    7.00
   4  -2  -8   83.19    6.50
   4   2   8  101.79    6.60
  -4  -2  -8   86.59    6.30
   4  -2   8   91.29    4.50
   4   2  -8   68.09    5.80
  -4   2   8   89.09    4.90
   4  -2  -9   25.90    4.50
   4   2   9   29.40    5.00
   4  -2  -9   26.80    5.00
  -4  -2  -9   37.90    5.20
  -4   3   0    4.90    0.80
  -4  -3   0    6.50    0.90
   4  -3   0    7.60    0.90
  -4   3  -1  642.74   21.30
   4  -3  -1  644.44   22.50
   4  -3  -1  622.24   21.30
   4  -3   1  616.84   21.20
  -4  -3  -1  677.63   21.40
  -4   3   1  635.24   21.20
   4  -3   1  664.43   22.00
   4  -3  -2   58.59    3.00
   4  -3  -2   57.29    4.30
   4  -3   2   55.99    2.80
  -4   3   2   61.89    2.90
  -4  -3  -2   63.99    3.40
   4  -3   2   59.09    3.40
   4   3   3  381.36   14.00
   4  -3  -3  371.56   13.30
  -4   3  -3  384.16   13.50
   4  -3  -3  366.46   14.80
   4  -3   3  360.76   12.90
  -4   3   3  377.26   13.10
   4  -3   3  383.16   13.50
  -4  -3  -3  381.46   13.70
   4  -3  -4    0.90    1.90
  -4   3  -4    1.10    1.20
   4   3   4   -0.90    1.20
   4  -3  -4    0.50    0.90
   4   3   4    0.90    0.90
  -4  -3  -4    0.80    1.20
  -4   3   4    3.50    1.00
   4  -3   4    1.80    1.20
   4   3   5  102.59    5.60
  -4   3  -5   91.59    5.20
   4  -3  -5   94.99    5.20
   4  -3  -5   95.99    6.70
   4   3   5  110.69    5.20
   4  -3   5   99.79    4.40
   4  -3   5  107.19    5.30
  -4   3   5   93.09    4.60
   4   3  -5   91.69    4.10
   4  -3   5  108.69    5.10
  -4  -3  -5   96.89    5.40
  -4   3  -6   32.20    3.40
   4  -3  -6   29.70    3.20
   4   3   6   27.70    3.80
   4   3   6   29.60    3.10
   4  -3  -6   31.20    4.30
   4  -3   6   27.90    2.50
   4   3  -6   27.40    2.30
   4  -3   6   30.60    3.10
   4   3  -6   26.00    2.70
  -4  -3  -6   29.40    3.30
  -4   3   6   30.30    2.60
   4  -3   6   25.10    2.10
   4   3   7  322.37   13.10
   4  -3  -7  333.47   13.80
   4  -3  -7  323.47   14.70
   4   3  -7  324.57   12.50
  -4   3   7  316.47   12.10
   4  -3   7  316.47   11.40
   4  -3   7  353.76   12.90
  -4  -3  -7  316.87   13.60
   4   3   8   -1.50    2.40
   4  -3  -8    5.20    3.00
   4  -3  -8    1.50    2.70
  -4   3   8    0.50    1.80
   4  -3   8    4.40    2.30
  -4  -3  -8    2.00    2.30
   4  -3  -9  144.99    9.90
   4  -3  -9  154.68   10.70
   4   3   9  165.38   10.00
   4  -3   9  165.78    8.60
  -4  -3  -9  161.68    9.60
  -4  -4   0 5619.44  165.18
   4  -4   0 4847.12  166.38
  -4   4  -1 1654.13   51.99
   4  -4  -1 1633.64   53.59
   4  -4  -1 1580.44   52.19
  -4  -4  -1 1715.13   52.19
   4  -4   1 1557.24   51.89
  -4   4   1 1612.44   51.99
   4  -4   1 1584.74   52.89
   4  -4  -2 4804.52  156.08
   4   4   2 4737.53  154.88
  -4  -4  -2 5063.49  154.68
   4  -4   2 4892.91  154.98
   4   4   3    6.30    1.50
   4  -4  -3    6.90    1.30
   4  -4  -3   13.50    2.90
  -4   4  -3    9.70    1.60
  -4  -4  -3   10.20    1.80
   4  -4   3    7.30    1.10
  -4   4   3    6.60    1.20
   4   4   4  844.92   30.10
   4  -4  -4  854.61   29.80
   4  -4  -4  881.51   31.60
  -4   4  -4  869.81   29.70
  -4  -4  -4  919.41   30.30
  -4   4   4  912.31   29.40
   4  -4   4  864.71   28.70
   4  -4   4  898.21   29.70
   4   4   5  479.65   18.00
   4  -4  -5  496.15   17.80
   4  -4  -5  484.55   19.50
  -4   4  -5  474.05   17.60
   4   4   5  470.85   17.40
   4  -4   5  495.35   17.40
   4  -4   5  478.65   16.20
  -4  -4  -5  486.35   18.10
   4  -4   5  488.55   16.60
   4   4  -5  466.25   15.90
  -4   4   5  501.85   17.10
   4  -4  -6 4790.02  152.38
  -4   4  -6 4630.74  150.28
   4   4   6 4485.75  150.08
   4  -4  -6 4854.01  150.88
   4  -4   6 4567.64  148.39
  -4   4   6 4816.22  149.59
  -4  -4  -6 4792.82  150.98
   4   4  -6 4508.05  148.79
   4  -4   6 4879.71  149.99
   4   4   7  491.95   18.80
   4  -4  -7  493.15   20.60
   4  -4  -7  542.75   19.80
   4  -4   7  491.85   16.40
  -4   4   7  490.45   18.00
  -4  -4  -7  495.45   19.40
   4  -4   7  512.65   18.60
   4   4   8  643.34   24.10
   4  -4  -8  662.83   25.20
   4  -4  -8  652.23   25.90
  -4  -4  -8  653.33   24.80
  -4   4   8  638.84   23.40
   4  -4   8  683.03   23.90
   4  -4  -9    4.10    4.30
   4  -4  -9    5.10    4.20
   4   4   9   12.00    3.40
   4  -4   9   14.60    3.60
  -4  -4  -9    6.60    3.80
   4  -5   0   11.00    1.30
  -4   5   0    9.90    1.30
  -4  -5   0   10.80    1.40
   4  -5   0    7.90    2.10
  -4  -5   1  459.95   15.10
  -4   5  -1  481.45   15.70
   4  -5  -1  452.45   17.50
   4  -5  -1  438.76   15.80
   4   5   1  450.25   16.10
  -4   5   1  451.15   15.70
   4  -5   1  428.76   16.70
  -4  -5  -1  482.15   16.00
   4  -5   1  451.65   15.50
   4  -5  -2   44.40    4.40
   4  -5  -2   50.09    3.00
  -4   5  -2   47.20    2.70
   4   5   2   48.20    3.30
  -4   5   2   47.40    2.80
  -4  -5  -2   46.40    3.30
   4  -5   2   48.60    2.50
   4  -5   2   44.10    3.50
  -4   5  -3  323.17   11.40
   4  -5  -3  295.87   11.60
   4   5   3  290.17   11.90
   4  -5  -3  296.67   13.40
   4  -5   3  314.57   10.80
  -4   5   3  317.97   11.50
  -4  -5  -3  315.37   12.20
   4  -5   3  316.67   12.10
   4   5   4    2.60    1.50
  -4   5  -4    4.30    1.40
   4  -5  -4    0.50    2.60
   4  -5  -4    4.60    1.30
   4  -5   4    1.70    0.70
  -4  -5  -4    2.10    1.70
  -4   5   4    2.20    1.20
   4  -5   4    3.60    1.70
  -4   5  -5   54.99    4.10
   4  -5  -5   56.79    5.90
   4   5   5   60.89    5.20
   4  -5  -5   51.89    4.00
   4  -5   5   56.39    2.60
   4  -5   5   60.69    4.40
   4  -5   5   53.29    3.10
  -4  -5  -5   54.99    4.50
   4   5  -5   55.19    2.50
  -4   5   5   57.19    3.70
   4   5  -5   58.49    2.40
  -4   5  -6   22.20    3.80
   4  -5  -6   21.60    4.10
  -4  -5  -6   23.00    3.50
   4  -5   6   22.70    3.40
   4  -5   6   23.80    1.60
  -4   5   6   29.70    3.10
   4  -5  -7  249.97   13.10
   4   5   7  259.97   11.20
   4  -5  -7  267.77   12.20
  -4  -5  -7  240.58   11.70
   4  -5   7  270.27   11.50
   4  -5  -8    7.10    3.90
   4   5   8    3.80    2.70
  -4  -5  -8    2.90    2.70
   4  -5   8   12.70    3.00
   4   6   0 3544.45  119.69
   4  -6   0 3723.83  119.69
  -4  -6   0 3931.31  119.59
  -4   6   0 3813.82  119.69
   4  -6   0 3813.32  121.49
   4  -6  -1  435.66   17.30
   4   6   1  433.86   15.70
   4  -6  -1  429.16   15.50
  -4  -6   1  449.26   14.80
  -4   6  -1  441.06   15.30
  -4   6   1  460.15   15.50
   4  -6   1  427.86   15.10
  -4  -6  -1  430.76   15.60
   4   6  -1  443.96   15.40
   4  -6   1  424.26   16.60
  -4   6  -2   11.80    1.70
   4  -6  -2   12.20    2.80
   4   6   2    9.80    2.00
   4  -6  -2    9.60    1.60
  -4   6   2   15.60    1.80
  -4  -6  -2    9.50    1.90
   4  -6   2   11.20    2.40
   4  -6  -3    0.60    1.00
   4   6   3    1.40    1.60
   4  -6   3    5.90    2.00
   4  -6   3    1.90    0.70
  -4   6   3    3.10    1.20
  -4  -6  -3    5.80    1.90
   4  -6  -4 1000.20   33.90
  -4   6  -4 1018.70   33.30
   4  -6  -4  969.10   35.90
   4   6   4  947.41   33.90
   4  -6   4  967.50   31.90
  -4  -6  -4  998.90   34.30
  -4   6   4  997.50   33.40
   4  -6   4 1031.40   33.90
   4  -6  -5  572.84   20.80
   4  -6  -5  581.84   22.90
  -4   6  -5  543.35   20.10
   4  -6   5  585.04   20.40
   4   6  -5  537.25   18.10
   4  -6   5  552.34   17.90
  -4  -6  -5  559.94   21.00
   4  -6   5  543.85   18.40
  -4   6  -6  608.84   22.70
   4  -6  -6  605.44   25.10
   4  -6  -6  656.73   23.60
   4  -6   6  647.64   22.60
  -4  -6  -6  599.54   23.40
   4  -6  -7  153.78   10.40
   4   6   7  166.38    8.30
   4  -6  -7  162.98    9.40
  -4  -6  -7  156.68    9.10
   4  -6  -8   62.19    7.90
   4  -6  -8   52.69    7.10
   4   6   8   66.19    6.10
   4  -6   8   61.99    6.30
  -4  -6  -8   69.79    6.80
   4   7   0    6.60    1.50
   4  -7   0    5.10    1.10
  -4  -7   0    6.30    1.50
  -4   7   0    7.00    1.40
   4   7   1  400.66   15.20
   4  -7  -1  423.56   15.10
   4  -7  -1  402.96   17.00
  -4  -7   1  428.76   14.40
  -4   7  -1  431.06   14.90
   4  -7   1  414.96   14.70
  -4   7   1  412.06   15.00
   4  -7   1  422.26   16.60
  -4  -7  -1  426.56   15.40
   4  -7  -2   27.00    4.90
   4  -7  -2   30.90    2.60
   4   7   2   28.40    3.10
  -4   7  -2   33.30    2.50
  -4  -7  -2   30.90    3.10
  -4   7   2   31.30    2.80
   4  -7   2   30.80    2.10
   4  -7   2   27.60    3.90
   4  -7  -3  226.28   11.70
   4   7   3  216.88    9.80
  -4   7  -3  232.98    9.10
   4  -7  -3  243.38    9.90
   4  -7   3  231.48   10.30
  -4  -7  -3  233.48   10.20
   4   7  -3  230.68    8.00
   4  -7   3  240.08    8.40
  -4   7   3  223.58    9.40
   4  -7  -4    2.80    1.60
   4  -7  -4    2.40    2.70
  -4   7  -4    1.50    1.50
   4   7  -4    2.20    0.60
  -4  -7  -4   -1.20    1.60
   4  -7   4    0.50    2.10
  -4   7  -5   81.49    5.30
   4  -7  -5   81.49    5.50
   4  -7  -5   75.09    6.90
  -4  -7  -5   77.29    5.60
   4   7  -5   77.69    3.20
   4  -7  -6   18.90    4.50
  -4   7  -6   16.40    3.70
   4  -7  -6   27.50    4.10
   4   7  -6   18.60    2.00
  -4  -7  -6   15.80    3.30
   4  -7   6   21.70    3.60
   4  -7  -7  253.27   12.40
   4  -7  -7  236.18   13.80
   4   7   7  256.27   11.50
  -4  -7  -7  250.67   12.50
   4  -7  -8    2.20    4.70
   4  -7  -8   -5.50    4.00
   4   7   8    6.30    3.30
  -4  -7  -8    1.50    3.30
  -4   8   0 3225.88  103.39
   4  -8   0 3205.88  105.69
  -4  -8   0 3349.06  103.49
   4   8   0 3151.28  103.39
   4  -8   0 3222.88  103.39
   4  -8  -1  857.71   32.20
  -4   8  -1  898.01   29.70
   4  -8  -1  912.61   30.10
   4   8   1  889.31   30.10
  -4  -8   1  901.91   29.30
   4  -8   1  852.81   31.50
  -4   8   1  885.01   30.00
   4   8  -1  878.81   29.40
   4  -8   1  872.51   29.40
   4  -8  -2 2927.31   94.29
  -4  -8   2 2921.21   89.79
   4  -8  -2 2815.72   91.49
  -4   8  -2 2887.41   90.89
   4   8   2 2776.92   91.59
   4  -8   2 2962.40   92.89
  -4  -8  -2 2684.13   95.29
  -4   8   2 2824.82   91.29
   4  -8   2 2694.93   90.19
   4  -8  -3    6.80    3.00
   4  -8  -3    1.70    1.50
  -4   8  -3    4.70    1.50
   4  -8   3    5.10    1.00
   4  -8   3    6.10    3.10
  -4  -8  -3    5.30    2.10
   4   8  -3    4.80    1.10
   4  -8  -4  521.25   22.10
  -4   8  -4  557.24   18.90
   4  -8   4  484.35   21.10
   4   8  -4  531.45   17.20
  -4  -8  -4  509.75   20.10
   4  -8  -5  304.07   13.20
   4  -8  -5  314.87   15.40
  -4   8  -5  292.87   12.30
   4   8  -5  288.07   10.30
   4  -8   5  311.07   13.10
  -4  -8  -5  302.37   13.40
   4  -8  -6 3201.18  110.49
   4  -8  -6 3419.16  108.59
  -4  -8  -6 3308.37  108.59
   4  -8   6 3298.97  107.19
   4  -8  -7  344.47   15.90
   4  -8  -7  336.77   17.50
  -4  -8  -7  320.17   15.40
   4  -9   0    5.30    2.70
   4  -9   0    4.90    1.40
   4   9   0    5.40    1.90
  -4  -9   0    7.40    2.00
  -4   9   0    5.20    2.00
   4  -9  -1  213.18   11.50
  -4  -9   1  221.18    8.60
   4  -9  -1  223.58    9.30
  -4   9  -1  209.68    8.90
   4   9   1  203.98    9.30
   4  -9   1  219.58   11.30
   4  -9   1  214.28    8.60
   4   9  -1  217.68    8.80
  -4  -9  -1  210.08    9.50
  -4   9  -2   27.30    3.00
   4  -9  -2   25.30    3.20
  -4  -9   2   25.70    2.20
   4  -9  -2   19.80    4.20
   4  -9   2   23.80    2.20
   4   9  -2   26.60    2.70
  -4  -9  -2   21.80    3.30
   4  -9   2   26.70    4.10
   4  -9  -3  188.18   11.10
   4  -9  -3  188.58   10.00
  -4   9  -3  177.38    8.10
   4  -9   3  192.98    7.60
   4  -9   3  184.58    9.80
  -4  -9  -3  182.78    9.30
   4   9  -3  186.78    7.30
  -4   9  -4    0.30    2.30
   4  -9  -4    2.20    3.40
   4  -9  -4    6.50    2.40
   4  -9   4   -3.70    3.00
   4   9  -4    1.30    1.20
  -4  -9  -4    4.10    2.20
   4  -9  -5   29.90    5.60
   4  -9  -5   33.20    4.60
  -4  -9  -5   29.10    4.20
   4  -9   5   27.80    4.40
   4  -9  -6   15.60    4.80
   4  -9  -6   10.20    3.50
  -4  -9  -6   11.90    3.50
   4  -9  -7  157.28   12.50
   4  -9  -7  157.88   10.50
  -4  -9  -7  150.68   11.40
  -4 -10   0 2035.00   65.69
   4  10   0 1995.50   65.59
   4 -10   0 2020.60   65.49
   4 -10   0 1981.70   68.29
   4 -10  -1  223.48    9.60
  -4 -10   1  218.38    8.90
   4 -10  -1  208.48   12.00
   4 -10   1  207.28   11.40
  -4 -10  -1  217.48    9.90
   4  10  -1  212.58    9.10
   4 -10   1  224.68    8.80
   4 -10  -2    6.60    2.20
   4 -10  -2   10.70    3.50
   4  10  -2    7.40    1.90
  -4 -10  -2    9.40    2.60
   4 -10   2   10.90    3.60
   4 -10   2    7.20    1.40
   4 -10  -3    3.20    2.30
   4 -10  -3    3.90    3.40
  -4 -10  -3    0.90    2.40
   4  10  -3   -0.60    1.60
   4 -10   3    2.30    3.20
   4 -10  -4  585.44   21.90
   4 -10  -4  529.55   23.80
  -4 -10  -4  557.74   21.90
   4 -10   4  560.14   22.10
   4 -10  -5  325.77   14.70
   4 -10  -5  307.47   16.40
  -4 -10  -5  301.97   14.20
   4 -10  -6  345.27   18.70
   4 -10  -6  342.27   15.80
  -4 -10  -6  322.87   19.50
   4 -11   0   -0.50    3.30
   4 -11   0    2.20    1.80
  -4 -11   0    3.00    2.30
   4 -11  -1  216.28   12.50
   4 -11  -1  243.78   10.20
   4 -11   1  231.88    9.20
  -4 -11  -1  209.48   10.20
   4  11  -1  213.48    9.70
   4 -11   1  208.18   11.80
   4 -11  -2   15.90    3.10
   4 -11  -2   16.10    4.40
   4 -11   2   18.50    2.50
   4  11  -2   16.40    2.80
  -4 -11  -2   16.10    3.30
   4 -11   2   16.20    4.20
   4 -11  -3  137.29    7.90
   4 -11  -3  104.99    9.10
   4 -11   3  115.49    8.80
  -4 -11  -3  122.29    7.90
   4 -11  -4   -3.80    3.80
   4 -11  -4    0.20    2.70
  -4 -11  -4    1.40    2.80
   4 -11   4    1.00    4.10
   4 -11  -5   59.29    6.40
   4 -11  -5   43.90    7.60
  -4 -11  -5   48.70    6.50
   4 -12   0 1633.14   57.19
  -4 -12   0 1603.64   53.79
  -4 -12   1  458.25   17.10
   4 -12  -1  455.85   20.40
   4 -12   1  428.76   19.70
   4 -12   1  440.06   16.30
  -4 -12  -1  431.56   17.50
   4 -12  -2 1431.36   53.79
   4 -12  -2 1526.75   50.99
   4 -12   2 1489.25   52.59
  -4 -12  -2 1535.55   51.29
   4 -12  -3   -1.70    3.10
   4 -12  -3    1.50    3.90
  -4 -12  -3    6.30    3.10
   4 -12   3    4.30    4.20
   4 -12  -4  243.18   16.10
   4 -12  -4  261.67   13.00
   4 -12   4  266.77   13.40
  -4 -12  -4  263.47   13.30
   4 -13   0    0.30    4.30
  -4 -13   0    2.00    2.60
   4 -13  -1  111.29    7.70
   4 -13  -1  102.89    9.90
   4 -13   1  116.79    9.50
  -4 -13  -1  117.79    7.60
   4 -13  -2   20.70    5.80
   4 -13  -2    9.10    3.70
   4 -13   2   11.00    4.80
  -4 -13  -2   10.80    3.50
   5   0   0    1.70    0.80
  -5   0   0    2.20    0.60
   5   0   0    1.40    0.50
  -5   0  -1  100.99    4.30
  -5   0   1   99.49    3.90
   5   0   1   99.69    4.20
   5   0  -1  102.99    4.60
   5   0  -1   94.69    4.00
   5   0   1  101.89    4.20
   5   0  -2 6111.09  195.88
  -5   0  -2 6274.17  195.68
  -5   0  -3  623.04   20.90
   5   0  -3  612.04   20.20
   5   0   3  578.94   20.70
   5   0  -3  628.64   21.30
  -5   0  -3  636.24   20.90
  -5   0   3  591.34   19.80
   5   0  -4 2371.36   73.69
  -5   0  -4 2287.27   73.19
   5   0   4 2182.08   72.99
   5   0  -4 2237.18   72.39
  -5   0  -5  530.65   18.60
   5   0   5  502.35   18.80
   5   0   5  551.24   18.50
   5   0  -5  518.05   18.90
   5   0  -5  517.35   17.90
  -5   0   5  491.85   16.80
  -5   0   5  510.45   16.70
   5   0   6   27.40    2.90
   5   0  -6   22.20    2.60
  -5   0  -6   31.70    3.40
   5   0   6   21.60    3.00
   5   0  -6   30.90    4.30
   5   0   7  144.19    7.20
  -5   0  -7  146.29    7.60
   5   0  -7  145.99    8.00
   5   0   7  139.69    7.10
   5   0  -7  147.39    7.10
   5   0  -8  767.82   27.70
  -5   0  -8  751.32   27.90
   5   0  -8  782.02   27.80
   5   0   8  784.62   27.30
   5   0  -9   29.80    4.50
   5   0   9   17.30    3.10
   5   0  -9   21.30    4.40
  -5   0  -9   16.00    3.70
   5   1   0    1.40    0.50
   5   1   0    0.40    0.60
  -5   1   0    0.90    0.50
   5  -1   0    0.70    0.50
  -5  -1   0    2.10    0.50
   5  -1   0    0.00    0.90
   5  -1  -1  100.59    4.80
  -5  -1   1   94.19    3.60
  -5   1  -1   98.29    4.20
   5  -1  -1  106.59    4.30
   5   1   1   99.09    4.10
   5   1  -1   90.99    4.20
   5  -1   1   98.79    4.40
  -5  -1  -1   97.59    4.10
  -5   1   1   97.59    4.00
   5  -1   1   94.79    4.10
   5   1  -1   95.39    3.90
  -5  -1  -1  101.39    4.20
  -5   1  -2  795.22   30.00
   5   1   2  892.91   29.50
   5  -1  -2  908.61   29.20
   5  -1  -2  940.61   30.30
   5  -1   2  848.12   29.50
  -5   1   2  862.61   29.30
   5   1  -2  851.31   28.80
   5  -1   2  999.80   29.60
   5   1  -2  884.41   29.50
  -5  -1  -2  988.30   29.60
  -5   1  -3  186.58    7.70
   5   1   3  192.48    7.50
   5  -1  -3  190.38    7.20
   5  -1  -3  197.68    8.60
   5  -1   3  180.28    7.40
  -5  -1  -3  201.88    7.70
   5   1  -3  196.08    7.70
   5   1   4  121.39    5.60
   5  -1  -4  120.69    5.30
   5  -1  -4  128.09    6.70
  -5   1  -4  124.79    5.90
  -5   1  -4  131.59    5.80
  -5   1   4  126.09    4.90
   5   1  -4  126.09    5.90
   5   1  -4  129.19    5.00
   5  -1   4  114.49    5.50
  -5  -1  -4  130.89    5.90
   5   1   5   49.99    3.50
   5  -1  -5   50.29    3.20
  -5   1  -5   53.19    3.80
  -5   1  -5   56.39    3.80
   5  -1  -5   49.40    4.60
   5   1   5   49.80    3.80
  -5   1   5   52.29    2.60
   5  -1   5   55.89    4.00
   5   1  -5   54.89    2.90
  -5  -1  -5   50.19    3.80
   5  -1   5   49.50    3.20
   5   1  -5   45.20    3.80
   5  -1  -6  505.75   20.10
   5   1   6  541.55   19.20
  -5   1  -6  536.25   19.40
   5   1   6  509.35   19.30
   5  -1  -6  544.25   19.00
   5  -1   6  540.25   18.90
  -5  -1  -6  533.55   19.40
   5  -1   6  507.55   18.90
  -5   1   6  527.95   17.90
   5   1  -6  543.95   19.00
  -5   1   6  524.55   17.60
   5   1  -6  526.35   18.40
   5  -1  -7   18.30    3.00
   5   1   7   18.10    3.20
  -5   1  -7   18.30    2.90
   5   1   7   22.40    3.60
   5  -1  -7   16.90    3.50
   5  -1   7   20.10    2.90
   5   1  -7   23.90    3.40
  -5  -1  -7   22.90    3.20
   5   1  -7   14.00    2.30
  -5   1   7   13.90    2.00
   5  -1   7   22.00    2.80
   5   1   8   -0.60    2.30
   5  -1  -8   -0.30    3.10
  -5   1  -8    1.50    2.50
   5  -1   8   -1.60    1.80
  -5  -1  -8    0.30    2.20
   5  -1   8   -2.90    3.00
   5   1  -8    3.40    2.80
   5   1  -8    2.50    2.20
   5   1   9   13.40    3.40
   5  -1  -9    7.30    4.30
   5  -1  -9    2.70    3.50
   5   1  -9    7.10    3.80
  -5  -1  -9   15.00    3.70
  -5   2   0    0.10    0.50
  -5  -2   0    1.60    0.70
   5  -2   0    2.10    1.20
   5  -2   0    0.80    0.50
   5  -2  -1   82.19    3.60
   5  -2  -1   76.99    4.40
  -5   2  -1   72.79    3.50
   5   2   1   83.19    3.50
  -5   2   1   87.69    3.50
  -5  -2  -1   89.89    3.70
   5  -2   1   79.39    4.10
   5  -2   1   77.19    3.50
   5   2  -1   76.59    3.10
   5   2  -1   74.79    3.40
   5  -2  -2 1187.68   39.40
   5  -2  -2 1204.58   40.60
   5   2   2 1180.38   39.40
  -5   2  -2 1217.18   39.70
   5   2  -2 1114.99   38.60
  -5  -2  -2 1309.07   39.60
  -5   2   2 1266.07   39.20
   5  -2   2 1185.98   39.40
   5  -2   2 1271.37   39.80
  -5   2  -3  498.05   17.20
   5  -2  -3  484.75   16.80
   5   2   3  478.65   16.90
   5  -2  -3  482.25   18.20
  -5   2   3  500.55   16.90
   5  -2   3  518.65   17.10
  -5  -2  -3  518.85   17.20
   5   2  -3  467.85   15.90
   5  -2   3  455.75   16.80
  -5   2  -4 2073.59   66.99
   5  -2  -4 2092.09   68.29
   5   2   4 1970.60   66.69
   5   2   4 2090.49   67.59
   5  -2  -4 2046.70   66.59
  -5   2   4 2073.09   65.99
   5   2  -4 2057.69   65.99
   5  -2   4 2172.88   66.69
  -5  -2  -4 2065.79   67.69
   5  -2   4 2022.00   66.49
   5   2   5  297.37   11.40
  -5   2  -5  292.67   11.60
   5   2   5  282.47   11.90
   5  -2  -5  308.57   11.40
  -5  -2  -5  290.07   11.70
   5  -2   5  293.27   11.10
   5  -2   5  288.67   11.50
   5   2  -5  298.17   10.40
   5   2  -5  290.07   10.70
  -5   2   5  301.87   10.60
  -5   2  -6  206.88    9.50
   5  -2  -6  215.38    9.20
   5  -2  -6  241.18   12.30
   5   2   6  203.88    9.50
   5   2   6  213.38    9.20
   5  -2   6  207.78    8.60
  -5  -2  -6  214.38    9.50
   5   2  -6  213.28    8.50
   5   2  -6  211.58    8.30
  -5   2   6  219.38    8.20
   5  -2   6  213.08    8.90
   5  -2  -7   34.10    5.30
   5  -2  -7   36.20    4.00
   5   2   7   39.90    3.90
   5   2  -7   34.70    3.30
  -5   2   7   31.50    2.90
   5   2  -7   37.50    4.10
   5  -2   7   38.70    3.10
   5  -2   7   42.40    3.50
  -5  -2  -7   36.40    3.80
  -5   2   7   33.00    2.70
   5   2   8 1557.74   50.99
   5  -2  -8 1488.75   51.99
   5  -2  -8 1514.05   51.39
  -5  -2  -8 1505.65   51.39
   5  -2   8 1517.75   49.50
  -5   2   8 1444.16   49.10
   5   2  -8 1553.74   50.59
   5  -2  -9   18.70    4.60
   5  -2  -9   22.10    4.50
   5   2   9   23.80    4.00
  -5  -2  -9   35.50    5.00
  -5   3   0    1.60    0.60
   5  -3   0    0.70    1.30
  -5  -3   0    2.90    0.80
   5  -3   0    0.20    0.50
  -5   3  -1  116.29    4.80
   5  -3  -1  113.79    4.80
   5  -3  -1  106.49    5.80
  -5   3   1  116.99    4.70
   5  -3   1  112.39    5.50
   5  -3   1  110.29    4.70
  -5  -3  -1  119.69    4.80
  -5   3  -2  619.64   20.90
   5  -3  -2  626.84   22.40
   5  -3  -2  604.54   20.80
   5  -3   2  603.14   20.70
  -5   3   2  609.44   20.60
  -5  -3  -2  644.44   21.00
   5  -3   2  620.24   21.40
   5   3   3  284.57   10.60
   5  -3  -3  272.97   12.10
  -5   3  -3  287.17   10.80
   5  -3  -3  296.07   10.70
   5   3  -3  275.47    9.30
  -5  -3  -3  290.27   10.90
   5  -3   3  291.47   10.90
  -5   3   3  296.67   10.40
   5  -3   3  284.87   10.40
   5  -3  -4   56.89    3.40
   5   3   4   53.19    3.90
   5   3   4   53.79    3.30
   5  -3  -4   58.19    5.30
  -5   3  -4   54.29    3.70
  -5   3   4   55.99    3.00
   5   3  -4   51.89    2.30
   5  -3   4   53.29    3.50
   5  -3   4   53.79    3.00
  -5  -3  -4   53.19    3.70
   5  -3  -5   70.19    4.30
   5   3   5   64.69    4.90
   5  -3  -5   76.29    5.90
  -5   3  -5   66.99    4.50
   5   3   5   64.39    4.00
  -5   3   5   74.59    3.80
   5  -3   5   75.29    4.30
   5   3  -5   68.29    3.10
   5  -3   5   67.19    3.60
  -5  -3  -5   65.29    4.40
   5  -3  -6  469.05   19.20
   5   3   6  473.85   17.50
  -5   3  -6  462.75   17.60
   5  -3  -6  486.15   17.70
   5  -3   6  454.25   16.40
   5  -3   6  480.25   16.80
  -5  -3  -6  472.95   17.90
  -5   3   6  472.95   16.50
   5   3  -6  465.65   16.20
   5  -3  -7   10.30    3.30
   5  -3   7   10.10    1.60
   5  -3   7   10.80    2.00
  -5  -3  -7    6.10    2.30
   5   3  -7   10.20    1.90
  -5   3   7    9.10    1.80
   5  -3   7   10.10    2.30
   5   3   8    0.40    2.40
   5  -3  -8    3.60    2.80
   5  -3  -8    0.30    3.20
   5   3  -8    2.60    2.30
  -5   3   8    2.10    1.80
  -5  -3  -8    3.10    2.30
   5  -3   8    2.50    1.30
   5  -3   8    3.80    2.30
   5  -3  -9   -1.70    3.80
   5  -3  -9   -1.80    3.80
   5   3   9    2.70    3.00
  -5  -3  -9    2.40    3.50
   5  -3   9    2.40    2.70
  -5   4   0    4.60    0.90
   5  -4   0    7.10    1.90
  -5   4  -1   81.09    3.70
   5  -4  -1   74.69    3.70
   5  -4  -1   73.19    5.10
  -5  -4   1   85.09    3.30
  -5  -4  -1   80.19    3.80
   5  -4   1   76.39    3.60
  -5   4   1   79.99    3.80
   5  -4   1   77.29    4.60
   5  -4  -2 5027.20  165.78
  -5  -4  -2 5473.05  164.18
   5  -4   2 5027.50  164.68
  -5   4  -3  475.75   15.80
   5   4   3  429.96   16.40
   5  -4  -3  456.85   15.80
   5  -4  -3  434.56   17.80
  -5  -4  -3  398.26   16.50
   5  -4   3  454.35   16.20
   5  -4   3  418.16   15.10
  -5   4   3  464.05   15.50
   5  -4  -4 1971.30   63.39
   5   4   4 1887.31   63.89
  -5   4  -4 1970.30   63.39
   5  -4  -4 1935.51   65.39
   5  -4   4 2061.29   63.49
  -5   4   4 1911.61   62.79
   5  -4   4 1891.61   62.39
   5  -4  -5  447.06   16.30
   5  -4  -5  432.86   18.20
   5   4   5  442.06   16.00
   5   4   5  394.56   16.40
  -5   4  -5  431.66   16.30
  -5   4   5  435.06   15.50
  -5  -4  -5  432.56   16.50
   5  -4   5  475.95   16.30
   5   4  -5  409.76   14.30
   5  -4   5  448.36   15.10
   5  -4  -6   28.30    3.70
   5  -4  -6   24.60    4.40
  -5   4  -6   23.60    3.80
   5   4  -6   18.00    2.10
  -5   4   6   21.40    2.70
  -5  -4  -6   25.70    3.30
   5  -4   6   17.50    2.70
   5  -4  -7  115.99    8.50
   5  -4  -7  125.89    7.50
   5   4   7  117.69    6.90
   5   4  -7  119.99    5.80
  -5   4   7  119.19    6.00
  -5  -4  -7  121.29    7.20
   5  -4   7  135.89    7.00
   5  -4   7  119.59    5.00
   5   4   8  712.03   25.50
   5  -4  -8  648.04   27.00
   5  -4  -8  700.43   26.30
  -5  -4  -8  647.44   25.60
   5  -4   8  731.93   25.30
   5  -5   0    0.30    1.60
  -5  -5   0    1.80    0.80
  -5   5   0    0.80    0.80
   5  -5   0    0.50    0.60
  -5   5  -1   32.20    2.30
  -5  -5   1   29.30    1.90
   5  -5  -1   32.40    3.70
   5  -5  -1   31.00    2.30
   5  -5   1   31.20    2.20
   5  -5   1   25.20    3.50
  -5   5   1   32.80    2.40
  -5  -5  -1   29.50    2.40
   5   5   2  767.52   27.50
   5  -5  -2  775.92   27.10
  -5   5  -2  810.82   26.90
   5  -5   2  827.42   28.00
   5  -5   2  795.22   26.60
  -5  -5  -2  830.62   27.20
  -5   5   2  817.52   26.90
   5  -5  -3   81.79    4.50
   5   5   3   87.39    5.00
  -5   5  -3   92.39    4.50
   5  -5  -3   81.99    6.20
   5  -5   3   89.39    5.20
   5  -5   3   83.09    3.90
  -5  -5  -3   82.99    4.70
  -5   5   3   79.79    4.20
   5  -5  -4  163.18    9.70
   5  -5  -4  179.18    7.80
  -5   5  -4  182.18    7.70
   5   5   4  158.98    8.00
   5  -5   4  172.38    6.70
  -5  -5  -4  177.28    8.10
  -5   5   4  169.88    7.40
   5  -5   4  184.18    8.10
   5  -5  -5   23.20    3.20
  -5   5  -5   23.20    3.20
   5  -5  -5   27.90    4.70
   5  -5   5   22.50    3.40
  -5  -5  -5   22.30    3.10
  -5   5   5   18.60    2.80
   5  -5   5   22.20    1.80
   5   5  -5   22.50    1.30
   5  -5  -6  421.76   18.70
  -5   5  -6  425.46   16.70
   5  -5  -6  428.56   17.10
   5   5   6  424.76   16.20
  -5  -5  -6  424.16   16.90
   5   5  -6  429.76   14.60
   5  -5   6  440.36   14.40
   5  -5   6  416.66   16.20
   5  -5  -7   21.00    4.50
   5   5   7   20.10    3.40
   5  -5  -7   29.00    4.60
   5  -5   7   23.80    3.40
  -5  -5  -7   17.90    3.30
   5  -5  -8    5.10    3.90
   5   5   8    5.20    2.70
   5  -5  -8    8.50    3.40
  -5  -5  -8    2.00    2.70
   5  -5   8    5.30    2.80
   5  -6   0   -0.70    1.90
  -5   6   0    5.10    1.20
  -5   6  -1   78.09    4.00
   5  -6  -1   77.59    4.10
   5   6   1   79.59    4.50
  -5  -6   1   78.69    3.40
   5  -6  -1   76.09    5.90
   5  -6   1   79.59    5.40
  -5   6   1   77.69    4.00
  -5  -6  -1   78.99    4.20
   5  -6   1   71.99    3.80
   5  -6  -2  831.02   30.70
  -5   6  -2  889.71   28.30
   5   6   2  797.32   28.80
   5  -6  -2  853.01   28.60
  -5   6   2  845.22   28.30
   5  -6   2  853.21   29.60
   5  -6   2  822.22   27.80
   5   6   3  309.37   13.00
  -5   6  -3  342.77   12.40
   5  -6  -3  333.07   15.00
   5  -6  -3  340.57   12.80
   5  -6   3  322.07   11.70
  -5   6   3  323.77   12.40
   5  -6   3  347.17   13.50
   5  -6  -4 1491.65   51.89
   5   6   4 1394.36   49.70
   5  -6  -4 1532.95   49.50
  -5   6  -4 1436.86   48.80
  -5  -6  -4 1544.55   49.70
   5  -6   4 1471.15   47.70
  -5   6   4 1508.75   48.80
   5  -6  -5  218.28   11.90
  -5   6  -5  220.78    9.70
   5  -6  -5  214.78   10.10
   5  -6   5  222.68    7.90
  -5  -6  -5  216.08   10.20
   5  -6   5  219.38   10.00
   5  -6  -6  162.78    8.60
   5  -6  -6  160.18   10.50
   5   6   6  164.68    8.10
  -5  -6  -6  152.28    8.50
   5  -6   6  169.58    9.70
   5  -6  -7   33.40    4.80
   5  -6  -7   27.50    5.40
   5  -6   7   27.20    4.00
  -5  -6  -7   23.20    4.00
   5  -6  -8 1208.38   43.60
   5   6   8 1219.08   42.30
   5  -6  -8 1171.28   44.90
   5  -6   8 1297.87   42.40
  -5  -6  -8 1181.28   43.10
   5  -7   0    0.30    0.90
   5  -7   0   -0.40    2.10
  -5   7   0    1.60    1.20
  -5  -7   0    1.10    1.00
   5   7   0    2.60    1.20
   5  -7  -1   75.69    7.00
   5   7   1   73.79    4.50
  -5   7  -1   87.09    4.40
   5  -7  -1   77.49    4.40
  -5  -7   1   78.49    3.70
   5  -7   1   89.29    4.20
   5   7  -1   79.29    4.40
   5  -7   1   84.69    6.10
  -5  -7  -1   82.89    4.60
  -5   7   1   87.29    4.40
   5  -7  -2  257.67   10.20
   5  -7  -2  254.37   12.40
   5   7   2  224.98   10.20
  -5   7  -2  255.17    9.70
   5  -7   2  232.38   11.60
  -5   7   2  253.57    9.90
   5   7  -2  256.07   10.60
   5  -7   2  250.47    9.30
  -5  -7  -2  250.47   10.20
  -5   7  -3  289.07   10.60
   5  -7  -3  274.07   10.90
   5   7   3  254.47   11.20
   5  -7  -3  244.88   12.90
  -5  -7  -3  268.37   11.20
   5  -7   3  264.17    9.60
   5  -7   3  263.87   11.70
  -5   7   3  258.87   10.60
   5   7  -3  255.37    9.10
   5  -7  -4   17.80    4.10
  -5   7  -4   13.20    2.30
   5  -7  -4   11.60    2.40
  -5  -7  -4   10.90    2.60
   5  -7   4   10.30    1.60
   5  -7   4   15.50    3.10
   5   7  -4   13.70    1.00
   5  -7  -5   64.09    5.00
   5  -7  -5   64.79    7.20
  -5   7  -5   67.59    5.20
   5  -7   5   67.99    5.70
  -5  -7  -5   62.99    5.00
   5  -7   5   64.89    3.10
   5  -7  -6  338.17   14.40
   5  -7  -6  312.47   16.20
  -5  -7  -6  306.27   13.90
   5  -7   6  321.77   13.90
   5  -7  -7    8.80    3.60
   5  -7  -7   11.70    4.20
   5   7   7    7.90    2.50
   5  -7   7   11.20    3.80
  -5  -7  -7    4.10    2.70
   5   7   8    5.90    3.30
   5  -7  -8    2.90    4.00
   5  -8   0   -0.70    1.00
   5  -8   0    0.20    2.40
   5   8   0   -0.40    1.40
  -5   8   0    1.90    1.20
  -5   8  -1   46.60    3.50
  -5  -8   1   47.50    2.90
   5  -8  -1   47.70    5.40
   5   8   1   43.10    3.70
   5  -8  -1   43.80    3.40
  -5  -8  -1   48.60    3.70
   5  -8   1   45.30    3.00
  -5   8   1   44.60    3.40
   5   8  -1   41.40    3.30
   5   8   2 3156.38  105.19
  -5   8  -2 3284.87  104.59
   5  -8  -2 3221.38  107.89
   5  -8  -2 3254.17  105.09
  -5  -8   2 3352.46  103.19
   5  -8   2 3331.97  106.59
  -5  -8  -2 3305.07  105.29
   5  -8   2 3205.38  104.09
  -5   8  -3  248.08    9.90
   5  -8  -3  241.48   10.50
   5  -8  -3  237.28   12.70
   5  -8   3  242.58   11.40
  -5  -8  -3  234.88   10.60
   5  -8   3  242.38    9.00
  -5   8  -4 1203.38   41.10
   5  -8  -4 1279.57   42.20
   5  -8  -4 1185.18   44.60
  -5  -8  -4 1237.28   42.20
   5   8  -4 1190.48   39.10
   5  -8   4 1212.08   39.40
   5  -8   4 1275.27   42.70
   5  -8  -5  281.67   15.20
   5  -8  -5  299.57   13.00
  -5  -8  -5  301.57   13.20
   5  -8   5  277.07   14.60
   5   8  -5  298.07    9.80
   5  -8  -6   18.60    4.70
   5  -8  -6   30.00    5.20
   5  -8   6   14.20    3.80
  -5  -8  -6   20.00    3.80
   5   8   7   96.39    7.10
   5  -8  -7   74.09    7.20
   5  -8  -7   91.09   10.20
   5  -8   7   82.99    7.50
  -5  -8  -7   86.29    7.90
  -5  -9   0    0.90    1.50
   5  -9   0   -0.90    3.00
   5  -9   0    2.70    1.40
   5   9   0    0.80    1.50
   5  -9  -1    7.70    3.10
  -5  -9   1    9.50    1.70
   5  -9  -1    9.30    1.90
   5   9   1    9.60    2.20
   5  -9   1    7.40    1.50
   5   9  -1    7.50    1.90
   5  -9   1   10.80    3.30
  -5  -9  -1    5.10    2.00
   5  -9  -2  567.04   23.60
  -5   9  -2  643.54   23.50
   5  -9  -2  562.54   20.70
  -5  -9  -2  550.14   20.70
   5   9  -2  539.95   19.40
   5  -9   2  545.05   22.10
   5  -9   2  556.74   19.50
   5  -9  -3   15.20    2.80
   5  -9  -3   23.80    4.60
   5  -9   3   25.40    4.30
   5  -9   3   25.40    2.20
   5   9  -3   22.30    2.40
  -5  -9  -3   20.80    3.30
   5  -9  -4  165.08    8.50
   5  -9  -4  157.28   10.60
  -5  -9  -4  159.28    8.60
   5  -9   4  163.58    9.40
   5   9  -4  160.48    6.20
   5  -9   4  150.78    6.40
   5  -9  -5    6.60    4.10
   5  -9  -5   11.90    3.40
  -5  -9  -5    5.70    2.40
   5  -9   5    6.40    3.40
   5  -9  -6  315.87   14.60
   5  -9  -6  292.77   16.50
   5  -9   6  291.77   14.00
  -5  -9  -6  288.17   13.90
   5 -10   0    2.20    3.10
   5 -10   0    0.50    1.50
   5  10   0    1.30    2.10
  -5 -10   0    0.80    1.80
   5 -10  -1   43.90    3.90
   5 -10  -1   45.40    5.80
  -5 -10   1   45.80    3.60
   5 -10   1   47.10    3.50
   5  10  -1   40.90    4.10
   5 -10   1   43.00    6.30
  -5 -10  -1   44.40    4.20
   5 -10  -2  440.56   19.60
   5 -10  -2  423.96   18.00
   5 -10   2  403.26   18.20
   5  10  -2  427.96   15.50
   5 -10   2  441.16   15.40
  -5 -10  -2  438.06   16.90
   5 -10  -3  183.18    9.30
   5 -10  -3  169.38   11.40
   5  10  -3  175.78    7.50
  -5 -10  -3  178.08    9.20
   5 -10   3  179.98   10.40
   5 -10   3  188.78    7.10
   5 -10  -4  835.02   33.90
   5 -10  -4  897.71   31.30
   5 -10   4  837.12   31.40
  -5 -10  -4  833.02   30.90
   5 -10  -5  146.99    8.90
   5 -10  -5  127.39   11.00
  -5 -10  -5  127.39    8.30
   5 -10   5  145.49    9.80
   5 -10  -6  109.89    9.10
   5 -10  -6  101.89   11.40
  -5 -10  -6  101.39    8.20
  -5 -11   0   -2.00    1.90
   5 -11   0   -2.70    3.70
   5 -11   0    0.10    1.80
   5 -11  -1   54.49    7.30
  -5 -11   1   53.79    5.20
   5 -11  -1   52.19    5.50
   5  11  -1   60.39    5.20
   5 -11   1   66.69    4.30
  -5 -11  -1   54.19    4.80
   5 -11   1   70.99    7.50
   5 -11  -2   88.49    8.60
   5 -11   2   95.69    4.90
   5  11  -2   79.29    5.60
   5 -11   2   81.59    8.10
  -5 -11  -2   85.19    6.00
   5 -11  -3  178.28   12.30
   5 -11  -3  216.08   10.50
   5 -11   3  205.68   11.90
  -5 -11  -3  187.98    9.90
   5 -11  -4    3.20    4.30
   5 -11  -4    8.50    3.40
  -5 -11  -4   -0.60    2.30
   5 -11   4   -3.40    4.00
   5 -11  -5   37.60    7.40
   5 -11  -5   45.10    7.00
  -5 -11  -5   50.79    6.70
   5 -11   5   58.69    7.50
   5 -12   0    6.30    4.50
   5 -12   0    8.90    2.70
   5 -12  -1   39.20    4.80
   5 -12  -1   32.80    6.10
  -5 -12  -1   27.10    3.70
   5 -12   1   25.30    3.60
   5 -12   1   23.30    5.10
   5 -12  -2 1720.63   57.59
   5 -12  -2 1639.44   60.89
   5 -12   2 1770.02   59.79
  -5 -12  -2 1691.63   57.39
   5 -12  -3  125.69   10.90
   5 -12  -3  139.99    8.30
  -5 -12  -3  133.49    8.30
   5 -12   3  119.29    9.90
   5 -12  -4  692.53   26.20
   5 -12  -4  622.74   29.80
   5 -12   4  672.63   26.50
  -5 -12  -4  653.23   25.70
   5 -13   0   -2.60    3.10
   5 -13   0   -4.10    4.10
  -5 -13   0    2.30    2.70
   5 -13  -1    2.60    4.50
   5 -13  -1   -4.60    3.00
  -5 -13  -1   -1.60    2.60
   5 -13   1    7.50    4.70
   6   0   0  300.17   10.70
   6   0   0  286.87   10.40
  -6   0   0  292.07   10.30
   6   0  -1   45.30    2.40
  -6   0  -1   46.20    2.60
   6   0  -1   46.00    3.10
   6   0   1   46.40    2.60
  -6   0   1   45.50    2.30
   6   0  -2    2.00    0.70
  -6   0  -2    2.50    0.90
  -6   0   2    2.70    0.70
   6   0   2    1.70    0.80
   6   0  -2    3.10    1.40
   6   0  -3  117.29    4.70
   6   0   3  108.39    5.10
   6   0  -3  101.79    5.80
  -6   0  -3  114.69    5.30
  -6   0   3  115.89    4.30
  -6   0  -3  119.09    5.40
   6   0  -4   46.30    2.60
   6   0  -4   44.80    4.30
   6   0   4   47.90    3.20
  -6   0  -4   45.50    3.30
   6   0   5  740.83   24.90
  -6   0   5  679.13   22.80
   6   0  -5  744.03   25.50
  -6   0   5  698.23   22.80
   6   0  -5  709.83   24.10
   6   0   6  574.54   21.30
   6   0  -6  589.04   20.40
   6   0  -6  566.74   21.50
  -6   0  -6  600.24   21.30
   6   0   6  585.04   21.00
   6   0  -7   19.70    3.10
   6   0   7   19.60    3.30
   6   0  -7   28.00    4.10
   6   0  -8   13.00    3.10
   6   0  -8    9.10    3.70
   6   0   8   11.10    2.70
  -6   0  -8   16.60    3.30
  -6   0  -9  410.46   17.90
   6   0  -9  425.86   17.80
   6   0   9  439.06   18.10
   6   0  -9  402.86   17.20
   6   1   0  588.64   19.20
  -6   1   0  575.14   19.20
   6  -1   0  556.34   19.20
   6   1   0  571.94   19.10
   6  -1   0  587.34   19.90
  -6  -1   0  558.24   19.10
   6  -1  -1  125.39    5.00
  -6  -1   1  123.19    4.50
  -6   1  -1  117.89    5.60
   6  -1  -1  117.89    5.80
   6   1   1  117.59    5.00
   6   1  -1  124.79    4.80
  -6  -1  -1  123.19    5.00
   6  -1   1  119.59    5.10
  -6   1   1  122.59    4.80
   6  -1   1  122.99    5.40
   6   1  -1  112.59    5.10
   6  -1  -2  707.43   23.00
   6   1   2  694.73   23.30
  -6  -1   2  674.63   22.20
   6  -1  -2  668.73   24.00
  -6   1  -2  715.43   23.50
  -6  -1  -2  720.93   23.40
  -6   1   2  699.73   22.70
   6   1  -2  704.73   23.40
   6  -1   2  664.83   23.30
   6   1  -2  661.03   22.70
   6  -1   2  708.93   23.30
   6  -1  -3   45.90    2.60
   6  -1  -3   45.40    4.10
   6   1   3   43.20    2.80
  -6   1  -3   43.50    3.00
   6  -1   3   45.40    2.80
  -6   1   3   44.90    2.30
   6   1  -3   39.30    3.40
   6   1  -3   45.30    2.30
  -6  -1  -3   46.70    3.00
   6  -1  -4    5.00    2.40
  -6   1  -4    3.00    1.40
   6   1   4    2.00    1.00
   6  -1  -4    3.90    1.00
   6   1  -4    4.40    2.00
   6  -1   4    3.40    1.20
   6   1  -4    4.30    0.90
  -6   1   4    6.30    1.10
   6   1   5   98.79    6.10
   6  -1  -5  103.29    6.80
  -6   1  -5   99.49    5.50
   6   1   5  103.09    5.30
  -6   1  -5  101.09    5.70
   6  -1  -5  110.29    5.10
   6   1  -5  105.29    4.60
   6   1  -5  105.69    6.00
  -6   1   5  106.79    4.30
   6  -1   5   97.49    5.10
  -6  -1  -5  100.19    5.50
   6  -1  -6  290.37   11.50
   6   1   6  289.57   11.80
   6   1   6  264.47   12.10
   6  -1  -6  294.87   13.10
  -6   1  -6  287.37   12.10
   6  -1   6  301.27   11.70
   6  -1   6  305.57   12.10
  -6  -1  -6  293.07   12.00
   6   1  -6  292.67   11.00
   6   1  -6  306.17   12.00
  -6   1   6  291.37   10.40
   6  -1  -7    8.60    3.30
  -6   1  -7    7.60    2.40
   6   1   7    6.90    2.10
   6  -1  -7    6.00    2.10
   6   1  -7    4.50    1.90
  -6   1   7    7.10    1.30
   6  -1   7    6.90    2.00
   6   1  -7   10.10    3.20
  -6  -1  -7   14.00    2.60
   6  -1   7    7.30    2.20
   6   1   8  133.19    7.60
   6  -1  -8  130.39    8.60
   6  -1  -8  128.29    7.80
  -6  -1  -8  129.39    7.80
   6   1  -8  136.79    7.40
   6   1  -8  118.89    7.70
   6  -1   8  127.39    7.00
   6  -1  -9   51.99    6.50
   6   1   9   60.79    5.80
   6  -1  -9   53.79    6.90
   6   1  -9   36.90    6.50
  -6  -1  -9   52.99    6.40
  -6   2   0 1516.65   50.29
   6   2   0 1543.25   49.99
   6  -2   0 1642.34   51.39
   6  -2   0 1549.45   50.39
   6  -2  -1 3836.02  122.19
   6   2  -1 3674.53  120.79
   6  -2   1 3858.91  121.69
  -6  -2  -1 3893.71  120.99
   6   2   2  447.46   15.90
   6  -2  -2  461.95   15.90
   6  -2  -2  462.85   17.30
  -6   2  -2  477.85   16.20
  -6  -2  -2  477.65   16.10
   6   2  -2  443.76   15.80
  -6   2   2  485.85   15.70
   6   2  -2  438.76   15.30
   6  -2   2  494.85   16.50
   6  -2   2  420.06   15.90
   6  -2  -3   16.30    2.80
   6   2   3   15.30    1.70
   6  -2  -3   12.20    1.50
  -6   2  -3   14.90    2.10
   6  -2   3   15.50    2.10
  -6  -2  -3   13.50    2.00
   6   2  -3   17.80    1.50
  -6   2   3   12.60    1.40
   6  -2   3   18.30    1.90
   6   2  -3   12.20    2.00
   6  -2  -4  592.14   22.10
   6  -2  -4  608.34   20.40
  -6   2  -4  589.74   20.80
   6   2   4  591.14   20.60
   6  -2   4  506.05   20.90
   6  -2   4  583.24   20.40
  -6   2   4  591.64   19.80
  -6  -2  -4  599.34   20.70
   6   2  -4  635.14   19.50
   6   2  -4  591.14   20.10
   6  -2  -5 1099.39   39.00
   6   2   5 1105.39   38.20
  -6   2  -5 1118.49   37.70
   6  -2  -5 1123.69   37.20
   6   2   5 1114.09   37.40
   6   2  -5 1075.49   36.10
  -6   2   5 1127.49   36.30
   6   2  -5 1116.69   36.60
   6  -2   5 1109.19   37.10
   6  -2   5 1172.68   37.30
  -6  -2  -5 1092.09   37.50
   6  -2  -6  194.08   12.00
   6   2   6  213.88    9.50
   6   2   6  221.28   11.00
  -6   2  -6  224.28   13.10
   6  -2  -6  228.08    9.50
  -6  -2  -6  223.48    9.90
   6  -2   6  215.38    9.10
   6   2  -6  225.18    9.00
   6  -2   6  226.18    9.60
   6   2  -6  221.08    8.50
  -6   2   6  227.68    8.30
   6  -2  -7 1140.09   40.30
   6  -2  -7 1184.68   39.10
   6   2   7 1091.39   39.80
   6  -2   7 1166.48   38.10
  -6  -2  -7 1129.59   39.10
  -6   2   7 1078.99   37.30
   6   2  -7 1092.69   37.50
   6   2  -7 1171.58   37.90
   6  -2   7 1119.59   38.20
  -6   2   7 1182.38   37.10
   6   2   8   78.89    6.10
   6  -2  -8   68.79    6.20
   6  -2  -8   78.39    7.60
   6   2  -8   88.39    5.80
   6  -2   8   77.99    5.10
  -6  -2  -8   82.79    6.30
   6   2   9  107.39    7.70
   6  -2  -9  104.99    9.00
   6  -2  -9   98.99    8.50
   6  -2   9  113.99    7.20
  -6  -2  -9  103.49    8.10
   6  -3   0  274.27   10.60
   6   3   0  295.17   10.20
  -6  -3   0  307.67   10.40
   6  -3   0  297.77   11.80
  -6   3   0  297.47   10.60
   6  -3  -1   38.20    3.60
  -6   3  -1   36.60    2.40
   6   3   1   34.20    2.10
   6  -3  -1   40.30    2.40
  -6  -3  -1   33.20    2.30
   6   3  -1   34.50    2.10
   6  -3   1   35.00    3.20
   6  -3   1   41.80    2.40
  -6   3   1   36.90    2.30
   6  -3  -2  484.65   19.10
  -6   3  -2  546.05   17.80
   6  -3  -2  501.35   17.60
   6   3   2  507.05   17.50
  -6   3   2  535.05   17.40
   6  -3   2  482.75   17.40
   6   3  -2  484.75   16.60
   6  -3   2  515.35   18.30
  -6  -3  -2  527.85   17.70
   6   3   3   39.00    2.60
   6  -3  -3   38.80    2.70
   6  -3  -3   34.70    4.60
  -6   3  -3   35.90    2.80
   6  -3   3   39.20    3.10
   6   3  -3   33.20    1.80
  -6   3   3   39.30    2.40
  -6  -3  -3   37.40    2.90
   6  -3   3   36.30    2.50
   6  -3  -4   15.40    2.00
   6   3   4   13.80    2.60
  -6   3  -4   15.60    2.30
   6  -3  -4   13.50    3.10
   6   3   4   14.90    1.90
   6  -3   4   12.60    1.70
   6   3  -4   13.90    1.40
  -6  -3  -4   15.00    2.20
  -6   3   4   11.70    1.70
   6  -3  -5   50.69    3.60
   6   3   5   43.10    4.10
   6   3   5   45.00    3.40
  -6   3  -5   46.60    4.10
  -6   3   5   50.49    3.10
   6  -3   5   50.69    3.80
   6   3  -5   48.00    2.50
   6  -3   5   46.90    3.10
  -6  -3  -5   54.99    4.10
   6  -3  -6  155.58    9.60
   6  -3  -6  167.48    7.90
   6   3   6  161.18    7.80
   6  -3   6  173.18    7.80
   6  -3   6  170.28    7.70
   6   3  -6  157.78    6.50
  -6  -3  -6  170.58    8.20
  -6   3   6  167.68    6.90
   6  -3   6  167.78    7.10
   6  -3  -7   24.90    4.20
   6   3   7   26.90    3.90
   6  -3  -7   31.50    5.00
  -6  -3  -7   24.00    3.50
   6  -3   7   31.10    3.60
   6   3  -7   26.60    2.90
   6  -3   7   31.90    2.90
   6  -3   7   26.30    3.40
  -6   3   7   29.50    2.80
   6  -3  -8   79.79    6.40
   6  -3  -8   79.19    8.00
   6   3   8   85.09    6.30
  -6  -3  -8   81.99    6.30
   6   3  -8   92.69    5.80
   6  -3   8   82.89    4.60
  -6   3   8   70.39    4.90
   6  -3   8   87.39    5.90
   6  -3  -9   36.90    5.80
   6  -3  -9   42.00    6.20
   6   3   9   49.50    6.10
   6  -3   9   54.09    5.60
  -6  -3  -9   42.70    6.20
   6  -4   0  237.08    9.10
  -6  -4   0  255.87    8.80
  -6   4   0  246.98    9.10
   6  -4   0  231.88   10.40
   6  -4  -1   41.10    2.60
   6  -4  -1   43.50    4.30
  -6   4   1   39.20    2.50
   6  -4   1   50.89    3.90
   6  -4   1   44.20    2.60
  -6   4  -2    6.70    1.40
   6  -4  -2    5.70    2.10
   6  -4   2    7.20    1.80
  -6   4   2    3.90    1.00
  -6  -4  -2    8.20    1.60
   6   4   3   89.99    4.50
   6  -4  -3   89.39    4.70
  -6   4  -3  100.19    4.90
   6  -4  -3   87.39    6.30
   6   4  -3   89.49    3.30
   6  -4   3   93.59    5.40
  -6   4   3   95.49    4.50
  -6  -4  -3   95.49    4.90
   6  -4   3   93.39    4.40
   6   4   4   44.00    3.90
   6  -4  -4   43.00    6.00
   6   4   4   45.50    3.20
  -6   4  -4   46.50    3.70
   6  -4  -4   47.50    3.40
   6  -4   4   42.20    3.60
  -6  -4  -4   45.10    3.50
   6  -4   4   41.80    2.80
   6   4  -4   40.50    1.90
  -6   4   4   48.80    3.00
   6  -4  -5  616.14   24.60
   6  -4  -5  605.94   22.30
   6   4   5  622.74   22.10
  -6   4  -5  653.73   22.70
   6  -4   5  619.24   21.30
  -6  -4  -5  614.64   22.50
  -6   4   5  636.54   21.50
   6   4  -5  598.94   20.40
   6  -4   5  670.33   22.60
   6  -4  -6  539.75   19.50
   6  -4  -6  504.85   21.20
  -6   4   6  480.55   17.90
   6  -4   6  513.85   18.30
   6   4  -6  494.95   17.20
   6  -4   6  538.75   19.10
  -6  -4  -6  494.65   19.30
   6  -4   6  524.35   17.80
   6  -4  -7   18.90    3.40
   6  -4  -7   22.40    4.60
   6   4   7   19.10    3.10
  -6  -4  -7   20.10    3.50
   6   4  -7   22.90    2.70
   6  -4   7   14.90    2.60
   6  -4   7   23.80    2.40
   6  -4   7   14.80    3.20
   6  -4  -8   15.80    3.90
   6   4   8    7.60    3.00
   6  -4  -8    6.80    3.80
  -6  -4  -8    6.00    3.00
   6  -4   8   10.20    3.20
  -6  -5   0  670.93   21.50
  -6   5   0  644.14   21.80
   6  -5   0  628.34   23.50
   6  -5   0  627.14   21.90
   6  -5  -1  170.68    7.00
  -6   5  -1  165.08    6.80
  -6  -5   1  169.88    6.20
   6  -5  -1  131.79    9.60
   6  -5   1  162.88    6.70
  -6   5   1  161.88    6.70
  -6  -5  -1  176.08    6.80
   6  -5   1  165.38    8.20
   6  -5  -2  640.34   22.20
   6  -5  -2  614.14   24.10
  -6   5  -2  637.44   21.90
   6  -5   2  632.94   21.70
  -6   5   2  639.94   21.80
  -6  -5  -2  661.03   22.10
   6  -5   2  656.03   23.20
   6  -5  -3   34.70    2.90
  -6   5  -3   34.30    2.80
   6  -5  -3   36.20    7.20
   6   5   3   38.20    3.80
   6  -5   3   38.60    2.50
  -6   5   3   39.80    2.70
   6  -5   3   36.50    4.20
  -6  -5  -3   39.40    3.30
   6   5   4    0.50    1.80
  -6   5  -4    2.00    1.40
   6  -5  -4    8.80    3.30
   6  -5  -4    0.90    1.30
   6  -5   4    0.90    1.70
   6  -5   4    0.80    0.90
  -6  -5  -4    2.30    1.50
  -6   5   4    2.00    1.20
  -6   5  -5  145.99    7.50
   6   5   5  149.39    7.00
   6  -5  -5  139.79    9.10
   6  -5  -5  141.39    7.30
   6  -5   5  141.29    5.90
  -6  -5  -5  138.19    7.40
  -6   5   5  145.19    6.60
   6   5  -5  138.79    5.00
   6   5   6  359.26   14.30
   6  -5  -6  330.07   16.40
   6  -5  -6  394.26   15.10
   6  -5   6  369.56   13.40
   6  -5   6  350.26   12.70
   6   5  -6  346.87   12.80
   6  -5   6  381.46   14.80
  -6  -5  -6  352.16   14.70
   6   5   7    5.90    2.40
   6  -5  -7    5.80    3.90
   6  -5  -7   -2.00    2.20
   6  -5   7    0.10    2.30
  -6  -5  -7   -0.50    2.20
   6   5  -7   -0.60    1.50
   6  -5   7    1.30    1.10
   6   5   8  141.49    8.50
   6  -5  -8  152.58   10.90
   6  -5  -8  150.38    9.80
  -6  -5  -8  141.99    9.10
   6  -5   8  155.78    8.80
   6  -6   0 1124.69   38.60
  -6   6   0 1152.58   38.50
   6  -6   0 1181.48   40.80
  -6  -6   0 1224.68   38.20
  -6  -6   1 2907.11   86.29
   6  -6  -1 2717.43   89.59
   6  -6  -1 2557.54   87.19
  -6   6  -1 2820.02   87.19
   6  -6   1 2619.84   86.99
  -6  -6  -1 2796.22   86.99
   6  -6   1 2595.04   89.09
  -6   6   1 2716.63   87.09
  -6   6  -2  299.37   11.20
   6   6   2  282.47   11.90
   6  -6  -2  290.27   11.40
   6  -6  -2  264.37   17.70
   6  -6   2  302.97   10.90
   6  -6   2  296.27   12.70
  -6  -6  -2  300.47   11.40
  -6   6   2  302.27   11.20
  -6   6  -3   17.10    2.50
   6  -6  -3   10.00    3.10
   6  -6  -3   15.40    2.20
   6  -6   3   11.60    2.60
  -6  -6  -3   13.40    2.30
   6  -6   3   14.50    1.70
  -6   6   3    9.70    1.70
  -6   6  -4  428.46   15.70
   6  -6  -4  410.16   18.40
   6  -6  -4  421.76   15.90
   6  -6   4  432.36   16.50
   6  -6   4  412.76   14.50
  -6   6   4  389.06   15.10
  -6  -6  -4  409.36   15.90
   6  -6  -5  791.72   31.30
   6  -6  -5  836.92   30.40
  -6   6  -5  783.52   28.50
   6  -6   5  793.22   26.80
  -6  -6  -5  787.82   28.80
   6  -6   5  872.41   29.20
   6  -6  -6  162.28   10.60
   6   6   6  171.98    8.30
   6  -6  -6  182.18    9.00
  -6  -6  -6  168.28    8.90
   6   6  -6  166.58    6.40
   6  -6   6  171.28    6.50
   6  -6   6  168.78    8.90
   6  -6  -7  928.01   33.00
   6  -6  -7  872.81   34.80
   6   6   7  867.31   31.80
  -6  -6  -7  845.22   32.40
   6  -6   7  979.80   32.50
   6  -6  -8   69.89    9.40
   6  -6  -8   72.89    7.90
   6   6   8   60.19    6.30
   6  -6   8   73.99    7.20
  -6  -6  -8   59.79    7.00
   6  -7   0   80.29    4.20
   6   7   0   74.99    4.60
  -6  -7   0   79.49    4.00
  -6   7   0   70.09    4.10
   6   7   1    7.60    1.80
   6  -7  -1    1.90    1.10
   6  -7  -1    1.90    2.50
  -6   7  -1    1.90    1.10
  -6   7   1    4.40    1.30
  -6  -7  -1    4.60    1.60
   6  -7   1    1.20    2.20
   6  -7   1    2.00    1.10
   6   7   2  226.98   10.30
   6  -7  -2  233.38   12.30
  -6   7  -2  250.27    9.90
   6  -7  -2  257.27   10.20
   6  -7   2  259.67    9.50
  -6   7   2  249.38    9.90
   6  -7   2  242.28   11.50
  -6  -7  -2  242.78   10.00
  -6   7  -3   21.30    3.00
   6  -7  -3   18.40    4.30
   6  -7  -3   24.80    3.00
   6   7   3   17.70    3.20
   6  -7   3   22.90    3.70
  -6  -7  -3   22.90    3.00
   6  -7   3   20.00    2.10
  -6   7  -4   17.70    2.80
   6  -7  -4   16.20    4.10
   6  -7   4   13.20    4.10
  -6  -7  -4   20.00    3.00
   6  -7   4   19.90    2.00
   6  -7  -5   13.00    4.40
   6  -7  -5   11.50    2.60
   6  -7   5    9.40    1.70
  -6  -7  -5   15.30    3.00
   6  -7   5   16.80    3.50
   6  -7  -6   58.89    5.30
   6   7   6   68.69    5.30
   6  -7  -6   64.49    7.80
  -6  -7  -6   56.19    5.20
   6  -7   6   62.59    6.40
   6   7   7   33.90    5.10
   6  -7  -7   46.60    7.10
   6  -7  -7   51.89    6.00
   6  -7   7   57.29    6.60
  -6  -7  -7   46.20    5.40
   6   8   0  140.79    6.70
   6  -8   0  134.39    6.40
  -6  -8   0  146.99    6.20
  -6   8   0  127.09    6.40
   6  -8   0  137.99    8.70
  -6   8  -1   26.40    3.10
   6  -8  -1   27.10    3.00
  -6  -8   1   27.40    2.30
   6   8   1   20.60    3.00
   6  -8  -1   36.40    5.60
  -6  -8  -1   28.30    3.00
   6  -8   1   31.20    2.70
   6   8  -1   37.30    3.10
   6  -8   1   29.00    4.50
   6  -8  -2    4.20    1.60
  -6  -8   2    5.30    1.50
   6  -8  -2    7.60    3.70
  -6   8  -2    5.20    1.70
   6   8   2    2.70    2.40
   6  -8   2    7.10    1.40
   6  -8   2    7.40    2.90
  -6  -8  -2    4.20    1.70
   6   8  -2    9.30    1.80
   6  -8  -3   53.99    6.90
   6  -8  -3   56.49    4.40
  -6   8  -3   48.70    4.50
   6  -8   3   51.69    5.60
  -6  -8  -3   54.09    4.30
   6   8  -3   51.79    3.40
   6  -8   3   55.19    3.30
   6  -8  -4   30.40    5.50
   6  -8  -4   38.40    4.10
  -6  -8  -4   34.20    4.10
   6  -8   4   30.70    2.40
   6  -8   4   31.20    4.60
   6   8  -4   29.00    2.10
   6  -8  -5  399.06   19.50
   6  -8  -5  411.36   16.90
   6  -8   5  414.36   17.20
  -6  -8  -5  400.96   16.60
   6  -8  -6  343.77   15.10
   6  -8  -6  312.77   17.10
   6  -8   6  347.77   15.10
  -6  -8  -6  325.17   14.70
   6  -8  -7   10.20    5.80
   6  -8  -7   22.60    4.70
   6   8   7   13.20    3.50
  -6  -8  -7    8.50    3.80
   6  -8   7   16.30    4.40
  -6  -9   0  498.45   17.50
   6   9   0  474.15   18.00
   6  -9   0  502.15   20.90
   6  -9   0  491.45   17.90
  -6  -9   1  156.08    6.30
   6  -9  -1  142.99    9.90
   6   9   1  145.79    7.60
   6  -9  -1  157.38    7.40
   6  -9   1  146.69    9.20
   6   9  -1  146.29    7.00
   6  -9   1  150.78    7.00
   6  -9  -2  447.76   16.90
   6  -9  -2  421.16   19.60
  -6  -9  -2  457.65   16.80
   6  -9   2  429.86   18.60
   6  -9   2  446.46   15.90
   6   9  -2  440.36   15.70
   6  -9  -3   20.40    5.00
   6  -9  -3   28.60    4.00
  -6  -9  -3   21.70    3.30
   6   9  -3   21.50    2.70
   6  -9   3   22.50    4.50
   6  -9   3   18.30    2.20
   6  -9  -4    4.10    3.60
   6  -9  -4   -0.60    2.10
   6   9  -4    4.30    1.60
  -6  -9  -4    5.50    2.30
   6  -9   4    3.30    3.40
   6  -9  -5  134.89    8.20
   6  -9  -5  140.59   11.10
   6  -9   5  146.39    9.50
  -6  -9  -5  129.19    8.20
   6  -9  -6  300.37   17.70
   6  -9   6  351.16   15.60
  -6  -9  -6  309.77   14.70
   6  10   0  614.44   23.10
  -6 -10   0  653.23   22.50
   6 -10   0  674.53   23.10
   6 -10   0  639.44   26.20
   6 -10  -1 1527.25   54.59
  -6 -10   1 1586.44   49.70
   6 -10  -1 1524.65   51.09
  -6 -10  -1 1537.45   50.69
   6 -10   1 1543.25   50.39
   6  10  -1 1465.85   50.39
   6 -10   1 1515.45   53.79
   6 -10  -2  158.88    8.30
   6 -10  -2  145.09   10.90
   6  10  -2  147.09    7.30
   6 -10   2  162.48   10.10
   6 -10   2  157.88    7.00
  -6 -10  -2  158.58    7.90
   6 -10  -3    2.20    3.70
   6 -10  -3    4.40    2.60
   6 -10   3    8.90    3.80
   6 -10   3    5.80    1.50
  -6 -10  -3    5.40    2.40
   6 -10  -4  237.68   11.40
   6 -10  -4  226.68   14.30
  -6 -10  -4  229.68   11.10
   6 -10   4  234.98   12.80
   6 -10  -5  502.85   20.20
   6 -10  -5  470.35   22.90
  -6 -10  -5  458.15   19.40
   6 -10   5  487.95   20.40
  -6 -11   0   13.10    2.50
   6 -11   0    6.10    2.30
   6 -11   0    1.10    3.90
   6 -11  -1   -3.20    3.70
  -6 -11   1    3.30    1.80
   6 -11  -1    2.70    2.30
   6 -11   1    3.00    1.90
  -6 -11  -1    4.80    2.30
   6  11  -1    4.30    2.80
   6 -11   1    0.70    3.60
   6 -11  -2   93.09    6.60
   6 -11  -2   98.69    8.90
   6 -11   2   92.59    9.00
   6 -11   2  100.99    5.40
  -6 -11  -2  102.39    6.50
   6 -11  -3   12.10    4.90
   6 -11  -3   10.30    3.00
   6 -11   3   18.10    4.50
  -6 -11  -3   10.20    3.10
   6 -11  -4   18.20    6.30
  -6 -11  -4   15.30    3.50
   6 -11   4   18.60    4.90
  -6 -12   0   67.69    5.00
   6 -12   0   56.09    8.40
   6 -12   0   56.69    7.00
   6 -12  -1    7.10    2.90
   6 -12  -1   13.30    5.30
  -6 -12  -1    8.80    2.70
   6 -12   1   12.90    2.60
   6 -12   1    5.60    4.50
   6 -12  -2    8.30    2.90
   6 -12  -2    0.00    4.20
   6 -12   2    8.30    4.50
  -6 -12  -2    7.00    2.70
   6 -12  -3   44.60    6.20
   6 -12  -3   25.90    6.80
  -6 -12  -3   36.10    5.00
   6 -12   3   31.60    6.10
   6 -13   0  366.66   19.10
  -6 -13   0  355.86   14.40
   6 -13   0  381.26   15.20
  -7   0   0    1.40    0.70
   7   0   0    0.40    0.50
   7   0   0    1.60    1.00
  -7   0   1 1701.03   53.99
  -7   0  -1 1682.93   54.39
   7   0  -1 1639.64   54.19
   7   0   1 1742.83   54.49
   7   0   1 1634.54   54.39
   7   0  -1 1702.23   54.99
   7   0   2  544.05   18.00
  -7   0   2  501.25   17.30
   7   0  -2  519.35   18.70
   7   0  -2  509.05   17.60
   7   0   2  514.75   18.10
  -7   0  -2  535.55   18.20
   7   0  -3 2299.57   72.69
  -7   0  -3 2224.08   72.09
   7   0  -3 2249.47   71.29
   7   0   3 2136.69   71.89
  -7   0   3 2240.08   70.79
  -7   0  -4 1825.52   60.79
   7   0  -4 1947.11   61.49
   7   0   4 1789.22   60.59
   7   0  -4 1845.72   59.89
  -7   0   4 1832.42   58.99
  -7   0  -4 1926.31   60.89
  -7   0  -5  101.39    5.70
   7   0   5  101.89    5.30
   7   0  -5   98.39    6.60
   7   0  -5   92.49    4.70
  -7   0  -6  307.47   12.90
   7   0   6  298.97   13.30
   7   0   6  325.27   12.80
   7   0  -6  327.07   12.20
   7   0  -6  318.17   13.60
   7   0  -7  389.36   14.90
   7   0  -7  384.26   16.10
   7   0   7  395.76   15.30
  -7   0  -7  383.36   15.80
  -7   0  -8  110.69    7.50
   7   0  -8  102.59    7.60
   7   0   8  113.19    6.90
   7   0  -8   98.69    8.00
   7   0  -9 1277.27   45.40
   7   0  -9 1371.46   46.20
  -7   1   0   -0.30    0.60
   7  -1   0    2.60    0.80
   7  -1   0    1.20    1.30
   7   1   0    0.60    0.70
   7   1   0   -0.20    0.90
  -7  -1   0    0.70    0.60
  -7   1  -1  113.49    4.90
   7   1   1  101.09    4.70
   7  -1  -1  101.29    5.50
   7  -1  -1  104.59    4.60
  -7  -1   1  108.99    4.30
   7   1   1  107.59    4.70
   7   1  -1  105.19    4.50
  -7   1   1   95.89    4.80
   7  -1   1  103.89    4.70
  -7  -1  -1  109.39    4.70
   7  -1   1  111.49    5.10
   7   1  -1  106.89    5.00
   7   1   2   67.79    3.60
  -7   1  -2   72.79    3.90
  -7  -1   2   70.29    2.80
   7  -1  -2   64.99    3.40
   7  -1  -2   67.89    4.70
   7  -1   2   66.49    3.80
   7  -1   2   67.79    3.60
  -7   1   2   71.09    3.30
  -7  -1  -2   72.29    3.80
   7   1  -2   69.49    3.30
  -7  -1  -2   71.19    3.90
   7   1  -2   71.09    4.20
   7  -1  -3  361.16   14.10
   7   1   3  345.67   12.90
  -7   1  -3  363.16   13.10
   7  -1  -3  340.67   12.40
  -7   1   3  356.86   12.10
   7  -1   3  380.46   13.00
  -7  -1  -3  334.47   13.00
   7  -1   3  337.27   12.80
   7   1  -3  351.36   12.10
   7   1  -3  321.57   13.10
   7  -1  -4  135.19    7.80
   7  -1  -4  134.89    5.90
   7   1   4  134.69    6.40
  -7   1  -4  133.19    6.60
   7   1  -4  133.59    6.90
  -7  -1  -4  142.39    6.60
   7   1  -4  143.19    5.60
  -7   1   4  143.09    5.40
   7  -1   4  143.19    6.40
   7  -1  -5  648.04   23.40
   7  -1  -5  616.44   21.40
   7   1   5  610.34   21.90
  -7   1  -5  606.34   22.20
   7  -1   5  612.34   21.80
   7   1  -5  620.54   22.20
  -7   1   5  619.94   20.40
   7   1  -5  622.04   21.00
  -7  -1  -5  610.34   22.10
   7   1   6    5.80    3.90
   7  -1  -6    7.50    1.80
   7  -1  -6    5.90    3.20
   7   1   6    7.30    1.90
  -7  -1  -6    7.40    2.10
   7  -1   6    7.60    2.60
   7   1  -6    7.90    2.90
   7   1  -6   10.10    1.70
   7  -1  -7   56.39    6.40
   7   1   7   55.79    5.70
   7  -1  -7   66.89    4.90
   7  -1   7   64.29    4.70
  -7  -1  -7   51.89    4.90
   7   1  -7   45.30    5.70
   7   1  -7   62.29    4.40
   7  -1  -8   18.60    3.50
   7  -1  -8   25.10    4.50
   7   1   8   16.20    3.20
   7  -1   8   25.90    3.90
  -7  -1  -8   17.00    3.40
   7   1  -8   11.80    3.80
   7   1  -8   16.90    3.20
   7   1   9   55.49    6.20
   7  -1  -9   62.09    7.50
   7  -1  -9   59.79    6.90
   7   1  -9   68.69    7.00
  -7  -1  -9   55.19    6.90
   7  -2   0    0.30    0.50
   7   2   0    0.80    0.80
   7  -2   0    1.00    1.50
   7   2   0    1.30    0.60
  -7   2   0    1.40    0.80
   7  -2  -1  812.32   27.00
   7   2   1  809.12   26.90
   7  -2  -1  813.12   28.30
  -7   2  -1  805.52   27.10
   7  -2   1  738.43   26.90
  -7   2   1  834.82   26.80
  -7  -2  -1  845.02   27.10
   7   2  -1  816.42   26.90
   7  -2   1  836.52   27.80
   7   2  -1  792.52   26.50
  -7   2  -2   45.60    3.00
   7  -2  -2   44.10    2.60
   7   2   2   40.40    2.60
   7  -2  -2   41.60    4.30
  -7  -2  -2   42.00    2.90
   7  -2   2   43.50    3.20
  -7   2   2   50.29    2.60
   7   2  -2   42.10    2.30
   7   2  -2   42.20    3.20
   7  -2   2   38.20    2.60
  -7   2  -3 4735.03  151.68
   7  -2  -3 4841.12  153.18
   7   2  -3 4708.13  151.28
   7  -2   3 4778.72  151.68
   7   2   4  276.17   10.70
   7  -2  -4  288.97   12.60
  -7   2  -4  287.37   11.10
   7  -2  -4  279.07   10.50
  -7   2   4  277.47    9.90
   7  -2   4  241.08   10.40
   7   2  -4  259.77   10.60
   7   2  -4  270.97    9.60
   7  -2   4  264.97   10.60
   7   2   5 1086.39   39.60
   7  -2  -5 1173.08   38.50
  -7   2  -5 1157.08   39.10
   7   2   5 1207.58   38.90
   7  -2  -5 1196.88   40.70
   7   2  -5 1114.39   37.40
   7  -2   5 1193.88   38.70
   7   2  -5 1151.58   38.10
   7  -2   5 1079.99   38.40
  -7  -2  -5 1142.09   38.90
  -7   2   5 1168.28   37.50
   7  -2  -6  153.98    9.30
   7   2   6  146.89    7.40
   7  -2  -6  150.38    7.40
  -7  -2  -6  153.58    7.80
   7  -2   6  165.88    7.60
   7   2  -6  156.48    6.50
   7   2  -6  146.09    7.20
   7  -2   6  143.19    7.80
   7  -2   6  152.78    7.20
   7   2   7  841.02   28.80
   7  -2  -7  808.72   28.80
   7  -2  -7  833.02   30.50
   7   2  -7  809.92   27.70
  -7   2   7  796.02   26.70
  -7   2   7  777.82   27.00
   7  -2   7  839.42   28.60
   7  -2   7  781.42   28.40
   7  -2   7  820.12   28.10
  -7  -2  -7  802.52   29.10
   7  -2  -8    3.70    2.70
   7   2   8   13.90    3.00
   7  -2  -8   17.40    5.00
  -7  -2  -8    6.80    2.60
   7  -2   8   10.90    2.80
   7  -2   8    9.30    2.40
   7   2  -8   12.50    2.80
   7   3   0    0.90    0.50
  -7   3   0    0.60    0.80
   7  -3   0    1.80    0.90
   7  -3   0    0.40    1.60
   7  -3  -1   73.79    5.20
   7   3   1   65.99    3.30
   7  -3  -1   65.39    3.50
  -7   3  -1   68.59    3.70
   7   3  -1   65.49    3.00
   7  -3   1   65.99    3.50
  -7   3   1   66.59    3.50
  -7  -3  -1   66.39    3.50
   7   3  -1   67.49    3.40
   7  -3   1   63.09    4.30
   7  -3  -2   27.00    2.20
  -7   3  -2   35.80    2.60
   7  -3  -2   28.70    4.20
   7   3   2   28.60    2.20
  -7   3   2   27.70    2.20
   7  -3   2   29.80    3.10
  -7  -3  -2   28.40    2.50
   7  -3   2   34.80    2.50
   7   3  -2   27.40    2.60
   7  -3  -3  239.28    9.30
   7   3   3  252.67    9.40
  -7   3  -3  244.68    9.60
   7  -3  -3  205.38   11.90
   7   3  -3  221.58    8.30
  -7   3   3  242.18    8.90
   7  -3   3  227.38    9.10
  -7  -3  -3  238.28    9.40
   7   3  -3  228.38   10.40
   7   3   4   79.99    4.40
   7  -3  -4   79.29    4.40
   7  -3  -4   71.09    6.20
  -7   3  -4   77.59    4.70
  -7  -3  -4   78.29    4.60
   7  -3   4   82.09    4.80
  -7   3   4   78.59    3.90
   7  -3   4   74.69    4.20
   7   3   5  523.25   18.70
   7  -3  -5  501.55   20.70
   7   3   5  510.45   20.90
  -7   3  -5  521.25   19.10
   7  -3  -5  509.45   18.60
   7  -3   5  523.15   18.80
   7   3  -5  515.35   17.20
   7  -3   5  499.85   18.20
  -7  -3  -5  499.75   18.80
  -7   3   5  511.65   17.70
   7  -3  -6    6.20    3.40
   7  -3  -6    9.10    2.10
   7   3   6    7.30    2.90
   7  -3   6    9.30    2.10
  -7  -3  -6    5.90    2.30
   7   3  -6   11.60    1.80
   7  -3   6    6.60    2.50
  -7   3   6    8.30    1.50
   7  -3   6    6.20    1.70
   7  -3  -7   66.69    7.10
   7  -3  -7   68.29    5.30
   7   3   7   65.79    5.30
   7   3  -7   67.39    4.20
   7  -3   7   62.69    5.20
  -7  -3  -7   61.99    5.30
  -7   3   7   63.59    3.90
   7  -3   7   60.49    4.90
   7  -3   7   58.09    4.30
   7  -3  -8   35.80    5.90
   7  -3  -8   31.80    4.60
   7   3   8   31.60    5.00
   7   3  -8   40.50    4.40
  -7  -3  -8   30.20    4.40
   7  -3   8   35.00    4.70
   7  -3   8   27.50    3.60
  -7   4  -1 1439.56   45.90
   7   4   1 1352.76   45.50
   7  -4  -1 1496.95   48.10
   7  -4  -1 1379.86   45.90
   7  -4   1 1341.37   45.80
  -7   4   1 1395.96   45.70
   7  -4   1 1435.96   47.40
  -7  -4  -1 1461.75   45.70
   7   4  -1 1382.86   45.10
   7   4  -1 1363.36   45.00
   7  -4  -2  422.56   15.10
   7  -4  -2  403.16   18.20
  -7   4  -2  411.26   15.00
   7   4   2  428.26   14.80
   7  -4   2  427.56   16.30
   7  -4   2  419.06   14.90
  -7   4   2  424.46   14.70
   7   4  -2  384.36   14.20
  -7  -4  -2  432.26   15.00
   7  -4  -3 2004.50   65.19
   7   4   3 1991.50   62.59
  -7   4  -3 1880.51   62.69
   7  -4  -3 1911.01   62.69
  -7   4   3 1884.31   62.09
  -7  -4  -3 2007.60   62.79
   7  -4   3 2002.20   63.49
   7  -4   3 1888.71   62.19
   7   4  -3 1769.92   60.99
  -7   4  -4 1588.74   51.59
   7  -4  -4 1570.84   53.89
   7  -4  -4 1636.74   51.49
   7   4   4 1578.44   51.19
   7   4   4 1405.96   51.99
   7   4  -4 1433.56   49.50
   7  -4   4 1653.63   51.99
  -7   4   4 1591.04   50.69
  -7  -4  -4 1543.45   51.39
   7  -4   4 1566.04   50.79
   7  -4  -5   88.69    7.50
   7   4   5   85.39    5.10
   7  -4  -5   79.59    5.10
  -7   4  -5   82.69    5.80
  -7  -4  -5   88.39    5.30
  -7   4   5   82.99    4.50
   7  -4   5   81.49    4.40
   7  -4   5   84.89    5.40
   7  -4  -6  284.77   14.30
   7   4   6  280.77   11.80
   7  -4   6  292.57   12.10
   7  -4   6  291.77   10.90
   7  -4   6  273.67   11.60
   7   4  -6  282.87   10.10
  -7   4   6  266.67   10.70
  -7  -4  -6  271.67   12.00
   7  -4  -7  349.57   14.60
   7  -4  -7  315.37   16.30
   7   4   7  349.17   14.20
   7  -4   7  364.96   14.40
   7   4  -7  342.17   12.50
  -7   4   7  323.77   12.80
  -7  -4  -7  336.67   14.50
   7  -4   7  343.47   12.80
   7  -4  -8   84.59    8.60
   7  -4  -8   87.19    7.60
  -7  -4  -8   95.69    7.10
   7  -4   8   98.99    7.10
   7  -5   0   -1.60    1.90
  -7  -5   0    0.90    1.00
  -7   5   0    1.10    0.90
   7  -5   0    0.70    0.80
  -7   5  -1   87.99    4.40
   7  -5  -1   85.29    4.50
   7  -5  -1   82.99    6.20
  -7   5   1   81.19    4.20
   7  -5   1   84.69    4.30
  -7  -5  -1   86.59    4.30
   7  -5   1   91.29    6.10
  -7   5  -2   99.09    4.90
   7  -5  -2   96.29    5.00
   7  -5  -2  104.19    7.20
  -7   5   2   95.19    4.70
   7  -5   2   99.19    6.30
   7   5  -2   97.49    4.50
   7  -5   2   92.09    4.60
  -7  -5  -2   88.19    5.30
   7  -5  -3  345.77   15.80
  -7   5  -3  359.36   13.40
   7  -5  -3  348.07   13.40
   7  -5   3  363.56   14.40
  -7  -5  -3  340.57   14.10
  -7   5   3  356.36   12.90
   7  -5   3  350.16   12.80
   7   5  -3  343.37   11.60
   7   5   4  179.38   12.40
   7   5   4  154.98    7.10
   7  -5  -4  157.38    9.70
   7  -5  -4  149.39    7.40
  -7   5  -4  157.68    7.70
  -7   5   4  147.49    6.70
  -7  -5  -4  161.78    7.60
   7   5  -4  149.79    5.40
   7  -5   4  149.69    6.60
   7  -5  -5  558.54   20.10
   7  -5  -5  513.45   22.50
   7   5  -5  524.95   17.50
  -7  -5  -5  524.95   20.00
   7  -5   5  545.05   18.80
   7  -5   5  568.84   20.50
  -7   5   5  527.95   19.10
   7  -5  -6   12.60    3.90
   7   5   6    6.20    2.10
   7  -5  -6    9.00    2.70
   7  -5   6    6.80    2.30
  -7  -5  -6    6.40    2.30
   7  -5   6    6.00    1.40
   7  -5   6    8.90    2.80
   7   5  -6    6.30    1.20
   7  -5  -7   37.80    5.40
   7  -5  -7   47.80    6.90
   7   5   7   43.40    4.90
  -7  -5  -7   44.40    5.00
   7  -5   7   37.00    3.10
   7  -5   7   51.09    5.30
   7   5  -7   45.60    3.30
   7   5   8    3.10    2.70
   7  -5  -8   13.90    4.80
   7  -5  -8    4.00    3.50
   7  -5   8    3.30    3.10
  -7  -5  -8    3.90    3.60
  -7   6   0    0.30    1.10
  -7  -6   0   -0.20    1.00
   7  -6   0    0.40    0.90
   7  -6   0   -0.50    2.20
   7  -6  -1  511.65   19.00
  -7   6  -1  550.14   19.00
   7  -6  -1  522.75   23.10
  -7  -6   1  559.94   18.20
   7  -6   1  570.84   21.20
  -7   6   1  522.55   18.80
   7  -6   1  524.05   18.80
  -7  -6  -1  549.54   18.80
   7  -6  -2   20.30    3.80
  -7   6  -2   20.90    2.60
   7  -6  -2   20.30    2.40
  -7   6   2   18.80    2.20
   7   6  -2   24.30    2.90
  -7  -6  -2   20.20    2.70
   7  -6   2   19.10    3.20
   7  -6  -3 3517.25  113.69
   7  -6  -3 3600.04  116.69
   7   6   3 3295.57  114.09
  -7   6  -3 3692.93  113.49
   7  -6   3 3518.25  112.79
  -7   6   3 3433.06  112.99
  -7  -6  -3 3687.43  113.59
   7  -6  -4  192.68    8.80
  -7   6  -4  183.58    8.70
   7  -6  -4  189.48   11.40
   7  -6   4  200.68    9.80
  -7  -6  -4  192.48    8.90
   7   6  -4  183.48    6.30
   7  -6   4  191.28    7.70
   7  -6  -5  850.51   30.50
   7  -6  -5  859.61   33.40
   7   6   5  866.61   30.00
   7   6  -5  816.92   27.40
  -7  -6  -5  852.81   30.50
   7  -6   5  865.51   28.80
   7  -6   5  932.71   31.30
   7  -6  -6  127.79    7.80
   7   6   6  119.09    6.90
   7  -6  -6  123.09    9.50
   7  -6   6  128.49    5.50
   7   6  -6  113.29    4.90
   7  -6   6  139.79    8.10
  -7  -6  -6  116.79    7.40
   7   6   7  652.93   23.70
   7  -6  -7  623.24   27.00
   7  -6  -7  613.04   24.40
  -7  -6  -7  586.84   24.00
   7  -6   7  686.43   24.50
   7  -6  -8   12.00    4.60
   7  -6  -8    8.70    5.60
   7   6   8   10.20    3.50
   7  -6   8    4.40    3.90
  -7  -6  -8   11.10    5.90
   7  -7   0    1.50    1.20
   7  -7   0    2.60    2.90
  -7   7   0   -0.20    1.20
  -7  -7   0    0.70    1.20
   7   7   1   17.90    2.90
  -7  -7   1   23.80    2.20
  -7   7  -1   26.40    2.90
   7  -7  -1   32.70    4.80
   7  -7  -1   27.10    2.60
   7  -7   1   25.90    4.00
  -7   7   1   26.20    2.70
   7  -7   1   22.10    2.30
   7  -7  -2    4.00    1.50
   7   7   2    4.20    2.00
  -7   7  -2    3.30    1.60
   7  -7  -2   -0.20    2.80
   7  -7   2    4.50    1.30
   7  -7   2    3.00    2.80
  -7  -7  -2    3.10    2.00
   7   7  -2    4.70    1.30
   7  -7  -3  113.59    6.20
  -7   7  -3  118.69    6.20
   7  -7  -3  113.79    8.80
   7  -7   3  114.69    5.40
  -7  -7  -3  111.69    6.10
   7  -7   3  118.29    7.50
   7  -7  -4   19.70    4.70
   7  -7  -4   27.80    3.40
  -7  -7  -4   31.20    3.50
   7  -7   4   38.10    2.70
   7  -7   4   26.00    4.30
   7   7   5  340.67   13.40
   7  -7  -5  314.67   16.60
   7  -7  -5  330.37   14.00
   7  -7   5  342.57   14.80
  -7  -7  -5  312.17   13.70
   7  -7   5  326.17   11.90
   7  -7  -6    3.70    3.90
   7  -7  -6    3.90    2.50
   7   7   6    6.30    2.30
   7  -7   6    7.10    1.90
   7  -7   6    7.70    3.40
  -7  -7  -6    1.90    2.40
   7  -7  -7   53.89    6.10
   7  -7  -7   52.69    8.30
   7   7   7   50.79    5.70
   7  -7   7   62.79    7.00
  -7  -7  -7   55.39    6.40
   7   8   0    3.90    1.90
   7  -8   0   -0.30    2.80
   7  -8   0    0.00    1.20
  -7  -8   0    1.60    1.40
   7  -8  -1  845.32   32.70
  -7  -8   1  932.71   28.50
   7   8   1  801.32   29.90
   7  -8  -1  882.81   29.90
   7  -8   1  845.42   32.10
   7   8  -1  819.62   29.30
   7  -8   1  875.21   29.40
  -7  -8  -1  888.81   29.30
   7  -8  -2  239.08   13.20
   7  -8  -2  236.58   10.30
   7   8   2  233.98   13.80
   7  -8   2  234.88   12.10
   7  -8   2  238.78    9.50
  -7  -8  -2  244.98   10.10
   7  -8  -3 1231.98   41.60
   7  -8  -3 1225.28   44.90
   7  -8   3 1220.88   40.10
   7  -8   3 1220.18   43.00
  -7  -8  -3 1186.68   41.20
   7  -8  -4 1008.50   38.90
   7  -8  -4 1053.09   35.70
   7   8  -4  974.00   32.70
   7  -8   4 1029.80   33.60
  -7  -8  -4  996.70   35.30
   7  -8   4 1025.80   36.60
   7  -8  -5   52.99    5.30
   7  -8  -5   52.09    8.00
  -7  -8  -5   50.89    4.70
   7  -8   5   52.99    3.20
   7  -8   5   60.79    6.50
   7  -8  -6  219.08   11.00
   7  -8  -6  212.58   13.90
   7   8   6  195.68    9.90
   7  -8   6  206.48   11.60
  -7  -8  -6  191.78   10.50
   7  -8  -7  250.97   13.50
   7   8   7  227.88   11.90
   7  -8  -7  221.78   15.80
  -7  -8  -7  233.68   13.30
   7  -8   7  269.37   13.20
   7   9   0   -2.30    1.90
   7  -9   0    2.80    3.10
   7  -9   0    0.90    1.60
   7  -9  -1   63.19    4.60
   7   9   1   48.60    5.40
   7  -9  -1   64.39    7.40
  -7  -9   1   62.59    3.70
   7   9  -1   52.39    4.50
  -7  -9  -1   59.19    4.30
   7  -9   1   61.49    6.30
   7  -9   1   66.69    4.30
   7  -9  -2   84.69    7.80
   7  -9  -2   84.29    5.40
   7  -9   2   83.89    4.80
   7  -9   2   91.29    7.60
   7   9  -2   67.19    4.80
  -7  -9  -2   86.19    5.30
   7  -9  -3  271.37   11.80
   7  -9  -3  248.98   14.80
   7  -9   3  269.07   13.40
  -7  -9  -3  277.77   11.60
   7  -9   3  271.67   10.40
   7   9  -3  250.97   10.10
   7  -9  -4  118.39   10.00
   7  -9  -4  120.39    7.70
   7  -9   4  139.19    5.90
  -7  -9  -4  137.99    7.70
   7  -9   4  134.69    9.40
   7  -9  -5  394.66   16.70
   7  -9  -5  372.86   19.80
  -7  -9  -5  386.36   16.30
   7  -9   5  399.66   17.70
   7  -9  -6    1.70    5.50
   7  -9  -6    7.20    3.30
   7   9   6    6.90    2.90
   7  -9   6    6.20    4.30
  -7  -9  -6    4.90    3.50
   7  10   0    2.80    2.80
   7 -10   0   -2.70    3.40
  -7 -10   0    1.10    1.70
   7 -10  -1  278.47   15.20
   7 -10  -1  283.37   11.90
  -7 -10   1  290.17   10.60
   7  10  -1  258.17   11.50
   7 -10   1  285.27   11.40
  -7 -10  -1  274.87   11.40
   7 -10   1  295.57   14.80
   7 -10  -2   12.50    2.80
   7 -10  -2   10.40    4.20
   7 -10   2   12.30    4.20
   7  10  -2   11.40    2.60
  -7 -10  -2    8.00    2.40
   7 -10   2    6.50    1.80
   7 -10  -3 2119.59   75.19
   7 -10  -3 2246.08   71.49
   7 -10   3 2111.59   69.09
   7 -10   3 2095.89   72.89
  -7 -10  -3 2128.39   70.79
   7 -10  -4  123.49    8.30
   7 -10  -4  123.69   10.50
  -7 -10  -4  121.49    7.50
   7 -10   4  128.49    9.70
   7 -10  -5  471.95   24.30
   7 -10  -5  527.15   21.20
  -7 -10  -5  494.05   20.40
   7 -10   5  531.65   21.80
   7 -11   0    2.10    2.30
   7 -11   0    5.20    4.10
  -7 -11   0    0.70    2.00
   7 -11  -1    4.00    4.00
   7 -11  -1    6.80    2.70
  -7 -11  -1    5.00    2.30
   7 -11   1    6.10    4.30
   7 -11   1   10.60    2.40
   7 -11  -2   -2.10    4.00
   7 -11  -2   -0.50    2.60
   7 -11   2    0.40    3.80
   7 -11   2   -0.50    1.80
  -7 -11  -2    1.40    2.20
   7 -11  -3   34.90    5.50
   7 -11  -3   33.30    6.70
  -7 -11  -3   36.70    4.50
   7 -11   3   54.69    7.60
   7 -11  -4   11.00    6.10
   7 -11  -4    5.40    3.40
   7 -11   4    8.20    4.50
  -7 -11  -4   11.00    3.20
  -7 -12   0    1.00    2.30
   7 -12   0   -3.40    2.50
   7 -12   0    2.70    4.40
   7 -12  -1  472.05   18.50
   7 -12  -1  455.05   22.40
   7 -12   1  443.76   21.40
  -7 -12  -1  455.85   17.50
   7 -12   1  471.05   17.70
   7 -12  -2  124.19    8.20
   7 -12   2  128.49   10.90
  -7 -12  -2  111.39    7.20
   7 -12  -3  596.64   28.00
   7 -12  -3  607.44   23.50
  -7 -12  -3  603.74   22.90
   7 -12   3  581.04   25.50
   8   0   0 7876.21  249.08
  -8   0   1 3396.46  106.09
   8   0  -1 3321.87  107.19
   8   0   1 3346.67  106.69
  -8   0  -1 3469.15  106.59
   8   0  -1 3204.88  106.29
   8   0   1 3302.67  106.59
  -8   0  -2  694.23   23.40
   8   0  -2  701.03   24.20
   8   0   2  680.03   23.20
   8   0  -2  659.13   22.90
   8   0   2  662.33   23.30
  -8   0   2  686.73   22.50
  -8   0   3  136.49    5.00
   8   0   3  116.59    5.80
  -8   0  -3  124.19    6.10
   8   0  -3  139.29    5.60
   8   0  -3  123.49    7.00
  -8   0   4  409.36   13.50
   8   0  -4  395.46   16.00
  -8   0  -4  416.46   15.40
   8   0  -4  414.76   16.30
   8   0   4  400.76   15.10
   8   0   5 2258.37   75.49
   8   0  -5 2441.86   76.69
   8   0  -5 2276.37   74.79
  -8   0  -5 2311.07   75.89
   8   0   6 1247.98   42.50
  -8   0  -6 1232.68   42.80
   8   0  -6 1285.57   41.80
  -8   0  -7 1165.98   42.70
   8   0  -7 1283.87   41.90
   8   0  -7 1272.57   43.20
   8   0   8  961.20   32.50
   8   0  -8  864.41   32.70
   8   1   0  357.46   12.60
   8  -1   0  343.37   13.40
   8   1   0  368.56   12.90
   8  -1   0  339.27   12.70
  -8   1   0  352.46   12.60
   8   1   1  872.41   27.80
  -8  -1   1  919.51   27.60
   8  -1  -1  821.92   28.90
   8   1   1  795.32   27.80
   8  -1  -1  803.32   27.70
  -8   1  -1  855.31   28.00
   8   1  -1  822.72   27.60
   8  -1   1  840.72   28.30
   8   1  -1  805.42   28.10
  -8  -1  -1  831.82   27.80
   8  -1   1  772.32   27.80
  -8   1   1  841.62   27.60
   8  -1  -2   22.10    3.20
   8   1   2   19.20    2.00
  -8  -1   2   22.60    1.50
   8  -1  -2   23.70    2.00
  -8   1  -2   22.40    2.20
   8  -1   2   19.90    2.00
  -8  -1  -2   19.10    2.30
  -8   1   2   21.50    1.80
   8  -1   2   22.90    2.60
   8   1  -2   24.80    3.10
   8   1  -2   20.90    1.80
   8  -1  -3    1.90    0.90
  -8   1  -3    0.50    1.20
   8   1   3    2.30    1.10
   8  -1  -3   -1.60    2.30
   8   1  -3   -1.00    2.00
   8   1  -3    1.00    0.70
  -8  -1  -3    1.70    1.30
   8  -1   3    1.00    1.00
   8  -1   3    3.40    1.30
  -8   1  -4    5.60    1.80
   8  -1  -4    5.50    2.80
   8   1   4    0.20    1.00
   8  -1  -4    1.80    1.00
  -8   1   4    1.60    0.90
   8   1  -4    4.50    2.50
   8  -1   4    0.30    1.50
   8   1  -4    2.20    0.90
  -8  -1  -4    1.00    1.40
   8  -1   4   -0.20    1.00
  -8   1  -5    2.80    2.30
   8  -1  -5    7.40    1.70
   8  -1  -5    2.70    3.40
   8  -1   5    6.80    1.70
   8   1  -5    5.30    1.30
  -8  -1  -5    6.30    2.00
   8   1  -5    3.20    3.00
   8  -1  -6    1.50    3.00
   8   1   6    2.60    1.80
   8  -1  -6    6.80    1.80
   8   1  -6    1.80    1.30
  -8  -1  -6    0.20    1.80
   8   1  -6   -0.30    3.20
   8  -1   6    3.40    1.80
  -8   1   6    2.80    1.40
   8   1   7  139.29    7.70
   8  -1  -7  138.79    9.20
   8  -1  -7  144.69    7.50
   8  -1   7  141.19    7.40
  -8  -1  -7  136.09    7.90
   8   1  -7  134.29    6.90
   8   1  -7  134.29    8.50
   8  -1  -8   84.69    8.40
   8   1   8   96.49    6.80
   8  -1  -8   90.49    6.90
   8   1  -8   89.99    6.40
  -8  -1  -8   80.99    6.90
   8   2   0    8.10    1.40
  -8   2   0    6.10    1.30
   8  -2   0    3.20    1.10
   8  -2   0    4.20    1.90
   8  -2  -1 1839.52   62.09
   8   2   1 1898.41   62.09
  -8   2  -1 1924.71   62.29
   8  -2  -1 2061.99   63.89
  -8   2   1 1974.50   61.89
   8   2  -1 1952.50   62.09
   8  -2   1 2031.70   63.19
   8  -2   1 1782.42   62.19
   8   2  -1 1859.41   61.69
  -8   2  -2  324.07   12.20
   8  -2  -2  339.07   13.80
   8  -2  -2  311.97   11.90
   8   2   2  330.97   12.00
   8  -2   2  319.67   12.60
   8   2  -2  315.77   12.20
  -8   2   2  342.67   11.70
   8   2  -2  320.17   11.40
  -8  -2  -2  322.57   12.10
   8  -2   2  304.57   12.00
   8  -2  -3  177.58    9.30
  -8   2  -3  182.18    7.90
   8   2   3  171.98    7.50
   8  -2  -3  171.78    7.30
   8   2  -3  177.28    6.80
   8  -2   3  169.68    7.40
   8   2  -3  167.88    7.80
  -8  -2  -3  180.28    7.70
  -8   2   3  171.48    6.90
   8  -2   3  181.28    7.90
   8  -2  -4  446.36   18.50
  -8   2  -4  456.15   17.00
   8  -2  -4  461.45   16.40
   8   2   4  457.45   16.70
   8  -2   4  440.56   16.50
  -8   2   4  468.95   15.70
   8   2  -4  451.55   16.70
   8  -2   4  455.65   16.90
   8   2  -4  458.05   15.60
  -8  -2  -4  447.36   16.80
   8  -2  -5 1061.19   35.20
   8  -2  -5 1063.89   37.90
   8   2   5  985.90   35.30
  -8   2   5 1039.90   34.10
   8  -2   5 1029.20   35.20
  -8  -2  -5 1039.40   35.60
   8   2  -5 1032.00   34.10
   8   2  -5 1059.29   35.10
   8  -2   5 1053.99   35.40
   8  -2  -6  862.21   31.60
   8  -2  -6  848.22   29.30
  -8   2   6  823.62   27.70
   8  -2   6  845.72   29.20
   8  -2   6  843.92   29.30
  -8  -2  -6  857.71   29.80
   8   2  -6  797.72   28.70
   8   2  -6  838.12   28.20
   8   2   7  752.62   26.20
   8  -2  -7  692.53   27.70
   8   2  -7  710.33   24.80
  -8  -2  -7  662.03   26.10
   8  -2   7  759.32   25.60
   8  -2  -8   67.59    8.00
   8   2   8   61.99    6.10
   8  -2  -8   57.99    6.20
   8   2  -8   55.99    5.20
   8  -2   8   66.49    5.50
  -8  -2  -8   60.59    6.10
   8  -2   8   64.39    5.40
   8  -3   0  295.27   11.40
   8   3   0  308.07   11.00
   8   3   0  307.07   11.00
  -8   3   0  305.67   11.20
   8  -3   0  309.67   12.90
  -8   3  -1  825.22   27.40
   8   3   1  812.82   27.10
   8  -3  -1  798.82   27.40
   8  -3  -1  807.72   29.20
   8   3  -1  805.02   27.00
   8  -3   1  798.72   27.40
   8  -3   1  807.62   28.60
  -8  -3  -1  846.82   27.40
   8   3  -1  802.12   26.70
  -8   3   1  819.32   27.20
   8  -3  -2   20.10    2.00
  -8   3  -2   20.20    2.30
   8   3   2   20.50    2.00
   8  -3   2   21.50    2.10
   8   3  -2   19.30    2.40
   8  -3   2   22.90    3.00
  -8  -3  -2   19.10    2.60
   8   3  -2   21.70    1.70
  -8   3   2   20.30    2.00
  -8   3  -3    1.20    1.30
   8  -3  -3    0.80    2.30
   8  -3  -3    2.50    1.20
   8   3   3    4.50    1.20
  -8  -3  -3    1.60    1.20
   8   3  -3    2.00    2.00
   8  -3   3    0.80    1.40
   8  -3   3    2.70    1.20
  -8   3   3    3.80    1.10
   8   3  -3    1.60    0.80
   8  -3  -4    0.40    1.10
   8   3   4    2.90    1.30
   8  -3  -4   -4.10    2.90
  -8   3  -4   -0.20    1.50
   8  -3   4    4.00    1.80
   8   3  -4    1.70    0.90
   8  -3   4    0.70    1.10
  -8   3   4    2.10    1.10
  -8  -3  -4    0.10    1.40
   8   3  -4   -0.60    2.10
   8  -3  -5    2.90    1.50
   8   3   5    3.40    1.50
   8  -3  -5    3.40    3.60
   8   3  -5    4.80    1.10
   8  -3   5    4.90    1.40
  -8  -3  -5    7.20    2.00
   8  -3   5    3.30    1.80
  -8   3   5    3.70    1.30
   8   3   6   -0.40    1.80
   8  -3  -6    1.80    3.30
   8  -3  -6    0.20    1.80
   8  -3   6    1.90    1.60
   8  -3   6    2.00    2.00
  -8  -3  -6    1.90    2.00
  -8   3   6    0.10    1.30
   8  -3  -7  156.68    8.60
   8   3   7  161.58    8.40
   8  -3  -7  155.48   10.70
  -8  -3  -7  146.29    8.40
   8   3  -7  150.58    6.80
   8  -3   7  139.79    7.30
   8  -3   7  150.78    8.10
   8   3   8   82.39    6.70
   8  -3  -8   81.89    8.80
   8  -3   8   84.59    6.50
   8   3  -8   84.99    5.80
   8  -3   8   82.89    5.70
  -8  -3  -8   79.89    6.80
   8  -4   0 6605.44  211.18
   8  -4  -1 2944.11   95.29
   8   4   1 2777.32   92.49
  -8   4  -1 2967.40   92.99
   8  -4  -1 2839.52   93.09
   8  -4   1 2983.80   94.69
   8   4  -1 2890.41   92.29
   8   4  -1 2823.12   92.09
   8  -4   1 2771.32   92.89
  -8  -4  -1 3064.09   92.89
  -8   4   1 2943.81   92.79
  -8   4  -2  578.34   20.00
   8  -4  -2  582.34   22.30
   8  -4  -2  538.75   19.80
   8   4   2  581.74   19.70
   8   4  -2  569.44   18.80
   8   4  -2  518.95   19.20
   8  -4   2  604.04   21.30
  -8   4   2  560.44   19.50
   8  -4   2  558.14   19.80
  -8  -4  -2  572.04   19.80
  -8   4  -3   90.79    5.20
   8   4   3   99.09    5.00
   8  -4  -3   91.79    5.00
  -8  -4  -3   96.19    5.70
   8  -4   3   96.79    4.90
   8  -4   3  102.59    6.60
   8   4  -3  102.89    4.10
  -8   4   3   94.79    4.80
   8  -4  -4  343.17   16.10
   8  -4  -4  349.17   13.60
   8   4   4  349.17   13.50
  -8   4  -4  339.37   13.70
   8  -4   4  356.26   13.20
   8   4  -4  334.17   12.30
  -8   4   4  359.66   12.90
  -8  -4  -4  361.96   13.80
   8  -4   4  365.26   14.20
   8   4   5 2085.99   69.29
   8  -4  -5 2093.19   68.29
   8  -4  -5 2091.39   71.19
   8   4  -5 1998.30   66.19
   8  -4   5 2030.40   67.49
  -8  -4  -5 2129.39   68.49
   8  -4   5 2147.29   68.69
  -8   4   5 2057.09   67.19
   8  -4  -6 1108.79   37.90
   8   4   6 1058.29   37.50
   8  -4  -6 1132.69   40.80
   8   4  -6 1072.09   35.60
   8  -4   6 1101.19   36.70
  -8  -4  -6 1061.39   37.80
  -8   4   6 1068.19   36.30
   8  -4   6 1144.09   38.00
   8   4   7 1076.99   37.80
   8  -4  -7 1076.99   40.60
   8  -4  -7 1106.89   38.40
   8  -4   7 1088.99   36.50
   8  -4   7 1107.69   38.10
  -8  -4  -7 1061.89   38.20
   8   4  -7 1091.79   35.90
   8  -4  -8  758.02   29.60
   8   4   8  799.72   29.10
  -8  -4  -8  797.12   29.90
   8  -4   8  826.62   29.40
   8  -5   0  237.58   11.40
   8  -5   0  236.58    9.40
  -8   5   0  227.38    9.30
  -8  -5   0  238.78    9.00
   8  -5  -1  560.34   20.40
   8   5   1  575.04   19.90
  -8   5  -1  597.64   20.50
  -8  -5  -1  593.84   20.20
   8   5  -1  562.04   19.40
  -8   5   1  576.64   20.20
   8  -5   1  614.24   22.50
   8  -5   1  565.54   20.30
   8   5  -1  603.14   19.50
   8  -5  -2   20.40    2.30
   8   5   2   16.90    2.10
  -8   5  -2   16.90    2.30
   8  -5  -2   20.60    4.00
  -8  -5  -2   17.70    2.50
   8   5  -2   17.00    2.50
   8   5  -2   21.90    1.60
  -8   5   2   20.50    2.40
   8  -5   2   21.50    2.30
   8  -5   2   21.20    3.80
   8   5   3    0.60    1.10
   8  -5  -3    3.00    1.30
   8  -5  -3    2.40    2.90
  -8   5  -3    2.40    1.50
  -8  -5  -3    0.10    1.30
   8  -5   3    2.40    1.10
  -8   5   3    0.90    1.20
   8  -5   3    1.90    2.10
   8   5   4    0.40    1.20
  -8   5  -4    2.10    2.10
   8  -5  -4   -1.10    1.30
   8  -5  -4    3.20    3.00
  -8  -5  -4    0.00    1.40
   8   5  -4    0.80    1.00
  -8   5   4    2.40    1.50
   8  -5   4   -0.30    2.00
   8  -5   4    3.00    1.20
   8  -5  -5    4.90    3.60
   8   5   5   -0.90    1.50
   8   5  -5    1.80    1.30
  -8   5   5    3.10    1.80
   8  -5   5   -0.50    1.30
   8  -5   5   -0.80    2.10
  -8  -5  -5    1.00    1.80
   8   5   6    4.00    2.00
   8  -5  -6    8.80    2.50
   8  -5  -6    1.00    4.00
  -8  -5  -6    0.20    1.90
   8   5  -6    2.00    1.10
   8  -5   6    2.50    2.40
   8  -5   6    0.50    1.50
   8  -5  -7  106.69    7.80
   8   5   7  104.19    7.00
   8  -5  -7  100.69    9.80
   8  -5   7  104.09    5.40
  -8  -5  -7   99.29    6.90
   8  -5   7  105.29    7.40
   8   5   8   83.59    6.50
   8  -5  -8   77.39    9.80
  -8  -5  -8   78.99    7.60
   8  -5   8   80.69    7.30
  -8   6   0    7.30    1.60
   8  -6   0    2.80    2.60
   8  -6  -1 1350.06   47.70
  -8   6  -1 1370.46   44.80
   8  -6  -1 1333.37   45.00
  -8   6   1 1366.16   44.70
   8  -6   1 1349.56   47.20
   8  -6   1 1366.46   44.80
  -8   6  -2  211.28    9.00
   8  -6  -2  206.48   11.40
   8  -6  -2  216.38    9.10
   8   6  -2  199.78    7.80
  -8   6   2  203.38    8.60
   8  -6   2  218.78   10.70
   8  -6   2  208.98    8.60
   8  -6  -3  117.39    6.30
   8   6   3  119.09    5.90
   8  -6  -3  120.19    9.00
  -8   6  -3  125.39    6.70
  -8   6   3  125.89    6.90
   8   6  -3  119.59    4.70
   8  -6   3  126.79    5.90
  -8  -6  -3  120.39    6.30
   8  -6   3  121.69    7.60
   8  -6  -4  312.17   16.00
   8   6  -4  316.27   10.80
  -8  -6  -4  335.47   13.10
   8  -6   4  319.07   14.20
   8  -6   4  320.97   12.10
   8   6   5  803.12   27.80
   8  -6  -5  795.42   28.40
   8  -6  -5  774.12   31.40
  -8  -6  -5  798.42   28.30
   8   6  -5  730.73   25.30
   8  -6   5  770.12   26.70
   8  -6   5  846.12   29.30
   8  -6  -6  644.04   23.70
   8  -6  -6  611.74   26.30
   8   6   6  606.64   22.70
  -8  -6  -6  611.84   23.30
   8  -6   6  603.74   21.20
   8  -6   6  642.14   23.90
   8   6  -6  592.54   20.30
   8  -6  -7  515.05   21.20
   8  -6  -7  497.65   23.90
   8   6   7  529.35   20.40
   8  -6   7  570.04   21.50
  -8  -6  -7  510.55   21.00
  -8  -7   0  190.28    7.60
   8  -7   0  178.28    8.10
   8  -7   0  189.68   10.60
  -8  -7   1  606.14   19.70
  -8   7  -1  604.24   21.60
   8  -7  -1  574.64   23.70
   8  -7  -1  573.64   20.80
   8  -7   1  567.84   20.50
  -8  -7  -1  562.34   20.10
   8  -7   1  558.04   22.90
   8   7   2   15.30    3.00
   8  -7  -2   12.30    2.30
   8  -7  -2   11.40    3.80
  -8  -7  -2   18.40    2.70
   8   7  -2   16.40    2.00
   8  -7   2   12.60    3.70
   8  -7  -3    3.90    3.40
   8  -7   3    1.70    2.70
   8  -7   3    2.30    1.20
  -8  -7  -3    2.70    1.60
   8  -7  -4   -0.90    1.80
   8  -7  -4   -4.40    3.20
   8   7   4   -0.60    1.70
   8  -7   4    0.80    1.30
   8   7  -4    0.40    0.90
   8  -7   4    3.00    2.70
  -8  -7  -4    2.70    1.90
   8  -7  -5    6.40    4.20
   8  -7  -5   10.10    2.90
   8   7   5    5.60    2.30
   8  -7   5    6.50    3.30
   8  -7   5    7.90    1.60
   8   7  -5    7.70    1.30
  -8  -7  -5    5.80    2.30
   8  -7  -6    3.40    4.20
   8  -7  -6    7.30    3.10
   8   7   6    0.50    2.30
   8  -7   6   -0.30    3.30
   8  -7   6    2.00    1.40
  -8  -7  -6    3.30    2.40
   8   7   7  134.29    8.10
   8  -7  -7  128.99    9.00
   8  -7  -7  131.09   12.00
  -8  -7  -7  127.19    9.10
   8  -7   7  144.29    9.70
  -8  -8   0 4485.85  141.29
   8  -8   0 4401.36  145.39
   8  -8  -1 1856.11   64.29
  -8  -8   1 1997.70   59.59
   8  -8  -1 1834.62   60.89
   8   8   1 1634.94   60.99
  -8  -8  -1 1997.20   61.29
   8  -8   1 1796.02   60.49
   8  -8   1 1807.92   63.49
   8  -8  -2  349.07   17.60
  -8  -8  -2  352.26   14.00
   8  -8   2  401.36   16.90
   8  -8   2  360.86   13.80
   8  -8  -3   59.79    4.70
   8  -8  -3   57.99    7.50
   8  -8   3   59.49    6.70
   8  -8   3   60.79    4.00
  -8  -8  -3   61.59    4.70
   8  -8  -4  236.48   11.10
   8  -8  -4  226.38   14.20
  -8  -8  -4  229.18   10.70
   8  -8   4  230.18    9.40
   8  -8   4  254.37   12.70
   8  -8  -5 1319.27   51.19
   8   8   5 1443.66   47.10
   8  -8  -5 1442.76   48.00
   8  -8   5 1363.06   45.20
  -8  -8  -5 1341.87   47.30
   8  -8   5 1376.76   48.70
   8  -8  -6  746.23   32.10
   8  -8  -6  748.03   28.40
   8   8   6  754.02   27.50
  -8  -8  -6  737.23   27.90
   8  -8   6  751.22   28.90
   8   9   0  128.19    7.30
   8  -9   0  134.59    9.70
   8  -9   0  137.39    7.10
  -8  -9   0  140.49    6.30
  -8  -9   1  330.97   11.30
   8  -9  -1  301.87   15.60
   8  -9  -1  262.67   13.20
   8  -9   1  315.77   15.50
   8   9  -1  284.37   12.20
   8  -9   1  317.57   12.20
  -8  -9  -1  303.17   11.90
   8  -9  -2   11.20    4.40
   8  -9  -2   13.70    2.60
   8   9  -2   14.60    2.50
  -8  -9  -2    9.00    2.20
   8  -9   2   11.70    4.20
   8  -9   2   11.80    2.20
   8  -9  -3    2.40    2.30
  -8  -9  -3    0.30    1.80
   8  -9   3    0.10    1.50
   8  -9   3    1.20    3.40
   8   9  -3    0.20    1.90
   8  -9  -4   -1.30    4.30
   8  -9  -4    8.30    2.90
  -8  -9  -4    1.90    2.00
   8  -9   4   -0.80    3.80
   8  -9   4    1.90    1.60
   8  -9  -5    2.60    2.90
   8  -9  -5   -0.30    4.70
   8  -9   5    9.60    4.40
  -8  -9  -5    0.30    2.40
   8  -9  -6   -1.10    3.40
   8   9   6    1.00    3.00
   8  -9  -6    8.00    6.30
   8  -9   6    3.70    4.60
  -8  -9  -6    0.60    3.30
  -8 -10   0    4.50    2.10
   8 -10   0    1.00    1.70
   8 -10   0    4.30    3.60
   8 -10  -1  705.03   30.10
  -8 -10   1  802.02   25.20
   8 -10  -1  759.92   26.70
   8 -10   1  734.43   29.80
  -8 -10  -1  754.02   25.80
   8 -10   1  743.63   26.10
   8  10  -1  660.63   25.90
   8 -10  -2  110.59    7.10
   8 -10  -2   98.39    9.20
  -8 -10  -2  121.29    6.60
   8 -10   2  105.79    6.10
   8 -10   2  106.69    9.10
   8 -10  -3   58.19    8.20
   8 -10  -3   76.09    6.10
  -8 -10  -3   72.99    5.60
   8 -10   3   62.29    8.00
   8 -10   3   72.29    4.70
   8 -10  -4  190.38   13.80
   8 -10  -4  184.98   10.40
  -8 -10  -4  182.28    9.60
   8 -10   4  178.28   11.80
   8 -10  -5  457.15   19.60
   8 -10  -5  440.46   23.70
   8 -10   5  478.75   20.70
  -8 -10  -5  433.46   18.70
  -8 -11   0   98.19    5.70
   8 -11   0   99.49    6.50
   8 -11   0   92.59    9.70
   8 -11  -1  334.27   17.80
   8 -11  -1  344.77   14.50
   8 -11   1  331.27   17.60
  -8 -11  -1  331.87   13.50
   8 -11   1  360.26   15.00
   8 -11  -2    4.10    4.80
   8 -11  -2   15.80    3.40
   8 -11   2    8.00    2.40
  -8 -11  -2    9.10    2.70
   8 -11   2   14.80    5.00
   8 -11  -3   -1.50    3.00
   8 -11  -3   -3.40    5.20
   8 -11   3   -5.60    4.20
  -8 -11  -3    0.40    2.40
   8 -11  -4    0.40    6.30
   8 -11  -4   -5.80    3.40
   8 -11   4    2.30    4.60
  -8 -11  -4   -1.30    2.60
   8 -12   0 2318.17   84.59
  -8 -12   0 2454.25   78.89
   8 -12   0 2535.55   80.39
   8 -12  -1  952.20   33.80
   8 -12  -1  929.01   38.20
   8 -12   1  967.10   33.10
   8 -12   1  933.41   37.50
  -8 -12  -1  940.91   32.70
   8 -12  -2  187.08   15.20
   8 -12   2  192.98   13.60
  -8 -12  -2  187.08    9.50
   9   0   0    1.30    1.40
  -9   0   0    2.70    1.10
   9   0   0    4.20    1.10
   9   0   1  578.04   20.20
   9   0  -1  575.04   20.80
   9   0   1  569.94   20.00
  -9   0   1  576.34   19.50
   9   0  -1  560.94   19.70
  -9   0  -1  577.84   19.90
   9   0   2 1680.73   52.49
   9   0  -2 1493.35   51.89
   9   0   2 1610.94   52.39
  -9   0   2 1580.54   51.59
   9   0  -2 1658.93   53.49
  -9   0  -2 1585.04   52.39
   9   0   3 1718.33   57.99
   9   0  -3 1724.73   57.39
  -9   0  -3 1825.92   58.19
   9   0  -3 1825.42   59.29
   9   0   4 2391.76   78.69
  -9   0  -4 2415.76   78.89
   9   0  -4 2361.66   77.89
  -9   0   4 2383.46   76.79
   9   0  -4 2563.94   80.09
   9   0   5  723.43   25.60
   9   0  -5  740.83   27.00
   9   0  -5  705.53   24.80
   9   0   6   11.20    2.50
   9   0  -6    6.10    1.90
   9   0  -6    3.40    3.70
   9   0  -7    1.70    2.10
   9   0   7    8.60    2.60
   9   0  -8  918.31   34.60
   9   0   8 1002.80   34.10
   9   0  -8  957.50   33.90
   9   1   0    3.50    1.40
   9   1   0    1.50    0.80
   9  -1   0    0.50    0.80
   9  -1   0    0.10    1.50
  -9  -1   0    0.10    0.90
  -9   1   0    1.70    1.00
   9   1   1   25.90    2.40
  -9  -1   1   25.50    2.00
   9   1   1   23.20    2.10
   9  -1  -1   27.90    2.20
  -9   1  -1   28.90    2.40
   9  -1  -1   19.80    3.10
   9   1  -1   28.10    2.10
   9  -1   1   28.70    2.50
   9   1  -1   29.80    3.10
  -9  -1  -1   23.70    2.20
  -9   1   1   27.20    2.30
   9  -1   1   21.90    2.70
  -9  -1   2   56.79    2.80
   9   1   2   58.59    3.50
   9   1   2   59.09    3.60
  -9   1  -2   54.99    3.60
   9  -1  -2   51.69    4.80
   9  -1  -2   64.59    3.60
   9   1  -2   56.89    3.20
   9  -1   2   53.59    3.60
  -9   1   2   54.39    3.20
  -9  -1  -2   49.30    3.60
   9   1  -2   58.79    4.50
   9  -1   2   59.09    4.00
  -9   1  -3   29.70    3.10
   9   1   3   33.90    2.80
   9  -1  -3   31.00    4.80
   9  -1  -3   30.50    2.60
   9  -1   3   27.30    2.60
   9   1  -3   27.90    4.10
  -9   1   3   36.60    2.40
   9   1  -3   28.30    2.30
  -9   1  -4 1084.09   38.30
   9   1   4 1124.49   38.20
   9  -1  -4 1166.38   37.80
   9   1  -4 1141.69   37.30
  -9  -1  -4 1089.99   38.30
   9   1  -4 1153.58   38.90
   9  -1   4 1133.99   38.10
   9  -1   4 1156.48   38.20
   9  -1  -5   92.89    7.50
   9  -1  -5   83.79    4.90
   9   1   5   93.79    5.40
   9  -1   5   90.69    5.40
   9  -1   5   85.49    5.20
  -9  -1  -5   89.79    5.60
  -9   1   5   87.39    4.00
   9   1  -5   90.29    4.60
   9   1  -5   95.89    7.00
   9  -1  -6   30.00    3.40
   9   1   6   29.30    3.90
   9  -1  -6   33.70    5.30
  -9   1   6   30.80    2.00
  -9  -1  -6   26.90    4.00
   9   1  -6   33.30    4.90
   9   1  -6   30.00    3.10
   9  -1   6   25.00    3.60
   9  -1   6   30.50    3.40
   9  -1  -7   -0.30    2.10
   9  -1  -7   -2.20    4.00
   9   1   7    0.10    2.30
   9   1  -7    4.90    6.50
  -9  -1  -7   -1.20    2.20
   9  -1   7    1.80    2.10
   9  -1   7    0.00    2.10
   9   1  -7   -1.10    1.90
   9  -1  -8   19.20    3.90
   9  -1  -8   16.40    4.90
   9   1   8   15.40    3.50
   9  -1   8   20.10    3.60
   9   1  -8   20.70    4.00
   9  -1   8   15.90    3.40
  -9  -1  -8   17.00    3.90
   9  -2   0    3.00    2.00
  -9   2   0    3.40    1.10
   9   2   0    3.90    1.40
   9   2   1    3.30    1.00
   9   2   1    4.80    1.30
   9  -2  -1    2.00    0.90
   9  -2  -1    1.40    1.90
   9  -2   1    2.50    1.10
   9  -2   1    2.50    1.80
  -9   2   1    1.60    0.90
  -9   2  -2 2113.49   68.89
   9  -2  -2 2171.88   68.69
   9   2   2 2130.99   68.69
   9  -2  -2 2057.29   71.89
  -9   2   2 2173.28   68.19
   9   2  -2 2162.18   69.09
   9  -2   2 2222.08   69.49
   9  -2   2 2047.60   68.79
   9   2  -2 2015.50   67.99
  -9   2  -3    2.90    1.40
   9  -2  -3   12.60    3.20
  -9  -2  -3   12.80    2.40
   9   2  -3    3.40    2.20
   9  -2   3    6.10    2.20
  -9   2   3    6.60    1.30
   9  -2  -4  427.06   15.60
   9  -2  -4  424.66   18.10
  -9   2  -4  406.66   16.10
   9   2   4  420.66   15.90
   9  -2   4  420.36   16.10
  -9   2   4  430.56   14.90
  -9  -2  -4  408.06   16.00
   9   2  -4  417.36   16.20
   9   2  -4  447.06   15.00
   9  -2   4  433.16   15.90
   9  -2  -5   64.39    4.30
   9  -2  -5   51.39    6.80
   9   2   5   59.69    4.30
  -9  -2  -5   67.59    4.80
   9   2  -5   59.19    3.50
   9  -2   5   67.79    4.60
   9   2  -5   73.19    6.00
  -9   2   5   61.19    3.50
   9  -2   5   62.19    4.60
   9  -2  -6   72.29    5.10
   9  -2  -6   68.99    7.80
   9   2   6   75.09    5.20
   9  -2   6   74.39    5.10
  -9   2   6   68.99    3.90
   9  -2   6   76.09    5.20
   9   2  -6   66.49    6.30
   9   2  -6   71.69    4.30
  -9  -2  -6   72.69    5.30
   9   2   7  233.48   11.30
   9  -2  -7  247.48   13.70
   9  -2  -7  259.67   11.50
   9   2  -7  253.77   10.40
   9  -2   7  261.47   11.30
  -9  -2  -7  240.78   11.70
   9  -2  -8  586.44   24.40
   9   2   8  584.34   22.50
   9  -2   8  590.84   21.80
   9   2  -8  595.94   21.70
  -9  -2  -8  561.54   23.10
   9  -3   0   -0.10    0.90
   9   3   0    1.10    0.80
   9   3   0    1.30    1.10
  -9   3   0    0.30    1.00
   9  -3   0    0.80    1.90
  -9   3  -1    6.10    1.50
   9  -3  -1    4.40    1.20
   9  -3  -1    5.00    2.50
   9   3   1    5.80    1.20
   9  -3   1    4.70    2.20
   9  -3   1    3.10    1.10
   9   3  -1    4.50    1.50
  -9   3   1    6.50    1.30
   9  -3  -2   24.00    4.00
   9  -3  -2   36.60    2.80
   9   3   2   35.80    2.70
  -9   3  -2   32.40    2.90
   9   3  -2   30.70    3.50
  -9  -3  -2   32.00    3.00
   9  -3   2   33.40    2.90
   9  -3   2   33.50    3.60
  -9   3   2   31.40    2.60
   9   3  -2   31.10    2.20
  -9   3  -3   92.19    5.40
   9   3   3   92.49    4.90
   9  -3  -3   91.19    7.20
   9  -3  -3   91.69    5.00
  -9   3   3   89.29    4.60
   9  -3   3   92.29    5.00
   9   3  -3   89.59    4.20
   9   3  -3   92.59    5.50
  -9  -3  -3   90.79    5.20
   9  -3   3   95.29    5.60
   9   3   4  980.40   33.00
   9  -3  -4  984.30   35.80
  -9   3  -4  967.60   33.50
   9  -3  -4  988.90   33.00
   9  -3   4  982.90   33.50
  -9  -3  -4  961.60   33.20
  -9   3   4  985.50   32.10
   9  -3   4  939.11   32.80
   9   3  -4  931.31   32.40
   9   3  -4  943.11   31.70
   9  -3  -5  123.59    9.30
   9  -3  -5  118.29    6.50
   9   3  -5  123.19    5.30
  -9  -3  -5  122.19    6.80
  -9   3   5  120.69    5.60
   9  -3   5  116.69    6.10
   9  -3   5  126.09    7.00
   9   3   6   21.70    3.50
   9  -3  -6   33.10    5.70
   9  -3   6   24.80    3.60
   9  -3   6   22.20    3.40
   9   3  -6   27.30    2.60
  -9  -3  -6   37.20    4.30
  -9   3   6   21.40    2.70
   9   3   7   -0.70    2.30
   9  -3  -7    2.30    4.10
   9  -3  -7   -1.60    2.30
   9  -3   7   -0.50    2.30
   9  -3   7   -0.20    2.10
  -9  -3  -7    0.50    2.10
   9   3  -7   -0.50    1.60
   9  -3  -8   18.40    4.10
   9  -3  -8   19.20    5.60
   9   3   8   18.00    3.80
  -9  -3  -8   17.70    4.40
   9  -3   8   21.20    4.00
   9  -4   0    5.00    1.30
  -9   4   0    2.20    1.10
   9   4   0    4.90    1.10
   9   4   1  453.75   16.50
   9  -4  -1  488.55   20.30
  -9   4  -1  466.65   17.00
   9  -4  -1  457.85   17.00
   9   4  -1  472.35   16.20
  -9  -4  -1  471.25   16.80
   9  -4   1  459.95   17.00
  -9   4   1  467.25   16.70
   9  -4   1  515.25   20.30
   9   4  -1  467.75   16.40
   9  -4  -2 1295.97   47.40
  -9   4  -2 1366.26   44.70
   9   4   2 1343.27   44.30
   9  -4  -2 1346.57   44.60
   9   4  -2 1291.67   43.40
   9  -4   2 1355.96   44.50
  -9   4   2 1382.26   44.20
   9  -4   2 1347.37   46.10
  -9  -4  -2 1385.16   44.50
   9   4  -2 1310.67   43.90
   9  -4  -3 1516.95   53.49
  -9   4  -3 1567.04   50.99
   9  -4  -3 1495.55   50.69
   9   4   3 1530.25   50.59
   9  -4   3 1614.84   51.89
  -9   4   3 1574.04   50.09
   9  -4   3 1465.45   50.39
   9   4  -3 1446.66   49.80
   9   4  -3 1517.25   49.30
  -9  -4  -3 1614.04   50.89
   9  -4  -4 2170.48   69.89
   9  -4  -4 2096.09   72.69
   9   4   4 2154.68   69.69
   9  -4   4 2232.78   70.69
   9   4  -4 2028.70   68.09
  -9  -4  -4 2102.49   69.79
   9  -4   4 2139.59   69.39
  -9   4   4 2129.19   68.89
   9   4   5  599.34   22.60
   9  -4  -5  645.54   23.20
   9  -4  -5  624.44   25.80
  -9   4   5  619.44   21.70
   9  -4   5  647.54   23.40
  -9  -4  -5  626.84   23.00
   9   4  -5  628.14   21.00
   9  -4   5  635.44   22.40
   9   4   6    6.40    2.10
   9  -4  -6   13.90    4.60
   9  -4  -6    5.00    2.10
   9  -4   6    8.40    2.30
  -9  -4  -6    9.50    2.50
  -9   4   6    5.60    1.80
   9  -4   6    7.70    2.60
   9   4  -6    5.10    1.40
   9  -4  -7    3.00    4.30
   9  -4  -7    4.90    3.00
   9   4   7    1.80    2.20
   9   4  -7    4.10    1.70
   9  -4   7    1.70    2.20
  -9  -4  -7    1.60    2.30
   9  -4   7    5.00    2.50
   9  -4  -8  853.41   31.40
   9  -4  -8  829.12   33.60
   9   4   8  802.62   30.30
   9  -4   8  880.61   31.10
  -9  -4  -8  812.52   31.20
  -9   5   0    1.20    1.20
   9   5   0   -0.10    0.80
   9  -5   0    4.80    2.60
   9   5   1   37.00    2.60
   9  -5  -1   31.40    4.70
  -9   5  -1   38.10    3.10
   9  -5  -1   35.70    3.00
   9  -5   1   34.80    2.90
  -9   5   1   38.30    3.10
   9  -5   1   34.10    4.50
   9   5  -1   37.70    2.40
   9   5  -1   39.20    2.80
   9  -5  -2   69.99    4.50
   9  -5  -2   61.69    6.30
  -9   5  -2   63.29    4.20
   9   5   2   67.69    3.90
   9   5  -2   65.69    4.20
  -9   5   2   58.69    3.80
   9  -5   2   65.39    5.50
   9   5  -2   67.09    3.20
   9  -5   2   61.49    3.90
   9   5   3    0.70    1.20
   9  -5  -3    2.00    1.30
   9  -5  -3    7.70    3.70
   9  -5   3    0.80    2.20
   9  -5   3    0.10    1.10
  -9  -5  -3   -0.10    1.40
  -9   5   3    2.00    1.40
   9   5  -3    0.20    0.80
   9  -5  -4  987.50   37.70
   9  -5  -4 1037.00   34.80
   9   5   4  997.30   35.00
   9   5  -4  941.61   32.50
  -9   5   4  990.50   33.80
   9  -5   4 1010.10   34.00
  -9  -5  -4 1010.90   34.60
   9  -5   4 1060.29   35.80
   9   5   5   40.40    4.20
   9  -5  -5   43.10    4.30
   9  -5  -5   49.10    6.90
  -9  -5  -5   50.79    4.50
   9   5  -5   43.50    2.80
   9  -5   5   48.00    5.40
   9  -5   5   42.00    3.70
   9   5   6   27.70    3.70
   9  -5  -6   26.00    5.50
   9  -5  -6   25.50    4.00
   9  -5   6   27.80    4.10
   9   5  -6   26.30    2.40
  -9  -5  -6   19.70    3.40
   9  -5   6   27.40    3.50
   9   5   7    3.80    2.60
   9  -5  -7    1.80    4.40
   9  -5  -7    3.70    3.30
   9  -5   7    1.50    2.10
   9  -5   7    4.20    3.10
  -9  -5  -7    3.70    2.70
   9   6   0    1.10    0.90
  -9   6   0    0.50    1.50
  -9  -6   0   -0.70    1.40
   9  -6   0    4.30    1.40
   9  -6   0    5.80    2.80
   9  -6  -1    1.20    2.80
   9  -6  -1    2.30    1.40
  -9   6  -1    1.40    1.80
   9   6   1    1.30    1.00
   9   6  -1    3.70    1.40
   9  -6   1    2.40    1.30
  -9  -6  -1    2.10    1.40
   9   6  -1    2.00    0.80
  -9   6   1    2.00    1.40
   9  -6  -2 1596.24   52.99
   9  -6  -2 1597.64   56.09
   9   6   2 1603.64   52.29
   9   6  -2 1532.25   51.39
   9  -6   2 1571.74   52.49
  -9  -6  -2 1669.93   52.59
   9   6  -2 1528.55   51.09
   9  -6   2 1660.13   55.09
   9   6   3    4.20    1.60
   9  -6  -3   -0.30    3.20
   9  -6   3    5.70    2.90
   9   6  -3    2.40    0.90
  -9  -6  -3    5.00    1.80
   9  -6  -4  301.87   16.00
   9   6   4  321.37   12.60
   9  -6  -4  301.07   12.90
   9   6  -4  319.87   10.70
   9  -6   4  303.17   12.00
  -9  -6  -4  297.97   12.70
   9  -6   4  309.47   14.20
   9  -6  -5   52.29    7.80
   9  -6  -5   53.29    4.70
   9   6   5   49.20    4.50
  -9  -6  -5   50.19    4.60
   9  -6   5   47.10    5.40
   9  -6   5   52.79    4.00
   9  -6  -6   49.20    7.80
   9  -6  -6   53.39    5.90
   9   6   6   67.49    5.40
  -9  -6  -6   47.00    5.30
   9  -6   6   65.09    4.40
   9  -6   6   65.19    6.30
   9  -6  -7  198.78   11.00
   9  -6  -7  178.88   13.70
   9  -6   7  201.08   11.30
  -9  -6  -7  202.38   11.10
   9  -7   0    4.10    3.00
   9  -7   0    0.40    1.30
  -9  -7   0    3.90    1.60
   9  -7  -1   -5.10    2.60
   9  -7  -1    3.50    1.50
  -9  -7  -1    1.70    1.50
   9  -7   1    0.90    1.40
   9  -7   1    1.70    2.70
   9  -7  -2    7.80    3.90
   9  -7  -2   10.10    2.60
   9  -7   2   10.80    2.10
   9   7  -2   13.30    2.10
   9  -7   2   17.10    4.10
  -9  -7  -2   11.50    2.20
   9  -7  -3  127.99    9.80
   9  -7  -3  134.29    7.30
   9   7  -3  134.39    5.20
   9  -7   3  126.79    6.40
  -9  -7  -3  128.49    6.80
   9  -7   3  133.69    8.80
   9  -7  -4  618.44   27.10
   9   7   4  636.44   23.00
   9  -7  -4  636.84   23.80
   9   7  -4  651.53   20.90
   9  -7   4  639.24   22.50
  -9  -7  -4  622.44   23.30
   9  -7   4  655.53   25.30
   9  -7  -5  116.09   10.50
   9  -7  -5  135.39    8.00
   9   7   5  123.39    7.20
   9   7  -5  122.99    5.40
  -9  -7  -5  134.09    7.50
   9  -7   5  129.89    9.00
   9  -7   5  127.69    6.40
   9  -7  -6   19.60    4.20
   9   7   6   22.80    4.00
   9  -7  -6    9.00    5.20
   9  -7   6   19.50    4.70
  -9  -7  -6   15.70    3.50
   9  -7   6   18.60    3.00
   9  -7  -7   -1.20    3.70
   9  -7  -7    4.50    6.70
   9   7   7   -1.00    2.90
  -9  -7  -7    7.40    6.10
   9  -7   7   -0.50    4.00
   9  -8   0    3.20    1.60
   9  -8   0    4.40    3.60
  -9  -8   0    1.10    1.80
   9  -8  -1  274.07   14.50
   9   8   1  223.98   11.90
  -9  -8  -1  270.57   10.60
   9  -8   1  268.47   10.90
   9  -8   1  272.07   13.80
   9  -8  -2  869.61   30.10
   9  -8  -2  813.92   33.40
   9  -8   2  852.71   29.30
  -9  -8  -2  836.52   29.30
   9  -8   2  866.91   32.60
   9  -8  -3  949.71   39.40
   9  -8  -3 1054.59   36.10
   9  -8   3 1033.30   34.90
   9  -8   3 1087.09   38.40
  -9  -8  -3 1017.30   35.40
   9   8   4 1499.65   49.10
   9  -8  -4 1385.46   53.59
   9  -8  -4 1524.85   50.09
   9  -8   4 1430.66   51.49
   9  -8   4 1466.75   48.20
  -9  -8  -4 1403.26   49.20
   9   8  -4 1489.25   46.70
   9  -8  -5  390.56   21.10
   9   8   5  455.05   17.50
   9  -8  -5  437.06   18.10
   9  -8   5  431.06   15.90
  -9  -8  -5  438.76   17.60
   9  -8   5  452.35   19.50
   9  -8  -6    6.80    3.50
   9   8   6   11.60    3.00
   9  -8  -6    7.40    6.10
  -9  -8  -6    2.00    3.00
   9  -8   6    4.50    4.10
  -9  -9   0   -0.60    1.60
   9  -9   0    6.80    3.60
   9  -9   0   -0.30    1.70
   9   9   0    0.60    3.00
   9  -9  -1   46.30    4.20
   9  -9  -1   38.40    6.40
   9   9  -1   31.40    5.00
  -9  -9  -1   38.90    3.70
   9  -9   1   32.90    5.60
   9  -9   1   40.80    4.00
   9  -9  -2   57.49    7.60
   9  -9  -2   55.89    5.20
   9  -9   2   54.49    7.30
   9   9  -2   58.49    5.60
   9  -9   2   58.09    4.40
  -9  -9  -2   53.79    4.40
   9  -9  -3   13.60    3.10
   9  -9  -3    0.70    4.30
   9  -9   3   10.30    4.20
  -9  -9  -3   10.70    2.50
   9  -9   3    6.20    2.10
   9  -9  -4  685.63   30.90
   9  -9  -4  739.93   27.20
   9  -9   4  765.52   29.30
  -9  -9  -4  714.03   26.40
   9  -9   4  710.13   25.00
   9  -9  -5   19.40    7.20
   9   9   5   15.80    3.30
   9  -9  -5   19.60    4.10
  -9  -9  -5   13.60    3.50
   9  -9   5   16.90    5.20
   9 -10   0    2.30    2.20
  -9 -10   0    0.90    2.10
   9 -10   0   -1.40    3.80
   9 -10  -1   -0.50    4.30
   9 -10  -1   -3.00    2.20
  -9 -10  -1    2.20    2.00
   9 -10   1    1.80    2.10
   9 -10   1    0.00    3.80
   9  10  -1   -1.20    3.10
   9 -10  -2  938.41   38.00
   9 -10  -2  967.40   33.80
   9 -10   2  962.30   36.80
  -9 -10  -2  941.21   32.70
   9 -10   2  917.81   32.80
   9 -10  -3    1.10    4.90
   9 -10  -3    5.00    2.70
   9 -10   3    1.20    4.00
   9 -10   3    5.30    2.20
  -9 -10  -3    4.40    2.40
   9 -10  -4  180.78   14.40
   9 -10  -4  170.48   10.30
   9 -10   4  169.28   12.10
  -9 -10  -4  165.88    9.00
   9 -11   0   -2.70    2.40
  -9 -11   0   -0.50    2.10
   9 -11   0   -1.90    4.20
   9 -11  -1    0.30    4.70
   9 -11  -1    7.70    3.10
  -9 -11  -1    4.90    2.30
   9 -11   1    2.90    4.50
   9 -11   1   -1.60    2.40
   9 -11  -2    1.50    4.80
   9 -11  -2    8.90    3.40
   9 -11   2   -0.80    2.60
  -9 -11  -2    0.60    2.30
   9 -11   2   -3.90    4.30
   9 -11  -3  126.19   13.20
   9 -11  -3  137.09    9.10
   9 -11   3  118.99   11.20
  -9 -11  -3  127.49    7.70
   9 -12   0    1.70    5.80
   9 -12  -1  126.69   13.50
   9 -12  -1  148.79    9.00
   9 -12   1  146.39   13.20
  -9 -12  -1  147.49    7.70
   9 -12   1  145.69    8.50
 -10   0   0  521.85   17.60
  10   0   0  487.25   18.50
  10   0   0  493.55   17.70
  10   0  -1    8.50    2.50
 -10   0   1    5.20    1.20
  10   0   1    7.60    1.80
 -10   0  -1   10.70    1.90
  10   0   1    6.10    1.30
  10   0  -2   89.29    6.30
 -10   0   2   95.39    4.30
  10   0   2   84.39    4.80
 -10   0  -2   84.59    4.80
  10   0  -2   89.09    4.60
 -10   0   3  198.08    7.10
  10   0  -3  183.08    9.80
  10   0   3  173.28    8.10
 -10   0  -3  188.68    8.40
  10   0   3  185.98    8.20
  10   0  -3  186.58    7.80
  10   0  -4  793.12   29.10
  10   0   4  780.12   27.40
  10   0  -4  778.12   29.50
  10   0   4  793.42   27.60
 -10   0   4  792.82   25.60
  10   0  -5   81.39    7.40
  10   0   5   77.29    5.10
  10   0  -5   81.19    4.70
  10   0   5   76.59    5.10
  10   0  -6  219.88    9.70
  10   0   6  234.98   10.80
  10   0  -6  219.48   12.30
  10   0  -7    1.30    2.40
  10   0   7    1.10    2.10
  10   0  -7    3.70    4.70
  10   0   8   17.70    3.60
  10   0  -8   17.50    3.90
  10   0  -8   16.70    5.70
  10  -1   0  904.91   31.10
  10   1   0  930.51   31.30
  10  -1   0  913.11   32.20
  10   1   0  886.01   30.90
 -10  -1   0  956.20   30.80
 -10   1   0  943.41   31.00
  10   1   1  143.89    6.50
  10  -1  -1  139.69    6.40
 -10   1  -1  144.99    6.60
  10   1   1  147.89    6.70
 -10  -1   1  149.39    6.00
 -10  -1  -1  145.89    6.50
  10  -1   1  140.69    6.60
  10   1  -1  139.69    6.20
  10   1  -1  141.09    7.10
  10  -1   1  144.49    7.30
 -10   1   1  148.19    6.30
  10   1   2   94.39    5.10
 -10  -1   2  114.09    5.00
  10   1   2  100.19    5.30
  10  -1  -2  101.29    5.00
 -10   1  -2  103.29    5.50
  10   1  -2  102.59    4.90
  10  -1   2   95.39    5.20
 -10  -1  -2  100.89    5.20
  10   1  -2  101.09    6.50
 -10   1   2  101.49    4.80
  10  -1  -3   38.70    3.10
  10   1   3   42.50    3.50
  10  -1  -3   35.80    5.50
  10   1   3   39.20    3.20
 -10   1  -3   45.80    3.60
  10  -1   3   39.10    3.10
  10  -1   3   39.50    3.50
  10   1  -3   36.90    2.90
 -10   1   3   38.00    2.80
  10   1  -3   46.40    5.00
  10  -1  -4    1.00    3.10
  10  -1  -4    0.30    1.20
  10   1   4    0.50    1.30
  10   1  -4   -0.20    1.00
  10  -1   4    1.90    1.50
  10   1  -4   -0.20    3.20
 -10   1   4   -0.40    1.00
  10  -1   4    0.20    1.40
  10  -1  -5    4.90    1.60
  10   1   5    1.00    1.70
  10  -1  -5    3.80    5.30
  10  -1   5    0.40    1.50
  10   1  -5    1.80    1.40
  10  -1   5   -0.60    1.70
  10   1  -5   -1.00    3.60
 -10   1   5    1.60    1.10
  10  -1  -6   39.40    5.80
  10  -1  -6   36.90    3.80
  10   1   6   33.60    4.20
  10  -1   6   30.30    3.60
  10   1  -6   30.00    3.30
  10   1  -6   28.00    5.10
  10  -1   6   28.00    3.90
  10  -1  -7  214.88   12.80
  10  -1  -7  222.88   10.40
  10   1   7  216.08   10.60
  10  -1   7  208.68   10.10
  10   1  -7  208.08   12.50
  10  -1   7  217.68   10.30
  10   1  -7  228.98    9.90
  10  -1  -8  330.67   14.60
  10  -1  -8  315.47   16.10
  10   1  -8  296.67   14.60
  10  -1   8  342.17   14.30
  10  -2   0 2177.88   74.39
  10  -2   0 2349.17   75.99
  10   2   0 2238.38   74.09
  10   2   0 2344.07   74.29
 -10   2   0 2393.06   74.39
  10   2   1 1336.37   45.10
 -10   2  -1 1400.56   45.30
  10   2   1 1359.76   45.10
  10  -2  -1 1429.66   47.30
  10  -2  -1 1374.96   45.30
  10   2  -1 1399.46   45.40
  10  -2   1 1273.37   45.20
  10   2  -1 1319.97   44.70
  10  -2   1 1446.16   46.50
 -10   2   1 1357.26   44.90
  10   2   2  415.26   15.20
  10  -2  -2  409.66   15.20
  10   2   2  439.46   15.90
 -10   2  -2  405.96   15.30
  10  -2  -2  397.66   17.10
  10  -2   2  399.86   15.80
  10   2  -2  399.06   15.70
  10   2  -2  408.96   14.90
  10  -2   2  414.26   15.30
 -10   2   2  412.46   14.70
 -10   2  -3  129.09    6.70
  10   2   3  137.09    6.50
  10  -2  -3  140.39    6.50
  10  -2  -3  129.39    8.60
 -10   2   3  129.19    5.80
  10   2  -3  146.59    7.60
  10  -2   3  129.39    6.50
  10   2  -3  132.39    5.90
  10  -2   3  141.59    7.10
  10   2   4  119.59    6.40
  10  -2  -4  133.39    6.40
  10  -2  -4  120.59    9.00
  10  -2   4  116.39    6.40
 -10   2   4  122.19    5.50
  10   2  -4  129.19    7.90
 -10  -2  -4  115.39    6.50
  10  -2   4  118.09    6.70
  10   2  -4  129.29    5.70
  10  -2  -5  580.74   23.90
  10  -2  -5  590.84   21.30
  10   2   5  580.14   21.70
 -10   2   5  586.84   20.00
  10   2  -5  602.04   20.90
  10   2  -5  583.64   21.90
  10  -2   5  593.94   21.70
 -10  -2  -5  564.34   21.70
  10  -2   5  579.74   21.30
  10   2   6 1262.87   42.00
  10  -2  -6 1108.19   42.40
  10  -2  -6 1268.67   44.60
 -10   2   6 1248.28   39.80
  10   2  -6 1253.17   40.60
  10  -2   6 1217.68   41.90
 -10  -2  -6 1184.98   42.20
  10  -2  -7  597.54   21.90
  10  -2  -7  570.64   24.30
  10   2   7  557.04   21.70
  10  -2   7  616.24   21.70
  10  -2   7  548.65   21.70
 -10  -2  -7  528.85   22.00
  10   2  -7  573.14   20.60
  10  -2  -8  173.58   12.20
  10  -2  -8  184.68   10.40
  10   2   8  175.88    9.80
  10  -2   8  157.88    9.30
  10  -2   8  162.28    9.20
 -10  -2  -8  153.58   10.20
  10   2  -8  164.08    9.40
 -10   3   0  726.43   24.90
  10   3   0  711.93   24.70
  10  -3   0  741.63   25.20
  10   3   0  721.23   24.60
  10  -3  -1   42.70    3.20
  10   3   1   46.40    3.30
  10   3   1   43.90    3.00
  10  -3  -1   50.59    6.90
 -10   3  -1   45.00    3.40
  10   3  -1   44.80    2.90
  10  -3   1   44.70    3.40
  10   3  -1   43.60    3.50
 -10   3   1   44.10    3.20
  10  -3   1   42.50    4.40
 -10   3  -2   78.99    4.80
  10  -3  -2   66.89    4.20
  10   3   2   77.09    4.30
  10   3  -2   68.69    5.10
  10  -3   2   67.39    5.40
  10   3  -2   80.09    3.80
 -10   3   2   67.69    4.00
  10  -3   2   73.09    4.50
  10   3   3   33.40    3.10
 -10   3  -3   31.70    3.60
  10  -3  -3   33.90    3.10
  10  -3  -3   36.90    5.30
  10  -3   3   38.40    3.30
  10   3  -3   36.30    2.60
  10  -3   3   35.90    4.00
 -10  -3  -3   33.20    3.30
 -10   3   3   32.40    2.80
  10   3  -3   38.10    4.60
  10  -3  -4    6.90    1.90
  10  -3  -4    4.80    3.70
  10   3   4    2.20    1.60
  10  -3   4    2.10    1.60
  10  -3   4    4.60    1.80
 -10   3   4    4.90    1.40
 -10  -3  -4    3.70    1.80
  10   3  -4    3.10    1.20
  10   3  -4    5.10    3.10
  10  -3  -5   17.90    4.70
  10  -3  -5   14.70    2.70
  10   3   5   15.40    2.60
 -10   3   5   14.50    2.40
  10  -3   5   11.90    2.70
 -10  -3  -5   14.60    2.80
  10  -3   5   13.10    2.50
  10   3  -5   15.40    2.20
  10   3   6   13.60    2.70
  10  -3  -6   13.30    2.70
  10  -3  -6    9.50    4.30
  10  -3   6   11.90    3.10
  10  -3   6   13.10    2.90
  10   3  -6   16.40    2.60
 -10  -3  -6   10.20    2.80
  10  -3  -7  121.29    7.70
  10   3   7  119.89    7.60
  10   3  -7  124.59    6.40
  10  -3   7  113.79    7.50
  10  -3   7  122.79    7.20
 -10  -3  -7  115.09    8.00
  10  -3  -8  264.77   15.70
  10   3   8  280.07   13.00
  10  -3  -8  286.47   13.80
 -10  -3  -8  256.87   14.00
  10  -3   8  273.27   13.30
  10   4   0  437.06   15.60
 -10   4   0  441.36   16.00
  10  -4   0  432.96   16.20
  10   4   0  447.96   15.60
  10  -4   0  434.86   18.30
  10   4   1    4.00    1.20
  10  -4  -1    5.10    1.50
  10  -4  -1    5.60    3.00
  10  -4   1    6.80    1.50
  10  -4   1    9.30    2.90
  10   4  -1    8.90    1.90
 -10   4   1    5.90    1.50
  10  -4  -2   73.29    6.80
  10  -4  -2   72.99    4.60
 -10   4  -2   82.89    4.90
  10   4   2   81.59    4.60
  10  -4   2   72.89    4.40
 -10  -4  -2   75.99    4.80
  10   4  -2   75.69    3.80
  10   4  -2   80.69    5.00
 -10   4   2   75.19    4.30
  10  -4   2   78.79    6.10
  10  -4  -3  169.38    7.80
  10   4   3  167.18    7.60
  10  -4  -3  153.58   10.00
  10   4  -3  167.58    6.60
  10  -4   3  183.18    9.00
 -10  -4  -3  157.58    7.60
  10  -4   3  154.78    7.40
  10   4  -3  144.79    7.70
 -10   4   3  164.98    7.20
  10  -4  -4  685.33   24.30
  10   4   4  570.14   26.80
  10  -4  -4  691.53   27.50
  10   4  -4  703.33   22.70
 -10  -4  -4  695.93   24.40
  10  -4   4  682.53   23.90
  10  -4   4  695.33   25.10
 -10   4   4  655.83   23.20
  10  -4  -5   62.79    7.70
  10   4   5   68.49    5.10
  10  -4  -5   66.49    5.30
  10   4  -5   64.29    3.60
  10  -4   5   66.39    5.50
  10  -4   5   62.89    4.70
 -10  -4  -5   62.59    5.00
 -10   4   5   60.19    4.20
  10  -4  -6  196.98   12.50
  10   4   6  190.98    9.50
  10  -4  -6  197.08    9.70
 -10  -4  -6  194.48    9.70
  10  -4   6  196.08    9.00
 -10   4   6  168.18    8.10
  10   4  -6  192.98    7.80
  10  -4   6  199.28    9.90
  10  -4  -7   -1.20    2.90
  10  -4  -7    4.80    4.80
  10  -4   7    1.60    3.80
  10  -4   7    0.80    2.60
 -10  -4  -7    5.40    3.00
  10  -5   0  862.21   32.00
  10   5   0  872.51   28.60
 -10   5   0  832.42   29.00
  10  -5   0  832.42   29.30
 -10   5  -1  194.28    9.10
  10  -5  -1  227.78   12.10
  10  -5  -1  220.68    9.50
  10   5   1  221.78    8.80
 -10   5   1  209.78    9.00
  10   5  -1  217.88    8.70
 -10  -5  -1  227.88    9.20
  10   5  -1  219.38    8.40
  10  -5   1  221.18   11.30
  10  -5   1  215.68    9.30
  10  -5  -2   91.49    5.30
  10  -5  -2   89.69    8.10
  10   5   2   92.39    4.90
  10   5  -2   91.69    5.30
  10  -5   2   92.49    6.80
  10   5  -2   95.69    4.40
  10  -5   2   90.49    5.20
 -10  -5  -2  101.49    5.40
 -10   5   2   88.09    5.10
  10  -5  -3   34.50    3.40
  10   5   3   32.10    3.10
  10  -5  -3   29.00    5.10
 -10  -5  -3   37.60    3.60
  10   5  -3   35.80    2.50
  10   5  -3   34.80    3.70
 -10   5   3   37.20    3.40
  10  -5   3   35.80    4.40
  10  -5   3   31.80    3.30
  10   5   4   -0.50    1.60
  10  -5  -4    6.30    4.10
 -10  -5  -4    3.90    1.70
  10  -5   4    3.40    1.90
  10   5  -4    1.50    1.00
  10  -5   4    4.70    2.30
  10  -5  -5    5.30    4.10
  10  -5  -5   11.10    2.60
  10   5   5   12.10    2.40
 -10  -5  -5   10.80    2.70
  10  -5   5    7.40    2.10
  10  -5   5   10.70    3.40
  10   5  -5   11.00    1.60
  10  -5  -6   37.90    6.70
  10   5   6   45.30    4.90
  10  -5  -6   40.40    5.10
 -10  -5  -6   34.10    4.40
  10  -5   6   48.30    4.50
  10  -5   6   47.00    5.80
  10   5  -6   43.60    3.00
  10  -5  -7  277.47   16.50
  10   5   7  267.77   12.50
  10  -5  -7  272.07   13.50
  10  -5   7  275.57   11.70
  10  -5   7  278.67   13.60
 -10  -5  -7  271.77   13.50
  10  -6   0 1770.32   60.69
  10  -6   0 1738.63   57.59
  10   6   0 1724.03   56.49
  10   6   1  973.80   33.50
  10  -6  -1 1017.20   37.70
  10  -6  -1  996.20   34.40
  10  -6   1 1000.60   34.20
  10   6  -1  981.40   33.10
  10  -6   1  978.50   36.80
 -10  -6  -1 1037.10   34.10
  10   6  -1 1034.70   33.20
  10  -6  -2  303.27   12.50
  10   6   2  305.57   11.80
  10  -6  -2  284.87   15.30
 -10  -6  -2  322.47   12.20
  10  -6   2  301.87   14.50
  10   6  -2  289.37   11.40
  10  -6   2  302.97   12.10
  10   6  -2  309.97   11.00
  10  -6  -3   97.69    9.20
  10  -6  -3  105.89    6.20
  10  -6   3  102.59    7.60
  10  -6   3  105.29    5.90
  10   6  -3  102.99    4.50
 -10  -6  -3  102.49    5.90
  10   6   4   91.19    5.80
  10  -6  -4  101.49    9.30
  10  -6  -4   99.39    6.40
  10   6  -4   94.09    4.20
  10  -6   4   94.99    5.50
  10  -6   4   90.49    7.40
 -10  -6  -4   87.89    5.70
  10  -6  -5  460.95   18.30
  10   6   5  457.55   17.70
  10  -6  -5  430.46   21.40
  10  -6   5  461.25   17.10
  10  -6   5  498.35   19.60
  10   6  -5  436.66   15.50
 -10  -6  -5  439.46   17.90
  10   6   6  981.30   34.90
  10  -6  -6 1018.00   35.80
  10  -6  -6  936.31   38.90
  10  -6   6 1011.40   33.90
 -10  -6  -6  927.21   35.20
  10  -6   6 1058.59   36.60
  10   6   7  452.75   18.80
  10  -6  -7  476.15   20.00
  10  -6  -7  461.45   23.60
 -10  -6  -7  435.26   19.50
  10  -6   7  467.15   20.00
  10   7   0  442.06   15.70
 -10  -7   0  449.26   16.20
  10  -7   0  433.46   16.70
  10  -7   0  439.86   19.80
  10  -7  -1    2.90    3.30
  10   7   1    3.00    1.30
 -10  -7  -1    9.00    2.10
  10   7  -1    4.70    1.20
  10   7  -1    4.10    1.70
  10  -7   1    3.60    1.60
  10  -7   1    9.80    3.70
  10  -7  -2   28.40    5.30
  10   7   2   37.90    3.40
  10  -7  -2   36.00    3.80
  10  -7   2   28.60    4.90
  10   7  -2   31.40    4.10
 -10  -7  -2   33.90    3.60
  10  -7   2   34.70    3.40
  10   7  -2   33.30    2.50
  10   7   3   22.90    3.00
  10  -7  -3   22.90    5.80
  10  -7  -3   19.40    3.20
  10   7  -3   25.30    2.10
  10  -7   3   27.60    3.40
  10  -7   3   24.30    4.80
 -10  -7  -3   20.20    3.10
  10  -7  -4   -0.10    3.90
  10  -7  -4    5.70    2.70
  10   7   4    3.10    1.80
  10  -7   4    5.40    3.40
  10  -7   4    2.30    1.90
 -10  -7  -4    8.20    2.50
  10  -7  -5   37.30    7.20
  10  -7  -5   44.70    4.90
  10   7   5   38.30    4.30
  10  -7   5   36.50    5.60
  10  -7   5   40.20    4.10
 -10  -7  -5   48.70    5.00
  10  -7  -6   11.20    3.50
  10  -7  -6    3.00    5.50
  10   7   6    2.70    2.80
  10  -7   6    3.90    2.20
 -10  -7  -6    2.40    2.90
  10  -7   6   12.20    4.50
  10  -8   0  292.27   15.60
  10  -8   0  284.57   12.10
 -10  -8   0  288.47   11.40
  10  -8  -1    8.50    3.90
 -10  -8  -1   21.60    2.80
  10   8   2   44.00    4.50
  10  -8  -2   48.00    4.40
  10  -8  -2   40.90    6.80
  10   8  -2   48.00    3.00
 -10  -8  -2   42.50    3.90
  10  -8   2   44.90    4.20
  10  -8   2   55.49    7.00
  10  -8  -3  116.39    7.10
  10   8   3  113.09    6.30
  10  -8  -3  118.29   10.10
  10   8  -3  111.29    4.90
 -10  -8  -3  108.09    6.50
  10  -8   3  117.69    6.30
  10  -8   3  116.19    9.30
  10  -8  -4  450.45   18.70
  10   8   4  442.96   17.80
  10  -8  -4  455.35   22.80
 -10  -8  -4  458.75   18.20
  10   8  -4  488.05   16.00
  10  -8   4  475.65   17.40
  10  -8   4  469.35   20.70
  10  -8  -5   32.30    7.50
  10   8   5   48.60    4.70
  10  -8  -5   36.30    5.70
  10  -8   5   39.40    4.10
 -10  -8  -5   37.60    4.90
  10  -8   5   30.40    5.50
  10  -8  -6  153.98   10.50
  10  -8  -6  127.79   14.40
  10   8   6  134.99    8.90
 -10  -8  -6  133.09    8.90
  10  -8   6  153.68   10.90
  10  -9   0  593.24   22.10
  10  -9   0  602.84   26.00
  10  -9  -1  228.58   13.90
  10  -9  -1  227.18   10.70
 -10  -9  -1  221.78    9.70
  10  -9   1  218.28   13.60
  10  -9   1  236.38   10.40
  10  -9  -2   77.09    5.80
  10  -9  -2   67.09    9.30
  10  -9   2   80.29    8.60
 -10  -9  -2   68.79    5.10
  10  -9   2   71.89    5.30
  10   9   3   30.80    4.10
  10  -9  -3   23.40    4.10
  10  -9  -3   21.40    5.70
  10   9  -3   27.70    2.50
 -10  -9  -3   20.00    3.50
  10  -9   3   23.30    3.80
  10  -9   3   25.20    5.50
  10  -9  -4   -3.90    5.20
  10  -9  -4   -1.50    2.60
  10   9   4    0.10    2.30
  10  -9   4    0.90    2.20
 -10  -9  -4    1.40    2.20
  10  -9   4    3.10    4.30
  10   9   5   26.70    4.20
  10  -9  -5   26.90    4.90
  10  -9  -5   21.00    7.60
 -10  -9  -5   21.70    4.40
  10  -9   5   29.60    6.00
 -10 -10   0 1041.20   34.90
  10 -10   0 1026.10   36.20
  10 -10   0 1039.60   40.70
  10 -10  -1  588.04   27.00
  10 -10  -1  616.14   22.80
  10 -10   1  572.94   26.00
 -10 -10  -1  608.14   21.60
  10 -10   1  595.84   22.20
  10 -10  -2  177.98   13.50
  10 -10  -2  177.18    9.70
  10 -10   2  180.38    8.80
  10 -10   2  176.18   12.60
 -10 -10  -2  175.28    8.70
  10 -10  -3   60.09    9.50
  10 -10  -3   55.19    5.90
  10 -10   3   81.19    9.30
  10 -10   3   64.19    5.90
 -10 -10  -3   58.39    5.20
  10 -10  -4   47.50   10.00
  10 -10  -4   57.09    6.60
  10  10   4   57.19    5.50
 -10 -10  -4   55.49    5.70
  10 -10   4   62.39    8.70
 -10 -11   0  210.48    9.40
  10 -11   0  209.08   10.50
  10 -11   0  208.18   14.70
  10 -11  -1    1.60    2.90
  10 -11  -1   -2.40    5.40
  10 -11   1   -4.50    2.70
 -10 -11  -1    2.80    2.30
  10 -11   1    0.50    5.00
  10 -11  -2   19.80    4.20
  10 -11  -2   12.30    6.50
 -10 -11  -2   17.70    3.20
  10 -11   2   20.90    6.10
  10 -11   2   12.40    2.90
  11   0   0    3.10    2.00
  11   0   0    2.60    1.20
 -11   0   1  329.07   12.10
 -11   0  -1  322.67   12.40
  11   0  -1  337.67   13.90
  11   0   1  326.87   12.60
  11   0  -1  322.17   12.50
 -11   0   2  103.09    4.80
  11   0  -2   92.09    7.80
  11   0   2  102.09    5.80
  11   0  -2   98.49    5.10
  11   0   2   98.49    5.30
 -11   0  -3 2567.94   83.59
  11   0  -3 2554.64   83.09
  11   0   3 2572.14   83.49
  11   0   3 2539.15   83.59
  11   0  -3 2630.34   85.59
  11   0   4   97.79    5.70
 -11   0   4  106.19    4.60
  11   0   4   97.79    5.80
  11   0  -4  104.49    5.50
  11   0  -4  110.19    8.10
  11   0  -5  470.85   17.50
  11   0   5  471.15   18.00
  11   0   5  481.55   18.10
  11   0  -5  464.25   20.00
  11   0   6  190.68    9.30
  11   0  -6  189.48    8.90
  11   0   6  187.98    9.40
  11   0  -6  183.58   13.20
  11   0  -7  789.72   31.50
  11   0   7  848.52   30.10
  11   0   7  853.71   30.10
  11   1   0    2.60    1.80
  11  -1   0    0.80    1.90
  11  -1   0    0.60    1.10
 -11  -1   0    1.50    1.20
  11   1   0    2.80    1.10
 -11   1   0    4.00    1.50
  11   1   1  129.79    6.70
 -11   1  -1  136.09    6.40
 -11  -1   1  135.09    5.80
  11  -1  -1  134.39    6.40
  11   1   1  133.79    6.20
  11  -1  -1  133.09    7.80
  11  -1   1  126.99    7.00
  11  -1   1  134.19    6.40
  11   1  -1  126.79    7.80
 -11   1   1  130.39    5.90
 -11  -1  -1  134.89    6.30
  11   1  -1  128.69    6.10
  11  -1  -2   10.50    3.50
 -11   1  -2    8.10    1.80
  11  -1  -2    6.30    1.60
  11   1   2    7.30    1.90
  11   1   2    5.70    1.60
 -11  -1   2    6.00    1.20
 -11   1   2    4.70    1.30
  11  -1   2    6.40    1.90
  11   1  -2    3.40    2.50
 -11  -1  -2   11.80    2.10
  11   1  -2    8.40    1.50
  11  -1   2    8.90    1.70
  11   1   3  544.95   19.50
  11   1   3  509.45   19.10
 -11   1  -3  565.84   20.70
  11  -1  -3  532.85   19.10
  11  -1  -3  527.75   21.50
  11   1  -3  522.25   20.60
 -11   1   3  538.65   18.30
  11  -1   3  512.65   19.30
  11   1  -3  536.75   18.80
  11  -1   3  493.95   19.50
  11   1   4   17.90    2.80
  11   1   4   16.70    2.80
  11  -1  -4   12.60    2.30
  11  -1   4   12.50    2.50
 -11   1   4   15.10    2.10
  11  -1   4   19.40    3.10
  11   1  -4   17.00    4.20
  11   1  -4   16.10    2.40
  11   1   5  140.29    7.40
  11  -1  -5  134.99    7.10
  11  -1  -5  151.68   10.20
  11   1  -5  137.39    6.70
  11  -1   5  140.79    7.60
 -11   1   5  148.99    6.20
  11  -1   5  138.99    7.30
  11   1  -5  137.89    9.50
  11   1   6   14.50    2.80
  11  -1  -6   15.10    5.20
  11  -1  -6   17.90    3.00
  11   1  -6   24.80    7.90
  11   1  -6   17.20    3.00
  11  -1   6   15.60    3.00
  11  -1   6   16.10    2.90
  11   1   7   94.89    6.70
  11  -1  -7  111.19    7.30
  11  -1  -7  113.69   10.40
  11   1  -7  109.09    6.80
  11  -1   7   95.59    6.60
  11  -1   7  106.69    7.10
 -11   2   0    0.40    1.20
  11   2   0    3.50    1.20
  11   2   0    1.40    1.40
  11  -2   0   -1.60    2.10
 -11   2  -1 1590.24   49.90
  11   2   1 1522.45   49.70
  11  -2  -1 1317.67   56.59
  11   2   1 1494.05   49.70
  11  -2  -1 1450.95   49.80
  11   2  -1 1520.05   50.09
 -11   2   1 1579.64   49.60
  11   2  -1 1528.25   49.40
  11  -2   1 1476.95   49.90
  11  -2   1 1572.94   51.19
  11  -2  -2  864.41   30.20
 -11   2  -2  885.41   30.40
  11   2   2  891.51   30.10
  11  -2  -2  862.61   34.10
  11   2   2  883.31   30.30
  11  -2   2  882.01   30.40
  11  -2   2  891.61   31.20
 -11   2   2  898.91   29.70
  11   2  -2  873.61   31.00
  11   2  -2  885.71   29.60
  11  -2  -3 2599.84   85.09
  11  -2  -3 2544.65   82.19
  11   2   3 2530.05   82.29
  11   2  -3 2574.34   83.09
  11   2  -3 2462.45   81.39
  11  -2   3 2446.16   82.19
  11  -2   3 2501.05   82.79
 -11   2   3 2596.44   81.39
  11  -2  -4  582.74   20.90
  11  -2   4  580.04   20.90
  11  -2   4  564.74   21.40
 -11   2   4  567.54   19.80
  11   2  -4  565.24   21.90
  11   2  -4  572.04   20.10
  11  -2  -5  404.56   18.60
  11  -2  -5  397.46   15.50
  11   2   5  426.36   16.00
  11  -2   5  328.17   16.30
  11   2  -5  399.66   14.70
  11   2  -5  390.36   16.70
 -11   2   5  398.26   14.10
  11  -2   5  421.26   16.20
  11  -2  -6   46.50    7.00
  11   2   6   45.40    4.60
  11  -2  -6   49.70    4.90
  11   2  -6   45.70    4.00
  11  -2   6   41.70    4.50
  11  -2   6   43.20    4.60
  11   2   7  130.39    7.80
  11  -2  -7  129.89    8.20
  11  -2  -7  137.19   11.20
  11  -2   7  132.09    7.90
  11   2  -7  139.89    7.30
  11  -2   7  133.79    8.40
 -11   3   0   -0.60    1.20
  11   3   0    2.20    1.10
  11   3   0   -2.10    1.60
  11  -3   0    0.40    1.10
  11  -3   0   -0.20    2.40
  11  -3  -1   93.79    5.20
  11   3   1   94.29    5.00
  11  -3  -1   86.59    7.10
  11   3   1   98.69    5.10
 -11   3  -1   93.69    5.40
  11   3  -1   94.59    4.80
  11  -3   1   96.99    6.70
  11   3  -1  100.19    5.60
 -11   3   1  101.49    5.20
  11  -3   1   98.39    5.40
  11  -3  -2    1.80    3.00
 -11   3  -2    2.50    2.00
  11  -3  -2    6.20    1.70
  11   3   2    2.70    1.30
  11   3  -2    4.90    2.60
 -11   3   2    2.20    1.40
  11   3  -2    2.10    1.10
  11  -3   2    1.40    2.00
  11  -3  -3  386.66   14.90
  11  -3  -3  392.26   17.70
  11   3   3  377.66   14.60
  11  -3   3  373.06   14.60
  11  -3   3  380.46   15.70
 -11   3   3  374.46   14.00
  11   3  -3  361.76   15.20
  11   3  -3  389.86   13.80
  11  -3  -4    9.90    4.50
  11   3   4   10.10    2.30
  11  -3  -4   12.20    2.50
  11   3  -4    8.80    1.70
 -11   3   4    6.30    1.60
 -11  -3  -4    9.40    2.50
  11  -3   4    5.90    1.90
  11   3  -4   11.90    3.80
  11  -3   4    8.20    2.60
  11  -3  -5   92.99    8.90
  11   3   5  110.89    6.50
  11  -3  -5  112.89    7.30
 -11   3   5   95.19    5.20
  11  -3   5  101.19    6.70
  11   3  -5  106.69    5.40
 -11  -3  -5  102.39    6.50
  11  -3  -6   14.10    5.40
  11  -3  -6   23.70    4.20
  11   3   6   13.10    2.80
 -11  -3  -6   16.00    3.40
  11  -3   6   15.10    3.00
  11  -3   6   14.50    3.00
  11  -3  -7  107.59    7.90
  11   3   7  107.19    7.60
  11  -3  -7  133.59   11.60
  11  -3   7  108.79    7.30
 -11  -3  -7  102.39    7.90
  11   3  -7  109.19    6.30
  11  -3   7  117.49    7.90
 -11   4   0    2.30    1.60
  11  -4   0   -1.10    2.60
  11   4   0    1.10    1.40
  11   4   0    1.40    1.10
  11  -4   0    0.30    1.30
 -11   4  -1  267.77   11.20
  11   4   1  262.87   10.60
  11  -4  -1  260.87   11.00
  11  -4  -1  277.97   13.90
  11  -4   1  263.07   12.80
 -11   4   1  253.57   10.70
  11   4  -1  268.27   10.70
  11   4  -1  270.47   10.30
  11  -4   1  287.47   11.30
  11   4   2   78.29    4.70
  11  -4  -2   86.79    5.20
  11  -4  -2   82.69    7.40
  11   4  -2   79.99    5.60
  11  -4   2   78.29    6.10
  11   4  -2   83.89    4.30
 -11   4   2   78.69    4.60
  11  -4   2   79.99    4.90
  11  -4  -3 2302.37   77.19
  11   4   3 2258.07   73.39
  11  -4  -3 2267.47   73.79
  11  -4   3 2161.58   73.39
  11   4  -3 2224.58   72.19
  11   4  -3 2159.18   73.19
 -11  -4  -3 2328.07   73.79
  11  -4   3 2312.17   75.09
 -11   4   3 2226.28   72.79
  11   4   4   90.19    5.70
  11  -4  -4   85.89    8.70
 -11   4   4   83.09    5.00
  11  -4   4   89.49    5.50
  11   4  -4   92.29    4.60
  11  -4   4   94.19    6.50
 -11  -4  -4   92.39    6.00
  11  -4  -5  399.56   16.20
  11   4   5  411.26   16.10
  11  -4  -5  414.16   19.80
 -11  -4  -5  393.26   16.40
  11  -4   5  426.36   17.10
 -11   4   5  384.96   14.90
  11   4  -5  402.16   14.50
  11  -4  -6  182.08   12.80
  11   4   6  163.98    8.80
  11  -4  -6  183.58    9.70
  11  -4   6  175.58    8.80
 -11  -4  -6  159.48    9.30
  11  -4   6  170.28    9.60
  11   4  -6  169.18    7.50
  11   4   7  727.13   26.60
  11  -4  -7  692.83   26.90
  11  -4   7  717.83   25.90
  11  -4   7  721.83   27.30
 -11  -4  -7  695.43   27.20
  11   5   0   -0.50    1.10
  11  -5   0    1.50    1.40
  11  -5   0   -0.20    2.70
  11   5   0    1.10    1.30
  11  -5  -1  132.99    9.20
  11  -5  -1  142.19    7.10
  11   5   1  139.89    6.50
  11  -5   1  140.59    7.00
  11   5  -1  136.79    6.10
  11   5  -1  131.09    6.60
  11  -5   1  137.19    8.80
  11  -5  -2   11.30    2.30
  11  -5  -2   22.30    4.90
  11   5   2   12.80    2.30
  11  -5   2   15.60    3.90
  11   5  -2   14.70    2.80
  11  -5   2   11.50    2.40
  11   5  -2   11.10    2.00
 -11  -5  -2   13.70    2.70
  11  -5  -3  504.35   20.20
  11  -5  -3  490.05   22.30
  11   5  -3  465.55   18.70
  11  -5   3  500.75   18.80
  11   5  -3  529.95   17.60
 -11  -5  -3  517.05   19.10
  11  -5   3  537.95   20.90
  11  -5  -4   24.20    5.60
  11  -5  -4   21.00    3.40
 -11  -5  -4   16.90    3.00
  11   5  -4   17.30    2.30
  11  -5   4   15.50    2.70
  11  -5   4   22.90    4.10
  11  -5  -5  153.88    8.50
  11   5   5  147.19    7.70
  11  -5  -5  136.39   11.30
  11  -5   5  149.69    9.10
  11  -5   5  131.89    8.40
  11   5  -5  141.29    6.20
 -11  -5  -5  132.69    7.90
  11  -5  -6   12.00    5.10
  11   5   6   14.60    3.10
  11  -5  -6   10.70    3.30
  11  -5   6   12.40    3.80
 -11  -5  -6    9.60    3.10
  11  -5   6   16.60    3.00
  11  -5  -7   71.49    7.20
  11   5   7   80.29    6.70
  11  -5   7   72.69    7.60
 -11  -5  -7   73.09    7.30
  11  -6   0    0.60    1.50
  11  -6   0    5.80    3.40
  11   6   0    1.20    1.20
  11   6   0   -0.60    1.50
  11   6   1 1179.48   38.50
  11  -6  -1 1163.58   42.90
  11  -6   1 1134.49   42.00
  11   6  -1 1159.48   38.00
  11   6  -1 1144.29   38.10
  11  -6   1 1114.99   39.10
  11  -6  -2  641.64   24.10
  11   6   2  674.73   23.50
  11  -6  -2  659.23   27.90
  11   6  -2  639.74   23.00
 -11  -6  -2  687.43   23.80
  11  -6   2  645.04   23.80
  11   6  -2  674.13   23.00
  11  -6   2  690.13   26.60
  11  -6  -3 1913.71   69.39
  11  -6  -3 2015.90   65.59
  11   6   3 2014.80   64.89
  11  -6   3 1935.61   64.89
 -11  -6  -3 1982.00   65.09
  11   6  -3 1969.40   63.39
  11  -6   3 1959.40   67.39
  11  -6  -4  442.66   17.70
  11   6   4  438.86   17.20
  11  -6  -4  414.46   21.00
  11   6  -4  458.25   15.40
  11  -6   4  438.46   19.20
 -11  -6  -4  457.05   17.50
  11  -6  -5  314.47   14.00
  11  -6  -5  307.37   17.20
  11   6   5  312.37   13.10
  11  -6   5  310.87   14.80
 -11  -6  -5  299.57   13.30
  11  -6   5  283.57   13.50
  11   6  -5  297.07   11.00
  11  -6  -6   26.00    4.40
  11  -6  -6   44.70    8.10
  11   6   6   29.70    4.40
 -11  -6  -6   39.20    5.20
  11  -6   6   31.90    4.60
  11  -6   6   26.60    5.10
  11  -7   0    2.20    1.90
  11   7   0    0.90    1.20
  11  -7   0   -0.30    3.10
  11  -7  -1   55.99    7.20
  11  -7  -1   50.49    4.40
  11   7   1   50.89    3.70
  11   7  -1   51.69    4.20
 -11  -7  -1   50.59    4.30
  11   7  -1   52.99    3.40
  11  -7   1   43.70    6.50
  11  -7   1   50.59    4.50
  11   7   2    2.00    2.50
  11  -7  -2    0.00    2.10
  11  -7  -2   -0.50    3.50
  11  -7   2    1.60    2.80
  11   7  -2    1.20    1.10
  11  -7   2    6.70    3.30
 -11  -7  -2    0.80    1.80
  11  -7  -3  201.28   10.10
  11  -7  -3  196.28   13.80
  11   7   3  208.68    9.40
  11   7  -3  212.88    8.10
  11  -7   3  212.18   12.20
 -11  -7  -3  194.88    9.40
  11  -7   3  201.88   10.50
  11  -7  -4    2.80    2.40
  11  -7  -4   -1.40    4.10
  11   7   4    5.20    2.10
 -11  -7  -4    2.90    2.00
  11  -7   4    5.40    3.60
  11  -7   4    1.80    2.30
  11   7   5   58.99    5.20
  11  -7  -5   48.50    8.30
  11  -7  -5   50.29    5.70
 -11  -7  -5   53.99    5.50
  11  -7   5   64.59    7.60
  11  -7   5   60.59    5.40
  11  -7  -6   12.10    7.50
  11  -7  -6   12.70    4.30
  11   7   6   16.30    3.50
 -11  -7  -6   10.80    3.90
  11  -7   6   17.40    4.90
  11  -8   0   -3.00    3.60
  11   8   0    2.90    1.50
  11  -8   0   -2.50    1.80
  11  -8  -1  162.78   11.70
  11   8   1  155.08    7.70
  11  -8  -1  163.08    8.60
  11  -8   1  159.68    8.40
  11   8  -1  169.28    7.50
  11   8  -1  165.88    7.10
  11  -8   1  160.68   11.40
 -11  -8  -1  179.18    8.00
  11  -8  -2   63.39    8.10
  11   8   2   54.79    4.50
  11  -8  -2   61.39    5.50
 -11  -8  -2   53.79    4.60
  11  -8   2   54.59    7.10
  11   8  -2   59.29    3.60
  11  -8   2   57.39    4.80
  11  -8  -3 1498.65   56.69
  11   8   3 1457.65   51.59
  11  -8  -3 1536.85   52.09
  11   8  -3 1597.24   49.50
 -11  -8  -3 1493.25   51.19
  11  -8   3 1554.14   54.89
  11  -8  -4   55.59    8.80
  11  -8  -4   69.49    6.20
  11   8   4   69.49    5.30
 -11  -8  -4   66.49    5.60
  11  -8   4   68.69    8.20
  11  -8   4   71.49    5.40
  11  -8  -5  244.18   18.20
  11   8   5  270.97   12.10
  11  -8  -5  254.87   12.70
  11  -8   5  254.47   14.50
  11  -8   5  246.68   11.90
 -11  -8  -5  263.97   12.40
  11   9   0    1.00    1.70
  11  -9   0    1.30    3.90
  11  -9   0    0.90    2.40
  11  -9  -1  103.59    7.20
  11   9   1  108.29    6.10
  11  -9  -1  107.29   10.50
  11  -9   1   88.19    9.70
  11  -9   1  101.39    6.70
  11   9  -1  107.09    5.50
 -11  -9  -1  107.29    6.30
  11  -9  -2   15.00    3.50
  11   9   2   15.30    2.80
  11  -9  -2   17.00    6.10
  11   9  -2   19.40    2.60
  11  -9   2   18.90    3.20
 -11  -9  -2   12.20    2.60
  11  -9  -3  422.26   17.70
  11  -9  -3  402.56   21.90
  11   9   3  431.06   16.80
  11   9  -3  439.16   16.00
  11  -9   3  442.86   20.70
  11  -9   3  426.66   16.70
 -11  -9  -3  395.06   16.60
  11  -9  -4   12.10    4.00
  11   9   4   18.90    3.40
  11  -9  -4   17.60    7.90
  11  -9   4   17.90    5.60
  11  -9   4   15.40    3.20
 -11  -9  -4   12.80    3.10
  11 -10   0    3.70    4.90
  11 -10   0   -0.30    2.50
  11 -10  -1  669.03   25.80
  11 -10  -1  667.93   30.70
  11  10   1  734.33   25.00
  11 -10   1  697.23   25.50
  11 -10   1  635.84   29.50
  11  10  -1  707.13   24.20
 -11 -10  -1  718.63   24.80
  11 -10  -2  400.16   17.10
  11 -10  -2  386.66   21.70
  11  10   2  419.96   16.20
 -11 -10  -2  400.66   16.10
  11 -10   2  403.86   16.40
  11 -10   2  405.56   20.70
  11  10  -2  431.36   15.00
  11 -10  -3 1150.48   47.50
  11 -10  -3 1185.68   42.00
  11  10   3 1192.08   40.90
  11 -10   3 1179.18   40.50
  11 -10   3 1216.28   45.60
 -11 -10  -3 1162.98   40.80
  11 -11   0   -1.00    5.50
  11 -11   0   -0.30    3.10
  11 -11  -1   14.90    7.30
  11 -11  -1   17.80    3.60
  11 -11   1   18.00    7.00
 -11 -11  -1   29.80    4.50
  11 -11   1   19.10    4.00
 -12   0   0  285.47   11.00
  12   0   0  269.07   12.00
  12   0   0  284.57   11.20
  12   0   1 4059.19  135.69
  12   0  -1 4143.99  135.09
  12   0   1 4092.99  135.19
 -12   0   1 4437.66  134.59
 -12   0  -1 4396.16  135.19
  12   0   2  659.83   24.60
  12   0  -2  700.13   24.20
  12   0  -2  728.73   26.50
 -12   0   2  727.73   23.50
  12   0   2  664.13   24.30
 -12   0  -2  666.23   24.30
  12   0  -3   13.30    3.70
  12   0   3    8.90    2.30
  12   0   3    7.60    2.00
 -12   0   3    8.00    1.50
  12   0  -4   20.30    3.00
  12   0  -4   16.40    4.70
  12   0   4   21.20    3.20
  12   0   4   17.40    3.00
  12   0   5 1610.84   52.49
  12   0   5 1448.06   52.29
  12   0  -5 1607.74   51.99
  12   0  -5 1565.34   54.69
  12   0  -6  494.45   18.50
  12   0  -6  469.05   21.20
  12   0   6  450.15   18.60
  12   0   6  494.85   18.80
  12   0   7 1786.22   60.39
  12   0  -7 1819.72   59.89
  12   0   7 1867.41   60.39
  12   0  -7 1671.23   61.59
  12  -1   0   78.29    4.80
 -12  -1   0   82.59    4.50
 -12   1   0   82.49    4.80
  12   1   0   77.19    4.50
  12  -1   0   81.69    6.00
  12  -1  -1  111.19    5.80
  12   1   1  108.29    5.70
  12  -1  -1  120.69    7.80
 -12  -1   1  111.59    5.30
  12   1   1  110.29    6.00
 -12   1  -1  108.29    5.80
  12   1  -1  105.09    5.50
 -12   1   1  113.59    5.50
  12  -1   1  110.79    6.80
 -12  -1  -1  115.29    5.80
  12   1  -1  111.29    6.70
  12  -1   1  112.29    5.90
  12  -1  -2  149.69    7.30
  12   1   2  152.48    7.30
  12  -1  -2  156.58    9.80
 -12   1  -2  156.18    7.50
  12   1   2  149.79    7.40
  12   1  -2  149.39    8.80
  12   1  -2  155.18    7.00
  12  -1   2  160.18    8.00
 -12   1   2  154.38    6.70
  12  -1   2  148.79    7.30
  12  -1  -3  305.37   12.30
  12   1   3  304.47   12.50
  12   1   3  307.97   12.50
  12  -1  -3  288.37   14.70
  12   1  -3  311.67   12.00
  12   1  -3  319.37   14.20
 -12   1   3  304.67   11.40
  12  -1   3  292.87   12.70
  12  -1   3  309.57   12.50
  12   1   4    4.60    1.80
  12   1   4    6.10    2.00
  12  -1  -4    5.70    2.00
  12  -1  -4    0.40    3.50
  12   1  -4    2.40    1.70
  12  -1   4    2.60    1.70
  12   1  -4    1.90    3.70
  12  -1   4    4.60    2.10
 -12   1   4    2.60    1.40
  12  -1  -5  107.59    6.50
  12   1   5  109.69    6.50
  12  -1  -5  108.69    9.80
  12   1   5  104.39    6.30
  12  -1   5  101.39    6.30
  12   1  -5  106.89    6.00
  12  -1   5  100.69    6.60
  12   1  -5   97.19    9.30
  12   1   6   78.29    5.80
  12  -1  -6   87.49    6.30
  12   1   6   72.89    5.80
  12  -1  -6   97.99   10.00
  12   1  -6   87.09    9.60
  12  -1   6   79.69    6.00
  12  -1   6   72.89    5.90
  12   1  -6   84.29    5.70
  12  -1  -7  131.59   11.90
  12   1   7  123.69    8.20
  12   1   7  120.79    8.10
  12  -1  -7  133.09    8.30
  12  -1   7  116.09    7.90
  12  -1   7  134.49    8.20
  12   2   0   74.99    4.90
  12  -2   0   61.09    4.20
 -12   2   0   71.49    4.40
  12   2   0   59.09    4.00
  12  -2   0   64.39    5.70
  12  -2  -1 1238.98   42.20
  12   2   1 1263.17   42.00
  12  -2  -1 1215.58   44.30
 -12   2  -1 1216.88   42.00
  12   2   1 1257.17   42.10
  12  -2   1 1269.77   42.30
  12  -2   1 1272.77   43.50
  12   2  -1 1249.88   41.60
  12   2  -1 1284.57   42.60
 -12   2   1 1284.17   41.80
  12  -2  -2  223.98    9.80
  12   2   2  227.58    9.70
  12   2   2  225.38    9.70
  12  -2  -2  218.88   12.00
  12  -2   2  215.38    9.70
 -12   2   2  231.48    9.30
  12   2  -2  228.68    9.20
  12  -2   2  225.48   10.70
  12   2   3    4.70    1.70
  12   2   3    2.00    1.60
  12  -2  -3    5.60    1.90
  12  -2  -3   -1.70    3.20
  12   2  -3    3.20    1.40
  12  -2   3    0.20    1.50
  12  -2   3    1.80    1.80
  12   2  -3    9.10    3.50
  12   2   4   54.49    4.30
  12   2   4   55.29    4.50
  12  -2  -4   49.90    4.30
  12  -2  -4   53.19    7.10
  12  -2   4   60.09    4.80
  12  -2   4   56.09    4.40
  12   2  -4   52.09    3.90
  12   2  -4   52.19    6.10
 -12   2   4   51.39    3.70
  12   2   5 1989.20   64.19
  12  -2  -5 1852.71   67.79
  12   2  -5 1914.41   64.59
  12  -2   5 1885.41   64.29
  12   2  -5 1971.70   62.99
 -12   2   5 1944.91   62.09
  12  -2   5 1892.21   63.69
  12   2   6   17.50    3.20
  12  -2  -6   17.50    3.50
  12  -2  -6   10.00    5.60
  12  -2   6   16.00    3.50
  12   2  -6   19.80    3.60
  12  -2   6   18.20    3.30
  12  -2  -7  517.75   20.40
  12   2   7  508.35   20.30
  12  -2  -7  493.85   23.50
  12  -2   7  504.25   19.80
  12   2  -7  510.65   19.20
  12  -2   7  499.75   20.60
  12   3   0   89.29    4.90
  12  -3   0   79.69    5.10
  12  -3   0   91.49    7.00
  12   3   0   88.09    5.20
 -12   3   0   82.99    5.30
  12   3   1  135.79    6.60
  12  -3  -1  126.79    6.70
  12   3   1  118.19    6.30
  12  -3  -1  130.99    8.80
  12  -3   1  130.49    6.70
  12   3  -1  129.99    7.00
  12  -3   1  142.69    8.40
  12   3  -1  132.79    6.20
 -12   3   1  131.89    6.40
  12  -3  -2  167.88    7.80
  12   3   2  145.99    7.10
  12   3   2  150.98    7.10
  12  -3  -2  143.99    9.80
  12   3  -2  140.69    6.50
  12  -3   2  140.89    7.30
 -12   3   2  139.59    6.80
  12   3  -2  143.79    8.20
  12  -3   2  141.79    8.30
  12  -3  -3  299.97   15.00
  12  -3  -3  286.97   12.00
  12  -3   3  288.47   12.80
  12   3  -3  278.77   10.80
 -12   3   3  274.77   11.00
  12  -3   3  273.07   11.90
  12   3  -3  266.87   12.80
  12  -3  -4    5.10    4.00
  12   3   4    2.80    1.80
  12   3  -4    5.40    3.90
  12   3  -4    3.30    1.60
  12  -3   4    1.80    2.00
 -12   3   4   -0.80    1.60
  12  -3   4    1.20    2.10
  12   3   5  117.69    6.80
  12  -3  -5  124.89    7.40
  12  -3  -5  121.29   10.40
  12  -3   5   99.59    6.90
  12   3  -5  110.09    5.90
 -12   3   5  109.79    5.80
  12  -3   5  114.19    6.90
  12  -3  -6   64.69   10.00
  12   3   6   79.39    6.10
  12  -3  -6   86.99    6.60
  12   3  -6   86.59    5.40
  12  -3   6   78.49    5.80
  12  -3   6   75.99    6.50
  12  -3  -7  137.79    9.20
  12   3   7  139.39    8.60
  12  -3  -7  145.09   12.70
  12  -3   7  143.99    9.10
  12  -3   7  145.69    8.50
  12   4   0  232.68    9.50
  12  -4   0  222.58   10.10
  12  -4   0  247.68   12.60
  12   4   0  223.48    9.70
  12  -4  -1 3520.05  115.99
  12  -4  -1 3658.33  119.29
  12   4   1 3592.74  115.39
  12   4   1 3650.73  115.29
  12   4  -1 3598.94  115.09
  12  -4   1 3750.12  118.39
  12  -4   1 3411.46  115.79
  12   4   2  631.64   22.00
  12  -4  -2  607.94   25.60
  12  -4  -2  619.94   22.50
 -12   4   2  625.04   22.90
  12   4  -2  605.44   22.30
  12  -4   2  576.74   22.10
  12   4  -2  608.34   21.20
  12  -4   2  607.14   23.90
  12   4  -3   22.00    4.20
  12  -4  -4   14.90    4.80
  12   4   4   20.10    3.20
  12  -4  -4   12.80    2.80
  12   4  -4   13.10    2.10
  12  -4   4    9.90    2.90
  12  -4   4   14.40    2.90
 -12  -4  -4   20.50    3.20
  12  -4  -5 1440.56   48.10
  12  -4  -5 1391.06   51.29
  12   4   5 1409.26   47.10
  12   4  -5 1335.17   45.30
  12  -4   5 1393.16   46.70
  12  -4   5 1357.06   48.00
 -12  -4  -5 1309.37   47.20
  12  -4  -6  433.56   17.80
  12  -4  -6  401.06   21.30
  12   4   6  417.26   17.20
  12   4  -6  433.46   15.80
 -12  -4  -6  407.46   17.80
  12  -4   6  443.36   18.50
  12  -4   6  438.66   17.20
  12  -4  -7 1582.64   59.09
  12   4   7 1560.14   54.69
  12  -4  -7 1613.14   55.39
  12  -4   7 1661.93   54.19
  12  -4   7 1586.34   55.69
  12   5   0   61.39    4.00
  12   5   0   62.09    4.30
  12  -5   0   58.89    6.90
  12   5   1   72.99    4.40
  12   5   1   75.69    4.60
  12  -5  -1   62.99    7.60
  12   5  -1   67.49    4.10
  12  -5   1   67.89    6.60
  12  -5  -2  112.79    6.70
  12  -5  -2  107.29    9.40
  12   5   2  121.29    6.30
  12  -5   2  123.09    8.50
  12   5  -2  120.39    5.70
  12   5  -2  123.39    7.20
  12  -5  -3  238.08   14.00
  12  -5  -3  255.07   11.30
  12   5   3  243.98   10.60
  12   5  -3  219.08   12.20
  12   5  -3  247.18    9.50
  12  -5   3  244.88   12.50
 -12  -5  -3  227.28   10.60
  12  -5   3  239.88   10.80
  12  -5  -4    4.10    2.60
  12   5   4    3.20    2.10
  12  -5  -4    2.60    4.80
 -12  -5  -4    5.10    2.40
  12  -5   4    9.20    3.30
  12  -5   4    0.70    2.10
  12   5  -4    7.00    1.80
  12   5   5   73.59    5.90
  12  -5  -5   71.19    6.40
  12  -5  -5   69.59    9.60
 -12  -5  -5   74.29    6.10
  12   5  -5   72.39    4.50
  12  -5   5   70.79    5.70
  12  -5   5   80.39    7.00
  12  -5  -6   79.29    7.10
  12   5   6   71.29    6.00
  12  -5  -6   74.19   10.50
  12  -5   6   58.89    7.10
 -12  -5  -6   69.19    6.80
  12  -5   6   59.29    5.70
  12  -6   0   44.10    4.40
  12  -6   0   59.39    7.30
  12   6   0   48.20    3.60
  12   6   1  933.41   32.30
  12  -6  -1  963.30   37.10
  12  -6  -1  962.70   33.40
  12   6  -1  944.21   31.90
  12  -6   1  938.21   36.10
  12  -6   1  945.11   33.10
  12  -6  -2  182.28   12.30
  12   6   2  172.98    8.30
  12  -6  -2  186.58    9.00
  12  -6   2  181.58   11.00
  12   6  -2  173.78    7.40
 -12  -6  -2  172.28    8.50
  12  -6   2  182.28    8.80
  12   6  -2  170.68    8.60
  12  -6  -3    4.20    4.20
  12   6   3    6.20    2.10
  12  -6  -3    4.10    2.20
  12  -6   3    0.80    3.30
 -12  -6  -3    1.00    1.90
  12  -6   3    3.90    2.00
  12   6  -3    2.70    1.40
  12  -6  -4   34.40    6.80
  12  -6  -4   35.60    5.10
  12   6   4   44.40    4.30
  12  -6   4   45.60    6.40
  12   6  -4   42.90    3.30
  12  -6   4   44.20    4.70
 -12  -6  -4   41.40    4.60
  12  -6  -5 1520.75   52.39
  12  -6  -5 1483.05   56.79
  12   6   5 1507.95   51.49
 -12  -6  -5 1426.06   51.79
  12  -6   5 1571.34   51.29
  12  -6   5 1601.64   53.99
  12   6   6   13.30    3.50
  12  -6  -6    9.60    3.80
  12  -6  -6   16.90    7.70
  12  -6   6   10.40    4.20
 -12  -6  -6   19.60    4.40
  12  -6   6   13.20    3.10
  12  -7   0   71.09    5.30
  12  -7   0   69.49    8.00
  12   7   0   77.19    4.80
  12   7   0   67.89    4.50
  12   7   1  112.39    6.20
  12  -7  -1  112.69   10.40
  12  -7  -1  120.19    6.90
  12   7  -1  112.69    5.70
  12  -7   1  106.69    9.70
  12  -7   1  113.09    6.90
  12  -7  -2   99.09    6.70
  12  -7  -2  112.99   10.50
  12   7   2  110.49    6.10
  12  -7   2  101.49    6.40
  12   7  -2  111.19    5.40
 -12  -7  -2  104.39    6.40
  12  -7   2  122.29    9.40
  12   7   3  214.18   11.40
  12  -7  -3  197.68   14.20
  12  -7  -3  206.38   10.40
  12  -7   3  206.88   12.60
  12  -7   3  205.88    9.90
  12   7  -3  209.38    8.40
 -12  -7  -3  201.28    9.90
  12  -7  -4    5.60    5.10
  12  -7  -4    2.10    2.70
  12   7   4   -1.20    2.00
 -12  -7  -4    1.60    2.20
  12  -7   4    2.30    3.70
  12   7  -4    1.10    1.40
  12  -7   4   -1.50    2.20
  12   7   5  102.99    7.20
  12  -7  -5   82.49   12.00
  12  -7  -5   93.19    7.50
  12  -7   5   92.59    8.90
  12  -7   5   90.99    6.50
 -12  -7  -5   95.19    7.10
  12   8   0  162.38    7.60
  12  -8   0  160.98   12.30
  12   8   0  162.68    7.70
  12  -8   0  162.78    8.80
  12  -8  -1 2578.34   83.99
  12   8   1 2451.15   82.59
  12  -8  -1 2575.24   88.99
  12  -8   1 2581.84   83.69
  12   8  -1 2516.45   82.09
  12   8  -1 2525.45   82.69
  12  -8   1 2610.24   88.19
  12  -8  -2  410.66   21.20
  12  -8  -2  419.06   17.10
  12   8   2  400.76   15.90
  12  -8   2  416.56   20.10
  12   8  -2  426.06   15.10
  12  -8   2  406.36   16.40
 -12  -8  -2  408.56   16.20
  12  -8  -3    4.30    5.30
  12   8   3    6.70    2.50
  12  -8  -3    0.40    2.90
  12  -8   3   -3.50    4.30
  12  -8   3    1.30    2.20
 -12  -8  -3    6.80    2.60
  12  -8  -4    5.70    6.30
  12   8   4    8.80    2.80
  12  -8  -4   11.20    3.50
 -12  -8  -4    9.20    2.70
  12  -8   4   13.20    5.10
  12  -8   4    3.00    2.70
  12  -8  -5  911.41   40.70
  12   8   5  919.41   33.50
  12  -8  -5  924.81   34.60
 -12  -8  -5  927.31   33.90
  12  -8   5  944.31   36.80
  12  -8   5  953.80   32.70
  12  -9   0   32.10    7.10
  12   9   0   36.90    3.80
  12  -9   0   45.20    5.30
  12  -9  -1   37.30    7.60
  12  -9  -1   37.40    5.20
  12   9   1   38.30    4.00
  12  -9   1   28.70    6.20
 -12  -9  -1   32.80    4.50
  12  -9   1   35.20    5.00
  12   9  -1   35.70    3.70
  12  -9  -2   70.09   10.70
  12   9   2   74.59    5.30
  12  -9  -2   74.09    6.30
  12  -9   2   80.39    6.20
  12   9  -2   78.69    4.70
 -12  -9  -2   73.79    5.70
  12  -9   2   68.29    9.20
  12  -9  -3  186.38   15.30
  12   9   3  164.38    8.50
  12  -9  -3  165.68    9.70
  12  -9   3  154.58   12.40
  12  -9   3  150.98    8.70
 -12  -9  -3  161.48    8.80
  12  -9  -4   -1.80    3.20
  12   9   4    0.40    2.90
  12  -9  -4   -5.60    9.40
 -12  -9  -4   -0.30    2.80
  12  -9   4   11.60    6.00
  12  -9   4   -2.80    2.80
  12 -10   0   27.20    5.10
  12 -10   0   21.90    7.00
  12  10   0   24.40    3.90
  12 -10  -1  528.45   21.30
  12 -10  -1  541.75   28.80
  12  10   1  548.05   20.00
 -12 -10  -1  524.55   19.90
  12 -10   1  520.15   25.90
  12 -10  -2  103.29   14.00
  12  10   2  118.59    7.30
  12 -10  -2  105.69    7.90
  12 -10   2  111.59    7.50
 -12 -10  -2  106.79    6.90
  12 -10   2  113.79   12.60
  13   0   0    7.10    2.50
  13   0   0    7.50    1.80
  13   0   1  568.54   21.20
 -13   0   1  575.44   19.70
 -13   0  -1  549.74   20.10
  13   0  -1  544.65   21.80
  13   0   1  562.54   20.40
  13   0  -1  556.74   20.30
  13   0  -2  996.00   33.90
  13   0  -2  971.60   36.00
  13   0   2  976.10   34.00
  13   0   2  981.20   34.50
 -13   0   2 1020.40   33.00
  13   0  -3 2225.08   74.69
  13   0   3 2249.57   74.89
 -13   0   3 2417.76   73.39
  13   0   3 2256.37   75.29
  13   0  -3 2286.37   77.39
  13   0   4  263.27   11.90
  13   0   4  259.97   11.50
  13   0  -4  272.07   14.40
  13   0  -4  280.47   11.60
  13   0  -5  829.12   31.90
  13   0   5  809.52   29.00
  13   0   5  775.02   29.20
  13   0  -5  826.62   28.90
  13   0  -6   14.20    3.20
  13   0   6   10.40    3.00
  13   0  -6   22.10    6.50
  13   0   6   12.20    3.10
  13   0  -7   34.90    7.40
  13   0   7   35.40    5.20
  13   0   7   36.80    5.10
  13   0  -7   45.50    6.10
  13  -1   0    1.40    2.50
 -13   1   0    0.70    1.70
  13   1   0    0.90    2.00
 -13  -1   0    0.50    1.50
  13  -1   0    2.10    1.50
  13   1   0   -0.10    1.20
  13  -1  -1   79.49    5.20
  13   1   1   82.79    5.30
  13  -1  -1   83.99    6.80
  13   1   1   87.99    5.10
 -13   1  -1   83.39    5.30
 -13  -1   1   92.39    4.70
 -13   1   1   82.89    4.80
  13   1  -1   95.19    5.20
  13   1  -1   75.49    6.20
  13  -1   1   84.89    6.00
  13  -1   1   87.99    5.20
  13  -1  -2  450.05   16.80
  13   1   2  438.46   17.10
  13  -1  -2  441.06   19.40
  13   1   2  451.55   16.90
 -13   1   2  442.86   16.00
  13  -1   2  434.46   17.10
  13   1  -2  437.56   16.40
  13  -1   2  446.46   17.70
  13  -1  -3   11.60    4.20
  13  -1  -3   -0.50    1.50
  13   1   3    5.00    2.00
  13   1   3   -0.10    1.70
  13  -1   3    3.60    2.00
  13  -1   3    3.70    1.80
  13   1  -3    4.70    3.90
 -13   1   3    2.80    1.40
  13   1  -3    3.40    1.60
  13   1   4   66.69    4.90
  13  -1  -4   73.89    5.30
  13   1   4   60.89    4.90
  13  -1  -4   54.09    7.60
  13   1  -4   57.49    4.70
  13  -1   4   61.39    5.10
  13  -1   4   64.19    5.20
  13   1  -4   59.39    8.90
 -13   1   4   64.79    3.90
  13  -1  -5   18.30    3.70
  13  -1  -5   24.50    6.00
  13   1   5   18.50    3.10
  13   1   5   20.10    3.40
  13  -1   5   18.70    3.40
  13  -1   5   19.60    3.40
  13   1  -5   18.60    3.10
  13  -1  -6  365.46   15.40
  13   1   6  376.96   15.50
  13   1   6  339.27   15.10
  13  -1  -6  360.66   18.70
  13  -1   6  360.06   15.20
  13   1  -6  371.66   18.70
  13   1  -6  360.96   14.90
  13  -1   6  362.16   15.60
  13   1   7   17.20    4.10
  13  -1  -7   22.10    4.30
  13  -1  -7   11.20    6.20
  13   1   7   19.40    3.70
  13  -1   7   16.30    4.40
  13  -1   7   19.40    4.00
  13   1  -7   22.50    4.00
  13  -2   0    8.80    3.30
 -13   2   0   -0.50    1.70
  13  -2   0    0.20    1.50
  13   2   0    1.20    2.10
  13   2   0    2.90    1.40
  13   2   1  116.89    6.00
  13   2   1  102.69    6.20
  13  -2  -1  110.79    6.30
  13  -2  -1  110.59    7.90
  13   2  -1  120.39   10.20
 -13   2   1  104.79    5.70
  13  -2   1  111.19    6.20
  13  -2   1  115.49    7.40
  13   2  -1  108.99    5.70
  13  -2  -2  294.77   15.00
  13   2   2  291.97   12.50
  13   2   2  315.67   12.60
  13  -2  -2  324.37   12.90
  13  -2   2  290.87   13.50
  13   2  -2  308.47   13.90
  13   2  -2  314.47   12.10
 -13   2   2  314.27   12.00
  13   2   3  206.88    9.00
  13   2   3  190.18    9.00
  13  -2  -3  202.18    9.20
  13  -2  -3  194.38   12.30
  13  -2   3  184.38    8.90
 -13   2   3  183.28    8.00
  13  -2   3  173.08    9.60
  13   2  -3  199.28    8.50
  13   2  -3  178.98   10.80
  13   2   4  503.55   18.80
  13  -2  -4  418.96   19.60
  13   2   4  522.45   19.00
  13  -2   4  493.55   18.80
  13   2  -4  486.75   18.70
  13   2  -4  491.95   20.70
 -13   2   4  509.35   17.40
  13  -2   4  480.95   19.40
  13   2   5   36.10    4.10
  13   2   5   44.30    4.80
  13  -2  -5   26.20    5.80
  13   2  -5   36.10    4.10
  13  -2   5   32.60    4.60
  13  -2   5   30.50    4.00
  13  -2  -6   10.30    5.90
  13   2   6   20.50    3.70
  13  -2  -6   18.40    4.00
  13   2   6   24.50    4.40
  13  -2   6   21.20    3.60
  13   2  -6   29.70    4.30
  13  -2   6   21.70    4.30
  13  -2  -7  356.36   16.40
  13   2   7  373.36   16.30
  13  -2   7  383.16   15.90
  13   3   0    1.00    1.80
  13  -3   0    1.10    2.80
  13  -3   0   -0.60    1.60
  13   3   0   -0.40    1.30
  13  -3  -1  114.29    8.70
  13  -3  -1  116.19    6.70
  13   3   1  127.09    6.50
  13   3   1  111.09    6.50
  13   3  -1  126.29    7.70
  13  -3   1  123.09    7.50
  13   3  -1  125.89    6.10
 -13   3   1  119.69    7.40
  13  -3   1  110.89    7.90
  13  -3  -2  451.15   19.80
  13   3   2  412.26   17.20
  13   3   2  420.26   16.10
 -13   3   2  401.66   15.70
  13  -3   2  405.06   17.50
  13   3  -2  433.96   15.60
  13   3  -2  430.66   17.30
  13  -3   2  426.76   16.60
  13   3   3   11.70    2.20
  13  -3  -3    9.00    2.40
  13   3   3   10.80    2.70
  13  -3  -3   11.10    4.60
  13  -3   3    7.10    2.80
  13   3  -3   12.60    2.10
  13   3  -3   11.50    4.50
 -13   3   3    6.40    2.10
  13  -3   3   10.40    2.30
  13   3   4   66.19    5.30
  13  -3  -4   61.39    8.20
  13  -3  -4   65.69    5.50
  13   3   4   64.29    4.90
  13   3  -4   63.99    4.50
  13   3  -4   68.59    8.20
  13  -3   4   67.99    5.30
 -13   3   4   63.59    4.50
  13  -3   4   67.29    6.10
  13  -3  -5    5.40    5.00
  13  -3  -5    5.90    3.00
  13   3   5    4.80    2.40
  13  -3   5    2.40    2.80
  13   3  -5    6.30    2.20
  13  -3   5    3.40    2.30
  13  -3  -6  353.36   15.50
  13  -3  -6  346.37   19.50
  13   3   6  353.96   15.30
  13   3  -6  354.26   14.00
  13  -3   6  337.17   15.50
  13  -3   6  339.57   14.80
  13   4   0    2.30    2.00
  13  -4   0   -1.50    1.50
  13  -4   0    3.50    3.40
  13   4   0   -2.20    1.30
  13  -4  -1  463.95   18.30
  13  -4  -1  474.15   21.30
  13   4   1  491.55   17.90
  13   4   1  480.45   17.80
  13   4  -1  477.35   18.10
  13   4  -1  497.35   17.50
  13  -4   1  472.05   18.30
  13  -4   1  475.95   20.40
  13   4   2  856.81   29.60
  13   4   2  809.22   30.80
  13  -4  -2  849.81   33.80
  13  -4  -2  860.91   30.70
  13   4  -2  875.41   29.10
  13  -4   2  848.12   30.10
  13  -4   2  874.61   32.20
  13  -4  -3 1989.10   69.89
  13   4   3 2049.09   65.49
  13  -4  -3 2036.60   65.99
  13  -4   3 1913.91   67.09
  13   4  -3 1828.32   65.59
  13  -4   3 1995.00   65.59
  13   4  -3 2027.00   64.29
  13  -4  -4  226.48   14.50
  13  -4  -4  236.78   11.20
  13   4   4  233.68   10.80
  13  -4   4  230.08   10.90
  13   4  -4  254.17   10.00
  13  -4   4  245.88   12.30
  13  -4  -5  772.02   27.90
  13  -4  -5  753.52   32.00
  13   4   5  720.23   27.10
  13   4  -5  733.23   25.80
  13  -4   5  761.92   27.20
  13  -4   5  717.63   28.40
  13   4   6   13.60    3.20
  13  -4  -6    8.90    3.40
  13  -4  -6    5.20    6.20
  13  -4   6    8.00    3.60
  13  -4   6   15.00    3.40
  13  -5   0    1.50    1.80
  13   5   0    3.00    1.70
  13  -5   0   -1.40    3.20
  13   5   0   -0.10    1.90
  13  -5  -1   42.30    4.50
  13   5   1   42.60    3.80
  13   5   1   49.50    4.10
  13  -5  -1   33.80    5.90
  13   5  -1   44.80    4.60
  13  -5   1   40.50    4.10
  13   5  -1   43.20    3.60
  13  -5   1   42.50    6.30
  13   5   2  361.86   14.10
  13  -5  -2  360.36   15.00
  13   5   2  373.46   14.40
  13  -5  -2  348.37   18.50
  13   5  -2  359.86   13.50
  13   5  -2  356.36   14.80
  13  -5   2  363.66   17.10
  13  -5   2  344.47   14.50
  13  -5  -3   21.10    5.90
  13  -5  -3   24.90    3.90
  13   5   3   23.10    3.80
  13  -5   3   20.30    3.40
  13  -5   3   21.90    4.40
  13   5  -3   31.80    3.10
  13  -5  -4   66.19    9.70
  13  -5  -4   48.80    5.50
  13   5   4   50.79    4.70
  13  -5   4   41.10    4.90
  13   5  -4   49.60    3.70
  13  -5   4   45.40    6.00
  13  -5  -5   27.50    7.40
  13   5   5   29.50    4.40
  13  -5  -5   33.00    5.50
  13  -5   5   25.90    4.80
 -13  -5  -5   32.50    4.70
  13  -5   5   30.00    4.90
  13   5  -5   32.90    3.70
  13   5   6  320.97   15.00
  13  -5  -6  321.87   15.30
  13  -5  -6  324.67   19.50
  13  -5   6  317.77   15.90
  13  -5   6  318.67   14.00
 -13  -5  -6  294.67   14.70
  13  -6   0    1.80    3.90
  13   6   0    1.00    1.70
  13  -6   0    0.70    1.80
  13   6   0    1.50    2.00
  13   6   1   86.89    5.30
  13  -6  -1   79.19    5.80
  13  -6  -1   72.19    8.50
  13   6  -1   90.09    5.80
  13   6  -1   86.49    5.00
  13  -6   1   82.09    8.20
  13  -6   1   82.99    5.80
  13  -6  -2  241.98   11.40
  13  -6  -2  244.08   15.10
  13   6   2  231.78   10.30
  13  -6   2  221.58   13.00
  13  -6   2  220.48   10.60
  13   6  -2  250.07    9.70
  13   6  -2  221.78   10.90
  13  -6  -3  128.19   11.70
  13   6   3  136.59    7.50
  13  -6  -3  122.89    8.00
  13  -6   3  136.69    7.80
  13   6  -3  135.29    6.30
  13  -6   3  137.19    9.70
  13  -6  -4  393.76   21.40
  13   6   4  397.46   16.00
  13  -6  -4  391.56   17.00
 -13  -6  -4  389.16   16.40
  13  -6   4  402.46   16.20
  13  -6   4  379.46   18.40
  13   6  -4  402.36   14.50
  13   6   5   29.60    5.10
  13  -6  -5   30.20    7.50
  13  -6   5   17.30    4.70
  13  -6   5   16.50    3.40
 -13  -6  -5   25.30    4.40
  13  -7   0    0.20    2.30
  13   7   0    0.40    1.70
  13  -7   0   -5.10    3.90
  13   7   0    2.40    2.10
  13   7   1  125.89    6.60
  13  -7  -1  127.09    7.50
  13   7   1  125.09    6.70
  13  -7  -1  112.09   10.80
  13  -7   1  141.09   11.10
  13   7  -1  118.19    7.00
  13   7  -1  130.49    6.50
  13  -7   1  116.29    7.20
  13   7   2  328.67   13.40
  13  -7  -2  319.47   18.20
  13  -7  -2  320.47   14.30
  13  -7   2  313.97   13.80
  13  -7   2  308.47   16.60
  13   7  -2  336.67   12.40
  13   7   3   35.00    4.20
  13  -7  -3   40.90    5.20
  13  -7  -3   28.30    7.00
  13  -7   3   35.40    5.90
  13  -7   3   30.00    4.40
  13   7  -3   41.50    3.60
 -13  -7  -3   38.00    4.60
  13   7   4   46.50    4.90
  13  -7  -4   52.09    8.90
  13  -7  -4   45.90    5.80
 -13  -7  -4   44.70    5.20
  13  -7   4   55.19    8.10
  13  -7   4   48.40    5.40
  13  -7  -5    3.80    7.90
  13  -7  -5    3.60    3.70
  13   7   5    1.90    2.90
 -13  -7  -5   -1.00    3.20
  13  -7   5    0.40    2.80
  13  -7   5    1.40    5.00
  13  -8   0   -4.60    4.10
  13  -8   0   -0.50    2.30
  13   8   0   -1.00    2.10
  13   8   0    2.20    2.00
  13  -8  -1  315.57   14.30
  13   8   1  337.97   13.40
  13  -8  -1  318.37   18.50
  13   8  -1  345.27   13.40
  13  -8   1  318.27   14.20
  13   8  -1  330.17   12.90
  13  -8   1  326.97   17.80
  13  -8  -2  596.54   23.40
  13  -8  -2  599.54   28.50
  13   8   2  596.14   22.30
  13   8  -2  610.54   21.40
  13  -8   2  622.54   23.10
  13  -8   2  603.94   27.00
  13   8   3 1390.66   47.90
  13  -8  -3 1414.16   49.30
  13  -8  -3 1387.96   54.79
  13  -8   3 1405.06   48.20
  13   8  -3 1486.65   47.50
  13  -8   3 1409.96   52.29
 -13  -8  -3 1377.06   48.20
  13  -8  -4  166.58   10.20
  13  -8  -4  152.38   15.50
  13   8   4  157.98    8.80
 -13  -8  -4  153.18    9.10
  13  -8   4  161.68    9.10
  13  -8   4  160.88   12.80
  13   9   0   -0.10    2.20
  13  -9   0   -1.10    2.60
  13  -9   0    1.50    5.20
  13   9   0    0.40    2.30
  13  -9  -1   14.30    3.70
  13  -9  -1   11.00    6.60
  13   9   1   12.70    3.00
  13  -9   1    8.90    6.20
  13  -9   1   18.90    3.70
  13  -9  -2  227.88   17.40
  13  -9  -2  227.68   11.90
  13   9   2  241.78   11.00
  13  -9   2  232.28   15.80
 -13  -9  -2  219.18   10.90
  13   9  -2  246.48   10.00
  13   9   3   49.40    5.20
  13  -9  -3   49.10    6.50
  13  -9  -3   33.90   11.70
 -13  -9  -3   48.90    5.30
  13  -9   3   41.10    8.60
  13  -9   3   40.10    5.70
  13 -10   0   -2.00    3.40
  13 -10   0    3.90    6.70
  13  10   0    2.50    2.50
  13  10   0   -2.80    2.80
 -14   0   0  541.05   19.40
  14   0   0  548.15   20.00
  14   0   0  526.55   21.00
 -14   0   1   78.39    4.80
  14   0   1   75.69    5.80
  14   0  -1   84.59    6.80
  14   0  -1   86.39    5.20
  14   0  -2    2.10    1.60
  14   0  -2    4.30    3.70
  14   0   2    9.10    2.50
  14   0   2   -0.60    1.50
 -14   0   2    2.30    1.60
  14   0   3    8.40    2.40
  14   0  -3    9.50    2.30
  14   0  -3    2.10    3.80
 -14   0   3    4.50    1.60
  14   0   3    5.70    2.00
  14   0  -4  199.98    9.60
  14   0   4  189.38    9.50
  14   0   4  179.98    9.50
  14   0  -4  184.58   12.50
  14   0   5    3.80    2.30
  14   0   5    1.20    2.50
  14   0  -5    1.10    2.60
  14   0  -5    6.90    5.30
  14   0   6  449.56   17.90
  14   0  -6  434.96   21.40
  14   0  -6  460.75   18.10
  14   0   6  413.26   18.30
  14   1   0   46.20    5.00
  14   1   0   57.59    4.20
  14  -1   0   59.99    5.30
  14  -1   0   51.79    5.70
 -14   1   0   51.19    4.50
  14  -1  -1  269.77   13.10
  14  -1  -1  259.07   11.00
  14   1   1  240.18   11.20
  14  -1   1  251.07   12.00
 -14   1   1  257.77   10.40
  14  -1   1  234.18   10.90
  14   1  -1  260.47   10.60
  14   1  -1  245.58   12.20
  14   1   2  223.18   10.40
  14   1   2  205.58   10.00
  14  -1  -2  218.28    9.90
  14  -1  -2  227.58   12.80
  14  -1   2  201.78   10.40
  14   1  -2  200.68   11.50
  14  -1   2  208.18    9.70
 -14   1   2  220.08    9.00
  14   1  -2  222.08    9.50
  14  -1  -3    4.10    4.10
  14   1   3    4.90    2.10
  14   1   3    3.50    2.20
 -14   1   3    3.10    1.70
  14  -1   3    1.70    2.00
  14   1  -3    7.70    4.00
  14   1  -3    3.10    1.90
  14  -1   3   -0.30    2.10
  14   1   4    6.80    2.30
  14   1   4    3.90    2.20
  14  -1  -4    3.50    4.70
  14  -1  -4    2.60    2.40
  14  -1   4   -0.20    1.90
  14   1  -4    8.20    4.60
  14  -1   4    0.90    2.20
  14   1   5   21.90    3.80
  14  -1  -5   24.30    3.90
  14  -1  -5   28.10    6.60
  14   1   5   19.50    3.50
  14  -1   5   22.00    3.90
  14   1  -5   22.70    4.10
  14   1  -5   33.40    6.70
  14  -1   5   30.80    4.30
  14   1   6  110.79    8.00
  14  -1  -6  108.49   11.80
  14  -1  -6  112.79    8.10
  14   1   6  126.19    8.00
  14   1  -6  118.19    7.80
  14  -1   6  115.19    8.50
  14   1  -6   95.59   12.00
  14  -1   6  118.29    7.90
  14   2   0 1935.01   63.99
  14   2   0 1977.70   63.29
  14  -2   0 1852.41   63.79
  14  -2   0 1926.81   65.69
  14   2   1  377.76   15.10
  14  -2  -1  401.46   17.80
  14  -2  -1  349.47   16.00
  14   2   1  343.07   17.40
 -14   2   1  383.16   14.90
  14   2  -1  390.06   15.90
  14  -2   1  370.06   16.50
  14  -2   1  396.06   15.20
  14   2  -1  408.16   14.80
  14  -2  -2  755.92   28.80
  14   2   2  752.42   27.80
  14   2   2  826.42   27.90
  14  -2  -2  782.82   31.00
  14   2  -2  787.72   29.20
  14  -2   2  763.02   29.00
  14  -2   2  797.62   27.90
  14   2  -2  785.32   27.20
 -14   2   2  776.82   27.00
  14  -2  -3    8.80    4.70
  14   2   3   20.80    3.60
  14  -2  -3   17.40    3.30
  14   2   3   16.40    3.00
  14   2  -3   21.00    5.80
  14   2  -3   17.80    3.10
 -14   2   3   19.20    3.20
  14  -2   3   11.80    3.10
  14  -2   3   19.60    3.30
  14  -2  -4  508.95   19.50
  14   2   4  454.75   18.80
  14  -2  -4  511.55   23.20
  14   2   4  512.05   19.40
  14   2  -4  494.85   18.50
  14  -2   4  495.35   20.00
  14   2  -4  552.74   28.40
 -14   2   4  451.95   18.40
  14  -2   4  491.35   19.20
  14  -2  -5   39.00    4.80
  14  -2  -5   29.30    6.60
  14   2   5   35.40    4.50
  14   2   5   37.20    4.40
  14  -2   5   25.00    3.90
  14   2  -5   25.10    6.90
  14  -2   5   32.60    4.80
  14   2   6  874.01   30.40
  14  -2  -6  811.72   34.30
  14  -2  -6  837.82   30.50
  14   2   6  763.82   29.90
  14  -2   6  824.62   29.90
  14  -2   6  803.62   30.90
  14   3   0   57.59    4.20
  14   3   0   56.09    5.00
  14  -3   0   57.59    6.20
  14  -3   0   57.39    4.60
  14  -3  -1  140.89    7.70
  14  -3  -1  144.49   10.40
  14   3   1  124.69    7.20
  14   3  -1  134.69    7.90
  14   3  -1  141.79    6.90
  14  -3   1  134.49    8.90
  14  -3   1  130.59    7.30
  14  -3  -2  204.58    9.80
  14   3   2  208.58    9.60
  14   3   2  192.58    9.30
  14  -3  -2  221.18   13.10
  14   3  -2  209.58    8.90
  14  -3   2  180.68   10.50
  14   3  -2  200.68   12.50
  14  -3   2  197.38    9.60
  14   3   3    3.40    2.00
  14  -3  -3    4.10    4.30
  14   3   3    1.90    2.00
  14  -3  -3    1.10    2.10
  14   3  -3    7.40    4.40
  14  -3   3    4.50    2.00
  14   3  -3    2.00    1.80
  14  -3   3    3.60    2.70
  14   3   4    0.80    2.10
  14   3   4    1.50    2.10
  14  -3  -4    1.70    2.40
  14  -3  -4   -6.00    4.10
  14  -3   4    4.10    2.80
 -14   3   4   -1.70    2.20
  14   3  -4   -0.50    1.80
  14   3  -4    3.60    6.10
  14  -3   4    2.50    2.20
  14   3   5    2.00    2.30
  14   3   5    3.70    2.40
  14  -3  -5    6.10    5.20
  14  -3  -5    3.80    3.00
  14  -3   5    0.80    2.80
  14   3  -5    6.80    2.50
  14  -3   5    5.20    2.60
  14  -3  -6  107.89    8.70
  14   3   6  123.59    8.40
  14   3   6  113.99    8.00
  14  -3   6  115.19    9.30
  14   3  -6  106.69    8.00
  14  -3   6  122.19    8.10
  14  -4   0  472.55   18.50
  14  -4   0  455.55   20.80
  14   4   0  471.25   17.90
  14   4   0  482.75   17.70
  14  -4  -1   69.59    5.40
  14   4   1   70.29    5.20
  14   4   1   66.79    5.80
  14  -4  -1   67.29    8.30
  14  -4   1   82.99    5.80
  14   4  -1   84.59    5.00
  14  -4   1   68.49    7.20
  14   4  -1   72.69    5.90
  14  -4  -2    0.10    4.00
  14  -4  -2    6.00    2.30
  14   4   2    6.80    2.10
  14  -4   2    1.90    2.90
  14   4  -2    2.60    1.70
  14  -4   2    3.60    2.20
  14   4  -2    2.10    3.50
  14  -4  -3    1.90    4.30
  14   4   3    5.00    2.30
  14   4   3    5.60    2.10
  14  -4  -3    7.00    2.80
  14   4  -3    8.70    2.20
  14  -4   3    3.00    2.10
  14  -4   3    3.80    2.70
  14   4   4  150.88    8.40
  14   4   4  162.18    8.90
  14  -4  -4  177.48   13.60
  14  -4  -4  164.48    9.40
  14  -4   4  159.08   10.10
  14  -4   4  161.98    8.70
  14   4  -4  174.58    7.90
  14  -4  -5    4.10    3.20
  14  -4  -5    4.60    5.70
  14   4   5    2.40    2.60
  14  -4   5   12.90    3.30
  14   4  -5    6.40    2.40
  14  -4   5    1.20    3.30
  14   5   0   51.69    4.70
  14  -5   0   38.50    6.40
  14   5   0   39.30    3.90
  14  -5   0   39.90    4.40
  14  -5  -1  303.57   17.00
  14   5   1  338.07   13.50
  14   5   1  342.57   13.60
  14  -5  -1  326.27   14.20
  14  -5   1  319.27   16.50
  14  -5   1  332.27   14.10
  14   5  -1  343.97   13.20
  14   5  -1  345.97   14.00
  14  -5  -2  158.88    8.90
  14  -5  -2  165.78   12.80
  14   5   2  172.98    8.30
  14   5   2  182.28    8.60
  14  -5   2  151.08   10.50
  14  -5   2  161.58    8.70
  14   5  -2  176.08    7.80
  14   5  -2  168.18    9.70
  14  -5  -3    4.70    2.50
  14   5   3    3.80    2.20
  14   5   3    4.60    2.10
  14  -5  -3   -2.10    4.20
  14   5  -3    3.40    1.70
  14  -5   3    0.20    2.40
  14  -5   3    2.20    3.00
  14  -5  -4    2.40    3.00
  14   5   4    5.20    2.60
  14  -5  -4    7.50    5.30
  14  -5   4    3.00    3.30
  14   5  -4    0.10    1.90
  14  -5  -5   46.10    8.60
  14  -5  -5   51.29    6.90
  14   5   5   49.80    5.80
  14  -5   5   41.30    6.30
  14  -5   5   51.09    5.70
  14  -6   0 1494.75   51.09
  14  -6   0 1501.65   55.19
  14   6   0 1496.25   49.99
  14   6   1  292.37   12.30
  14  -6  -1  308.37   13.60
  14  -6  -1  273.67   16.50
  14   6   1  319.17   12.60
  14  -6   1  304.07   13.30
  14   6  -1  289.27   12.70
  14   6  -1  308.57   12.20
  14  -6   1  286.37   16.30
  14   6   2  612.34   22.80
  14  -6  -2  608.84   28.10
  14  -6  -2  600.64   23.70
  14   6   2  650.03   22.70
  14   6  -2  647.64   22.10
  14  -6   2  610.34   23.30
  14   6  -2  582.34   23.90
  14  -6   2  650.83   26.80
  14  -6  -3    9.50    5.30
  14   6   3   20.70    3.50
  14  -6  -3   16.70    3.60
  14   6  -3   11.70    2.40
  14  -6   3   14.80    4.80
  14  -6   3   14.20    3.30
  14  -6  -4  378.56   22.10
  14  -6  -4  379.06   17.00
  14   6   4  391.36   16.20
  14   6  -4  418.86   15.20
  14  -6   4  385.26   18.80
  14  -6   4  394.76   16.30
  14  -6  -5   19.50    8.60
  14   6   5   24.50    4.10
  14  -6  -5   16.60    4.50
  14  -6   5   21.30    5.80
  14  -6   5   20.30    3.80
  14  -7   0   44.00    5.10
  14  -7   0   41.00    7.70
  14   7   0   51.39    4.60
  14   7   0   45.60    4.90
  14  -7  -1   44.50    5.70
  14  -7  -1   42.30    7.80
  14   7   1   47.90    4.40
  14   7   1   46.90    4.60
  14   7  -1   44.10    5.40
  14  -7   1   43.00    5.50
  14   7  -1   52.59    4.40
  14  -7   1   45.90    7.60
  14  -7  -2  170.08   14.40
  14  -7  -2  170.08    9.80
  14   7   2  160.38    8.30
  14   7  -2  173.38    8.00
  14  -7   2  151.78   12.10
  14  -7   2  163.08    9.00
  14   7   3    5.40    2.60
  14  -7  -3    3.00    2.90
  14  -7  -3    4.70    6.00
  14   7  -3    1.90    2.00
  14  -7   3   -3.90    2.60
  14  -7   3   -1.00    4.10
  14  -7  -4   -1.90    7.80
  14  -7  -4   -0.70    3.30
  14   7   4   -2.70    2.90
  14  -7   4    0.40    2.90
  14  -7   4    2.30    5.00
  14  -8   0  316.27   14.10
  14   8   0  309.87   12.90
  14   8   0  309.97   12.80
  14  -8   0  302.37   18.90
  14   8   1   61.09    5.10
  14  -8  -1   54.19    9.50
  14   8   1   53.19    5.00
  14  -8  -1   58.89    6.40
  14   8  -1   61.49    5.30
  14  -8   1   53.49    8.20
  14  -8   1   65.99    5.90
  14   8  -1   58.59    6.10
  14   8   2    1.30    2.50
  14  -8  -2    8.00    7.10
  14  -8  -2   -0.60    3.30
  14  -8   2    6.10    5.40
  14  -8   2    5.70    4.50
  14  -8  -3   -4.30    3.40
  14  -8  -3    2.70    7.60
  14   8   3    1.60    2.60
  14  -8   3    3.40    3.20
  14  -8   3    1.40    5.40
  14   9   0   24.00    3.60
  14   9   0   28.00    4.00
  14  -9   0   15.60    7.90
  14  -9   0   26.00    4.60
  14   9   1  337.97   13.40
  14  -9  -1  316.57   15.20
  14   9   1  316.77   13.60
  14  -9  -1  339.97   23.30
  14  -9   1  323.07   20.40
  14  -9   1  309.27   14.60
  14   9  -1  316.07   13.10
  15   0   0   -1.30    1.50
 -15   0   0    0.70    2.20
  15   0   0   -1.20    2.30
  15   0   1  661.53   23.90
  15   0  -1  642.54   25.80
  15   0   1  618.34   24.80
  15   0  -1  668.13   23.90
 -15   0   1  690.43   23.10
 -15   0   2  190.18    8.10
  15   0  -2  197.38    9.40
  15   0  -2  185.48   11.60
  15   0   2  191.88    9.20
  15   0   2  188.28   10.00
  15   0   3  999.20   36.90
  15   0  -3 1011.90   39.30
  15   0  -3 1112.99   36.50
  15   0   3 1041.40   36.50
  15   0  -4    9.00    5.50
  15   0  -4   18.70    3.40
  15   0   4   21.00    3.60
  15   0   4   16.20    3.10
  15   0  -5  165.68    9.60
  15   0   5  164.78    9.70
  15   0   5  173.78    9.20
  15   0  -6  346.67   19.40
  15   0  -6  355.06   15.50
  15   0   6  333.27   15.20
  15   1   0    0.10    2.40
  15  -1   0   -5.20    2.60
  15  -1   0    3.60    2.10
  15   1   0    2.10    1.80
  15  -1  -1   10.80    2.50
  15  -1  -1   10.90    3.90
  15   1   1    9.90    2.90
  15   1   1    8.50    2.20
  15   1  -1    6.90    3.60
  15  -1   1    8.10    2.40
  15  -1   1   15.80    3.50
 -15   1   1    7.60    2.40
  15   1   2   -0.60    1.60
  15  -1  -2    1.10    2.00
  15   1   2    3.60    2.20
  15  -1  -2   -4.80    3.70
  15  -1   2    0.20    2.60
  15  -1   2   -0.40    1.90
 -15   1   2    2.20    1.80
  15   1  -2   -0.20    3.60
  15   1   3  194.08    9.70
  15   1   3  195.68   10.10
  15  -1  -3  203.58   13.20
  15  -1  -3  205.48   10.00
  15   1  -3  221.98   12.70
  15  -1   3  185.78   10.40
 -15   1   3  201.18    8.40
  15  -1   3  190.28    9.50
  15  -1  -4    1.30    2.70
  15   1   4    3.50    2.20
  15  -1  -4    2.70    4.70
  15   1   4    0.70    2.20
  15  -1   4   -0.90    2.40
  15   1  -4   20.20    6.10
  15  -1   4    2.10    2.20
  15   1  -4    2.00    2.70
  15  -1  -5  453.85   18.30
  15   1   5  455.25   18.10
  15   1   5  423.16   18.20
  15  -1  -5  439.16   22.10
  15   1  -5  432.56   17.80
  15  -1   5  444.16   17.80
  15  -1   5  423.96   18.50
  15   1  -5  438.36   21.10
  15   2   0    3.90    2.00
  15   2   0    5.90    2.70
  15  -2   0    1.60    3.20
  15  -2   0    2.00    1.90
  15  -2  -1  124.69    7.40
  15   2   1  126.49    7.40
  15   2   1  125.59    7.00
  15  -2  -1  120.89    9.40
  15   2  -1  138.79    8.40
  15  -2   1  130.29    7.10
  15   2  -1  118.19    9.20
  15  -2   1  117.99    8.20
  15   2   2 1181.58   39.90
  15   2   2 1100.59   40.00
  15  -2  -2 1181.08   43.70
  15  -2  -2 1158.38   40.10
  15  -2   2 1143.39   39.90
  15   2  -2 1220.98   39.50
  15  -2   2 1087.79   41.10
  15   2  -2 1190.18   41.70
  15  -2  -3 1322.47   44.70
  15   2   3 1366.36   44.60
  15   2   3 1207.08   44.40
  15  -2   3 1236.58   45.60
  15   2  -3 1339.17   43.80
  15   2  -3 1317.37   46.60
  15  -2   3 1340.37   44.60
 -15   2   3 1234.48   43.00
  15  -2  -4 1276.27   43.10
  15   2   4 1173.78   42.20
  15  -2  -4 1252.77   46.80
  15   2   4 1286.27   42.50
  15  -2   4 1255.97   42.30
  15   2  -4 1152.68   44.10
  15  -2   4 1133.79   43.00
  15   2  -4 1208.38   42.50
  15   2   5  266.27   12.80
  15   2   5  296.97   13.00
  15  -2  -5  281.97   17.70
  15  -2  -5  289.17   13.50
  15  -2   5  271.57   12.80
  15   2  -5  284.47   12.60
  15  -2   5  273.67   13.80
  15   2  -5  250.07   16.60
  15   3   0    0.40    1.90
  15  -3   0    2.50    2.10
  15   3   0   -0.40    2.30
  15  -3   0    1.90    3.40
  15   3   1    3.60    2.30
  15  -3  -1    4.40    2.20
  15   3   1    3.60    2.10
  15  -3  -1    1.50    3.80
  15  -3   1    3.30    2.40
  15  -3   1    3.40    3.30
  15   3  -1    2.20    2.70
  15   3  -1    3.00    2.20
  15  -3  -2    2.20    2.20
  15  -3  -2   -0.30    4.00
  15   3   2    1.80    2.20
  15   3   2    7.20    2.30
  15   3  -2    2.00    3.70
  15   3  -2    0.80    2.00
  15  -3   2   -3.00    2.40
  15  -3   2   -2.20    1.80
  15  -3  -3  142.89   11.80
  15   3   3  123.29    7.60
  15   3   3  131.99    7.70
  15  -3  -3  135.29   12.40
  15  -3   3  139.19    9.00
  15  -3   3  137.29    7.80
  15   3  -3  139.29   10.70
  15   3  -3  153.18    7.50
  15   3   4    1.00    2.10
  15   3   4   -1.00    2.30
  15  -3  -4   -0.90    2.80
  15  -3  -4    3.60    5.40
  15  -3   4   -3.00    2.90
  15  -3   4    2.30    2.40
  15   3  -4    4.00    2.40
  15  -3  -5  394.76   21.50
  15   3   5  353.66   16.00
  15  -3  -5  380.86   16.90
  15   3   5  388.76   16.40
  15  -3   5  377.66   15.90
  15   3  -5  367.46   17.60
  15  -3   5  399.46   18.40
  15  -4   0   -0.50    2.50
  15   4   0    1.90    2.40
  15  -4   0    0.50    3.70
  15  -4  -1  562.74   21.90
  15  -4  -1  573.84   25.50
  15   4   1  609.74   21.40
  15   4   1  580.24   21.50
  15  -4   1  544.65   21.60
  15   4  -1  590.94   21.90
  15   4  -1  561.04   21.80
  15  -4   1  552.74   24.10
  15   4   2  182.38    9.50
  15  -4  -2  150.68   11.90
  15  -4  -2  170.18    9.10
  15   4   2  136.09    8.20
  15  -4   2  181.18    9.10
  15  -4   2  170.18   10.90
  15   4  -2  166.28   10.40
  15   4  -2  171.68    8.10
  15  -4  -3  936.91   33.00
  15   4   3  841.02   31.80
  15   4   3  909.51   32.30
  15  -4  -3  912.91   37.20
  15  -4   3  937.71   32.50
  15   4  -3  876.51   35.00
  15   4  -3  962.80   31.40
  15  -4   3  849.32   34.20
  15  -4  -4   16.40    3.70
  15   4   4   20.10    3.40
  15  -4  -4   13.20    6.40
  15   4   4   13.80    3.20
  15  -4   4   19.00    3.70
  15   4  -4   18.30    2.90
  15  -4  -5  164.18   14.70
  15   4   5  147.79    9.10
  15  -4  -5  149.39    9.70
  15   4   5  154.08    9.50
  15  -4   5  148.89    9.20
  15  -4   5  135.49   10.40
  15   4  -5  169.58    9.40
  15   5   0   -1.00    2.30
  15  -5   0   -3.90    4.00
  15  -5   0    1.70    2.30
  15   5   0    0.10    1.70
  15  -5  -1   12.10    5.50
  15  -5  -1   12.10    3.00
  15   5   1   15.90    2.90
  15   5   1   15.80    3.20
  15  -5   1   14.50    4.80
  15  -5   1    9.70    3.20
  15   5  -1   11.10    3.30
  15   5   2    2.40    2.30
  15   5   2    2.30    2.00
  15  -5  -2    3.80    5.20
  15  -5  -2   -3.60    2.50
  15  -5   2    1.00    3.30
  15   5  -2    4.90    4.10
  15  -5   2   -1.60    2.60
  15   5  -2   -0.70    2.00
  15  -5  -3  216.08   15.00
  15   5   3  204.98   10.00
  15   5   3  222.98   10.50
  15  -5  -3  217.38   11.40
  15   5  -3  221.68    9.60
  15  -5   3  207.08   13.00
  15  -5   3  208.88   10.50
  15   5   4    1.00    2.40
  15   5   4    1.90    2.50
  15  -5  -4   -0.70    6.40
  15  -5  -4    3.80    3.10
  15   5  -4    2.60    2.40
  15  -5   4   -5.50    2.80
  15  -5   4    6.70    4.30
  15   6   0    2.30    2.50
  15  -6   0    2.60    4.70
  15  -6   0   -1.00    2.40
  15   6   0    5.10    2.20
  15   6   1   96.89    6.30
  15  -6  -1   88.49   10.40
  15   6   1   97.79    6.20
  15  -6  -1   76.89    6.70
  15  -6   1  101.29    6.90
  15  -6   1   98.69   10.20
  15   6  -1   96.89    7.20
  15   6  -1   97.89    6.60
  15  -6  -2  888.91   38.10
  15  -6  -2  919.61   33.50
  15   6   2  903.21   32.00
  15   6   2  932.51   32.30
  15  -6   2  893.11   32.80
  15  -6   2  880.31   36.10
  15   6  -2  952.60   31.50
  15  -6  -3 1032.20   37.00
  15   6   3 1012.00   35.50
  15  -6  -3 1003.80   42.20
  15   6   3  989.80   35.60
  15  -6   3  984.90   39.40
  15  -6   3 1019.10   36.20
  15   6  -3 1057.79   34.60
  15  -6  -4  998.50   42.50
  15   6   4  960.80   34.80
  15  -6  -4  987.00   36.10
  15  -6   4  952.50   38.00
  15  -7   0   -3.40    4.90
  15  -7   0   -1.00    3.00
  15   7   0    1.20    2.10
  15   7   0    2.00    2.90
  15   7   1   -1.90    2.20
  15  -7  -1    5.30    3.10
  15  -7  -1   -0.20    5.40
  15   7   1    1.30    2.20
  15  -7   1    2.50    5.50
  15  -7   1    0.40    3.00
  15   7  -1    0.70    2.30
  15   7  -1    3.90    3.50
  15  -7  -2    3.00    3.00
  15   7   2    0.70    2.30
  15  -7  -2    5.90    6.70
  15   7   2    2.30    2.40
  15  -7   2   -0.80    5.50
  15  -7   2   -3.30    2.90
  15  -7  -3   77.39    8.00
  15   7   3   72.09    6.10
  15  -7  -3   70.29   11.60
  15  -7   3   65.99    7.00
  15  -7   3   73.19   10.10
  15   8   0    1.30    2.90
  15  -8   0   -2.70    6.80
  15   8   0    1.80    2.60
  15  -8   0    2.00    3.30
  15  -8  -1  382.06   23.30
  15   8   1  397.26   15.90
  15   8   1  381.26   15.60
  15  -8  -1  393.06   17.10
  15  -8   1  383.06   16.90
  15  -8   1  377.86   22.00
  15   8  -1  394.26   15.40
  15   8   2  101.19    6.90
  15  -8  -2  108.09    8.50
  15   8  -2   92.09    9.70
  15  -8   2  109.59    8.20
  16   0   0   58.69    6.50
  16   0   0   54.39    4.90
  16   0  -1 2361.86   80.39
 -16   0   1 2367.26   76.99
  16   0  -1 2407.56   78.09
  16   0   1 2428.86   78.29
  16   0   1 2310.37   79.39
  16   0   2    8.40    2.70
  16   0  -2   16.70    5.00
  16   0   2    4.40    3.00
  16   0  -2    7.60    2.60
  16   0   3   92.39    6.60
  16   0  -3   87.39    9.30
  16   0  -3   85.89    6.30
  16   0   3   74.89    6.60
  16   0  -4   17.20    6.20
  16   0   4   27.40    4.50
  16   0  -4   33.10    5.20
  16   0   4   29.70    4.50
  16   0   5 1539.95   55.29
  16   0   5 1643.94   54.69
  16   0  -5 1521.75   57.99
  16   0  -5 1675.73   54.89
  16  -1   0  202.18   11.80
  16   1   0  215.88   11.30
  16   1   0  222.78   10.20
  16  -1   0  227.78   10.50
  16  -1  -1  247.38   11.20
  16   1   1  226.58   11.70
  16  -1  -1  243.18   13.60
  16   1   1  253.27   11.10
  16   1  -1  239.18   12.60
  16  -1   1  200.48   11.80
  16  -1   1  243.58   10.90
  16   1  -1  240.48   10.80
  16  -1  -2   52.09    7.70
  16   1   2   64.79    5.20
  16   1   2   68.19    6.00
  16  -1  -2   73.19    5.90
  16   1  -2   81.99    5.40
  16  -1   2   68.39    6.60
 -16   1   2   61.39    5.00
  16   1  -2   77.89    8.40
  16  -1   2   68.49    5.40
  16  -1  -3   33.40    4.90
  16   1   3   30.30    4.70
  16   1   3   29.50    4.50
  16  -1  -3   39.40    7.30
  16   1  -3   44.40    4.70
  16  -1   3   29.30    4.60
  16   1  -3   37.50    6.40
  16  -1   3   33.30    4.60
  16  -1  -4   -2.20    5.20
  16   1   4   -1.10    2.70
  16   1   4   -2.30    2.30
  16  -1  -4    1.40    3.00
  16   1  -4    2.50    2.80
  16  -1   4    2.60    2.80
  16  -1   4    0.90    3.20
  16   1  -4    8.30    5.80
  16  -1  -5   13.10    7.10
  16  -1  -5   20.60    4.50
  16   1   5    7.80    4.10
  16   1   5   11.20    3.20
  16  -1   5   12.40    3.80
  16   1  -5   14.70    3.90
  16   1  -5   14.60    7.00
  16  -1   5    4.80    3.60
  16   2   0  976.90   33.00
  16   2   0  916.51   34.00
  16  -2   0  953.00   33.40
  16  -2   0  921.31   35.70
  16   2   1  828.82   28.60
  16  -2  -1  797.32   28.90
  16  -2  -1  789.32   31.70
  16   2   1  756.72   29.10
  16   2  -1  841.62   28.40
  16   2  -1  809.82   30.10
  16  -2   1  808.42   28.80
  16  -2   1  729.73   30.30
  16   2   2   78.69    5.70
  16  -2  -2   72.19    9.00
  16  -2  -2   66.99    6.90
  16   2   2   78.49    6.00
  16   2  -2   70.99    8.20
  16  -2   2   67.39    6.80
  16   2  -2   79.39    5.60
  16  -2   2   74.59    5.70
  16   2   3  118.79    7.80
  16  -2  -3  133.39    8.40
  16  -2  -3  131.39   12.10
  16   2   3  131.59    7.70
  16   2  -3  133.29    7.50
  16   2  -3  127.79   10.80
  16  -2   3  134.79    8.00
  16  -2   3  123.39    8.70
  16   2   4   46.20    5.60
  16  -2  -4   32.20    5.60
  16   2   4   29.10    4.60
  16  -2  -4   23.70    6.60
  16   2  -4   31.90    5.20
  16   2  -4   32.30    7.10
  16  -2   4   31.70    5.10
  16  -2   4   41.10    6.10
  16  -2  -5  663.93   25.40
  16   2   5  624.04   25.50
  16  -2  -5  609.14   29.70
  16  -2   5  631.24   24.60
  16   2  -5  673.73   24.30
  16  -2   5  653.33   29.90
  16   3   0  238.58   10.70
  16   3   0  225.58   11.50
  16  -3   0  230.18   13.70
  16  -3   0  254.17   11.40
  16   3   1  267.27   11.40
  16   3   1  246.68   11.60
  16  -3  -1  252.57   11.80
  16  -3  -1  244.78   15.00
  16  -3   1  212.58   13.00
  16  -3   1  261.87   11.70
  16   3  -1  249.48   12.60
  16   3  -1  264.67   11.20
  16  -3  -2   68.89    8.50
  16   3   2   71.29    5.70
  16   3   2   87.79    6.20
  16  -3  -2   81.19    6.30
  16  -3   2   62.49    7.30
  16   3  -2   65.99    8.20
  16  -3   2   68.49    5.70
  16   3  -2   76.89    8.90
  16   3   3   33.00    4.70
  16  -3  -3   34.10    5.50
  16  -3  -3   25.70    6.60
  16   3  -3   28.50    5.90
  16   3  -3   38.50    4.50
  16  -3   3   26.20    4.90
  16  -3   3   24.10    4.30
  16  -3  -4   -0.30    3.40
  16   3   4    2.00    2.80
  16   3   4   -1.10    2.80
  16  -3  -4  -11.30    5.40
  16  -3   4    4.70    2.70
  16   3  -4    0.40    2.70
  16   3  -4    3.00    6.00
  16  -3   4    0.90    4.00
  16  -4   0   43.90    7.10
  16   4   0   48.10    4.70
  16  -4   0   45.30    5.00
  16   4   0   58.09    5.70
  16  -4  -1 2082.89   70.39
  16  -4  -1 2048.00   74.29
  16   4   1 2047.10   69.89
  16   4   1 2228.48   69.89
  16   4  -1 2178.78   69.29
  16  -4   1 2168.68   70.39
  16   4  -1 2047.10   70.29
  16  -4   1 2022.60   72.99
  16   4   2    5.80    2.50
  16   4   2    3.10    2.60
  16  -4  -2    4.70    2.90
  16  -4  -2    4.40    5.20
  16  -4   2    7.20    3.10
  16  -4   2   11.30    4.60
  16   4  -2   13.30    4.60
  16   4  -2    6.00    2.50
  16  -4  -3   83.99   11.30
  16  -4  -3   72.49    6.60
  16   4   3   72.49    6.30
  16   4   3   74.89    6.00
  16   4  -3   86.89   10.20
  16   4  -3   76.89    5.70
  16  -4   3   76.29    6.20
  16  -4   3   70.49    8.40
  16   4   4   22.50    3.90
  16  -4  -4   17.00    7.50
  16   4   4   18.30    4.20
  16  -4  -4   25.00    4.90
  16   4  -4   23.90    3.70
  16  -4   4   12.70    5.00
  16  -4   4   28.00    4.40
  16  -5   0  161.68    9.30
  16  -5   0  161.08   12.70
  16   5   0  165.68    9.20
  16   5   0  174.18    8.60
  16   5   1  163.68    9.10
  16   5   1  191.08    9.70
  16  -5  -1  164.48    9.60
  16  -5  -1  176.88   13.60
  16   5  -1  170.68    9.80
  16  -5   1  165.28    9.40
  16  -5   1  164.28   12.00
  16   5  -1  186.88    8.80
  16  -5  -2   47.90    6.40
  16   5   2   46.30    5.10
  16   5   2   54.19    5.20
  16  -5  -2   44.40    9.00
  16  -5   2   54.69    5.60
  16   5  -2   49.70    4.90
  16  -5   2   52.09    7.50
  16   5  -2   68.19    8.20
  16  -5  -3   26.40    8.30
  16   5   3   23.30    3.80
  16  -5  -3   29.50    5.00
  16   5   3   31.30    5.40
  16   5  -3   34.00    4.30
  16  -5   3   31.90    6.60
  16  -5   3   35.00    5.50
  16  -6   0  732.93   28.10
  16   6   0  722.13   27.10
  16   6   0  776.22   27.10
  16  -6   0  756.62   32.60
  16   6   1  622.74   22.90
  16   6   1  591.24   22.80
  16  -6  -1  585.24   23.80
  16  -6  -1  607.04   29.00
  16  -6   1  608.64   28.00
  16   6  -1  593.44   23.10
  16  -6   1  601.24   23.60
  16   6  -1  646.64   22.60
  16   6   2   61.49    5.90
  16   6   2   53.19    5.50
  16  -6  -2   65.19    6.50
  16  -6  -2   49.80   10.10
  16  -6   2   49.20    8.40
  16  -6   2   71.39    6.80
  16   6  -2   66.19    5.60
  16   6   3   96.19    7.10
  16   6   3  106.79    7.30
  16  -6  -3   97.09   14.70
  16  -6  -3   97.39    8.30
  16   6  -3  101.89    8.60
  16  -6   3  102.39    7.50
  16  -6   3  113.69   11.00
  16   7   0  205.08   10.00
  16  -7   0  192.68   15.70
  16   7   0  202.88   10.20
  16  -7   0  192.58   11.30
  16   7   1  205.88   10.50
  16  -7  -1  210.08   17.20
  16   7   1  208.38   10.40
  16  -7  -1  209.58   11.60
  16   7  -1  203.68   11.30
  16   7  -1  220.48   10.20
  16  -7   1  206.78   16.80
  17   0   0    0.50    3.20
  17   0   0   -0.50    2.00
  17   0   1  449.26   19.70
  17   0   1  462.95   18.60
  17   0  -1  485.95   21.10
  17   0  -1  486.05   18.60
  17   0  -2    5.20    3.60
  17   0  -2   12.10    5.70
  17   0   2    6.30    3.40
  17   0  -3 1890.31   62.39
  17   0   3 1860.31   62.49
  17   0   3 1727.13   63.29
  17   0  -3 1955.80   66.59
  17   0  -4   48.00    8.30
  17   0  -4   46.20    6.20
  17   0   4   50.19    7.50
  17   0   4   33.40    5.50
  17   1   0   -0.70    2.20
  17   1   0   -2.10    3.00
  17  -1   0   -0.40    3.70
  17  -1   0   -1.70    2.10
  17   1   1  127.09    7.50
  17  -1  -1  113.39    9.90
  17  -1  -1  120.19    7.50
  17   1   1   99.29    7.90
  17  -1   1  106.49    8.50
  17  -1   1  115.89    7.20
  17   1  -1  122.99    7.00
  17   1  -1  105.39    9.20
  17  -1  -2   30.40    5.00
  17   1   2   20.70    4.20
  17   1   2   41.80    5.00
  17  -1  -2   38.40    7.30
  17   1  -2   30.10    5.80
  17   1  -2   32.70    4.60
  17  -1   2   29.80    4.80
  17  -1   2   26.20    4.40
  17  -1  -3   -2.80    2.80
  17   1   3   -2.50    2.70
  17  -1  -3    0.30    5.00
  17   1   3   -2.60    2.60
  17   1  -3    3.50    5.00
  17  -1   3   -0.30    3.40
  17   1  -3    0.60    2.70
  17  -1   3   -0.50    2.40
  17  -1  -4  415.46   17.90
  17   1   4  418.36   17.40
  17   1   4  410.16   18.30
  17   1  -4  444.76   17.50
  17  -1   4  413.36   17.30
  17   1  -4  415.46   21.40
  17  -1   4  381.56   18.90
  17  -2   0    5.90    4.00
  17   2   0    4.80    3.20
  17   2   0   10.70    2.90
  17  -2   0   -0.10    2.20
  17  -2  -1  110.49    7.30
  17   2   1  116.69    7.00
  17  -2  -1  110.29   10.10
  17   2   1   97.89    7.80
  17  -2   1  111.39    7.20
  17  -2   1  104.69    9.10
  17   2  -1  115.39    9.20
  17   2  -1  116.49    7.00
  17   2   2  155.58    8.40
  17  -2  -2  152.88   12.60
  17  -2  -2  147.99    8.60
  17   2   2  144.49    9.00
  17  -2   2  134.09   10.00
  17   2  -2  174.58   11.50
  17   2  -2  149.29    8.20
  17  -2   2  156.88    8.60
  17   2   3  219.98   10.90
  17  -2  -3  242.18   11.90
  17  -2  -3  229.68   16.00
  17   2   3  205.88   11.50
  17  -2   3  221.68   11.00
  17   2  -3  236.18   11.50
  17   2  -3  216.68   14.00
  17  -2   3  212.48   12.90
  17   2   4   24.90    4.50
  17  -2  -4   29.60    7.50
  17  -2  -4   28.10    5.00
  17   2   4   31.10    5.10
  17  -2   4   23.20    4.00
  17  -2   4   30.50    8.20
  17   2  -4   25.00    4.20
  17   2  -4   32.00    7.40
  17   3   0    1.90    3.20
  17  -3   0   -3.80    3.80
  17   3   0    3.90    3.10
  17  -3   0    1.40    2.70
  17   3   1   86.29    6.40
  17  -3  -1   82.19    6.40
  17   3   1   76.89    6.60
  17  -3  -1   83.99    9.70
  17   3  -1   70.69    7.70
  17  -3   1   79.29    6.30
  17  -3   1   76.59    8.40
  17   3  -1   91.49    6.20
  17   3   2   50.79    5.10
  17   3   2   48.40    5.50
  17  -3  -2   46.60    6.10
  17  -3  -2   49.80    8.20
  17   3  -2   40.70    6.40
  17  -3   2   50.49    5.20
  17  -3   2   39.00    6.60
  17   3  -2   49.99    5.00
  17   3   3    3.80    3.20
  17  -3  -3   -0.30    3.00
  17   3   3    8.30    3.00
  17  -3  -3    9.40    6.50
  17  -3   3    1.00    4.30
  17  -3   3    6.80    3.00
  17   3  -3   -2.40    5.10
  17   3  -3    6.70    2.80
  17   4   0    1.50    3.20
  17   4   0    0.50    2.40
  17  -4   0    1.50    4.60
  17  -4   0    2.30    2.90
  17  -4  -1  429.46   18.10
  17   4   1  454.35   17.40
  17   4   1  426.76   17.70
  17  -4  -1  417.56   22.00
  17   4  -1  448.66   17.00
  17  -4   1  408.06   20.60
  17  -4   1  410.76   17.50
  17   4  -1  399.26   18.20
  17   4   2   13.60    3.70
  17  -4  -2    9.20    7.10
  17   4   2   20.40    3.80
  17  -4  -2   11.50    3.60
  17  -4   2    9.30    5.80
  17   4  -2   16.00    3.10
  17  -4   2   21.20    3.80
  17   4  -2   11.50    5.10
  17  -4  -3 1702.43   62.69
  17   4   3 1709.63   56.29
  17   4   3 1592.64   56.19
  17   4  -3 1632.94   57.59
  17  -4   3 1664.83   56.39
  17  -4   3 1505.95   58.99
  17   4  -3 1717.93   55.19
  17   5   0    2.40    3.30
  17   5   0   -1.40    2.50
  17  -5   0    3.80    3.30
  17  -5   0    1.90    5.70
  17  -5  -1  105.39   12.50
  17   5   1  125.39    7.80
  17   5   1  121.19    7.90
  17  -5  -1  113.69    8.60
  17   5  -1  129.39    9.00
  17   5  -1  116.09    7.80
  17  -5   1  114.59   11.70
  17  -5   1  119.49    8.10
  17   5   2    9.90    3.30
  17   5   2   13.50    3.60
  17  -5  -2    8.30    4.20
  17  -5  -2   18.50    8.30
  17  -5   2   16.20    6.70
  17   5  -2   12.90    3.10
  17  -5   2   13.50    3.80
  17   5  -2   20.90    5.70
  17  -6   0   -2.80    3.60
  17  -6   0   -2.10    8.90
  17   6   0    2.80    2.80
  17   6   0   -3.00    3.20
  17  -6  -1   87.19   17.00
  17  -6  -1   69.69    7.60
  17   6   1   92.69    7.00
  17   6   1   80.39    6.90
  17   6  -1   89.09    8.00
  17   6  -1   89.29    6.50
  18   0   0  106.29    7.30
  18   0   0  106.69    9.30
  18   0  -1  150.18   11.30
  18   0  -1  150.68    8.50
  18   0   1  130.79    9.90
  18   0   1  157.88    8.60
  18   0   2   41.60    5.10
  18   0   2   33.60    5.70
  18   0  -2   51.59    8.10
  18   0  -2   44.90    5.10
  18   0  -3    3.40    3.30
  18   0  -3    6.90    6.00
  18   0   3   -0.50    3.90
  18   0   3    3.60    3.20
  18  -1   0  137.59   11.00
  18   1   0  139.09   10.20
  18   1   0  163.58    8.60
  18  -1   0  156.28    8.70
  18   1   1  104.49    7.20
  18  -1  -1   83.39    9.80
  18  -1  -1  108.99    7.40
  18   1   1   89.49    8.10
  18  -1   1   80.69    8.60
  18   1  -1   93.89    6.90
  18   1  -1   91.89    9.20
  18  -1   1   90.39    7.10
  18  -1  -2    4.50    3.20
  18   1   2   10.60    3.40
  18  -1  -2    7.00    5.50
  18   1   2    9.90    4.30
  18   1  -2    6.50    5.20
  18  -1   2    4.50    4.50
  18  -1   2   12.30    3.40
  18   1  -2    8.60    3.20
  18   1   3   78.39    8.50
  18  -1  -3   96.79    7.40
  18   1   3  103.49    8.00
  18  -1  -3   91.69   11.90
  18  -1   3   89.09    7.60
  18   1  -3   97.39    7.60
  18  -1   3   86.69   12.10
  18   1  -3   95.59   11.40
  18  -2   0 1700.63   57.49
  18  -2   0 1649.63   60.39
  18   2   0 1618.14   58.49
  18   2   0 1790.92   57.19
  18  -2  -1   14.60    3.30
  18  -2  -1   15.10    6.10
  18   2   1   16.50    4.40
  18   2   1   12.80    3.20
  18   2  -1   11.80    2.90
  18  -2   1    7.90    4.80
  18   2  -1    5.60    4.40
  18  -2   1    7.70    2.80
  18   2   2  276.77   12.70
  18  -2  -2  274.57   17.00
  18   2   2  247.28   13.60
  18  -2  -2  281.37   13.30
  18   2  -2  283.97   12.50
  18  -2   2  249.38   15.00
  18  -2   2  265.37   13.00
  18   2  -2  286.87   15.70
  18   3   0  179.58   11.10
  18  -3   0  201.68   10.90
  18  -3   0  204.08   14.60
  18   3   0  197.28   10.10
  18  -3  -1   34.60    7.90
  18  -3  -1   45.00    6.40
  18   3   1   45.80    5.70
  18   3   1   47.90    6.40
  18   3  -1   47.40    6.70
  18   3  -1   49.99    5.30
  18  -3   1   43.50    7.70
  18  -3   1   47.60    5.60
  18  -3  -2    9.50    6.70
  18   3   2    9.00    4.10
  18   3   2   13.40    3.40
  18  -3  -2   16.40    3.90
  18  -3   2   12.20    5.70
  18  -3   2   10.70    3.30
  18   3  -2   12.00    5.50
  18   3  -2   13.90    3.40
  18  -4   0   83.39   11.40
  18   4   0   94.49    8.00
  18   4   0   72.49    6.50
  18  -4   0   93.69    7.40
  18  -4  -1  153.78   14.60
  18   4   1  134.69    9.30
  18   4   1  148.29    8.70
  18  -4  -1  141.79    9.40
  18   4  -1  151.88    8.60
  18  -4   1  117.39   13.20
  18   4  -1  139.79   10.50
  18  -4   1  138.49    8.90
  19   0   0    0.20    2.80
  19   0   0    3.30    4.80
  19  -1   0    0.50    3.30
  19   1   0    3.20    3.10
   0   0   0    0.00    0.00

_computing_structure_solution     'SHELXT 2014/5 (Sheldrick, 2014)'
;
_shelx_hkl_checksum              81633
loop_
_space_group_symop_operation_xyz
'x, y, z'
'-x+1/2, -y, z+1/2'
'-x, y+1/2, -z'
'x+1/2, -y+1/2, -z+1/2'
'-x, -y, -z'
'x-1/2, y, -z-1/2'
'x, -y-1/2, z'
'-x-1/2, y-1/2, z-1/2'
loop_
_atom_site_type_symbol
_atom_site_label
_atom_site_fract_x
_atom_site_fract_y
_atom_site_fract_z
_atom_site_U_iso_or_equiv
_atom_site_adp_type
_atom_site_calc_flag
_atom_site_refinement_flags_adp
_atom_site_refinement_flags_occupancy
_atom_site_refinement_flags_posn
_atom_site_occupancy
_atom_site_disorder_assembly
_atom_site_disorder_group
Cs Cs01 0.64228(2) 0.49755(2) 0.16380(3) 0.00851(13) Uani d . . . 1 . .
H H1 0.472(3) 0.317(5) 0.448(7) 0.045(15) Uiso d . . . 1 . .
In In02 0.61639(2) 0.25 0.69054(4) 0.00602(14) Uani d T P S 1 . .
Cl Cl03 0.60292(6) 0.00764(8) 0.67178(11) 0.0094(2) Uani d . . . 1 . .
Cl Cl04 0.74989(7) 0.25 0.90878(13) 0.0077(2) Uani d T P S 1 . .
Cl Cl05 0.50515(7) 0.25 0.95005(16) 0.0094(2) Uani d T P S 1 . .
Cl Cl06 0.72794(7) 0.25 0.43374(15) 0.0097(2) Uani d T P S 1 . .
O O007 0.4960(2) 0.25 0.4874(4) 0.0136(8) Uani d T P S 1 . .
loop_
_atom_site_aniso_label
_atom_site_aniso_U_11
_atom_site_aniso_U_22
_atom_site_aniso_U_33
_atom_site_aniso_U_12
_atom_site_aniso_U_13
_atom_site_aniso_U_23
Cs01 0.00787(19) 0.0084(2) 0.0093(2) 0.00047(6) -0.00073(6) -0.00073(5)
In02 0.0058(2) 0.0053(2) 0.0069(2) 0 -0.00068(9) 0
Cl03 0.0098(5) 0.0070(4) 0.0114(4) -0.0005(2) -0.0016(2) -0.0007(2)
Cl04 0.0065(4) 0.0084(5) 0.0083(5) 0 -0.0006(4) 0
Cl05 0.0079(5) 0.0077(5) 0.0127(5) 0 0.0027(3) 0
Cl06 0.0126(5) 0.0099(5) 0.0066(4) 0 0.0027(4) 0
O007 0.0152(19) 0.0088(17) 0.0169(19) 0 -0.0075(14) 0
loop_
_atom_type_symbol
_atom_type_description
_atom_type_scat_dispersion_real
_atom_type_scat_dispersion_imag
_atom_type_scat_source
H H 0.0000 0.0000 'International Tables Vol C Tables 4.2.6.8 and 6.1.1.4'
Cl Cl 0.1484 0.1585 'International Tables Vol C Tables 4.2.6.8 and 6.1.1.4'
Cs Cs -0.3680 2.1192 'International Tables Vol C Tables 4.2.6.8 and 6.1.1.4'
In In -0.7276 1.3100 'International Tables Vol C Tables 4.2.6.8 and 6.1.1.4'
O O 0.0106 0.0060 'International Tables Vol C Tables 4.2.6.8 and 6.1.1.4'
loop_
_geom_angle_atom_site_label_1
_geom_angle_atom_site_label_2
_geom_angle_atom_site_label_3
_geom_angle_site_symmetry_1
_geom_angle_site_symmetry_3
_geom_angle
_geom_angle_publ_flag
Cl05 Cs01 Cl06 5_666 . 155.85(3) ?
Cl05 Cs01 Cl04 5_666 1_554 133.34(2) ?
Cl06 Cs01 Cl04 . 1_554 67.17(2) ?
Cl05 Cs01 Cl04 5_666 2_664 80.271(19) ?
Cl06 Cs01 Cl04 . 2_664 95.80(2) ?
Cl04 Cs01 Cl04 1_554 2_664 128.129(7) ?
Cl05 Cs01 Cl05 5_666 1_554 95.715(7) ?
Cl06 Cs01 Cl05 . 1_554 85.182(19) ?
Cl04 Cs01 Cl05 1_554 1_554 59.23(2) ?
Cl04 Cs01 Cl05 2_664 1_554 172.32(2) ?
Cl05 Cs01 Cl06 5_666 2_664 69.87(2) ?
Cl06 Cs01 Cl06 . 2_664 128.208(8) ?
Cl04 Cs01 Cl06 1_554 2_664 92.990(19) ?
Cl04 Cs01 Cl06 2_664 2_664 58.63(2) ?
Cl05 Cs01 Cl06 1_554 2_664 126.24(3) ?
Cl05 Cs01 Cl03 5_666 8_765 126.284(19) ?
Cl06 Cs01 Cl03 . 8_765 70.01(2) ?
Cl04 Cs01 Cl03 1_554 8_765 65.970(19) ?
Cl04 Cs01 Cl03 2_664 8_765 62.177(19) ?
Cl05 Cs01 Cl03 1_554 8_765 125.04(2) ?
Cl06 Cs01 Cl03 2_664 8_765 58.29(2) ?
Cl05 Cs01 Cl03 5_666 7_564 71.25(2) ?
Cl06 Cs01 Cl03 . 7_564 127.53(2) ?
Cl04 Cs01 Cl03 1_554 7_564 62.11(2) ?
Cl04 Cs01 Cl03 2_664 7_564 125.598(18) ?
Cl05 Cs01 Cl03 1_554 7_564 58.21(2) ?
Cl06 Cs01 Cl03 2_664 7_564 68.22(2) ?
Cl03 Cs01 Cl03 8_765 7_564 99.81(2) ?
Cl05 Cs01 Cl03 5_666 3_656 58.73(2) ?
Cl06 Cs01 Cl03 . 3_656 99.75(2) ?
Cl04 Cs01 Cl03 1_554 3_656 127.290(19) ?
Cl04 Cs01 Cl03 2_664 3_656 103.12(2) ?
Cl05 Cs01 Cl03 1_554 3_656 69.22(2) ?
Cl06 Cs01 Cl03 2_664 3_656 128.02(2) ?
Cl03 Cs01 Cl03 8_765 3_656 159.838(9) ?
Cl03 Cs01 Cl03 7_564 3_656 100.134(18) ?
Cl05 Cs01 Cl03 5_666 7_565 99.12(2) ?
Cl06 Cs01 Cl03 . 7_565 58.43(2) ?
Cl04 Cs01 Cl03 1_554 7_565 125.434(18) ?
Cl04 Cs01 Cl03 2_664 7_565 64.642(19) ?
Cl05 Cs01 Cl03 1_554 7_565 109.91(2) ?
Cl06 Cs01 Cl03 2_664 7_565 123.21(2) ?
Cl03 Cs01 Cl03 8_765 7_565 97.69(2) ?
Cl03 Cs01 Cl03 7_564 7_565 162.47(3) ?
Cl03 Cs01 Cl03 3_656 7_565 62.47(2) ?
Cl05 Cs01 In02 5_666 1_554 101.560(19) ?
Cl06 Cs01 In02 . 1_554 92.980(16) ?
Cl04 Cs01 In02 1_554 1_554 35.140(15) ?
Cl04 Cs01 In02 2_664 1_554 152.156(16) ?
Cl05 Cs01 In02 1_554 1_554 34.964(18) ?
Cl06 Cs01 In02 2_664 1_554 95.521(17) ?
Cl03 Cs01 In02 8_765 1_554 96.620(14) ?
Cl03 Cs01 In02 7_564 1_554 35.495(13) ?
Cl03 Cs01 In02 3_656 1_554 101.333(14) ?
Cl03 Cs01 In02 7_565 1_554 140.509(13) ?
Cl05 Cs01 In02 5_666 2_664 92.410(14) ?
Cl06 Cs01 In02 . 2_664 97.910(16) ?
Cl04 Cs01 In02 1_554 2_664 96.524(14) ?
Cl04 Cs01 In02 2_664 2_664 35.115(16) ?
Cl05 Cs01 In02 1_554 2_664 152.345(19) ?
Cl06 Cs01 In02 2_664 2_664 34.731(18) ?
Cl03 Cs01 In02 8_765 2_664 35.477(13) ?
Cl03 Cs01 In02 7_564 2_664 100.158(15) ?
Cl03 Cs01 In02 3_656 2_664 136.181(14) ?
Cl03 Cs01 In02 7_565 2_664 94.750(14) ?
In02 Cs01 In02 1_554 2_664 117.431(7) ?
O007 In02 Cl06 . . 89.38(9) ?
O007 In02 Cl05 . . 90.99(9) ?
Cl06 In02 Cl05 . . 179.63(4) ?
O007 In02 Cl04 . . 179.10(9) ?
Cl06 In02 Cl04 . . 89.72(3) ?
Cl05 In02 Cl04 . . 89.91(3) ?
O007 In02 Cl03 . 7_565 84.63(2) ?
Cl06 In02 Cl03 . 7_565 90.44(2) ?
Cl05 In02 Cl03 . 7_565 89.59(2) ?
Cl04 In02 Cl03 . 7_565 95.38(2) ?
O007 In02 Cl03 . . 84.63(2) ?
Cl06 In02 Cl03 . . 90.44(2) ?
Cl05 In02 Cl03 . . 89.59(2) ?
Cl04 In02 Cl03 . . 95.38(2) ?
Cl03 In02 Cl03 7_565 . 169.21(4) ?
O007 In02 Cs01 . 1_556 126.12(6) ?
Cl06 In02 Cs01 . 1_556 123.829(19) ?
Cl05 In02 Cs01 . 1_556 55.909(18) ?
Cl04 In02 Cs01 . 1_556 54.492(16) ?
Cl03 In02 Cs01 7_565 1_556 57.44(2) ?
Cl03 In02 Cs01 . 1_556 129.71(2) ?
O007 In02 Cs01 . 7_566 126.12(6) ?
Cl06 In02 Cs01 . 7_566 123.829(19) ?
Cl05 In02 Cs01 . 7_566 55.909(18) ?
Cl04 In02 Cs01 . 7_566 54.492(16) ?
Cl03 In02 Cs01 7_565 7_566 129.71(2) ?
Cl03 In02 Cs01 . 7_566 57.44(2) ?
Cs01 In02 Cs01 1_556 7_566 72.484(8) ?
O007 In02 Cs01 . 2_665 124.95(6) ?
Cl06 In02 Cs01 . 2_665 56.666(18) ?
Cl05 In02 Cs01 . 2_665 123.075(19) ?
Cl04 In02 Cs01 . 2_665 54.445(16) ?
Cl03 In02 Cs01 7_565 2_665 57.23(2) ?
Cl03 In02 Cs01 . 2_665 131.18(2) ?
Cs01 In02 Cs01 1_556 2_665 67.167(5) ?
Cs01 In02 Cs01 7_566 2_665 108.928(7) ?
O007 In02 Cs01 . 8_756 124.95(6) ?
Cl06 In02 Cs01 . 8_756 56.666(18) ?
Cl05 In02 Cs01 . 8_756 123.075(18) ?
Cl04 In02 Cs01 . 8_756 54.445(15) ?
Cl03 In02 Cs01 7_565 8_756 131.18(2) ?
Cl03 In02 Cs01 . 8_756 57.23(2) ?
Cs01 In02 Cs01 1_556 8_756 108.928(7) ?
Cs01 In02 Cs01 7_566 8_756 67.167(5) ?
Cs01 In02 Cs01 2_665 8_756 74.101(8) ?
In02 Cl03 Cs01 . 8_756 87.30(3) ?
In02 Cl03 Cs01 . 7_566 87.07(2) ?
Cs01 Cl03 Cs01 8_756 7_566 82.036(18) ?
In02 Cl03 Cs01 . 3_646 94.74(3) ?
Cs01 Cl03 Cs01 8_756 3_646 161.65(3) ?
Cs01 Cl03 Cs01 7_566 3_646 79.866(18) ?
In02 Cl03 Cs01 . 7_565 93.25(2) ?
Cs01 Cl03 Cs01 8_756 7_565 80.469(18) ?
Cs01 Cl03 Cs01 7_566 7_565 162.47(3) ?
Cs01 Cl03 Cs01 3_646 7_565 117.53(2) ?
In02 Cl04 Cs01 . 1_556 90.37(2) ?
In02 Cl04 Cs01 . 7_566 90.37(2) ?
Cs01 Cl04 Cs01 1_556 7_566 93.14(2) ?
In02 Cl04 Cs01 . 8_756 90.44(2) ?
Cs01 Cl04 Cs01 1_556 8_756 178.55(3) ?
Cs01 Cl04 Cs01 7_566 8_756 85.641(5) ?
In02 Cl04 Cs01 . 2_665 90.44(2) ?
Cs01 Cl04 Cs01 1_556 2_665 85.641(5) ?
Cs01 Cl04 Cs01 7_566 2_665 178.55(3) ?
Cs01 Cl04 Cs01 8_756 2_665 95.56(2) ?
In02 Cl05 Cs01 . 3_646 101.87(3) ?
In02 Cl05 Cs01 . 5_666 101.87(3) ?
Cs01 Cl05 Cs01 3_646 5_666 98.02(3) ?
In02 Cl05 Cs01 . 1_556 89.13(2) ?
Cs01 Cl05 Cs01 3_646 1_556 167.96(4) ?
Cs01 Cl05 Cs01 5_666 1_556 84.285(7) ?
In02 Cl05 Cs01 . 7_566 89.13(2) ?
Cs01 Cl05 Cs01 3_646 7_566 84.285(7) ?
Cs01 Cl05 Cs01 5_666 7_566 167.96(4) ?
Cs01 Cl05 Cs01 1_556 7_566 91.09(2) ?
In02 Cl06 Cs01 . . 102.00(3) ?
In02 Cl06 Cs01 . 7_565 102.00(3) ?
Cs01 Cl06 Cs01 . 7_565 95.40(3) ?
In02 Cl06 Cs01 . 2_665 88.60(3) ?
Cs01 Cl06 Cs01 . 2_665 85.129(6) ?
Cs01 Cl06 Cs01 7_565 2_665 168.99(4) ?
In02 Cl06 Cs01 . 8_756 88.60(3) ?
Cs01 Cl06 Cs01 . 8_756 168.99(4) ?
Cs01 Cl06 Cs01 7_565 8_756 85.129(6) ?
Cs01 Cl06 Cs01 2_665 8_756 92.27(3) ?
In02 O007 H1 . . 123.(3) ?
In02 O007 H1 . 7_565 123.(3) ?
H1 O007 H1 . 7_565 114.(7) ?
loop_
_geom_bond_atom_site_label_1
_geom_bond_atom_site_label_2
_geom_bond_site_symmetry_2
_geom_bond_distance
_geom_bond_publ_flag
Cs01 Cl05 5_666 3.4522(7) ?
Cs01 Cl06 . 3.4546(8) ?
Cs01 Cl04 1_554 3.5185(7) ?
Cs01 Cl04 2_664 3.5186(7) ?
Cs01 Cl05 1_554 3.5798(8) ?
Cs01 Cl06 2_664 3.6145(8) ?
Cs01 Cl03 8_765 3.6404(9) ?
Cs01 Cl03 7_564 3.6476(9) ?
Cs01 Cl03 3_656 3.7042(9) ?
Cs01 Cl03 7_565 3.7632(9) ?
Cs01 In02 1_554 4.3222(3) ?
Cs01 In02 2_664 4.3249(3) ?
In02 O007 . 2.273(3) ?
In02 Cl06 . 2.4647(12) ?
In02 Cl05 . 2.4772(11) ?
In02 Cl04 . 2.4879(10) ?
In02 Cl03 7_565 2.5129(8) ?
In02 Cl03 . 2.5129(8) ?
O007 H1 . 0.83(5) ?
