#------------------------------------------------------------------------------
#$Date: 2022-01-01 07:13:54 +0200 (Sat, 01 Jan 2022) $
#$Revision: 271676 $
#$URL: file:///home/coder/svn-repositories/cod/cif/1/56/58/1565892.cif $
#------------------------------------------------------------------------------
#
# This file is available in the Crystallography Open Database (COD),
# http://www.crystallography.net/. The original data for this entry
# were provided by IUCr Journals, http://journals.iucr.org/.
#
# The file may be used within the scientific community so long as
# proper attribution is given to the journal article from which the
# data were obtained.
#
data_1565892
loop_
_publ_author_name
'Olejniczak, Anna'
'Katrusiak, Anna'
'Podsiad\/lo, Marcin'
'Katrusiak, Andrzej'
_publ_section_title
;
 Stochastic hydration of a high-nitrogen-content molecular compound
 recrystallized under pressure
;
_journal_issue                   1
_journal_name_full               IUCrJ
_journal_page_first              49
_journal_page_last               54
_journal_paper_doi               10.1107/S2052252521010381
_journal_volume                  9
_journal_year                    2022
_chemical_formula_moiety         'C4 H2 Cl N5'
_chemical_formula_sum            'C4 H2 Cl N5'
_chemical_formula_weight         155.56
_chemical_name_systematic        6-chloro-1,2,3,4-tetrazolo[1,5-b]pyridazine
_space_group_crystal_system      monoclinic
_space_group_IT_number           14
_space_group_name_Hall           '-P 2ybc'
_space_group_name_H-M_alt        'P 1 21/c 1'
_atom_sites_solution_hydrogens   geom
_atom_sites_solution_primary     direct
_audit_creation_date             2020-07-14
_audit_creation_method
;
Olex2 1.3
(compiled 2020.06.28 svn.raecde09e for OlexSys, GUI svn.r6132)
;
_cell_angle_alpha                90
_cell_angle_beta                 100.006(18)
_cell_angle_gamma                90
_cell_formula_units_Z            4
_cell_length_a                   7.756(5)
_cell_length_b                   12.7163(5)
_cell_length_c                   5.4680(3)
_cell_measurement_reflns_used    1202
_cell_measurement_temperature    296(2)
_cell_measurement_theta_max      26.0020
_cell_measurement_theta_min      4.0930
_cell_volume                     531.1(3)
_computing_cell_refinement       'CrysAlisPro 1.171.40.67a (Rigaku OD, 2019)'
_computing_data_collection       'CrysAlisPro 1.171.40.67a (Rigaku OD, 2019)'
_computing_data_reduction        'CrysAlisPro 1.171.40.67a (Rigaku OD, 2019)'
_computing_molecular_graphics    'Olex2 1.3 (Dolomanov et al., 2009)'
_computing_publication_material  'Olex2 1.3 (Dolomanov et al., 2009)'
_computing_structure_refinement  'SHELXL 2018/3 (Sheldrick, 2015)'
_computing_structure_solution    'SHELXT 2018/2 (Sheldrick, 2018)'
_diffrn_ambient_environment      'diamond-anvil cell'
_diffrn_ambient_pressure         800000
_diffrn_ambient_temperature      296
_diffrn_detector                 'CCD plate'
_diffrn_detector_area_resol_mean 16.2413
_diffrn_detector_type            Eos
_diffrn_measured_fraction_theta_full 0.335
_diffrn_measured_fraction_theta_max 0.310
_diffrn_measurement_details
;
List of Runs (angles in degrees, time in seconds):

  # Type    Start    End  Width  t~exp~   \w     \q     \k     \f   Frames
--------------------------------------------------------------------------
  1  \f    140.00 200.00   0.75   20.00   0.00 -30.00   0.00    --    80
  2  \f    160.00 217.00   0.75   20.00   0.00  30.00   0.00    --    76
  3  \f    -20.00  34.75   0.75   20.00   0.00  30.00   0.00    --    73
  4  \w    -24.00  24.00   0.75   20.00    --   30.00  39.46 -12.90   64
  5  \w    -24.00  24.00   0.75   20.00    --   30.00  39.46 167.10   64
  6  \w    -50.00  10.00   0.75   20.00    --  -30.00  39.46 167.10   80
  7  \w    -50.00  10.00   0.75   20.00    --  -30.00  39.46 -12.90   80
  8  \w    -64.00  -8.50   0.75   20.00    --  -30.00  81.40 -28.90   74
  9  \w    -64.00  -8.50   0.75   20.00    --  -30.00  81.40 151.10   74
 10  \w    -19.00   8.00   0.75   20.00    --   30.00  81.40 151.10   36
 11  \w    -19.00   8.00   0.75   20.00    --   30.00  81.40 -28.90   36
 12  \w    -43.00 -21.25   0.75   20.00    --   30.00 134.60 -56.90   29
 13  \w    -43.00 -21.25   0.75   20.00    --   30.00 134.60 123.10   29
 14  \w    -90.00 -36.00   0.75   20.00    --  -30.00 134.60 123.10   72
 15  \w    -90.00 -36.00   0.75   20.00    --  -30.00 134.60 -56.90   72
;
_diffrn_measurement_device       'four-circle diffractometer'
_diffrn_measurement_device_type  'KM-4 CCD'
_diffrn_measurement_method
;
HP omega scans - for more details see:
A. Budzianowski, A. Katrusiak in High-Pressure Crystallography
(Eds.: A. Katrusiak, P. F. McMillan),
Dordrecht: Kluwer Acad. Publ., 2004 pp.157-168
;
_diffrn_orient_matrix_type
'CrysAlisPro convention (1999,Acta A55,543-557)'
_diffrn_orient_matrix_UB_11      0.0921229000
_diffrn_orient_matrix_UB_12      0.0042334000
_diffrn_orient_matrix_UB_13      0.0075749000
_diffrn_orient_matrix_UB_21      -0.0129557000
_diffrn_orient_matrix_UB_22      0.0264226000
_diffrn_orient_matrix_UB_23      -0.1158839000
_diffrn_orient_matrix_UB_31      -0.0009797000
_diffrn_orient_matrix_UB_32      0.0488688000
_diffrn_orient_matrix_UB_33      0.0619975000
_diffrn_radiation_monochromator  graphite
_diffrn_radiation_probe          x-ray
_diffrn_radiation_type           'Mo K\a'
_diffrn_radiation_wavelength     0.71073
_diffrn_reflns_av_R_equivalents  0.0308
_diffrn_reflns_av_unetI/netI     0.0174
_diffrn_reflns_Laue_measured_fraction_full 0.335
_diffrn_reflns_Laue_measured_fraction_max 0.310
_diffrn_reflns_limit_h_max       2
_diffrn_reflns_limit_h_min       -2
_diffrn_reflns_limit_k_max       16
_diffrn_reflns_limit_k_min       -15
_diffrn_reflns_limit_l_max       6
_diffrn_reflns_limit_l_min       -6
_diffrn_reflns_number            2908
_diffrn_reflns_point_group_measured_fraction_full 0.335
_diffrn_reflns_point_group_measured_fraction_max 0.310
_diffrn_reflns_theta_full        25.242
_diffrn_reflns_theta_max         26.948
_diffrn_reflns_theta_min         4.110
_diffrn_source                   'fine-focus sealed X-ray tube'
_diffrn_source_type              'Enhance (Mo) X-ray Source'
_exptl_absorpt_coefficient_mu    0.620
_exptl_absorpt_correction_T_max  1.00000
_exptl_absorpt_correction_T_min  0.53534
_exptl_absorpt_correction_type   multi-scan
_exptl_absorpt_process_details
;
CrysAlisPro 1.171.39.46 (Rigaku Oxford Diffraction, 2018)
Empirical absorption correction using spherical harmonics,
 implemented in SCALE3 ABSPACK scaling algorithm.
;
_exptl_crystal_colour            colourless
_exptl_crystal_density_diffrn    1.945
_exptl_crystal_description       plate
_exptl_crystal_F_000             312
_exptl_crystal_size_max          0.24
_exptl_crystal_size_mid          0.22
_exptl_crystal_size_min          0.22
_refine_diff_density_max         0.367
_refine_diff_density_min         -0.443
_refine_diff_density_rms         0.051
_refine_ls_extinction_method     none
_refine_ls_goodness_of_fit_ref   1.130
_refine_ls_hydrogen_treatment    constr
_refine_ls_matrix_type           full
_refine_ls_number_parameters     41
_refine_ls_number_reflns         355
_refine_ls_number_restraints     0
_refine_ls_restrained_S_all      1.130
_refine_ls_R_factor_all          0.0607
_refine_ls_R_factor_gt           0.0538
_refine_ls_shift/su_max          0.000
_refine_ls_shift/su_mean         0.000
_refine_ls_structure_factor_coef Fsqd
_refine_ls_weighting_details
'w=1/[\s^2^(Fo^2^)+(0.0513P)^2^+1.5556P] where P=(Fo^2^+2Fc^2^)/3'
_refine_ls_weighting_scheme      calc
_refine_ls_wR_factor_gt          0.1280
_refine_ls_wR_factor_ref         0.1326
_reflns_Friedel_coverage         0.000
_reflns_number_gt                306
_reflns_number_total             355
_reflns_threshold_expression     'I > 2\s(I)'
_cod_data_source_file            lt5042.cif
_cod_data_source_block           C4H2N5Cl1@0_80GPa_phase_beta
_cod_database_code               1565892
_shelx_shelxl_version_number     2018/3
_chemical_oxdiff_formula         C4H2N5Cl1
_shelx_space_group_comment
;
The symmetry employed for this shelxl refinement is uniquely defined
by the following loop, which should always be used as a source of
symmetry information in preference to the above space-group names.
They are only intended as comments.
;
_reflns_odcompleteness_completeness 30.71
_reflns_odcompleteness_iscentric 1
_reflns_odcompleteness_theta     26.89
_olex2_refinement_description
;
1. Fixed Uiso
 At 1.2 times of:
  All C(H) groups
2.a Aromatic/amide H refined with riding coordinates:
 C8(H8), C7(H7)
;
_shelx_res_file
;
TITL 7_4c_a.res in P2(1)/c
    7_4c.res
    created by SHELXL-2018/3 at 14:02:05 on 14-Jul-2020
REM Old TITL 7_4c in P2(1)/c
REM SHELXT solution in P2(1)/c
REM R1 0.110, Rweak 0.200, Alpha 0.074, Orientation as input
REM Formula found by SHELXT: C7 N2 Cl
CELL 0.71073 7.7563 12.7163 5.468 90 100.006 90
ZERR 4 0.0048 0.0005 0.0003 0 0.018 0
LATT 1
SYMM -X,0.5+Y,0.5-Z
SFAC C H Cl N
UNIT 16 8 4 20

L.S. 44
PLAN  5
CONF
BOND $H
list 4
fmap 2 53
acta
MORE -1
REM <olex2.extras>
REM <HklSrc "%.\\7_4c.hkl">
REM </olex2.extras>

WGHT    0.051300    1.555600
FVAR       0.96555
CL1   3    1.031184    0.341634    0.860802    11.00000    0.03644
N4    4    0.552995    0.350718    0.550847    11.00000    0.02091
N5    4    0.694364    0.329340    0.719639    11.00000    0.02156
N1    4    0.383396    0.414217    0.232422    11.00000    0.03025
N3    4    0.391628    0.332220    0.590056    11.00000    0.03323
N2    4    0.290432    0.370764    0.396608    11.00000    0.03411
C8    1    0.705029    0.426897    0.256013    11.00000    0.02093
AFIX  43
H8    2    0.707514    0.459507    0.104428    11.00000   -1.20000
AFIX   0
C6    1    0.844420    0.356893    0.648295    11.00000    0.01999
C9    1    0.542805    0.400830    0.327898    11.00000    0.01928
C7    1    0.857206    0.403395    0.412612    11.00000    0.02252
AFIX  43
H7    2    0.965471    0.417025    0.368229    11.00000   -1.20000
AFIX   0
HKLF 4




REM  7_4c_a.res in P2(1)/c
REM wR2 = 0.1326, GooF = S = 1.130, Restrained GooF = 1.130 for all data
REM R1 = 0.0538 for 306 Fo > 4sig(Fo) and 0.0607 for all 355 data
REM 41 parameters refined using 0 restraints

END

WGHT      0.0514      1.5585

REM Highest difference peak  0.367,  deepest hole -0.443,  1-sigma level  0.051
Q1    1   1.0203  0.3021  0.8309  11.00000  0.05    0.37
Q2    1   1.0674  0.3802  0.8944  11.00000  0.05    0.34
Q3    1   0.2275  0.3975  0.2904  11.00000  0.05    0.18
Q4    1   0.8870  0.3836  0.5275  11.00000  0.05    0.15
Q5    1   0.3232  0.3440  0.7897  11.00000  0.05    0.14
;
_shelx_res_checksum              87698
_shelx_hkl_file
;
   0  -3   0    3.31    1.12
   1  -3   0  199.33    7.35
   1  -3   0  197.11    6.61
   1  -4   0    4.35    1.32
   1  -4   0    3.31    1.45
   1   4   0    2.18    1.01
  -1   4   0    2.36    0.84
  -1   4   0    2.76    1.06
   1  -4   0    1.89    1.16
  -1   4   0    2.28    1.00
  -1   4   0    3.87    1.32
   0   5   0    1.60    1.06
   0  -5   0    1.12    1.30
   0   5   0    1.19    0.80
   0   5   0    0.11    0.89
   0   5   0    2.81    1.28
   0  -5   0    1.29    0.80
   0   5   0   -0.48    1.04
   1   5   0   61.05    5.08
  -1   5   0   61.39    4.55
   1  -5   0   58.80    5.04
  -1   5   0   61.78    4.03
   1  -5   0   57.16    4.20
   1   5   0   58.71    4.58
   1   5   0   54.61    4.44
  -1   5   0   61.42    4.35
  -1   5   0   58.50    4.17
   1  -5   0   48.41    4.52
   0   6   0 1365.88   22.09
   0   6   0 1381.11   20.77
   0   6   0 1360.79   20.75
   0   6   0 1389.30   15.72
   0   6   0 1381.65   20.50
   0  -6   0 1345.19   19.35
   0  -6   0 1307.95   19.05
   0  -6   0 1330.58   13.97
   0  -6   0 1373.12   14.69
  -1   6   0  589.25    9.99
  -1   6   0  558.04   13.83
  -1   6   0  594.31   14.41
   1   6   0  572.33   12.19
  -1  -6   0  583.27   13.45
   1  -6   0  570.50   15.54
   1   6   0  593.63   15.35
   1   6   0  545.09   16.18
   1  -6   0  585.01   13.95
  -1  -6   0  599.99   11.74
  -1  -6   0  574.67   13.10
   1  -6   0  562.97   16.14
  -1   6   0  597.21   14.84
   1   6   0  544.49   13.73
   1   6   0  572.95   15.05
  -1   6   0  585.09   13.10
   1   6   0  595.86   17.31
  -2   6   0  623.23   17.36
   0   7   0    1.97    1.33
   0  -7   0   -0.50    0.86
   0  -7   0    0.82    1.48
   0   7   0   -0.86    1.65
   0   7   0    0.64    1.61
   0   7   0    1.73    2.02
   0   7   0    1.11    1.44
   0   7   0    0.03    1.43
   0   7   0   -1.46    1.47
   0  -7   0    2.21    1.73
  -1   7   0   16.30    2.92
   1  -7   0   15.13    3.06
   1   7   0   17.83    2.50
   1   7   0   16.47    3.56
   1   7   0   14.38    2.61
  -1   7   0   14.26    1.86
  -1  -7   0   16.43    2.79
   1   7   0   12.62    2.63
  -1   7   0   15.76    2.76
   1   7   0   18.49    3.20
  -1  -7   0   10.96    2.32
   1  -7   0   11.65    2.96
  -1  -7   0   17.01    2.05
  -1   7   0   17.55    2.85
   1   7   0   13.53    3.34
  -1   7   0   14.16    2.67
   1  -7   0   17.40    3.69
  -2   7   0  312.42   11.46
  -2   7   0  306.26    9.29
   2  -7   0  300.74   14.33
  -2   7   0  319.58   12.48
  -2   7   0  335.62   13.53
   0   8   0   16.49    3.39
   0   8   0   20.27    3.31
   0  -8   0   18.33    3.49
   0  -8   0   20.73    3.27
   0   8   0   20.78    3.50
   0   8   0   18.28    3.36
   0  -8   0   15.46    2.71
  -1   8   0   10.46    2.63
  -1   8   0   10.98    3.05
   1   8   0    8.84    2.80
   1  -8   0   13.83    3.33
  -1   8   0    7.68    2.11
   1  -8   0   11.89    3.67
   1  -8   0   10.06    3.37
   1   8   0   14.79    3.32
   1   8   0   16.16    3.44
  -1  -8   0   10.41    2.68
  -1   8   0    9.71    2.43
   1   8   0    8.68    2.92
  -1  -8   0   11.74    2.66
  -2   8   0    1.31    2.20
   2  -8   0    2.28    3.53
  -2   8   0    5.30    2.43
  -2   8   0    0.30    2.07
   0  -9   0    3.47    3.28
   0   9   0    2.13    2.21
   0   9   0    0.03    2.37
   0  -9   0   -0.12    2.55
   0  -9   0    6.45    2.89
   0   9   0   -2.39    2.50
   0   9   0   -3.50    2.61
   0  -9   0    0.34    2.00
  -1   9   0   42.80    4.80
   1  -9   0   45.58    6.33
  -1  -9   0   42.82    4.85
  -1  -9   0   43.38    4.60
   1  -9   0   45.59    5.29
   1   9   0   49.40    6.30
   1  -9   0   46.78    5.88
   1   9   0   54.36    6.52
  -1   9   0   50.51    5.86
   1   9   0   41.95    5.51
  -1   9   0   45.02    5.03
  -1   9   0   50.70    5.75
   1   9   0   43.58    5.24
  -2   9   0   33.21    5.41
  -2   9   0   32.68    4.30
  -2   9   0   30.24    4.72
   2  -9   0   29.44    5.70
   0 -10   0  446.67   17.11
   0 -10   0  429.15   17.62
   0  10   0  415.01   16.15
   0  10   0  380.76   16.06
   0 -10   0  424.26   14.93
   0  10   0  415.21   17.11
   0 -10   0  440.13   14.93
   0  10   0  429.60   16.26
  -1  10   0  178.29   10.93
   1  10   0  156.00   10.72
  -1  10   0  200.43   10.57
   1 -10   0  183.88   10.40
   1 -10   0  186.24   12.38
  -1  10   0  175.87   10.41
   1 -10   0  187.36   12.07
   1 -10   0  208.27   10.73
   1  10   0  185.01   11.40
  -1 -10   0  184.06    9.96
   1  10   0  165.43   12.18
  -1  10   0  197.60   11.59
  -2  10   0  121.78    9.87
  -2  10   0  115.76    9.09
   2 -10   0  104.24   10.40
  -2  10   0  121.37    8.88
   0  11   0   -0.11    3.14
   0 -11   0    0.82    3.79
   0  11   0    2.64    2.74
   0 -11   0   10.11    4.35
   0  11   0    3.97    2.88
   0 -11   0    2.03    2.53
   0 -11   0    2.95    3.02
   0  11   0    3.57    2.49
   1  11   0   16.22    4.39
  -1 -11   0   31.33    5.13
  -1  11   0   21.87    3.98
  -1  11   0   26.71    4.99
   1 -11   0   29.95    7.04
   1 -11   0   21.41    4.38
  -1  11   0   25.47    4.78
   1 -11   0   14.71    5.11
   1 -11   0   26.08    5.01
  -1  11   0   22.43    5.01
   1  11   0   22.68    5.24
   1  11   0   25.31    5.76
  -2  11   0   52.73    7.10
  -2  11   0   57.75    6.45
   2 -11   0   45.70    7.53
  -2  11   0   56.96    6.98
   0 -12   0  849.07   23.08
   0  12   0  889.48   26.38
   0  12   0  889.20   28.51
   0 -12   0  850.69   27.27
   0  12   0  793.58   26.25
   0 -12   0  810.05   27.19
   1  12   0    5.46    4.07
   1 -12   0   -2.02    3.33
  -1  12   0   -0.55    3.11
   1 -12   0    5.14    4.98
   1  12   0   -1.63    4.83
  -1  12   0   -1.68    3.61
   1 -12   0   13.49    6.15
  -1  12   0    5.42    4.95
   2 -12   0  108.60   11.59
  -2  12   0  132.14   11.57
  -2  12   0  134.40   10.56
   0  13   0    2.01    3.92
   0 -13   0    5.72    5.37
   0 -13   0   -7.29    4.02
   0 -13   0   -3.98    5.04
   0  13   0    2.31    3.89
   1  13   0   -1.65    4.29
   1  13   0    5.81    4.67
   1 -13   0    3.86    5.58
   1 -13   0    3.59    5.65
  -1  13   0   78.69   10.46
  -1 -13   0   10.15    5.04
  -1  13   0   89.41   11.30
   2 -13   0    1.41    5.07
  -2  13   0   -0.46    3.85
  -2  13   0   -0.58    3.60
   0  14   0   23.68    7.28
   0 -14   0   24.01    7.28
   1  14   0    3.41    5.37
  -1 -14   0   12.01    5.96
   1 -14   0   13.80    6.77
  -1 -14   0    0.94    5.33
  -1  14   0    4.34    4.33
  -2  14   0    6.25    5.40
   2 -14   0    6.13    7.26
   0 -15   0  -12.22    5.96
   0  15   0  -10.31    6.91
  -1 -15   0   -0.88    6.01
  -1  15   0    4.94    5.38
   1  15   0   -3.07    4.72
   1 -15   0   16.03    7.26
  -2  15   0    0.66    4.51
   0   0  -1    1.28    0.42
   0   1  -1 1854.38   16.73
   0  -1   1 1855.12   15.36
   0  -1  -1 1832.66   15.80
   0  -1  -1 1838.92   15.58
   0   1  -1 1859.66   15.68
  -1   2   1 4131.44   31.59
   1  -2  -1 4119.38   35.05
  -1   2   1 4079.80   28.93
   0   2  -1  179.49    5.70
   0  -2  -1  194.49    5.67
   0   2   1  194.44    5.76
   0  -2   1  185.51    5.43
   0   2  -1  169.58    4.77
   0  -2   1  183.99    5.28
   0  -2  -1  203.44    5.19
   1  -2   1 1428.86   19.28
   1  -2   1 1409.59   17.98
  -1   3   1 7165.72   42.73
  -1   3   1 7052.60   40.27
   1  -3  -1 7132.42   43.79
  -1  -3   1 7127.44   43.99
  -1   3   1 7221.40   42.99
   1   3  -1 7172.39   52.55
   1  -3  -1 7197.11   48.21
   1   3  -1 7202.79   50.48
   1   3  -1 7197.09   47.52
  -1   3   1 7209.30   41.13
   0   3  -1 1210.49   15.85
   0   3  -1 1263.36   16.45
   0  -3   1 1250.09   15.96
   0  -3   1 1223.05   14.60
   0  -3  -1 1218.29   15.20
   0   3  -1 1207.29   14.56
   0   3   1 1220.10   15.86
   0   3  -1 1228.10   12.87
   0   3   1 1274.70   16.12
   0  -3  -1 1241.85   13.00
   0   3   1 1270.81   16.58
   0   3  -1 1277.60   15.63
  -1   3  -1  946.09   15.57
   1  -3   1  953.69   15.22
  -1   3  -1  971.29   14.57
  -1   3  -1  923.09   15.50
   1  -3   1  960.71   16.33
  -1  -4   1   92.45    5.01
  -1   4   1   86.19    4.87
   1   4  -1   90.08    5.66
   1  -4  -1   89.71    6.00
  -1   4   1   82.48    5.07
  -1   4   1   88.17    5.06
  -1   4   1   97.34    5.08
   1   4  -1   87.71    5.71
   1   4  -1   89.64    6.15
   1  -4  -1   90.40    5.30
   1   4  -1   88.82    5.85
   0   4   1 9956.91   52.62
   0  -4  -1 9999.00   46.96
   1  -4   1    1.06    1.15
   1  -4   1   -1.32    1.78
  -1   4  -1    1.77    1.09
  -1  -4  -1    0.25    1.12
   1  -4   1    2.71    1.49
   1   4   1    1.35    1.25
   1   4   1   -0.68    1.35
  -1   4  -1    1.14    0.95
  -1   4  -1   -0.18    1.14
  -1   4  -1    1.06    1.06
   1   4   1    1.06    1.06
  -1   5   1  287.22    9.58
  -1   5   1  292.28    9.69
   1   5  -1  261.22   10.48
  -1   5   1  292.67   10.05
   1   5  -1  277.55   10.73
  -1   5   1  289.24    7.16
   1  -5  -1  287.92   10.23
  -1  -5   1  282.24    9.70
   1  -5  -1  279.18    6.70
   1   5  -1  291.41    8.78
   1   5  -1  278.25   11.26
  -1   5   1  292.45    9.32
   1   5  -1  281.65   10.94
  -1  -5   1  316.12    9.25
   1  -5  -1  272.46   11.11
   0   5  -1  581.93    9.02
   0   5   1  598.86   13.23
   0  -5  -1  582.73    9.50
   0  -5   1  566.11   11.37
   0  -5  -1  585.49   12.06
   0   5  -1  568.65   13.17
   0  -5   1  565.39   13.06
   0  -5   1  585.69    9.61
   0  -5  -1  581.21   13.05
   0   5   1  564.95   12.51
   0   5  -1  556.57   13.38
   0  -5   1  606.22   11.89
   0   5  -1  565.94   12.22
   0   5   1  560.11   13.29
   0   5  -1  572.22   10.85
   0   5   1  556.17   13.59
   0   5  -1  532.58   12.35
   0   5  -1  591.73   10.79
  -1   5  -1   88.25    5.49
   1  -5   1   81.09    4.89
  -1   5  -1   88.00    5.23
  -1   5  -1   88.73    5.59
   1  -5   1   81.54    5.79
  -1   5  -1   82.15    4.48
  -1   5  -1   81.23    4.78
   1  -5   1   80.41    5.58
  -2   6   1  196.32    9.30
  -2   6   1  226.35   10.42
  -2   6   1  205.37    9.81
  -1  -6   1  303.48   10.55
  -1   6   1  290.46   10.61
   1   6  -1  328.15   10.28
  -1   6   1  325.28    8.41
  -1  -6   1  315.56    9.44
  -1   6   1  315.15   10.80
   1   6  -1  324.40   12.19
   1  -6  -1  307.93   12.50
   1   6  -1  338.89   12.70
   1  -6  -1  315.35    9.42
   1   6  -1  304.09   12.07
  -1   6   1  307.12   10.24
  -1   6   1  306.03   10.45
   1  -6  -1  313.27   11.40
   0   6  -1    5.05    1.53
   0   6   1    7.39    2.16
   0   6   1    7.31    2.02
   0  -6   1    5.24    1.31
   0  -6  -1    3.97    1.33
   0   6  -1    4.93    1.52
   0  -6   1   10.10    2.66
   0   6  -1    5.19    1.68
   0   6  -1    4.52    1.80
   0  -6   1    3.77    1.26
   0   6   1    5.49    2.13
   0   6  -1    6.24    1.94
   0   6   1    4.70    1.60
   0  -6   1    3.06    1.80
   0   6   1   11.38    2.42
   0   6  -1    4.86    1.76
   0  -6  -1    6.32    1.25
   0  -6  -1    7.04    2.08
   0  -6   1    5.25    1.72
  -1   6  -1  113.94    5.65
   1  -6   1  111.68    6.04
  -1  -6  -1   99.08    6.03
   1   6   1  123.97    5.62
  -1   6  -1  105.33    5.55
   1   6   1  102.57    6.82
   1   6   1  117.77    7.60
   1   6   1   88.18    6.43
   1  -6   1  112.54    7.25
   1   6   1  111.33    6.52
  -1   6  -1   70.64    5.30
  -1   6  -1   97.24    6.35
  -1   6  -1  106.33    5.92
   1  -6   1  106.20    6.58
  -2   6  -1    5.18    2.33
  -2   6  -1    5.19    2.31
  -2   7   1  168.26    9.66
  -2   7   1  179.56    7.97
   2  -7  -1  164.55   10.54
  -2   7   1  186.62    9.97
  -2   7   1  169.96    9.29
  -1  -7   1 1845.39   27.78
  -1  -7   1 1920.32   24.14
   1   7  -1 1983.06   33.46
   1  -7  -1 1867.17   32.79
  -1   7   1 1868.34   28.70
   1   7  -1 1874.19   32.13
   1  -7  -1 1872.48   30.29
  -1   7   1 1866.21   28.28
   1  -7  -1 1874.35   24.52
  -1   7   1 1885.17   27.63
   1   7  -1 1968.56   30.91
   1   7  -1 1919.79   27.44
  -1   7   1 1960.34   22.72
  -1   7   1 1897.20   27.72
   0   7  -1   63.88    4.99
   0  -7  -1   69.35    4.28
   0   7  -1   76.64    5.39
   0  -7   1   74.77    5.63
   0  -7  -1   74.64    5.59
   0  -7  -1   72.14    4.87
   0  -7   1   75.42    6.18
   0  -7   1   70.32    4.64
   0   7   1   73.01    5.08
   0   7   1   75.91    5.46
   0   7  -1   72.27    5.79
   0   7  -1   77.72    6.04
   0  -7   1   77.22    5.54
   0   7  -1   74.66    5.09
   0   7   1   75.74    5.95
   0   7   1   76.07    5.92
   0  -7   1   68.69    4.34
   0   7   1   72.27    5.80
   0   7  -1   76.61    5.20
  -1   7  -1  139.40    7.84
   1  -7   1  146.50    7.27
  -1   7  -1  138.17    7.56
   1   7   1  136.69    8.98
  -1   7  -1  140.20    7.81
   1   7   1  131.62    7.49
  -1   7  -1  135.29    6.74
  -1   7  -1  143.54    6.82
   1  -7   1  126.38    7.81
   1   7   1  133.33    8.38
  -1   7  -1  139.29    7.22
  -1  -7  -1  151.06    7.89
   1   7   1  134.46    8.32
  -1  -7  -1  150.05    6.66
   1  -7   1  127.80    8.47
  -2   7  -1  147.72    7.78
  -2   7  -1  167.79    9.43
  -2   7  -1  153.28    8.04
  -2   7  -1  162.84    9.79
  -2   8   1  513.21   17.58
   2  -8  -1  480.53   19.11
  -2   8   1  487.56   16.48
  -2   8   1  529.88   14.60
  -2   8   1  533.54   17.44
   2  -8  -1  488.36   20.88
   1  -8  -1    2.62    2.89
  -1  -8   1    2.31    2.44
  -1   8   1    3.27    1.81
  -1   8   1    0.30    1.86
  -1   8   1   -1.07    2.24
   1   8  -1    5.75    2.78
  -1   8   1   -0.22    1.86
   1   8  -1    2.68    2.83
   1   8  -1    3.99    2.39
   1  -8  -1    0.84    1.57
   1  -8  -1    4.78    3.34
  -1  -8   1   -1.69    1.86
   1   8  -1    1.26    1.94
   1  -8  -1    0.42    1.74
  -1   8   1   -2.89    2.09
   0   8  -1 3505.04   42.31
   0  -8   1 3564.23   33.09
   0   8   1 3369.69   38.53
   0   8  -1 3450.71   37.60
   0   8   1 3570.14   43.42
   0  -8   1 3567.72   33.76
   0   8  -1 3544.70   42.96
   0  -8   1 3557.59   40.76
   0  -8  -1 3515.54   33.12
   0   8   1 3602.50   43.27
   0  -8  -1 3561.32   42.62
   0   8  -1 3405.76   36.75
   0   8   1 3562.59   38.42
   0  -8  -1 3527.27   35.30
   0  -8  -1 3566.70   40.16
   0   8  -1 3488.29   38.29
   0   8  -1 3580.65   37.85
   0   8   1 3511.88   42.85
   0  -8   1 3514.24   43.03
   0  -8   1 3457.86   39.31
  -1   8  -1   29.61    3.99
   1   8   1   31.76    4.78
   1   8   1   40.11    4.91
  -1   8  -1   25.22    4.03
   1   8   1   34.32    5.01
   1  -8   1   37.89    5.45
   1  -8   1   33.34    4.88
  -1  -8  -1   27.36    3.90
  -1   8  -1   33.02    3.87
   1  -8   1   39.32    5.43
   1   8   1   34.04    4.90
  -1   8  -1   34.04    4.06
  -1   8  -1   36.90    4.60
  -1   8  -1   34.07    3.76
   1  -8   1   29.67    3.60
  -2   8  -1   92.21    7.69
  -2   8  -1   91.40    6.33
   2  -8   1   88.26    7.97
  -2   8  -1   81.74    6.62
  -2   8  -1   85.02    7.10
  -2   9   1   20.28    4.31
   2  -9  -1   16.16    5.17
   2  -9  -1   21.31    5.68
  -2   9   1   16.07    4.12
  -2   9   1   21.62    4.16
  -1   9   1  369.16   14.72
  -1   9   1  360.51   14.47
   1   9  -1  377.01   16.62
   1  -9  -1  383.60   17.18
  -1   9   1  374.18   14.53
  -1  -9   1  388.34   14.48
   1   9  -1  356.28   14.05
   1  -9  -1  363.49   15.52
   1   9  -1  391.39   17.17
   0   9   1   87.33    7.52
   0  -9   1   82.38    7.08
   0   9  -1   80.14    6.19
   0   9  -1   79.49    7.28
   0   9   1   79.37    7.28
   0   9   1   75.60    7.08
   0  -9   1   75.68    6.57
   0  -9  -1   83.92    7.41
   0  -9  -1   80.22    6.64
   0   9  -1   78.59    7.31
   0  -9   1   76.57    7.33
  -1   9  -1  420.65   15.84
   1   9   1  433.23   18.02
   1   9   1  394.31   16.48
  -1  -9  -1  393.69   14.20
  -1   9  -1  412.11   13.56
   1   9   1  419.94   16.72
  -1   9  -1  435.05   15.64
   1  -9   1  374.78   14.94
   1  -9   1  407.52   16.59
   1   9   1  393.06   14.58
   2  -9   1   92.35    9.15
  -2   9  -1   82.36    7.52
  -2   9  -1   85.77    7.82
   2  -9   1   76.98    8.19
  -2  10   1   44.33    6.18
   2 -10  -1   39.33    7.82
   2 -10  -1   40.75    7.36
  -2  10   1   39.38    5.67
  -2  10   1   43.47    5.74
  -1  10   1   87.78    7.69
   1  10  -1  103.81    9.74
  -1  10   1   96.58    8.13
  -1  10   1   88.02    7.94
   1  10  -1   87.57    8.61
   1 -10  -1   78.42    8.30
   1 -10  -1   87.87    8.01
  -1 -10   1   87.65    7.63
   1 -10  -1  103.65    9.49
   0 -10  -1   40.74    5.99
   0  10   1   47.14    6.16
   0 -10   1   57.39    7.12
   0  10  -1   46.36    6.14
   0  10   1   43.38    6.14
   0  10   1   48.64    6.26
   0  10  -1   46.51    6.44
   0 -10  -1   44.43    6.60
   0 -10  -1   51.20    5.90
   0 -10   1   41.26    5.59
   1 -10   1    6.19    3.40
  -1  10  -1   -2.64    2.88
   1  10   1    6.21    3.74
   1 -10   1    5.95    4.41
   1  10   1    0.09    3.20
   1  10   1    7.91    3.78
  -1  10  -1    3.29    2.90
  -1 -10  -1    5.04    3.07
   2 -10   1    3.70    5.13
  -2  10  -1    5.23    2.80
   2 -10   1    1.53    3.21
  -2  10  -1    4.79    3.44
   2 -11  -1   81.64   10.59
  -2  11   1   75.13    8.18
  -2  11   1   81.10    8.69
  -2  11   1   72.11    8.01
   2 -11  -1   78.86    9.61
  -1 -11   1   40.81    6.09
   1 -11  -1   48.50    8.10
  -1  11   1   29.51    5.60
  -1  11   1   42.59    6.12
   1  11  -1   42.62    6.70
   1 -11  -1   42.89    6.85
   1  11  -1   37.68    6.93
   1 -11  -1   33.56    5.82
  -1  11   1   38.70    6.21
   0 -11  -1    4.74    3.36
   0  11   1   -4.94    3.77
   0  11   1    0.47    3.05
   0  11   1    0.43    2.65
   0 -11  -1    1.00    4.61
   0 -11   1    3.51    5.72
   0  11  -1   -3.46    3.68
   0  11  -1    4.30    4.01
   0 -11  -1   -0.13    3.15
   1  11   1    3.98    3.00
   1 -11   1   -1.97    3.78
  -1  11  -1    2.86    2.82
  -1 -11  -1    0.76    2.75
   1  11   1   -4.21    4.39
  -1  11  -1   -1.04    2.96
   1  11   1    1.40    3.71
   1 -11   1    7.19    3.95
   2 -11   1   13.05    5.08
  -2  11  -1   22.19    7.19
  -2  12   1  141.75   11.51
  -2  12   1  153.66   12.26
  -2  12   1  137.22   11.55
   2 -12  -1  125.88   13.01
   1 -12  -1   25.99    6.06
  -1  12   1   35.54    6.64
  -1 -12   1   31.83    6.04
   1 -12  -1   23.85    6.99
   1  12  -1   42.77    8.00
  -1  12   1   32.49    5.97
  -1 -12   1   26.80    5.88
   1  12  -1   37.68    7.24
  -1  12   1   32.72    5.92
   1 -12  -1   31.62    5.93
   0 -12   1  149.87   10.94
   0  12   1  135.59   11.78
   0 -12   1  153.18   12.14
   0  12  -1  148.41   11.81
   0 -12  -1  154.71   13.47
   0 -12  -1  136.83   10.29
   0  12  -1  159.14   12.47
   0  12   1  143.09   11.52
   0 -12  -1  145.09   11.80
   0  12   1  150.50   12.45
  -1  12  -1   28.29    6.09
   1  12   1   17.27    5.91
   1 -12   1   18.61    6.19
  -1  12  -1   17.25    5.33
   1  12   1   20.34    5.31
   1  12   1   17.63    5.68
   1 -12   1   17.30    4.99
  -2  12  -1  143.19   11.87
  -2  12  -1  140.34   11.07
   2 -12   1  134.50   13.37
  -2  13   1   -1.73    4.05
  -2  13   1    1.42    4.33
  -2  13   1   -2.93    3.97
   2 -13  -1    9.62    5.41
   2 -13  -1    8.57    5.75
   1 -13  -1   71.61    9.78
  -1  13   1   83.98    9.69
   1  13  -1   60.19    9.08
  -1 -13   1   73.95    9.48
   1  13  -1   75.06   10.72
  -1  13   1   57.76    8.21
   1 -13  -1   65.90   10.41
  -1 -13   1   65.33    8.32
   1 -13  -1   70.22    9.00
  -1  13   1   66.66    8.85
   0  13  -1    7.07    4.47
   0 -13   1   -1.05    4.17
   0 -13  -1    3.77    4.86
   0 -13   1    1.46    3.64
   0  13   1    4.82    4.32
   0 -13  -1    0.40    3.34
   0  13   1   -4.58    4.61
   0 -13  -1    4.81    5.08
   0  13  -1   -2.91    4.27
   0  13   1    7.46    4.55
   1  13   1  113.74   11.27
  -1  13  -1  139.67   12.40
  -1 -13  -1  128.28   12.26
   1 -13   1  128.02   11.02
   1 -13   1  133.35   12.96
   1  13   1  136.94   13.49
  -1  13  -1  145.26   12.61
   1  13   1  131.83   13.09
  -2  13  -1   35.27    7.04
   2 -13   1   54.23    9.83
  -2  13  -1   42.59    7.58
  -2  14   1   32.45    7.34
   2 -14  -1   37.99    9.46
  -2  14   1   11.63    5.14
   2 -14  -1   37.90    8.22
  -1 -14   1  187.19   15.12
   1 -14  -1  201.96   17.82
  -1  14   1  176.12   15.13
  -1  14   1  198.49   15.39
   1 -14  -1  178.25   15.61
   1 -14  -1  160.91   13.66
   1  14  -1  148.01   14.39
  -1  14   1  197.76   15.69
  -1 -14   1  160.28   13.08
   0 -14   1   39.63    7.65
   0 -14  -1   -8.27    8.16
   0 -14  -1   -7.64    8.52
   0 -14   1   47.45    7.56
   0  14   1  -28.82   10.17
   0  14  -1   41.84    8.32
   0  14   1  -16.11    9.73
   0  14   1   32.43    7.09
   0  14  -1   45.03    8.69
   0 -14  -1   41.52    8.81
   1 -14   1    9.73    6.46
  -1  14  -1    3.08    5.13
  -1 -14  -1    5.00    5.51
   1 -14   1    1.91    4.01
   1  14   1    7.16    6.17
  -1 -14  -1   -1.12    5.79
  -1  14  -1    8.07    5.36
  -2  14  -1    2.39    4.42
  -2  14  -1   -0.38    4.05
   2 -14   1   -3.95    6.21
   2 -15  -1   10.20    5.96
  -2  15   1   12.65    6.07
  -2  15   1    7.16    5.29
   1  15  -1   38.41    8.81
   1 -15  -1    6.07    6.11
  -1  15   1   22.01    7.57
  -1  15   1   19.42    6.41
   1 -15  -1   16.66    6.00
   1 -15  -1   -2.04    7.78
  -1  15   1   30.73    8.48
   0 -15   1   -4.34    5.56
   0 -15  -1   -4.17    7.03
   0  15  -1   -5.54    6.53
   0  15   1   -0.17    5.58
   0 -15   1    7.88    6.63
   0  15   1    9.55    5.54
   0 -15  -1   -6.88    5.12
   0  15   1   11.47    6.68
   0 -15  -1  -11.46    6.53
  -1  15  -1   42.36    8.41
   1 -15   1   28.03    6.86
  -2  15  -1   25.99    7.02
  -1  16   1   23.78    8.50
   0  16   1   31.06    9.32
   0  16   1   34.11    8.23
  -1   0   2  257.41    8.94
   1   0  -2  281.43   10.24
  -1   0   2  284.23    8.20
  -1   0   2  274.34    8.55
   1   0  -2  272.97   10.05
   1   0  -2  263.08    9.17
   0   0   2 1211.26   13.31
   0   0   2 1222.59   16.66
   0   0  -2 1154.10   17.79
   0   0  -2 1181.99   12.84
   0   0  -2 1187.18   16.19
   0   0   2 1131.67   17.82
   0   0  -2 1189.11   16.44
   0   0  -2 1168.57   17.35
   0   0   2 1203.03   16.14
  -1   0  -2  421.24   10.73
   1   0   2  453.03   12.06
  -1   0  -2  459.49   11.83
   1   0   2  458.64   11.35
   1   0   2  456.45   11.80
   1  -1  -2 3958.02   34.71
   1  -1  -2 3932.39   35.04
  -1   1   2 3953.09   34.67
   1  -1  -2 3866.96   37.03
  -1   1   2 3964.95   33.62
  -1  -1   2 3885.48   33.43
   1   1  -2 3917.11   35.20
  -1  -1   2 4013.58   35.39
  -1  -1   2 3847.13   31.70
  -1   1   2 3929.44   28.27
  -1   1   2 3953.95   29.63
   1   1  -2 3845.81   39.57
   1   1  -2 4012.13   36.89
  -1   1   2 3860.18   28.09
   1   1  -2 3878.97   39.08
   0  -1  -2  540.11   11.06
   0  -1   2  579.68   10.88
   0  -1  -2  562.04   12.39
   0  -1  -2  576.00   10.61
   0   1   2  569.80   10.48
   0  -1  -2  576.57   10.29
   0  -1   2  583.44   12.77
   0   1  -2  550.78   11.68
   0   1   2  566.78   12.71
   0  -1  -2  560.46   12.01
   0   1  -2  583.90   12.71
   0   1  -2  560.19   10.74
   0   1   2  564.80   10.31
   0  -1   2  560.23   11.52
   0   1   2  576.33   12.11
   0   1  -2  561.23   12.70
   0   1   2  543.05    9.69
   0   1  -2  563.75   10.22
   0  -1   2  534.38   10.21
  -1  -1  -2  902.63   15.00
  -1   1  -2  903.31   16.18
   1  -1   2  909.56   14.88
   1   1   2  895.78   16.92
  -1  -1  -2  882.70   16.47
   1  -1   2  896.75   16.91
  -1   1  -2  918.61   16.57
   1   1   2  892.31   16.76
   1  -1   2  896.67   17.02
  -1   1  -2  898.49   14.87
  -1   1  -2  868.05   17.06
  -1  -1  -2  893.93   16.31
  -1   2   2  801.84   15.93
  -1  -2   2  828.62   14.36
  -1   2   2  757.88   15.34
  -1  -2   2  811.01   15.30
   1  -2  -2  800.68   15.87
   1  -2  -2  820.94   16.86
   1   2  -2  808.22   17.86
  -1   2   2  800.37   14.09
   1   2  -2  786.02   16.21
  -1  -2   2  813.04   16.48
   1   2  -2  772.39   17.10
  -1   2   2  824.60   11.79
   1  -2  -2  789.80   16.72
   1  -2  -2  843.20   14.70
   1   2  -2  845.30   19.37
  -1   2   2  813.91   14.18
   0   2  -2   97.18    5.23
   0   2   2   89.32    5.16
   0  -2   2  105.75    4.46
   0  -2   2   98.52    5.40
   0   2   2   96.18    4.13
   0  -2  -2   94.78    4.06
   0   2   2  105.98    5.50
   0   2  -2  101.57    5.35
   0   2   2   98.54    4.66
   0  -2  -2   94.24    4.35
   0  -2  -2   92.76    5.26
   0   2   2   88.32    4.67
   0  -2   2   93.35    5.05
   0   2  -2   92.03    4.79
   0  -2  -2   97.47    4.78
   0   2  -2   87.47    5.40
   0  -2  -2   97.01    5.25
   0  -2   2   98.73    4.96
   0   2  -2  100.88    4.23
  -1   2  -2   61.48    4.45
   1  -2   2   58.58    3.61
   1   2   2   52.65    4.60
  -1   2  -2   57.32    4.18
  -1   2  -2   61.47    4.43
   1  -2   2   58.02    4.59
   1  -2   2   64.77    4.78
  -1  -2  -2   56.97    4.33
  -1  -2  -2   52.53    4.18
   1   2   2   57.26    4.33
   1   2   2   54.57    4.11
   1  -2   2   55.39    4.37
  -1   2  -2   61.54    4.75
   1   3  -2   21.73    3.05
   1  -3  -2   21.93    3.53
  -1  -3   2   24.20    2.98
   1   3  -2   19.73    3.10
   1  -3  -2   22.85    2.30
   1   3  -2   20.64    3.54
  -1  -3   2   18.88    2.60
  -1   3   2   20.20    2.89
  -1   3   2   20.61    2.58
  -1   3   2   22.45    1.85
  -1  -3   2   23.43    3.24
  -1   3   2   22.92    2.80
  -1   3   2   24.31    3.04
   1   3  -2   18.98    3.09
   1  -3  -2   21.69    2.94
   0   3   2  678.56   14.19
   0   3   2  691.90   14.99
   0   3   2  696.19   10.87
   0   3  -2  693.48   14.07
   0   3  -2  666.17   15.37
   0   3  -2  697.85   14.23
   0  -3   2  699.70   14.25
   0   3   2  724.85   14.55
   0  -3   2  686.38   13.97
   0   3  -2  695.67   11.46
   0  -3   2  706.95   14.12
   0   3   2  696.77   13.76
   0  -3  -2  693.41   13.80
   0  -3  -2  685.58   11.42
   0  -3  -2  642.65   13.47
   0  -3  -2  684.59   14.72
   0   3  -2  672.76   10.09
   0   3  -2  685.92   14.62
   0  -3   2  698.88   12.08
   1  -3   2   25.04    3.08
   1   3   2   22.91    2.92
  -1   3  -2   22.89    2.47
   1  -3   2   25.74    2.22
   1   3   2   21.70    3.13
   1   3   2   20.02    2.73
   1  -3   2   21.03    2.88
  -1   3  -2   24.74    3.12
  -1   3  -2   25.66    3.50
   1  -3   2   22.40    3.26
  -1   3  -2   23.33    2.98
  -1   3  -2   24.46    3.17
  -1  -3  -2   24.49    3.15
  -2   4   2   43.63    4.48
  -1  -4   2  311.02   10.16
  -1   4   2  313.34    8.37
   1   4  -2  298.59   11.32
   1   4  -2  283.79   10.27
   1   4  -2  297.86   12.44
  -1   4   2  285.73   10.33
  -1   4   2  286.56   10.14
  -1   4   2  300.94    5.67
   1  -4  -2  290.33    9.73
  -1  -4   2  306.83    9.97
   1   4  -2  293.29   11.64
  -1   4   2  309.05   10.08
   1   4  -2  291.11   10.73
  -1  -4   2  299.33   10.97
   1  -4  -2  285.87   11.79
  -1   4   2  317.36   10.58
   1  -4  -2  312.20   10.22
   0  -4   2   61.50    4.74
   0   4   2   71.03    4.47
   0   4   2   62.10    5.00
   0  -4  -2   64.70    4.41
   0   4  -2   62.55    4.42
   0   4  -2   61.60    4.75
   0  -4   2   59.06    4.29
   0  -4   2   63.84    4.63
   0   4   2   66.31    4.70
   0   4   2   62.69    4.80
   0   4  -2   62.37    4.78
   0   4   2   60.59    4.90
   0   4  -2   62.93    5.30
   0  -4  -2   61.38    5.12
   0  -4  -2   62.18    4.75
   0   4  -2   58.10    4.05
   0  -4   2   69.22    4.52
  -1   4  -2  162.75    6.96
   1   4   2  162.87    8.52
  -1   4  -2  159.90    7.52
   1  -4   2  159.16    7.89
   1   4   2  163.72    7.49
   1  -4   2  162.27    7.34
   1   4   2  154.22    7.71
  -1  -4  -2  162.60    7.78
  -1   4  -2  172.87    8.30
   1  -4   2  155.66    8.11
  -1   4  -2  166.79    7.82
  -1   4  -2  143.90    7.00
   1   4   2  160.07    8.29
  -2   5   2  170.61    8.27
  -2   5   2  147.17    8.01
  -2   5   2  160.03    8.74
  -2   5   2  165.87   10.03
   1   5  -2 1826.07   31.46
  -1  -5   2 1874.03   26.49
  -1   5   2 1750.47   25.63
  -1   5   2 1885.20   22.84
   1   5  -2 1862.50   26.73
  -1   5   2 1796.35   27.02
  -1   5   2 1790.91   26.93
   1  -5  -2 1882.06   31.35
   1   5  -2 1816.74   29.77
   1  -5  -2 1766.95   23.58
   1  -5  -2 1872.07   26.42
  -1   5   2 1836.72   26.13
  -1  -5   2 1733.91   24.89
   1   5  -2 1624.91   28.69
   1   5  -2 1853.86   28.42
   0  -5   2  113.47    6.79
   0  -5   2  102.37    5.97
   0   5   2  110.96    6.73
   0  -5  -2  114.92    5.87
   0   5  -2  106.79    5.71
   0  -5  -2  112.85    6.69
   0   5   2  110.84    6.81
   0  -5   2  108.52    6.39
   0  -5   2  111.84    5.88
   0   5   2  112.62    6.00
   0   5  -2  117.51    6.96
   0   5  -2  117.33    6.83
   0   5   2  120.76    6.34
   0  -5  -2  121.05    6.79
   0   5  -2  116.34    7.17
   0   5   2  113.29    6.71
   0   5  -2  113.87    6.17
  -1   5  -2  689.84   15.26
   1   5   2  676.02   18.10
   1   5   2  666.05   17.19
   1   5   2  725.38   16.40
   1  -5   2  716.97   15.34
  -1   5  -2  677.94   16.51
   1   5   2  693.05   18.31
  -1   5  -2  711.01   17.51
  -1  -5  -2  710.50   16.67
  -1  -5  -2  684.85   16.37
  -1   5  -2  676.33   15.96
   1  -5   2  682.65   17.76
   1  -5   2  716.68   17.76
  -2   6   2  105.29    6.75
  -2   6   2   89.54    6.75
  -2   6   2  103.22    7.60
   2  -6  -2   99.74    7.27
   2  -6  -2  101.20    9.41
  -2   6   2  113.32    8.61
  -1   6   2 2203.27   27.48
   1  -6  -2 2301.35   26.25
  -1  -6   2 2219.62   29.08
   1   6  -2 2239.69   29.20
  -1   6   2 2225.44   32.00
   1  -6  -2 2170.45   30.43
  -1  -6   2 2223.32   30.81
   1   6  -2 2249.68   35.21
  -1   6   2 2251.23   32.12
  -1   6   2 2156.68   30.23
  -1   6   2 2281.17   31.52
   1  -6  -2 2276.51   36.78
   1   6  -2 2163.18   35.83
   1   6  -2 2163.31   33.41
   1   6  -2 2313.62   36.05
   0  -6   2  189.10    9.27
   0   6   2  191.59    9.07
   0   6   2  183.29    7.78
   0   6   2  191.77    9.37
   0   6  -2  179.23    7.50
   0   6  -2  194.29    9.52
   0   6   2  190.71    9.27
   0  -6   2  192.90    8.52
   0   6  -2  189.65    9.12
   0   6   2  192.52    9.54
   0  -6  -2  187.50    8.93
   0   6  -2  197.91    9.86
   0   6  -2  193.85    8.72
   0  -6  -2  185.07    7.45
   0  -6  -2  191.30    9.12
   0  -6   2  191.75    7.75
   0  -6   2  194.21    9.00
   0  -6  -2  195.36    8.50
  -1   6  -2   53.08    4.68
   1  -6   2   72.11    6.33
   1   6   2   57.28    4.78
   1   6   2   52.26    5.34
  -1   6  -2   53.16    4.73
   1   6   2   61.70    5.76
   1   6   2   63.24    6.00
  -1   6  -2   62.80    5.58
  -1  -6  -2   59.81    5.13
  -1   6  -2   61.88    5.44
  -1  -6  -2   67.75    5.63
  -2   6  -2  542.86   17.04
  -2   6  -2  507.53   15.75
  -2   6  -2  509.64   17.21
  -2   7   2   63.50    5.60
  -2   7   2   68.07    7.28
   2  -7  -2   58.82    8.04
  -2   7   2   57.64    5.72
  -2   7   2   58.71    6.05
  -1  -7   2 1274.41   25.00
  -1   7   2 1343.94   23.65
   1   7  -2 1250.66   27.29
   1  -7  -2 1349.40   25.86
  -1   7   2 1318.72   25.72
  -1   7   2 1310.16   26.30
  -1   7   2 1356.33   25.84
   1   7  -2 1248.65   28.14
  -1  -7   2 1280.56   22.91
   1   7  -2 1327.84   28.85
   1   7  -2 1373.56   29.55
   1  -7  -2 1305.37   25.41
   1  -7  -2 1308.74   29.81
   0   7  -2  158.34    9.23
   0   7   2  162.94    9.08
   0   7   2  160.18    9.31
   0  -7  -2  147.05    8.16
   0  -7   2  164.94    8.31
   0   7   2  161.37    9.37
   0  -7  -2  157.38    8.43
   0   7  -2  165.65    9.04
   0   7  -2  155.64    8.71
   0   7  -2  155.37    9.21
   0  -7  -2  172.37    9.23
   0   7   2  159.43    9.46
   0  -7   2  155.45    8.82
   0  -7   2  153.57    8.93
  -1   7  -2  188.13    9.39
   1   7   2  172.94   10.13
   1  -7   2  198.54    9.84
   1  -7   2  189.99   10.59
  -1  -7  -2  201.74    9.91
  -1   7  -2  181.63    9.15
  -1   7  -2  182.63    9.77
   1   7   2  197.66   11.04
  -1   7  -2  191.53    9.90
  -1  -7  -2  168.30    9.37
   1   7   2  177.12   10.17
   1  -7   2  148.91    9.22
  -2   7  -2  426.86   15.86
  -2   7  -2  439.41   15.30
  -2   7  -2  418.94   16.11
   2  -7   2  406.75   17.18
  -2   8   2   15.57    3.57
  -2   8   2   12.81    3.79
  -2   8   2   10.09    3.27
   2  -8  -2   13.62    5.22
  -2   8   2   17.70    3.73
  -1  -8   2  225.76   11.13
   1   8  -2  214.28   12.24
  -1   8   2  218.97   10.36
   1   8  -2  210.82   12.26
   1   8  -2  220.76   12.62
  -1   8   2  232.43   11.72
  -1   8   2  245.88   11.88
  -1  -8   2  246.37   10.57
   1  -8  -2  230.19   13.63
   1   8  -2  230.96   12.97
   1  -8  -2  230.41   11.29
  -1   8   2  212.60   11.27
   1  -8  -2  230.67   11.60
   0   8   2  238.35   12.26
   0   8   2  244.83   11.97
   0  -8   2  241.23   10.58
   0   8  -2  240.69   11.69
   0   8  -2  202.38   11.36
   0   8  -2  245.31   12.12
   0  -8  -2  259.57   12.02
   0   8   2  243.83   12.24
   0   8   2  229.57   11.54
   0  -8  -2  244.07   10.97
   0   8  -2  253.33   11.69
   0  -8   2  252.73   12.05
   0  -8   2  238.01   11.82
   0  -8  -2  266.56   11.61
   1  -8   2   37.24    5.64
  -1   8  -2   27.71    4.32
   1   8   2   29.57    4.79
  -1   8  -2   34.06    4.54
   1   8   2   21.61    4.50
   1   8   2   33.75    5.24
   1  -8   2   35.68    4.95
  -1  -8  -2   30.42    4.39
  -1   8  -2   32.07    4.61
  -1   8  -2   28.57    4.59
   1  -8   2   31.32    5.00
  -2   8  -2  121.34    9.06
  -2   8  -2  116.59    9.14
  -2   8  -2  110.55    8.05
   2  -8   2  103.67    9.27
  -2   9   2   29.37    5.23
  -2   9   2   21.62    4.15
  -2   9   2   16.78    3.88
   2  -9  -2   24.13    7.03
   2  -9  -2   15.24    4.48
   1  -9  -2   39.47    5.92
  -1  -9   2   35.11    4.42
  -1   9   2   39.06    5.00
   1   9  -2   39.01    6.26
   1   9  -2   37.79    6.32
   1   9  -2   30.85    5.23
  -1  -9   2   40.17    5.56
  -1   9   2   31.35    5.05
  -1   9   2   36.10    5.44
  -1   9   2   32.95    4.77
   1  -9  -2   46.25    6.17
   1   9  -2   35.63    5.87
   1  -9  -2   31.26    6.47
   1  -9  -2   35.06    5.37
   0  -9   2   -2.30    3.07
   0  -9  -2   -3.02    2.76
   0   9  -2   -1.35    2.77
   0   9  -2   -0.99    2.83
   0   9   2    2.85    2.49
   0   9  -2   -0.48    2.70
   0   9   2    2.16    2.97
   0  -9  -2    2.72    3.00
   0   9   2    6.23    3.85
   0   9  -2    1.15    2.79
   0  -9   2    0.54    2.68
   0  -9  -2    0.47    2.70
   0   9   2   -2.96    2.80
   0  -9   2   -6.02    3.72
   1  -9   2   36.42    5.64
  -1   9  -2   44.93    5.77
   1   9   2   40.43    5.90
   1  -9   2   41.96    6.32
   1   9   2   46.27    6.57
  -1   9  -2   41.58    5.30
   1   9   2   34.64    5.70
   1  -9   2   46.79    5.55
  -1  -9  -2   45.79    5.74
  -1   9  -2   35.41    5.35
  -1   9  -2   38.21    5.22
   2  -9   2    3.33    3.91
  -2   9  -2    1.30    2.64
  -2   9  -2    4.01    2.79
  -2   9  -2    5.89    3.39
   2 -10  -2    0.13    5.33
  -2  10   2    2.18    3.15
  -2  10   2    2.07    3.43
   2 -10  -2   12.67    5.21
  -2  10   2   11.34    4.16
  -1 -10   2  780.69   23.34
  -1  10   2  705.36   21.83
   1  10  -2  705.23   25.32
   1 -10  -2  827.65   28.25
   1  10  -2  877.20   26.84
  -1  10   2  817.93   24.58
   1 -10  -2  833.96   22.51
   1 -10  -2  807.54   24.41
  -1  10   2  730.95   23.33
   1 -10  -2  833.87   25.00
   1  10  -2  816.48   27.21
   0 -10   2   26.42    5.03
   0 -10  -2   21.29    4.43
   0  10  -2   30.19    5.36
   0 -10   2   26.52    5.05
   0  10  -2   20.54    4.88
   0  10   2   35.58    5.67
   0 -10  -2   27.59    5.13
   0  10  -2   24.95    5.05
   0  10   2   27.38    5.40
   0  10   2   23.99    4.96
   0  10   2   33.99    5.78
   0 -10  -2   19.24    5.73
   0 -10  -2   24.75    4.33
   1 -10   2    2.19    3.49
  -1  10  -2    0.32    3.07
   1  10   2    0.96    3.32
   1  10   2    0.29    3.91
   1  10   2   -1.56    3.12
  -1 -10  -2    4.09    3.65
  -1  10  -2    0.11    2.77
  -1  10  -2   -3.60    4.10
   1 -10   2    4.47    3.77
  -2  10  -2  229.48   13.60
  -2  10  -2  245.79   14.22
   2 -10   2  205.36   13.88
  -2  11   2  130.52   10.51
  -2  11   2  119.35   10.14
   2 -11  -2  131.04   12.27
   2 -11  -2  122.65   13.32
  -2  11   2  126.39   10.67
  -1 -11   2  656.03   22.77
  -1  11   2  728.63   23.85
   1  11  -2  721.14   27.36
   1  11  -2  687.73   26.72
  -1  11   2  732.48   24.75
   1 -11  -2  690.11   23.96
  -1  11   2  721.92   24.13
   1 -11  -2  676.09   27.61
   1 -11  -2  706.57   25.04
  -1 -11   2  765.69   24.79
   0 -11   2   -2.64    3.61
   0 -11  -2   -5.33    4.76
   0 -11   2   -1.38    3.60
   0  11   2   -1.23    3.78
   0 -11  -2    2.59    4.51
   0  11   2   -7.24    3.41
   0 -11  -2    1.38    3.60
   0  11  -2    2.22    4.09
   0  11   2    0.21    4.03
   0  11  -2   -3.49    3.87
  -1  11  -2  193.28   12.63
   1  11   2  181.13   13.46
   1  11   2  197.39   14.23
  -1  11  -2  205.17   13.72
   1 -11   2  194.07   13.97
   1 -11   2  198.96   13.38
  -2  11  -2  148.19   11.58
  -2  11  -2  153.20   12.02
   2 -11   2  143.20   12.75
  -2  12   2   -5.42    4.64
  -2  12   2    4.03    3.39
   2 -12  -2   10.92    7.07
   2 -12  -2   -0.73    6.05
   2 -12  -2   -1.43    5.34
  -2  12   2   15.62    5.55
   1 -12  -2   64.76    9.16
  -1 -12   2   58.08    8.07
  -1  12   2   82.42    8.99
  -1 -12   2   62.35    8.09
   1  12  -2   71.33    9.80
   1 -12  -2   78.53   10.77
  -1  12   2   62.79    8.23
  -1  12   2   48.56    7.44
   1 -12  -2   64.36    8.50
   1  12  -2   53.41    8.97
   0  12  -2  124.27   11.54
   0  12   2  128.40   11.60
   0  12   2  121.90   11.56
   0  12   2  123.90   11.38
   0 -12  -2  133.56   12.96
   0  12  -2  116.44   11.31
   0 -12  -2  109.66    9.90
   0 -12   2  129.14   11.35
   0 -12  -2  113.24   10.17
   0 -12   2  128.08   11.01
  -1 -12  -2   15.00    5.15
   1 -12   2    9.61    5.21
  -1  12  -2    9.69    4.98
   1 -12   2    5.14    4.52
   1  12   2   15.10    6.31
   1  12   2   15.77    5.64
  -1  12  -2   11.97    4.80
  -2  12  -2  107.06   10.95
  -2  12  -2  104.98   10.59
   2 -12   2  112.26   11.77
  -2  13   2    1.67    3.75
   2 -13  -2   19.21    6.98
   2 -13  -2    7.98    6.35
  -2  13   2   10.83    5.04
  -2  13   2    1.69    4.44
   2 -13  -2    7.27    6.19
  -1 -13   2   53.86    8.41
  -1 -13   2   33.87    6.40
  -1  13   2   31.32    6.21
   1  13  -2   40.72    8.49
   1 -13  -2   38.87    7.71
  -1  13   2   50.28    8.68
   1  13  -2   50.22    9.23
  -1  13   2   42.47    7.97
   1 -13  -2   44.43    9.83
   1 -13  -2   42.28    8.38
   0 -13   2   32.34    7.36
   0 -13  -2   26.41    6.59
   0 -13   2   51.49    8.35
   0  13  -2   41.21    7.83
   0  13   2   41.32    8.21
   0  13   2   34.46    7.09
   0 -13  -2   32.11    6.08
   0 -13  -2   43.55    8.32
   0  13   2   36.02    7.65
   0  13  -2   31.06    6.65
  -1 -13  -2   57.22    7.87
   1 -13   2   56.47    8.47
  -1  13  -2   56.42    8.52
   1  13   2   44.79    9.27
  -1  13  -2   65.43    9.54
   1 -13   2   55.80    9.22
  -2  13  -2  151.03   13.41
  -2  13  -2  157.46   13.71
  -2  14   2    1.89    4.53
  -2  14   2   -1.33    4.67
  -2  14   2    3.55    4.20
   2 -14  -2    4.80    6.45
  -1 -14   2  105.98   11.82
  -1 -14   2   99.26   10.47
  -1  14   2   80.59   10.61
   1  14  -2   86.99   12.38
  -1  14   2   89.23   11.04
   1 -14  -2   89.61   10.43
   1  14  -2  102.53   13.61
   1 -14  -2   82.58   11.26
  -1  14   2   88.72   11.35
   1 -14  -2   99.07   13.66
   0 -14   2   -5.01    5.47
   0 -14  -2   -2.79    4.48
   0 -14   2    2.98    5.51
   0  14  -2   -4.43    5.84
   0  14   2   -6.53    6.41
   0  14   2   -4.69    6.12
   0  14   2    6.64    5.31
   0 -14  -2   -6.99    6.77
   0 -14  -2   12.66    5.60
   0  14  -2   10.08    5.97
   1 -14   2   15.90    6.39
  -1  14  -2   -0.29    4.65
  -1  14  -2    1.50    5.17
   1 -14   2    8.93    6.94
  -2  14  -2   30.63    7.47
  -2  14  -2   34.18    7.50
  -2  15   2   73.39   10.57
  -2  15   2   72.15   10.85
  -2  15   2   88.88   12.01
  -1  15   2   13.07    6.65
  -1  15   2   12.46    6.00
  -1  15   2    7.99    6.63
   1 -15  -2   21.86    8.28
   0 -15  -2    2.98    5.15
   0  15  -2    8.05    6.80
   0  15   2   -2.82    5.33
   0  15   2    5.39    6.41
   0  15   2    9.66    5.74
   0  15  -2    4.46    6.32
  -1  15  -2   75.28   11.51
  -1  15  -2   90.48   12.60
  -2   0   3    0.02    1.76
   2   0  -3   -6.18    4.03
  -2   0   3    2.66    2.10
   2   0  -3   -2.85    3.83
  -1   0   3   -0.40    1.41
   1   0  -3    0.49    2.20
  -1   0   3    0.80    0.92
   1   0  -3   -0.43    1.86
  -1   0   3    1.21    1.43
  -1   0   3    0.80    1.83
  -1   0   3    0.19    0.93
   1   0  -3    0.25    2.40
   0   0  -3    0.35    2.14
   0   0   3   -0.07    1.06
   0   0   3    5.39    2.09
   0   0  -3    1.39    1.41
   0   0   3   -0.28    1.02
   0   0   3   -0.32    1.60
   0   0  -3   -1.30    2.16
   0   0  -3    0.17    1.11
   0   0  -3   -0.33    1.90
   0   0   3    2.33    1.77
   1   0   3    2.13    2.12
  -1   0  -3    0.49    1.38
   1   0   3   -0.12    1.48
   1   0   3    0.59    1.71
  -1   0  -3   -4.93    2.43
  -1   0  -3    0.23    1.54
  -1   0  -3    3.03    2.17
  -1   0  -3   -3.85    2.46
   2  -1  -3  384.28   17.44
   2   1  -3  393.12   17.88
  -2   1   3  399.08   14.74
  -2  -1   3  396.83   14.89
  -2   1   3  377.84   12.12
   2   1  -3  373.24   17.28
   2  -1  -3  382.80   16.51
  -1  -1   3  344.91    9.44
  -1   1   3  317.83    9.64
  -1   1   3  317.75   11.46
  -1  -1   3  319.51   10.78
   1  -1  -3  346.70   13.35
   1   1  -3  342.54   13.83
  -1   1   3  325.18    9.11
  -1  -1   3  321.93   11.87
  -1   1   3  316.75    9.69
  -1  -1   3  312.66   10.61
  -1   1   3  326.49   11.86
   1  -1  -3  302.74   11.64
   1   1  -3  314.68   11.22
   1   1  -3  347.67   12.77
   1   1  -3  315.09   13.06
   1  -1  -3  324.52   11.76
   0  -1  -3    1.61    1.56
   0   1  -3    3.19    2.48
   0  -1   3    1.64    1.31
   0   1  -3    1.86    1.80
   0   1   3    1.88    1.71
   0  -1   3    1.95    1.58
   0  -1  -3    2.48    1.42
   0   1   3    1.49    1.33
   0  -1   3    2.32    1.74
   0  -1  -3    3.81    2.48
   0   1  -3    3.20    2.62
   0   1   3    3.22    1.44
   0   1   3    5.43    2.42
   0  -1  -3    4.37    1.67
   0   1  -3    1.26    1.31
   0   1   3    1.63    1.36
   0   1  -3    6.11    2.48
   0  -1  -3    1.37    1.73
   0  -1   3    0.12    1.73
   1   1   3  104.93    6.75
   1  -1   3  102.23    6.25
  -1  -1  -3   91.66    5.73
  -1  -1  -3  101.18    6.86
   1  -1   3   99.28    6.88
  -1   1  -3   98.45    6.67
  -1   1  -3  102.04    6.47
   1   1   3   98.28    6.78
   1  -1   3  101.69    7.17
   1   1   3   96.02    5.24
  -1   1  -3   95.31    5.65
  -1   1  -3  103.02    7.20
  -1  -1  -3  102.29    6.66
  -2   2   3  342.01   13.74
   2  -2  -3  320.67   15.92
  -2   2   3  333.09   11.81
  -2   2   3  344.26   10.81
  -2   2   3  316.38   13.43
   2  -2  -3  331.43   14.83
   1  -2  -3  619.73   16.14
  -1  -2   3  645.85   14.11
  -1   2   3  647.90   16.65
  -1  -2   3  638.45   15.54
   1  -2  -3  602.16   17.67
   1   2  -3  672.60   19.12
  -1   2   3  624.20   16.67
  -1   2   3  637.54   13.99
  -1  -2   3  641.19   15.72
  -1  -2   3  622.60   16.67
   1  -2  -3  578.88   16.27
   1   2  -3  654.55   19.52
   1   2  -3  607.97   16.07
   1   2  -3  644.96   17.98
  -1   2   3  647.43   13.07
   1  -2  -3  626.67   15.63
  -1   2   3  653.70   14.47
   0   2   3  598.30   13.29
   0   2   3  641.29   16.25
   0  -2   3  633.42   14.23
   0  -2  -3  629.54   16.54
   0   2  -3  601.84   16.38
   0  -2  -3  618.93   14.84
   0   2   3  603.37   13.33
   0   2   3  581.51   16.11
   0  -2   3  617.10   15.46
   0   2  -3  593.56   15.54
   0  -2  -3  618.20   13.61
   0   2   3  624.17   14.41
   0   2  -3  614.12   14.14
   0  -2  -3  583.01   14.04
   0   2  -3  591.44   16.62
   0  -2   3  608.53   16.39
   0   2  -3  614.77   14.07
   0  -2  -3  626.52   16.37
   0  -2   3  612.62   14.20
   1   2   3   43.70    4.84
   1  -2   3   43.79    3.99
  -1  -2  -3   43.13    3.79
  -1  -2  -3   41.73    4.71
  -1   2  -3   47.20    4.93
  -1  -2  -3   46.72    4.63
  -1   2  -3   48.17    4.76
   1  -2   3   47.78    5.26
   1   2   3   44.99    4.89
   1  -2   3   40.88    4.61
  -1   2  -3   42.78    4.12
   1   2   3   43.35    4.02
  -1   2  -3   40.72    4.86
  -2   3   3  923.63   22.51
   2  -3  -3 1004.82   27.21
  -2   3   3 1006.59   24.08
  -2   3   3  993.83   17.35
  -2   3   3 1012.59   21.24
   2  -3  -3  973.05   23.60
  -1  -3   3  853.05   17.58
   1  -3  -3  832.77   19.01
  -1   3   3  827.47   19.42
   1  -3  -3  825.60   20.22
   1   3  -3  843.39   21.77
  -1   3   3  823.07   19.24
  -1   3   3  860.20   14.44
  -1   3   3  833.88   17.23
  -1  -3   3  887.02   19.19
  -1   3   3  820.99   17.37
   1  -3  -3  816.17   20.60
   1   3  -3  846.23   19.99
   1   3  -3  856.53   21.58
   1  -3  -3  829.13   16.84
   1   3  -3  834.22   23.03
  -1  -3   3  797.85   19.13
   0   3   3  159.04    8.53
   0  -3   3  151.67    6.62
   0   3   3  157.50    6.85
   0  -3  -3  149.75    8.39
   0   3  -3  151.49    8.46
   0   3   3  161.89    8.55
   0  -3   3  151.66    8.07
   0   3   3  145.77    7.11
   0  -3   3  149.46    8.28
   0   3  -3  139.38    7.34
   0   3  -3  155.89    8.56
   0   3   3  149.52    7.62
   0  -3  -3  174.93    7.79
   0  -3  -3  146.18    7.54
   0   3  -3  136.26    8.49
   0  -3  -3  161.31    6.74
   0  -3  -3  157.16    8.46
   0  -3   3  156.74    7.89
   1   3   3  173.31    9.63
   1  -3   3  166.30    7.21
  -1  -3  -3  165.85    8.97
  -1  -3  -3  139.05    6.40
  -1   3  -3  171.29    8.89
   1  -3   3  163.26    9.01
  -1   3  -3  165.02    8.75
  -1  -3  -3  169.35    8.91
   1   3   3  149.09    8.64
   1  -3   3  156.08    9.10
   1   3   3  160.36    7.96
  -1   3  -3  151.64    7.94
  -1   3  -3  154.87    9.02
   1  -3   3  153.19    8.63
  -2   4   3   86.53    7.06
   2  -4  -3   96.52    8.41
  -2   4   3   84.38    6.60
  -1  -4   3   88.59    6.29
  -1   4   3   81.69    6.57
   1  -4  -3   76.47    6.16
   1   4  -3   81.58    6.93
  -1   4   3   75.92    5.73
  -1   4   3   79.07    6.20
  -1  -4   3   78.11    6.40
  -1  -4   3   79.74    6.08
   1  -4  -3   86.89    7.41
  -1   4   3   85.47    6.22
   1   4  -3   78.11    6.87
   1   4  -3   78.62    7.10
   1   4  -3   82.23    7.89
   0  -4  -3   29.90    3.91
   0   4   3   33.27    4.35
   0   4  -3   30.27    4.49
   0  -4   3   32.62    4.19
   0   4   3   31.47    4.42
   0   4   3   31.43    3.77
   0  -4   3   31.34    4.00
   0   4  -3   33.20    4.25
   0   4   3   29.28    3.92
   0  -4  -3   24.82    3.51
   0   4  -3   34.86    4.33
   0  -4  -3   33.55    4.50
   0   4  -3   28.27    3.82
   0  -4   3   28.69    4.23
  -1  -4  -3  328.03   12.60
   1   4   3  322.25   13.66
  -1   4  -3  332.05   12.49
   1  -4   3  311.05   12.76
  -1   4  -3  331.34   12.67
   1   4   3  317.36   12.84
   1  -4   3  324.74   12.69
   1   4   3  289.31   11.72
  -1   4  -3  309.64   11.72
  -1   4  -3  304.52   13.13
  -1  -4  -3  337.15   12.76
   1  -4   3  309.86   12.66
  -2   5   3    2.72    2.20
  -2   5   3   -0.56    1.90
   2  -5  -3    1.10    3.42
  -2   5   3   -2.61    2.40
  -1   5   3   93.42    7.13
  -1  -5   3  111.07    7.37
  -1   5   3   96.75    7.49
   1  -5  -3  101.50    7.24
   1   5  -3   97.36    7.75
  -1  -5   3  115.30    7.58
  -1   5   3  105.36    7.04
   1   5  -3  107.39    8.20
  -1   5   3   99.74    6.98
   1   5  -3  108.99    9.45
  -1  -5   3   95.61    7.32
   1   5  -3  114.87    8.94
   1  -5  -3  114.06    8.32
   1  -5  -3  102.78    8.45
   0   5   3  162.32    9.67
   0  -5  -3  160.14    8.65
   0   5  -3  151.66    8.87
   0  -5   3  147.73    8.49
   0   5   3  157.61    8.64
   0  -5   3  154.53    8.54
   0   5  -3  159.62    9.22
   0   5   3  161.92    9.19
   0   5   3  163.50    8.82
   0   5  -3  156.47    8.95
   0   5  -3  149.49    9.69
   0  -5  -3  141.57    8.34
   0  -5  -3  148.73    9.24
   0  -5   3  163.77    9.13
   1  -5   3    8.26    2.97
  -1   5  -3   10.83    2.96
   1   5   3    7.89    3.34
  -1   5  -3   13.55    2.96
   1   5   3    8.18    2.61
   1  -5   3    7.05    2.87
   1   5   3   14.51    3.34
  -1   5  -3   13.35    3.04
   1  -5   3   15.43    3.76
  -1  -5  -3   12.17    3.34
  -1   5  -3    7.69    3.35
  -2   5  -3  328.13   13.72
   2  -5   3  318.01   14.04
  -2   5  -3  356.11   14.15
  -2   6   3   25.23    4.66
  -2   6   3   34.40    4.79
   2  -6  -3   30.08    5.00
   2  -6  -3   39.77    7.27
  -2   6   3   26.78    4.27
  -1  -6   3    4.06    2.42
   1   6  -3   12.33    4.57
  -1  -6   3    4.77    3.00
  -1   6   3    2.85    2.36
  -1  -6   3    0.94    2.13
  -1   6   3   -1.60    2.63
  -1   6   3    8.10    2.78
   1  -6  -3    1.43    2.55
  -1   6   3    0.32    2.74
   1   6  -3   -1.07    2.80
   1   6  -3    1.05    2.51
   1   6  -3   -1.23    3.21
   1  -6  -3    5.37    3.93
   1  -6  -3    5.40    3.96
   0   6  -3   -6.76    3.87
   0  -6   3   -3.48    2.96
   0   6   3    3.46    4.18
   0  -6   3   -2.51    2.21
   0   6  -3    1.58    2.13
   0   6   3    2.53    2.41
   0   6   3   -0.58    2.29
   0   6  -3    3.06    2.80
   0  -6  -3    3.80    3.45
   0   6  -3   -0.17    2.53
   0  -6  -3    3.84    4.08
   0  -6  -3   -2.88    2.68
   0  -6   3    7.56    3.29
   1  -6   3   11.33    3.90
   1   6   3    2.57    2.92
  -1   6  -3   10.14    2.95
  -1   6  -3   11.18    3.21
   1   6   3    8.66    3.07
   1  -6   3    5.81    2.71
   1   6   3    8.22    3.03
   1   6   3    4.96    2.70
  -1   6  -3   10.39    3.32
   1  -6   3    3.06    2.91
  -1  -6  -3    6.15    2.87
  -1   6  -3   -0.33    3.45
  -2   6  -3  364.83   14.97
   2  -6   3  364.78   15.29
  -2   6  -3  339.64   14.70
  -2   7   3  524.29   19.29
  -2   7   3  540.72   18.23
   2  -7  -3  533.82   23.36
  -2   7   3  506.44   18.09
   1   7  -3   19.75    4.81
  -1  -7   3   18.80    4.12
   1   7  -3   19.36    5.06
  -1  -7   3   29.03    4.85
  -1   7   3   18.69    4.08
  -1   7   3   14.20    3.88
  -1   7   3   19.20    3.85
   1  -7  -3   23.92    6.00
   1  -7  -3   23.09    4.71
   1   7  -3   19.60    4.97
   1  -7  -3   20.07    4.71
   0   7   3  126.94    9.09
   0   7   3  125.84    9.47
   0   7  -3  111.86    8.73
   0  -7   3  100.92    7.71
   0   7   3  118.63    9.11
   0   7  -3  113.13    8.93
   0   7  -3  122.16   10.00
   0  -7  -3  112.14    8.57
   0  -7  -3  113.75    8.53
   0  -7   3  117.81    8.78
   1   7   3   91.28    8.34
   1  -7   3   94.06    8.28
   1   7   3   84.62    7.63
  -1   7  -3   86.31    7.61
  -1   7  -3   93.20    7.97
   1   7   3   78.16    7.77
  -1   7  -3   82.40    7.76
  -1  -7  -3   93.68    7.96
   1  -7   3   78.22    7.64
  -2   7  -3  300.23   14.31
  -2   7  -3  298.95   14.44
  -2   8   3   11.28    4.34
  -2   8   3    1.39    2.71
  -2   8   3   -2.70    3.06
   2  -8  -3    6.58    6.07
   1   8  -3   65.42    7.23
   1   8  -3   47.96    7.56
  -1  -8   3   60.72    6.92
  -1   8   3   62.34    6.96
   1   8  -3   63.83    7.85
  -1   8   3   60.07    6.75
  -1  -8   3   66.30    6.83
  -1   8   3   56.37    6.57
   1  -8  -3   63.11    8.58
   1  -8  -3   61.29    7.61
   1   8  -3   52.30    7.36
   1  -8  -3   64.97    7.81
   0   8   3  140.69   10.25
   0   8   3  134.54   10.06
   0  -8   3  143.65    9.43
   0   8   3  135.23    9.89
   0  -8  -3  151.55   11.31
   0   8  -3  152.88   10.79
   0   8  -3  141.67   10.54
   0   8  -3  154.32   11.41
   0  -8  -3  140.44    9.92
   0  -8  -3  136.46    9.62
   0  -8   3  142.73   10.06
   1   8   3  210.85   12.73
   1  -8   3  223.13   12.30
  -1   8  -3  227.31   12.41
   1   8   3  228.22   13.85
  -1   8  -3  225.78   13.35
  -1   8  -3  227.66   12.81
  -1  -8  -3  256.62   13.36
   1  -8   3  237.21   13.25
   1   8   3  212.64   12.85
  -2   8  -3 1066.16   27.62
  -2   8  -3 1010.80   27.87
  -2   9   3  152.64   11.95
  -2   9   3  141.40   10.53
  -2   9   3  134.45   10.65
   2  -9  -3  151.32   14.10
   2  -9  -3  160.33   12.71
  -1  -9   3  150.85   10.93
   1   9  -3  160.22   12.81
   1   9  -3  145.77   11.07
  -1   9   3  143.66   11.01
  -1  -9   3  159.15   10.29
  -1   9   3  121.55    9.59
  -1   9   3  157.76   11.00
   1  -9  -3  142.99   12.70
   1   9  -3  155.88   12.42
   1  -9  -3  161.11   11.90
   1   9  -3  134.12   11.99
   1  -9  -3  157.26   11.41
  -1  -9   3  157.92   10.59
   0   9   3  224.26   13.58
   0  -9   3  208.46   11.82
   0   9  -3  242.95   14.48
   0   9   3  244.98   14.06
   0  -9  -3  227.99   14.86
   0   9  -3  232.40   14.41
   0   9  -3  247.78   14.06
   0  -9  -3  241.00   13.70
   0  -9  -3  211.80   12.16
   0   9   3  238.63   13.84
   0  -9   3  208.32   12.77
   1  -9   3   19.20    5.15
   1   9   3   14.79    4.84
   1   9   3    9.61    4.32
  -1   9  -3   17.32    4.23
   1   9   3   14.20    4.95
   1  -9   3   11.57    3.67
  -1   9  -3   24.77    5.22
  -1   9  -3   19.82    5.44
  -2   9  -3  546.43   21.45
  -2   9  -3  473.29   19.47
  -2  10   3   13.74    5.19
  -2  10   3    7.29    4.06
  -2  10   3    5.35    3.36
   2 -10  -3   17.48    7.25
   2 -10  -3    7.13    4.73
  -1 -10   3   88.43    9.32
   1  10  -3   89.82    9.15
   1  10  -3   78.96   10.02
  -1  10   3   88.86    9.09
  -1 -10   3   73.78    8.13
  -1  10   3   80.01    8.35
   1  10  -3   91.17   10.17
  -1  10   3   93.61    9.43
   1 -10  -3   79.80   10.05
   1 -10  -3   88.04    9.10
   1  10  -3   79.17    9.66
   1 -10  -3   74.20    8.12
  -1 -10   3   91.79    8.93
   0  10   3  150.73   11.82
   0 -10  -3  137.71   12.63
   0 -10   3  160.39   10.66
   0  10   3  117.49   10.64
   0  10   3  148.58   11.72
   0  10  -3  153.93   12.41
   0 -10  -3  129.81   10.63
   0  10  -3  152.69   12.10
   0 -10  -3  130.60    9.85
   0  10  -3  156.59   12.77
   0 -10   3  142.13   11.37
   1 -10   3   -1.01    4.66
   1  10   3    0.01    4.17
   1  10   3   -3.43    3.65
   1  10   3    6.97    4.01
   1 -10   3    5.70    5.46
  -1  10  -3   -5.47    4.19
  -1  10  -3    2.10    3.30
  -2  10  -3    2.32    3.25
  -2  10  -3    3.88    3.49
  -2  11   3   87.97    9.29
  -2  11   3   90.66    9.59
   2 -11  -3   99.35   13.15
   2 -11  -3   99.53   11.49
   2 -11  -3  109.62   11.69
   1  11  -3  368.38   19.79
  -1  11   3  364.43   18.91
  -1  11   3  326.47   17.60
  -1  11   3  336.38   18.09
   1 -11  -3  318.49   20.23
   1  11  -3  346.05   20.20
   1  11  -3  329.90   19.36
   1 -11  -3  353.00   18.83
   1 -11  -3  341.81   17.49
  -1 -11   3  364.56   18.39
  -1 -11   3  352.31   17.93
   0  11  -3    5.64    4.69
   0  11   3   -0.17    4.26
   0 -11   3    2.47    4.73
   0  11   3    0.48    4.13
   0  11   3    0.05    3.56
   0 -11  -3   -4.91    5.46
   0 -11  -3    5.72    4.06
   0  11  -3    8.67    4.94
   0 -11  -3    2.87    3.71
   1 -11   3   36.59    7.30
   1  11   3   29.82    7.00
   1  11   3   29.94    6.46
   1  11   3   35.97    7.14
  -1  11  -3   36.58    7.31
  -1  11  -3   33.28    7.15
  -2  11  -3   -4.16    4.61
  -2  12   3   49.83    8.12
  -2  12   3   45.56    7.53
   2 -12  -3   39.88    8.75
   2 -12  -3   43.63    9.07
  -1 -12   3    0.63    5.14
  -1 -12   3   13.74    5.81
   1  12  -3   -2.81    4.49
  -1  12   3   12.44    5.65
  -1  12   3    5.10    3.69
   1 -12  -3   -4.41    5.98
   1 -12  -3   -2.22    4.76
   1  12  -3   -1.74    4.80
   0  12   3  177.09   14.30
   0  12   3  141.61   13.19
   0 -12  -3  164.30   14.84
   0  12  -3  156.04   13.88
   0 -12  -3  156.06   12.83
   0 -12   3  166.42   14.08
   0 -12   3  158.65   13.17
   1 -12   3   17.47    6.56
   1  12   3   28.15    7.55
  -1  12  -3   22.57    5.53
  -2  12  -3  152.75   14.22
  -2  13   3   91.72   11.22
  -2  13   3   92.44   11.26
   2 -13  -3   80.82   14.12
   2 -13  -3   87.72   12.64
  -1 -13   3    2.95    4.87
  -1 -13   3    9.89    5.51
  -1  13   3    8.12    4.58
  -1  13   3   15.82    5.84
   1 -13  -3   13.00    7.00
   1 -13  -3    9.03    6.37
   1  13  -3   -0.04    5.73
   0 -13   3   83.02   10.70
   0 -13   3   72.23    9.31
   0  13   3   74.94   10.44
   0 -13  -3   85.33   12.31
   0  13   3  104.59   11.64
   0 -13  -3   90.66   10.42
   0  13  -3   72.52   10.99
   1 -13   3    5.32    5.12
  -1  13  -3    9.30    5.75
  -2  13  -3   81.50   11.35
  -2  14   3   13.90    5.55
  -2  14   3   23.45    6.63
  -1 -14   3   61.11   11.12
  -1  14   3   30.22    7.58
  -1  14   3   41.66    8.21
   1  14  -3   75.76   13.05
   0  14   3   69.78   10.32
   0  14   3   67.14   10.46
   0  14  -3   65.42   11.13
   0 -14   3   67.50   10.77
  -2   0   4   47.01    5.01
   2   0  -4   39.86    6.93
  -2   0   4   43.16    5.81
   2   0  -4   47.83    7.87
  -1   0   4  611.91   17.88
   1   0  -4  614.96   21.26
  -1   0   4  640.96   17.04
  -1   0   4  602.08   18.91
   1   0  -4  608.56   20.22
   1   0  -4  642.82   19.86
   1   0  -4  662.45   20.42
   0   0   4  589.56   17.54
   0   0  -4  594.48   19.64
   0   0   4  582.43   16.79
   0   0   4  565.92   18.61
   0   0  -4  572.74   17.02
   0   0  -4  592.22   18.83
   0   0  -4  574.52   17.47
   1   0   4 1344.70   27.93
   1   0   4 1327.04   26.59
  -1   0  -4 1365.49   28.93
  -1   0  -4 1301.04   25.66
   1   0   4 1182.09   27.72
  -1   0  -4 1243.00   27.64
   2   1  -4  227.05   14.13
  -2   1   4  246.88   12.95
   2  -1  -4  216.76   14.54
   2   1  -4  234.25   15.70
  -2   1   4  247.21   10.54
  -2   1   4  225.21   12.29
  -2  -1   4  221.85   12.40
  -2  -1   4  263.67   12.00
   2  -1  -4  233.10   13.98
   2   1  -4  245.03   15.99
  -1   1   4   17.80    3.41
  -1  -1   4   17.18    3.58
   1  -1  -4   17.95    4.01
   1   1  -4   17.68    4.79
  -1   1   4   13.57    3.07
  -1  -1   4   19.19    3.48
   1   1  -4   15.73    3.94
  -1   1   4   20.62    4.10
  -1  -1   4   21.22    4.15
   1  -1  -4   24.53    5.15
   1   1  -4   19.35    4.51
   1  -1  -4   16.82    3.88
   1   1  -4   20.71    4.29
   1  -1  -4   23.30    4.80
   0   1  -4   56.65    6.53
   0   1   4   61.03    6.13
   0  -1   4   59.50    5.71
   0   1   4   52.02    5.35
   0  -1  -4   45.43    5.76
   0   1  -4   45.94    5.81
   0   1   4   48.87    5.65
   0  -1   4   54.59    6.12
   0   1  -4   52.15    5.47
   0  -1  -4   47.76    4.91
   0   1  -4   53.44    5.58
   0  -1   4   55.88    5.64
   0  -1  -4   52.52    6.02
   0  -1  -4   48.93    5.88
   1   1   4  217.28   10.94
   1  -1   4  233.57   11.01
   1  -1   4  225.00   11.96
  -1  -1  -4  228.12   12.12
  -1   1  -4  228.13   12.18
  -1  -1  -4  214.92   10.06
  -1   1  -4  204.59   10.70
   1   1   4  222.22   12.06
   1  -1   4  219.26   12.36
  -1   1  -4  227.49   12.57
  -1  -1  -4  232.08   12.04
   2   2  -4  126.73   10.71
  -2  -2   4  123.04    9.34
  -2   2   4  124.50    9.07
   2  -2  -4  126.35   11.40
   2   2  -4  129.32   11.91
  -2   2   4  118.09    9.21
  -2   2   4  124.19    7.35
  -2  -2   4  125.57    9.00
   2  -2  -4  119.52    9.70
   2   2  -4  134.67   12.23
  -1   2   4    0.56    1.66
  -1  -2   4   -0.02    2.25
   1  -2  -4    0.09    2.67
   1  -2  -4   -1.92    2.99
   1   2  -4    1.92    4.79
  -1   2   4    2.02    2.87
  -1   2   4    0.01    2.47
  -1  -2   4    2.08    2.46
   1   2  -4   -0.97    2.87
  -1  -2   4    2.17    2.97
   1  -2  -4    0.29    3.53
   1   2  -4   -3.88    3.68
   1   2  -4   -3.22    3.06
   1  -2  -4   -0.09    3.23
   0   2   4  148.40    9.34
   0  -2  -4  161.67   10.61
   0   2  -4  154.61   10.26
   0   2   4  159.30    8.63
   0  -2   4  164.95    9.67
   0   2   4  152.94    9.75
   0   2  -4  139.63    9.05
   0  -2  -4  154.15    8.52
   0  -2  -4  160.91    9.69
   0   2  -4  167.43   10.75
   0  -2  -4  152.02    9.79
   0  -2   4  150.67    9.92
   1   2   4  120.57    8.63
  -1  -2  -4  127.72    9.03
  -1   2  -4  135.48    9.47
   1  -2   4  134.80    9.66
  -1  -2  -4  120.81    7.40
  -1   2  -4  112.69    8.38
   1   2   4  116.03    8.88
   1  -2   4  137.10   10.02
  -1   2  -4  149.68   10.48
  -1  -2  -4  118.29    8.65
  -2  -3   4   48.71    6.28
   2   3  -4   47.81    9.26
  -2  -3   4   45.56    5.36
   2   3  -4   43.56    6.95
  -2   3   4   44.72    5.96
   2  -3  -4   36.57    7.07
  -2   3   4   43.50    6.19
   2   3  -4   50.48    8.96
  -2  -3   4   39.22    5.59
  -1  -3   4   71.70    5.95
   1   3  -4   70.40    9.00
  -1   3   4   59.07    6.36
   1   3  -4   57.92    6.90
  -1  -3   4   59.64    6.28
  -1  -3   4   67.86    6.52
  -1   3   4   60.38    6.29
   1  -3  -4   62.06    7.31
   1   3  -4   68.59    7.96
   1  -3  -4   70.76    8.08
   1   3  -4   55.97    6.27
   0   3  -4   -0.69    3.64
   0  -3   4   -1.55    2.20
   0   3   4    2.23    2.83
   0  -3  -4   -2.66    2.95
   0   3  -4    8.83    4.19
   0   3   4   -0.46    2.73
   0  -3   4   -0.38    2.36
   0   3  -4    5.18    2.70
   0   3  -4    1.25    2.27
   0  -3  -4    1.44    2.94
   0  -3   4    2.21    3.08
  -1  -3  -4   73.55    7.35
  -1   3  -4   72.34    7.44
   1  -3   4   68.89    7.35
   1   3   4   64.55    6.85
  -1   3  -4   54.04    6.11
   1  -3   4   67.05    7.15
   1   3   4   57.71    6.74
  -1   3  -4   58.09    5.45
  -1  -3  -4   69.10    7.02
  -1   3  -4   68.54    7.52
   2   4  -4    8.99    3.40
  -2  -4   4   13.67    4.34
   2   4  -4   12.02    5.88
  -2  -4   4   12.99    3.69
  -2   4   4   19.08    4.43
   2  -4  -4   13.50    5.02
  -2   4   4   14.72    3.32
   2   4  -4   12.60    5.70
  -2   4   4   13.58    4.28
  -1  -4   4  259.72   12.01
  -1   4   4  247.22   12.78
   1  -4  -4  252.58   13.41
   1   4  -4  261.48   14.52
  -1   4   4  267.27   11.48
  -1   4   4  239.28   12.62
  -1  -4   4  257.54   12.63
  -1  -4   4  249.20   12.76
  -1   4   4  280.02   12.13
   1  -4  -4  244.33   13.59
   1   4  -4  252.19   13.08
   1  -4  -4  237.37   12.25
   1   4  -4  277.18   15.99
   1   4  -4  250.15   14.27
   1  -4  -4  266.19   14.35
   0   4   4  404.79   16.49
   0  -4  -4  402.89   16.35
   0   4  -4  406.55   16.71
   0  -4   4  395.19   15.16
   0   4   4  378.02   15.93
   0   4   4  399.83   13.77
   0  -4   4  380.74   15.79
   0   4  -4  392.91   16.31
   0   4  -4  383.30   14.77
   0   4  -4  402.78   17.79
   0  -4  -4  403.29   15.07
   0  -4  -4  405.02   16.41
   0  -4   4  404.88   14.81
  -1  -4  -4  393.10   16.28
   1   4   4  384.32   16.77
  -1   4  -4  402.13   16.47
   1  -4   4  369.40   16.15
   1   4   4  356.30   16.27
   1  -4   4  392.95   16.77
  -1   4  -4  371.71   15.76
   1   4   4  375.30   14.08
  -1   4  -4  423.59   18.12
  -1   4  -4  374.36   14.53
  -1  -4  -4  398.01   16.33
   1  -4   4  374.55   15.94
  -2  -5   4  168.35   10.71
   2   5  -4  147.69   13.31
  -2   5   4  148.71   10.61
   2  -5  -4  145.84   11.49
   2   5  -4  140.22   12.64
  -2   5   4  166.36   11.57
  -2   5   4  163.29   10.15
  -2  -5   4  181.22   11.71
  -2   5   4  151.97    9.63
   2   5  -4  162.42   14.99
  -1  -5   4   31.71    5.50
   1   5  -4   23.27    6.72
  -1  -5   4   30.23    4.78
  -1   5   4   24.75    5.07
  -1   5   4   30.03    4.48
   1  -5  -4   25.07    5.11
   1   5  -4   24.48    4.97
  -1   5   4   29.19    5.17
  -1  -5   4   23.20    4.46
  -1   5   4   26.16    4.47
   1   5  -4   32.74    6.26
   1  -5  -4   24.31    5.78
   1  -5  -4   22.03    4.15
   1   5  -4   27.00    5.27
   1  -5  -4   31.91    6.01
   0   5  -4   58.74    7.57
   0  -5   4   59.33    6.28
   0  -5  -4   72.02    7.30
   0   5  -4   79.71    8.16
   0   5   4   61.77    7.18
   0   5   4   70.31    6.36
   0   5   4   67.71    7.03
   0  -5   4   63.92    6.62
   0   5   4   72.41    7.27
   0   5  -4   68.46    7.64
   0   5  -4   66.70    6.99
   0  -5  -4   67.84    7.03
   0  -5  -4   73.21    7.13
   0  -5  -4   78.58    8.05
   0  -5   4   61.94    7.20
  -1   5  -4   86.93    8.11
   1   5   4   83.50    8.43
   1  -5   4   82.51    8.28
   1   5   4   93.91    8.83
   1  -5   4   83.24    7.99
   1   5   4   86.05    7.53
  -1   5  -4   88.05    8.10
  -1   5  -4   91.00    9.10
  -1   5  -4   88.06    7.78
  -1  -5  -4   90.12    8.43
   1  -5   4   87.91    8.50
  -2  -6   4  376.00   16.40
   2   6  -4  330.63   19.34
  -2   6   4  328.84   16.06
   2  -6  -4  336.51   16.82
   2   6  -4  307.05   18.32
  -2   6   4  322.94   14.46
  -2  -6   4  386.24   17.01
  -2   6   4  342.59   15.16
   2   6  -4  314.45   20.04
  -1  -6   4   30.98    5.48
   1   6  -4   20.04    6.04
  -1  -6   4   28.52    5.34
  -1   6   4   21.51    4.71
  -1   6   4   23.72    4.66
   1  -6  -4   23.55    5.23
   1   6  -4   26.93    5.79
  -1   6   4   19.22    4.34
  -1  -6   4   27.16    5.42
  -1   6   4   23.69    4.33
   1  -6  -4   17.46    5.12
   1   6  -4   17.36    4.90
   1  -6  -4   24.71    5.14
   1   6  -4   23.63    4.99
   1  -6  -4   25.14    5.61
   0   6   4  492.58   19.80
   0  -6  -4  503.08   18.21
   0   6  -4  527.20   19.51
   0  -6   4  499.76   18.52
   0   6   4  479.30   17.25
   0   6   4  473.41   18.23
   0  -6   4  454.69   17.74
   0   6   4  502.23   18.87
   0   6  -4  498.15   19.92
   0  -6  -4  452.77   18.76
   0   6  -4  476.64   18.74
   0   6  -4  523.79   21.43
   0  -6  -4  469.52   18.08
   0  -6  -4  485.41   19.07
   0  -6   4  442.94   17.45
  -1   6  -4  424.10   17.97
   1   6   4  398.81   18.71
   1  -6   4  379.68   17.25
   1   6   4  391.31   17.95
   1   6   4  385.99   16.69
   1  -6   4  406.83   17.31
  -1   6  -4  382.30   16.76
  -1   6  -4  424.27   19.22
  -1   6  -4  397.64   16.62
  -1  -6  -4  412.03   17.67
   1  -6   4  389.50   17.46
  -2   6  -4   36.41    6.03
  -2  -7   4    2.04    3.49
   2   7  -4   -0.70    6.34
  -2  -7   4    9.46    4.50
   2   7  -4    8.07    4.51
  -2   7   4    4.13    3.32
  -2   7   4    1.81    2.73
  -2   7   4    7.74    4.04
   2  -7  -4    5.96    5.62
   2  -7  -4    9.89    6.09
  -1   7   4  243.44   14.34
  -1  -7   4  238.36   13.44
  -1   7   4  219.34   12.03
  -1   7   4  234.70   13.15
   1  -7  -4  219.25   14.94
   1   7  -4  230.46   14.64
   1  -7  -4  215.70   13.35
   1   7  -4  235.99   16.72
   1  -7  -4  237.36   14.81
   1   7  -4  228.82   15.18
  -1  -7   4  252.69   14.05
   0   7  -4   48.81    7.63
   0   7  -4   46.47    7.20
   0  -7   4   51.10    6.85
   0   7   4   44.06    6.88
   0   7   4   32.45    5.13
   0   7   4   46.72    6.53
   0  -7  -4   40.83    6.63
   0  -7  -4   40.55    6.40
   0   7  -4   42.39    6.15
   0  -7   4   46.50    6.36
   0  -7  -4   42.12    6.54
   1  -7   4    3.21    4.23
   1   7   4   -2.11    4.26
   1   7   4    3.09    3.20
  -1   7  -4    3.15    3.11
   1  -7   4   -0.84    3.68
  -1   7  -4    1.63    2.81
  -1  -7  -4    1.60    3.92
  -1   7  -4    4.71    4.76
  -2   7  -4   13.84    4.41
  -2   7  -4   18.32    4.51
  -2   8   4  260.06   15.58
  -2   8   4  249.11   13.79
  -2   8   4  245.56   14.30
   2  -8  -4  235.72   17.79
   2   8  -4  279.38   21.33
   2  -8  -4  255.77   17.28
  -1  -8   4    3.37    3.41
   1   8  -4   -6.60    5.79
  -1  -8   4    5.00    3.83
   1   8  -4    1.89    4.28
  -1   8   4   -0.38    3.33
  -1   8   4    4.56    3.86
  -1   8   4   -2.49    3.70
   1  -8  -4    5.35    5.11
   1  -8  -4   -1.62    4.22
   1   8  -4   -2.21    3.45
   1  -8  -4    7.23    5.50
   0   8   4  109.29   10.66
   0  -8   4  124.93   10.31
   0   8   4  114.00    9.83
   0   8   4  118.55   10.59
   0   8  -4  130.33   12.24
   0   8  -4  111.06   10.51
   0   8  -4  116.55   11.20
   0  -8  -4   96.70    9.94
   0  -8  -4  119.76   10.39
   0  -8  -4  113.01    9.88
   0  -8   4  123.31   10.87
   1  -8   4   41.93    7.15
   1   8   4   49.69    8.14
   1   8   4   36.65    6.96
  -1   8  -4   35.21    6.65
   1  -8   4   41.70    6.95
  -1   8  -4   37.15    6.74
  -1  -8  -4   43.92    7.03
  -1   8  -4   33.31    6.97
  -2   8  -4   21.00    5.43
  -2   8  -4   13.40    4.51
  -2   9   4    0.39    3.53
  -2   9   4    1.36    2.89
  -2   9   4    2.05    4.09
   2  -9  -4    5.59    7.46
   2  -9  -4   -0.45    5.18
   2  -9  -4    3.12    4.78
   1   9  -4    0.43    5.71
  -1  -9   4   -5.33    5.00
  -1   9   4   11.13    4.84
  -1   9   4   -2.82    3.17
  -1   9   4    3.54    3.78
   1  -9  -4    6.12    5.45
   1  -9  -4   -5.56    5.31
   1   9  -4   -6.12    4.96
   1   9  -4    5.11    4.83
   1  -9  -4   -2.88    4.33
  -1  -9   4    0.61    3.59
   0   9  -4    3.48    4.70
   0  -9   4    8.48    4.15
   0   9  -4    3.25    3.98
   0   9   4    9.94    5.21
   0   9   4    3.65    3.56
   0   9   4    9.05    4.56
   0  -9  -4   12.01    5.68
   0  -9  -4   10.77    4.87
   0   9  -4   14.36    5.11
   0  -9   4   16.80    5.03
   0  -9  -4    4.87    3.84
   1  -9   4  -10.15    5.72
   1   9   4   -1.69    5.19
   1   9   4    7.28    4.35
   1  -9   4    8.45    4.81
  -1   9  -4    8.61    4.83
  -1   9  -4   -0.39    3.42
  -1   9  -4    7.25    4.42
  -2   9  -4   29.98    6.79
  -2   9  -4   28.01    6.39
  -2  10   4   72.04   10.06
  -2  10   4   56.63    7.76
  -2  10   4   63.64    8.75
   2 -10  -4   35.64    7.86
   2 -10  -4   57.78    9.59
   2 -10  -4   62.33    9.88
   1  10  -4   86.32   11.98
   1  10  -4   89.59   10.78
  -1  10   4   91.90   10.52
  -1 -10   4  104.84    9.93
  -1  10   4   97.98   10.16
  -1  10   4   94.97   10.25
   1 -10  -4   91.66   11.88
   1  10  -4  107.72   12.62
   1 -10  -4   87.15   10.31
   1 -10  -4   96.09   10.55
  -1 -10   4  101.73   10.57
   0  10   4   94.10   10.96
   0 -10   4  114.72   11.00
   0  10   4  104.20   10.57
   0  10   4   98.85   10.36
   0  10  -4  111.26   12.52
   0  10  -4  101.47   10.97
   0 -10  -4   93.18   11.18
   0 -10  -4   93.83    9.82
   0 -10  -4  103.02   10.56
   0  10  -4  106.48   12.04
   0 -10   4  122.31   11.61
   1 -10   4  131.46   11.99
   1  10   4  111.58   12.44
   1  10   4  127.10   12.97
  -1  10  -4  149.36   14.02
  -1  10  -4  148.47   12.97
  -1  10  -4  125.33   11.69
   1 -10   4  138.69   13.02
  -2  11   4   19.54    6.87
  -2  11   4   20.90    5.75
  -2  11   4   14.25    6.20
   2 -11  -4   13.31    8.17
   2 -11  -4   21.06    8.28
   2 -11  -4   25.61    8.13
   1  11  -4   73.85   11.74
  -1 -11   4   67.62    9.47
  -1  11   4   56.37    8.80
  -1  11   4   64.31    9.08
   1  11  -4   72.23   11.34
  -1  11   4   63.20    8.65
   1 -11  -4   66.88   11.14
   1 -11  -4   69.22    9.86
   1  11  -4   57.30    9.83
   1 -11  -4   66.59    9.80
  -1 -11   4   64.72    8.82
   0 -11   4   28.40    6.32
   0  11   4   19.97    5.89
   0  11   4   36.60    7.65
   0  11   4   27.66    6.72
   0 -11  -4   28.64    7.97
   0 -11  -4   24.35    6.26
   0 -11   4   35.27    7.28
   0  11  -4   33.59    7.60
   0 -11  -4   30.36    6.89
   0  11  -4   37.16    8.54
   0  11  -4   24.65    7.17
   1 -11   4   13.10    5.64
  -1  11  -4   18.98    6.64
   1 -11   4    5.11    4.48
  -1  11  -4   14.75    5.07
  -2  12   4  139.78   15.91
  -2  12   4  112.83   11.49
  -2  12   4  133.81   13.04
   2 -12  -4  136.21   17.28
   2 -12  -4  118.73   13.55
   1  12  -4   12.28    7.60
  -1 -12   4   28.05    7.84
  -1  12   4   22.88    6.93
  -1  12   4   13.47    5.03
  -1  12   4   27.45    6.76
   1 -12  -4   18.20    7.52
   1 -12  -4   37.08    8.51
   1 -12  -4   13.96    5.19
   1  12  -4   34.29    9.36
   0  12   4   10.74    5.98
   0  12   4    6.42    5.97
   0  12   4    6.78    5.77
   0 -12  -4   -9.85    7.19
   0  12  -4    1.76    5.00
   0 -12  -4   -1.20    5.22
   0  12  -4    1.89    5.99
  -1  12  -4  167.20   15.57
  -2   0   5    8.95    3.83
   2   0  -5   10.22    6.12
   2   0  -5   -3.08    6.00
  -2   0   5    1.59    3.70
   1   0  -5   -1.93    3.22
   1   0  -5    4.28    5.34
  -1   0   5   -3.04    2.76
   1   0  -5   -0.12    4.59
  -1   0   5   -2.63    3.70
   1   0  -5   -1.40    4.96
  -1   0   5    2.66    3.06
   0   0   5    1.89    3.21
   0   0  -5   -0.40    4.24
   0   0   5   -2.11    3.38
   0   0   5    2.37    3.38
   0   0  -5    0.10    3.54
   0   0  -5    6.22    3.46
   0   0  -5   -0.87    3.67
   1   0   5   -2.34    4.05
  -1   0  -5    2.20    4.04
  -1   0  -5    1.66    2.86
   1   0   5   -4.28    3.73
   2   1  -5  114.94   13.03
   2   1  -5   98.15   11.05
  -2   1   5  124.53   10.50
   2  -1  -5  119.55   13.02
  -2   1   5  112.66    8.40
  -2   1   5  105.46    9.94
  -2  -1   5  108.24    9.95
  -2  -1   5  110.24    9.10
   2   1  -5  111.56   13.04
   1   1  -5   10.49    5.92
   1  -1  -5    7.65    4.42
  -1   1   5    5.92    3.41
   1  -1  -5    8.29    4.78
   1   1  -5    8.02    4.53
  -1   1   5    9.43    4.06
  -1  -1   5    8.46    4.43
   1   1  -5    0.79    3.34
   1  -1  -5    2.96    4.14
  -1   1   5    5.06    3.17
  -1  -1   5    5.39    2.88
   0  -1  -5    4.49    2.81
   0   1   5    2.54    3.39
   0  -1  -5    6.09    4.19
   0   1  -5   12.77    5.32
   0   1   5    2.54    3.04
   0  -1   5   10.73    4.30
   0   1   5    0.83    2.97
   0  -1   5    6.67    3.77
   0  -1  -5    1.58    3.35
   0   1  -5    7.48    4.18
   0   1  -5   -5.90    4.77
   1   1   5    3.65    3.20
  -1  -1  -5   -1.05    4.29
  -1   1  -5    2.74    3.81
  -1   1  -5   -2.29    3.17
   1   1   5    9.16    4.92
   1  -1   5    1.11    3.85
  -1  -1  -5   -1.32    2.84
   1  -1   5   -6.36    4.42
   2   2  -5  409.73   21.93
  -2   2   5  482.64   20.22
   2  -2  -5  429.61   22.78
   2   2  -5  467.70   25.12
  -2   2   5  464.15   20.09
  -2  -2   5  452.97   19.87
  -2  -2   5  492.66   18.82
   2   2  -5  395.95   22.97
   2  -2  -5  411.50   21.86
  -1   2   5  271.34   14.22
   1  -2  -5  245.69   15.52
   1   2  -5  294.24   18.01
  -1  -2   5  266.44   13.63
  -1   2   5  269.21   14.87
  -1  -2   5  264.87   14.80
   1   2  -5  286.49   18.01
   1  -2  -5  263.55   16.03
   1   2  -5  250.41   15.76
   0   2   5  225.19   13.30
   0  -2  -5  212.23   14.29
   0   2  -5  251.76   15.29
   0  -2   5  254.60   13.72
   0   2   5  223.20   13.76
   0  -2   5  246.17   14.58
   0   2  -5  231.96   13.80
   0   2  -5  212.29   14.28
   0  -2  -5  243.83   14.40
  -1  -2  -5  864.76   27.59
   1  -2   5  887.60   27.20
  -1   2  -5 1012.64   29.81
   1   2   5  988.60   27.98
   1   2   5  935.22   28.74
   1  -2   5  993.14   30.38
  -1   2  -5  909.95   26.59
  -2  -3   5   67.90    7.98
   2   3  -5   59.79   11.32
  -2   3   5   53.72    7.21
   2   3  -5   42.12    7.62
   2  -3  -5   61.97    9.49
   2   3  -5   56.90   10.31
  -2   3   5   54.39    7.63
  -2  -3   5   62.79    7.95
   2  -3  -5   53.05    8.78
   1   3  -5    8.88    6.21
  -1   3   5    4.04    3.82
   1  -3  -5    3.54    4.53
   1   3  -5    9.47    5.62
  -1   3   5    8.23    4.16
  -1  -3   5    1.86    3.66
   1   3  -5    6.83    4.42
   1  -3  -5    9.33    5.28
  -1  -3   5    6.86    3.82
   0   3  -5   14.93    5.61
   0   3   5    6.29    3.69
   0  -3  -5   -9.27    5.72
   0   3  -5    9.65    5.76
   0   3   5    4.61    4.27
   0  -3   5    7.08    4.51
   0  -3   5    4.26    3.99
   0  -3  -5    6.00    4.20
   0   3  -5    0.98    3.23
  -1  -3  -5  126.03   11.05
   1  -3   5  131.02   11.33
  -1   3  -5  126.60   11.14
   1   3   5  103.13    9.82
   1   3   5  119.49   11.21
   1  -3   5  113.79   10.83
  -1   3  -5  115.83   10.43
  -1   3  -5  116.80   11.27
  -1  -3  -5  105.47   10.17
   2   4  -5  225.23   17.04
  -2   4   5  231.41   14.26
   2  -4  -5  240.29   17.51
   2   4  -5  221.12   17.44
  -2  -4   5  253.22   14.69
  -2   4   5  255.37   15.42
  -2  -4   5  227.34   14.55
   2   4  -5  222.78   18.95
   2  -4  -5  258.43   17.68
  -1   4   5  139.81   11.11
   1  -4  -5  150.86   12.42
   1   4  -5  159.34   13.47
  -1  -4   5  157.62   11.33
  -1   4   5  147.63   11.51
  -1  -4   5  151.18   11.72
   1   4  -5  184.00   15.73
   1  -4  -5  161.31   12.77
   1   4  -5  161.19   13.08
   0   4  -5    0.30    5.48
   0   4  -5   -3.06    4.04
   0   4   5    2.70    3.16
   0  -4  -5    2.03    4.29
   0   4  -5    6.39    4.92
   0   4   5    5.62    4.55
   0  -4   5    4.27    3.59
   0  -4   5    1.04    3.80
   0  -4  -5   10.07    5.28
  -1   4  -5  445.93   20.59
   1  -4   5  450.70   20.38
   1   4   5  414.26   19.60
   1   4   5  422.10   20.56
   1  -4   5  479.76   21.34
  -1   4  -5  482.57   20.88
  -1   4  -5  473.70   22.28
  -1  -4  -5  482.91   21.38
   2   5  -5  165.42   15.52
  -2   5   5  164.37   12.68
   2  -5  -5  161.71   14.43
   2   5  -5  156.86   14.73
  -2  -5   5  181.70   12.95
  -2   5   5  174.38   13.40
   2   5  -5  152.26   16.12
   2  -5  -5  153.95   14.54
   1   5  -5   -1.49    4.87
  -1   5   5    2.86    3.95
   1  -5  -5    3.26    4.82
   1   5  -5    7.03    5.50
  -1   5   5    1.81    3.95
  -1  -5   5   -2.17    3.79
   1  -5  -5   -2.52    5.45
   1   5  -5   -0.94    4.20
  -1  -5   5    5.22    3.44
   0   5  -5   38.42    8.09
   0   5  -5   39.07    7.05
   0   5   5   33.47    6.41
   0  -5  -5   32.95    6.48
   0   5  -5   44.13    7.79
   0   5   5   31.29    6.13
   0  -5   5   29.33    5.86
   0  -5   5   37.32    6.59
   0  -5  -5   31.45    6.58
   1   5   5   69.41    9.17
  -1   5  -5   69.04    9.28
   1   5   5   71.62   10.00
   1  -5   5   58.19    8.61
  -1   5  -5   63.38    7.93
   1  -5   5   55.71    7.82
  -1  -5  -5   60.93    8.56
  -1   5  -5   61.45    9.11
  -2  -6   5   21.52    6.01
   2   6  -5   22.24    9.02
  -2  -6   5   17.79    5.23
  -2   6   5   12.02    3.86
   2  -6  -5   21.02    6.81
   2   6  -5   26.64    8.81
  -2   6   5   20.28    5.64
   2   6  -5   12.98    7.23
   2  -6  -5    7.01    6.30
   1   6  -5   92.14   12.06
   1  -6  -5   99.11   10.34
  -1   6   5   77.34    8.79
  -1  -6   5  111.71   10.35
  -1   6   5   91.62    9.92
  -1  -6   5  108.76   10.52
   1   6  -5   87.15   10.64
   1  -6  -5   94.87   10.74
   1   6  -5  107.57   11.81
   0   6  -5    9.22    6.41
   0   6  -5    9.13    5.24
   0   6   5    0.68    3.63
   0  -6  -5    2.31    3.76
   0   6  -5    3.62    4.84
   0   6   5   -1.29    3.83
   0  -6   5   -1.64    3.49
   0  -6   5   -1.92    3.87
   0  -6  -5   -4.02    4.45
   1   6   5   93.50   11.17
   1  -6   5  118.34   11.25
   1   6   5  109.38   11.14
  -1   6  -5  111.32   10.86
  -1   6  -5  122.89   12.57
   1  -6   5   92.14   10.08
  -2  -7   5   13.46    5.18
   2   7  -5   27.07   10.11
  -2   7   5   22.11    5.81
   2   7  -5   22.65    7.12
   2  -7  -5   21.51    6.88
   1   7  -5    1.73    6.72
  -1  -7   5   12.42    4.96
   1   7  -5    7.62    6.24
  -1   7   5    7.94    4.16
   1   7  -5   23.86    7.02
   1  -7  -5   16.63    5.90
  -1  -7   5   22.29    6.14
   0  -7   5    8.97    3.98
   0   7  -5    6.53    5.05
   0   7   5   11.94    5.13
   0  -7   5    7.32    4.30
   0   7  -5    9.06    5.94
   0  -7  -5    4.63    4.25
   0   7  -5   12.47    6.75
   1   7   5   89.39   11.84
   1  -7   5   74.23    9.77
  -1   7  -5   89.24   10.20
  -1   7  -5   73.31    9.00
  -1   7  -5   96.79   11.96
  -2   8   5  110.17   11.52
  -2   8   5  111.73   10.15
   2  -8  -5  110.70   12.97
   2  -8  -5  109.05   13.24
   1   8  -5  130.65   13.92
  -1   8   5  133.30   12.29
  -1  -8   5  150.02   12.54
  -1   8   5  133.30   10.85
   1   8  -5  143.03   15.20
   1  -8  -5  129.17   12.30
   1  -8  -5  134.20   12.85
   1   8  -5  110.35   11.90
  -1  -8   5  156.08   12.55
   0  -8   5   35.06    7.40
   0   8   5   21.90    5.90
   0   8  -5   23.59    6.47
   0   8   5   21.58    5.42
   0  -8   5   24.45    6.03
   0   8  -5   26.43    6.70
   0  -8  -5   29.75    6.61
   0   8  -5   23.17    7.92
   1  -8   5  387.86   20.70
   1   8   5  420.83   24.93
  -1   8  -5  388.78   22.73
  -1   8  -5  404.72   21.62
  -1   8  -5  390.64   20.93
   1  -8   5  373.79   21.00
  -2   9   5   54.87    8.58
  -2   9   5   52.90    7.78
  -2   9   5   59.60    8.90
   2  -9  -5   65.07   11.07
   2  -9  -5   56.23   10.41
   1   9  -5   14.48    7.44
   1   9  -5   25.02    9.21
  -1  -9   5   21.37    6.76
  -1   9   5   21.72    7.46
  -1   9   5   27.47    5.70
  -1   9   5   23.97    6.17
   1  -9  -5   16.97    6.78
   1  -9  -5    8.11    5.23
   1  -9  -5   34.83    8.29
   1   9  -5   14.39    5.56
  -1  -9   5   24.69    6.59
   0  -9   5   34.87    8.17
   0   9   5    5.57    4.97
   0   9   5   35.75    7.23
   0   9  -5   30.77    7.74
   0  -9   5   27.98    6.92
   0   9  -5   21.56    6.67
   0  -9  -5   27.99    6.67
   0   9  -5   30.24    8.97
   1  -9   5   59.83    9.55
  -1   9  -5   67.44   10.26
   1  -9   5   70.61    9.84
  -1   9  -5   63.23    9.02
  -1   9  -5   71.12   12.30
  -2  10   5   78.26   11.21
  -2  10   5   52.67    8.00
  -2  10   5   83.12   11.27
   2 -10  -5   75.23   13.01
  -1 -10   5   -6.80    5.99
  -1  10   5   -3.29    4.79
   1  10  -5   -0.27    6.14
  -1  10   5    9.66    4.75
  -1  10   5    0.19    4.74
   1 -10  -5    2.67    7.23
   1 -10  -5    1.38    6.00
  -1 -10   5    2.40    5.08
   1  10  -5    4.35    5.72
   0 -10   5   37.59    8.60
   0  10   5   37.38    7.85
   0  10   5   36.70    7.84
   0  10   5   24.88    7.03
   0 -10  -5   33.89    9.31
   0  10  -5   34.34    8.03
   0  10  -5   34.47    8.13
  -1  10  -5   32.69    8.33
  -1  10  -5   26.60    7.15
  -2  11   5    1.70    5.82
  -2  11   5    6.99    4.80
  -2  11   5   -1.61    6.07
  -1  11   5   32.92    8.73
  -1  11   5   45.25    8.58
  -1  11   5   36.81    7.61
   1  11  -5   38.12   10.89
   0  11  -5   -6.35    8.68
   0  11   5    7.48    5.02
   0  11   5   -1.96    4.70
   2   0  -6  428.35   26.95
  -2   0   6  473.55   19.89
  -2   0   6  429.33   21.84
   1   0  -6  140.25   12.97
  -1   0   6  141.49   10.78
  -1   0   6  134.46   12.17
   1   0  -6  146.46   14.70
   0   0  -6   27.08    6.14
   0   0  -6   17.05    6.53
   0   0   6   15.38    5.82
   0   0   6   20.50    5.73
  -1   0  -6   48.98    8.52
   1   0   6   38.52    8.00
  -1   0  -6   51.95    7.79
   2   1  -6   10.50    8.82
   2  -1  -6   13.18    7.78
   2   1  -6    7.05    8.45
  -2   1   6    6.42    4.32
  -2  -1   6    8.20    4.35
   2  -1  -6   -2.40    6.49
  -2  -1   6   14.91    5.52
   1   1  -6   21.34    8.43
  -1   1   6   22.13    5.34
   1  -1  -6   25.13    7.11
   1   1  -6   18.37    7.62
  -1   1   6   25.40    6.12
  -1  -1   6   23.65    6.01
   1   1  -6   19.00    6.07
  -1  -1   6   19.11    4.74
   1  -1  -6   31.94    8.86
   0  -1   6  250.11   15.39
   0  -1  -6  270.78   18.80
   0   1  -6  281.73   19.25
   0   1   6  247.21   15.67
   0   1   6  194.35   14.76
   0  -1   6  229.57   15.75
   0   1  -6  250.96   17.99
   0   1  -6  213.25   15.13
   0  -1  -6  235.40   16.31
  -1  -1  -6   25.38    6.72
  -1   1  -6   18.88    7.26
   1   1   6   33.70    7.82
   1  -1   6   28.67    7.20
  -1   1  -6   27.47    6.36
  -2  -2   6   32.75    5.72
   2   2  -6   28.20   10.54
  -2   2   6   26.09    6.05
   2  -2  -6   33.53   10.44
   2   2  -6   27.78   10.18
  -2   2   6   15.30    5.07
  -2  -2   6   30.04    6.54
   2  -2  -6   17.02    7.94
   1   2  -6   12.93    7.00
  -1   2   6   12.90    4.57
   1   2  -6   12.26    5.79
   1  -2  -6   16.83    6.90
   1   2  -6   18.16    7.91
  -1   2   6    6.09    3.91
  -1  -2   6   29.39    8.48
  -1  -2   6   12.85    4.97
   1  -2  -6   21.31    7.89
   0   2  -6    8.74    4.12
   0   2   6   18.57    5.58
   0  -2  -6   23.56    6.64
   0   2  -6   13.55    6.74
   0   2   6   15.88    5.74
   0  -2   6   14.51    4.72
   0  -2   6    8.55    4.35
   0  -2  -6   12.34    5.31
   0   2  -6   19.52    7.34
   1   2   6   48.92    8.04
  -1   2  -6   54.39    9.02
   1   2   6   53.36    9.06
   1  -2   6   47.01    8.84
  -1   2  -6   52.14    8.09
  -2  -3   6    9.03    4.33
   2   3  -6   10.47    7.99
  -2   3   6   11.73    5.50
   2  -3  -6  -13.71    7.83
   2   3  -6   13.23    8.34
  -2   3   6    2.32    3.92
  -2  -3   6    7.01    4.55
   2  -3  -6   -8.82    9.09
   1   3  -6   -5.98    8.23
  -1   3   6   13.30    4.95
   1   3  -6    1.46    5.67
   1  -3  -6   -0.07    5.06
   1   3  -6   15.23    8.84
  -1   3   6   -2.16    4.62
  -1  -3   6    5.08    4.52
  -1  -3   6    1.04    3.90
   1  -3  -6    3.60    5.44
   0   3  -6   11.57    5.15
   0   3   6   13.00    5.04
   0  -3  -6   31.39    7.74
   0   3  -6   22.89    7.82
   0   3   6   19.59    5.85
   0  -3   6   21.00    6.42
   0  -3   6   14.90    5.71
   0  -3  -6   12.77    6.29
   0   3  -6   29.42    8.37
   1   3   6    2.45    4.58
  -1   3  -6   11.51    6.23
   1   3   6    4.61    5.07
   1  -3   6    8.52    6.43
  -1   3  -6    7.18    4.89
   2   4  -6  121.14   15.93
  -2   4   6  139.92   13.03
  -2  -4   6  136.21   12.27
  -2   4   6  124.88   12.64
   2  -4  -6  136.91   15.84
   2   4  -6  144.38   16.02
   2   4  -6  112.34   14.18
   2  -4  -6  140.27   16.68
   1   4  -6   64.64   11.57
  -1   4   6   60.11    8.95
   1  -4  -6   66.68   11.04
   1   4  -6   55.41   11.11
   1   4  -6   49.11    9.62
  -1   4   6   60.64    9.12
  -1  -4   6   53.08    9.18
  -1  -4   6   49.03    7.90
   1  -4  -6   47.97    9.16
   0   4   6    0.11    3.74
   0   4  -6    1.99    4.83
   0  -4  -6   -1.07    4.95
   0   4  -6   -2.53    5.36
   0   4   6    0.54    4.55
   0  -4   6    2.96    4.53
   0  -4   6    8.17    4.45
   0  -4  -6    0.55    4.74
   0   4  -6    0.60    6.25
   1   4   6    7.65    4.51
   1   4   6   -1.41    5.32
   1  -4   6   -4.00    5.02
   1  -4   6    5.31    5.54
  -1   4  -6   -0.30    4.65
  -2  -5   6   66.90    9.73
   2   5  -6   69.32   14.18
  -2   5   6   53.92    9.10
   2  -5  -6   58.80   11.62
   2   5  -6   45.45   11.08
  -2   5   6   64.30    9.90
   2  -5  -6   56.01   10.77
   1   5  -6   83.90   14.05
  -1   5   6   73.79    9.65
   1  -5  -6   84.34   11.73
   1   5  -6  108.45   14.14
  -1   5   6   73.00   10.76
  -1  -5   6   88.75   11.28
   1   5  -6   80.44   11.80
  -1  -5   6   89.42   10.53
   1  -5  -6   77.78   11.64
   0  -5  -6  208.96   16.40
   0   5  -6  197.03   17.01
   0   5   6  173.17   14.36
   0  -5   6  223.30   16.28
   0   5   6  182.73   15.26
   0  -5   6  186.79   15.15
   0   5  -6  218.86   18.90
   0   5  -6  214.50   17.18
   0  -5  -6  183.41   15.56
   1  -5   6    9.24    5.55
  -1   5  -6    5.23    5.39
  -2   6   6  116.94   12.58
   2  -6  -6  104.39   15.19
   1   6  -6  108.23   16.17
  -1   6   6   81.44   10.44
   1  -6  -6  102.47   12.80
   1   6  -6   58.65   10.72
  -1  -6   6   60.67    9.24
   1   6  -6   75.01   12.07
   0   6   6   57.53    9.32
   0  -6  -6   52.76    9.85
   0   6  -6   72.25   11.54
   0   6  -6   53.90    9.98
   0   6   6   44.52    8.53
   0  -6   6   33.75    6.86
   1  -6   6  196.82   16.50
  -1   6  -6  183.13   16.52
  -2   7   6   45.62    8.36
  -1   7   6   -0.91    5.86
   1   7  -6   -8.34    8.39
   0   0   0    0.00    0.00


TITL 7_4c in P2(1)/c
REM P2(1)/c (#14 in standard setting)
CELL 0.71073   7.756293  12.716271   5.468039  90.0000 100.0055  90.0000
ZERR    4.00   0.004831   0.000534   0.000277   0.0000   0.0181   0.0000
LATT  1
SYMM -x, y+1/2,-z+1/2
SFAC C H N Cl
UNIT 16.00 8.00 20.00 4.00
TREF
HKLF 4
END
_computing_structure_solution     'SHELXT 2014/5 (Sheldrick, 2014)'
;
_shelx_hkl_checksum              5757
_olex2_submission_special_instructions 'No special instructions were received'
_oxdiff_exptl_absorpt_empirical_details
;
Empirical correction (ABSPACK) includes:
- Absorption correction using spherical harmonics
- Frame scaling
;
_oxdiff_exptl_absorpt_empirical_full_max 1.713
_oxdiff_exptl_absorpt_empirical_full_min 0.756
loop_
_space_group_symop_operation_xyz
'x, y, z'
'-x, y+1/2, -z+1/2'
'-x, -y, -z'
'x, -y-1/2, z-1/2'
loop_
_atom_site_label
_atom_site_type_symbol
_atom_site_fract_x
_atom_site_fract_y
_atom_site_fract_z
_atom_site_U_iso_or_equiv
_atom_site_adp_type
_atom_site_occupancy
_atom_site_site_symmetry_order
_atom_site_calc_flag
_atom_site_refinement_flags_posn
_atom_site_refinement_flags_adp
_atom_site_refinement_flags_occupancy
_atom_site_disorder_assembly
_atom_site_disorder_group
Cl1 Cl 1.0312(6) 0.34163(10) 0.8608(3) 0.0364(6) Uiso 1 1 d . . . . .
N4 N 0.553(2) 0.3507(3) 0.5508(9) 0.0209(12) Uiso 1 1 d . . . . .
N5 N 0.6944(19) 0.3293(3) 0.7196(8) 0.0216(11) Uiso 1 1 d . . . . .
N1 N 0.383(2) 0.4142(3) 0.2324(10) 0.0303(14) Uiso 1 1 d . . . . .
N3 N 0.392(2) 0.3322(4) 0.5901(11) 0.0332(14) Uiso 1 1 d . . . . .
N2 N 0.2904(19) 0.3708(4) 0.3966(9) 0.0341(14) Uiso 1 1 d . . . . .
C8 C 0.705(2) 0.4269(4) 0.2560(10) 0.0209(13) Uiso 1 1 d . . . . .
H8 H 0.707514 0.459507 0.104428 0.025 Uiso 1 1 calc R U . . .
C6 C 0.844(2) 0.3569(4) 0.6483(10) 0.0200(12) Uiso 1 1 d . . . . .
C9 C 0.543(3) 0.4008(4) 0.3279(12) 0.0193(13) Uiso 1 1 d . . . . .
C7 C 0.857(2) 0.4034(3) 0.4126(9) 0.0225(13) Uiso 1 1 d . . . . .
H7 H 0.965471 0.417025 0.368229 0.027 Uiso 1 1 calc R U . . .
loop_
_atom_type_symbol
_atom_type_description
_atom_type_scat_dispersion_real
_atom_type_scat_dispersion_imag
_atom_type_scat_source
C C 0.0033 0.0016 'International Tables Vol C Tables 4.2.6.8 and 6.1.1.4'
H H 0.0000 0.0000 'International Tables Vol C Tables 4.2.6.8 and 6.1.1.4'
Cl Cl 0.1484 0.1585 'International Tables Vol C Tables 4.2.6.8 and 6.1.1.4'
N N 0.0061 0.0033 'International Tables Vol C Tables 4.2.6.8 and 6.1.1.4'
loop_
_geom_angle_atom_site_label_1
_geom_angle_atom_site_label_2
_geom_angle_atom_site_label_3
_geom_angle
_geom_angle_site_symmetry_1
_geom_angle_site_symmetry_3
_geom_angle_publ_flag
N5 N4 C9 128.8(17) . . ?
N3 N4 N5 122.5(7) . . ?
N3 N4 C9 108.5(15) . . ?
N4 N5 C6 113.4(7) . . ?
C9 N1 N2 105.3(8) . . ?
N2 N3 N4 104.8(9) . . ?
N3 N2 N1 112.1(14) . . ?
C9 C8 H8 120.5 . . ?
C7 C8 H8 120.5 . . ?
C7 C8 C9 119.1(6) . . ?
N5 C6 Cl1 116.8(5) . . ?
N5 C6 C7 124.7(14) . . ?
C7 C6 Cl1 118.4(13) . . ?
N4 C9 C8 116.0(16) . . ?
N1 C9 N4 109.4(16) . . ?
N1 C9 C8 134.6(7) . . ?
C8 C7 C6 117.8(14) . . ?
C8 C7 H7 121.1 . . ?
C6 C7 H7 121.1 . . ?
loop_
_geom_bond_atom_site_label_1
_geom_bond_atom_site_label_2
_geom_bond_distance
_geom_bond_site_symmetry_2
_geom_bond_publ_flag
Cl1 C6 1.703(15) . ?
N4 N5 1.333(18) . ?
N4 N3 1.33(2) . ?
N4 C9 1.366(8) . ?
N5 C6 1.34(2) . ?
N1 N2 1.362(14) . ?
N1 C9 1.27(2) . ?
N3 N2 1.299(14) . ?
C8 H8 0.9300 . ?
C8 C9 1.42(3) . ?
C8 C7 1.37(2) . ?
C6 C7 1.437(8) . ?
C7 H7 0.9300 . ?
loop_
_geom_torsion_atom_site_label_1
_geom_torsion_atom_site_label_2
_geom_torsion_atom_site_label_3
_geom_torsion_atom_site_label_4
_geom_torsion
_geom_torsion_site_symmetry_1
_geom_torsion_site_symmetry_2
_geom_torsion_site_symmetry_3
_geom_torsion_site_symmetry_4
_geom_torsion_publ_flag
Cl1 C6 C7 C8 -172.2(4) . . . . ?
N4 N5 C6 Cl1 175.3(3) . . . . ?
N4 N5 C6 C7 -1.1(8) . . . . ?
N4 N3 N2 N1 -0.1(6) . . . . ?
N5 N4 N3 N2 174.8(4) . . . . ?
N5 N4 C9 N1 -174.0(5) . . . . ?
N5 N4 C9 C8 5.3(8) . . . . ?
N5 C6 C7 C8 4.1(8) . . . . ?
N3 N4 N5 C6 -177.9(5) . . . . ?
N3 N4 C9 N1 0.6(6) . . . . ?
N3 N4 C9 C8 180.0(5) . . . . ?
N2 N1 C9 N4 -0.6(6) . . . . ?
N2 N1 C9 C8 -179.8(6) . . . . ?
C9 N4 N5 C6 -3.9(8) . . . . ?
C9 N4 N3 N2 -0.3(6) . . . . ?
C9 N1 N2 N3 0.5(6) . . . . ?
C9 C8 C7 C6 -2.5(7) . . . . ?
C7 C8 C9 N4 -1.6(7) . . . . ?
C7 C8 C9 N1 177.5(6) . . . . ?
