#------------------------------------------------------------------------------
#$Date: 2022-03-06 06:37:54 +0200 (Sun, 06 Mar 2022) $
#$Revision: 273468 $
#$URL: file:///home/coder/svn-repositories/cod/cif/1/56/59/1565955.cif $
#------------------------------------------------------------------------------
#
# This file is available in the Crystallography Open Database (COD),
# http://www.crystallography.net/
#
# All data on this site have been placed in the public domain by the
# contributors.
#
data_1565955
loop_
_publ_author_name
'Wildner, Manfred'
'Zakharov, Boris A.'
'Bogdanov, Nikita E.'
'Talla, Dominik'
'Boldyreva, Elena V.'
'Miletich, Ronald'
_publ_section_title
;
 Crystallography relevant to Mars and Galilean icy moons: crystal behavior
 of kieserite-type monohydrate sulfates at extraterrestrial conditions
 down to 15 K
;
_journal_issue                   2
_journal_name_full               IUCrJ
_journal_page_first              194
_journal_page_last               203
_journal_paper_doi               10.1107/S2052252521012720
_journal_volume                  9
_journal_year                    2022
_chemical_formula_sum            'Co H2 O5 S'
_chemical_formula_weight         173.01
_space_group_crystal_system      monoclinic
_space_group_IT_number           15
_space_group_name_Hall           '-C 2yc'
_space_group_name_H-M_alt        'C 1 2/c 1'
_atom_sites_solution_hydrogens   difmap
_audit_creation_method           SHELXL-2017/1
_cell_angle_alpha                90
_cell_angle_beta                 118.441(10)
_cell_angle_gamma                90
_cell_formula_units_Z            4
_cell_length_a                   6.9432(10)
_cell_length_b                   7.6126(10)
_cell_length_c                   7.6107(10)
_cell_measurement_temperature    193(2)
_cell_volume                     353.72(9)
_computing_structure_refinement  'SHELXL-2017/1 (Sheldrick, 2017)'
_diffrn_ambient_temperature      193(2)
_diffrn_measured_fraction_theta_full 0.991
_diffrn_measured_fraction_theta_max 0.997
_diffrn_radiation_type           MoK\a
_diffrn_radiation_wavelength     0.71073
_diffrn_reflns_av_R_equivalents  0.0198
_diffrn_reflns_av_unetI/netI     0.0088
_diffrn_reflns_Laue_measured_fraction_full 0.991
_diffrn_reflns_Laue_measured_fraction_max 0.997
_diffrn_reflns_limit_h_max       12
_diffrn_reflns_limit_h_min       -12
_diffrn_reflns_limit_k_max       13
_diffrn_reflns_limit_k_min       -13
_diffrn_reflns_limit_l_max       13
_diffrn_reflns_limit_l_min       -13
_diffrn_reflns_number            11405
_diffrn_reflns_point_group_measured_fraction_full 0.991
_diffrn_reflns_point_group_measured_fraction_max 0.997
_diffrn_reflns_theta_full        25.242
_diffrn_reflns_theta_max         39.962
_diffrn_reflns_theta_min         4.231
_exptl_absorpt_coefficient_mu    5.321
_exptl_absorpt_correction_T_max  0.7479
_exptl_absorpt_correction_T_min  0.5786
_exptl_absorpt_correction_type   multi-scan
_exptl_absorpt_process_details
;
 SADABS 2016/2: Krause, L., Herbst-Irmer, R., Sheldrick G.M. & Stalke D.,
 J. Appl. Cryst. 48 (2015) 3-10
;
_exptl_crystal_density_diffrn    3.249
_exptl_crystal_F_000             340
_refine_diff_density_max         0.477
_refine_diff_density_min         -0.462
_refine_diff_density_rms         0.074
_refine_ls_extinction_coef       0.0206(9)
_refine_ls_extinction_expression Fc^*^=kFc[1+0.001xFc^2^\l^3^/sin(2\q)]^-1/4^
_refine_ls_extinction_method     'SHELXL-2017/1 (Sheldrick 2017)'
_refine_ls_goodness_of_fit_ref   1.135
_refine_ls_hydrogen_treatment    refall
_refine_ls_matrix_type           full
_refine_ls_number_parameters     40
_refine_ls_number_reflns         1098
_refine_ls_number_restraints     0
_refine_ls_restrained_S_all      1.135
_refine_ls_R_factor_all          0.0119
_refine_ls_R_factor_gt           0.0117
_refine_ls_shift/su_max          0.000
_refine_ls_shift/su_mean         0.000
_refine_ls_structure_factor_coef Fsqd
_refine_ls_weighting_details
'w=1/[\s^2^(Fo^2^)+(0.0120P)^2^+0.2800P] where P=(Fo^2^+2Fc^2^)/3'
_refine_ls_weighting_scheme      calc
_refine_ls_wR_factor_gt          0.0298
_refine_ls_wR_factor_ref         0.0299
_reflns_Friedel_coverage         0.000
_reflns_number_gt                1089
_reflns_number_total             1098
_reflns_threshold_expression     'I > 2\s(I)'
_cod_data_source_file            lt5044.cif
_cod_data_source_block           CoSO4H2O_N2_193K
_cod_depositor_comments
'Adding full bibliography for 1565934--1565967.cif.'
_cod_original_sg_symbol_H-M      'C 2/c'
_cod_database_code               1565955
_shelx_shelxl_version_number     2017/1
_shelx_space_group_comment
;
The symmetry employed for this shelxl refinement is uniquely defined
by the following loop, which should always be used as a source of
symmetry information in preference to the above space-group names.
They are only intended as comments.
;
_shelx_res_file
;
TITL 217a03x (nach Umkleben) 193K Apex in C2/c kieserite cell
    latt_corr_for_Nonius20C_217a03x_193_0m.res
    created by SHELXL-2017/1 at 21:34:38 on 10-Feb-2021
REM meas. mon  6.9295(1) 7.6002(1) 7.4567(1)   90  116.3989(4)   90
REM trans. cryscomp  6.9295 7.6002 7.5942    90 118.418 90
REM meas.trcl  6.9294(1) 7.6002(1) 7.4566(1) 90.0013(5) 116.3989(4) 89.9965(5)
REM CELL 0.71073   6.9295 7.6002 7.5942    90 118.418 90
REM latt corr for Nonius20C +0.0137 +0.0124 +0.0165    +0.0226
CELL 0.71073  6.9432 7.6126 7.6107 90 118.4406 90
ZERR    4.00   0.001   0.001   0.001   0.00   0.01   0.00
LATT  7
SYMM -X, Y, .5-Z
SFAC O H S CO
UNIT 20 8 4 4
SHEL 20 0.55285
OMIT -2 2 2
OMIT -3 1 1
OMIT 1 3 1
REM DAMP 10000
L.S. 10
CONN 12 1.8 $O
EQIV $9 -x+1/2, y+1/2, -z+1/2
BOND $H
FMAP 2
PLAN 20
ACTA
HTAB O3 O2_$9
HTAB
WGHT    0.012000    0.280000
EXTI    0.020633
FVAR       0.73277
CO    4    0.000000    0.500000    0.000000    10.50000    0.00454    0.00472 =
         0.00503    0.00034    0.00235   -0.00008
S     3    0.000000    0.154685    0.250000    10.50000    0.00356    0.00404 =
         0.00533    0.00000    0.00210    0.00000
O1    1    0.172311    0.044042    0.401229    11.00000    0.00576    0.01036 =
         0.01044    0.00513    0.00319    0.00267
O2    1    0.098664    0.267637    0.154750    11.00000    0.00812    0.00695 =
         0.01093    0.00341    0.00634    0.00101
O3    1    0.000000    0.638055    0.250000    10.50000    0.00706    0.00763 =
         0.00725    0.00000    0.00371    0.00000
H     2    0.110202    0.705459    0.294064    11.00000    0.02049
HKLF 4 1  1 0 0 0 -1 0 -1 0 -1




REM  217a03x (nach Umkleben) 193K Apex in C2/c kieserite cell
REM R1 =  0.0117 for    1089 Fo > 4sig(Fo)  and  0.0119 for all    1098 data
REM     40 parameters refined using      0 restraints

END

WGHT      0.0116      0.2747

REM Instructions for potential hydrogen bonds
EQIV $5 x+1/2, y+1/2, z
HTAB O3 S_$5
HTAB O3 O2_$9

REM Highest difference peak  0.477,  deepest hole -0.462,  1-sigma level  0.074
Q1    1   0.0771  0.4478  0.0095  11.00000  0.05    0.48
Q2    1   0.0570  0.2176  0.2030  11.00000  0.05    0.42
Q3    1   0.0973  0.1113  0.3459  11.00000  0.05    0.36
Q4    1   0.0571  0.5499  0.0570  11.00000  0.05    0.34
Q5    1  -0.0186  0.4702  0.0593  11.00000  0.05    0.24
Q6    1  -0.0059  0.6220  0.1703  11.00000  0.05    0.23
Q7    1   0.0894  0.3733  0.1788  11.00000  0.05    0.22
Q8    1  -0.0651  0.4008  0.0190  11.00000  0.05    0.21
Q9    1   0.2546  0.0264  0.3669  11.00000  0.05    0.20
Q10   1   0.2026 -0.0823  0.3934  11.00000  0.05    0.19
Q11   1  -0.1165  0.3266  0.0164  11.00000  0.05    0.19
Q12   1  -0.0006  0.3277  0.1334  11.00000  0.05    0.18
Q13   1   0.0397  0.3773  0.0850  11.00000  0.05    0.18
Q14   1   0.1947  0.1502  0.4233  11.00000  0.05    0.17
Q15   1   0.1823  0.4121  0.0384  11.00000  0.05    0.15
Q16   1   0.1405  0.1035  0.4563  11.00000  0.05    0.14
Q17   1   0.1774 -0.0488  0.2737  11.00000  0.05    0.14
Q18   1   0.1041 -0.0127  0.4854  11.00000  0.05    0.14
Q19   1   0.0818  0.6722  0.1513  11.00000  0.05    0.14
Q20   1   0.0214  0.2294  0.0826  11.00000  0.05    0.14
;
_shelx_res_checksum              59376
_shelx_hkl_file
;
   2   0   0 18.2749 1.04824  13
  -2   0   0 17.9601 1.16078   8
   2   0   0 19.0465 0.68565   6
  -2   0   0 24.4945 1.25650   5
  -2   0   0 19.2960 0.95593   2
  -2   0   0 19.4690 1.30732   3
   4   0   0 9246.25 183.415   1
  -4   0   0 9354.48 178.648   2
  -4   0   0 9229.75 186.350   3
  -4   0   0 9689.48 183.744   5
   4   0   0 9476.37 178.420   6
  -4   0   0 9469.57 184.677   8
   4   0   0 9375.30 186.290  13
  -6   0   0 47.1711 3.52686   3
  -6   0   0 43.8578 2.38079   2
   6   0   0 44.2184 2.37025   6
   6   0   0 44.9692 2.82554   1
   6   0   0 42.3952 2.91528  13
  -6   0   0 40.0444 3.08506   5
  -6   0   0 39.2877 2.99067   8
   6   0   0 41.0745 3.46546  11
  -8   0   0 1643.38 36.1098   8
  -8   0   0 1602.38 35.2471   5
   8   0   0 1633.74 37.0438  11
   8   0   0 1634.20 33.3798   6
   8   0   0 1623.06 34.5099   1
  10   0   0 17.9477 2.87233   1
  10   0   0 16.2972 2.60361   6
 -10   0   0 14.6691 3.36237   8
  10   0   0 16.4401 4.27927  11
 -10   0   0 15.7987 3.25909   5
  -1  -1   0 1547.59 30.4472  13
   3  -1   0 25.4128 1.73651  13
   3  -1   0 26.9196 1.30293   1
   3  -1   0 28.0433 0.73212   6
  -3  -1   0 22.3422 1.66131   8
  -3  -1   0 25.3650 1.38849   2
   3   1   0 24.2233 1.77083  11
  -3   1   0 26.1016 1.62192   5
  -3   1   0 25.5730 1.61931   8
   3   1   0 24.9273 1.62101   1
  -3   1   0 27.1831 1.27121   2
  -3   1   0 26.2486 1.85792   3
   3   1   0 26.1946 1.31057   6
   3   1   0 25.8796 1.29304  13
   5  -1   0 953.665 19.7426   1
  -5  -1   0 965.202 21.2032   8
   5  -1   0 965.249 18.7586   6
   5  -1   0 947.937 21.2517  13
  -5  -1   0 971.828 19.7211   2
  -5  -1   0 974.097 20.5537   5
   5   1   0 945.069 21.5090  11
  -5   1   0 973.997 20.8651   5
  -5   1   0 983.765 21.6589   3
   5   1   0 910.612 19.5846  13
  -5   1   0 966.727 20.9232   8
   5   1   0 949.919 19.6106   6
   5   1   0 973.318 20.7326   1
  -5   1   0 968.473 19.3828   2
  -7  -1   0 36.1642 3.18411   5
  -7  -1   0 35.6192 2.55578   2
   7  -1   0 34.3281 2.24102   6
   7  -1   0 37.0126 3.88272  11
   7  -1   0 36.3247 2.72939   1
  -7  -1   0 39.4053 3.71404   8
  -7   1   0 34.0454 3.26524   8
  -7   1   0 34.4816 3.77146   3
  -7   1   0 36.7607 3.42844   5
   7   1   0 37.3396 3.16919   1
   7   1   0 37.9839 2.70337   6
   7   1   0 36.9506 4.26548  11
   9  -1   0 78.6542 6.37918  11
   9  -1   0 76.8745 4.56069   1
   9  -1   0 76.7788 4.21627   6
  -9  -1   0 82.6936 5.58335   5
  -9  -1   0 78.9331 5.93807   8
   9   1   0 80.6406 5.17110   1
   9   1   0 79.0598 4.69621   6
  -9   1   0 78.6833 5.68780   5
   9   1   0 85.3735 6.93877  11
  -9   1   0 70.3017 5.32461   8
 -11  -1   0 111.314 7.66264   8
  11  -1   0 106.876 8.55394  11
 -11  -1   0 96.5897 6.72559   5
  11   1   0 96.2909 7.78851  11
 -11   1   0 103.192 7.15068   5
 -11   1   0 93.5089 6.61411   8
   0  -2   0 1702.69 35.7895   1
   0  -2   0 1806.66 35.8949   6
   0   2   0 1794.13 35.5796   4
   0   2   0 1866.20 33.8207   7
   0   2   0 1846.28 33.6698  11
   0   2   0 1792.74 35.4701  10
   2  -2   0 620.541 13.9275  13
  -2  -2   0 612.968 13.0520   1
  -2  -2   0 619.982 13.1187   8
   2  -2   0 629.105 12.2638   1
  -2  -2   0 622.004 12.1761  13
  -2   2   0 624.650 13.7319   7
  -2   2   0 639.109 12.9478   5
   2   2   0 632.290 13.2911  11
  -2   2   0 619.119 13.0342   4
  -2   2   0 642.762 13.2734   3
   2   2   0 630.733 13.3550   1
   2   2   0 641.232 12.6803   6
  -2   2   0 632.141 12.5671  14
  -4  -2   0 2198.63 41.7621   2
  -4  -2   0 2129.76 41.8351   1
   4  -2   0 2131.11 41.3191   6
  -4  -2   0 2206.27 41.8646   5
  -4  -2   0 2209.01 42.9530   8
   4  -2   0 2210.91 43.7023  13
  -4  -2   0 2224.78 40.7942  14
   4  -2   0 2174.79 41.1267   1
   4  -2   0 2165.69 40.9030   6
  -4   2   0 2186.73 40.9911  14
   4   2   0 2104.26 42.7816   1
  -4   2   0 2239.13 43.2784   3
   4   2   0 2233.28 41.8001   6
   4   2   0 2193.51 43.1610  11
  -4   2   0 2203.34 42.2115   8
  -4   2   0 2198.95 42.4996   5
  -4   2   0 2228.70 41.0368   2
   6  -2   0 1633.75 31.9974   1
   6  -2   0 1607.07 30.9536   6
  -6  -2   0 1592.82 34.3021   8
  -6  -2   0 1609.52 32.3727   2
  -6  -2   0 1620.97 33.0071   5
   6  -2   0 1568.55 34.6758  13
   6   2   0 1613.76 32.6109   6
   6   2   0 1619.66 35.0616  11
  -6   2   0 1620.60 33.8104   5
  -6   2   0 1584.93 33.3162   8
   6   2   0 1600.40 33.8784   1
  -6   2   0 1710.61 35.0319   3
   8  -2   0 892.257 20.0156   1
   8  -2   0 894.023 19.1018   6
  -8  -2   0 873.550 20.0470   2
  -8  -2   0 854.318 21.0699   5
  -8  -2   0 877.107 22.6412   8
   8   2   0 885.414 21.9680   1
  -8   2   0 876.227 21.5335   8
   8   2   0 865.172 20.4827   6
  -8   2   0 923.083 23.5597   3
  -8   2   0 873.081 21.8610   5
   8   2   0 875.092 23.4751  11
 -10  -2   0 804.160 21.5046   5
 -10  -2   0 817.110 23.2435   8
  10  -2   0 831.887 19.5464   6
  10  -2   0 834.420 23.9925  11
  10   2   0 798.747 20.8099   6
  10   2   0 795.056 21.8820   1
 -10   2   0 914.461 26.7357   8
  10   2   0 820.162 24.8539  11
 -10   2   0 812.670 22.5408   5
  -1  -3   0 168.523 4.36420   8
   1  -3   0 168.104 4.37903  10
  -1  -3   0 174.104 4.88382   1
   1  -3   0 175.611 4.47618   1
  -1  -3   0 169.004 4.23521   6
   1  -3   0 171.112 3.87354   6
   1   3   0 163.897 4.80411   1
  -1   3   0 173.503 4.68553   3
   1   3   0 165.982 3.89015   9
  -1   3   0 161.410 5.06117   7
  -1   3   0 169.393 4.79188   4
  -1   3   0 172.642 3.96427   9
   1   3   0 166.550 4.78268  11
   1   3   0 178.505 4.32887   4
  -1   3   0 173.776 4.20235   5
  -3  -3   0 1176.72 23.9357   8
   3  -3   0 1121.45 21.4240   6
   3  -3   0 1144.09 22.3262   6
   3  -3   0 1178.22 25.2013  13
  -3  -3   0 1149.74 23.7617   1
  -3  -3   0 1178.49 22.4767   5
   3  -3   0 1161.60 22.5405   1
  -3   3   0 1137.28 23.4942   5
   3   3   0 1149.28 24.2899   1
  -3   3   0 1149.22 24.8089   7
   3   3   0 1188.83 23.2606   6
  -3   3   0 1209.73 22.3643   2
  -3   3   0 1197.79 22.8536   8
  -3   3   0 1213.96 24.1799   3
   3   3   0 1150.93 24.1360  11
   5  -3   0 15.7756 1.41999   1
   5  -3   0 15.8177 2.50594  13
  -5  -3   0 16.6787 1.77959   5
  -5  -3   0 18.0931 1.96535   2
  -5  -3   0 15.1087 1.68245   1
  -5  -3   0 16.9479 1.25309  14
  -5  -3   0 19.0357 2.37379   8
   5  -3   0 15.2213 0.95851   6
   5  -3   0 14.4480 0.98727   6
  -5   3   0 19.3833 1.39405   2
   5   3   0 16.3020 1.93699   6
  -5   3   0 18.2521 2.51636   3
   5   3   0 18.3182 2.63568  11
  -5   3   0 19.4337 2.33024   5
   5   3   0 17.2992 2.37083   1
  -5   3   0 15.5702 1.69228   8
  -7  -3   0 132.477 6.61914   8
  -7  -3   0 141.613 5.67036   2
  -7  -3   0 136.490 5.71813   5
   7  -3   0 133.820 4.95752   1
   7  -3   0 136.786 4.45953   6
   7  -3   0 129.684 6.90666  13
  -7   3   0 135.957 5.87161   8
  -7   3   0 137.528 6.47795   5
   7   3   0 140.765 5.93368   6
  -7   3   0 141.416 7.16011   3
   7   3   0 166.416 7.08371   1
   7   3   0 141.252 7.52814  11
   9  -3   0 13.3180 3.45812  11
  -9  -3   0 14.6903 3.46202   8
   9  -3   0 7.34546 1.53448   6
  -9  -3   0 6.55542 1.81905   2
  -9   3   0 7.22765 2.42847   3
   9   3   0 9.37416 3.20475  11
   9   3   0 6.48063 2.46877   1
   9   3   0 8.53181 2.31856   6
  -9   3   0 9.61048 2.50042   5
  11  -3   0 4.84671 1.51896   6
 -11  -3   0 8.14407 3.35116   8
  11  -3   0 8.32555 3.21154  11
  11   3   0 4.37244 2.25078   6
  11   3   0 2.81550 2.24969   1
 -11   3   0 3.84527 2.86754   5
  11   3   0 9.69557 4.55881  11
   0  -4   0 3036.95 63.9251   1
   0  -4   0 3209.56 62.3355   6
   0   4   0 3169.14 59.7787   9
   0   4   0 3118.69 61.5016  11
   0   4   0 3045.78 61.3209   4
   0   4   0 3224.14 60.3461  10
   0   4   0 3104.44 62.2279   7
   0   4   0 3142.09 60.4886   1
  -2  -4   0 6427.82 126.415   6
   2  -4   0 6346.99 124.419   6
  -2  -4   0 6598.99 131.304   1
   2  -4   0 6466.77 127.032   1
  -2  -4   0 6506.63 129.934   8
   2  -4   0 6681.07 134.850  10
   2   4   0 6628.89 128.085   6
  -2   4   0 6649.92 133.066   7
  -2   4   0 6581.73 130.509   3
  -2   4   0 6500.44 129.456   4
   2   4   0 6676.93 132.799   1
   2   4   0 6511.19 129.576   7
  -2   4   0 6572.65 128.673   5
   2   4   0 6692.08 131.877  11
  -4  -4   0 585.127 12.5390   5
   4  -4   0 584.432 15.8452  13
   4  -4   0 580.763 11.7117   6
   4  -4   0 601.439 12.7255   1
  -4  -4   0 587.049 14.4201   8
  -4  -4   0 571.204 14.0514   1
   4  -4   0 597.192 11.7452   6
   4   4   0 600.657 13.6810   6
  -4   4   0 588.650 15.4268   7
  -4   4   0 602.792 14.6371   3
   4   4   0 573.593 13.0613   7
  -4   4   0 601.190 13.9794   5
   4   4   0 600.365 14.9781  11
  -4   4   0 610.034 12.9578   8
   4   4   0 594.281 15.0060   1
   6  -4   0 1692.59 37.9653  13
   6  -4   0 1684.43 33.1097   1
  -6  -4   0 1550.15 33.8559   5
  -6  -4   0 1685.87 36.3076   8
  -6  -4   0 1709.16 34.5156   2
   6  -4   0 1700.09 32.1674   6
   6   4   0 1733.66 35.0201   6
   6   4   0 1670.30 36.5575   1
   6   4   0 1659.34 37.0086  11
  -6   4   0 1714.70 35.6468   5
  -6   4   0 1715.65 36.5207   3
  -8  -4   0 26.5903 3.01395   2
  -8  -4   0 17.6788 3.22397   8
  -8   4   0 15.2769 2.91483   5
   8   4   0 16.2521 2.73506   6
   8   4   0 20.5679 3.45875   1
  -8   4   0 15.3745 3.25497   3
   8   4   0 29.4143 4.84289  11
  10  -4   0 513.595 17.5682  11
 -10  -4   0 544.175 18.1937   8
 -10   4   0 525.682 17.0840   5
  10   4   0 510.730 18.9645  11
  10   4   0 539.317 16.1138   6
  10   4   0 526.137 17.2746   1
 -10   4   0 538.401 17.9090   3
  -1  -5   0 112.533 4.41648   1
  -1  -5   0 97.2674 3.38068   6
   1  -5   0 98.8975 3.26024   6
   1  -5   0 93.5645 3.83887   1
  -1  -5   0 100.979 3.38100   8
   1  -5   0 89.3306 2.29139  10
   1   5   0 101.420 4.10258  11
  -1   5   0 92.8422 3.33531   1
   1   5   0 100.139 2.88619   9
  -1   5   0 99.8408 3.09642   5
  -1   5   0 97.2331 4.38580   7
  -1   5   0 99.5368 4.09934   4
   1   5   0 96.8719 3.23528  10
   1   5   0 103.427 4.09655   1
  -1   5   0 99.8339 2.87857   9
  -1   5   0 103.760 3.95348   3
   1   5   0 94.7469 3.91553   7
  -3  -5   0 141.726 4.54972   6
  -3  -5   0 145.532 5.65796   1
  -3  -5   0 152.348 5.40402   8
   3  -5   0 143.651 6.60476  13
   3  -5   0 146.706 4.01597   6
   3  -5   0 140.396 5.83156  10
   3   5   0 145.862 4.89239   7
   3   5   0 146.813 5.87824   1
  -3   5   0 148.009 5.42924   3
   3   5   0 145.876 4.88305   6
  -3   5   0 143.562 6.30082   7
  -3   5   0 139.637 4.90803   5
   3   5   0 143.892 5.84058  11
  -5  -5   0 19.5299 2.62894   8
   5  -5   0 19.6428 1.66629   1
   5  -5   0 19.9924 1.36632   6
  -5  -5   0 18.7059 2.45654   1
   5  -5   0 19.8945 3.24424  13
  -5   5   0 16.7542 2.79522   7
  -5   5   0 17.8845 2.42446   5
   5   5   0 16.8706 2.99463  11
  -5   5   0 28.3436 3.22524   3
   5   5   0 31.4645 3.45819   1
   5   5   0 16.9912 2.24022   6
  -7  -5   0 130.930 6.03079   2
   7  -5   0 128.172 7.68223  13
  -7  -5   0 121.387 6.72926   8
   7  -5   0 126.253 4.29049   6
   7   5   0 114.390 7.62289  11
  -7   5   0 125.659 6.94305   3
  -7   5   0 119.478 6.09262   5
   7   5   0 117.774 7.06337   1
   7   5   0 125.050 5.96603   6
  -9  -5   0 46.3264 4.97525   8
   9  -5   0 48.4017 3.03528   6
  -9  -5   0 41.3031 3.97237   2
   9   5   0 44.3618 4.44557   6
   9   5   0 42.9867 5.35658   1
  -9   5   0 46.5091 5.16232   5
   9   5   0 49.4492 6.78733  11
  -9   5   0 50.4509 5.39213   3
   0  -6   0 2459.97 47.8969   6
   0  -6   0 2509.26 49.4814   1
   0  -6   0 2467.47 46.9588   8
   0   6   0 2498.54 46.6307   9
   0   6   0 2555.03 49.2210   3
   0   6   0 2508.24 48.6805   1
   0   6   0 2639.46 49.5914  11
   0   6   0 2516.61 49.9483   7
   2  -6   0 90.5910 3.34084   6
   2  -6   0 87.3581 5.22228  13
  -2  -6   0 77.9857 3.37641   6
  -2  -6   0 83.2025 3.64911   8
   2  -6   0 100.774 4.16408   1
  -2  -6   0 84.5644 4.47163   1
   2   6   0 86.6275 4.41300   1
  -2   6   0 88.7632 3.45062   5
   2   6   0 81.7583 2.97370   9
   2   6   0 79.2078 3.37403   6
  -2   6   0 80.2604 4.58078   7
   2   6   0 89.3143 4.53808  11
   2   6   0 83.2634 3.81815  10
  -2   6   0 82.7351 4.08817   3
   4  -6   0 2423.37 47.3346   1
   4  -6   0 2444.48 46.4102   6
  -4  -6   0 2457.01 49.7171   1
   4  -6   0 2441.77 52.1993  13
  -4  -6   0 2440.81 49.1141   8
   4   6   0 2467.85 50.2273  11
   4   6   0 2419.05 48.2252   6
  -4   6   0 2411.22 48.3038   5
  -4   6   0 2519.66 51.5810   7
  -4   6   0 2427.24 49.4390   3
   4   6   0 2501.02 50.7712   1
   6  -6   0 188.369 6.18654   1
  -6  -6   0 209.879 7.74985   2
   6  -6   0 205.163 5.86217   6
  -6  -6   0 193.531 8.46458   8
   6  -6   0 192.583 9.54663  13
   6   6   0 193.173 8.97516  11
   6   6   0 189.663 7.52408   6
  -6   6   0 212.637 8.01219   5
   6   6   0 191.933 8.96704   1
  -6   6   0 210.430 8.61456   3
  -8  -6   0 1514.39 33.1254   2
   8  -6   0 1512.55 30.0522   6
   8  -6   0 1406.94 36.9844  13
  -8  -6   0 1488.72 35.7933   8
   8   6   0 1489.55 36.3856   1
  -8   6   0 1498.44 35.2426   3
   8   6   0 1435.17 33.6307   6
  -8   6   0 1479.58 34.0719   5
   8   6   0 1472.75 37.1442  11
 -10  -6   0 132.384 8.87611   8
  10  -6   0 144.092 5.70168   6
  10   6   0 138.385 8.94900   1
  10   6   0 136.571 10.3185  11
 -10   6   0 166.191 9.48562   3
  -1  -7   0 372.984 9.67206   6
  -1  -7   0 366.441 9.14612   8
   1  -7   0 380.952 10.7802   1
  -1  -7   0 375.267 11.1558   1
   1  -7   0 378.035 9.57220   6
   1   7   0 368.026 10.5481   1
  -1   7   0 370.982 10.5065   3
   1   7   0 372.794 10.8875  11
  -1   7   0 376.172 11.6038   7
   1   7   0 367.874 10.9049   7
  -3  -7   0 696.592 16.6407   8
  -3  -7   0 709.640 18.0295   1
   3  -7   0 689.653 19.6119  13
   3  -7   0 687.962 15.2504   6
  -3   7   0 702.591 17.2769   3
  -3   7   0 665.801 15.7210   5
   3   7   0 707.051 18.1831   1
   3   7   0 705.560 17.9428  11
  -3   7   0 707.320 19.1182   7
   3   7   0 651.239 16.3113   7
   5  -7   0 74.9989 6.24553  13
  -5  -7   0 73.4035 4.94475   8
   5  -7   0 72.1456 3.67205   1
   5  -7   0 67.4973 3.22523   6
  -5  -7   0 67.1667 4.66991   1
  -5   7   0 69.1288 5.77045   7
   5   7   0 80.1784 5.68089   1
  -5   7   0 69.8765 4.33434   5
  -5   7   0 74.3402 4.85037   3
   5   7   0 62.6635 3.81217   9
   5   7   0 65.4932 5.51515  11
   7  -7   0 232.414 6.98366   6
   7  -7   0 213.774 11.2670  13
  -7  -7   0 221.357 8.63744   2
  -7  -7   0 225.649 9.98764   8
  -7   7   0 230.617 10.1270   3
   7   7   0 231.769 10.6288   1
   7   7   0 228.690 11.3022  11
  -7   7   0 230.149 9.30862   5
  -9  -7   0 40.9357 4.33566   2
   9  -7   0 48.1569 3.34969   6
  -9  -7   0 51.6676 6.13559   8
   9   7   0 42.0785 5.82088   1
  -9   7   0 51.4592 6.13473   3
  -9   7   0 40.9825 4.99965   5
   9   7   0 64.8667 8.07968  11
   0  -8   0 1500.17 32.1696   1
   0  -8   0 1459.55 30.0267   6
   0  -8   0 1480.11 33.3631  13
   0   8   0 1417.34 32.4409   7
   0   8   0 1461.69 31.4564   3
   0   8   0 1404.26 30.4677   1
   0   8   0 1451.30 31.7643  11
  -2  -8   0 1303.64 28.6678  13
   2  -8   0 1271.04 26.7102   6
   2  -8   0 1279.85 31.2974  13
  -2  -8   0 1273.30 29.5156   1
   2  -8   0 1325.52 28.5224   1
  -2  -8   0 1244.14 27.0204   6
   2   8   0 1202.83 28.2247   7
  -2   8   0 1289.56 30.4471   7
   2   8   0 1296.26 29.0684  11
   2   8   0 1254.13 28.8324   1
  -2   8   0 1315.86 28.5057   3
  -4  -8   0 861.512 21.8141   1
   4  -8   0 830.483 18.1855   6
   4  -8   0 803.495 23.4592  13
  -4  -8   0 812.618 20.0907   8
   4  -8   0 807.699 19.0552   1
  -4   8   0 790.147 20.3651   3
  -4   8   0 795.400 18.9798   5
  -4   8   0 818.261 22.8872   7
   4   8   0 800.954 21.5168  11
   4   8   0 806.484 21.8414   1
   6  -8   0 347.377 15.0808  13
   6  -8   0 383.589 10.0251   6
  -6  -8   0 384.478 13.2382   8
  -6  -8   0 359.532 12.7767   1
  -6  -8   0 374.076 11.9844   2
   6   8   0 347.413 13.9013   1
  -6   8   0 383.427 13.2050   3
   6   8   0 359.155 14.1329  11
  -6   8   0 368.937 11.9322   5
   8  -8   0 261.178 8.22217   6
  -8  -8   0 269.868 10.5266   2
  -8  -8   0 260.125 11.8227   8
   8   8   0 256.022 12.4753   1
  -8   8   0 262.719 11.5265   3
  -8   8   0 264.098 10.6852   5
   8   8   0 271.186 13.4736  11
   1  -9   0 171.553 8.73988  13
   1  -9   0 172.410 6.54451   6
  -1  -9   0 166.355 7.98862  13
  -1  -9   0 161.642 6.40502   6
   1  -9   0 163.272 7.50897   1
  -1  -9   0 168.650 7.78865   1
  -1   9   0 177.122 7.51572   3
   1   9   0 161.048 7.52127   7
  -1   9   0 169.678 8.37023   7
   1   9   0 163.953 7.10548   1
   1   9   0 170.371 7.84409  11
   1   9   0 166.939 7.51111   3
   3  -9   0 37.9141 3.05160   6
  -3  -9   0 40.1670 4.46346   1
   3  -9   0 41.0041 5.15072  13
  -3   9   0 40.1699 4.44680   7
   3   9   0 46.4514 5.18373  11
   3   9   0 42.2681 4.33716   1
  -3   9   0 45.9519 4.27671   3
   5  -9   0 133.204 9.09883  13
  -5  -9   0 132.663 7.16568   8
   5  -9   0 142.816 5.76773   6
   5  -9   0 141.477 6.20014   1
  -5  -9   0 146.949 8.10891   1
  -5   9   0 149.288 9.26120   7
   5   9   0 144.529 8.51059  11
  -5   9   0 136.320 7.34359   3
   5   9   0 149.884 8.41574   1
   7  -9   0 8.73091 1.84489   6
  -7  -9   0 10.0743 3.20079   8
  -7  -9   0 9.33261 2.47092   2
  -7   9   0 9.70386 2.32741   5
   7   9   0 9.60965 4.09653  11
  -7   9   0 15.5667 3.72177   3
   7   9   0 10.3260 3.56589   1
   0 -10   0 17.0303 2.99190   1
   0 -10   0 23.8782 3.74120  13
   0 -10   0 16.0936 2.34846   6
   0  10   0 16.8893 2.82263   3
   2 -10   0 1939.81 39.9956   6
   2 -10   0 1919.58 42.0923   1
  -2 -10   0 1974.62 43.8182   1
   2 -10   0 1886.04 45.5161  13
   2  10   0 1885.36 42.0230   1
  -2  10   0 1927.19 44.5384   7
   2  10   0 1914.89 42.9003  11
   2  10   0 1950.62 42.4580   3
  -2  10   0 1898.89 41.7436   3
  -4 -10   0 6.98076 2.83295   1
   4 -10   0 6.05756 1.90863   1
   4 -10   0 7.74979 2.77298  13
   4 -10   0 5.08782 1.62865   6
   4  10   0 3.97014 2.45046   1
  -4  10   0 12.7975 3.26342   7
  -4  10   0 1.81089 2.17130   3
   4  10   0 5.18493 3.17360  11
   6 -10   0 1367.00 29.3108   6
  -6 -10   0 1329.08 31.7236   2
   6  10   0 1328.00 34.8337  11
   6  10   0 1322.88 35.0200   1
  -1 -11   0 177.315 13.3296  13
   1 -11   0 171.056 8.76530   1
   1 -11   0 147.110 9.03030  13
  -1 -11   0 147.765 8.63543   1
  -1  11   0 160.480 8.26286   3
   1  11   0 155.503 8.63730  11
   1  11   0 155.407 8.28224   3
  -1  11   0 155.261 9.15481   7
   1  11   0 152.672 8.46834   7
   3 -11   0 90.5295 5.32105   6
  -3 -11   0 93.9646 7.29494   1
   3 -11   0 88.5195 6.04739   1
   3 -11   0 91.9232 8.04375  13
   3  11   0 83.8071 6.99033  11
  -3  11   0 88.1506 7.21713   7
  -3  11   0 95.7140 6.55283   3
   5 -11   0 153.188 7.29201   1
  -5 -11   0 160.397 9.49193   1
   5 -11   0 159.540 6.97455   6
  -5 -11   0 170.962 8.63349   2
  -5  11   0 173.334 10.4312   7
   5  11   0 146.353 9.34044   1
  -5  11   0 152.523 8.78973   3
   5  11   0 163.099 10.0920  11
   0 -12   0 463.150 16.5292   1
   0 -12   0 439.792 13.8319   6
   0  12   0 460.131 15.5980   3
   0  12   0 430.877 16.3451   7
  -2 -12   0 424.933 16.2052   1
   2 -12   0 402.734 12.8682   6
   2 -12   0 411.695 14.5774   1
  -2  12   0 394.832 16.2743   7
   2  12   0 393.997 14.7153   3
  -2  12   0 414.733 14.5297   3
   2  12   0 391.382 15.2250  11
  -4 -12   0 396.639 15.8548   1
  -4 -12   0 379.114 13.5815   2
   4 -12   0 380.793 12.3467   6
   4  12   0 369.666 15.3887  11
   4  12   0 375.668 14.8269   3
  -4  12   0 384.112 14.3845   3
  -4  12   0 357.085 15.9284   7
  -1 -13   0 8.94778 3.54831   1
   1 -13   0 0.57399 1.88943   6
   1 -13   0 4.65367 2.32589   1
  -1  13   0 5.18107 2.28910   3
  -1  13   0 1.99885 2.72633   7
   1  13   0 1.53356 2.62717   3
  -3 -13   0 0.32028 2.38750   2
   3 -13   0 1.45838 2.10614   1
   3 -13   0 2.18216 1.91451   6
  -3 -13   0 3.39106 3.04116   1
  -3  13   0 0.79620 3.04594   7
  -3  13   0 0.25619 2.31068   3
   3  13   0 1.10629 3.20953  11
   3  13   0 1.25561 2.67079   3
 -10   0   1 5.26806 2.09803   8
  10   0  -1 0.94593 1.50256   1
  10   0  -1 -0.9182 2.92921  11
  10   0  -1 5.79238 1.98036   6
 -10   0   1 0.99750 2.08683   5
   8   0  -1 1.48087 2.13059  11
   8   0  -1 0.05003 1.11791   1
   8   0  -1 5.10948 1.42675   6
  -8   0   1 0.18987 1.45918   5
  -8   0   1 4.07860 1.80555   8
  -6   0   1 1.83771 0.65739   2
  -6   0   1 1.18675 1.11890   8
   6   0  -1 1.12538 0.88771   1
   6   0  -1 1.54040 1.33239  11
  -6   0   1 3.50864 1.50052   3
   6   0  -1 0.33204 0.64252   6
   6   0  -1 0.14083 0.81366  13
  -6   0   1 4.35369 1.36529   5
   4   0  -1 1.15750 0.49981   6
  -4   0   1 1.12040 0.40116   2
   4   0  -1 1.70211 0.68860   1
  -4   0   1 0.99788 0.55788   8
  -4   0   1 0.62477 0.75156   3
  -4   0   1 0.46328 0.55734   5
   4   0  -1 2.58639 0.84750  13
  -4   0   1 1.51723 0.67360  12
   2   0  -1 0.98697 0.30659   6
   2   0  -1 0.64891 0.37302   1
   2   0  -1 0.67673 0.36229  13
  -2   0   1 1.15662 0.33545  12
   0   0   1 2.83412 0.53447  10
   0   0  -1 2.38153 0.42879  10
  -2   0  -1 2.25026 0.64194   5
  -2   0  -1 2.09676 0.59954   8
   2   0   1 4.60050 0.56715   1
   4   0   1 0.75568 0.60343   1
   4   0   1 1.49352 0.64810  13
   4   0   1 0.60080 0.33318   6
  -4   0  -1 0.43927 0.59370   2
  -4   0  -1 0.76478 0.87553   8
  -4   0  -1 0.61638 0.79384   5
   4   0   1 1.49381 0.38969   6
  -4   0  -1 -0.0110 0.45039  14
  -6   0  -1 0.56695 0.84565   2
  -6   0  -1 0.06700 1.22671   8
   6   0   1 2.31649 0.82354   6
   6   0   1 2.10772 1.57953  11
   6   0   1 2.00867 1.03116   1
   8   0   1 2.36028 1.25666   1
   8   0   1 3.14257 1.30739   6
  -8   0  -1 3.01268 2.03677   8
   8   0   1 3.58718 2.45347  11
  -8   0  -1 3.78462 2.06979   5
 -10   0  -1 4.08874 2.64492   8
 -10   0  -1 1.03708 1.77257   5
  10   0   1 6.07702 3.71242  11
  10   0   1 2.22692 1.81440   6
 -11  -1   1 290.142 11.3010   5
  11  -1  -1 292.442 13.2269  11
  11  -1  -1 285.656 9.95817   6
 -11  -1   1 282.448 12.0794   8
  11   1  -1 279.477 10.2922   6
 -11   1   1 282.299 11.5538   5
  11   1  -1 283.651 11.1099   1
 -11   1   1 279.348 11.2184   8
  11   1  -1 298.340 13.5015  11
  -9  -1   1 445.744 13.3835   5
   9  -1  -1 449.658 14.8110  11
   9  -1  -1 447.518 12.0205   6
  -9  -1   1 426.084 14.1352   8
   9  -1  -1 432.948 12.7784   1
   9   1  -1 448.568 12.6298   6
   9   1  -1 421.916 15.2553  11
  -9   1   1 428.789 13.5785   5
   9   1  -1 443.017 13.6155   1
  -9   1   1 435.847 13.7230   8
  -7  -1   1 1426.94 28.1312   8
   7  -1  -1 1181.00 24.9603   6
  -7  -1   1 1195.74 24.8787   2
  -7  -1   1 1216.18 26.5096   5
   7  -1  -1 1228.70 26.1972   1
   7  -1  -1 1155.13 27.6542  13
   7   1  -1 1227.23 28.2839  11
   7   1  -1 1240.39 27.1450   1
   7   1  -1 1209.77 25.7479   6
  -7   1   1 1227.84 28.1848   3
  -7   1   1 1224.66 26.7900   5
  -7   1   1 1172.12 26.6815   8
  -5  -1   1 1395.04 27.0349   2
   5  -1  -1 1360.69 27.6770   1
   5  -1  -1 1390.93 29.4053  13
  -5  -1   1 1318.78 27.2654   1
  -5  -1   1 1390.67 28.5352   8
  -5  -1   1 1395.51 27.8621   5
   5  -1  -1 1411.12 26.8271   6
   5   1  -1 1301.63 27.9715  13
  -5   1   1 1399.02 28.1087   8
   5   1  -1 1434.73 27.5115   6
   5   1  -1 1424.23 29.1751  11
  -5   1   1 1369.35 29.1393   3
  -5   1   1 1407.50 28.1952   5
  -5   1   1 1410.57 26.5099   2
   5   1  -1 1408.56 28.5953   1
   3  -1  -1 5020.01 97.2902   6
   3  -1  -1 5252.46 107.665  13
  -3  -1   1 5118.26 100.064  12
  -3  -1   1 5237.94 99.0413   5
  -3  -1   1 5096.74 100.964   1
   3  -1  -1 4969.27 99.3979   1
  -3   1   1 5146.57 99.5707  12
   3   1  -1 4954.72 102.140  13
  -3   1   1 4977.04 99.1239   5
  -3   1   1 5172.60 98.7721   8
   3   1  -1 4956.18 100.107  11
   3   1  -1 4930.79 102.800   1
   3   1  -1 4997.57 98.1210   6
  -3   1   1 4934.88 99.7102   3
   1  -1  -1 2289.84 49.4960  10
   1  -1  -1 2153.49 47.1478  13
  -1  -1   1 2233.02 46.2974  10
  -1   1   1 2224.09 50.0588  10
   1   1  -1 2215.51 46.2453  10
  -1  -1  -1 7839.82 152.736   2
  -1  -1  -1 8153.63 154.586   8
  -1   1  -1 8253.47 154.732   8
  -1   1  -1 8391.60 155.277   7
  -1   1  -1 7961.30 152.853  14
  -1   1  -1 8577.43 154.941   5
  -1   1  -1 8349.11 154.330   3
  -1   1  -1 7673.57 152.871   4
  -1   1  -1 7744.85 151.747   2
   1   1   1 8039.87 153.255  11
   1   1   1 8010.78 153.780   1
  -3  -1  -1 570.787 12.1162   2
  -3  -1  -1 549.158 11.4951  14
  -3  -1  -1 568.818 12.3647   5
  -3  -1  -1 579.710 13.0850   8
   3  -1   1 549.202 11.1528   1
   3  -1   1 567.210 12.7532  13
  -3   1  -1 562.724 12.9037   3
   3   1   1 541.252 10.9014  13
   3   1   1 567.646 12.7216  11
  -3   1  -1 579.959 12.7952   7
  -3   1  -1 586.722 11.7793  14
  -3   1  -1 551.767 12.6198   5
  -3   1  -1 582.673 12.0274   2
   3   1   1 549.164 12.2335   1
  -3   1  -1 561.229 11.8213   4
   3   1   1 569.398 11.4747   6
  -3   1  -1 571.032 12.8016   8
   5  -1   1 3003.59 56.4667   1
   5  -1   1 2820.86 55.2810   6
  -5  -1  -1 3054.51 58.8664   8
  -5  -1  -1 3030.15 57.1248   2
   5  -1   1 2953.53 57.7645   6
  -5  -1  -1 2970.34 55.9430  14
   5  -1   1 2941.72 58.0910  13
  -5  -1  -1 3029.64 58.0368   5
  -5   1  -1 3005.03 56.1002  14
  -5   1  -1 3097.80 58.6818   8
   5   1   1 2980.73 57.6583   1
  -5   1  -1 3003.10 56.8761   2
   5   1   1 3052.11 59.0021  11
  -5   1  -1 3053.35 58.4257   5
  -5   1  -1 3002.75 59.0013   3
   5   1   1 3103.74 56.6120   6
  -7  -1  -1 144.927 5.55034   2
  -7  -1  -1 138.549 6.42475   5
   7  -1   1 134.163 4.59183   6
  -7  -1  -1 139.824 6.87277   8
   7  -1   1 141.000 5.23670   1
   7  -1   1 147.729 6.85994  11
   7   1   1 148.908 7.42565  11
  -7   1  -1 129.012 6.39833   5
  -7   1  -1 140.151 6.61261   8
   7   1   1 135.431 5.27489   6
  -7   1  -1 127.088 4.99975   2
   7   1   1 140.362 5.96729   1
  -9  -1  -1 938.645 23.7374   5
   9  -1   1 934.209 21.0533   6
  -9  -1  -1 928.765 24.7481   8
   9  -1   1 932.752 25.1827  11
   9   1   1 924.908 25.5466  11
  -9   1  -1 947.796 24.1204   5
   9   1   1 907.296 22.6648   1
  -9   1  -1 920.355 24.0963   8
   9   1   1 954.147 22.0018   6
 -10  -2   1 137.421 7.17384   5
  10  -2  -1 142.380 6.74380   1
 -10  -2   1 149.483 8.14639   8
  10  -2  -1 144.558 8.70521  11
  10  -2  -1 141.762 6.14416   6
  10   2  -1 146.014 7.08436   6
  10   2  -1 145.190 9.38088  11
  10   2  -1 147.760 7.82491   1
 -10   2   1 134.345 7.57378   5
  -8  -2   1 378.324 11.3100   5
   8  -2  -1 366.808 10.7193   1
  -8  -2   1 381.398 12.4015   8
  -8  -2   1 369.051 10.1262   2
   8  -2  -1 362.825 9.82521   6
  -8   2   1 368.956 11.4273   8
   8   2  -1 388.247 13.4864  11
   8   2  -1 378.403 11.1118   6
  -8   2   1 379.487 11.9530   5
   8   2  -1 373.005 12.1362   1
  -8   2   1 424.095 13.4397   3
   6  -2  -1 454.353 11.1139   1
  -6  -2   1 445.315 12.2725   8
   6  -2  -1 456.059 10.3046   6
  -6  -2   1 456.055 11.3494   5
  -6  -2   1 439.233 10.7066   2
   6  -2  -1 445.979 13.2090  13
   6   2  -1 447.660 12.3796   1
  -6   2   1 449.981 11.4997   8
   6   2  -1 459.912 11.3840   6
  -6   2   1 451.596 12.7355   3
  -6   2   1 464.043 12.0979   5
   6   2  -1 467.570 13.1453  11
  -4  -2   1 1323.98 26.6015  12
  -4  -2   1 1371.01 25.9276   5
  -4  -2   1 1288.42 26.4031   1
  -4  -2   1 1323.37 26.9396   8
   4  -2  -1 1306.20 26.0344   1
   4  -2  -1 1325.39 25.1312   6
   4  -2  -1 1329.58 28.1009  13
  -4   2   1 1315.27 25.9451   8
  -4   2   1 1334.35 27.2479   3
   4   2  -1 1360.13 26.4137  13
  -4   2   1 1312.41 26.4759   5
   4   2  -1 1350.37 26.1807   6
   4   2  -1 1289.97 27.1758   1
   4   2  -1 1339.08 27.2625  11
   2  -2  -1 2886.29 64.8499  10
  -2  -2   1 2834.65 57.8164  12
   2  -2  -1 2865.08 56.6506   6
   2  -2  -1 2975.77 55.0152  13
  -2  -2   1 2877.73 57.6967   1
   2  -2  -1 2891.80 58.5841   1
  -2   2   1 2966.29 58.0537   3
   2   2  -1 2856.76 56.4994   6
  -2   2   1 2907.30 54.6954   7
  -2   2   1 2817.78 57.1187   9
   2   2  -1 2949.12 57.3637  11
   2   2  -1 2910.47 58.3609   1
  -2   2   1 2934.09 56.8026  12
   0  -2   1 2918.15 60.1584   1
   0  -2  -1 2840.93 60.7242   1
   0  -2   1 3120.20 58.2988   6
   0  -2   1 3204.70 61.1865  10
   0  -2  -1 3202.07 67.0999  10
   0  -2  -1 3007.21 63.1334  13
   0   2  -1 2987.20 62.0657   7
   0   2   1 3017.88 59.7947   9
   0   2  -1 3026.43 59.5420   4
   0   2   1 3130.69 66.3681  10
   0   2   1 3122.05 61.2084  11
   0   2  -1 3121.76 59.9682  11
   0   2  -1 3108.91 58.6487  14
   0   2  -1 3254.17 62.5926   3
   0   2   1 3132.04 63.3632   1
  -2  -2  -1 3398.88 65.3474   2
  -2  -2  -1 3330.23 64.9668   5
  -2  -2  -1 3357.65 67.1241   8
  -2  -2  -1 3284.28 61.9392   1
  -2   2  -1 3345.19 65.3464   7
   2   2   1 3306.43 66.5334   6
  -2   2  -1 3360.83 62.1563   5
   2   2   1 3268.81 62.2106  11
  -2   2  -1 3453.75 64.6968  14
  -2   2  -1 3362.35 66.4831   8
   2   2   1 3331.46 67.3558   1
  -2   2  -1 3278.08 64.3641   3
  -2   2  -1 3184.41 63.9827   4
  -2   2  -1 3376.37 65.3733   2
  -4  -2  -1 1229.18 25.0977   5
   4  -2   1 1235.02 23.5540   1
  -4  -2  -1 1201.08 24.0073  14
  -4  -2  -1 1239.72 24.9807   2
  -4  -2  -1 1266.76 26.3655   8
   4  -2   1 1228.33 26.3870  13
  -4  -2  -1 1186.01 24.5095   1
  -4   2  -1 1205.69 24.4951   2
  -4   2  -1 1248.91 26.1637   3
   4   2   1 1229.89 26.1221  11
   4   2   1 1225.46 25.7359   1
  -4   2  -1 1276.17 26.4914   7
  -4   2  -1 1241.21 25.7708   5
  -4   2  -1 1226.61 24.4017  14
  -4   2  -1 1272.65 25.7463   8
   4   2   1 1266.93 24.6476   6
  -4   2  -1 1253.90 24.9707   4
  -6  -2  -1 710.646 16.5031   2
   6  -2   1 712.786 15.4437   1
   6  -2   1 723.197 14.4779   6
   6  -2   1 685.509 17.8559  13
  -6  -2  -1 743.869 17.3820   5
  -6  -2  -1 721.714 18.2481   8
   6   2   1 723.462 18.7194  11
  -6   2  -1 728.034 17.6871   8
  -6   2  -1 730.081 17.8208   5
   6   2   1 727.455 17.6179   1
  -6   2  -1 711.805 18.2813   3
  -6   2  -1 714.926 15.8907   2
   6   2   1 736.260 16.4171   6
  -8  -2  -1 507.049 14.5483   5
  -8  -2  -1 497.391 15.7395   8
  -8  -2  -1 491.577 13.4264   2
   8  -2   1 508.173 11.9832   6
   8  -2   1 511.285 15.6527  11
   8   2   1 483.676 16.1219  11
  -8   2  -1 516.514 16.3556   3
   8   2   1 502.064 13.5846   6
  -8   2  -1 508.902 14.9570   8
  -8   2  -1 494.938 15.1957   5
   8   2   1 488.594 14.5044   1
  10  -2   1 195.930 10.2781  11
 -10  -2  -1 183.752 9.93185   8
  10  -2   1 194.871 7.23677   6
 -10   2  -1 187.917 9.55225   5
  10   2   1 189.623 8.15055   6
  10   2   1 192.174 8.88457   1
  10   2   1 199.884 10.8455  11
  11  -3  -1 97.1011 7.80345  11
 -11  -3   1 86.3552 7.17731   8
  11  -3  -1 98.9986 5.22371   6
  11   3  -1 92.5742 6.80966   1
  11   3  -1 90.5503 8.80441  11
  11   3  -1 92.3992 5.89602   6
 -11   3   1 77.2427 6.57141   5
  -9  -3   1 1303.99 31.7879   8
  -9  -3   1 1279.14 28.3587   2
  -9  -3   1 1244.75 29.4204   5
   9  -3  -1 1332.96 27.8333   6
   9   3  -1 1338.88 29.9967   6
   9   3  -1 1372.65 33.8635  11
   9   3  -1 1338.10 31.6902   1
  -9   3   1 1384.08 32.6122   3
  -9   3   1 1274.17 30.5649   5
   7  -3  -1 211.500 6.70117   1
  -7  -3   1 202.448 6.96867   5
  -7  -3   1 210.414 8.21994   8
   7  -3  -1 194.550 8.79275  13
   7  -3  -1 206.975 6.06659   6
  -7  -3   1 212.766 6.87700   2
  -7   3   1 198.341 6.94894   8
   7   3  -1 199.272 7.18737   6
  -7   3   1 207.255 8.54683   3
   7   3  -1 219.647 8.51215   1
  -7   3   1 211.024 7.84062   5
   7   3  -1 191.585 8.42724  11
   5  -3  -1 2564.27 52.2552  13
   5  -3  -1 2553.92 48.9987   1
  -5  -3   1 2625.93 50.7072   8
  -5  -3   1 2477.24 49.7259   1
  -5  -3   1 2573.06 48.8364   5
   5  -3  -1 2560.19 47.9515   6
  -5   3   1 2595.59 49.9563   5
  -5   3   1 2576.20 50.8369   3
   5   3  -1 2555.78 51.0094  11
  -5   3   1 2599.84 49.0069   8
   5   3  -1 2596.62 51.1216   1
   5   3  -1 2539.51 49.4248   6
   3  -3  -1 996.329 20.1431   1
  -3  -3   1 1003.04 20.3155  12
   3  -3  -1 1028.17 22.2971  13
   3  -3  -1 1017.34 19.3457   6
  -3  -3   1 970.619 20.7498   1
  -3  -3   1 983.503 19.7354   6
  -3  -3   1 1017.73 19.2748   5
   3  -3  -1 998.285 22.7242  10
   3   3  -1 1005.35 20.9663  11
  -3   3   1 1004.60 20.2109   5
   3   3  -1 1021.44 19.1757   4
  -3   3   1 1014.36 20.2120   9
   3   3  -1 1012.22 20.6822   7
   3   3  -1 991.617 21.2237   1
  -3   3   1 1020.80 20.9508   3
   3   3  -1 1020.01 20.1524   6
  -3   3   1 973.706 21.7496   7
  -1  -3   1 3096.60 59.0776   6
   1  -3  -1 3018.25 65.5332  13
   1  -3  -1 3052.26 65.7746  10
   1  -3  -1 2894.55 62.1126   1
   1  -3  -1 3017.45 60.7647   6
  -1  -3   1 3077.15 57.9637  12
  -1  -3   1 2988.46 63.1861   1
  -1   3   1 3091.06 60.5219   1
   1   3  -1 3016.14 58.0031  11
   1   3  -1 2955.90 60.6759   7
  -1   3   1 3143.17 67.5603  10
   1   3  -1 3081.31 59.9165   1
   1   3  -1 3053.09 62.0905   4
  -1   3   1 3021.95 63.0501   7
  -1   3   1 3023.01 59.5502   9
   1   3  -1 3043.95 61.1513  10
  -1   3   1 2918.70 60.0302   3
  -1  -3  -1 2815.56 56.0072   1
  -1  -3  -1 2753.28 55.8205  13
   1  -3   1 2829.95 53.1294   6
   1  -3   1 2755.55 57.4033   1
   1  -3   1 2847.12 53.1482   6
  -1  -3  -1 2727.05 57.4912   8
   1   3   1 2947.30 55.7495  11
  -1   3  -1 2891.26 52.9207   5
  -1   3  -1 2929.65 53.1238   3
   1   3   1 2885.24 63.7544  10
  -1   3  -1 2924.09 55.7051  14
   1   3   1 2850.63 54.2600   6
   1   3   1 2852.11 56.3841   1
   1   3   1 2837.08 55.3374   9
  -1   3  -1 2827.89 53.5615   4
  -1   3  -1 2820.89 54.0268   7
   3  -3   1 2696.13 54.6024   1
  -3  -3  -1 2754.91 51.9721   5
  -3  -3  -1 2791.32 53.6090   8
  -3  -3  -1 2721.94 52.9728   1
  -3  -3  -1 2757.27 52.6531   2
   3   3   1 2745.02 53.5695  11
  -3   3  -1 2851.15 52.1672   2
   3   3   1 2797.69 52.4961   6
   3   3   1 2776.09 53.7675   1
  -3   3  -1 2829.90 53.4825   3
  -3   3  -1 2779.25 53.1551   5
  -3   3  -1 2857.57 54.2915   7
  -3   3  -1 2769.73 52.5393  14
  -3   3  -1 2814.05 52.6927   8
  -3   3  -1 2774.81 53.0803   4
  -5  -3  -1 1084.90 24.4412   8
  -5  -3  -1 1031.63 22.4886   5
  -5  -3  -1 1047.01 21.4579  14
   5  -3   1 1039.03 20.9345   1
  -5  -3  -1 1095.67 22.8662   2
   5  -3   1 1080.60 24.9349  13
  -5   3  -1 1079.90 24.2011   3
  -5   3  -1 1066.96 22.0741  14
  -5   3  -1 1061.31 23.2535   8
   5   3   1 1065.90 24.5758  11
  -5   3  -1 1079.44 21.9815   2
  -5   3  -1 1097.03 23.7897   5
   5   3   1 1063.03 22.6733   6
   5   3   1 1069.88 24.0759   1
  -5   3  -1 1092.95 24.6681   7
  -7  -3  -1 1196.08 28.6295   8
  -7  -3  -1 1223.38 26.8077   5
  -7  -3  -1 1200.77 26.2934   2
   7  -3   1 1199.91 23.6916   6
  -7   3  -1 1223.68 28.5405   3
  -7   3  -1 1190.11 27.8027   5
   7   3   1 1176.88 26.4196   6
   7   3   1 1208.72 27.9925   1
   7   3   1 1201.68 29.4645  11
  -7   3  -1 1206.59 27.2636   8
  -9  -3  -1 244.014 8.93397   2
   9  -3   1 243.851 10.8906  11
  -9  -3  -1 249.816 11.2390   8
   9  -3   1 255.113 7.55543   6
  -9   3  -1 258.736 10.6788   5
   9   3   1 249.142 9.39186   6
   9   3   1 249.478 10.2221   1
   9   3   1 240.161 12.0543  11
  10  -4  -1 105.778 5.07606   6
 -10  -4   1 107.971 7.18876   8
  10   4  -1 116.203 6.67084   6
  10   4  -1 104.522 8.92535  11
 -10   4   1 111.702 7.86973   3
 -10   4   1 114.621 7.28687   5
  10   4  -1 113.829 7.58787   1
  -8  -4   1 320.838 11.7826   8
   8  -4  -1 311.088 9.30680   1
   8  -4  -1 309.851 12.5827  13
  -8  -4   1 326.169 9.89729   2
   8  -4  -1 321.430 8.78242   6
   8   4  -1 317.367 12.7111  11
   8   4  -1 305.780 10.4262   6
  -8   4   1 329.020 12.1378   3
   8   4  -1 314.999 11.8420   1
  -8   4   1 324.703 11.1856   5
  -6  -4   1 113.897 5.69351   8
  -6  -4   1 110.760 4.94571   1
   6  -4  -1 112.300 4.42514   1
   6  -4  -1 108.438 3.78856   6
   6  -4  -1 113.407 6.52278  13
  -6  -4   1 108.345 4.24194   5
   6   4  -1 113.678 5.96902   1
   6   4  -1 108.657 4.81796   6
   6   4  -1 120.754 6.34845  11
  -6   4   1 110.594 5.80879   3
  -6   4   1 118.604 5.33917   5
  -4  -4   1 365.244 8.16334   5
  -4  -4   1 371.729 9.93419   8
  -4  -4   1 375.071 10.0424   1
   4  -4  -1 380.564 8.36100   6
   4  -4  -1 370.446 9.08021   1
   4  -4  -1 362.364 11.4045  13
  -4   4   1 359.695 11.0795   7
   4   4  -1 352.745 9.49397   7
   4   4  -1 369.855 10.4382  11
   4   4  -1 363.709 9.27861   6
  -4   4   1 386.185 10.3566   3
  -4   4   1 365.971 9.40529   5
  -4   4   1 373.222 8.17909   8
   4   4  -1 362.594 10.4906   1
   2  -4  -1 279.128 7.89910  10
  -2  -4   1 297.953 7.02628   6
   2  -4  -1 291.962 8.80779  13
  -2  -4   1 289.953 7.85597   1
   2  -4  -1 283.605 6.66844   6
  -2  -4   1 288.578 6.77758  12
   2   4  -1 282.073 6.86111   6
   2   4  -1 292.298 6.98727   4
   2   4  -1 287.202 7.88769   1
  -2   4   1 306.980 7.77938   3
  -2   4   1 284.013 6.90334   1
  -2   4   1 284.268 6.79916   9
   2   4  -1 296.648 7.78743  11
  -2   4   1 281.290 8.31837   7
  -2   4   1 288.173 6.78380   5
   2   4  -1 285.126 7.61004   7
   0  -4   1 4.16568 0.65608   6
   0  -4   1 2.73919 0.72012   1
   0  -4  -1 6.19845 0.66934   8
   0  -4  -1 4.13390 0.76284   6
   0  -4  -1 2.95705 0.85843  13
   0  -4  -1 2.80783 0.77923   1
   0   4   1 6.37220 0.81936   9
   0   4  -1 3.56844 0.71089   1
   0   4   1 3.65564 0.78170  10
   0   4  -1 6.12147 1.08244   4
   0   4  -1 2.23845 0.83021  11
   0   4   1 3.43823 0.87519   1
   0   4  -1 3.27558 0.81567   3
   0   4   1 6.30265 1.14456  11
   2  -4   1 241.277 4.94226   6
  -2  -4  -1 247.243 6.89974   8
   2  -4   1 240.881 4.94022   6
  -2  -4  -1 241.080 5.78332  13
  -2  -4  -1 233.180 7.10948   1
   2  -4   1 235.181 5.85691   1
  -2   4  -1 244.137 6.82798   3
   2   4   1 244.239 7.18815  11
   2   4   1 254.619 8.39026  10
  -2   4  -1 241.153 7.14775   4
  -2   4  -1 249.249 7.76308   7
  -2   4  -1 238.392 6.57930   5
   2   4   1 247.986 5.95708   7
   2   4   1 252.159 6.53977   6
  -2   4  -1 241.064 5.97885   8
   2   4   1 271.045 7.59763   1
  -4  -4  -1 0.90513 0.84827   1
  -4  -4  -1 3.36147 0.80507   5
  -4  -4  -1 1.09139 0.84606   8
  -4  -4  -1 3.57012 1.19539   2
   4  -4   1 2.97630 0.64266   1
   4  -4   1 6.00092 1.67478  13
  -4   4  -1 2.00489 0.95894   5
   4   4   1 0.75904 0.86772   6
  -4   4  -1 1.15693 1.14174   3
  -4   4  -1 5.23468 1.17277   8
  -4   4  -1 1.85568 1.33011   7
  -4   4  -1 2.56663 1.16676   4
   4   4   1 2.97604 1.58482  11
   6  -4   1 25.9594 3.37656  13
  -6  -4  -1 27.8669 2.99293   2
   6  -4   1 28.3448 1.42522   6
  -6  -4  -1 30.8235 3.38148   8
  -6   4  -1 34.3101 3.59726   3
  -6   4  -1 29.1070 2.64504   8
   6   4   1 29.5481 2.91615   6
   6   4   1 36.1690 3.69731   1
  -6   4  -1 37.7155 3.55529   5
   6   4   1 32.6694 4.25452  11
  -8  -4  -1 39.0785 3.35643   2
   8  -4   1 42.6161 2.49789   6
  -8  -4  -1 40.7689 5.12643   8
  -8   4  -1 40.2505 4.63470   5
   8   4   1 35.8024 4.48468   1
   8   4   1 35.5845 5.48913  11
   8   4   1 42.6466 3.94983   6
  -8   4  -1 43.3941 4.98782   3
  10  -4   1 0.18994 2.80141  11
 -10  -4  -1 2.35812 2.69743   8
  10  -4   1 1.24564 1.22973   6
  10   4   1 3.40539 2.11974   6
 -10   4  -1 2.44273 2.57403   5
  10   4   1 1.02367 2.08968   1
  10   4   1 4.12069 3.91929  11
   9  -5  -1 242.016 7.81911   6
  -9  -5   1 243.761 9.01347   2
  -9  -5   1 257.999 11.3008   8
   9   5  -1 242.432 9.79170   6
  -9   5   1 250.213 11.1455   3
  -9   5   1 241.745 9.97663   5
   9   5  -1 252.142 11.3573   1
   9   5  -1 266.922 12.9079  11
  -7  -5   1 874.184 22.2362   8
   7  -5  -1 851.045 19.2883   1
   7  -5  -1 860.743 18.5049   6
   7  -5  -1 814.695 23.7680  13
  -7  -5   1 863.650 20.1973   2
   7   5  -1 856.042 20.7620   6
  -7   5   1 877.304 22.3067   3
   7   5  -1 862.981 22.7990   1
   7   5  -1 877.681 23.2894  11
  -7   5   1 864.059 21.1201   5
  -5  -5   1 1092.34 24.5651   1
  -5  -5   1 1110.75 24.8568   8
   5  -5  -1 1094.19 23.1719   1
   5  -5  -1 1116.46 22.2439   6
   5  -5  -1 1096.90 27.1778  13
  -5   5   1 1095.96 23.9553   5
   5   5  -1 1094.40 23.8340   7
  -5   5   1 1143.67 25.2760   3
   5   5  -1 1092.79 25.6943   1
   5   5  -1 1141.88 25.7364  11
   5   5  -1 1082.37 23.7499   6
   3  -5  -1 3214.12 63.2761  13
   3  -5  -1 3090.58 61.8178  10
   3  -5  -1 3277.44 60.4542   1
   3  -5  -1 3122.66 63.4380   6
  -3  -5   1 3122.42 59.5768   6
  -3  -5   1 3174.64 61.2778   1
  -3  -5   1 3226.22 60.6343   8
  -3   5   1 3156.43 59.5053   9
  -3   5   1 3080.42 59.6410   5
  -3   5   1 3156.95 62.5156   7
   3   5  -1 3219.20 60.7153   7
   3   5  -1 3095.65 59.7604   6
   3   5  -1 3192.21 61.3308  11
   3   5  -1 3122.30 59.1413   4
   3   5  -1 3201.63 61.7130   1
  -3   5   1 3224.89 61.0111   3
   1  -5  -1 2146.56 41.0555   6
   1  -5  -1 2159.83 42.3605   1
  -1  -5   1 2204.58 42.3089   1
   1  -5  -1 2194.19 43.3860  13
   1  -5  -1 2001.09 44.2304  10
  -1  -5   1 2186.94 41.0489   6
   1   5  -1 2195.81 41.9034   1
  -1   5   1 2107.09 42.6755   7
   1   5  -1 2183.14 42.5859   7
  -1   5   1 2162.62 40.1425   5
   1   5  -1 2142.29 41.7494   4
  -1   5   1 2149.32 42.0562   3
  -1   5   1 2169.24 40.5730   9
  -1   5   1 2174.45 42.1919  11
  -1   5   1 2135.91 41.1678  10
   1   5  -1 2187.74 42.1929  11
  -1   5   1 2158.41 41.5799   1
   1  -5   1 2841.35 56.8697   1
   1  -5   1 3139.04 60.6206   6
  -1  -5  -1 3061.89 57.5625  13
  -1  -5  -1 2933.22 56.6507   6
  -1  -5  -1 2997.40 56.7744   8
  -1  -5  -1 3068.19 58.3973   1
  -1   5  -1 3006.22 58.8369   7
   1   5   1 3036.34 56.3380   9
   1   5   1 2991.67 57.8436  11
  -1   5  -1 3031.41 58.1140   4
   1   5   1 3139.66 58.4125   1
   1   5   1 2952.01 56.6308   6
   1   5   1 2946.74 57.1591   7
  -1   5  -1 3034.89 57.3698   3
  -1   5  -1 3084.24 56.4535   5
   1   5   1 3046.96 64.4309  10
   3  -5   1 734.853 15.6208   1
  -3  -5  -1 702.568 15.2521  13
   3  -5   1 716.361 14.4935   6
   3  -5   1 740.422 14.5249   6
  -3  -5  -1 743.253 17.5674   1
  -3  -5  -1 755.489 17.3721   8
  -3   5  -1 761.911 18.7938   7
   3   5   1 750.109 19.7201  10
   3   5   1 756.701 17.9857  11
  -3   5  -1 775.743 16.9466   5
  -3   5  -1 772.321 17.4225   3
   3   5   1 742.063 18.0827   1
  -3   5  -1 753.498 17.7314   4
   3   5   1 762.386 16.7079   6
  -5  -5  -1 913.612 21.8334   1
   5  -5   1 933.364 19.5759   1
   5  -5   1 978.069 18.5882   6
  -5  -5  -1 955.180 21.6665   2
  -5  -5  -1 979.882 23.2477   8
   5  -5   1 969.627 24.7032  13
  -5   5  -1 977.824 22.3610   5
   5   5   1 959.618 23.6806   1
   5   5   1 962.646 23.6197  11
  -5   5  -1 1001.67 23.0039   3
  -5   5  -1 1008.71 24.3299   7
   5   5   1 969.900 21.8738   6
   7  -5   1 221.302 5.90111   6
   7  -5   1 260.786 10.9343  13
  -7  -5  -1 216.316 9.68072   8
  -7  -5  -1 212.912 8.25073   2
   7   5   1 208.097 8.38319   6
   7   5   1 213.098 9.70817   1
  -7   5  -1 228.046 9.67087   3
  -7   5  -1 219.000 9.08877   5
   7   5   1 216.527 10.2165  11
  -9  -5  -1 450.776 13.6763   2
   9  -5   1 430.286 10.8616   6
  -9  -5  -1 418.367 15.7165   8
  -9   5  -1 409.492 14.5566   5
   9   5   1 419.422 16.8134  11
   9   5   1 426.210 15.3212   1
  -9   5  -1 452.575 15.8054   3
 -10  -6   1 144.191 9.03457   8
 -10  -6   1 135.476 6.91321   2
  10  -6  -1 143.042 6.15470   6
  10   6  -1 133.952 8.65912   1
 -10   6   1 139.837 7.80802   5
  10   6  -1 155.247 10.8809  11
 -10   6   1 153.677 9.01270   3
  -8  -6   1 60.3317 5.20977   8
   8  -6  -1 63.4026 3.53875   6
  -8  -6   1 63.0276 4.29027   2
   8  -6  -1 58.9035 6.16060  13
  -8   6   1 65.2465 5.28266   3
   8   6  -1 60.8404 4.53358   6
   8   6  -1 58.7002 5.70281   1
  -8   6   1 65.7173 5.20005   5
   8   6  -1 68.7175 6.82179  11
  -6  -6   1 336.887 11.0604   1
   6  -6  -1 355.901 9.11647   6
   6  -6  -1 352.621 9.83744   1
  -6  -6   1 370.375 11.8527   8
   6  -6  -1 340.157 13.3061  13
   6   6  -1 341.831 12.4193   1
   6   6  -1 354.046 12.3514  11
  -6   6   1 355.422 10.7562   5
  -6   6   1 361.930 11.8212   3
   6   6  -1 345.605 10.6371   6
   4  -6  -1 104.320 6.36588  13
   4  -6  -1 105.057 4.51665   1
  -4  -6   1 104.626 5.04505   8
  -4  -6   1 104.369 5.11933   1
   4  -6  -1 101.010 3.85107   6
   4   6  -1 96.3939 4.58670   7
   4   6  -1 97.1282 4.30915   6
   4   6  -1 101.259 5.48873  11
  -4   6   1 103.724 4.42172   5
  -4   6   1 101.443 5.93808   7
   4   6  -1 132.466 5.97379   1
  -4   6   1 110.110 5.31561   3
   2  -6  -1 74.4720 4.78659  13
   2  -6  -1 75.2312 3.91255   1
  -2  -6   1 69.9328 3.90567   1
  -2  -6   1 70.3838 3.34090   8
   2  -6  -1 71.5032 3.13157   6
   2  -6  -1 67.2108 3.40697  10
  -2  -6   1 73.4079 3.23109   6
  -2   6   1 78.4212 3.95307   3
   2   6  -1 78.9206 3.50051   4
   2   6  -1 68.5378 3.77830   1
   2   6  -1 69.7752 3.94088  11
   2   6  -1 69.7543 3.76221   7
  -2   6   1 68.5413 2.88849   5
  -2   6   1 62.8549 2.96495   1
   2   6  -1 68.6275 2.74362  10
  -2   6   1 70.8338 4.36167   7
   0  -6  -1 229.087 7.67037  13
   0  -6  -1 216.044 5.53362   8
   0  -6  -1 223.785 6.35232   6
   0  -6  -1 222.777 7.48085   1
   0  -6   1 218.713 6.98550   1
   0  -6   1 238.894 6.26867   6
   0   6   1 217.730 5.70652   9
   0   6  -1 222.479 7.15385  11
   0   6  -1 219.866 5.17997   5
   0   6   1 216.107 7.01184   1
   0   6  -1 207.725 6.19838   1
   0   6   1 221.711 7.22865   7
   0   6   1 223.667 7.18921  11
   0   6  -1 221.458 7.73102   7
   0   6  -1 222.899 7.12420   4
   0   6   1 223.513 6.13048  10
   0   6  -1 225.546 6.83676   3
  -2  -6  -1 15.8027 1.61817  13
   2  -6   1 13.7637 1.58775   1
  -2  -6  -1 15.5141 2.19384   1
   2  -6   1 12.8817 1.36990  10
  -2  -6  -1 14.6524 1.86416   8
   2  -6   1 14.4070 1.29952   6
   2   6   1 13.6559 1.68084   6
  -2   6  -1 24.0454 2.79830   4
   2   6   1 13.2462 2.32652  11
  -2   6  -1 17.6154 2.19844   3
   2   6   1 12.1027 1.97862   1
   2   6   1 13.2941 1.65348   7
   2   6   1 15.2379 1.51200   9
  -2   6  -1 22.0758 1.86389   5
   2   6   1 14.0031 1.98683  10
  -2   6  -1 13.7771 2.28076   7
   4  -6   1 59.9044 2.84991   1
   4  -6   1 67.7378 5.20992  13
   4  -6   1 59.7424 2.38619   6
  -4  -6  -1 60.9003 3.65504   2
  -4  -6  -1 65.4367 4.30778   8
  -4  -6  -1 59.5043 3.88483   1
   4   6   1 65.3137 4.81752  11
  -4   6  -1 62.8911 4.87970   7
   4   6   1 58.3875 4.96641  10
   4   6   1 62.3430 4.45334   1
   4   6   1 61.7436 3.61949   9
  -4   6  -1 61.4334 3.78159   5
  -4   6  -1 65.0962 4.26472   3
   4   6   1 60.5015 3.67062   6
  -6  -6  -1 13.9481 2.44967   2
   6  -6   1 25.5435 4.07633  13
  -6  -6  -1 17.7025 3.40830   8
   6  -6   1 15.5873 1.53302   6
   6   6   1 12.1227 3.40943  10
  -6   6  -1 12.1563 3.12200   7
  -6   6  -1 18.3362 2.98495   5
   6   6   1 17.1030 2.52745   6
   6   6   1 13.1567 3.03004   1
   6   6   1 11.9901 3.42408  11
  -6   6  -1 17.0739 2.99955   3
   8  -6   1 1.80821 0.97450   6
  -8  -6  -1 2.07924 2.07001   2
  -8  -6  -1 2.82279 2.62874   8
   8   6   1 12.2748 3.31483   1
   8   6   1 0.12333 1.78927   6
  -8   6  -1 2.84456 2.18909   5
  -8   6  -1 2.19274 2.38642   3
   8   6   1 -1.9595 3.02802  11
  -9  -7   1 199.404 8.75836   2
  -9  -7   1 207.892 10.7510   8
   9  -7  -1 214.178 7.40691   6
   9   7  -1 211.440 10.8973   1
   9   7  -1 200.715 11.9582  11
  -9   7   1 203.779 9.52592   5
  -9   7   1 207.354 10.4614   3
   7  -7  -1 1003.59 21.6043   6
   7  -7  -1 968.350 22.2498   1
  -7  -7   1 986.888 25.3891   8
   7  -7  -1 967.910 28.1235  13
  -7  -7   1 988.832 23.7018   2
  -7   7   1 1041.93 24.3050   5
   7   7  -1 983.881 26.9472  11
  -7   7   1 979.159 25.3552   3
   7   7  -1 986.589 26.7668   1
   5  -7  -1 185.131 6.67345   1
   5  -7  -1 168.157 9.19074  13
   5  -7  -1 187.029 6.06441   6
  -5  -7   1 179.380 7.57891   8
  -5  -7   1 184.048 7.82570   1
   5   7  -1 182.488 8.44185  11
  -5   7   1 184.010 9.11014   7
  -5   7   1 181.762 6.91498   5
   5   7  -1 183.600 8.40998   1
  -5   7   1 181.181 7.84892   3
  -3  -7   1 1193.82 25.9040   8
  -3  -7   1 1241.96 27.5632   1
  -3  -7   1 1186.53 25.2823   6
   3  -7  -1 1238.06 26.4030   1
   3  -7  -1 1214.67 29.5024  13
  -3   7   1 1218.49 26.8157   3
   3   7  -1 1204.53 27.3668   1
  -3   7   1 1164.36 28.3304   7
   3   7  -1 1231.14 27.3173  11
  -3   7   1 1169.26 24.8505   5
   3   7  -1 1218.75 26.7616   7
  -1  -7   1 361.553 9.15300   8
   1  -7  -1 370.504 9.61099   6
  -1  -7   1 382.492 11.0321   1
   1  -7  -1 374.503 11.9116  13
  -1  -7   1 369.920 9.61347   6
   1  -7  -1 374.939 11.0752   1
   1   7  -1 362.703 10.1222   1
  -1   7   1 374.049 10.7210   3
   1   7  -1 360.291 11.0946   7
   1   7  -1 371.572 10.4483   4
  -1   7   1 355.007 8.52997   9
  -1   7   1 362.362 11.3227   7
  -1   7   1 361.385 9.91750   1
   1   7  -1 390.194 10.8707  11
  -1  -7  -1 1746.29 34.6665   6
   1  -7   1 1712.02 35.4136   1
  -1  -7  -1 1745.76 36.9454   1
   1  -7   1 1741.17 34.1556   6
  -1  -7  -1 1770.55 36.2162  13
  -1   7  -1 1711.35 37.3091   7
  -1   7  -1 1716.65 36.4667   4
   1   7   1 1761.04 36.4526  11
   1   7   1 1736.99 36.3120   1
   1   7   1 1688.63 35.6741   7
  -1   7  -1 1725.65 35.4896   3
   3  -7   1 699.287 15.3233   6
   3  -7   1 700.406 16.4324   1
  -3  -7  -1 692.935 17.3627   8
   3  -7   1 718.785 20.4389  13
  -3  -7  -1 725.181 18.6004   1
   3   7   1 729.672 18.6139  11
   3   7   1 693.102 16.1483   9
   3   7   1 781.856 22.3074  10
  -3   7  -1 702.472 19.4628   7
  -3   7  -1 719.484 17.6713   3
  -3   7  -1 692.437 16.6919   5
   3   7   1 742.588 19.1719   1
   5  -7   1 1479.02 28.6398   6
   5  -7   1 1454.10 35.6786  13
  -5  -7  -1 1467.24 33.0995   8
  -5  -7  -1 1416.64 32.5128   1
  -5  -7  -1 1508.11 31.8452   2
  -5   7  -1 1418.73 34.3316   7
   5   7   1 1460.34 34.1589  11
   5   7   1 1398.31 34.0217   1
  -5   7  -1 1488.79 31.9985   5
   5   7   1 1417.11 31.5652   6
  -5   7  -1 1395.04 32.4101   3
   7  -7   1 397.771 15.9587  13
   7  -7   1 421.665 10.1491   6
  -7  -7  -1 413.261 14.7369   8
  -7  -7  -1 422.219 13.2779   2
   7   7   1 391.822 13.1416   6
   7   7   1 409.969 13.3801   9
  -7   7  -1 413.336 13.4509   5
   7   7   1 393.194 15.5090  11
  -7   7  -1 406.140 13.8617   3
   7   7   1 413.120 15.3282   1
   9  -7   1 489.881 12.0703   6
  -9  -7  -1 506.867 15.4124   2
  -9  -7  -1 489.791 17.4326   8
   9   7   1 478.208 18.7563  11
   9   7   1 514.838 18.2303   1
  -9   7  -1 487.259 16.2587   5
  -9   7  -1 472.422 16.4811   3
   8  -8  -1 41.2975 3.23947   6
  -8  -8   1 34.6915 5.01089   8
  -8  -8   1 43.3947 4.62374   2
  -8   8   1 33.9156 4.98427   3
   8   8  -1 40.4367 6.24574  11
  -8   8   1 34.4782 4.24247   5
   8   8  -1 43.1527 5.96241   1
  -6  -8   1 461.461 14.6886   1
  -6  -8   1 448.878 14.4774   8
   6  -8  -1 466.137 12.8770   1
   6  -8  -1 455.636 17.3245  13
   6  -8  -1 465.102 12.1117   6
   6   8  -1 441.180 15.7173   1
  -6   8   1 481.312 14.9775   3
   6   8  -1 468.367 16.0298  11
  -6   8   1 464.672 13.4537   5
   4  -8  -1 273.291 8.26831   6
   4  -8  -1 282.471 9.19305   1
  -4  -8   1 273.268 9.33842   8
  -4  -8   1 266.770 10.3850   1
   4  -8  -1 279.569 12.1144  13
  -4   8   1 278.602 11.3802   7
   4   8  -1 277.316 10.4899   1
   4   8  -1 287.510 11.1092   7
  -4   8   1 264.021 8.33832   5
   4   8  -1 268.262 10.3244  11
  -4   8   1 272.125 9.71766   3
  -2  -8   1 465.372 12.1343   6
  -2  -8   1 474.783 14.0175   1
  -2  -8   1 443.559 11.7468   8
   2  -8  -1 466.123 13.5139   1
   2  -8  -1 473.315 15.2794  13
   2   8  -1 467.474 13.6506   7
  -2   8   1 487.106 13.4810   3
  -2   8   1 456.960 14.4488   7
   2   8  -1 454.245 13.1578   1
   2   8  -1 487.630 13.8181  11
   0  -8   1 1118.51 23.7832   6
   0  -8   1 1112.97 25.4907   1
   0  -8  -1 1160.70 26.7808  13
   0  -8  -1 1098.22 24.0423   6
   0  -8  -1 1137.49 26.3215   1
   0   8   1 1116.39 25.6247  11
   0   8   1 1060.31 24.8501   1
   0   8  -1 1104.05 26.5661   7
   0   8  -1 1143.51 25.6573  11
   0   8  -1 1136.03 25.1529   3
   0   8   1 1141.55 25.7361   3
   0   8   1 1077.90 25.7344   7
   2  -8   1 332.862 9.03340   6
  -2  -8  -1 358.338 11.9231   1
   2  -8   1 341.022 10.2901   1
   2   8   1 338.798 11.3645  11
  -2   8  -1 346.819 10.6000   3
   2   8   1 352.001 11.4892   1
  -2   8  -1 338.938 12.1955   7
   4  -8   1 844.690 24.3754  13
  -4  -8  -1 846.491 22.0033   1
  -4  -8  -1 839.826 20.5500   2
   4  -8   1 825.703 18.2553   6
  -4  -8  -1 821.366 21.0053   8
   4  -8   1 821.733 19.0683   1
  -4   8  -1 850.791 23.4655   7
   4   8   1 853.890 22.4798  11
   4   8   1 841.803 22.9475   1
  -4   8  -1 847.331 21.1126   3
  -4   8  -1 838.064 20.0563   5
   6  -8   1 395.017 15.8305  13
   6  -8   1 413.954 10.3945   6
  -6  -8  -1 405.257 13.9547   8
  -6  -8  -1 392.134 12.8820   2
  -6   8  -1 404.609 13.0107   5
  -6   8  -1 388.754 13.6072   3
   6   8   1 422.743 15.5575   1
  -6   8  -1 406.050 15.3232   7
   6   8   1 397.713 15.1754  11
   8  -8   1 179.366 6.12794   6
  -8  -8  -1 180.171 8.61390   2
  -8  -8  -1 169.255 9.34086   8
   8   8   1 157.889 10.6530  11
  -8   8  -1 182.285 8.97406   5
  -8   8  -1 179.796 9.47628   3
   8   8   1 182.148 10.2166   1
  -7  -9   1 130.481 6.93236   2
   7  -9  -1 127.008 5.67573   6
  -7  -9   1 133.389 7.71963   8
  -7   9   1 137.698 6.78779   5
   7   9  -1 125.861 8.68565   1
   7   9  -1 118.595 8.12000  11
  -7   9   1 130.085 7.95083   3
   5  -9  -1 1466.90 32.1239   1
  -5  -9   1 1516.15 34.9477   1
   5  -9  -1 1452.27 30.9450   6
  -5  -9   1 1400.88 32.9072   8
   5  -9  -1 1471.70 38.2299  13
   5   9  -1 1434.46 34.8211  11
  -5   9   1 1448.47 36.4389   7
   5   9  -1 1461.59 35.3243   1
  -5   9   1 1454.78 34.0404   3
   3  -9  -1 375.111 12.0437   1
  -3  -9   1 387.231 13.1875   1
   3  -9  -1 383.480 14.8050  13
   3  -9  -1 358.157 10.7303   6
  -3   9   1 376.566 13.8259   7
   3   9  -1 395.168 12.8679   1
   3   9  -1 378.103 12.7106  11
   3   9  -1 372.400 12.3223   7
  -3   9   1 378.099 12.2505   3
   1  -9  -1 2543.95 53.9428  13
   1  -9  -1 2590.37 52.6245   1
  -1  -9   1 2476.70 52.0346   1
  -1  -9   1 2497.14 49.7226   6
  -1   9   1 2354.95 52.3921   7
   1   9  -1 2528.89 51.8712  11
   1   9  -1 2552.94 51.3748   3
  -1   9   1 2519.40 51.5459   3
   1   9  -1 2391.60 52.3201   7
  -1  -9  -1 142.177 7.25569   1
  -1  -9  -1 130.603 6.69956  13
   1  -9   1 128.429 5.37077   6
   1  -9   1 136.835 6.57370   1
  -1   9  -1 129.440 7.41645   7
   1   9   1 130.365 6.38363   1
   1   9   1 125.964 6.36485   7
   1   9   1 130.392 6.71426  11
  -1   9  -1 130.404 6.19877   3
   3  -9   1 1402.75 35.9229  13
   3  -9   1 1422.05 29.9512   6
  -3  -9  -1 1499.85 34.3018   1
   3   9   1 1413.78 33.6954  11
  -3   9  -1 1438.77 32.3584   3
   3   9   1 1439.49 34.0182   1
  -3   9  -1 1444.72 35.2702   7
  -5  -9  -1 2.95821 2.20684   2
  -5  -9  -1 7.73834 2.60635   8
  -5  -9  -1 6.41704 2.50095   1
   5  -9   1 4.45944 2.66433  13
   5   9   1 5.19327 3.06764  11
   5   9   1 7.84833 2.57552   1
  -5   9  -1 9.64470 3.29433   7
  -5   9  -1 7.88278 2.64884   3
  -7  -9  -1 663.811 18.8058   2
   7  -9   1 651.793 15.5979   6
   7   9   1 629.791 21.5778  11
  -7   9  -1 644.520 18.5443   5
   7   9   1 659.147 21.8694   1
  -8 -10   1 7.98859 2.46557   2
   8 -10  -1 5.25968 1.80811   6
  -8 -10   1 8.72323 3.35432   8
  -8  10   1 4.13935 2.93641   3
   8  10  -1 15.7559 4.84527  11
   8  10  -1 4.05277 3.07831   1
   6 -10  -1 49.4107 3.85551   6
  -6 -10   1 57.3707 5.81095   1
   6  10  -1 56.0853 6.66247  11
  -6  10   1 52.9055 5.53177   3
   6  10  -1 57.9483 6.33314   1
  -4 -10   1 16.2496 3.51384   1
   4 -10  -1 3.85979 1.66483   6
   4 -10  -1 5.36338 2.64231  13
   4 -10  -1 0.71526 1.60181   1
   4  10  -1 4.66856 2.38752   1
  -4  10   1 3.89828 2.77791   7
   4  10  -1 3.89047 2.22347  11
  -4  10   1 8.25538 2.75879   3
   2 -10  -1 1.59541 1.65802  13
  -2 -10   1 7.42225 2.60544   1
  -2 -10   1 3.81761 1.61193   6
   2 -10  -1 1.81186 1.43925   6
   2  10  -1 2.40153 2.26804  11
  -2  10   1 2.43291 1.50773   3
  -2  10   1 5.11178 2.11240   7
   2  10  -1 4.58335 1.86934   3
   2  10  -1 2.98967 1.88209   7
   0 -10   1 30.4014 3.14243   6
   0 -10  -1 35.2179 4.28720  13
   0 -10  -1 34.4463 3.11370   6
   0 -10  -1 40.3317 4.91560   1
   0 -10   1 40.0562 4.28773   1
   0 -10   1 36.5166 4.29660  13
   0  10  -1 35.9231 3.58383   3
   0  10   1 36.9919 4.21733   7
   0  10  -1 41.3864 4.78627   7
   0  10   1 43.3580 4.78510   3
   2 -10   1 63.2158 5.88676  13
  -2 -10  -1 65.9857 5.45039   1
   2 -10   1 62.5729 4.77415   1
   2 -10   1 59.9290 4.03484   6
   2  10   1 59.2216 5.17459   1
  -2  10  -1 61.5928 4.60657   3
  -2  10  -1 52.5158 5.74790   7
   2  10   1 55.2264 5.45166  11
  -4 -10  -1 10.7849 2.89603   2
  -4 -10  -1 11.8031 3.33687   1
   4 -10   1 9.57694 2.27667   1
   4 -10   1 7.80706 3.17169  13
   4  10   1 12.5644 3.72613  11
   4  10   1 12.9443 3.20334   1
  -4  10  -1 6.27810 3.31031   7
  -4  10  -1 12.1077 2.94421   3
   6 -10   1 2.32370 1.55624   6
  -6 -10  -1 0.85514 1.77582   2
  -6  10  -1 0.53440 1.67080   3
   6  10   1 -3.3956 2.95753  11
   6  10   1 -0.0404 2.34221   1
  -7 -11   1 298.330 12.0390   2
   7 -11  -1 319.289 10.5027   6
  -7  11   1 289.404 12.8081   3
   7  11  -1 317.263 14.5090   1
   7  11  -1 301.101 14.4849  11
  -5 -11   1 224.010 11.0299   1
   5 -11  -1 216.252 8.61952   6
   5 -11  -1 220.594 9.29486   1
   5  11  -1 220.588 11.0390   1
  -5  11   1 217.457 10.4876   3
   5  11  -1 226.451 11.5450  11
   3 -11  -1 156.567 8.12192   1
   3 -11  -1 157.446 7.23380   6
   3 -11  -1 151.365 9.78636  13
  -3 -11   1 179.649 9.59702   1
  -3  11   1 145.506 9.02197   7
   3  11  -1 147.863 8.22270   3
   3  11  -1 160.339 9.01824  11
  -3  11   1 152.772 8.34063   3
  -1 -11   1 376.845 11.8381   6
  -1 -11   1 359.574 14.2410  13
   1 -11  -1 393.505 12.1829   6
   1 -11  -1 383.490 14.8709  13
  -1 -11   1 378.300 14.1139   1
  -1  11   1 362.932 14.1270   7
   1  11  -1 375.369 13.0954   3
   1  11  -1 375.873 14.1963   7
  -1  11   1 369.383 13.3568   3
   1 -11   1 235.918 8.63846   6
   1 -11   1 225.359 11.7536  13
   1 -11   1 222.989 9.97081   1
  -1 -11  -1 239.382 11.0232   1
   1  11   1 228.164 10.3600   3
  -1  11  -1 224.763 9.63396   3
   1  11   1 226.078 10.5166  11
  -1  11  -1 223.173 11.2691   7
   3 -11   1 772.063 25.4586  13
   3 -11   1 827.131 21.1843   1
  -3 -11  -1 812.128 24.0027   1
  -3 -11  -1 826.336 21.3993   2
  -3  11  -1 771.587 21.6510   3
   3  11   1 787.156 23.2311  11
  -3  11  -1 818.496 24.9874   7
   5 -11   1 317.071 10.3345   6
  -5 -11  -1 331.006 12.3736   2
   5  11   1 324.732 14.5291  11
  -5  11  -1 346.359 15.1941   7
  -5  11  -1 301.507 12.4026   3
   5  11   1 321.228 14.2459   1
  -4 -12   1 205.796 11.1004   1
   4 -12  -1 187.550 8.32988   6
   4 -12  -1 195.043 9.29648   1
  -4  12   1 187.298 9.67496   3
   4  12  -1 190.990 9.98373   3
   4  12  -1 180.370 10.0570  11
   2 -12  -1 189.217 9.76394   1
   2 -12  -1 191.739 8.50771   6
  -2 -12   1 198.616 10.5330   1
   2 -12  -1 207.540 13.0414  13
  -2  12   1 179.071 10.4056   7
  -2  12   1 190.908 9.70291   3
   2  12  -1 177.168 9.27747   3
   2  12  -1 196.432 10.3435  11
   0 -12   1 46.1329 5.41814  13
   0 -12   1 54.6583 5.65775   1
   0 -12   1 56.7362 4.63805   6
   0  12  -1 53.0331 5.29063   3
   0  12  -1 55.3227 5.62942   7
   0  12   1 55.2578 5.22508   3
  -2 -12  -1 334.885 14.1444   1
  -2 -12  -1 323.794 11.9457   2
  -2  12  -1 317.819 12.3706   3
  -2  12  -1 331.293 14.8106   7
   2  12   1 326.962 13.4627   3
   2  12   1 327.561 13.7987  11
   4 -12   1 46.9984 4.36251   1
   4 -12   1 49.7327 4.24706   6
  -4 -12  -1 50.6442 5.32130   2
  -4 -12  -1 51.1976 6.52648   1
  -4  12  -1 51.4322 6.61995   7
   4  12   1 50.6211 6.54490  11
  -4  12  -1 53.7004 5.65785   3
   4  12   1 38.1178 6.17568   1
   3 -13  -1 916.019 25.5906   1
  -3 -13   1 959.317 27.9750   1
   3 -13  -1 933.481 23.9961   6
   3  13  -1 925.344 26.8212  11
   3  13  -1 906.263 25.6082   3
  -3  13   1 930.173 25.9173   3
   1 -13  -1 231.212 11.4700   1
  -1 -13   1 225.299 11.6511   1
   1  13  -1 202.955 9.91311   3
  -1  13   1 225.596 10.9381   3
   1 -13   1 619.492 17.8692   6
   1  13   1 625.758 20.1513   3
  -1  13  -1 616.832 19.0752   3
  -1  13  -1 611.986 21.5147   7
  -3 -13  -1 74.1069 6.15885   2
   3 -13   1 79.3534 5.53956   6
   3 -13   1 71.0561 5.69691   1
   3  13   1 75.6622 7.74178  11
  -3  13  -1 77.6240 6.45391   3
   3  13   1 76.7182 6.59642   3
  -3  13  -1 82.3922 8.12430   7
  10   0  -2 943.201 25.8527  11
 -10   0   2 965.940 23.9537   5
  10   0  -2 932.076 22.4905   6
 -10   0   2 934.669 23.9855   8
  10   0  -2 937.070 23.7451   1
   8   0  -2 485.767 12.6838   6
  -8   0   2 513.612 13.7678   5
   8   0  -2 489.457 13.8366   1
   8   0  -2 487.148 14.8747  11
  -8   0   2 482.603 13.7567   8
  -6   0   2 4283.17 81.5210   2
  -6   0   2 4388.67 82.5632  12
  -6   0   2 4328.33 82.6506   8
   6   0  -2 4463.00 83.0543   1
   6   0  -2 4289.54 83.9656  13
   6   0  -2 4438.00 81.7016   6
   6   0  -2 4438.05 83.6198  11
  -6   0   2 4471.47 82.4283   5
  -6   0   2 4251.09 83.6043   3
   4   0  -2 2654.66 52.8688   6
  -4   0   2 2680.98 52.0093   3
  -4   0   2 2760.89 51.3371   1
   4   0  -2 2764.65 56.9261  13
  -4   0   2 2793.19 51.4899  12
   4   0  -2 2724.12 51.9169   1
   2   0  -2 8014.98 177.073   1
   2   0  -2 8906.68 174.513   6
  -2   0   2 9986.98 191.756  10
  -2   0   2 8938.66 177.316   1
   2   0  -2 9665.58 184.398  13
   2   0  -2 9999.99 189.587  10
  -2   0   2 9738.78 176.858   9
  -2   0   2 9543.39 176.219  12
   0   0  -2 67.3584 2.47667  13
   0   0  -2 63.1570 2.18518   2
   0   0  -2 66.8708 2.08979   4
   0   0  -2 67.5916 2.34563   8
   0   0  -2 68.7275 2.23186  14
   0   0  -2 68.4938 2.99567  10
   0   0   2 76.5357 2.12366   1
   0   0   2 64.9868 1.68310   6
   0   0   2 66.8439 3.09886  10
  -2   0  -2 5066.59 95.4061   8
  -2   0  -2 4907.42 95.3380  14
   2   0   2 4792.94 94.1730   1
  -2   0  -2 4656.48 93.8912   4
  -2   0  -2 4777.62 92.3834   2
  -2   0  -2 4828.77 93.9070   5
  -2   0  -2 4743.15 94.6344   7
   4   0   2 69.6560 2.79137   1
  -4   0  -2 65.5310 2.75260  14
  -4   0  -2 64.4285 2.35370   4
  -4   0  -2 60.7208 2.91660   2
  -4   0  -2 61.1220 3.31849   5
   4   0   2 58.7567 3.20519  11
   4   0   2 59.4820 2.67190  13
  -4   0  -2 59.5253 3.64975   8
   4   0   2 62.8603 2.10166   6
  -6   0  -2 2441.10 49.7620   8
   6   0   2 2396.85 47.0143   1
   6   0   2 2437.21 46.0253   6
   6   0   2 2375.97 49.3842  11
  -6   0  -2 2398.08 47.4216   2
  -6   0  -2 2411.88 48.9323   5
  -8   0  -2 11.2037 2.56867   8
  -8   0  -2 8.93845 2.36541   5
   8   0   2 6.21762 2.98694  11
   8   0   2 3.11426 1.41479   6
 -10   0  -2 1359.73 34.1417   8
  10   0   2 1365.78 35.0669  11
 -10   0  -2 1420.70 33.6048   5
  10   0   2 1403.34 30.4568   6
 -11  -1   2 126.471 7.16039   5
  11  -1  -2 125.193 8.77099  11
  11  -1  -2 121.927 6.77372   1
 -11  -1   2 134.870 8.04757   8
  11  -1  -2 130.087 6.44403   6
  11   1  -2 128.715 7.41105   1
 -11   1   2 124.912 7.47869   5
 -11   1   2 118.012 6.88776   8
  11   1  -2 130.414 9.21444  11
  11   1  -2 129.936 6.87840   6
   9  -1  -2 2.08519 1.49649   1
   9  -1  -2 2.45186 1.39652   6
  -9  -1   2 1.89852 1.69935   5
  -9  -1   2 0.88099 1.83434   8
   9  -1  -2 3.69204 2.47360  11
   9   1  -2 1.61928 1.93049  11
   9   1  -2 0.62383 1.54160   1
  -9   1   2 0.92454 1.28124   5
  -9   1   2 -0.2966 1.88587   3
   9   1  -2 1.38168 1.48842   6
  -7  -1   2 211.731 7.49710   8
   7  -1  -2 208.767 6.35822   6
  -7  -1   2 194.242 6.74535   5
   7  -1  -2 195.355 7.02804   1
   7  -1  -2 187.372 7.98157  13
  -7  -1   2 197.540 5.74712   2
  -7   1   2 196.938 6.93921   8
  -7   1   2 199.374 7.89694   3
  -7   1   2 212.852 7.29971   5
   7   1  -2 208.708 7.57309   1
   7   1  -2 200.085 6.69889   6
   7   1  -2 205.238 8.17681  11
   7   1  -2 180.932 7.21574  13
   5  -1  -2 141.684 4.34476   6
  -5  -1   2 146.972 4.67672   5
  -5  -1   2 141.794 4.98635  12
   5  -1  -2 142.847 5.02644   1
   5  -1  -2 145.772 5.97953  13
  -5  -1   2 139.835 4.74164   1
  -5  -1   2 148.102 5.19864   8
   5   1  -2 140.689 3.72674   4
  -5   1   2 135.057 4.63088   8
  -5   1   2 153.124 4.92322   5
   5   1  -2 140.783 5.30961   1
  -5   1   2 142.436 4.32760   1
   5   1  -2 141.909 5.40907  13
   5   1  -2 148.387 4.68088   6
  -5   1   2 143.815 3.44497   2
   5   1  -2 142.806 5.39419  11
  -5   1   2 137.367 5.29622   3
  -5   1   2 142.463 4.75637  12
   3  -1  -2 237.561 6.18032   1
  -3  -1   2 240.608 6.10479   1
   3  -1  -2 236.574 6.88419  13
   3  -1  -2 230.995 5.51720   6
  -3  -1   2 230.892 5.84771  12
   3  -1  -2 241.098 7.95266  10
   3   1  -2 245.965 6.74465  13
   3   1  -2 235.084 5.41788   4
  -3   1   2 235.562 6.15019   3
  -3   1   2 238.235 5.96274   9
  -3   1   2 236.462 5.71650  12
   3   1  -2 236.755 5.96616  11
   3   1  -2 242.184 7.84196  10
   3   1  -2 231.969 5.65956   6
  -3   1   2 232.420 5.79941   1
   3   1  -2 235.308 6.35798   1
  -1  -1   2 2215.68 50.1008  10
   1  -1  -2 2111.35 45.1280   1
   1  -1  -2 2180.07 47.3739  13
  -1  -1   2 2109.42 42.9511   1
  -1  -1   2 2086.04 43.0897  12
  -1  -1   2 2062.16 41.7408   6
   1  -1  -2 2184.52 46.9521  10
   1   1  -2 2088.97 41.0077   4
  -1   1   2 2104.92 42.5699   9
  -1   1   2 2158.47 42.0565  12
  -1   1   2 2162.79 43.8021   1
   1   1  -2 2079.58 41.7796  14
  -1   1   2 2195.86 43.4164   6
  -1   1   2 2154.08 48.0250  10
   1   1  -2 2145.76 48.2901  10
   1   1  -2 2115.85 40.7108   2
  -1  -1  -2 218.640 5.34233   5
  -1  -1  -2 214.497 5.82804   8
   1  -1   2 220.373 6.96291  10
  -1  -1  -2 214.453 5.40557   2
  -1  -1  -2 216.384 5.27209  14
  -1  -1  -2 217.906 4.88856   4
  -1   1  -2 218.772 5.58504   5
  -1   1  -2 211.057 5.19083   3
   1   1   2 217.691 5.09537  11
   1   1   2 213.048 5.34401   1
   1   1   2 215.227 4.78762   6
  -1   1  -2 221.054 5.39347   4
   1   1   2 219.151 7.23692  10
  -1   1  -2 226.401 5.49600  14
  -1   1  -2 212.780 5.73606   8
  -1   1  -2 214.454 5.39011   7
  -1   1  -2 218.770 5.47127   2
  -3  -1  -2 198.147 5.35424  14
  -3  -1  -2 220.898 6.80592   8
  -3  -1  -2 203.561 6.08546   5
  -3  -1  -2 201.729 5.79897   2
   3  -1   2 206.609 4.66699   1
  -3  -1  -2 194.822 4.61894   4
   3   1   2 195.402 4.58128  13
  -3   1  -2 201.256 5.44002   4
  -3   1  -2 211.124 6.40444   5
  -3   1  -2 217.022 6.10543   7
   3   1   2 201.650 4.98269   6
   3   1   2 194.543 4.45802  13
   3   1   2 193.929 6.00076  11
  -3   1  -2 205.594 5.62851  14
  -3   1  -2 196.019 6.12264   3
  -3   1  -2 202.522 6.50928   8
  -3   1  -2 210.397 5.83826   2
   3   1   2 201.021 5.72491   1
  -5  -1  -2 356.654 10.7595   8
   5  -1   2 343.370 8.25602   1
   5  -1   2 341.617 7.27009   6
  -5  -1  -2 352.486 10.0779   5
  -5  -1  -2 346.259 8.50254  14
  -5  -1  -2 336.847 9.27016   2
   5  -1   2 323.792 9.37853  13
  -5   1  -2 347.926 10.3463   5
   5   1   2 350.592 8.55724   6
  -5   1  -2 359.365 10.6157   8
  -5   1  -2 348.816 9.24810   2
  -5   1  -2 347.358 8.67027  14
   5   1   2 352.482 9.43081   1
  -5   1  -2 338.748 10.4086   3
   5   1   2 324.045 10.1945  11
  -7  -1  -2 15.7043 2.31113   2
   7  -1   2 5.33069 2.40383  11
  -7  -1  -2 6.54217 2.17716   5
  -7  -1  -2 5.25508 2.33040   8
   7  -1   2 4.10164 1.12124   6
  -7   1  -2 7.21248 2.27531   8
  -7   1  -2 3.56967 1.41394   2
  -7   1  -2 1.85684 1.84592   5
   7   1   2 6.29109 2.65034  11
   9  -1   2 199.028 6.99867   6
  -9  -1  -2 208.757 10.1785   8
   9  -1   2 209.391 10.1676  11
  -9   1  -2 205.446 9.40807   5
  -9   1  -2 189.436 9.06838   8
   9   1   2 190.580 7.54712   6
   9   1   2 213.561 10.6681  11
 -10  -2   2 106.071 7.00654   8
  10  -2  -2 96.4274 7.05391  11
  10  -2  -2 103.536 5.83744   1
  10  -2  -2 105.528 5.35719   6
 -10  -2   2 104.750 6.03945   5
  10   2  -2 105.710 8.00085  11
 -10   2   2 113.407 6.87186   5
  10   2  -2 113.824 6.17991   6
 -10   2   2 100.565 7.43393   3
  10   2  -2 116.086 7.02659   1
   8  -2  -2 1234.97 27.2613   1
  -8  -2   2 1246.94 27.0554   5
  -8  -2   2 1213.62 28.4315   8
   8  -2  -2 1305.43 26.2890   6
   8  -2  -2 1156.27 29.7709  13
  -8  -2   2 1250.09 25.7825   2
   8   2  -2 1242.14 29.8567  11
   8   2  -2 1281.30 28.9660   1
   8   2  -2 1247.24 27.2530   6
  -8   2   2 1235.66 29.1507   3
  -8   2   2 1215.95 27.2220   8
  -8   2   2 1205.03 27.8270   5
  -6  -2   2 36.8276 2.80519   8
   6  -2  -2 41.3408 2.75208   1
  -6  -2   2 38.7257 2.47538   5
   6  -2  -2 36.9938 2.23243   6
  -6  -2   2 41.1211 2.60274   1
  -6  -2   2 36.6034 2.89282  12
   6  -2  -2 38.8158 3.62087  13
   6   2  -2 34.0306 2.39962   6
   6   2  -2 37.5612 3.46034  11
  -6   2   2 33.4594 3.06951   3
   6   2  -2 36.0407 2.73626  13
   6   2  -2 38.4073 3.15722   1
  -6   2   2 37.3179 2.44622   8
  -6   2   2 35.9490 2.59514   5
   4  -2  -2 2785.11 54.6262   1
   4  -2  -2 2978.33 56.7177  13
   4  -2  -2 2927.14 57.5919   6
  -4  -2   2 2823.46 54.8745   1
  -4  -2   2 2885.53 54.5822  12
   4   2  -2 2882.27 55.0304  11
  -4   2   2 2913.21 54.6201   9
  -4   2   2 2919.47 55.2722   3
   4   2  -2 2892.27 55.4986   1
  -4   2   2 2852.35 53.7183   8
   4   2  -2 2870.49 54.2671   6
   4   2  -2 2884.68 54.1165   4
   4   2  -2 2889.68 55.3567  13
  -4   2   2 2851.73 55.1681   1
  -4   2   2 2916.51 54.0411  12
   2  -2  -2 423.861 9.84581   1
  -2  -2   2 433.762 9.19180   6
   2  -2  -2 459.110 10.6757  13
  -2  -2   2 426.514 9.28097  12
   2  -2  -2 443.092 11.2212  10
  -2  -2   2 424.528 9.77593   1
   2  -2  -2 450.573 9.25896   6
   2   2  -2 438.501 9.38552   4
  -2   2   2 440.284 9.66885   1
  -2   2   2 444.743 9.64433   3
  -2   2   2 461.140 11.2766  10
   2   2  -2 449.365 9.26027  14
   2   2  -2 443.355 9.99152   1
   2   2  -2 444.436 10.6763  10
  -2   2   2 439.292 9.51013   9
  -2   2   2 438.839 9.02453  12
   2   2  -2 446.539 9.57708  11
   0  -2  -2 7524.02 156.860   1
   0  -2  -2 8372.50 164.247  10
   0  -2  -2 7699.04 153.038   2
   0  -2  -2 8225.42 156.499  13
   0  -2  -2 8073.45 155.256   8
   0  -2   2 8392.42 153.447  12
   0  -2   2 7884.68 152.170   1
   0   2   2 8177.10 153.479   6
   0   2  -2 7373.76 155.949   4
   0   2  -2 8173.41 158.232   7
   0   2   2 8134.10 153.662  11
   0   2   2 8088.06 152.427   9
   0   2  -2 7862.31 153.758   2
   0   2   2 8032.65 158.239   1
   0   2  -2 8090.45 156.380  14
   0   2  -2 8310.57 153.727   5
   0   2   2 8268.66 168.622  10
   0   2  -2 8461.97 161.169  10
  -2  -2  -2 3311.30 63.9104   4
  -2  -2  -2 3372.26 63.0574   8
  -2  -2  -2 3282.87 64.7118   2
  -2  -2  -2 3338.00 61.8025   5
  -2  -2  -2 3179.80 61.7055  14
   2   2   2 3337.70 66.2986   6
  -2   2  -2 3408.71 62.7714   7
  -2   2  -2 3268.78 62.0973  14
  -2   2  -2 3434.35 62.7232   8
  -2   2  -2 3279.91 62.2446   3
  -2   2  -2 3281.69 64.3492   2
   2   2   2 3359.62 72.9911  10
   2   2   2 3270.05 67.7884   1
  -2   2  -2 3284.80 62.1874   4
  -2   2  -2 3372.69 62.6024   5
   2   2   2 3343.56 62.3018  11
   4  -2   2 3326.99 63.8346   1
  -4  -2  -2 3300.37 62.6602  14
  -4  -2  -2 3327.08 63.8304   5
   4  -2   2 3314.60 64.7448  13
  -4  -2  -2 3325.07 63.5920   2
  -4  -2  -2 3406.85 65.3596   8
  -4   2  -2 3361.86 63.2351   4
   4   2   2 3318.18 64.1130   1
  -4   2  -2 3344.34 63.3359   2
  -4   2  -2 3411.95 64.8068   8
   4   2   2 3298.06 64.5841  11
  -4   2  -2 3444.53 64.8678   5
  -4   2  -2 3309.34 63.0533  14
  -4   2  -2 3336.15 64.4776   7
  -4   2  -2 3372.79 64.7067   3
   4   2   2 3381.44 62.9238   6
  -6  -2  -2 975.130 22.6120   5
  -6  -2  -2 987.477 22.0290   2
   6  -2   2 990.146 19.0859   6
  -6  -2  -2 993.617 24.0060   8
  -6   2  -2 975.222 21.4176   2
  -6   2  -2 989.826 23.3810   8
  -6   2  -2 958.229 23.0863   5
  -6   2  -2 1020.98 23.9527   3
   6   2   2 991.974 24.0342  11
   6   2   2 984.357 22.5731   1
   6   2   2 958.242 21.3738   6
  -8  -2  -2 527.286 16.7801   8
   8  -2   2 523.776 16.0634  11
   8  -2   2 518.907 12.2781   6
  -8  -2  -2 509.240 14.1864   2
  -8  -2  -2 539.665 15.4477   5
  -8   2  -2 526.080 15.8794   8
  -8   2  -2 515.422 16.0365   5
   8   2   2 524.587 14.1759   6
   8   2   2 513.519 14.9760   1
   8   2   2 501.128 16.7994  11
  10  -2   2 150.240 6.01480   6
 -10  -2  -2 165.602 9.54995   8
 -10   2  -2 161.324 8.97251   5
  10   2   2 159.289 7.55260   6
  10   2   2 150.819 9.92535  11
 -11  -3   2 84.9628 6.40759   8
  11  -3  -2 82.9116 5.02209   6
  11  -3  -2 79.0455 7.13303  11
  11   3  -2 88.3315 8.45937  11
 -11   3   2 80.5893 6.42019   5
  11   3  -2 91.5882 6.05394   6
  11   3  -2 79.4568 6.13910   1
   9  -3  -2 7.22129 1.89442   1
   9  -3  -2 11.8991 1.96241   6
  -9  -3   2 12.5172 2.99920   8
  -9  -3   2 8.76121 2.16814   5
  -9   3   2 8.88347 2.60708   5
  -9   3   2 11.6847 3.03805   3
   9   3  -2 12.7628 2.47501   6
   9   3  -2 8.12760 2.63650   1
   9   3  -2 13.9695 3.97395  11
  -7  -3   2 109.745 4.59465   2
   7  -3  -2 120.729 4.55225   6
   7  -3  -2 119.505 5.12756   1
   7  -3  -2 122.372 6.99527  13
  -7  -3   2 118.407 4.89063   5
  -7  -3   2 126.170 5.93532   8
   7   3  -2 118.612 6.22230   1
  -7   3   2 120.020 6.23802   3
   7   3  -2 121.410 6.55805  11
  -7   3   2 116.473 5.56820   5
  -7   3   2 115.528 4.81888   8
   7   3  -2 116.255 5.15475   6
  -5  -3   2 126.836 4.99371   1
  -5  -3   2 132.857 5.06700  12
  -5  -3   2 129.106 5.30879   8
   5  -3  -2 143.726 5.00078   1
   5  -3  -2 135.026 4.25678   6
  -5  -3   2 129.186 4.20825   5
   5  -3  -2 147.653 6.71749  13
   5   3  -2 124.303 5.46895  11
  -5   3   2 134.159 4.92842   5
  -5   3   2 128.787 5.38515   3
   5   3  -2 135.657 4.75839   6
  -5   3   2 132.945 4.14709   8
  -5   3   2 130.239 4.37960  12
   5   3  -2 129.407 5.62460   1
  -3  -3   2 28.4970 1.53474   6
   3  -3  -2 24.7184 1.45858   6
   3  -3  -2 23.6398 2.29896  10
  -3  -3   2 23.9783 1.62236  12
   3  -3  -2 30.4367 1.95351   1
   3  -3  -2 28.8146 2.53103  13
  -3   3   2 26.7285 1.37748  12
  -3   3   2 25.0503 1.60358   9
   3   3  -2 24.4481 1.99275   7
  -3   3   2 26.7554 1.61441   1
   3   3  -2 27.1092 2.35962  10
   3   3  -2 25.0473 2.01407   1
  -3   3   2 26.6626 1.94910   3
   3   3  -2 26.0292 1.61601   6
   3   3  -2 26.9177 1.46260   4
   3   3  -2 27.6724 1.99960  11
   1  -3  -2 1387.14 28.8652  10
   1  -3  -2 1394.26 28.1971   1
   1  -3  -2 1444.68 26.9920   2
  -1  -3   2 1381.97 27.7081   1
   1  -3  -2 1402.86 27.2698   6
  -1  -3   2 1452.68 27.6895  10
  -1  -3   2 1441.38 27.0017   6
   1  -3  -2 1450.33 28.5557  13
  -1  -3   2 1414.93 26.9548  12
   1   3  -2 1408.85 28.2790   7
  -1   3   2 1441.55 27.9539   7
   1   3  -2 1427.87 30.1062  10
  -1   3   2 1447.40 27.8511   3
  -1   3   2 1426.95 28.0328   1
   1   3  -2 1461.90 27.6172  11
  -1   3   2 1434.03 27.6882  11
  -1   3   2 1447.95 27.4800   9
   1   3  -2 1449.13 27.8064  14
   1   3  -2 1438.98 27.9264   4
  -1   3   2 1424.33 26.6877  12
  -1   3   2 1457.73 29.1856  10
   1   3  -2 1393.37 27.5229   1
  -1  -3  -2 225.729 5.43430  13
   1  -3   2 229.085 6.83529  10
  -1  -3  -2 224.846 5.92184   2
   1  -3   2 217.078 5.09964   1
  -1  -3  -2 222.355 6.40751   1
  -1  -3  -2 229.840 6.28784   8
   1   3   2 226.595 5.75752   6
  -1   3  -2 225.192 6.40062   4
  -1   3  -2 226.495 6.06832   5
   1   3   2 229.613 7.79129  10
  -1   3  -2 232.178 6.68225   7
  -1   3  -2 227.281 5.85332   3
  -1   3  -2 234.593 6.04894   2
   1   3   2 230.713 5.99878   9
   1   3   2 233.381 6.62604   1
   1   3   2 228.542 6.11400  11
  -1   3  -2 236.820 6.27728  14
  -1   3  -2 233.265 6.06439   8
  -3  -3  -2 3.50589 0.87283   5
  -3  -3  -2 1.29634 0.70117  14
  -3  -3  -2 1.51178 0.89359   8
  -3  -3  -2 3.12562 1.02742   2
  -3   3  -2 0.95802 1.01753   5
  -3   3  -2 1.73577 0.94673   3
  -3   3  -2 1.69758 0.76707   8
   3   3   2 3.01082 1.66027  10
   3   3   2 1.50099 0.77819   6
   3   3   2 0.55615 0.75969  11
   3   3   2 1.77043 0.99096   1
  -3   3  -2 1.94293 0.84495  14
  -3   3  -2 3.86893 0.99561   2
  -3   3  -2 6.71338 1.46097   7
  -5  -3  -2 0.99064 1.09656   8
  -5  -3  -2 1.27354 1.11704   2
  -5  -3  -2 7.90859 1.56749   5
  -5  -3  -2 1.56760 0.77187  14
   5  -3   2 1.65266 1.24467  13
  -5   3  -2 1.82876 1.42171   3
  -5   3  -2 1.70724 1.44380   5
  -5   3  -2 2.85468 1.16431   4
   5   3   2 2.11538 1.73159  11
   5   3   2 4.27037 1.28106   6
  -5   3  -2 2.09927 0.99294   2
  -5   3  -2 1.01420 1.17070   8
  -5   3  -2 6.42607 1.84400   7
   5   3   2 2.09457 1.26652   1
  -5   3  -2 1.01217 0.81399  14
  -7  -3  -2 126.235 5.88453   2
  -7  -3  -2 116.849 7.04531   8
   7  -3   2 120.577 3.72589   6
  -7  -3  -2 119.217 5.89498   5
  -7   3  -2 118.592 6.24007   8
   7   3   2 119.180 6.37866   1
   7   3   2 120.852 5.68481   6
  -7   3  -2 111.276 6.18952   5
   7   3   2 115.219 7.37226  11
  -7   3  -2 125.268 6.79982   3
  -9  -3  -2 4.81085 3.02396   8
   9  -3   2 3.55011 1.24582   6
   9  -3   2 3.31779 2.12278  11
  -9  -3  -2 4.38694 1.92018   2
  -9   3  -2 5.27578 2.80131   5
   9   3   2 6.18472 3.63628  11
   9   3   2 1.67641 1.81953   6
   9   3   2 3.20270 2.03749   1
  10  -4  -2 45.0122 3.49204   6
 -10  -4   2 34.7578 4.62648   8
  10   4  -2 30.2374 4.26552   1
  10   4  -2 25.2195 3.70196   6
 -10   4   2 32.6282 4.51920   5
 -10   4   2 35.4095 5.04751   3
  10   4  -2 24.9491 5.21901  11
   8  -4  -2 2397.79 53.9645  13
   8  -4  -2 2450.60 49.0226   1
   8  -4  -2 2443.32 47.8572   6
  -8  -4   2 2473.08 48.6243   2
  -8  -4   2 2449.06 51.4273   8
  -8   4   2 2523.36 52.1058   3
   8   4  -2 2461.07 52.9767  11
   8   4  -2 2353.85 49.6980   6
  -8   4   2 2469.78 50.3094   5
   8   4  -2 2381.20 51.9032   1
   6  -4  -2 373.217 12.9114  13
  -6  -4   2 354.743 9.05302   5
   6  -4  -2 348.649 9.01335   6
   6  -4  -2 352.444 9.90066   1
  -6  -4   2 360.269 10.8739   8
  -6  -4   2 347.334 10.3728   1
   6   4  -2 375.272 10.2618   6
  -6   4   2 361.685 11.1646   3
   6   4  -2 359.957 11.4778   1
  -6   4   2 359.472 10.2263   5
   6   4  -2 378.437 11.5735  11
   4  -4  -2 6825.71 130.438   1
   4  -4  -2 7030.78 145.479  13
  -4  -4   2 6403.94 126.425   6
  -4  -4   2 6695.73 128.555   5
  -4  -4   2 6660.29 124.481  12
   4  -4  -2 6952.79 133.139   6
  -4  -4   2 6897.10 135.763   1
  -4   4   2 6886.77 134.176   3
   4   4  -2 6681.78 128.288   6
   4   4  -2 6695.84 129.178   4
  -4   4   2 6822.73 136.002   9
   4   4  -2 6581.04 129.434  11
   4   4  -2 6805.36 134.386   1
  -4   4   2 6536.60 129.810   1
  -4   4   2 6651.19 133.448   5
  -4   4   2 6868.10 130.696  12
  -2  -4   2 504.915 10.8509  12
   2  -4  -2 513.831 11.1740   6
  -2  -4   2 505.639 11.1259   6
   2  -4  -2 522.170 13.2086  13
   2  -4  -2 521.839 12.2086   1
  -2  -4   2 498.560 12.0146   1
   2  -4  -2 492.865 12.7732  10
  -2   4   2 552.028 10.4036  12
   2   4  -2 516.409 12.0199   1
  -2   4   2 506.741 12.5264   7
   2   4  -2 501.373 11.5332   4
   2   4  -2 500.229 12.2150   7
   2   4  -2 530.775 11.9687  11
  -2   4   2 513.184 11.2448   9
  -2   4   2 510.490 11.5815   1
  -2   4   2 512.459 11.9174   3
  -2   4   2 506.204 12.7337  10
   0  -4   2 5256.33 101.187  10
   0  -4  -2 5124.93 106.538  13
   0  -4   2 5119.85 97.4241  12
   0  -4   2 5040.43 98.9360   6
   0  -4   2 4859.88 97.9976   1
   0  -4  -2 4981.08 100.149   8
   0  -4  -2 4994.23 101.538   1
   0  -4  -2 5079.44 109.356  10
   0  -4  -2 4972.08 98.7309   6
   0   4  -2 5123.30 100.528   3
   0   4  -2 5248.53 98.2220   5
   0   4   2 5162.80 99.8063   9
   0   4  -2 5055.05 101.715   7
   0   4   2 5201.53 111.816  10
   0   4  -2 5239.33 98.5571  11
   0   4   2 4882.35 94.5151   1
   0   4   2 5119.54 98.7395   6
   0   4   2 5114.24 100.817  11
   0   4  -2 5206.84 100.302  14
   0   4   2 4859.78 100.411   7
   0   4  -2 4982.00 100.378   4
  -2  -4  -2 28.7439 2.30890   8
   2  -4   2 28.6666 2.50209  10
  -2  -4  -2 31.5583 2.07590   2
   2  -4   2 30.8211 1.42710   1
  -2  -4  -2 37.1838 1.44859  13
  -2  -4  -2 30.5600 2.25562   1
   2   4   2 31.2181 2.46855  11
   2   4   2 29.3751 2.13873   9
  -2   4  -2 31.3565 2.29759   5
  -2   4  -2 35.5449 2.18998   2
   2   4   2 28.8972 2.48814   1
  -2   4  -2 30.2530 2.41968   4
  -2   4  -2 32.3700 2.22712   3
   2   4   2 31.4935 3.22764  10
   2   4   2 30.8558 2.03888   6
  -2   4  -2 30.7408 2.48846   7
  -2   4  -2 34.0359 2.35506  14
  -2   4  -2 34.5038 2.14568   8
  -4  -4  -2 1666.19 34.5769   5
  -4  -4  -2 1625.93 35.4493   1
  -4  -4  -2 1752.71 35.7260   2
  -4  -4  -2 1779.01 35.0038  14
  -4  -4  -2 1750.60 37.1288   8
   4   4   2 1820.53 37.3631  11
   4   4   2 1762.91 41.6968  10
  -4   4  -2 1826.24 36.7081   5
   4   4   2 1779.44 35.6097   6
  -4   4  -2 1736.87 35.0598   2
  -4   4  -2 1748.82 36.0571   4
  -4   4  -2 1777.81 35.6738  14
  -4   4  -2 1797.79 36.0201   8
   4   4   2 1769.00 37.1516   1
  -4   4  -2 1872.18 36.8525   3
  -4   4  -2 1819.81 37.7042   7
  -6  -4  -2 52.8815 3.64276   2
   6  -4   2 52.1623 4.30628  13
  -6  -4  -2 55.7675 4.48366   8
   6  -4   2 53.1406 1.60980   6
  -6   4  -2 59.8468 4.39010   3
  -6   4  -2 61.0292 4.11992   8
   6   4   2 56.7731 4.51359   1
  -6   4  -2 51.5271 4.28494   5
   6   4   2 52.2755 6.29228  10
   6   4   2 59.8039 3.97365   6
   6   4   2 50.7788 5.30781  11
  -8  -4  -2 937.732 25.4597   8
   8  -4   2 924.815 19.0159   6
  -8  -4  -2 920.257 22.5136   2
  -8   4  -2 950.436 24.8146   3
   8   4   2 902.313 25.9169  11
  -8   4  -2 889.899 24.0447   5
   8   4   2 926.477 24.2886   1
   8   4   2 933.595 22.8751   6
  11  -5  -2 53.6749 4.07185   6
  11  -5  -2 56.5733 6.61036  11
 -11  -5   2 44.3785 5.60418   8
  11   5  -2 62.3711 6.47234   1
 -11   5   2 58.2721 6.12392   5
  11   5  -2 65.6091 8.32332  11
 -11   5   2 55.7951 5.70940   3
   9  -5  -2 482.433 12.6699   6
   9  -5  -2 466.861 13.2964   1
  -9  -5   2 484.667 13.6784   2
   9  -5  -2 448.781 17.2767  13
  -9  -5   2 499.935 16.1168   8
  -9   5   2 464.170 14.9192   5
   9   5  -2 470.249 17.3779  11
   9   5  -2 453.130 16.0930   1
  -9   5   2 484.119 16.0917   3
  -7  -5   2 270.691 9.42031   1
  -7  -5   2 272.091 10.1215   8
   7  -5  -2 275.372 7.99854   6
   7  -5  -2 273.782 8.67673   1
   7  -5  -2 264.069 11.6388  13
   7   5  -2 279.587 10.8627   1
  -7   5   2 268.348 9.36762   5
   7   5  -2 271.229 10.7447  11
   7   5  -2 285.395 9.38550   6
  -7   5   2 280.218 10.4869   3
   5  -5  -2 478.722 12.0640   1
  -5  -5   2 457.600 12.7120   1
   5  -5  -2 480.595 11.1824   6
  -5  -5   2 464.920 12.7524   8
   5  -5  -2 464.748 14.7584  13
   5   5  -2 464.612 13.5673   1
  -5   5   2 476.305 13.0822   3
   5   5  -2 480.270 12.7906   7
  -5   5   2 464.085 11.8447   5
   5   5  -2 465.759 13.2173  11
   5   5  -2 446.649 11.7333   6
   3  -5  -2 1343.80 29.4205  10
   3  -5  -2 1296.86 25.4028   6
  -3  -5   2 1236.62 25.1649  12
   3  -5  -2 1251.74 26.3780   1
   3  -5  -2 1291.62 28.7761  13
  -3  -5   2 1292.02 26.9442   1
  -3  -5   2 1260.57 25.3958   6
   3   5  -2 1268.61 26.8362   7
  -3   5   2 1216.51 23.8233  12
   3   5  -2 1288.82 27.0644   1
   3   5  -2 1200.45 25.1291   6
   3   5  -2 1236.41 25.3989   4
  -3   5   2 1263.73 25.4262   1
   3   5  -2 1271.35 26.8066  10
  -3   5   2 1272.10 26.6010   3
  -3   5   2 1219.46 27.7174   7
  -3   5   2 1252.29 25.1888   5
  -3   5   2 1260.30 25.4310   9
   3   5  -2 1311.10 26.8864  11
  -1  -5   2 47.8099 2.26682   6
   1  -5  -2 44.5061 2.79453  10
   1  -5  -2 43.1454 2.95504   1
  -1  -5   2 48.2595 2.75860   1
  -1  -5   2 46.3386 1.82202  12
   1  -5  -2 46.5892 3.15107  13
  -1   5   2 44.7242 2.62567   1
  -1   5   2 48.0265 2.76636   3
   1   5  -2 47.6012 2.47198   1
  -1   5   2 46.8154 2.80024  11
   1   5  -2 51.0838 3.15150   7
  -1   5   2 48.0428 2.94472  10
  -1   5   2 49.1217 2.35847   9
   1   5  -2 49.9558 2.83971  11
  -1   5   2 60.0772 3.18216   7
   1   5  -2 44.8039 2.64445   4
   1  -5   2 815.358 15.8875   6
   1  -5   2 790.203 16.7794   1
   1  -5   2 855.982 16.3437   6
   1  -5   2 784.671 15.7207  12
  -1  -5  -2 797.998 18.4858   1
  -1  -5  -2 789.541 17.3205   8
  -1  -5  -2 783.580 17.0495  13
   1  -5   2 810.871 16.6155  10
  -1  -5  -2 745.975 16.6680   6
  -1   5  -2 826.426 18.3929   4
   1   5   2 815.675 17.1274   9
  -1   5  -2 818.712 18.9387   7
   1   5   2 776.958 16.5575   7
   1   5   2 800.190 17.9047  11
  -1   5  -2 818.917 17.0231   5
   1   5   2 789.512 17.0287   6
   1   5   2 800.370 19.3072  10
  -1   5  -2 834.795 17.3905   3
   1   5   2 794.617 18.4421   1
  -3  -5  -2 139.524 5.80435   8
  -3  -5  -2 138.382 5.63835   1
   3  -5   2 136.816 2.76178   6
   3  -5   2 133.225 6.27741  10
   3  -5   2 138.789 3.99279   1
   3  -5   2 141.415 2.76384   6
  -3  -5  -2 147.734 5.45839   2
  -3   5  -2 143.502 6.44984   7
  -3   5  -2 140.382 5.58435   3
   3   5   2 142.113 5.42553   9
   3   5   2 143.400 5.26584   6
   3   5   2 145.377 6.33128   1
  -3   5  -2 136.034 5.38383   5
  -3   5  -2 131.802 5.61851   4
  -3   5  -2 136.686 4.93977   8
  -3   5  -2 141.077 5.49478  14
   3   5   2 139.801 6.06824  11
   3   5   2 146.121 7.71704  10
   5  -5   2 22.2819 3.36746  13
  -5  -5  -2 22.6334 2.15313  14
  -5  -5  -2 24.9220 2.95896   2
  -5  -5  -2 26.7788 3.58877   8
   5   5   2 23.8171 2.80292   6
  -5   5  -2 22.8284 3.03458   3
   5   5   2 25.0906 3.40948   1
   5   5   2 37.0615 4.15927  11
  -5   5  -2 23.5003 3.43416   7
  -5   5  -2 26.5473 3.28351   5
   5   5   2 22.5284 4.25695  10
  -7  -5  -2 159.305 8.62062   8
   7  -5   2 162.030 4.43983   6
  -7  -5  -2 157.835 7.08145   2
   7   5   2 145.911 8.94089  11
  -7   5  -2 177.253 8.43928   3
   7   5   2 171.438 7.61667   6
   7   5   2 165.530 8.49786   1
  -7   5  -2 158.992 8.02890   5
  -9  -5  -2 6.53379 3.29229   8
  -9  -5  -2 7.66299 2.55163   2
   9  -5   2 2.81227 2.93797  11
   9  -5   2 3.76576 1.10867   6
  -9   5  -2 6.15105 2.49897   3
  -9   5  -2 2.06292 2.56366   5
   9   5   2 4.39910 3.89343  11
   9   5   2 4.50866 2.46835   1
   9   5   2 3.58157 2.19949   6
 -10  -6   2 917.401 25.4423   8
 -10  -6   2 848.780 21.4593   2
  10  -6  -2 871.280 20.5965   6
 -10   6   2 877.497 24.7252   3
 -10   6   2 833.312 23.1524   5
  10   6  -2 861.657 25.4589   1
  10   6  -2 854.300 26.9451  11
  -8  -6   2 23.8749 3.05205   2
   8  -6  -2 12.2575 2.12557   1
   8  -6  -2 23.6489 2.55358   6
  -8  -6   2 16.1479 3.47168   8
   8  -6  -2 12.2211 3.51033  13
  -8   6   2 14.3820 2.69097   5
   8   6  -2 15.5486 3.49886   1
  -8   6   2 29.6155 4.39207   3
   8   6  -2 19.2060 4.21670  11
  -6  -6   2 1534.47 33.4286   1
   6  -6  -2 1540.28 31.9018   1
   6  -6  -2 1508.62 30.6314   6
  -6  -6   2 1525.06 33.4841   8
   6  -6  -2 1454.86 36.3298  13
  -6   6   2 1490.39 33.5082   3
   6   6  -2 1489.42 34.5609   1
   6   6  -2 1476.68 34.1313  11
  -6   6   2 1509.19 32.1660   5
  -4  -6   2 31.0408 2.87077   1
  -4  -6   2 36.2794 2.99649   8
  -4  -6   2 28.2208 2.08399   6
   4  -6  -2 31.0075 2.25009   6
   4  -6  -2 32.6082 2.77543   1
   4  -6  -2 33.2323 3.60061  13
   4   6  -2 27.4497 2.81572   1
  -4   6   2 27.6669 2.65092   3
  -4   6   2 30.3539 3.24961   7
   4   6  -2 31.1604 3.22799  11
  -4   6   2 30.9160 2.32713   9
   4   6  -2 31.0777 2.88064   7
  -4   6   2 27.8232 2.23657   5
   4   6  -2 29.4347 2.02635   4
  -2  -6   2 3421.04 63.5002   6
  -2  -6   2 3292.73 64.9679   1
   2  -6  -2 3289.30 65.0061   1
   2  -6  -2 3296.92 63.4838   6
   2  -6  -2 3481.57 66.9044  13
  -2   6   2 3331.49 65.7965   7
  -2   6   2 3358.24 64.0595   1
  -2   6   2 3288.83 62.5154   5
   2   6  -2 3325.44 64.2048   4
   2   6  -2 3356.32 65.3946   7
  -2   6   2 3360.95 63.1447   9
   2   6  -2 3328.69 64.5614   1
   2   6  -2 3475.44 64.9523  11
  -2   6   2 3410.71 64.8921   3
   0  -6   2 380.913 10.1747   1
   0  -6  -2 401.872 11.4200   1
   0  -6   2 407.946 9.35469   6
   0  -6  -2 376.453 8.91224   8
   0  -6  -2 389.665 9.69723   6
   0  -6  -2 401.175 10.8961  13
   0   6  -2 386.951 10.8687   4
   0   6   2 392.671 10.8315   1
   0   6  -2 395.399 9.99471   3
   0   6   2 388.464 9.44188   9
   0   6   2 399.571 10.9391  10
   0   6  -2 384.045 8.79058   5
   0   6   2 370.165 10.1926   7
   0   6  -2 385.483 10.3866  11
   0   6   2 386.754 10.6181  11
   0   6  -2 403.391 11.4885   7
  -2  -6  -2 4105.26 80.6137   1
  -2  -6  -2 4227.53 79.1888   2
  -2  -6  -2 4087.49 79.4126   8
   2  -6   2 4067.85 81.1169   6
   2  -6   2 4130.07 80.7462   1
  -2  -6  -2 4040.35 77.7753  13
   2   6   2 4258.64 81.1725   1
  -2   6  -2 4123.37 80.4637   4
   2   6   2 4269.27 82.7428  10
   2   6   2 4142.58 78.8582   6
   2   6   2 4153.25 78.6928   9
  -2   6  -2 4189.36 79.2708   3
  -2   6  -2 4270.28 79.0495   5
  -2   6  -2 4275.84 81.6778   7
   2   6   2 4295.53 80.4623  11
   4  -6   2 334.472 12.4017  13
  -4  -6  -2 350.779 10.1796   2
  -4  -6  -2 345.798 11.1196   8
   4  -6   2 339.502 7.30374   6
  -4  -6  -2 309.731 10.3618   1
   4   6   2 348.734 10.3508   9
  -4   6  -2 328.998 10.4001   5
  -4   6  -2 331.786 10.4722   3
   4   6   2 333.796 13.7565  10
   4   6   2 329.909 11.3089  11
  -4   6  -2 337.045 11.9465   7
  -4   6  -2 339.782 10.9676   4
   4   6   2 342.523 10.2116   6
   4   6   2 331.477 11.5558   1
   6  -6   2 1800.27 42.2352  13
  -6  -6  -2 1766.15 40.4272   8
  -6  -6  -2 1812.14 38.6046   2
  -6   6  -2 1811.58 39.4521   5
   6   6   2 1816.38 41.5014  11
  -6   6  -2 1869.91 41.5246   7
   6   6   2 1818.85 41.1629   1
  -6   6  -2 1786.75 39.5595   3
   6   6   2 1731.72 38.6712   6
  -8  -6  -2 55.3499 4.93759   2
   8  -6   2 53.9497 2.65201   6
  -8  -6  -2 58.9102 5.58442   8
   8   6   2 54.8262 6.94222  11
  -8   6  -2 47.9360 5.22781   5
   8   6   2 54.3049 5.69841   1
   8   6   2 59.4710 5.08057   6
  -8   6  -2 49.5361 5.27360   3
  -9  -7   2 31.7473 3.51866   2
   9  -7  -2 32.4563 3.15675   6
  -9  -7   2 31.9734 4.77653   8
  -9   7   2 29.4365 4.59135   3
   9   7  -2 39.6758 6.21482  11
   9   7  -2 27.3822 4.77438   1
  -9   7   2 35.4610 4.42753   5
   7  -7  -2 2.63642 2.04963  13
  -7  -7   2 4.09323 1.96083   8
   7  -7  -2 2.81857 1.65695   1
  -7  -7   2 3.16964 1.91014   1
   7  -7  -2 1.73098 1.26582   6
  -7   7   2 4.10349 2.28540   3
   7   7  -2 6.49681 3.00017  11
   7   7  -2 4.02993 2.45449   1
  -7   7   2 1.68105 1.72059   5
   5  -7  -2 0.26757 0.90865   6
  -5  -7   2 0.42480 1.36660   1
   5  -7  -2 1.06424 1.21465   1
   5  -7  -2 3.18860 2.11898  13
  -5  -7   2 3.01265 1.67998   8
  -5   7   2 2.87404 1.31821   3
   5   7  -2 3.58706 2.22817  11
   5   7  -2 0.84246 1.32525   7
  -5   7   2 8.63838 1.88124   5
   5   7  -2 2.46434 1.74819   1
  -3  -7   2 110.413 5.60264   1
   3  -7  -2 116.865 5.49265   1
  -3  -7   2 108.819 4.53226   6
   3  -7  -2 104.908 6.48244  13
   3  -7  -2 107.124 4.53740   6
   3   7  -2 106.417 5.39625   1
  -3   7   2 105.965 4.20132   9
   3   7  -2 106.277 5.45869   7
  -3   7   2 107.069 4.12386   5
   3   7  -2 107.229 4.49408   4
  -3   7   2 104.812 5.29421   3
   3   7  -2 107.529 5.31621  11
  -3   7   2 104.975 6.04172   7
   1  -7  -2 8.52663 1.50641   6
  -1  -7   2 7.40441 1.72088   1
   1  -7  -2 18.9871 2.77150   1
  -1  -7   2 8.97437 1.45689   6
   1  -7  -2 8.20442 1.98234  13
   1   7  -2 10.0949 2.06174  11
  -1   7   2 8.02319 1.69625   3
  -1   7   2 9.58018 1.97583   7
   1   7  -2 9.44416 1.76183   3
  -1   7   2 8.09894 1.25653   9
   1   7  -2 7.66335 1.44186   1
   1   7  -2 9.72867 1.77029   4
  -1   7   2 11.8020 1.94463  10
  -1  -7  -2 232.329 7.13264   6
  -1  -7  -2 240.569 7.83333  13
   1  -7   2 233.864 6.61044   6
  -1  -7  -2 250.682 9.04345   1
  -1  -7  -2 222.128 6.89528   8
   1  -7   2 234.301 7.46926   1
   1   7   2 246.370 8.54819  11
  -1   7  -2 244.307 9.11953   7
  -1   7  -2 238.805 7.63696   3
  -1   7  -2 237.682 8.46522   4
  -1   7  -2 240.623 6.78577   5
   1   7   2 233.514 6.94187   9
   1   7   2 223.279 7.22053   7
   1   7   2 240.065 8.63745   1
   1   7   2 237.954 8.46616  10
   3  -7   2 72.2569 3.48092   1
  -3  -7  -2 71.2354 4.85165   1
  -3  -7  -2 71.0539 4.35041   2
   3  -7   2 68.0413 2.89188   6
  -3  -7  -2 62.4779 4.05035   8
   3   7   2 78.4345 4.21327   9
  -3   7  -2 74.1374 4.25103   5
  -3   7  -2 75.0842 5.05517   4
   3   7   2 70.9344 5.51099  10
   3   7   2 70.0180 3.93689   6
  -3   7  -2 70.6155 4.44616   3
   3   7   2 73.2141 5.17975   1
  -3   7  -2 75.8211 5.55995   7
   3   7   2 73.1604 5.11129  11
   5  -7   2 77.7040 6.48228  13
  -5  -7  -2 68.9426 5.30301   8
  -5  -7  -2 74.6641 4.98551   2
   5  -7   2 73.9068 2.87372   6
   5   7   2 75.4784 6.21992  11
  -5   7  -2 68.8493 5.97449   7
  -5   7  -2 72.5653 5.12201   3
   5   7   2 75.1624 4.88144   6
   5   7   2 74.5003 4.76260   9
   5   7   2 71.1459 5.85855   1
  -5   7  -2 79.9493 5.20777   5
  -7  -7  -2 186.009 8.41103   2
   7  -7   2 192.784 5.50805   6
  -7  -7  -2 186.552 9.42547   8
   7   7   2 185.707 8.89970   9
   7   7   2 184.000 8.42897   6
   7   7   2 166.527 10.0283  11
  -7   7  -2 175.998 8.73316   5
   7   7   2 175.437 9.84019   1
  -8  -8   2 251.436 11.2328   8
  -8  -8   2 248.654 9.86564   2
   8  -8  -2 248.809 8.58080   6
   8  -8  -2 247.858 9.00677   1
   8  -8  -2 229.332 15.0303  13
  -8   8   2 256.799 11.3660   3
   8   8  -2 258.562 12.5250  11
  -8   8   2 244.488 9.89023   5
   8   8  -2 269.121 12.5886   1
   6  -8  -2 1311.10 35.4529  13
  -6  -8   2 1369.00 31.6904   8
   6  -8  -2 1365.35 30.3323   1
   6  -8  -2 1366.48 29.2342   6
   6   8  -2 1368.44 33.1144  11
  -6   8   2 1363.99 32.2816   3
   6   8  -2 1397.07 33.7722   1
  -6   8   2 1355.89 30.0914   5
  -4  -8   2 566.645 16.2617   1
   4  -8  -2 555.585 13.9912   6
  -4  -8   2 563.296 14.9506   8
   4  -8  -2 575.601 15.4333   1
   4  -8  -2 577.354 18.6139  13
  -4   8   2 559.295 15.7915   3
   4   8  -2 543.228 15.5875   7
  -4   8   2 532.850 17.1581   7
  -4   8   2 533.019 13.5109   5
   4   8  -2 543.059 15.9237  11
   4   8  -2 553.055 16.1072   1
  -2  -8   2 1700.36 34.8671   6
   2  -8  -2 1753.68 35.1536   6
   2  -8  -2 1731.13 38.8801  13
  -2  -8   2 1762.26 37.0548   1
   2  -8  -2 1684.90 36.8047   1
  -2   8   2 1630.38 37.4133   7
  -2   8   2 1691.71 36.5193   3
   2   8  -2 1707.88 37.2398   7
   2   8  -2 1674.27 35.8068   4
   2   8  -2 1712.44 36.5895  11
   0  -8  -2 429.113 12.8744  13
   0  -8   2 423.591 12.2197   1
   0  -8  -2 442.555 13.5972   1
   0  -8   2 439.403 11.0685   6
   0  -8  -2 414.748 11.2685   6
   0   8  -2 430.256 12.8444   4
   0   8   2 417.385 12.4306   1
   0   8  -2 415.654 11.7943   3
   0   8   2 417.732 12.5574  11
   0   8   2 427.411 12.7145   3
   0   8  -2 422.118 13.5269   7
   0   8   2 407.811 12.0139   7
   0   8   2 411.411 10.4224   9
  -2  -8  -2 841.358 21.6802   1
   2  -8   2 836.594 18.1371   6
  -2  -8  -2 830.435 19.6967   2
   2  -8   2 820.205 19.1235   1
  -2   8  -2 844.165 22.4099   7
   2   8   2 821.696 21.4271   1
   2   8   2 812.190 20.9106  11
  -2   8  -2 825.614 19.8355   3
  -2   8  -2 814.655 21.2624   4
   2   8   2 819.624 18.6473   9
  -4  -8  -2 227.937 8.61883   2
  -4  -8  -2 215.251 8.82336   8
  -4  -8  -2 216.597 9.36080   1
   4  -8   2 209.437 10.7453  13
   4  -8   2 217.527 6.35283   6
   4   8   2 215.589 10.1174   1
  -4   8  -2 213.575 8.52278   3
  -4   8  -2 223.518 10.5055   7
  -4   8  -2 215.804 8.14440   5
   4   8   2 210.859 7.96321   9
   4   8   2 227.096 9.91238  11
   6  -8   2 373.383 15.4756  13
  -6  -8  -2 383.723 12.7981   2
   6  -8   2 386.618 9.51517   6
  -6  -8  -2 389.481 14.0647   8
  -6   8  -2 379.900 12.9095   5
   6   8   2 375.871 14.8439  11
   6   8   2 359.961 14.6606   1
  -6   8  -2 378.195 14.9481   7
  -6   8  -2 395.376 13.5599   3
  -8  -8  -2 221.099 11.1654   8
  -8  -8  -2 219.179 9.73729   2
   8  -8   2 217.330 6.43787   6
  -8   8  -2 212.925 9.94381   3
   8   8   2 192.749 11.6752  11
  -8   8  -2 207.070 9.85667   5
  -9  -9   2 5.42630 2.05819   2
   9  -9  -2 6.97069 2.00681   6
  -9  -9   2 11.1983 3.67918   8
  -9   9   2 6.72413 3.37728   3
   9   9  -2 2.46813 3.06646   1
  -9   9   2 3.51464 2.18685   5
   9   9  -2 3.88873 4.04368  11
   7  -9  -2 6.75388 1.88997   6
   7  -9  -2 4.66923 1.81451   1
  -7  -9   2 7.20526 2.71098   8
   7  -9  -2 5.47478 2.67253  13
  -7  -9   2 5.00396 2.09658   1
   7   9  -2 5.03208 3.23232  11
   7   9  -2 8.71888 2.88614   1
  -7   9   2 4.95011 2.01347   5
  -7   9   2 4.41639 2.70018   3
  -5  -9   2 12.0326 3.10986   1
   5  -9  -2 8.15530 1.96825   6
   5  -9  -2 6.49655 3.13200  13
   5  -9  -2 7.13022 2.10119   1
  -5  -9   2 5.89160 2.17287   8
   5   9  -2 19.9552 3.62208  11
  -5   9   2 5.86205 2.48398   3
   5   9  -2 9.05548 2.43648   1
   3  -9  -2 2.61537 1.37565   6
   3  -9  -2 0.77434 1.95013  13
  -3  -9   2 5.77115 1.50699   6
   3  -9  -2 6.97732 2.14669   1
  -3  -9   2 2.92438 1.95109   1
   3   9  -2 2.25721 1.67744  11
   3   9  -2 7.61223 2.26395   7
  -3   9   2 4.28304 1.99986   3
   3   9  -2 3.35233 1.78429   1
  -3   9   2 8.43779 2.76463   7
  -1  -9   2 81.8303 5.38230   1
   1  -9  -2 86.2086 6.00059  13
   1  -9  -2 82.8311 4.63520   6
  -1  -9   2 79.7759 4.34190   6
  -1   9   2 77.2220 5.34427   7
   1   9  -2 80.9507 4.90350   4
   1   9  -2 75.2307 4.59312   3
   1   9  -2 78.6185 5.03320  11
  -1   9   2 82.4321 5.41465   3
   1   9  -2 84.5258 5.89032   7
  -1  -9  -2 2.71402 2.08345   1
   1  -9   2 5.60995 1.50434   6
   1  -9   2 16.4978 2.65533   1
  -1   9  -2 5.13420 2.17822   4
   1   9   2 5.17123 2.00770  11
  -1   9  -2 2.35850 1.28554   3
  -1   9  -2 7.87824 2.39553   7
   1   9   2 1.47336 1.57753   1
   3  -9   2 57.9489 6.00160  13
  -3  -9  -2 54.8399 4.18632   2
   3  -9   2 48.5899 3.51604   1
   3  -9   2 53.9054 3.29912   6
  -3  -9  -2 55.0601 4.82856   1
   3   9   2 58.0549 5.01568   1
  -3   9  -2 53.8377 4.44169   3
  -3   9  -2 57.0071 5.77169   7
   3   9   2 53.1384 5.26414  11
  -5  -9  -2 67.5613 5.57343   8
   5  -9   2 64.5373 3.47628   6
  -5  -9  -2 72.4824 5.56321   2
   5  -9   2 63.0121 6.30144  13
   5   9   2 58.3500 5.71719   1
  -5   9  -2 59.2666 4.72188   5
  -5   9  -2 65.9575 6.10588   7
  -5   9  -2 67.8214 5.45639   3
   5   9   2 67.6488 6.62678  11
  -7  -9  -2 6.23983 2.14572   2
  -7  -9  -2 11.1291 3.40404   8
   7  -9   2 7.39229 1.56200   6
  -7   9  -2 4.87162 2.65750   3
  -7   9  -2 7.79144 2.69981   5
   7   9   2 9.91376 4.06611  11
   7   9   2 2.38048 2.25707   1
   8 -10  -2 503.546 14.1775   6
  -8 -10   2 479.761 16.8834   8
  -8 -10   2 491.418 15.7183   2
   8  10  -2 467.935 18.2813   1
   8  10  -2 457.370 18.1217  11
  -8  10   2 472.293 16.7852   3
   6 -10  -2 63.8725 4.92981   1
  -6 -10   2 79.3175 6.54161   1
  -6 -10   2 57.7330 5.37833   8
   6 -10  -2 67.1263 4.62586   6
   6  10  -2 64.6913 5.89808   1
  -6  10   2 58.3176 5.35171   3
   6  10  -2 51.3023 6.35763  11
   4 -10  -2 933.352 27.7275  13
  -4 -10   2 931.889 24.9915   1
   4 -10  -2 918.068 22.0146   6
   4 -10  -2 935.680 23.5735   1
   4  10  -2 909.679 24.6067  11
  -4  10   2 918.247 23.9823   3
   4  10  -2 815.393 23.9266   1
   2 -10  -2 98.6893 5.37725   6
   2 -10  -2 91.9232 7.09333  13
  -2 -10   2 83.0836 5.83970   1
  -2 -10   2 90.9139 4.94525   6
   2 -10  -2 82.2496 5.98975   1
   2  10  -2 94.8983 6.41064  11
   2  10  -2 90.1504 6.20099   7
  -2  10   2 112.169 6.66376   3
  -2  10   2 90.5577 6.26892   7
   2  10  -2 96.5506 5.60640   3
   0 -10  -2 1523.08 35.7473  13
   0 -10   2 1526.91 34.9504   1
   0 -10   2 1516.01 32.8436   6
   0  10  -2 1544.89 34.1545   3
   0  10  -2 1547.27 37.0417   7
   0  10   2 1545.18 35.4996   3
  -2 -10  -2 105.279 5.71879   2
   2 -10   2 98.0984 4.97697   6
  -2 -10  -2 100.624 6.77389   1
   2 -10   2 100.263 7.52950  13
   2 -10   2 100.825 5.84453   1
   2  10   2 92.5163 6.72520  11
   2  10   2 94.6396 6.65142   1
  -2  10  -2 98.0117 5.86328   3
  -2  10  -2 92.9744 7.04887   7
   4 -10   2 1406.18 38.0973  13
  -4 -10  -2 1415.37 32.7186   2
   4 -10   2 1464.04 30.2424   6
  -4  10  -2 1374.75 33.0376   3
   4  10   2 1378.12 35.0951  11
  -4  10  -2 1458.68 36.8491   7
   4  10   2 1441.34 36.1265   1
  -6 -10  -2 41.3547 4.66604   2
   6 -10   2 38.0438 2.93167   6
  -6  10  -2 44.1467 6.38056   7
  -6  10  -2 29.8131 4.46670   3
   6  10   2 34.9065 5.46833   1
   6  10   2 32.9826 5.63450  11
   7 -11  -2 99.4705 6.12902   1
  -7 -11   2 109.057 8.01155   1
  -7 -11   2 107.032 7.08458   2
   7 -11  -2 106.269 6.22044   6
   7  11  -2 93.4548 8.36168  11
   7  11  -2 118.811 8.89030   1
   5 -11  -2 130.363 7.40219   1
  -5 -11   2 152.483 9.25902   1
   5 -11  -2 137.494 6.62149   6
  -5  11   2 136.622 7.92300   3
   5  11  -2 125.330 8.76248  11
   3 -11  -2 96.5760 6.60749   1
  -3 -11   2 102.361 7.08406   1
   3 -11  -2 102.804 5.92806   6
   3 -11  -2 114.409 8.68576  13
  -3  11   2 101.928 7.72816   7
   3  11  -2 101.651 7.28625  11
   3  11  -2 125.359 7.74934   7
   3  11  -2 102.192 6.40932   3
  -3  11   2 99.2600 6.59730   3
  -1 -11   2 204.397 9.84608   1
   1 -11  -2 238.649 10.7185   1
   1 -11  -2 206.369 8.42494   6
  -1 -11   2 206.700 8.27221   6
   1 -11  -2 209.139 10.5923  13
  -1  11   2 201.996 9.84001   7
   1  11  -2 209.571 9.17857   3
  -1  11   2 220.770 10.0719   3
   1  11  -2 204.859 10.5498   7
   1 -11   2 89.6463 7.78155  13
  -1 -11  -2 79.8438 5.40262   2
   1 -11   2 85.3064 5.70652   1
   1 -11   2 92.0503 5.20806   6
   1  11   2 83.2409 6.61998   3
  -1  11  -2 87.5199 7.42264   7
  -1  11  -2 82.3302 5.76722   3
   1  11   2 87.1189 6.85028  11
   3 -11   2 119.571 5.87457   6
  -3 -11  -2 125.090 7.15589   2
   3 -11   2 125.138 6.43807   1
  -3  11  -2 126.072 9.15470   7
   3  11   2 138.443 8.42679   1
  -3  11  -2 121.648 7.03429   3
   3  11   2 127.685 8.69132  11
   5 -11   2 69.7267 4.29884   6
  -5 -11  -2 69.6261 6.02099   2
  -5  11  -2 67.5506 5.87497   3
   5  11   2 66.1079 6.59504   1
   5  11   2 73.2361 7.55439  11
  -5  11  -2 76.8773 7.68093   7
  -6 -12   2 714.177 22.7781   1
   6 -12  -2 675.647 18.5606   6
   6 -12  -2 695.869 19.8918   1
   6  12  -2 666.881 22.2606  11
  -6  12   2 677.507 21.4120   3
  -4 -12   2 116.322 8.38326   1
   4 -12  -2 111.338 6.44485   6
   4 -12  -2 112.486 7.36921   1
   4  12  -2 112.255 8.29351  11
  -4  12   2 106.849 7.58104   3
   4  12  -2 105.052 7.33127   3
   2 -12  -2 811.306 23.1826   1
   2 -12  -2 785.179 20.6582   6
   2 -12  -2 775.862 25.1071  13
  -2 -12   2 769.214 23.2850   1
   2  12  -2 771.016 21.4822   3
  -2  12   2 764.247 22.2284   3
  -2  12   2 771.840 23.3917   7
   2  12  -2 756.785 23.3586   7
   0 -12  -2 149.986 9.19981   1
   0 -12   2 143.262 8.36641   1
   0 -12   2 147.525 7.28548   6
   0  12  -2 161.545 9.97760   7
   0  12  -2 132.946 7.66977   3
   0  12   2 139.490 8.27971   3
   2 -12   2 522.936 14.9365   6
  -2 -12  -2 499.129 15.4438   2
  -2 -12  -2 511.306 18.0640   1
   2  12   2 512.151 18.0684   3
   2  12   2 500.303 17.8539  11
  -2  12  -2 496.451 18.8864   7
  -2  12  -2 487.408 16.0414   3
  -4 -12  -2 140.975 9.06751   1
  -4 -12  -2 135.512 7.97299   2
   4 -12   2 141.265 6.59899   6
   4  12   2 126.382 8.85431  11
  -4  12  -2 131.392 9.86243   7
   4  12   2 131.009 9.22996   1
  -4  12  -2 135.878 8.01902   3
  -3 -13   2 19.8392 4.65653   1
   3 -13  -2 19.5273 3.47925   6
   3 -13  -2 20.1963 3.76234   1
  -3  13   2 16.2239 4.02844   3
   3  13  -2 15.1424 3.59700   3
  -1 -13   2 28.7548 4.72619   1
  -1 -13   2 25.8097 3.71651   6
   1 -13  -2 29.7220 5.20097   1
   1  13  -2 28.6987 3.92544   3
   1  13  -2 29.0344 5.24267   7
  -1  13   2 31.7782 5.09739   3
  -1 -13  -2 17.7412 4.31346   1
   1 -13   2 9.91674 2.73942   6
  -1  13  -2 10.7209 3.09377   3
  -1  13  -2 20.3844 4.41803   7
   1  13   2 11.1496 3.71942   3
 -12   0   3 1.66663 2.27824   8
  12   0  -3 2.47528 3.52442  11
  12   0  -3 1.56550 2.11831   1
 -12   0   3 1.32756 2.25114   5
  12   0  -3 0.14058 1.81244   6
  10   0  -3 0.33677 1.69107   1
  10   0  -3 -0.2956 2.51940  11
 -10   0   3 0.58183 1.82896   8
  10   0  -3 -0.5941 1.48412   6
 -10   0   3 2.15682 1.98676   5
   8   0  -3 0.87333 1.36222  13
   8   0  -3 3.10614 1.67463  11
   8   0  -3 1.68021 1.41884   1
   8   0  -3 1.87258 0.97060   6
  -8   0   3 0.26727 1.56919   3
  -8   0   3 0.98954 1.45536   5
  -8   0   3 0.04448 0.94982   8
  -6   0   3 0.44509 0.45333   2
  -6   0   3 0.91874 0.72844  12
  -6   0   3 1.12906 1.03942   3
   6   0  -3 1.05236 0.89023  11
  -6   0   3 1.01708 0.76250   1
   6   0  -3 1.98389 1.18038   1
  -6   0   3 0.16291 0.87075   8
   6   0  -3 3.43582 1.47131  13
   6   0  -3 1.21793 0.86532   6
   4   0  -3 0.45790 0.52239   1
  -4   0   3 0.11167 0.53116   1
   4   0  -3 0.35496 0.52237   6
  -4   0   3 0.78907 0.59327  12
  -4   0   3 0.26812 0.56162   3
   4   0  -3 1.57550 0.98921  13
  -2   0   3 6.57266 0.88354  12
   2   0  -3 4.53366 0.70850  14
   2   0  -3 4.42464 0.79717   1
  -2   0   3 5.00898 0.65147   6
  -2   0   3 4.36556 1.09331  10
   0   0   3 2.64190 1.04381  10
   0   0  -3 2.10102 0.50163   4
   0   0  -3 0.99814 0.62824   8
   0   0  -3 0.54274 0.47651  14
   0   0   3 2.76080 0.64600   9
   2   0   3 0.16775 0.53275  11
  -2   0  -3 0.18704 0.67786   2
  -2   0  -3 4.21334 0.83434  14
  -2   0  -3 1.04359 0.50743   7
  -2   0  -3 0.11576 0.73370   5
   2   0   3 2.44064 0.63617   1
   2   0   3 0.13941 1.01977  10
  -4   0  -3 0.46072 0.71722  14
   4   0   3 1.23056 1.08705  11
  -4   0  -3 0.31267 0.68871   2
  -4   0  -3 6.36338 1.74397   8
   4   0   3 1.51319 0.48822   6
   4   0   3 0.43370 0.60602   1
   4   0   3 -0.0490 1.39221  10
  -4   0  -3 -0.4300 1.03375   5
  -4   0  -3 4.58462 0.89734   4
  -6   0  -3 -0.7945 1.02978   2
   6   0   3 0.69692 0.85235   6
  -6   0  -3 0.16148 1.13897   8
   6   0   3 0.52841 1.68644  11
  -6   0  -3 -1.1486 1.46952   5
   6   0   3 0.98803 2.07231  10
   6   0   3 0.40418 0.71749   1
  -8   0  -3 6.13696 2.23823   8
   8   0   3 7.59863 1.62209   6
  -8   0  -3 -0.1552 2.07426   5
   8   0   3 3.85831 2.81179  11
  11  -1  -3 311.128 13.4012  11
 -11  -1   3 286.811 10.9103   5
  11  -1  -3 308.140 11.6569   1
  11  -1  -3 299.632 10.6087   6
 -11  -1   3 304.684 12.1771   8
  11   1  -3 304.448 11.1078   6
 -11   1   3 301.073 11.3010   8
 -11   1   3 305.912 11.6361   5
  11   1  -3 306.030 12.1554   1
  11   1  -3 302.356 13.5902  11
   9  -1  -3 699.109 19.5770  11
   9  -1  -3 733.466 18.8633   1
   9  -1  -3 682.810 17.3352   6
  -9  -1   3 719.254 18.1826   5
  -9  -1   3 719.584 19.0091   8
   9   1  -3 693.537 19.2170   1
   9   1  -3 713.311 20.4814  11
  -9   1   3 691.987 18.1573   8
  -9   1   3 717.061 18.6235   5
  -9   1   3 703.977 19.9620   3
   9   1  -3 716.815 17.9408   6
   7  -1  -3 1327.41 28.5903   1
  -7  -1   3 1330.19 28.3200  12
  -7  -1   3 1302.69 25.9117   2
  -7  -1   3 1325.03 28.4489   8
  -7  -1   3 1319.45 27.5883   5
   7  -1  -3 1274.31 30.5171  13
   7  -1  -3 1322.48 27.2231   6
  -7   1   3 1332.97 27.9557   5
  -7   1   3 1290.01 27.6920   8
  -7   1   3 1332.54 27.9826  12
   7   1  -3 1251.27 29.5471  13
   7   1  -3 1336.68 29.2222   1
   7   1  -3 1340.74 29.4214  11
   7   1  -3 1316.76 27.5956   6
  -7   1   3 1272.40 29.0018   3
  -5  -1   3 1313.46 26.7238   1
  -5  -1   3 1277.14 26.8156   3
   5  -1  -3 1329.17 26.0319   6
   5  -1  -3 1282.59 28.5063  13
  -5  -1   3 1292.84 26.4293  12
   5  -1  -3 1308.98 27.1086   1
  -5   1   3 1286.77 26.1421   1
  -5   1   3 1306.46 26.2357  12
   5   1  -3 1303.88 25.4731   4
   5   1  -3 1295.45 27.4469   1
   5   1  -3 1316.43 26.9873  11
   5   1  -3 1340.88 28.2978  13
   5   1  -3 1308.54 26.1940   6
  -5   1   3 1271.25 26.9913   3
   3  -1  -3 5081.60 108.553  10
   3  -1  -3 4844.25 96.7855   6
   3  -1  -3 4817.49 102.577   1
  -3  -1   3 5062.44 95.9601   9
  -3  -1   3 5326.80 116.264  10
   3  -1  -3 5230.98 106.371  13
  -3  -1   3 4998.21 101.907   1
  -3  -1   3 5072.55 100.033  12
   3  -1  -3 5119.71 97.8802  14
  -3  -1   3 5035.84 98.7021   6
   3   1  -3 5042.34 99.6082  11
  -3   1   3 5100.16 100.004   9
   3   1  -3 5122.64 98.9710   4
   3   1  -3 4951.63 97.4908   6
  -3   1   3 5172.50 114.627  10
   3   1  -3 4966.71 97.9662  14
  -3   1   3 5126.64 99.9013  12
   3   1  -3 5130.19 107.259  13
   3   1  -3 5172.33 109.965  10
   3   1  -3 4944.06 101.534   1
  -3   1   3 5034.61 103.198   1
  -3   1   3 4922.88 100.225   3
  -1  -1   3 1158.12 24.1963  10
   1  -1  -3 1163.00 23.0507  13
  -1  -1   3 1093.47 22.0672   1
   1  -1  -3 1098.44 21.8621   2
  -1  -1   3 1128.23 21.6445   9
   1  -1  -3 1146.02 22.1168  14
   1  -1  -3 1104.62 24.0824  10
  -1  -1   3 1148.48 22.1206  12
   1  -1  -3 1175.80 22.3642   8
   1  -1  -3 1121.18 22.4348   1
  -1  -1   3 1116.29 21.4563   6
   1   1  -3 1136.85 22.3022  14
  -1   1   3 1138.92 21.7096   6
   1   1  -3 1130.49 22.1110   2
   1   1  -3 1132.97 22.5255   7
  -1   1   3 1127.59 22.1433   9
   1   1  -3 1149.34 22.2726   4
   1   1  -3 1118.73 23.6865  10
  -1   1   3 1176.98 24.8344  10
  -1   1   3 1133.19 22.0110  12
  -1   1   3 1107.78 22.4248   1
   1  -1   3 3819.87 76.1944   1
   1  -1   3 4263.77 84.9496  10
  -1  -1  -3 4038.45 81.6914   8
  -1  -1  -3 4053.16 79.1028  14
  -1  -1  -3 3849.32 77.2543   2
  -1  -1  -3 3954.85 77.8577   4
  -1  -1  -3 4029.42 79.0829   5
  -1   1  -3 3999.16 80.0828   2
  -1   1  -3 4166.12 78.1306   5
  -1   1  -3 4045.68 80.1962   7
  -1   1  -3 4012.92 78.3501   8
   1   1   3 3964.45 78.1505   6
  -1   1  -3 3885.89 76.6129   4
   1   1   3 4165.98 83.4116   1
  -1   1  -3 4074.06 77.7709  14
   1   1   3 3908.53 77.8336  11
  -1   1  -3 4015.85 80.1227   3
   1   1   3 4215.37 92.7206  10
   3  -1   3 1308.08 31.2070  10
  -3  -1  -3 1296.84 26.4588   2
   3  -1   3 1270.47 24.5756   1
  -3  -1  -3 1264.57 25.7543  14
  -3  -1  -3 1234.87 26.5569   5
  -3  -1  -3 1293.07 27.7442   8
  -3   1  -3 1296.10 27.6188   8
   3   1   3 1298.83 31.6363  10
   3   1   3 1308.75 24.9939   6
   3   1   3 1274.67 25.9858   1
  -3   1  -3 1308.24 26.4669   2
  -3   1  -3 1259.84 27.0554   5
  -3   1  -3 1278.45 25.6387   4
  -3   1  -3 1331.06 26.2523   7
  -3   1  -3 1306.72 26.1268  14
   3   1   3 1269.33 26.3719  11
  -3   1  -3 1263.06 26.5921   3
  -5  -1  -3 848.739 21.1841   8
  -5  -1  -3 828.496 18.3952  14
   5  -1   3 869.330 25.9022  10
  -5  -1  -3 848.270 19.4713   2
   5  -1   3 872.253 16.7099   6
  -5  -1  -3 825.980 20.0662   5
   5  -1   3 850.721 17.7079   1
   5  -1   3 850.623 19.9725  11
   5   1   3 849.277 20.4895  11
  -5   1  -3 843.837 20.5972   5
   5   1   3 866.193 18.1749   6
   5   1   3 833.099 19.0088   1
  -5   1  -3 876.461 19.4039   2
   5   1   3 864.013 26.2898  10
  -5   1  -3 851.312 18.6610  14
  -5   1  -3 878.474 21.0491   8
  -7  -1  -3 731.100 20.1740   8
  -7  -1  -3 706.372 17.6567   2
   7  -1   3 680.818 18.8416  11
   7  -1   3 707.876 15.4692   6
  -7  -1  -3 695.115 18.7575   5
   7   1   3 706.459 16.6280   6
   7   1   3 694.808 17.2539   1
  -7   1  -3 712.470 19.6332   8
   7   1   3 674.400 19.2968  11
  -7   1  -3 676.172 19.0527   5
  -9  -1  -3 229.758 9.85035   5
  -9  -1  -3 219.026 10.8033   8
   9  -1   3 233.433 7.64845   6
   9  -1   3 223.529 10.7639  11
   9   1   3 234.320 11.3349  11
   9   1   3 233.789 8.46978   6
  -9   1  -3 230.383 10.4562   8
  -9   1  -3 222.466 10.3763   5
  12  -2  -3 89.8845 6.09620   1
 -12  -2   3 98.2245 7.28771   8
  12  -2  -3 91.6352 5.74837   6
  12  -2  -3 102.252 8.24473  11
 -12   2   3 88.0606 6.76495   5
  12   2  -3 98.9660 8.92017  11
  12   2  -3 92.2624 6.37355   6
  10  -2  -3 240.603 10.5927  11
  10  -2  -3 226.898 8.39646   6
 -10  -2   3 230.709 8.97275   5
  10  -2  -3 227.676 9.20823   1
 -10  -2   3 221.083 9.83538   8
  10   2  -3 226.864 10.1883   1
  10   2  -3 229.647 9.17262   6
 -10   2   3 227.803 10.6315   3
  10   2  -3 228.733 11.3178  11
 -10   2   3 215.820 9.33433   5
   8  -2  -3 275.206 11.3927  13
   8  -2  -3 294.964 8.77585   6
  -8  -2   3 281.636 7.92630   2
  -8  -2   3 301.675 10.2538   8
   8  -2  -3 292.448 9.70083   1
  -8  -2   3 280.229 9.00906   5
   8   2  -3 308.269 10.7623   1
  -8   2   3 287.478 9.04906   8
   8   2  -3 297.683 11.0978  11
  -8   2   3 287.971 9.63857   5
   8   2  -3 290.371 9.45808   6
  -8   2   3 303.682 10.6722   3
   6  -2  -3 301.741 8.02497   6
   6  -2  -3 311.357 8.99103   1
  -6  -2   3 299.985 8.78613   1
   6  -2  -3 304.249 10.7499  13
  -6  -2   3 303.924 8.06169   5
  -6  -2   3 302.405 8.80053  12
   6   2  -3 301.352 8.46417   6
  -6   2   3 294.860 9.35712   3
  -6   2   3 301.083 8.31334  12
   6   2  -3 292.192 9.53222   1
  -6   2   3 303.813 8.11876   8
  -6   2   3 290.462 8.42811   5
   6   2  -3 284.630 9.49771  13
   6   2  -3 307.094 9.54899  11
   4  -2  -3 710.858 14.8911   6
   4  -2  -3 685.446 15.8483   1
  -4  -2   3 712.516 15.8497   1
  -4  -2   3 698.913 14.6839   6
  -4  -2   3 703.487 15.3026  12
   4  -2  -3 718.901 17.4072  13
  -4   2   3 701.573 15.3769   9
   4   2  -3 704.824 15.0489   6
  -4   2   3 720.270 15.7803   3
   4   2  -3 713.110 15.5177  11
   4   2  -3 710.295 16.2756   1
  -4   2   3 713.432 15.2396   1
   4   2  -3 724.598 16.9157  13
  -4   2   3 705.326 14.8775  12
   4   2  -3 728.331 14.7683   4
   2  -2  -3 428.496 9.41504   6
  -2  -2   3 458.467 8.93843   9
  -2  -2   3 438.316 9.64732  12
   2  -2  -3 430.303 8.90504   2
   2  -2  -3 432.112 10.3166   1
  -2  -2   3 447.519 11.4016  10
  -2  -2   3 419.606 9.93259   1
   2  -2  -3 426.374 11.7211  10
  -2  -2   3 431.048 9.28779   6
   2  -2  -3 439.958 10.9260  13
  -2   2   3 450.197 10.1670   1
  -2   2   3 443.439 9.61273   3
  -2   2   3 441.694 11.9402  10
   2   2  -3 446.778 9.87499   4
   2   2  -3 415.686 10.9432  10
  -2   2   3 432.912 9.34896  12
   2   2  -3 445.895 10.0770   1
  -2   2   3 428.111 9.74685   9
   2   2  -3 441.260 9.33888  11
  -2   2   3 434.473 9.30130   6
   2   2  -3 431.198 9.57586  14
   0  -2  -3 711.715 14.7691   2
   0  -2  -3 716.036 14.8817  14
   0  -2   3 708.098 14.6259  12
   0  -2  -3 696.836 16.9310  10
   0  -2  -3 707.082 15.1085   1
   0  -2   3 703.599 14.2199   1
   0  -2  -3 728.397 15.0231  13
   0  -2   3 714.710 14.0931   9
   0  -2   3 725.349 13.3999   6
   0  -2   3 706.427 13.3825   6
   0  -2  -3 718.229 15.1583   8
   0  -2   3 730.367 16.7212  10
   0   2  -3 735.854 15.2018   4
   0   2   3 701.167 14.4055   6
   0   2   3 699.906 14.9475   9
   0   2  -3 699.346 15.1062  14
   0   2  -3 716.048 15.2214   7
   0   2  -3 688.491 15.9825  10
   0   2   3 700.360 14.1617  11
   0   2  -3 688.591 14.1405   3
   0   2   3 716.451 15.3284   1
   0   2  -3 732.613 14.9556   5
   0   2  -3 727.635 15.0618   2
   0   2   3 718.880 17.5360  10
  -2  -2  -3 638.074 14.0796   1
  -2  -2  -3 664.213 14.3922  14
  -2  -2  -3 645.944 13.4311   4
  -2  -2  -3 657.525 15.6554   8
   2  -2   3 666.360 17.9098  10
  -2  -2  -3 658.193 14.7156   2
   2  -2   3 657.491 12.7043   1
  -2  -2  -3 649.752 14.5283   5
  -2   2  -3 674.285 14.8439  14
   2   2   3 655.189 14.5679  11
  -2   2  -3 683.065 15.0747   7
   2   2   3 669.582 15.0791   1
  -2   2  -3 675.305 14.6496   3
   2   2   3 683.172 18.8342  10
  -2   2  -3 677.318 14.8711   2
  -2   2  -3 714.276 14.9950   4
   2   2   3 702.775 14.1512   6
  -2   2  -3 666.372 15.4977   8
  -2   2  -3 652.293 15.2082   5
  -4  -2  -3 265.797 8.34603   5
   4  -2   3 280.232 11.9698  10
  -4  -2  -3 273.309 9.38886   8
  -4  -2  -3 288.086 8.38087   2
  -4  -2  -3 271.067 7.61672  14
   4   2   3 289.468 8.58802   1
  -4   2  -3 291.675 9.22998   5
  -4   2  -3 283.562 8.78772   3
  -4   2  -3 277.763 8.00613  14
  -4   2  -3 284.839 9.23353   8
  -4   2  -3 283.790 8.64611   7
  -4   2  -3 282.533 7.89344   4
  -4   2  -3 288.266 8.27117   2
   4   2   3 282.200 8.83584  11
   4   2   3 287.126 7.66470   6
   4   2   3 283.960 12.5390  10
   6  -2   3 363.495 11.3424  11
   6  -2   3 354.498 7.66044   6
  -6  -2  -3 360.815 12.3720   8
   6  -2   3 339.827 15.4846  10
  -6  -2  -3 345.874 11.0447   5
  -6  -2  -3 359.288 10.6473   2
  -6   2  -3 351.225 11.6058   8
  -6   2  -3 351.437 10.2641   2
   6   2   3 339.180 9.79524   6
   6   2   3 355.007 10.7846   1
  -6   2  -3 335.651 11.5675   5
   6   2   3 340.301 11.7616  11
  -8  -2  -3 158.465 7.56937   5
   8  -2   3 164.983 8.44657  11
  -8  -2  -3 165.205 7.29483   2
  -8  -2  -3 150.355 8.41758   8
   8  -2   3 154.379 5.34186   6
  -8   2  -3 166.862 8.56386   5
   8   2   3 154.955 7.11719   1
   8   2   3 156.915 9.07434  11
   8   2   3 152.541 6.77784   6
  11  -3  -3 704.753 19.6815   1
  11  -3  -3 731.200 22.0425  11
 -11  -3   3 726.427 21.5982   8
  11  -3  -3 729.834 18.8663   6
  11   3  -3 742.093 23.9020  11
  11   3  -3 744.644 22.0509   1
  11   3  -3 739.084 20.3644   6
 -11   3   3 743.427 22.3441   3
 -11   3   3 730.889 21.0548   5
  -9  -3   3 52.1101 3.88756   5
   9  -3  -3 50.7608 5.38405  13
  -9  -3   3 52.7058 4.91032   8
   9  -3  -3 53.3626 3.71823   6
   9  -3  -3 66.9818 4.58870   1
  -9   3   3 53.9909 4.32644   5
   9   3  -3 52.0625 4.23847   6
   9   3  -3 56.5697 4.88893   1
  -9   3   3 53.3186 5.11238   3
   9   3  -3 55.8148 5.86615  11
   7  -3  -3 2157.38 41.9585   6
  -7  -3   3 2156.07 44.0071   8
   7  -3  -3 2083.11 46.6571  13
   7  -3  -3 2087.75 43.0703   1
  -7  -3   3 2125.20 43.3217  12
  -7  -3   3 2075.85 42.9300   1
  -7  -3   3 2120.35 41.9441   5
  -7   3   3 2123.74 43.1310   5
   7   3  -3 2145.47 42.9580   6
   7   3  -3 2153.09 44.6782  11
   7   3  -3 2167.82 45.0252   1
  -7   3   3 2064.96 41.6772   8
  -7   3   3 2149.77 44.5243   3
   5  -3  -3 190.261 6.44889   1
   5  -3  -3 183.750 7.79514  13
   5  -3  -3 182.152 5.57561   6
  -5  -3   3 191.109 6.58585   1
  -5  -3   3 187.155 6.07735  12
  -5   3   3 185.941 6.61487   3
   5   3  -3 181.760 6.54992  11
   5   3  -3 177.334 5.01696   4
   5   3  -3 194.306 5.96819   6
  -5   3   3 178.817 5.47882   1
  -5   3   3 177.121 5.02598   8
  -5   3   3 192.826 5.57749  12
   5   3  -3 185.627 7.01090   1
  -5   3   3 209.984 6.32010   9
   3  -3  -3 5887.32 123.409   1
  -3  -3   3 5975.91 121.359   6
  -3  -3   3 5898.19 122.581   1
   3  -3  -3 6509.23 130.815  13
   3  -3  -3 6209.92 123.164   6
  -3  -3   3 6181.73 116.812  12
   3   3  -3 6136.84 121.953  14
  -3   3   3 6431.06 137.344  10
  -3   3   3 6285.54 119.736  12
   3   3  -3 6075.23 123.211   1
  -3   3   3 6266.18 119.323   1
   3   3  -3 6170.42 130.404  10
   3   3  -3 6387.84 122.240  11
  -3   3   3 6400.88 124.502   3
  -3   3   3 6166.52 122.631   9
   3   3  -3 6119.47 120.936   4
   3   3  -3 6110.81 122.381   7
   1  -3  -3 780.352 18.6271  10
  -1  -3   3 827.124 15.8150   6
  -1  -3   3 819.399 17.6849  10
   1  -3  -3 811.934 16.1250   2
   1  -3  -3 789.503 16.0717   8
   1  -3  -3 765.048 17.2216   1
   1  -3  -3 811.351 17.4449  13
   1  -3  -3 777.402 16.1190   6
  -1  -3   3 796.989 16.1766  12
  -1  -3   3 796.873 16.6168   1
   1   3  -3 799.926 16.8834  14
   1   3  -3 794.357 17.3601   7
   1   3  -3 800.905 17.2390  10
  -1   3   3 801.063 18.9155  10
   1   3  -3 808.737 17.1254   4
  -1   3   3 793.247 16.3173  11
   1   3  -3 790.146 15.5758   3
   1   3  -3 798.927 16.1228  11
  -1   3   3 777.752 16.1499   6
  -1   3   3 809.184 17.2122   1
  -1   3   3 781.596 15.9342  12
  -1   3   3 804.276 16.6967   9
   1   3  -3 856.500 16.6779   1
   1  -3   3 5928.40 127.357  10
  -1  -3  -3 6041.77 116.714  13
  -1  -3  -3 5560.45 112.456   1
   1  -3   3 5701.04 112.130   1
  -1  -3  -3 5888.13 119.848   8
  -1  -3  -3 5742.54 116.942   2
   1   3   3 5830.06 113.819   9
  -1   3  -3 6117.58 115.111   3
   1   3   3 5989.49 135.669  10
  -1   3  -3 5781.79 117.374   7
  -1   3  -3 5930.93 116.553   8
  -1   3  -3 6115.96 110.728   2
   1   3   3 5742.28 115.356   6
   1   3   3 5718.07 114.701  11
   1   3   3 5767.46 122.805   1
  -1   3  -3 5891.63 110.998   5
  -1   3  -3 5650.66 114.866   4
  -1   3  -3 5914.93 119.844  14
   3  -3   3 413.568 13.7694  10
  -3  -3  -3 402.133 10.2646   5
  -3  -3  -3 417.698 10.2673  14
  -3  -3  -3 412.431 11.7336   8
  -3  -3  -3 422.333 10.7677   2
  -3   3  -3 410.484 10.6455   2
  -3   3  -3 423.997 11.4307   8
   3   3   3 428.001 15.1220  10
  -3   3  -3 426.561 11.5216   5
   3   3   3 406.277 11.2794   1
  -3   3  -3 430.945 11.4770   7
   3   3   3 418.280 11.1672  11
  -3   3  -3 440.178 10.9589  14
  -3   3  -3 423.184 10.9054   3
   3   3   3 410.334 10.2706   6
  -3   3  -3 416.012 10.7915   4
  -5  -3  -3 1895.96 38.7798   2
   5  -3   3 1850.20 39.9315  13
  -5  -3  -3 1841.48 37.3710  14
  -5  -3  -3 1833.64 38.5362   5
   5  -3   3 1833.93 44.7626  10
  -5  -3  -3 1940.28 40.9430   8
   5   3   3 1835.58 39.9920  11
  -5   3  -3 1892.09 38.2465   2
   5   3   3 1914.02 39.6620   1
   5   3   3 1888.52 38.1256   6
  -5   3  -3 1926.91 40.0610   8
  -5   3  -3 1918.67 39.8956   7
  -5   3  -3 1849.08 38.0004   4
  -5   3  -3 1926.71 40.1087   5
   5   3   3 1900.54 46.9638  10
  -5   3  -3 1900.37 39.5446   3
  -7  -3  -3 87.2958 6.13834   8
   7  -3   3 80.2134 5.68601  11
   7  -3   3 91.3262 3.05323   6
  -7  -3  -3 83.2494 5.41874   5
  -7  -3  -3 96.1400 5.46147   2
  -7   3  -3 97.3392 6.37979   5
   7   3   3 90.2869 5.56378   1
   7   3   3 81.7950 6.46027  11
   7   3   3 92.8852 5.13684   6
  -7   3  -3 94.0425 6.00235   8
   9  -3   3 495.887 11.9835   6
  -9  -3  -3 504.853 17.4728   8
   9  -3   3 456.934 15.9971  11
  -9   3  -3 477.473 16.3457   5
   9   3   3 530.617 15.1139   6
   9   3   3 473.631 15.2287   1
  10  -4  -3 209.507 8.57512   1
 -10  -4   3 204.972 9.71278   8
  10  -4  -3 201.823 7.81421   6
  10   4  -3 210.342 9.09572   6
  10   4  -3 206.939 11.2366  11
 -10   4   3 213.414 9.54467   5
 -10   4   3 223.842 10.5520   3
  10   4  -3 205.751 10.3805   1
  -8  -4   3 317.150 11.2801   8
   8  -4  -3 307.622 10.1300   1
   8  -4  -3 310.242 9.26142   6
   8  -4  -3 313.274 13.0139  13
   8   4  -3 331.791 12.1361   1
  -8   4   3 325.013 11.6627   3
   8   4  -3 312.994 10.4136   6
   8   4  -3 312.949 12.1151  11
  -8   4   3 322.048 10.6741   5
  -6  -4   3 393.104 9.68846   5
   6  -4  -3 385.266 13.5674  13
   6  -4  -3 409.332 10.2280   6
  -6  -4   3 391.803 11.3647   1
  -6  -4   3 399.106 11.7470   8
   6  -4  -3 413.093 11.2752   1
  -6  -4   3 401.061 11.1069  12
   6   4  -3 406.318 12.5248   1
  -6   4   3 399.929 11.8525   3
  -6   4   3 380.525 10.7816   5
   6   4  -3 402.492 10.7900   6
   6   4  -3 393.572 11.9223  11
  -6   4   3 391.923 9.95014  12
   4  -4  -3 1422.06 28.3614   6
   4  -4  -3 1470.31 29.7095   1
  -4  -4   3 1403.68 28.6389  12
  -4  -4   3 1427.22 29.9241   1
   4  -4  -3 1422.16 31.6761  13
  -4  -4   3 1414.10 28.2802   6
  -4   4   3 1461.26 29.6003   3
   4   4  -3 1365.43 28.1266   4
   4   4  -3 1432.90 29.4658  11
   4   4  -3 1417.88 30.0660   7
  -4   4   3 1422.84 28.8253   9
   4   4  -3 1463.49 30.3498   1
  -4   4   3 1417.49 27.5770  12
  -2  -4   3 936.007 19.2814   6
  -2  -4   3 939.249 19.2419  12
   2  -4  -3 956.509 20.8347   1
   2  -4  -3 954.962 21.4782  13
   2  -4  -3 990.329 18.8912   2
  -2  -4   3 956.301 20.4300   1
   2  -4  -3 933.952 19.5630   6
   2   4  -3 947.840 20.2654  10
   2   4  -3 979.933 20.3094   4
   2   4  -3 951.565 20.1148   1
  -2   4   3 961.287 19.8404   9
  -2   4   3 965.040 22.1581  10
   2   4  -3 984.710 20.1490  14
   2   4  -3 951.036 20.9289   7
  -2   4   3 944.686 18.6895  12
  -2   4   3 966.996 20.2381   3
  -2   4   3 973.016 20.3881   1
   2   4  -3 979.800 19.9537  11
   0  -4   3 1431.48 27.1322   6
   0  -4   3 1455.80 29.2729  10
   0  -4   3 1389.06 28.0372   1
   0  -4  -3 1395.33 29.4274   1
   0  -4  -3 1465.45 28.8866  13
   0  -4   3 1435.94 27.7780  12
   0  -4  -3 1383.84 27.8807   6
   0  -4  -3 1416.93 28.3490   8
   0  -4  -3 1449.91 28.3842   2
   0   4  -3 1433.54 29.1333  14
   0   4  -3 1450.52 28.2583   5
   0   4   3 1458.83 29.6591   1
   0   4  -3 1453.67 27.8773   3
   0   4  -3 1416.06 29.6667   7
   0   4   3 1462.75 31.5219  10
   0   4   3 1453.07 28.6332   9
   0   4   3 1444.51 28.5704  11
   0   4   3 1392.08 28.1740   6
   0   4  -3 1497.84 29.5083   4
  -2  -4  -3 938.206 21.0411   1
  -2  -4  -3 961.075 21.6918   8
   2  -4   3 939.008 18.7401   1
  -2  -4  -3 982.516 20.9359   2
   2  -4   3 954.199 23.2675  10
   2   4   3 958.592 21.1811  11
  -2   4  -3 986.490 20.9858   2
  -2   4  -3 989.604 22.0917   7
  -2   4  -3 962.830 21.4781   4
   2   4   3 976.763 20.5715   6
   2   4   3 1025.04 25.6334  10
  -2   4  -3 983.308 20.7738   3
  -2   4  -3 994.881 21.3968  14
   2   4   3 973.965 22.0290   1
  -2   4  -3 1000.88 21.3376   8
  -2   4  -3 977.371 21.3008   5
   2   4   3 978.336 21.1833   9
  -4  -4  -3 267.671 7.91309   5
  -4  -4  -3 280.915 8.65595   2
   4  -4   3 269.581 11.3151  10
  -4  -4  -3 263.187 7.85154  14
  -4  -4  -3 271.200 9.73333   8
  -4   4  -3 275.509 9.30605   5
  -4   4  -3 272.649 9.02973   8
   4   4   3 265.562 9.34124   1
  -4   4  -3 292.573 8.71262  14
   4   4   3 267.226 9.33349  11
  -4   4  -3 275.923 8.37688   2
  -4   4  -3 276.893 8.85454   3
  -4   4  -3 291.696 9.78512   7
   4   4   3 254.940 12.3992  10
   4   4   3 276.113 8.42203   6
  -4   4  -3 274.825 8.62278   4
   6  -4   3 253.895 12.7359  10
  -6  -4  -3 279.691 11.1789   8
  -6  -4  -3 299.208 9.99079   2
  -6   4  -3 302.523 10.4160   8
   6   4   3 276.979 11.2219  11
  -6   4  -3 292.716 10.6346   5
   6   4   3 300.443 9.80593   6
  -6   4  -3 293.576 10.5103   3
   6   4   3 291.004 10.6907   1
   8  -4   3 90.1950 3.29007   6
  -8  -4  -3 83.0857 5.30975   2
  -8  -4  -3 88.1468 6.69884   8
   8   4   3 86.1418 6.17636   1
  -8   4  -3 90.8930 6.51450   5
   8   4   3 81.7000 5.49091   6
   8   4   3 81.1983 7.42243  11
  11  -5  -3 287.496 9.94730   6
 -11  -5   3 262.661 12.0409   8
 -11   5   3 289.701 12.6093   3
  11   5  -3 299.812 14.3090  11
 -11   5   3 275.468 11.6862   5
  11   5  -3 289.025 13.1639   1
  -9  -5   3 777.887 19.1394   2
   9  -5  -3 742.524 24.2737  13
   9  -5  -3 791.113 20.0061   1
   9  -5  -3 805.045 18.9581   6
  -9  -5   3 796.649 22.0543   8
   9   5  -3 798.951 23.5136  11
  -9   5   3 813.456 21.0483   5
   9   5  -3 799.877 23.0421   1
  -9   5   3 779.738 22.1615   3
  -7  -5   3 867.449 21.1119   1
   7  -5  -3 866.092 19.2517   6
   7  -5  -3 846.565 24.4371  13
   7  -5  -3 837.336 20.2444   1
  -7  -5   3 863.182 21.5140   8
   7   5  -3 854.057 22.3440  11
   7   5  -3 817.098 22.2456   1
  -7   5   3 840.403 20.3580   5
   7   5  -3 877.287 21.6919   7
   7   5  -3 832.783 20.1815   6
  -7   5   3 858.405 21.6809   3
  -5  -5   3 1653.64 34.7671   1
  -5  -5   3 1664.55 33.5508  12
   5  -5  -3 1636.82 32.8972   6
   5  -5  -3 1631.58 34.1667   1
   5  -5  -3 1684.41 37.7491  13
   5   5  -3 1600.44 35.3043   1
   5   5  -3 1583.14 34.7870   7
  -5   5   3 1639.19 31.9007  12
  -5   5   3 1633.10 33.3312   5
   5   5  -3 1687.56 34.9152  11
  -5   5   3 1600.88 33.3561   9
  -5   5   3 1688.21 34.8952   3
   3  -5  -3 1143.08 24.9976   1
   3  -5  -3 1062.72 22.1561   2
  -3  -5   3 1161.06 23.4113  12
   3  -5  -3 1159.69 23.6818   6
  -3  -5   3 1197.94 25.2047   1
  -3  -5   3 1171.64 23.6319   6
   3  -5  -3 1179.19 26.7676  13
   3   5  -3 1162.96 24.1419   4
  -3   5   3 1181.28 23.9264   9
   3   5  -3 1135.79 24.6420  10
  -3   5   3 1127.78 24.0765   1
   3   5  -3 1126.89 24.8142   1
   3   5  -3 1172.03 25.4239   7
  -3   5   3 1134.61 22.1748  12
  -3   5   3 1169.70 24.7122   3
  -3   5   3 1186.62 26.6363  10
   3   5  -3 1192.65 24.7022  11
   1  -5  -3 1511.88 31.2817   1
   1  -5  -3 1458.27 29.4397   6
  -1  -5   3 1494.75 30.2037   1
   1  -5  -3 1455.87 28.4119   8
   1  -5  -3 1561.84 31.3621  13
  -1  -5   3 1474.10 28.6589  12
   1  -5  -3 1476.50 29.1623   2
  -1  -5   3 1547.91 29.0930   6
  -1   5   3 1518.54 32.2918  10
  -1   5   3 1472.76 30.1534  11
   1   5  -3 1496.79 30.4239  14
  -1   5   3 1517.33 30.8693   1
  -1   5   3 1475.12 30.4454   3
  -1   5   3 1447.62 28.3340  12
   1   5  -3 1483.49 30.7221   4
   1   5  -3 1500.54 31.3201   7
  -1   5   3 1426.85 29.1257   6
  -1   5   3 1471.99 29.6968   9
   1   5  -3 1487.35 29.2399   3
   1   5  -3 1506.92 29.9987  11
   1  -5   3 793.621 15.8102   6
  -1  -5  -3 775.366 17.8479   8
   1  -5   3 790.069 16.5698  12
  -1  -5  -3 805.762 17.6967   2
   1  -5   3 813.381 16.8310   1
   1  -5   3 786.346 18.1731  10
  -1   5  -3 827.341 17.4937   3
  -1   5  -3 816.996 17.7404   5
  -1   5  -3 834.864 18.8800   4
   1   5   3 802.126 19.0500   1
   1   5   3 805.679 18.1379  11
  -1   5  -3 804.614 19.2235   7
   1   5   3 811.216 17.8866   9
  -1   5  -3 822.911 18.6285  14
   1   5   3 801.069 17.4793   6
   1   5   3 809.187 20.8392  10
   3  -5   3 970.500 24.9907  10
  -3  -5  -3 1015.26 23.6637   8
  -3  -5  -3 1053.52 22.7043   2
  -3   5  -3 1013.75 23.2530   4
  -3   5  -3 1004.93 24.0175   7
  -3   5  -3 1005.79 22.2647   2
  -3   5  -3 1022.00 23.0621   5
  -3   5  -3 1018.57 22.6152   8
   3   5   3 1001.98 23.2866  11
  -3   5  -3 1032.71 23.0268  14
   3   5   3 1024.68 22.3849   6
  -3   5  -3 1031.24 22.5626   3
   3   5   3 1013.44 22.9008   9
   3   5   3 1023.32 24.1835   1
   3   5   3 1042.70 27.9528  10
  -5  -5  -3 513.116 14.0696   2
  -5  -5  -3 504.817 13.0395  14
   5  -5   3 507.918 16.1062  13
  -5  -5  -3 513.779 15.6660   8
   5   5   3 488.655 19.6650  10
  -5   5  -3 516.869 14.9203   5
  -5   5  -3 516.514 13.7943  14
  -5   5  -3 521.464 14.3338   4
  -5   5  -3 523.598 15.6696   7
  -5   5  -3 522.288 14.3248   8
   5   5   3 515.398 15.6591  11
   5   5   3 505.189 15.5287   1
  -5   5  -3 525.568 14.6532   3
   5   5   3 526.443 14.2294   6
  -5   5  -3 502.531 13.2983   2
  -7  -5  -3 691.025 20.8203   8
   7  -5   3 691.880 13.8489   6
  -7  -5  -3 695.432 18.8040   2
   7   5   3 689.213 18.7913   6
  -7   5  -3 718.515 19.9077   3
  -7   5  -3 696.909 19.9183   5
   7   5   3 693.567 20.3212   1
  10  -6  -3 61.5705 4.63147   1
 -10  -6   3 70.3517 6.48759   8
  10  -6  -3 65.7245 4.51708   6
 -10  -6   3 59.0978 4.66441   2
  10   6  -3 67.5020 6.80438  11
 -10   6   3 65.0291 5.81816   5
  10   6  -3 70.0434 6.74760   1
 -10   6   3 68.8325 6.52865   3
   8  -6  -3 210.240 11.5311  13
  -8  -6   3 209.638 9.51315   8
   8  -6  -3 215.955 7.56961   6
   8  -6  -3 209.702 8.34060   1
   8   6  -3 232.897 10.7631   1
   8   6  -3 219.192 10.2973  11
  -8   6   3 209.754 8.65232   5
  -8   6   3 209.395 9.52184   3
  -6  -6   3 631.265 16.8291   8
   6  -6  -3 624.371 14.8840   6
  -6  -6   3 622.097 16.8720   1
   6  -6  -3 594.318 19.1655  13
   6  -6  -3 612.982 15.9845   1
   6   6  -3 631.918 17.8357   1
   6   6  -3 603.993 17.0056  11
   6   6  -3 602.145 16.6707   7
  -6   6   3 621.093 17.0283   3
  -6   6   3 604.047 15.4121   5
  -4  -6   3 314.553 8.81129   6
  -4  -6   3 321.812 8.82520  12
   4  -6  -3 338.886 12.1212  13
   4  -6  -3 333.103 9.05987   6
  -4  -6   3 344.275 10.4913   1
   4  -6  -3 319.262 9.97270   1
  -4   6   3 320.580 9.04836   9
   4   6  -3 335.283 10.5227   1
   4   6  -3 333.943 10.4252   7
  -4   6   3 322.167 8.74572   5
   4   6  -3 336.579 9.00754   4
  -4   6   3 324.254 10.1083   3
   4   6  -3 321.158 10.0477  11
   2  -6  -3 1218.39 26.5162   1
   2  -6  -3 1214.64 24.8316   6
  -2  -6   3 1179.30 24.4334   6
  -2  -6   3 1151.66 23.5904  12
   2  -6  -3 1181.48 23.7988   2
  -2  -6   3 1204.09 25.9103   1
   2  -6  -3 1197.31 27.2421  13
   2   6  -3 1183.51 26.5688   7
  -2   6   3 1188.37 26.7748  10
  -2   6   3 1211.39 25.6650   1
  -2   6   3 1177.51 24.5913   9
   2   6  -3 1210.00 25.5318  11
  -2   6   3 1188.94 25.7765   3
   2   6  -3 1199.09 25.2231   1
   2   6  -3 1176.63 25.6011   4
   0  -6   3 644.440 14.7948   1
   0  -6   3 644.410 13.7872   6
   0  -6  -3 619.696 15.2686  13
   0  -6  -3 636.423 16.0385   1
   0  -6  -3 624.289 14.5282   2
   0  -6  -3 600.087 13.8773   8
   0  -6  -3 620.557 14.3166   6
   0   6   3 653.412 15.4769  11
   0   6  -3 642.127 15.9695   4
   0   6  -3 658.289 16.5546   7
   0   6   3 652.850 14.7853   9
   0   6   3 626.972 16.0478   1
   0   6   3 624.547 14.3198   6
   0   6  -3 624.046 14.3813   3
   0   6   3 650.964 17.1529  10
  -2  -6  -3 303.855 9.54145   8
   2  -6   3 308.889 7.92496   1
   2  -6   3 311.920 7.18099   6
  -2  -6  -3 324.973 9.48919   2
   2   6   3 317.474 9.19150   6
   2   6   3 315.689 12.1567  10
  -2   6  -3 322.333 10.3192   4
  -2   6  -3 311.078 9.27320   5
   2   6   3 330.988 9.99405  11
  -2   6  -3 316.264 9.92098  14
  -2   6  -3 322.195 10.8180   7
   2   6   3 320.850 9.33910   9
   2   6   3 311.665 10.5489   1
  -2   6  -3 318.583 9.23870   3
  -4  -6  -3 537.571 13.7248  14
   4  -6   3 509.126 10.1830   6
  -4  -6  -3 517.917 15.2835   8
  -4  -6  -3 512.691 14.0646   2
   4   6   3 513.801 15.4641  11
   4   6   3 517.484 14.1395   6
   4   6   3 507.853 19.1588  10
  -4   6  -3 528.637 14.4384   3
   4   6   3 516.536 14.6022   9
  -4   6  -3 536.948 15.9384   7
   4   6   3 525.753 15.8771   1
  -4   6  -3 524.940 14.8281   4
  -4   6  -3 529.704 14.7840   5
  -6  -6  -3 55.4787 5.40769   8
   6  -6   3 48.8953 5.18285  13
   6  -6   3 50.1965 1.79715   6
  -6  -6  -3 53.7423 4.29433   2
   6   6   3 54.7382 5.39973   1
   6   6   3 53.3060 5.16593   9
   6   6   3 45.2851 5.53095  11
  -6   6  -3 55.6784 4.85769   3
  -6   6  -3 56.4334 5.07123   5
  -6   6  -3 50.1986 5.27011   7
   6   6   3 44.8740 4.20065   6
  -8  -6  -3 102.091 6.58280   2
   8  -6   3 97.3758 3.35292   6
  -8  -6  -3 92.4688 7.11126   8
   8   6   3 103.323 7.49285   9
  -8   6  -3 91.3466 6.84075   5
   8   6   3 94.3115 6.12649   6
   8   6   3 85.9534 7.69883  11
   8   6   3 104.449 7.38265   1
  -8   6  -3 100.480 6.88577   3
   9  -7  -3 560.801 15.7200   1
   9  -7  -3 550.040 14.9568   6
  -9  -7   3 559.224 15.6478   2
  -9  -7   3 550.138 18.0834   8
   9   7  -3 545.035 19.4810  11
   9   7  -3 535.824 19.0349   1
  -9   7   3 560.288 16.8120   5
  -9   7   3 541.856 17.9901   3
   7  -7  -3 62.3246 4.45351   1
  -7  -7   3 61.8763 5.13277   1
   7  -7  -3 57.7370 5.96495  13
  -7  -7   3 56.1899 5.03347   8
   7  -7  -3 63.1548 3.99739   6
   7   7  -3 61.3792 5.30484  11
  -7   7   3 59.0538 4.47571   5
   7   7  -3 70.2783 6.04623   1
  -7   7   3 60.2026 5.30030   3
   5  -7  -3 1514.26 31.3632   6
   5  -7  -3 1500.88 32.6747   1
  -5  -7   3 1507.71 32.9291   8
   5  -7  -3 1467.63 36.5274  13
  -5  -7   3 1535.28 33.8797   1
   5   7  -3 1486.88 33.4165   7
   5   7  -3 1517.12 33.6340  11
  -5   7   3 1466.49 31.3446   9
  -5   7   3 1455.68 31.1136   5
   5   7  -3 1530.08 34.2447   1
  -5   7   3 1486.51 33.2685   3
  -3  -7   3 397.139 10.7568   6
  -3  -7   3 427.016 12.5858   1
   3  -7  -3 422.158 11.1345   6
   3  -7  -3 417.766 13.8576  13
   3  -7  -3 417.840 12.3625   1
   3   7  -3 430.048 12.7718   7
  -3   7   3 403.280 10.0706   5
  -3   7   3 406.301 12.0716   3
   3   7  -3 421.625 12.0281   1
   3   7  -3 419.287 11.4565   4
  -3   7   3 402.704 11.0961   1
   3   7  -3 427.179 12.0956  11
  -3   7   3 410.532 10.7396   9
   1  -7  -3 2844.94 56.9503   6
   1  -7  -3 2926.78 56.6353   2
  -1  -7   3 2981.25 56.7286   6
   1  -7  -3 3014.64 59.5091  13
  -1  -7   3 2901.62 58.0945   1
   1  -7  -3 3048.89 59.5895   1
  -1   7   3 2913.87 58.9033  10
   1   7  -3 2933.30 58.6910   4
  -1   7   3 2876.77 58.0379   7
  -1   7   3 3050.56 58.9690   3
   1   7  -3 3019.55 59.9022   7
  -1   7   3 2924.74 58.5027   1
   1   7  -3 2943.92 57.1022   3
  -1   7   3 2953.79 56.8262   9
   1   7  -3 3027.74 58.1262  11
  -1  -7  -3 523.048 13.9863  13
   1  -7   3 587.920 13.9987   1
   1  -7   3 565.848 12.8450   6
  -1  -7  -3 588.775 14.2867   2
  -1  -7  -3 529.278 13.6366   8
  -1   7  -3 589.588 15.8260   4
  -1   7  -3 596.302 16.4756   7
   1   7   3 603.839 16.1641   1
  -1   7  -3 555.432 14.0377   3
   1   7   3 572.520 15.2725  11
   1   7   3 565.624 14.0323   9
   1   7   3 565.046 16.7230  10
  -1   7  -3 587.265 13.6753   5
  -3  -7  -3 1848.11 38.9036   2
  -3  -7  -3 1884.66 39.7566   8
   3  -7   3 1842.50 35.6117   6
  -3   7  -3 1873.85 40.2983   4
   3   7   3 1841.00 44.1521  10
  -3   7  -3 1903.56 39.0754   5
   3   7   3 1898.64 39.0488   9
   3   7   3 1855.68 41.4012   1
   3   7   3 1802.57 40.0147  11
  -3   7  -3 1876.55 38.9785   3
  -3   7  -3 1915.47 41.6230   7
   3   7   3 1806.44 38.6656   6
   5  -7   3 138.865 8.50992  13
   5  -7   3 143.987 4.03148   6
  -5  -7  -3 134.178 6.82872   2
  -5  -7  -3 143.879 7.79423   8
  -5  -7  -3 134.033 6.03321  14
   5   7   3 129.513 6.70103   6
   5   7   3 146.793 7.35550   9
   5   7   3 133.492 7.83703   1
  -5   7  -3 131.789 6.95295   5
   5   7   3 137.855 8.09111  11
  -5   7  -3 138.537 7.01061   3
  -5   7  -3 135.544 7.87706   7
  -7  -7  -3 515.695 17.5587   8
   7  -7   3 509.205 10.9498   6
  -7  -7  -3 482.164 15.4188   2
   7   7   3 498.484 17.5998   1
   7   7   3 500.284 18.0057  11
  -7   7  -3 503.656 16.0066   3
  -7   7  -3 520.915 16.2000   5
   7   7   3 493.490 16.5663   9
   7   7   3 486.085 15.7120   6
  10  -8  -3 42.6035 3.96322   6
 -10  -8   3 45.3424 6.04095   8
 -10  -8   3 37.3104 4.36245   2
  10   8  -3 43.3185 6.87819  11
  10   8  -3 38.1122 5.98520   1
 -10   8   3 46.2300 5.84870   3
 -10   8   3 44.6648 4.95039   5
   8  -8  -3 112.725 6.21065   1
   8  -8  -3 105.001 9.10903  13
  -8  -8   3 115.184 7.55976   8
   8  -8  -3 110.852 5.65579   6
   8   8  -3 112.098 7.75561   1
   8   8  -3 106.179 7.69973  11
  -8   8   3 106.710 6.36321   5
  -8   8   3 102.520 7.21252   3
   6  -8  -3 264.831 13.0505  13
   6  -8  -3 281.818 10.0748   1
   6  -8  -3 282.345 9.04421   6
  -6  -8   3 277.571 11.0168   1
  -6  -8   3 278.809 10.5704   8
   6   8  -3 273.254 11.2176   1
  -6   8   3 254.116 10.3265   3
   6   8  -3 265.241 10.3733   7
   6   8  -3 266.431 11.0549  11
  -6   8   3 266.166 9.16986   5
  -4  -8   3 28.3578 3.66972   1
  -4  -8   3 40.6386 3.15958   6
   4  -8  -3 32.3025 3.25679   1
   4  -8  -3 34.1906 4.18262  13
   4  -8  -3 30.3362 2.89146   6
   4   8  -3 35.5918 3.88896   7
   4   8  -3 28.0744 2.68826   4
  -4   8   3 39.6244 2.78985   9
   4   8  -3 26.4896 3.47293  11
   4   8  -3 30.0735 3.66216   1
  -4   8   3 30.9441 3.27514   3
  -2  -8   3 376.468 10.1926   6
   2  -8  -3 359.190 11.8812   1
   2  -8  -3 358.085 12.5674  13
   2  -8  -3 318.777 9.27948   2
   2  -8  -3 349.935 10.1307   6
  -2  -8   3 344.156 11.2672   1
   2   8  -3 348.946 10.4065   3
  -2   8   3 354.167 9.59729   9
  -2   8   3 348.314 11.3014   3
  -2   8   3 343.289 11.4861   7
   2   8  -3 357.991 11.0672   4
  -2   8   3 353.843 10.7372   1
   2   8  -3 333.446 11.8586   7
   2   8  -3 361.629 11.1468  11
   0  -8  -3 146.142 5.75614   2
   0  -8  -3 140.849 6.49150  13
   0  -8   3 132.499 5.14811   6
   0  -8   3 136.686 5.95395   1
   0  -8  -3 134.067 6.83167   1
   0   8   3 138.558 6.51406   1
   0   8  -3 137.382 6.61674   4
   0   8  -3 138.096 7.31070   7
   0   8  -3 131.381 5.52147   3
   0   8   3 134.787 6.48977  11
   0   8   3 131.216 5.31246   9
  -2  -8  -3 104.009 5.17680   2
   2  -8   3 99.4046 4.05202   6
   2  -8   3 98.9623 4.57512   1
   2   8   3 102.650 6.45687   1
   2   8   3 94.6305 4.98078   9
  -2   8  -3 99.4753 6.63461   7
  -2   8  -3 94.3948 5.06383   3
  -2   8  -3 99.4736 4.84429   5
   2   8   3 105.729 6.13733  11
  -2   8  -3 96.5343 5.82232   4
   4  -8   3 327.804 13.9523  13
  -4  -8  -3 314.772 11.5237   8
  -4  -8  -3 346.121 11.3030   2
   4  -8   3 322.784 8.31348   6
  -4   8  -3 326.483 13.1905   7
   4   8   3 319.884 12.3054  11
  -4   8  -3 337.417 11.2093   5
  -4   8  -3 325.923 12.0135   4
   4   8   3 335.775 13.2706   1
   4   8   3 322.522 11.0999   9
  -4   8  -3 322.470 11.1123   3
  -6  -8  -3 55.7767 5.25542   8
  -6  -8  -3 64.7859 4.99797   2
   6   8   3 53.0767 5.27973   9
  -6   8  -3 64.6017 5.34157   5
   6   8   3 68.2164 6.49529   1
  -6   8  -3 62.1359 6.37294   7
  -6   8  -3 58.8253 5.17687   3
   6   8   3 50.0114 5.98402  11
   9  -9  -3 276.507 9.97228   6
  -9  -9   3 271.924 12.1045   8
  -9  -9   3 280.195 10.9112   2
  -9   9   3 267.364 12.1211   3
   9   9  -3 287.841 13.9682  11
   9   9  -3 279.143 13.2114   1
  -9   9   3 260.094 10.6906   5
   7  -9  -3 963.518 23.0102   6
  -7  -9   3 970.741 26.0240   1
   7  -9  -3 957.175 24.0239   1
  -7  -9   3 995.867 25.6235   8
   7  -9  -3 907.703 29.3110  13
  -7   9   3 979.019 26.0016   3
  -7   9   3 931.414 23.4054   5
   7   9  -3 956.574 27.0005   1
   7   9  -3 968.269 26.7267  11
   5  -9  -3 403.377 13.1493   1
   5  -9  -3 390.934 11.8560   6
   5  -9  -3 412.889 16.6068  13
  -5  -9   3 377.553 13.7220   1
  -5  -9   3 401.232 12.7015   8
   5   9  -3 378.846 13.5172   1
  -5   9   3 383.483 13.2864   3
   5   9  -3 400.620 13.7387   7
   5   9  -3 384.524 13.5490  11
   3  -9  -3 886.292 24.6675  13
   3  -9  -3 854.596 20.5459   6
  -3  -9   3 846.479 20.2464   6
  -3  -9   3 856.962 22.4240   1
   3  -9  -3 870.964 22.4247   1
   3   9  -3 851.061 20.9642   3
   3   9  -3 846.512 22.8466   7
   3   9  -3 887.190 22.2041  11
  -3   9   3 856.653 22.0689   3
   3   9  -3 838.403 21.0060   4
  -1  -9   3 184.258 7.81340   1
  -1  -9   3 188.193 6.91773   6
   1  -9  -3 185.028 7.01608   6
   1  -9  -3 178.497 6.63189   2
   1  -9  -3 190.586 8.74285  13
   1  -9  -3 182.747 8.58706   1
  -1   9   3 194.966 8.49646   3
  -1   9   3 169.148 7.57303   7
   1   9  -3 174.808 7.16219   3
  -1   9   3 181.913 7.77025   1
   1   9  -3 184.821 8.81102   7
   1   9  -3 178.935 8.04146   4
  -1  -9  -3 611.921 17.6928   1
  -1  -9  -3 583.890 15.4151   2
   1  -9   3 582.002 14.4020   6
   1  -9   3 570.212 15.4816   1
  -1   9  -3 585.231 15.6760   3
  -1   9  -3 591.313 18.2620   7
  -1   9  -3 593.034 17.4722   4
   1   9   3 574.814 16.9854  11
   1   9   3 596.390 17.6228   1
  -3  -9  -3 158.342 7.48475   2
   3  -9   3 148.823 5.57801   6
  -3  -9  -3 148.263 7.90949   1
  -3   9  -3 151.256 8.94913   7
   3   9   3 171.018 9.02090   1
  -3   9  -3 141.621 6.98106   3
  -3   9  -3 147.949 8.15166   4
   3   9   3 141.271 8.05189  11
  -5  -9  -3 639.929 18.2838   2
   5  -9   3 649.655 14.8420   6
  -5   9  -3 632.601 18.4007   3
   5   9   3 637.069 21.0022   1
   5   9   3 632.503 20.3715  11
  -5   9  -3 646.305 20.9892   7
  -5   9  -3 649.921 18.2525   5
   8 -10  -3 2.94061 1.84295   1
   8 -10  -3 4.40423 1.98262   6
  -8 -10   3 5.13518 3.02875   8
   8  10  -3 5.81148 3.27067   1
   8  10  -3 4.67135 3.74364  11
  -8  10   3 5.43585 3.04090   3
   6 -10  -3 58.1229 5.06766   1
  -6 -10   3 53.8118 5.18633   8
   6 -10  -3 61.2866 4.53664   6
  -6 -10   3 54.0496 5.85304   1
   6  10  -3 63.8881 6.09844   1
  -6  10   3 58.9216 5.80801   3
   6  10  -3 60.6669 6.68288  11
  -4 -10   3 15.1732 3.62877   1
   4 -10  -3 7.54096 2.53653   1
   4 -10  -3 7.70798 2.84306  13
   4 -10  -3 8.18427 1.90892   6
  -4  10   3 9.56219 2.85382   3
   4  10  -3 8.80892 2.75497   7
   4  10  -3 8.03234 2.55743  11
  -2 -10   3 91.7301 6.31755   1
   2 -10  -3 92.5682 5.20521   6
   2 -10  -3 103.282 7.29101  13
  -2 -10   3 92.8493 5.21776   6
   2 -10  -3 105.710 6.79884   1
  -2  10   3 96.3896 6.45914   3
   2  10  -3 95.8174 6.34920  11
   2  10  -3 89.2044 5.74556   4
   2  10  -3 92.8579 5.57183   3
   2  10  -3 93.3554 6.81136   7
   0 -10  -3 8.16865 2.76660   1
   0 -10  -3 6.72320 2.04693   2
   0 -10   3 5.59701 1.74575   6
   0  10  -3 9.53375 2.26857   3
   0  10   3 10.2688 2.61366   3
   0  10  -3 12.6466 3.05172   4
   0  10  -3 10.1743 3.20254   7
   0  10   3 4.74362 2.13548   1
  -2 -10  -3 0.88431 1.85887   2
  -2 -10  -3 3.51774 1.91593   1
   2 -10   3 5.05224 1.66681   1
   2 -10   3 1.61096 1.18821   6
  -2  10  -3 2.16550 1.86018   7
   2  10   3 0.78098 1.56450   1
   2  10   3 2.43824 2.55365  11
  -2  10  -3 0.73182 1.59620   3
  -4 -10  -3 64.8666 5.57561   2
   4 -10   3 62.5291 3.68395   6
  -4  10  -3 60.0339 5.14893   3
  -4  10  -3 59.4234 6.82152   7
   4  10   3 60.4673 6.44086   1
   4  10   3 61.0842 5.86471  11
  -6 -10  -3 16.6320 3.22016   2
   6 -10   3 20.2567 2.23188   6
  -6  10  -3 15.6543 4.43519   7
   6  10   3 22.8363 4.46160   1
   6  10   3 17.3713 4.19060  11
   7 -11  -3 73.0703 5.32263   6
   7 -11  -3 61.8310 5.31382   1
  -7 -11   3 80.9164 6.77386   1
  -7  11   3 78.3547 6.87404   3
   7  11  -3 92.6381 8.13507  11
   5 -11  -3 456.119 14.0938   6
   5 -11  -3 447.146 15.2888   1
  -5 -11   3 456.012 16.8213   1
  -5  11   3 470.975 16.0896   3
   5  11  -3 458.557 16.4059  11
   3 -11  -3 306.506 12.3568   1
   3 -11  -3 267.377 10.0877   6
  -3 -11   3 288.429 12.2201   1
   3 -11  -3 278.931 13.5892  13
   3  11  -3 280.913 12.3222   7
  -3  11   3 273.829 11.4025   3
   3  11  -3 281.526 11.7336  11
   3  11  -3 282.119 10.8146   3
   1 -11  -3 1038.08 27.8028   1
  -1 -11   3 1029.96 26.5547   1
  -1 -11   3 994.003 24.2063   6
   1  11  -3 1008.20 24.9355   3
   1  11  -3 994.978 28.0302   7
  -1  11   3 1040.23 27.0098   3
   1 -11   3 468.148 13.4916   6
   1 -11   3 459.506 14.6121   1
  -1 -11  -3 465.505 16.6403   1
  -1 -11  -3 442.957 13.9057   2
  -1  11  -3 455.192 14.1942   3
   1  11   3 476.244 16.2788  11
   1  11   3 456.539 16.1782   3
  -1  11  -3 475.968 17.4383   7
   1  11   3 445.226 15.7842   1
  -3 -11  -3 675.897 21.0375   1
  -3 -11  -3 700.209 19.3383   2
   3 -11   3 703.123 17.1340   6
   3  11   3 667.872 21.7596   1
   3  11   3 627.741 20.5669  11
  -3  11  -3 680.297 22.4896   7
  -3  11  -3 623.862 18.6173   3
   5 -11   3 193.298 7.12098   6
  -5 -11  -3 193.988 9.40702   2
  -5  11  -3 176.933 11.1382   7
   5  11   3 181.697 10.7820   1
   5  11   3 175.427 10.6335  11
   6 -12  -3 23.5275 3.48594   6
  -6 -12   3 26.1174 5.05410   1
  -6  12   3 33.4923 5.19451   3
   6  12  -3 28.4609 5.02825  11
   6  12  -3 29.3320 4.47802   3
  -4 -12   3 272.722 12.8123   1
   4 -12  -3 248.009 10.1559   6
   4 -12  -3 252.484 11.4747   1
  -4  12   3 254.688 11.6954   3
   4  12  -3 258.850 12.0761  11
  -2 -12   3 32.7067 4.88818   1
   2 -12  -3 36.4914 5.27009   1
  -2 -12   3 31.0140 3.53076   6
   2  12  -3 27.8070 3.95521   3
  -2  12   3 30.5621 4.40480   3
   2  12  -3 31.2760 5.12737   7
   0 -12   3 134.614 7.93661   1
   0 -12   3 131.393 6.72529   6
   0 -12  -3 133.763 8.58684   1
   0  12   3 133.338 8.51355   3
   0  12  -3 136.939 9.32319   7
   0  12  -3 123.017 7.08459   3
  -2 -12  -3 149.938 7.94061   2
   2 -12   3 154.551 7.19459   6
  -2 -12  -3 160.785 9.78419   1
  -2  12  -3 151.871 10.2695   7
   2  12   3 141.656 8.83084  11
   2  12   3 145.170 9.15275   3
   3 -13  -3 10.9081 3.46692   1
  -3 -13   3 7.48240 3.28310   1
  -3  13   3 7.60370 3.28972   3
  -1 -13   3 639.637 18.4232   6
  -1 -13   3 644.313 20.6152   1
   1 -13  -3 643.669 21.3042   1
  -1  13   3 655.458 20.9651   3
   1  13  -3 620.300 21.5428   7
   1 -13   3 3.63263 2.26133   1
   1 -13   3 7.42219 2.35346   6
  -1 -13  -3 9.62232 3.51516   1
   1  13   3 7.21541 2.89567   3
  -1  13  -3 7.95487 3.14075   7
  12   0  -4 1565.75 39.9416  11
 -12   0   4 1593.18 37.1606   8
  12   0  -4 1569.39 37.5424   1
 -12   0   4 1589.33 36.8541   5
  12   0  -4 1575.95 35.9907   6
 -10   0   4 90.7004 5.52458   5
 -10   0   4 76.2247 5.19868   8
  10   0  -4 83.4896 6.77103  11
  10   0  -4 88.0797 5.40956   6
  10   0  -4 76.7048 5.77268   1
  -8   0   4 3266.07 63.8625   8
   8   0  -4 3086.18 66.6540  13
   8   0  -4 3228.29 65.0156   1
  -8   0   4 3355.82 63.7191   5
   8   0  -4 3253.12 63.2809   6
   8   0  -4 3250.64 65.2094  11
  -8   0   4 3325.34 64.0824  12
  -8   0   4 3177.44 64.9118   3
   6   0  -4 91.7729 5.29153  13
   6   0  -4 91.8561 4.74072   1
   6   0  -4 93.4567 4.39662  11
   6   0  -4 91.8978 3.93499   6
  -6   0   4 91.5849 4.29511   3
  -6   0   4 94.6296 4.25705  12
  -6   0   4 87.8325 4.01015   1
  -4   0   4 3294.42 60.9379   9
   4   0  -4 3250.92 60.5174  11
  -4   0   4 3127.65 60.5142   3
   4   0  -4 3192.41 62.0362  14
  -4   0   4 3270.80 60.9895  12
  -4   0   4 3181.21 60.2157   6
  -4   0   4 3336.87 61.6729   1
   4   0  -4 3205.77 62.0431   1
   4   0  -4 3242.08 60.6157   6
  -4   0   4 3268.73 73.1630  10
   4   0  -4 3247.92 63.2756  13
   2   0  -4 33.3203 1.86739  14
  -2   0   4 30.5097 1.77218   9
   2   0  -4 39.7908 1.80496   2
   2   0  -4 27.8777 1.81441   4
  -2   0   4 30.0898 1.96409   1
  -2   0   4 28.1420 2.65986  10
  -2   0   4 30.5077 1.60235   6
   2   0  -4 29.6899 1.92379   1
   2   0  -4 33.5037 2.52934  13
   0   0   4 2801.67 56.3853   1
   0   0  -4 2904.65 55.0632   8
   0   0   4 2863.10 54.1365   9
   0   0   4 2888.99 54.2684   6
   0   0  -4 2888.26 54.0620   4
   0   0  -4 2843.24 54.4608   2
   0   0  -4 2876.74 54.3790  14
   0   0   4 2960.30 58.3610  10
   0   0  -4 2834.96 53.5820   7
  -2   0  -4 589.500 13.5613   5
   2   0   4 552.189 17.3291  10
   2   0   4 523.370 11.9890  11
  -2   0  -4 556.857 12.8354  14
   2   0   4 545.440 11.1378   6
  -2   0  -4 572.216 12.2804   4
  -2   0  -4 545.732 11.8379   7
  -2   0  -4 549.368 14.1620   8
   2   0   4 526.641 11.0377   6
  -2   0  -4 548.436 13.1408   2
   2   0   4 535.183 12.1286   1
   4   0   4 2555.89 58.4294  10
  -4   0  -4 2658.97 52.9865   8
  -4   0  -4 2590.43 50.8684   2
   4   0   4 2547.62 48.2176   6
  -4   0  -4 2515.21 50.0648  14
  -4   0  -4 2525.91 51.6078   5
   4   0   4 2599.46 49.3731   1
   6   0   4 408.346 10.3032   6
   6   0   4 396.159 12.8013  11
  -6   0  -4 425.357 14.0557   8
  -6   0  -4 433.566 13.4804   5
  -6   0  -4 401.031 11.9712   2
  -8   0  -4 1084.09 27.7248   5
   8   0   4 1115.83 24.1783   6
  -8   0  -4 1083.71 28.8104   8
  11  -1  -4 68.9943 6.12859  11
 -11  -1   4 67.8530 5.75237   8
 -11  -1   4 76.8852 5.61333   5
  11  -1  -4 67.2946 5.68352   1
  11  -1  -4 84.4820 5.55354   6
 -11   1   4 71.9481 5.34262   5
  11   1  -4 69.6205 6.98045  11
  11   1  -4 70.3519 6.07242   1
  11   1  -4 70.3193 5.40278   6
 -11   1   4 76.1693 5.59475   8
  -9  -1   4 18.7493 3.04995   8
   9  -1  -4 19.7271 3.14272   1
   9  -1  -4 21.2875 2.78538   6
  -9  -1   4 24.7320 3.14305   5
   9  -1  -4 16.9229 3.34093  13
   9  -1  -4 25.3778 3.72157  11
   9   1  -4 21.3409 2.73806   6
  -9   1   4 24.7431 3.18724   8
  -9   1   4 19.8384 3.43582   3
   9   1  -4 18.0173 3.73391  11
  -9   1   4 21.1011 2.99249   5
   9   1  -4 20.7613 3.20010   1
   7  -1  -4 531.842 14.3731   1
   7  -1  -4 534.532 16.3184  13
  -7  -1   4 538.911 13.5945   1
   7  -1  -4 538.288 13.1177   6
  -7  -1   4 538.226 13.7192  12
  -7   1   4 531.275 13.3931  12
  -7   1   4 496.137 14.0296   3
   7   1  -4 519.319 14.6826   1
   7   1  -4 516.731 15.5330  13
   7   1  -4 535.097 13.3792   6
  -7   1   4 524.996 13.2933   8
   7   1  -4 532.992 14.3440  11
   5  -1  -4 5.81997 1.82871  13
  -5  -1   4 9.89291 1.51661   1
  -5  -1   4 6.78968 1.03272   6
   5  -1  -4 9.25593 0.77608  14
  -5  -1   4 10.3323 1.46343   9
   5  -1  -4 8.83720 1.29823   6
  -5  -1   4 6.01471 1.27895  12
   5  -1  -4 4.02771 1.28822   1
  -5   1   4 7.90865 1.29856  12
  -5   1   4 5.20844 1.24034   3
   5   1  -4 7.82001 1.83655  13
   5   1  -4 7.49373 1.65342   1
   5   1  -4 8.02213 1.16817   4
  -5   1   4 7.25421 1.22246   1
   5   1  -4 10.3670 0.76494  14
   5   1  -4 6.79556 1.40514  11
   5   1  -4 9.54716 1.37430   6
  -5   1   4 11.4241 1.52711   9
  -3  -1   4 315.492 7.49585   9
   3  -1  -4 321.654 6.92954   2
   3  -1  -4 319.404 8.49585   1
  -3  -1   4 313.853 8.28800   1
  -3  -1   4 313.263 7.86888  12
   3  -1  -4 307.112 7.45298   6
  -3  -1   4 306.421 7.39858   6
  -3  -1   4 320.045 10.2121  10
   3  -1  -4 326.033 9.41560  13
   3  -1  -4 325.318 7.51519  14
   3   1  -4 312.913 7.83075   4
   3   1  -4 319.229 9.40245  13
  -3   1   4 312.615 7.39103   6
  -3   1   4 307.926 7.82275   9
  -3   1   4 317.677 7.81765  12
  -3   1   4 315.927 7.39373   3
   3   1  -4 318.432 7.13769  11
  -3   1   4 318.143 8.30283   1
  -3   1   4 313.178 10.4042  10
   3   1  -4 316.125 8.35913   1
   3   1  -4 313.167 7.51284  14
  -1  -1   4 330.175 7.06489   6
  -1  -1   4 314.594 10.0754  10
   1  -1  -4 314.029 8.60469  13
   1  -1  -4 313.516 7.69063   2
  -1  -1   4 319.439 7.86516  12
  -1  -1   4 313.066 7.38741   9
   1  -1  -4 306.814 7.85838   1
  -1  -1   4 321.419 7.78800   1
   1  -1  -4 319.521 8.11392   8
   1  -1  -4 315.530 7.78906  14
   1   1  -4 316.920 7.83788   2
   1   1  -4 317.275 7.97292  14
   1   1  -4 311.506 7.97123   7
  -1   1   4 306.538 8.03947   1
   1   1  -4 317.622 10.3446  10
  -1   1   4 312.247 7.73457  12
   1   1  -4 324.596 7.92887   4
  -1   1   4 325.044 10.4922  10
  -1   1   4 312.674 7.30046   6
   1   1  -4 304.661 7.36141   1
  -1   1   4 309.369 7.79415   9
   1  -1   4 92.1455 2.38308   6
   1  -1   4 99.6750 2.42758   6
  -1  -1  -4 96.7611 3.40902   4
   1  -1   4 100.554 5.73451  10
   1  -1   4 96.6184 3.23737   1
  -1  -1  -4 98.2004 4.40773   8
  -1  -1  -4 99.3551 3.92157   2
  -1  -1  -4 96.3724 3.72214  14
  -1   1  -4 96.1333 4.04537   5
   1   1   4 93.2465 3.04954  11
   1   1   4 103.581 4.09540   9
   1   1   4 102.066 3.20733   6
   1   1   4 101.721 3.85113   1
  -1   1  -4 97.8757 4.01232   2
  -1   1  -4 102.788 4.01903  14
  -1   1  -4 97.9533 3.56250   7
  -1   1  -4 100.537 4.41298   8
   1   1   4 99.3296 5.92001  10
  -1   1  -4 100.727 3.71440   4
   3  -1   4 407.013 9.14065   1
  -3  -1  -4 384.359 10.8186   5
   3  -1   4 402.738 7.81344   6
  -3  -1  -4 381.166 10.1111  14
   3  -1   4 388.669 7.76494   6
  -3  -1  -4 396.734 9.31571   4
   3  -1   4 402.570 14.9092  10
   3  -1   4 390.484 10.0351  11
  -3  -1  -4 421.928 12.1011   8
  -3  -1  -4 413.074 10.8797   2
   3   1   4 408.833 9.38115   6
   3   1   4 404.659 10.3843  11
   3   1   4 408.427 15.3985  10
  -3   1  -4 380.516 11.1752   5
   3   1   4 399.988 10.2548   1
  -3   1  -4 408.487 10.1445   7
  -3   1  -4 418.722 10.6030  14
  -3   1  -4 412.092 11.9481   8
  -3   1  -4 424.058 11.0190   2
  -3   1  -4 424.611 10.2365   4
   5  -1   4 2.45655 2.28148  10
  -5  -1  -4 1.85957 1.76019   8
  -5  -1  -4 1.74587 1.39370   2
  -5  -1  -4 4.16107 1.89901   5
   5  -1   4 3.42038 0.72756   6
   5  -1   4 4.86411 1.79641  11
  -5  -1  -4 2.85473 1.15807  14
  -5   1  -4 2.61565 1.81992   8
   5   1   4 5.02509 1.31840   1
   5   1   4 3.78094 1.21345   6
  -5   1  -4 1.70750 1.61366   5
   5   1   4 6.55491 2.05757  11
  -5   1  -4 7.82229 1.59468  14
  -5   1  -4 3.42337 1.23547   2
  -7  -1  -4 39.8531 4.41859   8
  -7  -1  -4 31.9619 3.99467   5
   7  -1   4 30.1662 2.37851   6
  -7  -1  -4 34.6179 3.70138   2
   7  -1   4 28.3148 3.89211  11
  -7   1  -4 31.0892 4.28676   5
  -7   1  -4 28.0114 4.17872   8
   7   1   4 25.9035 4.06219  11
  -7   1  -4 35.3570 3.65753   2
   7   1   4 30.5799 2.82496   6
  -9  -1  -4 54.5382 6.16731   8
  -9  -1  -4 57.6585 5.72350   5
   9  -1   4 61.2598 3.81593   6
   9   1   4 66.0810 4.48808   6
  -9   1  -4 59.4790 5.49571   8
  12  -2  -4 106.274 7.02232   1
  12  -2  -4 120.814 8.32524  11
  12   2  -4 113.659 7.92692   1
 -12   2   4 107.866 6.97092   5
  12   2  -4 116.191 9.43623  11
  12   2  -4 113.891 6.69949   6
 -10  -2   4 312.697 11.8366   8
  10  -2  -4 322.887 11.6015   1
  10  -2  -4 327.865 12.6191  11
 -10  -2   4 306.411 10.7518   5
  10  -2  -4 313.925 10.4881   6
 -10   2   4 333.582 12.8603   3
  10   2  -4 310.083 11.1068   6
  10   2  -4 317.778 12.5100   1
  10   2  -4 320.907 13.0856  11
 -10   2   4 301.516 11.3411   5
  -8  -2   4 321.987 9.58501   5
   8  -2  -4 340.954 9.78309   6
  -8  -2   4 320.362 10.4453  12
   8  -2  -4 303.021 12.4715  13
  -8  -2   4 313.639 10.5677   8
   8  -2  -4 324.109 10.6146   1
   8   2  -4 306.950 9.96965   6
   8   2  -4 317.155 11.2739  11
   8   2  -4 311.451 11.2836   1
   8   2  -4 299.072 11.2177  13
  -8   2   4 324.133 10.0960   5
  -8   2   4 315.371 9.48161   8
  -8   2   4 318.758 11.1033   3
  -8   2   4 321.672 9.90975  12
   6  -2  -4 2329.34 44.8878   6
  -6  -2   4 2284.82 45.8342   1
   6  -2  -4 2322.34 48.7858  13
  -6  -2   4 2305.46 45.3673  12
   6  -2  -4 2363.80 46.4792   1
  -6   2   4 2293.91 44.8427   1
  -6   2   4 2281.87 46.1380   3
   6   2  -4 2211.77 43.9210   4
  -6   2   4 2283.88 44.7282  12
   6   2  -4 2309.43 45.8964  11
   6   2  -4 2270.00 44.9680   6
   6   2  -4 2268.32 47.6177  13
  -6   2   4 2342.84 45.5657   9
   6   2  -4 2275.83 46.8972   1
  -4  -2   4 1882.06 38.0510   1
   4  -2  -4 1915.41 38.3560   1
   4  -2  -4 1909.74 36.9990   6
   4  -2  -4 1924.39 39.7740  13
   4  -2  -4 1905.26 36.3586  14
  -4  -2   4 1939.54 37.3623  12
  -4  -2   4 1892.68 36.6153   9
  -4  -2   4 1883.43 36.6452   6
   4   2  -4 1938.47 37.1148   4
  -4   2   4 1913.29 37.4231   3
   4   2  -4 1896.69 36.2586  14
   4   2  -4 1925.87 38.4019   1
  -4   2   4 1956.17 41.5715  10
   4   2  -4 1892.98 36.8061   6
  -4   2   4 1875.43 36.8057  12
   4   2  -4 1919.40 37.0762  11
   4   2  -4 1943.58 39.7037  13
  -4   2   4 1880.75 37.5866   1
  -4   2   4 1909.15 37.4106   9
   2  -2  -4 8067.77 160.744   2
   2  -2  -4 8604.19 175.133  13
  -2  -2   4 8450.81 173.331  10
   2  -2  -4 8229.21 160.104  14
   2  -2  -4 8328.36 161.218   6
  -2  -2   4 8521.04 164.467  12
   2  -2  -4 8243.64 168.145   1
  -2  -2   4 8454.04 160.972   9
  -2  -2   4 8210.03 165.951   1
  -2  -2   4 8155.11 159.122   6
  -2   2   4 8414.35 161.116   6
  -2   2   4 8416.62 159.439   3
  -2   2   4 8653.93 180.927  10
   2   2  -4 8294.67 168.481   7
   2   2  -4 8267.88 162.944   4
   2   2  -4 8511.33 175.440  10
   2   2  -4 8347.83 163.476   1
   2   2  -4 8397.74 158.732  11
  -2   2   4 8549.35 168.642   1
  -2   2   4 8571.19 164.390  12
  -2   2   4 8546.14 164.615   9
   2   2  -4 8235.48 161.997  14
   0  -2  -4 1385.78 27.4735   2
   0  -2   4 1386.16 27.3832  12
   0  -2  -4 1340.78 27.9123   8
   0  -2   4 1347.25 26.6611   9
   0  -2   4 1331.29 25.7098   6
   0  -2   4 1392.85 30.4848  10
   0  -2  -4 1354.36 27.4686   1
   0  -2   4 1421.47 25.7885   6
   0  -2  -4 1437.13 27.8311  13
   0  -2   4 1335.81 26.6699   1
   0  -2  -4 1390.06 27.4773  14
   0   2  -4 1358.03 27.6984   2
   0   2  -4 1384.05 27.8845  14
   0   2   4 1423.72 31.6319  10
   0   2   4 1361.10 27.6443   9
   0   2   4 1368.57 26.1987  11
   0   2  -4 1390.26 28.2773   8
   0   2  -4 1379.84 27.6889   7
   0   2   4 1377.45 26.8424   6
   0   2   4 1371.48 27.9972   1
   0   2  -4 1377.71 27.6488   4
   0   2  -4 1349.50 25.9152   3
   2  -2   4 3790.10 76.5967  10
  -2  -2  -4 3671.97 69.9131   4
  -2  -2  -4 3796.43 71.1394  14
   2  -2   4 3653.58 72.1797   1
  -2  -2  -4 3703.21 72.7408   8
  -2  -2  -4 3817.88 71.6985   2
  -2   2  -4 3683.11 71.2068   4
   2   2   4 3765.59 71.6760   1
  -2   2  -4 3723.64 71.7006   2
  -2   2  -4 3770.63 70.8738   3
   2   2   4 3885.08 78.2016  10
  -2   2  -4 3874.20 71.5716   7
   2   2   4 3823.88 72.1494   9
  -2   2  -4 3851.46 71.7081  14
   2   2   4 3730.97 70.3944   6
  -2   2  -4 3723.87 72.1641   5
  -2   2  -4 3835.71 72.7446   8
  -4  -2  -4 85.8112 5.43346   8
  -4  -2  -4 96.4637 4.76773   2
  -4  -2  -4 91.6338 4.76850   5
  -4  -2  -4 94.0141 4.20289  14
   4  -2   4 95.7629 7.28182  10
  -4   2  -4 100.442 4.68835   7
  -4   2  -4 95.1756 4.35490  14
  -4   2  -4 92.7663 4.80655   3
  -4   2  -4 91.7044 4.62134   2
   4   2   4 90.3996 4.53433   1
  -4   2  -4 94.5223 5.08640   5
   4   2   4 91.6827 4.86396  11
   4   2   4 91.4543 7.55504  10
  -4   2  -4 92.1690 4.10923   4
  -4   2  -4 99.5828 5.55979   8
   4   2   4 88.5068 3.95853   6
   6  -2   4 761.255 15.2875   6
  -6  -2  -4 717.236 19.1615   5
  -6  -2  -4 759.589 18.9831   2
  -6  -2  -4 750.238 21.0375   8
  -6   2  -4 772.132 20.6799   8
   6   2   4 715.591 19.7917  11
   6   2   4 729.446 18.6032   1
  -6   2  -4 746.403 18.5045   2
  -6   2  -4 792.602 20.5860   5
   6   2   4 773.494 17.9464   6
  -8  -2  -4 26.8563 3.70453   2
  -8  -2  -4 24.9151 3.85808   5
  -8  -2  -4 24.1623 4.18295   8
   8  -2   4 26.4757 2.26969   6
   8   2   4 22.9648 2.91860   6
  -8   2  -4 20.8256 3.87840   5
  -8   2  -4 18.1941 3.68532   8
  11  -3  -4 20.6445 3.44521   1
  11  -3  -4 12.5306 2.66639   6
  11  -3  -4 13.7795 3.89571  11
 -11  -3   4 8.91600 3.20625   8
 -11   3   4 12.2292 3.21261   3
 -11   3   4 13.1292 3.34511   5
  11   3  -4 10.5481 2.47982   6
  11   3  -4 10.4057 4.21814  11
  11   3  -4 8.02896 2.73215   1
   9  -3  -4 55.4004 5.63410  13
   9  -3  -4 72.9121 5.05326   1
   9  -3  -4 61.9911 4.22466   6
  -9  -3   4 66.8590 4.29490   5
  -9  -3   4 83.4326 5.43359   8
   9   3  -4 66.9309 6.16930  11
  -9   3   4 70.0201 5.04844   5
   9   3  -4 74.2279 4.72564   6
  -9   3   4 88.8926 6.18057   3
   9   3  -4 67.2886 5.37393   1
   7  -3  -4 79.7903 4.73536   1
  -7  -3   4 78.3535 3.79261   5
  -7  -3   4 78.9238 4.57574   1
   7  -3  -4 84.2992 4.15116   6
  -7  -3   4 82.6293 4.43149  12
   7  -3  -4 85.6805 6.30986  13
  -7   3   4 79.7913 4.05191  12
  -7   3   4 83.9489 4.87552   3
  -7   3   4 81.5750 3.67706   8
   7   3  -4 80.0158 5.11064   1
   7   3  -4 79.4621 4.35451   6
  -7   3   4 82.6794 4.47845   5
   7   3  -4 79.7335 4.85067  11
  -5  -3   4 102.748 4.62376   1
   5  -3  -4 94.7311 5.71604  13
  -5  -3   4 87.7899 3.45733   6
   5  -3  -4 96.9118 4.66744   1
  -5  -3   4 89.9412 4.09332  12
   5  -3  -4 94.8062 3.82335   6
  -5   3   4 88.0442 3.99260   9
   5   3  -4 94.2136 4.92787   1
  -5   3   4 95.5017 4.46673   3
  -5   3   4 89.6113 3.61167  12
   5   3  -4 87.0430 4.15395  11
   5   3  -4 95.6402 3.87638   6
  -5   3   4 88.8131 3.88026   1
   5   3  -4 85.4549 3.55459   4
   3  -3  -4 166.767 6.64497  13
   3  -3  -4 172.243 4.13068   2
   3  -3  -4 163.133 4.98072   6
  -3  -3   4 167.965 6.80409  10
  -3  -3   4 166.888 5.19333  12
  -3  -3   4 168.158 4.35669   9
  -3  -3   4 163.605 5.55628   1
   3  -3  -4 170.915 5.97447   1
  -3  -3   4 166.806 4.91469   6
   3   3  -4 172.160 5.42016   4
  -3   3   4 152.880 4.58513   6
  -3   3   4 163.871 4.82340  12
   3   3  -4 167.365 5.04248  11
   3   3  -4 173.824 6.13557   7
   3   3  -4 165.914 5.64299   1
   3   3  -4 165.114 5.06675  14
  -3   3   4 168.998 5.61106   1
  -3   3   4 169.181 5.38209   9
  -3   3   4 162.153 5.20272   3
  -3   3   4 170.825 7.40210  10
  -1  -3   4 294.980 6.82787   6
   1  -3  -4 303.116 8.48494  13
   1  -3  -4 295.708 7.57282   8
  -1  -3   4 279.989 7.50930   1
   1  -3  -4 291.041 7.42456   2
  -1  -3   4 293.843 7.50366  12
   1  -3  -4 283.836 8.18857   1
  -1  -3   4 290.162 6.53013   9
  -1  -3   4 309.853 9.37198  10
   1   3  -4 287.849 8.58776  10
  -1   3   4 295.896 8.31745   1
   1   3  -4 326.200 8.13342   2
   1   3  -4 314.129 8.30429   4
   1   3  -4 301.116 6.93425  11
  -1   3   4 286.114 7.31197  12
  -1   3   4 301.063 10.4286  10
  -1   3   4 291.594 7.36559   6
   1   3  -4 291.089 8.04059  14
  -1   3   4 287.353 7.81150   9
   1   3  -4 289.817 8.30363   7
   1  -3   4 20.9843 2.80586  10
  -1  -3  -4 21.4961 2.02245   2
  -1  -3  -4 22.2015 1.84347  14
   1  -3   4 27.1966 1.40501   1
  -1  -3  -4 23.9924 1.68115  13
  -1  -3  -4 20.6478 2.18480   8
   1   3   4 21.3592 1.87528  11
  -1   3  -4 21.4541 1.64928   3
   1   3   4 18.6803 2.89319  10
  -1   3  -4 21.0198 1.94832   5
   1   3   4 21.7811 2.23089   1
  -1   3  -4 30.0393 2.27538   7
  -1   3  -4 18.7015 2.15359   2
  -1   3  -4 21.8342 2.00326  14
  -1   3  -4 22.3526 2.14517   4
   1   3   4 21.8653 2.02236   9
  -1   3  -4 22.0434 2.12054   8
   1   3   4 24.4351 1.86858   6
  -3  -3  -4 264.666 7.81811  14
  -3  -3  -4 260.541 8.19286   2
   3  -3   4 261.685 11.3788  10
  -3  -3  -4 258.401 9.13372   8
   3   3   4 255.531 8.22205  11
  -3   3  -4 262.072 8.20049  14
  -3   3  -4 266.750 8.00708   3
  -3   3  -4 259.533 8.81503   5
   3   3   4 257.568 8.60931   1
  -3   3  -4 269.668 8.19927   4
   3   3   4 270.080 7.73398   6
  -3   3  -4 268.201 8.25862   2
   3   3   4 278.243 9.01121   9
   3   3   4 254.282 12.2381  10
  -3   3  -4 256.285 8.36361   7
  -3   3  -4 266.512 9.10846   8
  -5  -3  -4 1.99847 1.55681   5
   5  -3   4 2.95742 2.29733  10
  -5  -3  -4 0.52592 0.99775  14
  -5  -3  -4 2.09434 2.03333   8
  -5   3  -4 3.73621 1.78530   4
   5   3   4 0.79174 1.77078  11
  -5   3  -4 1.33236 1.13738  14
   5   3   4 0.57686 1.28652   1
  -5   3  -4 0.40526 1.61027   5
   5   3   4 0.36107 2.46253  10
  -5   3  -4 0.30264 1.33875   3
  -5   3  -4 4.19409 1.48324   2
   5   3   4 1.14687 1.22534   6
  -5   3  -4 0.66758 1.61468   8
   7  -3   4 2.53565 2.45373  11
  -7  -3  -4 6.20810 2.47965   5
  -7  -3  -4 6.88660 3.03194   8
   7  -3   4 9.34330 1.16978   6
  -7  -3  -4 4.20403 2.10437   2
  -7   3  -4 11.8844 2.89537   8
   7   3   4 8.67569 3.17859  11
  -7   3  -4 7.54567 2.85293   5
   7   3   4 7.27953 2.15237   1
   7   3   4 7.98279 2.11181   6
 -10  -4   4 1399.18 33.9560   8
  10  -4  -4 1308.80 36.8784  13
  10  -4  -4 1452.23 33.0395   1
  10  -4  -4 1423.47 31.3001   6
  10   4  -4 1411.21 35.8585  11
 -10   4   4 1446.44 34.7057   3
 -10   4   4 1430.00 33.3420   5
  10   4  -4 1433.54 35.3564   1
   8  -4  -4 202.026 7.26463   6
   8  -4  -4 203.439 10.7254  13
  -8  -4   4 206.139 8.24604  12
   8  -4  -4 202.413 8.13435   1
  -8  -4   4 201.109 8.08802   1
  -8  -4   4 201.637 8.63906   8
   8   4  -4 193.271 9.21334   1
  -8   4   4 211.457 8.19052   5
  -8   4   4 207.485 8.78599   3
   8   4  -4 204.745 9.29278  11
   8   4  -4 209.652 8.06047   6
   6  -4  -4 2577.67 55.3873  13
   6  -4  -4 2653.88 52.0572   1
   6  -4  -4 2601.75 50.3392   6
  -6  -4   4 2590.69 51.1103  12
  -6  -4   4 2605.20 52.0809   1
   6   4  -4 2613.42 52.0062  11
   6   4  -4 2569.78 53.0257   1
   6   4  -4 2496.45 50.4826   6
  -6   4   4 2600.68 51.0897   9
  -6   4   4 2566.78 49.7472  12
  -6   4   4 2540.87 51.9935   3
   4  -4  -4 22.6517 1.92132   6
   4  -4  -4 19.1831 2.99476  13
  -4  -4   4 17.8384 1.92283  12
  -4  -4   4 15.9555 2.09035   1
  -4  -4   4 15.1036 1.70017   6
   4   4  -4 18.6546 2.15071  11
   4   4  -4 15.9682 2.20825   1
  -4   4   4 17.3914 1.77808   1
  -4   4   4 14.6137 1.86084   9
  -4   4   4 17.9524 2.79839  10
   4   4  -4 17.4425 1.96361   4
  -4   4   4 19.6905 2.13626   3
  -4   4   4 15.6774 1.39051  12
  -2  -4   4 3257.20 61.2304  12
   2  -4  -4 3360.24 63.6496  13
  -2  -4   4 3278.79 62.1869   1
  -2  -4   4 3293.39 60.9710   6
   2  -4  -4 3229.16 60.7276   2
   2  -4  -4 3211.58 61.2555   6
   2  -4  -4 3234.13 62.8857   1
  -2  -4   4 3107.93 66.9626  10
   2   4  -4 3277.16 62.0975  14
   2   4  -4 3320.29 62.3585   4
  -2   4   4 3343.96 65.7196  10
  -2   4   4 3293.74 62.6031   1
  -2   4   4 3203.66 61.7867   9
  -2   4   4 3281.74 61.9436   3
   2   4  -4 3317.28 63.1420   7
   2   4  -4 3151.36 61.4327   1
  -2   4   4 3167.26 60.9616   6
   2   4  -4 3365.26 61.3272  11
  -2   4   4 3221.75 60.7517  12
   2   4  -4 3211.60 62.5250  10
   0  -4   4 13.4660 1.02939   9
   0  -4  -4 16.7781 1.75177   8
   0  -4  -4 13.2759 1.61257   2
   0  -4  -4 8.74048 1.41202  13
   0  -4   4 8.53502 0.92016   6
   0  -4   4 11.5038 1.98640  10
   0  -4   4 10.8216 1.19826   1
   0  -4   4 12.8428 1.53119  12
   0   4  -4 9.78762 1.21067   3
   0   4   4 8.33274 1.63988   1
   0   4   4 13.7116 1.56614   6
   0   4  -4 8.10915 1.46079  14
   0   4   4 8.11928 1.52745   9
   0   4  -4 10.3448 1.66864   7
   0   4   4 13.5951 1.62449  11
   0   4  -4 8.61147 1.70474   4
  -2  -4  -4 3437.61 64.8738   2
   2  -4   4 3164.81 62.6644   1
  -2  -4  -4 3387.59 64.5126  14
  -2  -4  -4 3314.48 65.9283   8
   2  -4   4 3264.83 68.4875  10
  -2   4  -4 3458.58 65.9901   7
  -2   4  -4 3428.17 65.4147  14
  -2   4  -4 3417.77 65.0870   2
   2   4   4 3347.09 64.7352  11
   2   4   4 3386.43 64.2890   6
  -2   4  -4 3356.79 65.6770   8
  -2   4  -4 3354.12 65.4009   5
   2   4   4 3375.88 66.0146   1
  -2   4  -4 3354.98 65.2840   4
  -2   4  -4 3356.70 64.1207   3
   2   4   4 3410.96 65.4400   9
   2   4   4 3451.34 71.5453  10
  -4  -4  -4 141.364 5.50781  14
   4  -4   4 122.636 8.11989  10
  -4  -4  -4 137.533 7.06356   8
  -4  -4  -4 140.837 6.03457   2
   4   4   4 134.082 9.57746  10
  -4   4  -4 142.037 6.73601   5
  -4   4  -4 144.356 6.05195   2
  -4   4  -4 136.529 6.57692   7
   4   4   4 134.683 6.47696   1
  -4   4  -4 147.972 6.18483   3
  -4   4  -4 140.630 6.56630   8
   4   4   4 128.165 6.36123  11
   4   4   4 136.022 6.73666   9
   4   4   4 131.361 5.70547   6
  -4   4  -4 146.125 6.01031  14
  -4   4  -4 137.604 5.99563   4
  -6  -4  -4 1880.89 40.8242   2
  -6  -4  -4 1851.45 43.0940   8
  -6   4  -4 2030.83 41.9606   3
  -6   4  -4 1909.24 42.2607   5
   6   4   4 1930.19 42.0197   1
   6   4   4 1927.59 40.5287   6
   6   4   4 1830.55 42.2938  11
  -6   4  -4 1922.78 42.1114   8
  -8  -4  -4 129.074 8.58187   8
  -8  -4  -4 117.607 6.88229   2
   8  -4   4 110.911 3.79908   6
   8   4   4 108.766 7.40657   9
  -8   4  -4 103.984 7.29384   5
   8   4   4 119.377 6.62206   6
 -11  -5   4 17.4614 4.01134   8
  11  -5  -4 31.7337 3.72598   6
  11  -5  -4 27.1717 3.77011   1
 -11   5   4 18.3363 3.79893   5
 -11   5   4 20.1810 4.26542   3
  11   5  -4 25.8156 5.69921  11
  11   5  -4 20.5939 4.29729   1
  -9  -5   4 150.992 8.23587   8
   9  -5  -4 155.583 7.49045   1
   9  -5  -4 162.175 6.81974   6
   9  -5  -4 160.639 10.2626  13
  -9   5   4 162.325 7.87347   5
   9   5  -4 160.086 9.03732   1
  -9   5   4 151.574 8.40784   3
   9   5  -4 169.904 9.58137  11
  -7  -5   4 19.4305 2.92260   1
  -7  -5   4 18.1893 2.77227  12
  -7  -5   4 19.8659 2.96477   8
   7  -5  -4 18.5043 2.77041   1
   7  -5  -4 23.4191 4.02919  13
   7  -5  -4 18.9432 2.36118   6
  -7   5   4 17.3063 2.58516   5
   7   5  -4 19.9323 3.19566   1
  -7   5   4 19.2820 3.14750   3
   7   5  -4 19.5945 3.42569  11
   7   5  -4 20.1600 3.24167   7
   5  -5  -4 602.117 14.5183   6
  -5  -5   4 620.861 16.1079   1
  -5  -5   4 610.052 14.6863  12
   5  -5  -4 632.385 15.9595   1
  -5  -5   4 594.581 14.1323   6
   5  -5  -4 611.277 18.1960  13
  -5   5   4 615.894 15.5779   3
  -5   5   4 622.719 14.9638   9
   5   5  -4 615.345 14.2385   4
   5   5  -4 621.137 16.3463   1
  -5   5   4 575.896 14.2941   1
   5   5  -4 603.910 16.3515   7
   5   5  -4 608.261 15.5161  11
  -5   5   4 620.613 13.3627  12
   3  -5  -4 295.139 8.00984   6
  -3  -5   4 292.644 8.99644   1
   3  -5  -4 282.345 6.86899   2
   3  -5  -4 298.840 10.2624  13
  -3  -5   4 276.491 7.66408  12
   3  -5  -4 282.619 9.12976   1
  -3  -5   4 288.582 7.82557   6
  -3   5   4 282.240 6.99412  12
  -3   5   4 291.745 8.67505   1
   3   5  -4 298.225 9.48959   7
  -3   5   4 286.834 10.4420  10
  -3   5   4 289.559 8.20335   9
   3   5  -4 299.206 8.74599   4
   3   5  -4 284.699 8.57195   1
  -3   5   4 293.045 8.69708   3
   3   5  -4 292.415 8.30614  11
   1  -5  -4 366.953 9.14330   2
  -1  -5   4 354.923 8.81343  12
   1  -5  -4 349.874 8.96812   6
   1  -5  -4 370.509 10.4837  13
  -1  -5   4 356.856 9.77203  10
  -1  -5   4 371.069 8.73506   6
   1  -5  -4 347.617 8.68896   8
  -1  -5   4 361.637 9.66812   1
   1  -5  -4 364.079 10.6004   1
  -1   5   4 371.815 9.71162   9
  -1   5   4 361.769 12.0529  10
   1   5  -4 361.585 8.57481   3
  -1   5   4 359.142 9.13522   6
   1   5  -4 387.527 10.5925   4
   1   5  -4 364.692 9.29231  11
  -1   5   4 352.996 9.52525  11
   1   5  -4 368.189 10.8056   7
   1   5  -4 361.888 10.1821  14
  -1   5   4 376.409 10.6180   1
  -1   5   4 352.378 8.58727  12
   1  -5   4 1092.76 22.1861   1
   1  -5   4 1055.50 25.0399  10
   1  -5   4 1106.75 21.1350   6
  -1  -5  -4 1060.11 23.8191   8
  -1  -5  -4 1081.58 24.1605   1
  -1  -5  -4 1112.55 23.5139   2
   1  -5   4 1065.27 22.5847  12
   1   5   4 1099.98 23.2474   6
   1   5   4 1108.90 25.0837   1
   1   5   4 1099.45 23.8862   9
  -1   5  -4 1116.82 23.7106   5
   1   5   4 1094.25 28.0541  10
  -1   5  -4 1090.13 24.9457   7
  -1   5  -4 1116.24 22.8134   3
  -1   5  -4 1131.52 24.6140   4
  -1   5  -4 1081.42 24.3772  14
   1   5   4 1080.90 23.5676  11
  -3  -5  -4 151.463 7.03505   8
  -3  -5  -4 148.593 5.93080  14
   3  -5   4 146.548 9.19650  10
  -3  -5  -4 158.206 6.43597   2
  -3   5  -4 159.097 6.66716  14
  -3   5  -4 180.574 7.15936   5
  -3   5  -4 153.375 6.09574   3
   3   5   4 150.578 6.13434   6
  -3   5  -4 150.841 7.04391   7
   3   5   4 183.093 7.13167   9
  -3   5  -4 151.906 6.48638   4
  -3   5  -4 150.559 6.25345   2
  -3   5  -4 150.712 6.52549   8
   3   5   4 138.937 6.48746  11
   3   5   4 155.982 7.16547   1
  -5  -5  -4 482.771 13.0925  14
  -5  -5  -4 487.241 15.8088   8
  -5  -5  -4 497.369 14.3497   2
   5  -5   4 477.318 15.9251  13
   5   5   4 468.083 15.2046  11
   5   5   4 490.526 14.0910   6
  -5   5  -4 482.195 13.6014   2
   5   5   4 500.770 15.5810   1
  -5   5  -4 511.737 14.2750   4
  -5   5  -4 487.933 13.9027  14
  -5   5  -4 489.908 14.7212   8
   5   5   4 488.618 15.2964   9
  -5   5  -4 500.349 14.3115   3
  -5   5  -4 503.852 15.3487   7
  -5   5  -4 490.192 15.0380   5
   7  -5   4 155.079 3.78190   6
  -7  -5  -4 160.091 9.00698   8
  -7  -5  -4 149.130 7.64966   2
   7   5   4 158.993 8.99258   9
  -7   5  -4 156.584 8.49617   5
   7   5   4 152.371 8.33419   1
  -7   5  -4 144.223 7.93462   3
   7   5   4 149.501 7.37020   6
 -10  -6   4 11.7181 3.54894   8
  10  -6  -4 11.2876 2.44765   6
  10  -6  -4 14.2704 2.93200   1
  10   6  -4 7.25735 3.27880   1
 -10   6   4 9.26028 3.06384   5
 -10   6   4 14.6429 3.77451   3
  10   6  -4 13.8185 4.74703  11
   8  -6  -4 1137.18 32.7062  13
   8  -6  -4 1244.68 26.7684   6
  -8  -6   4 1183.87 28.9865   8
  -8  -6   4 1174.32 28.6177   1
   8  -6  -4 1165.46 27.8259   1
  -8   6   4 1204.66 29.4305   3
   8   6  -4 1179.73 30.4917   1
   8   6  -4 1157.24 29.1507   7
   8   6  -4 1215.47 30.1061  11
  -8   6   4 1208.26 27.7591   5
  -6  -6   4 163.151 7.35075   1
   6  -6  -4 161.759 6.32249   6
  -6  -6   4 152.298 6.45374  12
   6  -6  -4 158.625 9.16601  13
   6  -6  -4 163.805 7.17705   1
  -6   6   4 175.695 6.79457   9
  -6   6   4 180.857 6.75222   5
   6   6  -4 162.282 7.89659   1
   6   6  -4 170.731 7.64496  11
   6   6  -4 168.986 7.78184   7
  -6   6   4 156.636 7.34982   3
   4  -6  -4 3374.81 67.2019   1
   4  -6  -4 3555.23 70.2536  13
   4  -6  -4 3468.21 65.5163   6
  -4  -6   4 3279.17 64.8562  12
  -4  -6   4 3408.14 67.3032   1
  -4  -6   4 3314.27 65.2046   6
  -4   6   4 3473.22 66.8708   3
  -4   6   4 3445.25 65.6989   9
   4   6  -4 3330.63 65.7021   4
   4   6  -4 3476.29 66.4419  11
   4   6  -4 3396.60 67.0169   1
  -4   6   4 3356.07 65.7375   1
   4   6  -4 3473.10 67.9283   7
   2  -6  -4 597.359 16.0570  13
  -2  -6   4 583.930 14.8583   1
   2  -6  -4 596.146 15.6951   1
   2  -6  -4 559.111 13.6922   6
  -2  -6   4 561.174 12.9844  12
   2  -6  -4 576.051 13.0787   2
  -2  -6   4 604.392 13.6997   6
  -2   6   4 583.538 16.6131  10
   2   6  -4 599.938 14.2951  11
   2   6  -4 591.359 15.0279   4
  -2   6   4 603.029 15.2119   1
  -2   6   4 586.406 14.8191   3
   2   6  -4 578.017 15.5938   7
   2   6  -4 588.625 13.3122   3
  -2   6   4 585.175 14.1292   9
   0  -6  -4 3591.71 68.8093   2
   0  -6  -4 3433.97 68.2876   8
   0  -6   4 3601.57 68.6150   1
   0  -6  -4 3663.25 70.8060   1
   0  -6   4 3637.64 67.4544   6
   0  -6  -4 3667.33 69.5679  13
   0   6   4 3463.47 68.5418   6
   0   6   4 3636.44 70.8769   1
   0   6  -4 3627.33 71.2665   7
   0   6  -4 3650.16 70.6896   4
   0   6   4 3731.13 69.4176   9
   0   6  -4 3597.71 68.0676   3
   0   6   4 3644.28 73.6431  10
   0   6   4 3564.97 69.4418  11
   0   6  -4 3590.26 70.3922  14
   2  -6   4 149.863 4.72827   1
  -2  -6  -4 149.890 6.57400   1
   2  -6   4 152.911 4.19354   6
  -2  -6  -4 163.845 6.33503   2
  -2  -6  -4 145.664 6.48862   8
   2   6   4 157.349 6.71420   9
  -2   6  -4 150.911 6.76512   4
   2   6   4 165.902 6.75082  11
   2   6   4 157.085 8.99526  10
   2   6   4 162.326 7.57896   1
  -2   6  -4 154.801 7.18162   7
  -2   6  -4 156.815 5.96729   3
  -2   6  -4 164.701 7.01370  14
  -2   6  -4 185.040 6.83217   5
   2   6   4 150.700 6.07690   6
  -4  -6  -4 1354.41 32.1127   8
  -4  -6  -4 1381.52 30.6416   2
  -4  -6  -4 1364.53 29.7466  14
   4  -6   4 1341.63 25.2130   6
  -4   6  -4 1383.23 31.3022   5
   4   6   4 1384.71 31.5867   9
  -4   6  -4 1426.77 32.5914   7
  -4   6  -4 1388.69 31.0912   4
   4   6   4 1339.24 38.1526  10
   4   6   4 1379.41 32.7443   1
   4   6   4 1352.23 30.3320   6
  -4   6  -4 1404.73 30.9150  14
   4   6   4 1329.73 31.6092  11
  -6  -6  -4 7.43260 2.75496   2
  -6  -6  -4 10.0258 3.22156   8
   6   6   4 8.21833 3.07174   9
   6   6   4 9.26830 2.95322   1
  -6   6  -4 10.1579 3.04529   5
  -6   6  -4 8.63941 2.14933   3
  -6   6  -4 7.50745 2.72143   7
   6   6   4 5.60838 3.12773  11
   6   6   4 8.47935 2.45374   6
   9  -7  -4 135.606 7.41626   1
  -9  -7   4 136.176 8.01109   8
   9  -7  -4 142.287 6.71584   6
   9   7  -4 144.107 9.50078  11
  -9   7   4 128.250 7.24834   5
   9   7  -4 144.368 9.30657   1
  -9   7   4 128.388 8.31575   3
   7  -7  -4 6.78720 2.20473   1
   7  -7  -4 5.67417 1.74443   6
   7  -7  -4 5.65168 3.09724  13
  -7  -7   4 7.65312 2.60280   8
  -7  -7   4 10.7256 2.85424   1
   7   7  -4 10.2496 3.10943   1
   7   7  -4 11.1503 3.22573  11
  -7   7   4 5.72628 1.71376   5
  -7   7   4 6.66741 2.17277   3
   7   7  -4 7.42713 2.47118   7
   5  -7  -4 178.993 9.61399  13
   5  -7  -4 170.080 7.63157   1
  -5  -7   4 177.180 6.55099  12
   5  -7  -4 178.636 6.72363   6
  -5  -7   4 165.832 7.66213   1
  -5   7   4 177.410 7.70875   3
   5   7  -4 176.827 8.02992   1
   5   7  -4 173.731 8.06178   7
  -5   7   4 170.788 6.71176   9
  -5   7   4 174.271 6.42657   5
   5   7  -4 187.004 7.78311  11
   3  -7  -4 12.4228 2.47384   1
   3  -7  -4 11.2566 2.65292  13
  -3  -7   4 9.36217 2.13931   1
   3  -7  -4 8.92142 1.74860   6
  -3  -7   4 10.0467 1.72848   6
  -3   7   4 10.2116 2.21445   3
  -3   7   4 8.43488 1.85806   1
   3   7  -4 10.2709 1.93715   1
   3   7  -4 12.8455 2.17822   4
  -3   7   4 11.4639 1.85213   9
   3   7  -4 14.2108 2.26514  11
   3   7  -4 12.1292 2.58531   7
  -3   7   4 12.1151 2.43757  10
  -1  -7   4 2.60104 1.34162   1
   1  -7  -4 2.01354 1.77922   6
   1  -7  -4 0.78866 0.95547   2
   1  -7  -4 2.41008 1.33434   1
   1  -7  -4 2.07061 1.37167  13
  -1  -7   4 1.97220 0.98405   6
   1   7  -4 2.78399 1.09166   3
  -1   7   4 3.00300 1.62474   3
  -1   7   4 1.74528 1.44224   1
   1   7  -4 2.07468 1.69065   7
   1   7  -4 1.42831 1.14289   4
  -1   7   4 2.88013 1.27047   9
  -1  -7  -4 67.2980 4.08938   2
   1  -7   4 54.1719 2.77081   6
  -1  -7  -4 57.4782 4.43120   1
   1  -7   4 56.6813 3.23539   1
  -1  -7  -4 53.2910 3.45951   8
  -1   7  -4 53.8234 3.36606   3
  -1   7  -4 52.9846 4.40429   4
  -1   7  -4 54.5226 3.50042   5
   1   7   4 58.9374 4.02808   9
   1   7   4 59.3086 5.27999  10
   1   7   4 57.8087 3.92114  11
  -1   7  -4 48.9758 4.53575   7
   1   7   4 54.6630 4.59040   1
   3  -7   4 16.7445 1.52693   6
  -3  -7  -4 16.1280 2.90010   8
  -3  -7  -4 17.0240 2.87778   2
  -3   7  -4 19.6213 3.58083   7
   3   7   4 18.8884 3.54955   1
  -3   7  -4 17.9328 3.12952   4
   3   7   4 18.6679 2.79180   9
   3   7   4 20.8132 4.31568  10
   3   7   4 12.9199 2.39787   6
   3   7   4 24.4481 3.60290  11
  -3   7  -4 20.6185 3.01200   5
  -3   7  -4 17.2080 2.60377   3
   5  -7   4 17.5049 1.20624   6
  -5  -7  -4 14.3692 2.42534  14
  -5  -7  -4 15.9366 3.05895   2
  -5  -7  -4 19.8658 3.48680   8
   5  -7   4 13.2413 3.30648  13
   5   7   4 16.4799 3.35351   1
   5   7   4 15.7854 2.97744   6
  -5   7  -4 20.4031 3.56101   7
  -5   7  -4 19.1309 3.28529   4
  -5   7  -4 14.3990 2.77012   3
  -5   7  -4 14.5250 3.04944   5
   5   7   4 18.3033 3.47967   9
   5   7   4 13.5297 3.62937  11
  -7  -7  -4 3.74761 2.52543   2
  -7  -7  -4 3.81834 3.06484   8
   7  -7   4 3.80134 0.89163   6
   7   7   4 1.83129 2.69971   9
   7   7   4 1.03877 2.04888   6
  -7   7  -4 2.79882 1.94692   5
   7   7   4 5.32516 3.01267   1
  10  -8  -4 328.876 11.3703   6
 -10  -8   4 343.979 14.2804   8
 -10  -8   4 331.322 11.8440   2
 -10   8   4 366.758 14.5388   3
  10   8  -4 340.486 15.1826   1
  10   8  -4 354.147 15.4707  11
 -10   8   4 355.983 13.1263   5
   8  -8  -4 591.389 22.5216  13
   8  -8  -4 626.045 17.8273   1
  -8  -8   4 622.320 18.8438   1
   8  -8  -4 608.837 16.4048   6
  -8  -8   4 604.553 18.8183   8
   8   8  -4 610.821 19.6827  11
  -8   8   4 606.318 17.1173   5
   8   8  -4 607.226 20.1023   1
  -8   8   4 614.316 18.9168   3
  -6  -8   4 331.142 11.6874   8
   6  -8  -4 325.454 11.6358   1
  -6  -8   4 335.325 12.4218   1
   6  -8  -4 320.374 10.3921   6
   6  -8  -4 324.758 14.4201  13
   6   8  -4 339.883 12.4262   7
  -6   8   4 345.388 12.4280   3
   6   8  -4 328.009 12.3107   1
   6   8  -4 323.580 12.0431  11
  -6   8   4 317.544 10.2042   5
   4  -8  -4 821.810 23.5505  13
  -4  -8   4 807.060 21.2060   1
   4  -8  -4 790.812 19.1301   6
   4  -8  -4 817.518 21.0382   1
  -4  -8   4 816.311 19.1701   6
  -4   8   4 804.202 18.9800   9
   4   8  -4 803.416 20.4844  11
   4   8  -4 782.016 21.4484   7
   4   8  -4 793.450 20.3380   1
  -4   8   4 806.484 20.7190   3
   4   8  -4 776.303 19.3636   4
   2  -8  -4 212.810 7.55929   6
  -2  -8   4 215.189 7.37218   6
  -2  -8   4 262.209 9.12887   1
   2  -8  -4 213.371 9.23994  13
   2  -8  -4 214.941 9.06475   1
  -2   8   4 212.018 7.38152   9
  -2   8   4 211.843 8.43056   1
   2   8  -4 216.037 8.22551  11
   2   8  -4 226.180 9.55469   7
   2   8  -4 199.151 8.18340   4
  -2   8   4 220.290 8.70186   3
   2   8  -4 210.538 7.22540   3
   0  -8  -4 931.492 23.6746   1
   0  -8   4 953.916 21.6942   1
   0  -8   4 934.560 20.4151   6
   0  -8  -4 922.768 21.2638   2
   0   8  -4 919.146 23.3031   4
   0   8  -4 922.174 24.1650   7
   0   8   4 941.445 23.6691   1
   0   8   4 899.522 22.4166  11
   0   8  -4 916.123 20.9138   3
   0   8   4 938.245 21.3915   9
  -2  -8  -4 234.909 9.64700   1
   2  -8   4 223.061 7.24974   1
   2  -8   4 225.390 6.72803   6
  -2  -8  -4 214.572 8.42404   2
  -2   8  -4 244.541 10.4683   7
   2   8   4 221.720 8.54678   9
  -2   8  -4 220.273 8.09503   3
   2   8   4 226.006 9.40285  11
  -2   8  -4 237.915 9.85553   4
  -2   8  -4 220.578 8.16443   5
   2   8   4 224.147 10.0168   1
   4  -8   4 895.636 18.5431   6
  -4  -8  -4 892.110 22.5809   2
   4  -8   4 861.553 26.1215  13
  -4  -8  -4 890.640 21.9364  14
  -4  -8  -4 859.558 23.4267   8
  -4   8  -4 906.629 23.8870   4
   4   8   4 888.375 23.1105   9
  -4   8  -4 910.847 22.8207   5
  -4   8  -4 918.237 25.3612   7
   4   8   4 861.544 23.9442  11
   4   8   4 918.573 25.6766   1
  -6  -8  -4 218.625 10.8812   8
  -6  -8  -4 212.006 9.47406   2
  -6   8  -4 221.507 10.0560   5
  -6   8  -4 234.830 11.4451   7
   6   8   4 210.476 10.3960   9
   6   8   4 230.812 11.6804   1
   9  -9  -4 5.86904 2.23504   6
  -9  -9   4 3.39251 2.96008   8
   9  -9  -4 4.50915 2.24167   1
   9   9  -4 5.68580 3.31005   1
  -9   9   4 5.75469 2.72153   3
  -9   9   4 4.31460 2.44192   5
   9   9  -4 6.19135 3.12569  11
   7  -9  -4 65.1781 7.10247  13
   7  -9  -4 63.2640 5.24756   1
  -7  -9   4 62.0920 5.93758   1
  -7  -9   4 64.7614 5.82138   8
   7  -9  -4 60.1863 4.62655   6
  -7   9   4 65.9487 6.02425   3
   7   9  -4 63.0372 6.25662   1
   7   9  -4 65.2141 6.40253  11
  -5  -9   4 1.87276 1.83761   8
   5  -9  -4 3.69128 1.78770   6
   5  -9  -4 1.06991 1.75637  13
  -5  -9   4 -0.1074 1.90007   1
   5  -9  -4 0.54322 1.71443   1
   5   9  -4 3.11404 2.39592  11
   5   9  -4 1.64786 1.64142   7
  -5   9   4 0.46825 1.29976   9
  -5   9   4 0.50832 1.36005   3
   3  -9  -4 20.4565 3.77205  13
   3  -9  -4 21.8126 3.55150   1
   3  -9  -4 31.5861 3.38358   6
  -3  -9   4 20.5622 3.43376   1
  -3  -9   4 14.1359 2.28639   6
   3   9  -4 17.8342 2.87314   4
   3   9  -4 18.4193 2.58389   3
  -3   9   4 15.0472 2.20276   9
  -3   9   4 12.7028 2.88026   3
   3   9  -4 20.2764 3.41551  11
  -1  -9   4 7.60621 1.59779   6
  -1  -9   4 11.2032 2.37321   1
   1  -9  -4 13.9300 2.23014   2
   1  -9  -4 7.30394 2.26196  13
   1  -9  -4 9.19135 2.41958   1
   1   9  -4 9.66834 2.38575   4
   1   9  -4 5.77834 2.63124   7
  -1   9   4 7.90323 2.17229   3
   1   9  -4 10.2946 2.04666   3
  -1   9   4 9.98120 1.93632   9
  -1   9   4 7.05563 2.25979   1
  -1  -9  -4 9.42341 2.00199   2
   1  -9   4 6.84170 1.59334   6
   1  -9   4 8.28397 1.86169   1
  -1  -9  -4 7.71329 2.67882   1
   1   9   4 7.40310 2.00057   9
  -1   9  -4 8.14508 1.96401   3
   1   9   4 8.27216 2.63823   1
   1   9   4 7.46031 2.30008  11
  -1   9  -4 11.4819 3.30402   7
  -1   9  -4 5.77760 2.45393   4
   3  -9   4 27.2961 2.48491   6
  -3  -9  -4 22.5152 3.21430   2
  -3   9  -4 24.3906 4.57232   7
   3   9   4 24.9564 4.37266  11
   3   9   4 27.9360 4.33787   1
   3   9   4 36.0965 3.86172   9
  -3   9  -4 31.6634 4.62036   4
   5  -9   4 8.52916 1.40655   6
  -5  -9  -4 8.35415 2.31093  14
  -5  -9  -4 8.91142 2.48134   2
  -5   9  -4 3.91517 2.91469   7
  -5   9  -4 8.49763 2.77383   5
   5   9   4 8.90909 3.37850  11
   5   9   4 10.2981 3.58323   1
   8 -10  -4 18.0724 3.51055   1
  -8 -10   4 12.7793 3.89329   1
  -8 -10   4 13.3055 3.49720   8
   8 -10  -4 18.5506 3.03175   6
   8  10  -4 13.6661 3.98244   1
  -8  10   4 13.3899 3.88751   3
   8  10  -4 17.2837 4.69651  11
   6 -10  -4 1138.77 28.9570   1
  -6 -10   4 1138.27 28.7224   8
  -6 -10   4 1171.20 30.5346   1
   6 -10  -4 1190.20 27.5502   6
  -6  10   4 1153.96 29.8413   3
   6  10  -4 1117.55 29.5538  11
   4 -10  -4 116.735 8.38076  13
   4 -10  -4 111.384 6.04529   6
   4 -10  -4 116.521 7.28125   1
  -4 -10   4 120.385 7.54305   1
   4  10  -4 118.360 7.72854   7
  -4  10   4 108.503 7.07700   3
   4  10  -4 114.966 6.19665   3
   4  10  -4 118.170 7.28366  11
  -2 -10   4 1481.22 31.7285   6
   2 -10  -4 1432.76 35.3505  13
   2 -10  -4 1445.46 34.8521   1
  -2 -10   4 1423.87 33.6251   1
   2  10  -4 1385.36 33.3584   4
  -2  10   4 1414.86 33.7806   3
   2  10  -4 1394.28 31.7877   3
   2  10  -4 1451.59 35.5606   7
   0 -10  -4 198.314 9.78289   1
   0 -10   4 189.503 7.36028   6
   0 -10  -4 188.782 7.75974   2
   0 -10   4 191.726 8.35915   1
   0  10   4 183.939 9.07889   1
   0  10  -4 187.280 9.17547   4
   0  10  -4 196.504 10.2705   7
   0  10   4 201.669 9.68269   3
   2 -10   4 938.467 21.4261   6
  -2 -10  -4 929.554 25.4442   1
  -2 -10  -4 935.432 23.5011   2
  -2  10  -4 937.433 26.7740   7
   2  10   4 927.497 26.1745   1
  -2  10  -4 970.211 25.8531   4
   2  10   4 893.458 24.9650  11
   4 -10   4 97.9705 4.49572   6
  -4 -10  -4 88.2816 6.40903   2
   4  10   4 94.9240 8.04928   1
   4  10   4 93.0272 7.40061  11
  -4  10  -4 87.8328 7.74918   7
   7 -11  -4 133.655 7.19140   6
   7 -11  -4 123.791 7.63271   1
  -7 -11   4 124.981 8.85611   1
  -7  11   4 133.323 8.70428   3
   7  11  -4 123.785 8.35304  11
   5 -11  -4 84.6772 6.62405   1
  -5 -11   4 92.6157 7.43177   1
   5 -11  -4 77.9220 5.51433   6
  -5  11   4 81.9323 6.80940   3
   5  11  -4 91.0917 7.23168  11
   5  11  -4 83.0631 7.01471   7
  -3 -11   4 175.299 9.23486   1
   3 -11  -4 187.446 9.79289   1
   3 -11  -4 181.335 10.6383  13
  -3 -11   4 163.512 7.54756   6
   3  11  -4 181.122 9.20838  11
   3  11  -4 182.498 10.1346   7
  -3  11   4 168.809 9.11391   3
   1 -11  -4 163.398 9.37914   1
  -1 -11   4 161.221 7.15881   6
  -1 -11   4 164.379 8.47264   1
   1  11  -4 157.064 9.67774   7
   1  11  -4 153.505 8.33949   4
  -1  11   4 159.923 8.65999   3
  -1 -11  -4 105.698 7.34707   1
   1 -11   4 105.921 5.60093   6
  -1 -11  -4 104.845 6.01603   2
   1  11   4 92.7172 7.09003   3
  -1  11  -4 100.793 8.18230   7
   1  11   4 104.422 7.45355   1
   3 -11   4 144.820 6.22124   6
  -3 -11  -4 139.621 7.71081   2
   3  11   4 135.816 8.53235  11
  -3  11  -4 142.794 9.93601   7
   3  11   4 153.446 9.74217   1
   6 -12  -4 121.776 7.93935   1
   6 -12  -4 128.609 7.32077   6
  -6 -12   4 127.996 9.04218   1
  -6  12   4 131.839 8.83193   3
   6  12  -4 126.467 8.46757  11
  -4 -12   4 563.060 19.2417   1
   4 -12  -4 553.030 18.5251   1
   4  12  -4 559.360 18.3836  11
  -4  12   4 556.164 18.6942   3
   4  12  -4 535.336 19.0658   7
  -2 -12   4 68.5530 5.20919   6
   2 -12  -4 75.7220 6.95108   1
  -2 -12   4 70.1380 6.26125   1
  -2  12   4 64.5486 6.40658   3
   2  12  -4 73.2762 7.16769   7
   0 -12   4 688.706 18.3963   6
   0 -12  -4 676.078 21.7638   1
   0  12   4 630.194 20.8069   3
  -2 -12  -4 57.2118 5.19658   2
   2 -12   4 47.8594 3.97602   6
  -2 -12  -4 48.5668 5.42455   1
   2  12   4 47.7059 6.07377   1
  -2  12  -4 51.9032 6.66713   7
   2  12   4 46.9809 5.89050   3
   3 -13  -4 18.3329 3.80837   1
  -3 -13   4 18.2013 4.37324   1
  -3  13   4 19.6789 4.22072   3
  -1 -13   4 14.0934 2.93003   6
  -1 -13   4 19.9679 4.07927   1
   1 -13  -4 11.4508 3.83630   1
   1  13  -4 16.2596 3.88998   7
  -1  13   4 14.6984 4.12838   3
 -12   0   5 0.85698 2.32239   5
  12   0  -5 1.18764 2.36595   1
  12   0  -5 11.0021 4.16221  11
 -12   0   5 0.42382 2.00939   8
  12   0  -5 7.71863 2.63922   6
  10   0  -5 1.77944 2.60966  11
  10   0  -5 1.75389 2.07277   1
  10   0  -5 1.44703 1.80705   6
 -10   0   5 2.79455 1.94255   8
 -10   0   5 1.80842 1.92091   5
   8   0  -5 0.11480 0.88082   6
   8   0  -5 3.13641 1.90563  11
  -8   0   5 -0.3670 1.22716   3
   8   0  -5 0.79040 1.72029  13
  -8   0   5 0.54674 0.91533   8
  -8   0   5 1.96040 1.45968  12
   8   0  -5 0.57901 1.54439   1
   6   0  -5 -0.1300 0.84169   6
  -6   0   5 -0.2963 0.80380   1
  -6   0   5 0.13737 0.64755  12
   6   0  -5 1.38249 1.54483  13
   6   0  -5 0.12999 0.74359   1
  -6   0   5 1.14261 0.99474   9
   6   0  -5 0.13356 0.88712  11
  -6   0   5 0.77958 0.83028   3
   4   0  -5 0.35244 0.51863  14
  -4   0   5 0.18368 0.67078   9
   4   0  -5 -0.0377 0.56701   1
  -4   0   5 1.72224 0.92709   1
  -4   0   5 2.49677 0.69177   6
  -4   0   5 2.73640 0.69430   3
   4   0  -5 0.95547 0.62319   6
   4   0  -5 0.66018 1.17922  13
  -4   0   5 1.42270 1.33631  10
   4   0  -5 1.71191 0.65838  11
  -4   0   5 0.93908 0.80187  12
  -2   0   5 0.54199 1.23152  10
  -2   0   5 -0.4422 0.61035  12
   2   0  -5 2.71010 0.91667  14
   2   0  -5 1.84566 0.86853   4
   2   0  -5 0.80630 0.52088   1
  -2   0   5 0.86995 0.70951   9
   2   0  -5 0.37440 0.70628  13
  -2   0   5 0.40496 0.71976   1
  -2   0   5 0.44331 0.42191   6
   0   0   5 0.21102 0.43863   6
   0   0  -5 0.74460 0.86514   2
   0   0   5 1.11221 0.67628   9
   0   0  -5 1.70100 1.05574   8
   0   0   5 1.66675 0.77235   1
   0   0  -5 1.81560 0.81021   4
   0   0  -5 3.74940 0.94423  14
   0   0  -5 3.75505 0.82924   7
   0   0   5 0.22546 1.25104  10
  -4   0  -5 0.31634 1.03609  14
  -4   0  -5 5.90133 1.58890   2
  -4   0  -5 1.41558 1.19999   5
   4   0   5 0.11959 0.78620   1
   4   0   5 1.70265 0.86601   6
  -4   0  -5 3.28211 1.93847   8
   4   0   5 3.24497 2.48797  10
   6   0   5 0.74097 1.07047   6
  -6   0  -5 0.61215 1.19092   2
  -6   0  -5 -1.0613 1.96908   8
  -6   0  -5 4.06299 2.32772   5
  -8   0  -5 0.30525 2.42418   8
  -8   0  -5 -0.5688 2.23459   5
   8   0   5 1.15757 1.37832   6
  11  -1  -5 969.452 26.7187  11
 -11  -1   5 974.376 25.3279   8
  11  -1  -5 981.513 24.3135   6
 -11  -1   5 971.151 24.4750   5
  11  -1  -5 973.332 25.9250   1
  11   1  -5 943.863 26.3824   1
 -11   1   5 955.757 24.7016   8
  11   1  -5 992.898 27.2852  11
  11   1  -5 980.037 24.6464   6
 -11   1   5 971.860 24.7850   5
  -9  -1   5 127.997 6.50381   8
   9  -1  -5 132.138 7.10804  11
   9  -1  -5 127.719 7.01442   1
  -9  -1   5 116.566 5.93565   5
   9  -1  -5 132.322 8.31089  13
  -9  -1   5 128.731 6.58462  12
   9  -1  -5 130.588 6.15738   6
  -9   1   5 125.047 6.29637  12
  -9   1   5 122.249 6.24016   5
   9   1  -5 111.665 7.36351  13
   9   1  -5 119.889 6.11674   6
   9   1  -5 126.392 7.24708   1
  -9   1   5 123.420 6.06746   8
   9   1  -5 130.633 7.41360  11
  -9   1   5 121.288 6.84072   3
  -7  -1   5 2058.35 43.0017   1
   7  -1  -5 2152.26 42.4929   6
   7  -1  -5 2119.84 44.1699   1
   7  -1  -5 2098.26 46.5636  13
  -7  -1   5 2126.15 42.7591  12
   7   1  -5 2145.48 44.6065   1
  -7   1   5 2111.61 42.6708   1
  -7   1   5 2052.98 43.1974   3
   7   1  -5 2129.44 43.2605  11
   7   1  -5 2154.49 42.5737   6
   7   1  -5 2080.05 46.0090  13
  -7   1   5 2159.09 42.5829  12
  -5  -1   5 489.855 12.3858   1
  -5  -1   5 447.882 10.7903   6
  -5  -1   5 479.545 11.7815  12
   5  -1  -5 469.159 10.3852  14
   5  -1  -5 481.333 11.3968   6
  -5  -1   5 470.210 11.3586   9
   5  -1  -5 484.027 12.7908   1
   5  -1  -5 477.785 14.0227  13
   5   1  -5 474.283 11.5209   4
  -5   1   5 465.252 11.6399   9
  -5   1   5 457.539 11.4081  12
  -5   1   5 474.517 12.0847   1
   5   1  -5 452.555 11.1327   6
   5   1  -5 480.926 12.8382   1
   5   1  -5 468.491 11.2175  11
   5   1  -5 485.249 14.0437  13
   5   1  -5 474.305 10.3027  14
  -5   1   5 453.466 11.4060   3
   3  -1  -5 3550.08 66.7949  13
   3  -1  -5 3465.46 64.0416  14
   3  -1  -5 3262.20 63.3319   6
  -3  -1   5 3456.41 63.7165   6
   3  -1  -5 3402.95 65.1400   1
  -3  -1   5 3404.32 64.3318  12
   3  -1  -5 3390.87 63.2475   2
  -3  -1   5 3323.36 64.9076   1
  -3  -1   5 3442.48 68.4983  10
  -3  -1   5 3480.68 63.7924   9
  -3   1   5 3440.38 64.2580  12
  -3   1   5 3420.77 64.3010   9
  -3   1   5 3428.24 69.0350  10
   3   1  -5 3397.05 64.3970   4
   3   1  -5 3389.36 64.1695  11
  -3   1   5 3338.38 63.5980   6
   3   1  -5 3350.10 63.7371   2
  -3   1   5 3301.55 64.3325   3
   3   1  -5 3402.79 64.7914   1
  -3   1   5 3469.06 65.1022   1
   3   1  -5 3455.48 66.8746  13
   3   1  -5 3313.24 64.0070  14
   1  -1  -5 1260.56 26.0241   2
   1  -1  -5 1304.52 25.9860   4
  -1  -1   5 1315.41 25.0680   6
   1  -1  -5 1288.88 25.9488   1
  -1  -1   5 1260.01 25.6204   9
  -1  -1   5 1276.37 26.1021   1
   1  -1  -5 1262.39 26.6985   8
  -1  -1   5 1304.91 26.3100  12
   1  -1  -5 1325.98 27.4361  13
  -1  -1   5 1305.40 30.2030  10
   1  -1  -5 1308.21 26.2077  14
   1   1  -5 1259.37 26.1087   7
  -1   1   5 1288.44 26.6039   1
   1   1  -5 1227.75 25.1234   1
  -1   1   5 1278.98 25.3615   6
   1   1  -5 1288.59 26.1721   4
  -1   1   5 1278.22 26.1347  12
  -1   1   5 1312.36 30.7481  10
  -1   1   5 1287.27 26.2007   9
   1   1  -5 1269.18 26.3539  14
   1   1  -5 1254.65 26.1667   2
   1  -1   5 2103.87 46.7642  10
   1  -1   5 2080.69 40.1196   1
   1  -1   5 2120.14 38.9504   6
   1  -1   5 1990.63 40.8062   9
  -1  -1  -5 2052.58 40.9695  14
  -1  -1  -5 2055.44 40.2477   4
  -1  -1  -5 2029.08 42.3288   8
  -1  -1  -5 2057.95 41.3123   2
  -1   1  -5 2117.45 41.6323   2
  -1   1  -5 2121.95 40.4123   7
   1   1   5 2031.50 40.9859   1
  -1   1  -5 2100.46 41.3899  14
  -1   1  -5 2115.08 42.5608   8
   1   1   5 2088.85 47.2794  10
   1   1   5 2075.14 41.4869   9
  -1   1  -5 2090.89 40.8126   4
   1   1   5 2129.47 39.8837   6
  -3  -1  -5 869.920 20.1741   2
   3  -1   5 881.965 18.1164   1
  -3  -1  -5 857.296 21.7000   8
  -3  -1  -5 847.185 19.4438  14
   3  -1   5 858.996 17.0297   6
   3  -1   5 880.506 26.3785  10
  -3  -1  -5 832.794 20.3584   5
  -3  -1  -5 862.947 18.3367   4
  -3   1  -5 863.968 19.1184   4
   3   1   5 867.266 18.3684   6
  -3   1  -5 886.441 20.2477   2
  -3   1  -5 850.932 20.7678   5
  -3   1  -5 925.304 21.9575   8
  -3   1  -5 843.544 19.7183  14
   3   1   5 867.912 26.7878  10
   3   1   5 839.793 19.3311   1
   5  -1   5 693.212 14.6831   6
  -5  -1  -5 684.347 16.7804  14
  -5  -1  -5 690.080 19.6905   8
  -5  -1  -5 690.157 17.7794   2
  -5  -1  -5 688.094 18.5572   5
   5   1   5 667.163 16.6152   1
   5   1   5 697.146 16.0285   6
  -5   1  -5 683.797 17.6217   2
  -5   1  -5 657.098 18.5820   5
  -5   1  -5 682.206 16.8628  14
  -5   1  -5 717.930 19.8513   8
   7  -1   5 363.367 9.67825   6
  -7  -1  -5 355.540 11.9503   2
  -7  -1  -5 359.640 13.9439   8
  -7  -1  -5 364.684 13.1368   5
   7   1   5 375.664 10.8376   6
  -7   1  -5 359.734 11.8540   2
  -7   1  -5 359.593 13.7598   8
  -7   1  -5 353.979 13.3019   5
 -12  -2   5 219.880 10.2538   8
  12  -2  -5 242.579 11.5774  11
  12  -2  -5 211.585 9.34142   6
 -12   2   5 217.685 10.1201   5
  12   2  -5 216.246 11.1390   1
  12   2  -5 221.945 12.4197  11
  10  -2  -5 488.247 15.4327   1
  10  -2  -5 427.174 17.2247  13
  10  -2  -5 458.234 15.4062  11
  10  -2  -5 463.379 13.8231   6
 -10  -2   5 479.735 13.8609   5
 -10  -2   5 477.574 15.1240   8
  10   2  -5 471.898 16.2264   1
 -10   2   5 458.255 15.4984   3
  10   2  -5 473.170 14.5392   6
 -10   2   5 487.102 14.6797   5
  10   2  -5 482.572 16.4993  11
  -8  -2   5 524.759 14.4658  12
   8  -2  -5 521.592 15.2210   1
   8  -2  -5 520.256 17.8516  13
  -8  -2   5 530.934 14.5819   1
   8  -2  -5 531.021 13.9304   6
   8   2  -5 528.304 14.2662   6
   8   2  -5 540.513 15.3661  11
   8   2  -5 500.720 16.4892  13
  -8   2   5 539.954 14.0318  12
  -8   2   5 537.925 14.2639   5
  -8   2   5 519.009 15.1491   3
  -8   2   5 532.084 13.5909   8
   8   2  -5 513.017 15.8724   1
   6  -2  -5 932.604 21.9693   1
  -6  -2   5 935.016 21.3965   1
  -6  -2   5 946.261 20.8456  12
   6  -2  -5 949.336 24.1451  13
   6  -2  -5 925.486 20.3043   6
  -6   2   5 946.161 20.8523   9
  -6   2   5 917.955 21.0139   3
   6   2  -5 929.184 20.7213  11
   6   2  -5 890.789 20.0949   6
   6   2  -5 923.554 20.0010   4
  -6   2   5 925.752 20.2146  12
  -6   2   5 903.930 20.6252   1
   6   2  -5 914.914 23.2950  13
   6   2  -5 922.685 22.2093   1
   4  -2  -5 1201.17 22.7181   2
   4  -2  -5 1151.14 24.0495   6
  -4  -2   5 1159.43 23.9481   6
   4  -2  -5 1212.53 23.9984  14
   4  -2  -5 1163.11 25.6634   1
  -4  -2   5 1201.56 24.7031  12
   4  -2  -5 1196.04 27.2012  13
  -4  -2   5 1189.01 25.3768   1
  -4  -2   5 1191.02 28.4941  10
  -4  -2   5 1193.24 23.8303   9
  -4   2   5 1164.06 24.2051   3
   4   2  -5 1213.48 27.3342  13
   4   2  -5 1204.29 25.5460   1
  -4   2   5 1192.23 28.9983  10
   4   2  -5 1141.24 23.7798  14
   4   2  -5 1182.69 23.9108   6
  -4   2   5 1135.89 23.6310   6
   4   2  -5 1188.80 23.7335  11
   4   2  -5 1194.38 24.6585   4
  -4   2   5 1215.61 24.7888   9
  -4   2   5 1220.31 25.3425   1
  -4   2   5 1173.55 24.2523  12
   2  -2  -5 952.961 21.1747  13
  -2  -2   5 950.762 18.8781   6
  -2  -2   5 884.195 19.6511   1
   2  -2  -5 927.007 20.1496   1
   2  -2  -5 934.340 19.5558  14
  -2  -2   5 928.871 22.8742  10
  -2  -2   5 904.684 18.6154   9
   2  -2  -5 917.222 19.0031   2
  -2  -2   5 923.222 19.6365  12
   2   2  -5 934.092 19.6561   2
   2   2  -5 919.695 19.8084  14
   2   2  -5 931.886 19.8257   4
  -2   2   5 935.719 19.8182   9
  -2   2   5 930.914 18.6419   3
  -2   2   5 934.557 20.3331   1
   2   2  -5 899.025 17.6695  11
  -2   2   5 935.107 23.6592  10
  -2   2   5 901.674 18.9708   6
  -2   2   5 920.781 19.3959  12
   2   2  -5 910.275 19.2567   1
   2   2  -5 903.531 20.2788   7
   0  -2   5 1015.52 22.1161  12
   0  -2  -5 1054.30 22.2269   2
   0  -2   5 1059.02 20.3216   6
   0  -2   5 1031.90 21.3505   1
   0  -2  -5 1064.53 22.1855  14
   0  -2  -5 995.287 20.2475   7
   0  -2   5 1027.62 21.4584   9
   0  -2   5 1051.71 25.9976  10
   0  -2  -5 1040.93 22.8232   8
   0  -2  -5 1009.12 21.7259   1
   0  -2  -5 1063.40 21.6294   4
   0  -2  -5 1079.73 22.5383  13
   0   2  -5 1055.55 23.2205   8
   0   2  -5 1041.62 22.1458   7
   0   2   5 1086.66 22.6306   9
   0   2  -5 1034.55 22.4646   2
   0   2   5 959.297 21.7057  11
   0   2  -5 1074.02 22.3542   4
   0   2   5 1033.62 21.3476   6
   0   2   5 1055.40 22.6650   1
   0   2  -5 1097.97 22.7498  14
   0   2   5 1066.53 27.0334  10
   2  -2   5 457.080 8.92064   6
  -2  -2  -5 449.686 12.0978   2
  -2  -2  -5 457.934 11.6934  14
   2  -2   5 442.875 10.0891   1
  -2  -2  -5 432.731 10.5589   4
  -2  -2  -5 453.598 13.2431   8
   2  -2   5 436.456 15.9767  10
   2  -2   5 437.021 8.86077   6
   2   2   5 463.581 12.2153   1
   2   2   5 465.844 11.0813   6
  -2   2  -5 447.030 11.5963   4
  -2   2  -5 455.858 12.6104   5
  -2   2  -5 480.703 13.2917   8
  -2   2  -5 462.268 12.1081  14
  -2   2  -5 454.893 11.6412   7
  -2   2  -5 456.703 12.2918   2
   2   2   5 460.564 17.1105  10
   2   2   5 466.525 12.6131   9
  -4  -2  -5 313.920 10.4404   5
   4  -2   5 298.654 14.2386  10
  -4  -2  -5 311.306 9.42279  14
  -4  -2  -5 307.677 10.1196   2
  -4  -2  -5 317.498 11.4480   8
   4  -2   5 323.539 6.75354   6
  -4   2  -5 329.713 11.5396   8
   4   2   5 317.374 15.5926  10
  -4   2  -5 328.362 11.1563   5
  -4   2  -5 324.102 9.87490  14
  -4   2  -5 323.239 10.2184   2
   4   2   5 330.027 10.0883   1
  -4   2  -5 313.732 9.29813   4
   4   2   5 323.126 9.14659   6
  -6  -2  -5 185.248 8.11096   2
  -6  -2  -5 192.545 8.67212   5
   6  -2   5 196.130 5.44003   6
  -6  -2  -5 203.461 9.89927   8
   6   2   5 199.808 7.42694   6
  -6   2  -5 201.617 9.40756   5
   6   2   5 195.983 7.80392   1
  -6   2  -5 187.102 7.70127   2
  -6   2  -5 188.597 9.06020   8
  -8  -2  -5 79.4037 5.38798   2
  -8  -2  -5 77.8776 7.05663   8
   8  -2   5 74.3580 3.61860   6
   8   2   5 65.4928 6.42844   9
   8   2   5 73.8204 4.83881   6
  -8   2  -5 74.1266 6.06494   5
  -8   2  -5 71.7876 6.33543   8
 -11  -3   5 178.275 9.40314   8
  11  -3  -5 182.065 9.71299  11
  11  -3  -5 186.087 9.07092   1
  11  -3  -5 183.786 7.98744   6
 -11   3   5 174.312 9.68196   3
 -11   3   5 173.949 8.96782   5
  11   3  -5 187.932 10.0311   1
  11   3  -5 205.064 11.1881  11
   9  -3  -5 848.445 26.0621  13
  -9  -3   5 860.753 20.7230   5
  -9  -3   5 885.939 22.8056   8
  -9  -3   5 900.274 22.5073  12
   9  -3  -5 888.618 21.2785   6
   9  -3  -5 876.832 22.6283   1
   9   3  -5 904.440 24.0452  11
  -9   3   5 864.667 23.1725   3
   9   3  -5 902.193 24.3877   1
  -9   3   5 912.820 21.3925  12
  -9   3   5 895.154 22.0800   5
   9   3  -5 865.778 21.7522   6
  -7  -3   5 637.991 16.1694  12
   7  -3  -5 609.219 19.3989  13
   7  -3  -5 630.731 17.0190   1
  -7  -3   5 664.830 17.0233   1
   7  -3  -5 664.917 15.8001   6
   7   3  -5 643.542 16.7449  11
  -7   3   5 621.882 14.6778   8
   7   3  -5 626.511 15.6603   6
  -7   3   5 644.878 16.8580   3
  -7   3   5 642.284 15.3619  12
  -7   3   5 617.205 16.0488   9
   7   3  -5 637.032 17.8160   1
  -5  -3   5 2555.87 49.9717   1
  -5  -3   5 2483.17 48.8109  12
   5  -3  -5 2494.59 52.3489  13
   5  -3  -5 2504.41 48.4810   6
   5  -3  -5 2520.28 50.2781   1
  -5  -3   5 2478.13 48.0157   6
   5  -3  -5 2465.00 47.5921  14
   5   3  -5 2525.64 48.6285  11
  -5   3   5 2500.49 49.1344   1
  -5   3   5 2531.25 49.0326   9
   5   3  -5 2446.92 47.4254  14
   5   3  -5 2444.89 50.1942   1
   5   3  -5 2456.29 48.5399   4
  -5   3   5 2477.17 49.0880   3
  -5   3   5 2507.10 48.0821  12
  -5   3   5 2497.06 54.1184  10
  -3  -3   5 1181.47 25.0380   1
   3  -3  -5 1178.55 24.2012  14
  -3  -3   5 1160.13 24.2775  12
  -3  -3   5 1155.61 22.9461   9
   3  -3  -5 1171.04 23.0315   2
  -3  -3   5 1166.72 27.4482  10
   3  -3  -5 1208.03 26.7172  13
   3  -3  -5 1179.42 25.5643   1
   3  -3  -5 1131.79 23.7401   6
  -3  -3   5 1148.07 23.6689   6
  -3   3   5 1192.98 24.6653   9
  -3   3   5 1160.81 23.8323  12
   3   3  -5 1198.61 25.7698   7
  -3   3   5 1171.00 28.5787  10
   3   3  -5 1181.18 23.3144  11
  -3   3   5 1179.14 24.0046   3
   3   3  -5 1208.72 24.8652   4
  -3   3   5 1174.23 25.2098   1
   3   3  -5 1164.94 24.3809  14
  -3   3   5 1162.83 23.6659   6
   3   3  -5 1161.16 24.6180   1
  -1  -3   5 3030.92 56.7584   9
  -1  -3   5 2887.94 57.7113   1
  -1  -3   5 3041.39 58.1093  12
   1  -3  -5 2923.01 58.6196   1
   1  -3  -5 3023.88 58.3039   8
  -1  -3   5 3042.92 61.6294  10
   1  -3  -5 3036.44 58.2096  14
  -1  -3   5 3117.90 56.8212   6
   1  -3  -5 2990.02 57.8609   2
   1  -3  -5 3118.01 59.2231  13
  -1   3   5 3024.92 57.8466  12
   1   3  -5 3056.50 58.8102  14
   1   3  -5 3138.91 58.8219   4
  -1   3   5 3118.71 63.6377  10
  -1   3   5 3080.08 58.5815   9
   1   3  -5 3037.22 58.9121   7
   1   3  -5 3021.98 58.5388   2
  -1   3   5 3054.46 57.6294   6
  -1   3   5 3029.92 59.1912   1
  -1  -3  -5 362.099 9.79539  14
  -1  -3  -5 341.260 9.36308   1
  -1  -3  -5 360.142 9.00217   4
   1  -3   5 342.743 7.42394   6
  -1  -3  -5 359.919 10.0032   2
  -1  -3  -5 367.437 10.8212   8
   1  -3   5 360.137 7.49772   6
   1  -3   5 349.178 8.42000   1
   1  -3   5 379.896 9.29975   9
   1  -3   5 405.840 13.5503  10
  -1   3  -5 365.164 10.3199  14
  -1   3  -5 366.725 10.1874   4
   1   3   5 336.181 8.78329  11
   1   3   5 347.657 13.7228  10
   1   3   5 364.556 9.42288   6
  -1   3  -5 375.252 10.9954   8
  -1   3  -5 359.242 10.3668   5
   1   3   5 369.060 10.5178   9
   1   3   5 353.872 10.4993   1
  -1   3  -5 350.463 8.59691   3
  -1   3  -5 347.749 10.0772   7
  -1   3  -5 357.713 10.2834   2
  -3  -3  -5 1660.53 33.8867  14
   3  -3   5 1587.07 40.2681  10
  -3  -3  -5 1650.85 34.5155   2
  -3  -3  -5 1615.58 36.0844   8
   3   3   5 1602.18 42.2654  10
   3   3   5 1630.35 33.5686   6
  -3   3  -5 1659.54 33.7282   3
   3   3   5 1636.20 35.4716   9
  -3   3  -5 1637.63 34.4931   7
   3   3   5 1633.80 35.1316   1
  -3   3  -5 1691.34 34.8184   2
  -3   3  -5 1599.67 35.2331   5
  -3   3  -5 1641.35 34.5169  14
  -3   3  -5 1653.21 36.0133   8
  -3   3  -5 1628.47 34.0986   4
  -5  -3  -5 68.8411 4.18741  14
  -5  -3  -5 70.3954 4.94254   2
   5  -3   5 64.9263 1.91082   6
  -5  -3  -5 86.1486 6.35899   8
   5   3   5 81.0112 4.59919   6
  -5   3  -5 67.3038 4.36760  14
  -5   3  -5 67.8048 5.51425   8
  -5   3  -5 70.3810 4.63506   2
  -5   3  -5 68.0417 5.16073   5
   5   3   5 65.0499 5.45797   9
   5   3   5 68.0744 4.74879   1
   7  -3   5 773.997 16.1226   6
  -7  -3  -5 781.548 20.5655   2
  -7  -3  -5 764.864 23.0921   8
   7   3   5 781.642 22.7763   9
   7   3   5 802.992 20.0477   6
  -7   3  -5 750.986 21.7150   5
  12  -4  -5 2.56491 2.25148   1
  12  -4  -5 -1.3983 1.61413   6
 -12  -4   5 4.37868 2.91999   8
  12  -4  -5 3.48283 3.23469  11
 -12   4   5 1.06984 2.67522   5
  12   4  -5 2.60688 2.91529   1
 -12   4   5 3.15836 2.99258   3
  12   4  -5 6.97444 4.36724  11
  10  -4  -5 46.4769 4.65426   1
 -10  -4   5 52.8049 5.40370   8
  10  -4  -5 40.9620 6.07449  13
  10  -4  -5 48.8552 4.20693   6
 -10   4   5 54.6577 5.44393   5
 -10   4   5 49.0817 5.28859   3
  10   4  -5 46.0427 6.12463  11
  10   4  -5 47.8334 5.71605   1
  -8  -4   5 3.70521 1.86293  12
   8  -4  -5 3.62158 2.50976  13
  -8   4   5 3.53355 2.02521   3
  -8   4   5 3.65540 1.85700   5
  -8   4   5 4.93481 1.63184  12
  -6  -4   5 76.9635 4.14984  12
   6  -4  -5 72.9347 5.96246  13
   6  -4  -5 72.9011 4.72724   1
   6  -4  -5 73.1690 3.99639   6
  -6  -4   5 75.8726 4.82933   1
  -6   4   5 72.6830 4.10553   9
  -6   4   5 75.9647 4.52100   3
   6   4  -5 73.8180 4.35241  11
   6   4  -5 73.3326 5.15973   7
   6   4  -5 72.7776 3.69647   4
  -6   4   5 72.6377 3.59657  12
  -6   4   5 75.5476 3.99023   1
   6   4  -5 74.3888 4.96728   1
  -4  -4   5 128.033 4.97401  12
  -4  -4   5 129.885 4.71557   6
   4  -4  -5 126.394 4.76830   6
  -4  -4   5 122.287 5.57354   1
   4  -4  -5 130.674 5.90796   1
   4  -4  -5 134.055 6.81300  13
  -4   4   5 132.656 7.33235  10
  -4   4   5 126.870 5.08364   9
  -4   4   5 124.378 5.09993   3
   4   4  -5 124.900 5.44264   1
   4   4  -5 125.597 4.77991  14
   4   4  -5 137.037 5.32677   4
   4   4  -5 132.694 6.14878   7
   4   4  -5 136.417 4.92926  11
  -4   4   5 127.746 4.41916  12
  -4   4   5 127.753 5.32911   1
   2  -4  -5 57.9694 2.76986   6
  -2  -4   5 52.4508 3.83920  10
  -2  -4   5 53.6661 2.68130   6
   2  -4  -5 56.6371 3.85983  13
   2  -4  -5 55.6935 3.48608   1
   2  -4  -5 50.0691 2.59412   2
  -2  -4   5 55.1638 2.95464  12
  -2  -4   5 54.4757 3.17975   1
   2   4  -5 56.9027 3.36728  14
   2   4  -5 58.4769 3.59092   4
  -2   4   5 49.5524 3.05786   9
  -2   4   5 55.4956 3.03614   3
   2   4  -5 59.4498 2.65049  11
  -2   4   5 54.7553 2.84247  12
  -2   4   5 54.8770 2.81777   6
   2   4  -5 54.8138 2.76370   1
   2   4  -5 55.1826 3.56705   7
  -2   4   5 53.8345 4.70876  10
  -2   4   5 52.6673 3.53116   1
   0  -4   5 420.032 9.19897   6
   0  -4   5 409.445 13.1984  10
   0  -4  -5 390.946 10.9719   8
   0  -4  -5 423.619 10.9959  13
   0  -4  -5 414.025 10.9137  14
   0  -4   5 401.933 9.98415   1
   0  -4  -5 419.745 11.2935   1
   0  -4   5 405.473 10.1219   9
   0  -4   5 415.882 10.6760  12
   0  -4  -5 417.071 10.8327   2
   0   4  -5 430.159 11.5424   4
   0   4  -5 417.262 11.3340   2
   0   4   5 409.134 11.8746   1
   0   4   5 430.994 15.0967  10
   0   4  -5 421.825 11.7232   7
   0   4   5 408.585 11.2076   9
   0   4   5 411.419 10.4720   6
   0   4   5 398.973 9.98805  11
   0   4  -5 420.755 11.6258  14
   2  -4   5 190.395 3.87351   6
   2  -4   5 187.963 9.37374  10
  -2  -4  -5 202.030 6.27923   4
  -2  -4  -5 191.271 7.08455   2
  -2  -4  -5 184.835 7.70659   8
   2  -4   5 189.283 3.87726   6
  -2  -4  -5 214.375 7.11889  14
  -2   4  -5 193.321 7.30000   2
   2   4   5 199.844 7.68854   9
  -2   4  -5 188.427 7.44130   5
  -2   4  -5 195.320 7.36299  14
  -2   4  -5 184.083 7.52876   8
   2   4   5 181.978 7.64387   1
   2   4   5 192.143 10.8352  10
   2   4   5 185.560 6.56295  11
  -2   4  -5 194.863 7.50163   7
  -2   4  -5 202.317 7.42961   4
  -2   4  -5 186.858 6.17947   3
   2   4   5 195.974 6.79921   6
   4  -4   5 162.686 9.97021  10
  -4  -4  -5 182.653 8.67467   8
  -4  -4  -5 173.159 6.83564  14
  -4  -4  -5 181.509 7.58694   2
   4   4   5 172.432 8.21434   9
  -4   4  -5 172.999 8.12027   8
  -4   4  -5 185.486 7.52342   2
  -4   4  -5 182.100 7.26076  14
  -4   4  -5 179.564 7.75005   7
   4   4   5 177.019 7.07071   6
  -4   4  -5 173.222 8.10307   5
   4   4   5 189.153 8.17402   1
  -4   4  -5 178.007 7.10018   3
  -4   4  -5 176.386 7.14610   4
   6  -4   5 231.545 4.92206   6
  -6  -4  -5 235.283 9.56206   2
  -6  -4  -5 227.937 10.9722   8
   6   4   5 234.330 9.02087   6
   6   4   5 226.892 9.71152   1
   6   4   5 213.062 10.3351   9
  -6   4  -5 223.855 10.2094   5
  -6   4  -5 225.718 10.0467   8
  11  -5  -5 562.340 16.1333   6
 -11  -5   5 547.742 18.3651   8
  11  -5  -5 540.240 17.1823   1
  11   5  -5 585.206 20.4528  11
  11   5  -5 559.065 19.5626   1
 -11   5   5 542.010 18.1788   3
 -11   5   5 574.964 17.7141   5
   9  -5  -5 287.830 10.9914   1
   9  -5  -5 274.000 13.8315  13
   9  -5  -5 297.551 10.1053   6
  -9  -5   5 276.080 11.3404   8
   9   5  -5 294.319 12.0235   7
  -9   5   5 285.145 11.5665   3
   9   5  -5 297.574 12.3904  11
   9   5  -5 299.279 12.7513   1
  -9   5   5 303.451 10.9269   5
  -7  -5   5 807.315 21.0850   1
   7  -5  -5 849.480 19.7573   6
   7  -5  -5 847.801 21.2320   1
  -7  -5   5 813.872 20.0723  12
   7  -5  -5 814.632 24.6082  13
  -7   5   5 812.062 19.6786   5
  -7   5   5 858.160 20.3756   9
  -7   5   5 810.951 21.1039   3
  -7   5   5 842.026 18.6402  12
   7   5  -5 847.812 22.4228   1
   7   5  -5 806.211 20.9011  11
   7   5  -5 801.726 21.9893   7
   5  -5  -5 417.475 12.4702   1
   5  -5  -5 406.859 10.8976   6
  -5  -5   5 389.431 10.5599   6
  -5  -5   5 404.384 12.3840   1
   5  -5  -5 399.397 14.0932  13
  -5  -5   5 386.136 10.9078  12
  -5   5   5 408.488 9.98402  12
   5   5  -5 396.712 12.1504   1
   5   5  -5 433.453 12.9547   7
   5   5  -5 394.493 11.2452  11
  -5   5   5 409.831 11.2860   1
  -5   5   5 415.495 11.3776   9
  -5   5   5 413.282 11.7874   3
   5   5  -5 385.739 10.8959   4
   3  -5  -5 1373.35 27.1482   2
  -3  -5   5 1355.53 28.1501  12
  -3  -5   5 1356.86 29.5654   1
   3  -5  -5 1432.88 31.5226  13
   3  -5  -5 1327.22 28.1403   6
   3  -5  -5 1410.07 30.3523   1
  -3  -5   5 1400.05 28.1330   6
  -3   5   5 1327.85 32.6188  10
   3   5  -5 1386.77 29.4404   4
  -3   5   5 1369.33 28.8286   9
   3   5  -5 1349.45 28.9233  14
   3   5  -5 1390.37 30.4790   7
  -3   5   5 1388.39 29.0354   3
   3   5  -5 1367.02 28.1897  11
  -3   5   5 1383.96 29.6830   1
  -1  -5   5 844.672 20.8350  10
   1  -5  -5 822.852 18.6740   8
  -1  -5   5 897.232 19.4473   1
   1  -5  -5 859.135 18.9706   2
   1  -5  -5 871.076 20.5559   1
  -1  -5   5 857.323 18.1060   6
   1  -5  -5 876.509 20.4001  13
  -1  -5   5 842.798 18.7656  12
   1   5  -5 898.221 20.6822   4
   1   5  -5 853.964 20.7169   7
  -1   5   5 850.468 18.5281  12
   1   5  -5 877.852 20.2577  14
  -1   5   5 891.800 19.8827   9
  -1   5   5 838.520 18.8591   6
  -1   5   5 884.914 23.8867  10
  -1   5   5 871.237 20.7352   1
  -1  -5  -5 1359.61 30.2109   8
  -1  -5  -5 1436.02 29.7308   2
   1  -5   5 1346.72 32.7523  10
   1  -5   5 1371.02 29.0465  12
   1  -5   5 1398.04 26.8768   6
  -1  -5  -5 1422.94 29.7680  14
   1  -5   5 1358.98 27.7801   1
  -1  -5  -5 1357.09 29.9166   1
   1   5   5 1377.19 35.4777  10
   1   5   5 1469.33 30.5638   9
  -1   5  -5 1418.50 30.7006   4
  -1   5  -5 1409.90 30.0439   5
   1   5   5 1428.88 31.5030   1
   1   5   5 1406.38 29.4108   6
   1   5   5 1348.36 29.1229  11
  -1   5  -5 1408.05 30.6633  14
  -1   5  -5 1417.49 31.0566   7
  -3  -5  -5 809.684 19.7605   2
  -3  -5  -5 791.319 19.1585  14
  -3  -5  -5 802.404 21.1388   8
   3   5   5 818.475 20.8280   9
  -3   5  -5 838.167 20.2578   4
   3   5   5 756.309 19.5070  11
  -3   5  -5 824.456 20.1580  14
  -3   5  -5 798.951 20.4343   5
   3   5   5 786.143 19.4128   6
  -3   5  -5 793.420 20.6123   7
  -3   5  -5 807.612 19.9292   2
   3   5   5 786.475 26.7093  10
   3   5   5 823.413 21.4311   1
  -5  -5  -5 674.732 20.4691   8
  -5  -5  -5 669.836 17.4095  14
  -5  -5  -5 684.053 18.6697   2
   5   5   5 685.949 18.3227   6
  -5   5  -5 683.220 18.2616  14
  -5   5  -5 715.874 19.8692   5
   5   5   5 675.310 20.0357   9
  -5   5  -5 676.580 19.3007   8
  -5   5  -5 725.251 19.8334   7
  -5   5  -5 683.462 18.1405   2
   5   5   5 695.281 19.9866   1
  -5   5  -5 725.781 18.4053   4
  -7  -5  -5 267.376 12.1641   8
  -7  -5  -5 270.530 10.8594   2
   7   5   5 267.650 11.4063   1
   7   5   5 284.515 10.7637   6
   7   5   5 271.117 12.4359   9
  -7   5  -5 258.580 11.5219   5
  10  -6  -5 5.94463 2.44442   1
 -10  -6   5 5.91343 3.02308   8
  10  -6  -5 7.69258 2.12544   6
  10   6  -5 4.05399 2.78799  11
 -10   6   5 5.15285 2.67488   5
 -10   6   5 8.27473 3.21509   3
  10   6  -5 8.44061 3.39246   1
   8  -6  -5 52.3497 4.65028   1
   8  -6  -5 48.8602 4.03033   6
  -8  -6   5 47.8674 4.96435   8
  -8  -6   5 49.5070 4.79680   1
   8  -6  -5 54.4556 6.62777  13
  -8  -6   5 53.0898 4.55140  12
  -8   6   5 49.1973 4.49067   3
   8   6  -5 59.8172 5.55125   7
   8   6  -5 51.2830 5.26338  11
   8   6  -5 49.8347 5.72097   1
  -8   6   5 51.1667 4.44938   5
  -6  -6   5 10.0027 2.05041  12
   6  -6  -5 6.91197 2.11850   1
   6  -6  -5 12.1802 2.01447   6
   6  -6  -5 6.63196 2.75783  13
  -6  -6   5 8.82837 2.18628   1
   6   6  -5 9.63206 2.46862  11
  -6   6   5 11.2373 2.19582   9
   6   6  -5 7.75929 2.22009   7
   6   6  -5 9.75705 2.53078   1
  -6   6   5 7.35186 2.25752   3
   4  -6  -5 23.7190 2.57126   6
  -4  -6   5 24.4360 2.32919  12
   4  -6  -5 26.1619 3.32321   1
  -4  -6   5 24.0345 2.21838   6
  -4  -6   5 25.9059 2.88560   1
   4   6  -5 26.4866 3.55166   7
  -4   6   5 25.8543 2.74111   1
   4   6  -5 25.8718 2.77198   1
  -4   6   5 23.9884 2.71569   9
  -4   6   5 23.5541 3.58055  10
   4   6  -5 32.7271 2.97455   4
  -4   6   5 36.5703 3.30724   3
   4   6  -5 28.0673 2.80151  11
  -2  -6   5 229.575 7.13481  12
   2  -6  -5 253.536 9.20003   1
  -2  -6   5 242.571 7.32682   6
   2  -6  -5 253.516 9.37862  13
   2  -6  -5 243.172 7.19580   2
  -2  -6   5 242.862 8.42536   1
   2   6  -5 255.589 9.26529   7
   2   6  -5 258.430 7.77185  11
  -2   6   5 242.684 6.78231  12
   2   6  -5 242.661 8.59066  14
   2   6  -5 263.148 8.88741   4
  -2   6   5 246.826 10.6243  10
  -2   6   5 288.253 8.90652   3
  -2   6   5 239.171 8.75936   1
  -2   6   5 263.061 8.36726   9
   0  -6  -5 34.1637 2.66781   2
   0  -6  -5 32.4044 3.25134   1
   0  -6   5 32.4575 2.55306   1
   0  -6   5 31.0448 2.17123   6
   0  -6  -5 31.0783 2.58021   8
   0  -6   5 32.6161 2.64398  12
   0  -6  -5 28.8520 2.62655  13
   0   6   5 35.7444 4.43923  10
   0   6  -5 31.0618 3.27477   7
   0   6   5 29.2502 3.61977   1
   0   6  -5 34.6811 3.22024  14
   0   6   5 33.7477 2.91919   9
   0   6   5 27.6130 2.54101   6
   0   6   5 28.3248 2.70464  11
   0   6  -5 34.7525 3.52292   4
   2  -6   5 265.035 6.47490   6
  -2  -6  -5 277.960 9.19058  14
  -2  -6  -5 273.522 9.21978   2
  -2  -6  -5 251.269 9.49466   8
  -2   6  -5 270.992 9.89014   4
  -2   6  -5 284.846 9.55306   5
  -2   6  -5 267.399 10.1264   7
  -2   6  -5 260.649 9.74581  14
   2   6   5 292.450 10.9851   1
   2   6   5 265.659 8.98352   6
   2   6   5 255.363 13.0368  10
   2   6   5 276.329 9.74465   9
   2   6   5 248.994 9.04632  11
  -4  -6  -5 155.037 7.21183   2
  -4  -6  -5 148.489 6.74978  14
  -4  -6  -5 153.773 8.32165   8
   4  -6   5 148.275 3.51333   6
  -4   6  -5 151.751 7.75372   5
   4   6   5 157.652 7.34054   6
  -4   6  -5 158.131 7.55593  14
  -4   6  -5 154.832 8.10109   7
  -4   6  -5 154.161 7.27657   4
   4   6   5 157.897 8.53893   1
   4   6   5 156.268 8.26035   9
  -6  -6  -5 73.5127 5.78234   2
  -6  -6  -5 81.2776 7.03947   8
   6   6   5 85.1281 5.87907   6
   6   6   5 79.2252 6.81835   9
  -6   6  -5 83.7822 6.57202   5
   6   6   5 77.7567 6.45278   1
   9  -7  -5 232.346 8.90591   6
  -9  -7   5 234.146 11.0090   8
   9  -7  -5 229.188 10.0167   1
   9   7  -5 243.821 11.7029   1
  -9   7   5 227.241 9.73331   5
   9   7  -5 229.118 11.3433  11
  -9   7   5 230.633 10.9358   3
  -7  -7   5 1098.93 26.0914  12
   7  -7  -5 1161.61 27.7615   1
   7  -7  -5 1106.23 25.6532   6
  -7  -7   5 1156.92 28.3391   1
   7  -7  -5 1099.71 31.6898  13
  -7   7   5 1123.69 26.1865   9
  -7   7   5 1108.07 27.7519   3
   7   7  -5 1127.20 28.8258   1
   7   7  -5 1103.03 28.4166   7
   7   7  -5 1117.77 27.7822  11
  -7   7   5 1109.25 25.7360   5
  -5  -7   5 660.358 18.5161   1
   5  -7  -5 705.133 21.4358  13
   5  -7  -5 693.389 18.7126   1
  -5  -7   5 659.930 16.4832   6
  -5  -7   5 647.951 16.3016  12
   5  -7  -5 689.025 16.9567   6
   5   7  -5 667.074 18.1728   1
   5   7  -5 673.587 17.5034  11
  -5   7   5 679.960 17.0363   9
   5   7  -5 632.011 16.6694   4
  -5   7   5 681.280 18.0704   3
   5   7  -5 664.555 18.8632   7
  -3  -7   5 1672.24 36.9181   1
  -3  -7   5 1762.91 35.3852   6
   3  -7  -5 1671.47 37.7375   1
   3  -7  -5 1738.67 39.1119  13
   3  -7  -5 1710.59 35.4671   6
   3   7  -5 1726.83 36.9319   4
  -3   7   5 1714.66 36.8002   3
  -3   7   5 1741.30 35.9084   9
   3   7  -5 1724.18 35.8765  11
  -3   7   5 1678.52 39.5021  10
   3   7  -5 1745.77 38.2243   7
   1  -7  -5 437.273 11.7636   2
  -1  -7   5 464.803 12.5563   1
   1  -7  -5 442.317 13.2733  13
  -1  -7   5 446.328 11.3779   6
   1  -7  -5 423.698 13.5634   1
   1   7  -5 430.291 13.9861   7
  -1   7   5 450.635 13.2831   3
  -1   7   5 456.379 12.6038   9
   1   7  -5 462.901 13.7984   4
  -1   7   5 430.827 13.5918   1
  -1   7   5 451.725 15.6067  10
  -1  -7  -5 1003.55 22.5526   2
   1  -7   5 933.511 19.9649   6
  -1  -7  -5 888.384 22.1958   8
   1  -7   5 967.324 20.9337   1
  -1  -7  -5 943.520 23.4472   1
  -1   7  -5 938.950 24.2544   7
   1   7   5 948.855 24.4084   1
  -1   7  -5 1010.03 24.0009  14
   1   7   5 927.900 22.5271  11
   1   7   5 971.252 22.9341   9
   1   7   5 941.629 27.6462  10
  -1   7  -5 967.466 23.9037   4
  -3  -7  -5 90.4189 5.33783   2
   3  -7   5 90.7525 3.25139   6
  -3  -7  -5 88.1163 5.89304   8
  -3  -7  -5 92.6872 5.19890  14
   3   7   5 89.7981 5.45813   6
  -3   7  -5 100.240 6.09060   5
   3   7   5 94.0682 6.51489   1
  -3   7  -5 87.0080 5.96742   4
   3   7   5 97.9668 6.29588   9
   3   7   5 84.1611 6.00661  11
  -3   7  -5 87.2399 6.32476   7
  -3   7  -5 91.8948 5.96577  14
  -5  -7  -5 459.327 13.9005  14
  -5  -7  -5 475.197 16.5582   8
   5  -7   5 482.670 10.0108   6
  -5  -7  -5 490.921 15.2403   2
  -5   7  -5 490.701 15.3298   4
  -5   7  -5 478.123 15.7542   5
  -5   7  -5 493.512 16.5994   7
   5   7   5 470.849 16.7053   1
   5   7   5 505.237 16.5450   9
   5   7   5 473.528 14.9421   6
  10  -8  -5 129.356 7.53937   1
 -10  -8   5 135.357 8.44368   8
  10  -8  -5 138.520 7.11060   6
 -10   8   5 125.718 7.29968   5
  10   8  -5 131.367 9.60378  11
 -10   8   5 139.960 8.47015   3
  10   8  -5 128.706 9.23920   1
  -8  -8   5 553.795 17.8132   1
   8  -8  -5 572.196 25.6151  13
  -8  -8   5 546.320 17.6576   8
   8  -8  -5 552.029 15.7046   6
   8  -8  -5 560.538 17.2761   1
  -8   8   5 548.493 16.0066   5
   8   8  -5 556.848 18.9625   1
   8   8  -5 555.013 18.1643  11
  -8   8   5 542.396 17.8659   3
   8   8  -5 546.445 18.0115   7
   6  -8  -5 356.337 12.7163   1
   6  -8  -5 347.100 11.2356   6
  -6  -8   5 356.636 13.1425   1
   6  -8  -5 361.237 15.6219  13
  -6   8   5 331.524 10.5182   5
  -6   8   5 339.504 12.2503   3
   6   8  -5 337.856 12.8634   7
  -6   8   5 333.461 11.0791   9
   6   8  -5 364.398 13.0543   1
   6   8  -5 342.920 12.2030  11
   4  -8  -5 358.487 12.5621   1
  -4  -8   5 370.480 11.0205   6
  -4  -8   5 366.586 12.6342   1
   4  -8  -5 370.201 14.2930  13
   4  -8  -5 361.764 11.1231   6
  -4   8   5 365.554 11.1388   9
   4   8  -5 370.300 13.2776   7
   4   8  -5 379.727 11.9931  11
  -4   8   5 355.646 12.1231   3
   4   8  -5 350.812 11.5122   4
   2  -8  -5 685.323 19.2785   1
  -2  -8   5 697.155 18.1641   1
   2  -8  -5 677.484 19.2763  13
  -2  -8   5 664.400 16.4757   6
  -2   8   5 684.729 18.4164   3
   2   8  -5 695.567 19.6314   7
   2   8  -5 678.802 17.3875  11
   2   8  -5 689.068 18.6809   4
  -2   8   5 668.229 16.9619   9
  -2   8   5 666.145 18.2777   1
   0  -8   5 126.295 5.73452   1
   0  -8  -5 128.458 7.18038   1
   0  -8   5 123.844 5.10336   6
   0  -8  -5 125.256 5.83263   2
   0   8   5 127.790 7.07695   1
   0   8   5 134.230 6.42745   9
   0   8  -5 124.239 7.51839   7
   0   8   5 113.189 6.13243  11
   0   8  -5 134.490 7.24925   4
  -2  -8  -5 285.389 10.4063  14
  -2  -8  -5 283.180 10.2490   2
   2  -8   5 289.094 8.02506   6
  -2   8  -5 302.451 12.1236   7
  -2   8  -5 304.761 11.6411   4
   2   8   5 280.614 10.6190   9
   2   8   5 274.063 11.9394   1
  -4  -8  -5 153.968 7.63744   2
  -4  -8  -5 147.097 8.25368   8
  -4  -8  -5 142.445 7.09204  14
   4  -8   5 143.231 4.68023   6
  -4   8  -5 146.850 8.61751   7
  -4   8  -5 152.458 8.38018   4
   4   8   5 150.417 9.27933   1
   4   8   5 147.228 8.19837   9
  -4   8  -5 154.045 7.72659   5
  -6  -8  -5 15.1154 3.05783   2
  -6  -8  -5 14.7342 3.80796   8
   6   8   5 14.2227 3.65375   9
  -6   8  -5 13.1899 3.39656   5
   6   8   5 19.5025 4.35879   1
   9  -9  -5 855.428 21.8421   6
   9  -9  -5 827.203 22.9240   1
  -9  -9   5 823.163 24.0867   8
   9   9  -5 805.619 24.7095  11
  -9   9   5 822.910 24.2042   3
  -9   9   5 826.257 21.9460   5
   7  -9  -5 6.82138 2.21175   1
   7  -9  -5 9.32776 2.45815   6
  -7  -9   5 7.57171 2.80952   8
  -7  -9   5 6.72873 2.89889   1
   7   9  -5 8.35378 2.66962  11
  -7   9   5 15.8895 3.78455   3
   7   9  -5 8.16193 2.92887   1
   7   9  -5 6.45212 2.81796   7
  -5  -9   5 962.987 25.5146   1
   5  -9  -5 942.259 25.0578   1
   5  -9  -5 931.080 28.0862  13
   5  -9  -5 953.459 23.0911   6
  -5   9   5 929.822 22.5652   9
   5   9  -5 956.872 24.2721  11
  -5   9   5 933.239 24.5175   3
   5   9  -5 937.130 25.7656   7
   3  -9  -5 24.7943 3.83048   1
  -3  -9   5 20.9558 2.81873   6
   3  -9  -5 25.0539 4.27814  13
  -3  -9   5 22.4735 3.69383   1
   3   9  -5 39.0635 5.15841   7
   3   9  -5 26.8421 3.71237   4
  -3   9   5 21.6634 3.34046   3
   3   9  -5 18.3520 3.13878  11
  -3   9   5 21.2544 2.87766   9
   1  -9  -5 1264.42 30.7634   1
  -1  -9   5 1222.95 27.1345   6
  -1  -9   5 1246.79 28.7308   1
   1   9  -5 1247.67 31.3539   7
  -1   9   5 1232.25 29.8928   3
  -1   9   5 1232.61 30.1865   1
   1   9  -5 1257.37 30.3268   4
  -1   9   5 1206.67 27.7867   9
  -1  -9  -5 206.924 9.45717   1
   1  -9   5 204.122 7.57685   1
   1  -9   5 208.384 7.12844   6
  -1  -9  -5 191.192 8.14373   2
   1   9   5 196.917 9.82581   1
   1   9   5 189.639 8.81240  11
  -1   9  -5 206.231 10.4249   7
   1   9   5 200.160 8.49494   9
  -1   9  -5 211.793 9.64442   4
  -3  -9  -5 1084.14 26.6470   2
   3  -9   5 1077.60 22.9810   6
  -3  -9  -5 1064.66 26.3016  14
  -3   9  -5 1073.16 29.4935   7
   3   9   5 1066.65 29.8249   1
  -3   9  -5 1109.79 28.5292   4
   5  -9   5 226.020 6.37400   6
  -5  -9  -5 219.560 10.0799   2
  -5   9  -5 213.618 10.8346   7
   5   9   5 235.200 12.1768   1
   5   9   5 181.792 11.0252   9
   8 -10  -5 22.9177 4.10195   1
  -8 -10   5 20.8055 3.92451   1
  -8 -10   5 16.1823 3.43991   8
   8 -10  -5 19.0197 2.98473   6
   8  10  -5 21.3069 4.75590  11
  -8  10   5 22.6485 4.48065   3
  -6 -10   5 8.04090 2.80636   8
   6 -10  -5 4.59326 2.63300   1
  -6 -10   5 12.6929 3.70434   1
   6 -10  -5 6.58906 2.36380   6
   6  10  -5 6.64386 3.03016   7
  -6  10   5 5.63822 2.49316   3
   6  10  -5 5.77378 3.04353  11
  -4 -10   5 2.04055 1.68743   6
  -4 -10   5 1.69484 2.10387   1
   4 -10  -5 1.04632 2.18981   1
   4 -10  -5 3.85488 2.86223  13
   4  10  -5 8.27917 3.20899   7
   4  10  -5 3.40551 2.48510  11
   4  10  -5 3.72576 1.99166   4
  -4  10   5 9.92029 2.70358   3
  -2 -10   5 50.2882 4.17328   6
   2 -10  -5 55.2722 5.73503   1
  -2 -10   5 57.5794 5.11515   1
   2  10  -5 54.0862 5.21319   4
   2  10  -5 55.9466 5.50951   7
  -2  10   5 54.2777 5.38021   3
   0 -10  -5 14.1615 2.59833   2
   0 -10   5 15.3642 2.77031   1
   0 -10  -5 13.7985 3.34241   1
   0 -10   5 11.4804 2.15784   6
   0  10   5 17.4112 3.66215   1
   0  10  -5 14.5773 3.90577   7
   0  10  -5 12.4988 3.29454   4
   0  10   5 12.3797 3.33486   3
   2 -10   5 40.9437 3.21866   6
  -2 -10  -5 37.5117 4.41764   2
   2  10   5 39.2361 5.41403   1
  -2  10  -5 40.9025 5.60384   7
   2  10   5 39.0211 5.00545  11
  -2  10  -5 53.7807 5.96360   4
  -4 -10  -5 9.48078 2.31654  14
   4 -10   5 8.36724 1.67337   6
  -4 -10  -5 5.22512 2.74460   2
  -4  10  -5 9.17107 3.75138   7
   4  10   5 8.26903 2.94893   1
  -7 -11   5 274.524 12.7047   1
   7 -11  -5 261.809 11.6188   1
  -7  11   5 273.471 12.5420   3
   7  11  -5 258.355 12.3729  11
  -5 -11   5 822.121 24.0558   1
   5 -11  -5 801.741 23.4455   1
  -5  11   5 768.966 22.6008   3
   5  11  -5 755.901 23.5862   7
   5  11  -5 781.095 22.4337  11
   3 -11  -5 449.022 16.3518   1
  -3 -11   5 452.577 13.7813   6
  -3 -11   5 445.575 15.7331   1
  -3  11   5 437.320 15.5657   3
   3  11  -5 407.569 14.8278   4
   1 -11  -5 466.950 16.9731   1
  -1 -11   5 467.846 15.3363   1
  -1 -11   5 471.725 13.9529   6
   1  11  -5 458.102 16.4022   4
   1  11  -5 442.591 17.0080   7
  -1  11   5 458.087 16.0902   3
   1 -11   5 181.670 9.59088   1
   1 -11   5 248.629 8.77842   6
  -1 -11  -5 237.310 9.72728   2
  -1 -11  -5 238.507 11.1674   1
  -1  11  -5 241.230 11.5540   4
   1  11   5 227.585 11.5525   3
   1  11   5 219.816 11.3062   1
  -1  11  -5 232.946 12.1540   7
  -3 -11  -5 100.469 6.88176  14
   3 -11   5 106.241 5.33057   6
  -3 -11  -5 100.358 6.45782   2
  -3  11  -5 106.592 8.78814   7
   3  11   5 102.478 8.09867   1
   4 -12  -5 178.433 10.1406   1
  -4 -12   5 185.223 10.1331   1
  -4  12   5 174.727 9.57431   3
   4  12  -5 169.920 9.99367   7
  -2 -12   5 44.6782 5.50956   1
   2 -12  -5 57.9061 6.77303   1
  -2 -12   5 49.0104 4.46365   6
  -2  12   5 57.8756 6.15121   3
   2  12  -5 44.0854 5.96718   7
   0 -12   5 270.697 9.98015   6
   0 -12  -5 288.799 13.0037   1
   0 -12   5 269.177 10.9623   1
   0  12  -5 262.176 13.5229   7
   0  12   5 274.954 12.8498   3
 -12   0   6 2.63003 2.27753   8
  12   0  -6 2.14795 3.16559  11
 -12   0   6 5.12481 2.65739   5
  12   0  -6 4.07345 2.39655   6
  12   0  -6 5.22124 2.36194   1
 -10   0   6 1563.66 35.6390  12
 -10   0   6 1585.52 35.2461   5
  10   0  -6 1603.09 35.5395   6
  10   0  -6 1614.50 37.8699   1
 -10   0   6 1601.40 35.8229   8
  -8   0   6 160.537 6.73049   1
   8   0  -6 160.045 7.00765  11
   8   0  -6 156.414 6.26698   4
   8   0  -6 154.076 8.69104  13
  -8   0   6 151.056 6.65644   3
   8   0  -6 156.559 6.46980   6
  -8   0   6 158.788 6.72114  12
   8   0  -6 158.197 7.79908   1
  -6   0   6 3748.99 70.6383   9
   6   0  -6 3676.61 74.7455  13
  -6   0   6 3458.85 69.4886   3
   6   0  -6 3681.49 70.1302   6
  -6   0   6 3795.76 71.6926   1
   6   0  -6 3713.93 72.5270   1
   6   0  -6 3657.82 70.6173   4
  -6   0   6 3716.50 70.7142  12
   6   0  -6 3664.15 69.8622  11
  -4   0   6 67.4672 5.44981  10
   4   0  -6 67.2278 2.42567  11
   4   0  -6 71.3074 3.59947   4
  -4   0   6 71.0860 3.23608   6
   4   0  -6 68.1638 3.24236  14
   4   0  -6 74.4055 4.88565  13
  -4   0   6 76.7223 4.08237   1
  -4   0   6 72.6309 3.72546  12
  -4   0   6 76.4222 3.59847   9
   4   0  -6 71.4624 3.97420   1
   2   0  -6 7969.77 155.102  14
   2   0  -6 7765.39 154.371   4
  -2   0   6 7835.14 152.385   6
   2   0  -6 7794.95 161.399  13
   2   0  -6 7627.16 146.569   2
  -2   0   6 8079.45 158.407  12
  -2   0   6 7458.20 153.288   1
   2   0  -6 7901.15 155.264   1
  -2   0   6 7908.91 146.607   9
  -2   0   6 7848.09 179.552  10
   0   0  -6 135.165 6.03628   8
   0   0   6 128.879 5.26228   9
   0   0  -6 130.397 5.38721   2
   0   0  -6 127.361 5.18901  14
   0   0  -6 119.573 4.30103   7
   0   0   6 123.351 4.97921   1
   0   0  -6 124.597 4.77851   4
   0   0   6 122.474 7.77219  10
   0   0   6 129.942 4.30716   6
  -2   0  -6 4836.37 91.4922   2
   2   0   6 4863.79 100.403  10
   2   0   6 4765.11 89.8977   1
   2   0   6 4766.34 93.8344   6
   2   0   6 4879.56 91.7904   9
  -2   0  -6 4749.50 90.7512  14
  -2   0  -6 4837.99 93.2504   8
  -2   0  -6 4490.28 89.5572   4
  -4   0  -6 46.9391 4.25959   5
  -4   0  -6 47.3762 4.96189   8
  -4   0  -6 49.1479 3.75944  14
  -4   0  -6 53.5761 4.35839   2
   4   0   6 53.1772 3.07800   6
   4   0   6 50.8870 4.24100   9
   4   0   6 55.2081 3.23530   1
   6   0   6 1220.13 29.9425   9
   6   0   6 1166.11 25.3179   6
  -6   0  -6 1174.73 29.6030   5
  -6   0  -6 1159.11 27.9819   2
  -6   0  -6 1179.75 30.6729   8
  11  -1  -6 2.32075 2.81796  11
  11  -1  -6 7.14322 2.53755   6
 -11  -1   6 3.53443 2.36459   8
 -11  -1   6 8.02347 2.57702   5
  11  -1  -6 8.70353 2.99766   1
  11   1  -6 6.69394 3.03153   1
  11   1  -6 7.08347 3.42454  11
  11   1  -6 6.28151 2.43748   6
 -11   1   6 5.11072 2.57530   5
   9  -1  -6 232.304 9.97727   1
   9  -1  -6 205.042 11.0599  13
   9  -1  -6 231.290 8.56800   6
   9  -1  -6 231.761 9.44674  11
  -9  -1   6 226.954 8.93649   8
  -9  -1   6 228.009 8.90402  12
   9   1  -6 228.796 9.54154  11
  -9   1   6 232.511 8.73497  12
   9   1  -6 215.973 10.8698  13
  -9   1   6 229.065 8.54229   8
   9   1  -6 230.961 8.76146   6
   9   1  -6 221.472 9.88892   1
  -9   1   6 223.911 8.54692   5
  -9   1   6 212.518 9.02097   3
   7  -1  -6 260.150 11.1582  13
   7  -1  -6 250.650 8.28822  11
  -7  -1   6 271.857 8.78598  12
   7  -1  -6 267.963 9.74410   1
   7  -1  -6 248.638 8.15431   6
  -7  -1   6 253.423 8.84550   1
   7   1  -6 252.079 9.70130   1
   7   1  -6 249.138 8.14295   6
   7   1  -6 254.598 10.8641  13
  -7   1   6 259.815 8.39806  12
   7   1  -6 254.190 8.43032  11
  -7   1   6 258.466 8.59367   9
  -7   1   6 243.186 8.26651   3
  -7   1   6 239.047 8.40652   1
   7   1  -6 260.592 8.12333   4
  -5  -1   6 33.3328 4.10382  10
  -5  -1   6 28.1335 2.10929   6
   5  -1  -6 32.5130 2.10077  14
  -5  -1   6 32.2404 2.41361   9
   5  -1  -6 31.3945 2.84817   1
   5  -1  -6 26.1892 2.02229   6
  -5  -1   6 30.9545 2.68614  12
   5  -1  -6 26.9848 3.22480  13
  -5  -1   6 31.1225 2.68065   1
  -5   1   6 35.2605 4.29018  10
  -5   1   6 31.3512 2.85891   1
   5   1  -6 32.1837 3.63585  13
  -5   1   6 29.9828 2.41714   9
  -5   1   6 32.9695 2.62404  12
   5   1  -6 29.7444 2.55640   4
   5   1  -6 28.5958 1.96595  14
  -5   1   6 28.8619 2.32354   6
   5   1  -6 31.8256 2.96790   1
  -5   1   6 29.0172 2.14445   3
   5   1  -6 33.2184 2.04705  11
  -3  -1   6 1027.09 21.9422  12
  -3  -1   6 1011.73 26.1569  10
  -3  -1   6 1032.11 21.2417   9
  -3  -1   6 1013.95 21.0221   6
   3  -1  -6 1007.11 23.8455  13
   3  -1  -6 1007.46 20.8616   2
   3  -1  -6 1007.51 22.3256   1
  -3  -1   6 969.824 22.1828   1
   3  -1  -6 1016.14 21.5664  14
  -3   1   6 988.393 20.9418   6
   3   1  -6 1026.91 24.2561  13
  -3   1   6 1006.32 21.7398   9
   3   1  -6 1035.28 21.3862   2
   3   1  -6 1003.03 21.6689  14
   3   1  -6 1024.06 22.0282   1
  -3   1   6 1025.70 21.8157  12
  -3   1   6 1027.68 26.6963  10
  -3   1   6 1006.35 22.5492   1
   3   1  -6 987.310 21.7737   4
  -1  -1   6 30.1321 1.98932   6
   1  -1  -6 35.8384 2.21329   7
  -1  -1   6 33.2505 2.73517  12
  -1  -1   6 33.7509 2.55361   1
  -1  -1   6 33.4486 4.12733  10
   1  -1  -6 32.1913 2.19894   1
   1  -1  -6 31.9667 2.97927  13
   1  -1  -6 34.0399 2.57818  14
   1  -1  -6 32.3792 2.83190   8
   1  -1  -6 36.3968 2.65022   2
  -1  -1   6 32.5493 2.38928   9
   1  -1  -6 31.9225 2.42277   4
  -1   1   6 36.6161 4.41398  10
  -1   1   6 31.3308 2.61204  12
  -1   1   6 32.7294 2.68787   9
  -1   1   6 32.6540 2.69638   1
   1   1  -6 32.7553 2.39479   4
  -1   1   6 32.2948 2.18376   6
   1   1  -6 33.0822 2.68130  14
   1   1  -6 33.6129 2.51800   2
   1   1  -6 38.2124 2.55957   7
   1  -1   6 209.130 7.18691   9
  -1  -1  -6 222.644 7.61985   2
  -1  -1  -6 210.078 7.13195  14
   1  -1   6 209.165 6.44744   1
  -1  -1  -6 208.956 6.52883   4
   1  -1   6 204.850 10.5394  10
   1  -1   6 211.814 5.67785   6
  -1  -1  -6 205.339 8.23587   8
   1   1   6 213.110 7.16993   1
  -1   1  -6 196.487 6.35090   7
  -1   1  -6 207.076 6.83845   4
   1   1   6 214.588 7.50896   9
  -1   1  -6 215.889 8.28898   8
  -1   1  -6 204.741 7.26273  14
   1   1   6 196.715 10.6023  10
  -1   1  -6 220.007 7.54877   2
   1   1   6 209.874 6.24970   6
   3  -1   6 245.546 7.10341   1
  -3  -1  -6 231.375 9.83892   8
  -3  -1  -6 237.881 8.25825  14
  -3  -1  -6 249.768 8.77236   2
   3  -1   6 237.330 8.87888   9
   3  -1   6 242.055 6.42959   6
   3  -1   6 239.786 13.0247  10
  -3   1  -6 247.770 7.90486   4
  -3   1  -6 240.177 9.23881   5
   3   1   6 240.392 7.27706   6
   3   1   6 238.470 13.3491  10
  -3   1  -6 248.481 8.51142  14
  -3   1  -6 246.064 8.90846   2
   3   1   6 249.113 8.13938   1
   3   1   6 240.265 9.11450   9
  -3   1  -6 235.903 9.95631   8
  -5  -1  -6 5.38348 2.19668   8
  -5  -1  -6 2.34434 1.52780  14
  -5  -1  -6 5.58563 2.33549   2
   5  -1   6 3.85255 1.14006   6
  -5   1  -6 2.86247 2.34830   8
   5   1   6 4.50529 2.46469   9
   5   1   6 6.93312 1.68681   6
  -5   1  -6 7.75150 2.31263   2
   5   1   6 4.03602 1.35574   1
  -5   1  -6 5.61889 1.85368  14
  -5   1  -6 8.42703 2.41573   5
   7  -1   6 120.022 7.77912   9
  -7  -1  -6 111.031 7.67957   8
  -7  -1  -6 121.607 6.93935   2
   7  -1   6 109.605 4.71601   6
   7   1   6 116.045 5.58009   6
   7   1   6 115.843 7.51227   9
  -7   1  -6 104.467 7.58334   5
  -7   1  -6 117.501 8.09519   8
  -7   1  -6 110.282 6.42096   2
  12  -2  -6 374.078 13.0395   6
  12  -2  -6 392.622 15.2731  11
 -12  -2   6 372.696 13.9987   8
  12  -2  -6 342.290 13.6614   1
 -12  -2   6 351.038 12.6265   5
 -12   2   6 357.177 13.4996   5
  12   2  -6 385.033 16.0352  11
  12   2  -6 367.331 15.0658   1
 -10  -2   6 671.018 18.8177   8
  10  -2  -6 654.719 19.4205   1
  10  -2  -6 645.502 17.5753   6
  10  -2  -6 616.932 21.9167  13
  10  -2  -6 649.135 19.0249  11
 -10  -2   6 634.616 17.2046   5
 -10  -2   6 646.117 18.4058  12
  10   2  -6 657.608 20.1483   1
 -10   2   6 652.392 18.0988   5
 -10   2   6 663.148 17.8267  12
  10   2  -6 658.056 19.7129  11
 -10   2   6 633.457 18.8876   3
   8  -2  -6 1212.79 28.8611   1
  -8  -2   6 1195.14 27.8014   1
   8  -2  -6 1173.75 31.5810  13
  -8  -2   6 1205.32 27.4230  12
   8  -2  -6 1216.00 26.9574   6
   8   2  -6 1250.32 29.7519   1
  -8   2   6 1184.22 27.7940   3
   8   2  -6 1224.51 27.7988  11
  -8   2   6 1220.11 26.8065  12
   8   2  -6 1204.08 31.0245  13
  -6  -2   6 1922.61 38.5762   9
   6  -2  -6 1961.17 39.0866   6
  -6  -2   6 1946.51 40.2420   1
   6  -2  -6 2002.04 41.2098   1
   6  -2  -6 1913.46 43.4256  13
  -6  -2   6 1961.59 39.4646  12
  -6   2   6 1922.16 39.4056   9
   6   2  -6 1950.86 43.0271  13
  -6   2   6 1945.80 38.9329  12
   6   2  -6 1904.70 38.7033  11
  -6   2   6 1917.49 39.7033   1
   6   2  -6 1923.54 39.0075   4
   6   2  -6 1928.51 41.0090   1
  -6   2   6 1837.55 38.9744   3
  -4  -2   6 1461.43 29.1650   9
  -4  -2   6 1496.88 30.3350  12
   4  -2  -6 1510.66 33.0930  13
  -4  -2   6 1491.96 29.4448   6
   4  -2  -6 1456.03 29.5935  14
   4  -2  -6 1428.94 29.2893   6
  -4  -2   6 1458.75 34.6602  10
   4  -2  -6 1434.74 28.3154   2
   4  -2  -6 1467.98 31.2666   1
  -4  -2   6 1484.74 31.0112   1
  -4   2   6 1503.24 30.0589  12
   4   2  -6 1447.05 30.7176   1
  -4   2   6 1467.75 30.2520   9
  -4   2   6 1452.78 30.9221   1
   4   2  -6 1477.53 30.3372   4
  -4   2   6 1405.65 29.0353   3
   4   2  -6 1458.54 28.3844  11
  -4   2   6 1411.35 29.1569   6
   4   2  -6 1436.60 29.6174  14
  -4   2   6 1450.08 35.2104  10
  -2  -2   6 1311.03 27.6665   1
  -2  -2   6 1284.73 27.5433  12
   2  -2  -6 1398.52 29.4509  13
   2  -2  -6 1324.61 27.3732  14
  -2  -2   6 1332.03 31.8306  10
   2  -2  -6 1314.20 27.8352   1
  -2  -2   6 1341.78 26.4193   6
  -2  -2   6 1287.89 26.3829   9
   2  -2  -6 1304.17 26.8420   2
  -2   2   6 1275.65 27.4939   9
  -2   2   6 1336.84 26.7605   6
   2   2  -6 1328.86 27.6627   4
   2   2  -6 1323.80 27.5281   2
  -2   2   6 1341.17 27.4104  12
   2   2  -6 1285.79 27.6608  14
   2   2  -6 1322.87 28.0243   7
  -2   2   6 1310.32 32.5063  10
  -2   2   6 1293.04 28.1559   1
  -2   2   6 1282.38 25.8039   3
   0  -2  -6 610.295 14.9419   2
   0  -2   6 620.169 15.1300  12
   0  -2  -6 609.372 15.7114   8
   0  -2   6 596.105 14.2548   9
   0  -2   6 608.852 14.1019   1
   0  -2  -6 619.736 14.2586   4
   0  -2   6 611.400 13.0940   6
   0  -2   6 612.079 19.3438  10
   0  -2  -6 607.845 14.8127  14
   0   2   6 604.323 15.3363   1
   0   2  -6 617.783 14.8849   4
   0   2   6 601.253 19.8247  10
   0   2  -6 609.613 15.2449   2
   0   2  -6 612.390 14.6727   7
   0   2   6 609.725 14.1077   6
   0   2   6 625.163 15.3699   9
   0   2  -6 621.395 15.3009  14
  -2  -2  -6 335.595 10.4551   2
   2  -2   6 338.316 10.0726   9
   2  -2   6 327.816 14.4973  10
   2  -2   6 328.975 8.48403   1
  -2  -2  -6 339.466 10.0521  14
  -2  -2  -6 319.164 8.83434   4
   2  -2   6 337.127 7.70442   6
  -2  -2  -6 335.909 11.5913   8
   2   2   6 347.895 10.5044   1
   2   2   6 335.785 15.2960  10
  -2   2  -6 333.909 9.82421   4
   2   2   6 337.118 9.36810   6
   2   2   6 346.993 11.0773   9
  -2   2  -6 365.284 10.6383  14
  -2   2  -6 361.114 10.8623   2
  -2   2  -6 328.922 9.58901   7
  -2   2  -6 331.692 11.5050   8
  -4  -2  -6 531.022 14.3010  14
  -4  -2  -6 513.650 14.8732   2
  -4  -2  -6 538.176 16.8826   8
   4  -2   6 538.028 11.4223   6
  -4   2  -6 549.975 16.8504   8
  -4   2  -6 530.208 14.5548  14
   4   2   6 530.525 13.6784   6
   4   2   6 509.181 14.4352   1
   4   2   6 533.046 16.0297   9
  -4   2  -6 509.888 14.7464   2
  -4   2  -6 504.822 15.8116   5
   6  -2   6 239.033 6.79145   6
  -6  -2  -6 246.924 11.6575   8
  -6  -2  -6 244.661 9.95111   2
   6   2   6 239.073 8.68102   6
   6   2   6 246.340 11.1784   9
  -6   2  -6 251.416 11.0900   5
  11  -3  -6 101.144 7.05336   1
  11  -3  -6 100.266 7.31098  11
  11  -3  -6 87.5853 5.91487   6
 -11  -3   6 89.0968 6.84357   8
  11   3  -6 106.389 8.16971  11
 -11   3   6 103.414 7.35261   3
  11   3  -6 110.291 7.98245   1
 -11   3   6 87.1708 6.42874   5
  -9  -3   6 8.15562 2.03146   1
  -9  -3   6 6.98970 2.41414  12
  -9  -3   6 6.56670 2.12554   8
   9  -3  -6 6.49671 3.10385  13
   9  -3  -6 11.8281 2.63433   1
   9  -3  -6 7.25569 2.07802   6
  -9  -3   6 4.79929 1.75514   5
  -9   3   6 11.2449 2.29446  12
   9   3  -6 9.22510 2.88259   1
  -9   3   6 6.76647 2.38785   3
  -9   3   6 9.62237 2.48771   5
   9   3  -6 8.21649 2.91623  11
   7  -3  -6 39.2110 3.68446   1
  -7  -3   6 35.6728 3.38221  12
   7  -3  -6 41.4736 4.64405  13
  -7  -3   6 45.4284 4.06876   1
   7  -3  -6 41.2743 3.29888   6
   7   3  -6 36.8368 3.33665  11
  -7   3   6 50.0903 3.83991   3
  -7   3   6 34.4740 2.97440   1
  -7   3   6 36.8935 3.08880  12
  -7   3   6 35.5978 3.16206   9
   7   3  -6 37.9054 4.11093   1
   7   3  -6 34.9275 2.89840   4
   5  -3  -6 323.153 9.19546   6
  -5  -3   6 333.947 9.70899  12
  -5  -3   6 322.068 8.95484   6
   5  -3  -6 347.318 12.2500  13
  -5  -3   6 341.324 8.75902   9
  -5  -3   6 350.862 10.5397   1
   5  -3  -6 331.757 8.97240  14
   5  -3  -6 345.875 10.9242   1
  -5   3   6 327.141 9.75910   9
   5   3  -6 325.754 10.4126   1
  -5   3   6 337.145 9.23660  12
  -5   3   6 340.886 10.2392   1
  -5   3   6 339.066 13.5107  10
   5   3  -6 331.915 8.83824  14
  -5   3   6 343.671 9.60030   3
   5   3  -6 346.080 9.86880   4
   5   3  -6 338.456 9.01897  11
  -3  -3   6 6.32781 1.48857  12
  -3  -3   6 5.93697 1.52837   1
   3  -3  -6 7.38735 1.71610   1
  -3  -3   6 6.24694 1.01168   9
   3  -3  -6 7.67874 1.77131  13
   3  -3  -6 7.34725 1.16447   2
  -3  -3   6 7.40657 2.11978  10
  -3  -3   6 10.4799 1.49410   6
   3   3  -6 8.77217 1.12777  11
   3   3  -6 7.18041 1.50099   4
  -3   3   6 9.46560 1.77152   9
  -3   3   6 6.16825 1.19819   3
   3   3  -6 7.05999 1.42471  14
  -3   3   6 8.44793 1.54188  12
  -3   3   6 7.75513 2.42159  10
   3   3  -6 7.07662 1.40547   1
  -3   3   6 6.72589 1.19652   6
  -3   3   6 9.54244 1.84914   1
  -1  -3   6 301.843 8.74452   1
  -1  -3   6 315.522 12.0879  10
   1  -3  -6 320.724 9.00393   2
   1  -3  -6 306.625 9.22751   1
   1  -3  -6 315.674 9.17435  14
  -1  -3   6 310.509 9.16568  12
   1  -3  -6 304.454 9.35759   8
  -1  -3   6 302.341 8.05544   9
   1  -3  -6 324.096 9.89112  13
  -1  -3   6 331.579 8.07859   6
  -1   3   6 326.412 10.0178   1
   1   3  -6 325.624 9.71673  14
  -1   3   6 328.659 9.63373   9
   1   3  -6 324.133 9.59201   7
   1   3  -6 321.557 9.47151   4
  -1   3   6 318.574 9.09550  12
  -1   3   6 303.450 8.57066   6
  -1   3   6 319.241 13.1414  10
   1   3  -6 318.352 9.55926   2
  -1  -3  -6 46.7742 3.34341  14
   1  -3   6 38.0500 2.80694   9
   1  -3   6 42.4857 3.35758  12
   1  -3   6 40.4148 2.40801   1
   1  -3   6 47.8502 5.05341  10
   1  -3   6 53.1137 2.18180   6
  -1  -3  -6 43.1639 2.72446   4
  -1  -3  -6 42.0660 3.72187   8
  -1  -3  -6 45.6569 3.27526   2
  -1   3  -6 42.6645 3.48802  14
  -1   3  -6 44.6440 3.40370   2
  -1   3  -6 52.5721 3.61624   4
   1   3   6 44.8411 5.53336  10
   1   3   6 43.1513 3.77526   9
  -1   3  -6 46.3100 3.14357   7
   1   3   6 43.5732 3.03520   6
   1   3   6 40.8874 3.53472   1
  -3  -3  -6 1.73051 2.01242   8
   3  -3   6 1.49382 2.19123  10
   3  -3   6 1.02712 1.33774   9
   3  -3   6 3.06412 0.61092   6
  -3  -3  -6 -0.4896 1.13442  14
  -3  -3  -6 0.67241 1.44718   2
  -3   3  -6 3.06290 1.49871   4
  -3   3  -6 9.98936 2.27938   5
   3   3   6 0.55200 1.75826   9
  -3   3  -6 0.69865 1.34301  14
  -3   3  -6 2.11005 1.60972   2
   3   3   6 2.37482 1.38218   6
   3   3   6 -0.7082 1.13456   1
  -3   3  -6 -0.0104 1.15338   8
  -5  -3  -6 88.6223 5.79831   2
   5  -3   6 80.5004 2.85511   6
  -5  -3  -6 89.0427 6.93173   8
  -5   3  -6 83.8452 5.46693   2
   5   3   6 77.6772 6.38271   9
   5   3   6 90.2466 5.62859   1
   5   3   6 89.1164 5.12741   6
  -5   3  -6 87.1169 6.48516   5
  -5   3  -6 82.9218 5.13972  14
  -7  -3  -6 14.5775 3.10906   2
   7  -3   6 15.5396 1.57434   6
  -7  -3  -6 15.4851 4.01766   8
   7  -3   6 11.1670 2.98785   9
   7   3   6 17.8403 3.66980   9
  -7   3  -6 17.8254 3.51324   8
  -7   3  -6 17.9644 3.53989   5
   7   3   6 17.9998 2.83249   6
  12  -4  -6 596.005 18.9159   1
  12  -4  -6 624.592 17.9178   6
  12  -4  -6 610.767 19.8492  11
 -12  -4   6 597.911 19.3234   8
 -12   4   6 608.056 19.9048   3
  12   4  -6 623.129 20.9167   1
  12   4  -6 620.737 21.6806  11
 -12   4   6 579.340 18.4761   5
 -10  -4   6 43.2629 4.89617  12
  10  -4  -6 36.7053 3.94880   6
  10  -4  -6 36.8786 6.24674  13
 -10  -4   6 37.1662 4.78394   8
  10  -4  -6 35.2636 4.54228   1
  10   4  -6 38.6714 5.50704  11
 -10   4   6 35.7809 4.10280   5
  10   4  -6 47.6132 5.90900   1
 -10   4   6 37.2438 4.95254   3
  -8  -4   6 847.186 22.0488   1
  -8  -4   6 829.687 21.1029  12
   8  -4  -6 845.220 20.5907   6
   8  -4  -6 882.898 22.5367   1
   8  -4  -6 809.293 25.5564  13
  -8   4   6 831.886 21.7348   3
   8   4  -6 859.158 23.3314   1
  -8   4   6 891.244 20.1768  12
   8   4  -6 838.699 21.6738  11
   6  -4  -6 99.7948 4.69752   6
  -6  -4   6 80.8295 4.55884  12
  -6  -4   6 86.5094 5.29509   1
   6  -4  -6 87.5760 6.55169  13
  -6   4   6 83.9572 4.76400   9
   6   4  -6 91.6062 4.55437   4
   6   4  -6 81.8411 4.43615  11
   6   4  -6 85.8263 5.24624   1
  -6   4   6 83.4457 4.73545   3
  -6   4   6 86.7308 4.55519   1
   6   4  -6 83.6812 5.73453   7
  -6   4   6 80.0129 4.01711  12
   4  -4  -6 1948.36 39.9356   6
   4  -4  -6 2028.03 42.1892   1
  -4  -4   6 2013.48 41.7211   1
  -4  -4   6 2027.46 39.9746   6
   4  -4  -6 2008.10 40.3186  14
  -4  -4   6 2022.31 40.6111  12
   4  -4  -6 2035.51 43.9384  13
   4   4  -6 1953.71 40.9734   1
   4   4  -6 1963.08 40.3293  14
  -4   4   6 2057.90 46.4949  10
   4   4  -6 2017.83 39.4876  11
  -4   4   6 2033.43 41.6578   1
  -4   4   6 2100.08 41.1169   9
   4   4  -6 2034.40 42.5496   7
   4   4  -6 2012.77 41.0967   4
  -4   4   6 2020.49 40.4415   3
  -4   4   6 2020.81 39.8039  12
  -2  -4   6 566.072 16.8990  10
   2  -4  -6 548.258 14.8625   1
  -2  -4   6 566.641 14.2182   1
   2  -4  -6 567.280 13.4396   2
   2  -4  -6 571.270 14.1732  14
  -2  -4   6 563.259 13.9319  12
  -2  -4   6 571.640 13.1440   6
   2  -4  -6 600.075 15.6762  13
   2   4  -6 574.275 14.6864  14
   2   4  -6 587.785 14.8894   4
  -2   4   6 558.197 13.5224   6
   2   4  -6 569.959 15.0548   7
  -2   4   6 577.915 18.5958  10
  -2   4   6 555.157 13.5561  12
  -2   4   6 575.895 15.2076   1
  -2   4   6 552.895 13.6139   3
  -2   4   6 574.485 14.5152   9
   0  -4   6 3041.27 57.9079   1
   0  -4  -6 3019.53 59.1062  14
   0  -4   6 2862.97 63.4877  10
   0  -4  -6 2926.28 59.1010   1
   0  -4   6 3040.87 56.8515   6
   0  -4  -6 2981.80 59.0380   2
   0  -4  -6 3007.75 59.9483   8
   0  -4   6 2981.07 59.0508  12
   0   4   6 3006.60 58.6570   6
   0   4   6 3155.70 60.1825   9
   0   4  -6 3068.58 60.1014   7
   0   4  -6 3033.55 59.8795   4
   0   4  -6 3073.60 60.1107  14
   0   4   6 3046.85 60.6726   1
   0   4   6 3116.83 67.0916  10
   0   4  -6 3028.59 59.9641   2
   2  -4   6 408.788 16.2490  10
  -2  -4  -6 437.842 12.2588  14
  -2  -4  -6 441.096 12.5328   2
   2  -4   6 423.686 12.3453  12
  -2  -4  -6 428.579 13.6968   8
   2  -4   6 420.606 9.11569   6
   2  -4   6 396.947 12.2289   9
  -2   4  -6 425.277 12.7999   2
   2   4   6 406.590 17.7074  10
  -2   4  -6 425.497 13.1581   5
  -2   4  -6 425.706 12.7108   7
  -2   4  -6 428.557 12.5980   4
   2   4   6 504.234 14.1500   9
   2   4   6 422.351 13.1305   1
   2   4   6 435.053 12.0218   6
  -2   4  -6 430.560 12.8410  14
  -4  -4  -6 1491.34 35.6744   8
  -4  -4  -6 1506.80 32.5211  14
  -4  -4  -6 1459.79 33.3346   2
   4  -4   6 1469.66 27.7408   6
   4  -4   6 1422.67 32.4790   9
   4   4   6 1517.17 32.8630   6
  -4   4  -6 1480.13 33.3322   2
   4   4   6 1524.81 34.4802   1
  -4   4  -6 1498.50 34.7519   5
  -4   4  -6 1480.27 33.1386  14
  -4   4  -6 1488.70 32.7567   4
  -4   4  -6 1527.11 35.4522   8
   4   4   6 1501.92 35.2255   9
  -6  -4  -6 51.0041 5.01668   2
  -6  -4  -6 54.7139 6.48476   8
   6  -4   6 52.5198 2.10134   6
   6   4   6 54.9513 4.60779   6
   6   4   6 52.6950 4.87465   1
  -6   4  -6 52.9240 5.05636   8
  -6   4  -6 57.1545 6.01513   5
   6   4   6 51.4190 5.66888   9
  11  -5  -6 71.7302 5.52124   6
 -11  -5   6 78.0609 6.79430   8
  11  -5  -6 89.5324 6.58044   1
  11   5  -6 84.6917 7.60635   1
  11   5  -6 83.7206 7.81689  11
 -11   5   6 84.3910 6.61474   5
  -9  -5   6 2.41120 2.27960   8
  -9  -5   6 2.39128 2.19913  12
   9  -5  -6 3.71177 1.77985   1
   9  -5  -6 2.01964 1.77356   6
   9  -5  -6 0.72085 2.68576  13
  -9  -5   6 0.63369 1.43722   1
   9   5  -6 3.50642 2.66821   1
   9   5  -6 14.7553 3.70674   7
  -9   5   6 2.37914 2.20669   3
   9   5  -6 4.88991 2.73739  11
  -9   5   6 4.42805 2.32389   5
  -7  -5   6 5.98019 1.92482  12
  -7  -5   6 4.39052 1.76226   1
   7  -5  -6 6.41028 1.57973   6
   7  -5  -6 1.83522 1.78279   1
   7   5  -6 3.50922 1.94312  11
  -7   5   6 3.07596 1.80469   9
  -7   5   6 1.92775 1.74108   3
   7   5  -6 4.61630 1.94177   1
   7   5  -6 9.14617 2.81151   7
  -7   5   6 5.32679 1.43924  12
  -5  -5   6 89.2113 4.30284   6
   5  -5  -6 96.1486 5.62040   1
  -5  -5   6 92.7514 5.46660   1
  -5  -5   6 96.2155 4.82619  12
   5  -5  -6 94.1787 6.34021  13
   5  -5  -6 92.4332 4.53041  14
   5  -5  -6 90.3646 4.51947   6
  -5   5   6 91.6695 4.75422   9
  -5   5   6 99.4638 4.14217  12
  -5   5   6 100.789 5.15131   3
  -5   5   6 95.2597 6.87103  10
   5   5  -6 107.208 5.15626   4
   5   5  -6 94.7442 4.61792  11
   5   5  -6 92.8703 5.29942   1
   5   5  -6 102.342 6.13101   7
  -5   5   6 90.0088 4.90742   1
  -3  -5   6 40.2772 2.96721  12
  -3  -5   6 51.1003 3.74374   1
   3  -5  -6 40.0947 3.99614  13
  -3  -5   6 38.5630 3.70667  10
   3  -5  -6 44.7333 3.85428   1
   3  -5  -6 43.4521 2.45348   2
   3  -5  -6 38.7566 3.17641  14
  -3  -5   6 47.1233 2.96481   6
   3   5  -6 36.7710 3.13777  14
  -3   5   6 51.4847 3.39397   3
   3   5  -6 41.0666 2.58053  11
  -3   5   6 41.3216 2.66395  12
   3   5  -6 40.2423 3.53213   4
  -3   5   6 40.4682 3.39347   9
   3   5  -6 47.1732 4.01676   7
  -3   5   6 43.0016 4.70546  10
  -3   5   6 46.0291 3.51169   1
   1  -5  -6 109.221 5.21025  14
  -1  -5   6 109.854 4.16407   6
  -1  -5   6 102.659 4.75476  12
  -1  -5   6 102.760 4.65845   1
   1  -5  -6 110.050 4.81305   2
  -1  -5   6 100.988 6.76782  10
   1  -5  -6 107.680 4.84339   8
   1  -5  -6 109.837 5.35832  13
   1  -5  -6 100.638 5.34259   1
  -1   5   6 104.764 5.80004   1
  -1   5   6 110.289 5.30664   9
  -1   5   6 104.085 7.35453  10
   1   5  -6 106.712 5.54398  14
  -1   5   6 108.727 4.70154  12
  -1   5   6 106.623 4.66036   6
   1   5  -6 109.049 5.82850   7
   1   5  -6 113.449 5.54108   4
  -1  -5  -6 15.7019 2.56752   2
  -1  -5  -6 12.5754 2.50389   8
   1  -5   6 12.6231 2.12025  12
  -1  -5  -6 14.6696 2.36846  14
   1  -5   6 19.4853 1.83005   1
   1   5   6 12.4146 2.56723   9
  -1   5  -6 16.1954 2.54006   2
  -1   5  -6 14.4936 2.38189   4
   1   5   6 14.4635 2.14962   6
   1   5   6 15.2991 2.88944   1
  -1   5  -6 20.6027 2.83754  14
  -1   5  -6 21.4567 2.95371   7
   1   5   6 13.3913 3.67377  10
   3  -5   6 10.1294 2.13654  12
  -3  -5  -6 13.8477 2.80448   2
   3  -5   6 17.1860 1.16082   6
  -3  -5  -6 17.2607 2.74050  14
  -3  -5  -6 13.5137 3.20647   8
  -3   5  -6 15.6620 2.87214   2
   3   5   6 11.9448 2.33181   6
  -3   5  -6 13.2525 2.79031   7
  -3   5  -6 15.8686 2.86805  14
  -3   5  -6 8.61198 2.62669   5
   3   5   6 10.0666 2.83894   9
   3   5   6 13.1147 2.94985   1
  -3   5  -6 13.9298 2.69842   4
  -5  -5  -6 109.325 5.94685  14
  -5  -5  -6 108.747 7.45772   8
  -5  -5  -6 110.515 6.73048   2
   5   5   6 119.292 7.96065   9
  -5   5  -6 110.775 6.36575  14
   5   5   6 117.543 7.28834   1
  -5   5  -6 118.713 7.54206   5
   5   5   6 120.494 6.67890   6
  10  -6  -6 1134.14 27.1931   6
  10  -6  -6 1125.50 28.7382   1
 -10  -6   6 1139.58 29.7462   8
  10   6  -6 1119.70 31.0839   1
 -10   6   6 1101.03 29.2483   3
  10   6  -6 1145.39 30.2724  11
  10   6  -6 1063.43 30.1254   7
 -10   6   6 1133.05 28.0800   5
   8  -6  -6 202.289 8.23934   6
   8  -6  -6 202.910 9.37782   1
   8  -6  -6 191.807 11.5900  13
  -8  -6   6 198.914 9.37155   1
  -8  -6   6 215.473 8.88599  12
   8   6  -6 236.205 10.7307   1
   8   6  -6 204.565 10.2548   7
   8   6  -6 198.968 9.28334  11
  -8   6   6 205.366 9.31544   3
  -8   6   6 214.044 8.68768   5
   6  -6  -6 2242.90 45.7892   6
   6  -6  -6 2282.92 51.9525  13
  -6  -6   6 2312.07 48.3341   1
   6  -6  -6 2213.27 48.0244   1
  -6  -6   6 2256.81 45.9615  12
  -6   6   6 2252.58 46.3734   9
   6   6  -6 2280.03 46.4815  11
   6   6  -6 2254.46 48.8492   7
   6   6  -6 2186.94 47.7032   1
   6   6  -6 2135.22 45.5505   4
  -6   6   6 2269.71 47.3218   3
   4  -6  -6 200.136 8.46836   1
   4  -6  -6 198.174 7.05200   6
  -4  -6   6 192.054 6.97183   6
  -4  -6   6 204.881 8.45278   1
  -4  -6   6 207.895 7.21379  12
   4  -6  -6 205.204 9.59168  13
   4   6  -6 200.072 7.07994  11
  -4   6   6 199.149 7.63365   9
   4   6  -6 203.218 8.65582   7
  -4   6   6 197.107 7.64263   3
  -4   6   6 190.435 7.80922   1
   4   6  -6 206.192 8.12888   4
  -4   6   6 203.621 10.3122  10
   2  -6  -6 1930.51 40.6768   1
  -2  -6   6 1805.07 37.8639  12
  -2  -6   6 1836.29 37.5702   6
   2  -6  -6 1827.91 37.6196   2
  -2  -6   6 1924.57 39.3624   1
   2  -6  -6 1902.16 40.7479  13
  -2   6   6 1983.34 39.5054   9
   2   6  -6 1846.13 39.8003  14
   2   6  -6 1901.85 40.8682   7
  -2   6   6 1881.50 40.5419   1
  -2   6   6 1841.53 39.0933   3
  -2   6   6 1857.11 44.4692  10
   2   6  -6 1873.71 40.0999   4
   0  -6   6 44.8212 2.56921   6
   0  -6  -6 32.5671 2.88794   2
   0  -6   6 38.7484 3.24536  12
   0  -6   6 33.7826 2.67425   1
   0  -6  -6 42.6605 3.41830  14
   0  -6  -6 30.7708 3.02465   8
   0  -6  -6 38.4400 3.68747   1
   0   6   6 35.6348 3.10885   6
   0   6  -6 43.3106 4.09983   4
   0   6   6 38.5406 3.02902  12
   0   6   6 32.5800 3.69546   9
   0   6   6 33.7423 3.55961   1
   0   6   6 33.7817 4.87695  10
   0   6  -6 43.5112 4.01900  14
   2  -6   6 974.974 19.9586   6
  -2  -6  -6 998.199 23.7814   2
  -2  -6  -6 943.616 24.4689   8
  -2  -6  -6 979.203 23.3525  14
  -2   6  -6 1005.79 25.1180   7
   2   6   6 998.641 25.7398   1
   2   6   6 1015.99 25.0303   9
  -2   6  -6 994.053 24.6276  14
  -2   6  -6 991.406 24.3263   4
   2   6   6 977.959 23.4580   6
   4  -6   6 33.8496 1.57183   6
  -4  -6  -6 35.8971 4.30800   2
  -4  -6  -6 37.7506 5.00822   8
  -4  -6  -6 32.2902 3.83621  14
  -4   6  -6 27.5483 4.15624   5
  -4   6  -6 35.8731 4.04693  14
   4   6   6 32.2107 3.88011   6
   4   6   6 35.7001 4.85366   1
  -4   6  -6 32.5057 3.85660   7
  -4   6  -6 29.8826 3.80154   4
   4   6   6 39.7184 5.13304   9
  -6  -6  -6 635.296 18.9420   2
   6   6   6 668.206 21.2846   9
   6   6   6 661.751 20.3918   1
   6   6   6 626.692 18.6530   6
  -6   6  -6 654.739 20.1310   5
  -9  -7   6 81.6963 6.74616   8
   9  -7  -6 85.9764 6.14298   1
   9  -7  -6 89.1182 5.73053   6
  -9  -7   6 90.7723 6.80825   1
   9   7  -6 94.8899 7.25536  11
  -9   7   6 89.8227 6.09906   5
  -9   7   6 86.1506 6.75050   3
   9   7  -6 79.2296 6.49206   7
   9   7  -6 88.3468 7.06173   1
   7  -7  -6 180.448 8.91695   1
  -7  -7   6 174.811 8.93640   1
   7  -7  -6 177.912 7.66966   6
   7  -7  -6 186.925 11.3453  13
  -7  -7   6 171.307 7.61009  12
   7   7  -6 188.878 9.64001   7
  -7   7   6 181.102 8.71379   3
  -7   7   6 177.713 7.56952   5
  -7   7   6 187.276 8.07802   9
   7   7  -6 184.322 9.24707   1
   7   7  -6 187.373 8.55312  11
  -5  -7   6 463.673 12.7200   6
   5  -7  -6 461.320 12.9699   6
   5  -7  -6 471.775 16.8264  13
   5  -7  -6 461.521 14.7917   1
  -5  -7   6 453.219 14.6380   1
  -5  -7   6 446.494 12.6194  12
   5   7  -6 451.286 14.9549   7
  -5   7   6 453.175 13.3274   9
  -5   7   6 458.929 13.8304   3
   5   7  -6 448.634 13.1714  11
   5   7  -6 449.539 13.3827   4
  -3  -7   6 124.413 5.50206   6
  -3  -7   6 116.050 6.29461   1
   3  -7  -6 128.260 6.84000   1
   3  -7  -6 122.838 7.20564  13
  -3   7   6 126.802 6.35209   3
  -3   7   6 125.997 6.06391   9
   3   7  -6 124.207 5.56086  11
   3   7  -6 123.051 6.57636   4
  -3   7   6 119.205 7.91092  10
  -3   7   6 123.529 6.53265   1
   3   7  -6 120.992 7.09126   7
  -1  -7   6 414.855 11.0868   6
   1  -7  -6 426.591 13.6204   1
   1  -7  -6 419.562 11.7819   2
  -1  -7   6 418.201 12.0823   1
  -1   7   6 426.986 13.1421   3
   1   7  -6 411.238 13.8113   7
  -1   7   6 398.664 15.9761  10
   1   7  -6 434.621 13.6424   4
  -1   7   6 432.752 12.8709   9
  -1   7   6 401.889 13.6799   1
   1   7  -6 417.794 13.4390  14
  -1  -7  -6 141.156 6.87685  14
  -1  -7  -6 137.831 6.49580   2
   1  -7   6 140.209 5.02763   6
  -1   7  -6 150.411 7.81272  14
   1   7   6 151.480 7.48483   9
   1   7   6 155.584 8.41743   1
   1   7   6 135.683 9.80144  10
  -1   7  -6 143.005 7.85952   7
  -1   7  -6 148.254 7.64403   4
   3  -7   6 44.1832 2.34290   6
  -3  -7  -6 51.8404 4.80530   2
  -3  -7  -6 50.1848 5.04172   8
  -3  -7  -6 44.7426 4.38411  14
   3   7   6 55.0621 5.62174   1
  -3   7  -6 43.4066 4.80031   4
  -3   7  -6 52.2968 5.23256   7
   3   7   6 52.2841 5.36492   9
   3   7   6 45.7504 4.27035   6
  -3   7  -6 49.4441 4.77729  14
   5  -7   6 120.066 3.38945   6
  -5  -7  -6 122.709 7.05444   2
   5   7   6 114.598 8.13268   1
  -5   7  -6 117.598 7.03767   4
   5   7   6 111.728 6.91435   6
   5   7   6 119.550 8.31307   9
  -5   7  -6 129.543 7.98044   5
 -10  -8   6 219.651 11.2686   8
  10  -8  -6 234.063 9.77532   6
  10  -8  -6 228.564 10.5981   1
  10   8  -6 244.730 12.1752  11
 -10   8   6 233.247 11.4907   3
 -10   8   6 246.784 10.4691   5
  10   8  -6 232.103 12.4551   1
  -8  -8   6 228.451 10.8167   8
   8  -8  -6 235.206 10.6576   1
   8  -8  -6 246.181 9.68062   6
  -8  -8   6 241.608 11.2961   1
   8   8  -6 225.764 10.4863  11
  -8   8   6 232.058 10.7708   3
   8   8  -6 246.108 11.5933   7
  -8   8   6 228.616 9.11722   5
   8   8  -6 226.184 11.3432   1
   6  -8  -6 345.188 11.3004   6
  -6  -8   6 343.040 13.0816   1
   6  -8  -6 334.695 15.2788  13
   6  -8  -6 341.141 12.8741   1
  -6   8   6 319.865 12.0828   3
  -6   8   6 337.547 10.5894   5
   6   8  -6 343.457 11.9554  11
  -6   8   6 330.383 11.1989   9
   6   8  -6 325.057 13.1278   7
  -4  -8   6 494.949 15.5751   1
  -4  -8   6 507.120 13.9845   6
   4  -8  -6 498.180 17.3464  13
   4  -8  -6 522.348 16.3867   1
  -4   8   6 504.095 14.4337   9
  -4   8   6 488.686 14.7663   1
   4   8  -6 501.822 14.3068  11
  -4   8   6 487.933 14.9601   3
   4   8  -6 517.085 16.7298   7
   4   8  -6 499.392 15.0357   4
  -2  -8   6 625.698 16.1979   6
  -2  -8   6 667.759 17.7585   1
   2  -8  -6 651.175 19.0100   1
   2  -8  -6 656.774 18.8823  13
   2   8  -6 644.009 19.4808   7
  -2   8   6 650.273 18.1600   3
   2   8  -6 668.731 18.7877   4
  -2   8   6 663.740 17.4814   9
  -2   8   6 653.356 18.7469   1
   0  -8   6 711.431 17.8365   1
   0  -8  -6 703.626 18.3838   2
   0  -8  -6 738.508 20.2828   1
   0  -8   6 722.632 17.0681   6
   0   8  -6 717.358 21.0349   7
   0   8   6 753.371 21.3183   1
   0   8   6 714.938 20.0707   3
   0   8   6 715.411 19.3062   9
   0   8  -6 727.611 20.5296   4
   2  -8   6 628.498 14.7141   6
  -2  -8  -6 617.714 17.5280  14
  -2  -8  -6 634.406 17.6736   2
   2   8   6 623.136 18.5185   9
  -2   8  -6 647.912 19.1507   4
  -2   8  -6 652.538 20.0694   7
   2   8   6 641.767 20.4514   1
  -4  -8  -6 383.739 13.4103   2
  -4  -8  -6 369.578 12.5260  14
   4  -8   6 381.340 9.20430   6
  -4  -8  -6 417.283 15.6129   8
   4   8   6 368.137 14.4312   9
  -4   8  -6 384.232 14.0189   4
   4   8   6 379.642 15.2892   1
  -9  -9   6 68.2250 6.73970   8
  -9  -9   6 67.3385 6.55513   1
   9  -9  -6 61.2724 5.19553   6
   9  -9  -6 67.4021 6.09720   1
   9   9  -6 59.4850 6.07962   1
   9   9  -6 64.9529 6.11011  11
  -9   9   6 51.6761 5.99197   3
   7  -9  -6 73.8929 6.23197   1
  -7  -9   6 79.3081 6.40014   8
  -7  -9   6 72.1928 6.68292   1
   7  -9  -6 75.5921 5.06290   6
   7   9  -6 75.2591 6.13642  11
  -7   9   6 69.9170 5.83076   3
   7   9  -6 76.5007 6.41964   7
  -7   9   6 79.2532 5.53859   9
   5  -9  -6 35.6627 5.58822  13
  -5  -9   6 34.7058 4.72554   1
   5  -9  -6 42.2721 5.18710   1
  -5   9   6 39.8095 4.20351   3
  -5   9   6 41.4888 4.09212   9
   5   9  -6 38.7000 4.31449   4
   5   9  -6 34.6986 4.24507  11
   5   9  -6 39.5423 4.66816   7
   3  -9  -6 160.924 8.55293   1
   3  -9  -6 172.591 9.38745  13
  -3  -9   6 154.567 6.74869   6
  -3  -9   6 166.688 8.33715   1
  -3   9   6 153.392 7.04867   9
  -3   9   6 155.684 8.15222   3
  -3   9   6 157.107 7.94907   1
   3   9  -6 154.179 7.91586   4
   3   9  -6 158.395 9.11082   7
  -1  -9   6 18.7771 2.87686   1
   1  -9  -6 22.5090 3.63228   1
  -1   9   6 23.7307 3.76883   1
   1   9  -6 19.5419 3.38125   4
  -1   9   6 22.1033 3.89394   3
   1   9  -6 21.8800 3.87235   7
  -1   9   6 26.6111 3.35856   9
  -1  -9  -6 62.0192 5.48789  14
  -1  -9  -6 72.0026 5.29113   2
   1  -9   6 57.8816 3.69775   6
  -1   9  -6 57.8405 5.28326   4
   1   9   6 58.6401 5.26323   9
  -1   9  -6 57.5351 6.16902   7
   1   9   6 61.1115 5.70548   1
   3  -9   6 22.1984 2.29888   6
  -3  -9  -6 24.5803 3.58798  14
  -3  -9  -6 24.9722 3.93479   2
   3   9   6 26.0834 4.36295   9
   3   9   6 25.4448 4.78815   1
  -3   9  -6 32.0107 4.67440   4
  -3   9  -6 23.9440 4.54283   7
   8 -10  -6 1181.98 29.0274   6
  -8 -10   6 1229.08 32.2193   1
   8  10  -6 1190.61 31.1860  11
  -8  10   6 1208.82 31.7252   3
  -6 -10   6 9.23205 2.94899   8
  -6 -10   6 11.1997 3.29252   1
   6 -10  -6 6.29995 2.50166   1
   6  10  -6 16.0204 3.70619  11
   6  10  -6 9.10845 3.52050   7
  -6  10   6 13.7172 2.42172   9
  -6  10   6 14.6064 3.61603   3
   4 -10  -6 1663.18 41.8878  13
  -4 -10   6 1689.92 39.2060   1
  -4 -10   6 1605.40 36.3034   6
   4 -10  -6 1669.35 39.9702   1
   4  10  -6 1614.14 37.0877  11
   4  10  -6 1613.88 37.7971   4
  -4  10   6 1666.73 38.6068   3
   4  10  -6 1662.13 40.5776   7
  -4  10   6 1639.71 36.1577   9
   2 -10  -6 5.39134 2.73710   1
  -2 -10   6 3.43492 1.88523   6
  -2 -10   6 3.89161 2.07841   1
   2  10  -6 3.62475 2.82470   7
  -2  10   6 3.09423 2.33311   1
  -2  10   6 7.51261 2.85487   3
   2  10  -6 6.12344 2.24878   4
  -2  10   6 1.63055 1.80045   9
   0 -10  -6 1222.68 28.7702   2
   0 -10  -6 1245.35 31.5984   1
   0 -10   6 1255.12 27.6926   6
   0  10   6 1202.05 29.1010   9
   0  10  -6 1258.68 32.9565   7
   0  10   6 1213.06 32.1011   1
   0  10  -6 1245.38 31.7055   4
   0  10   6 1170.35 31.0704   3
  -2 -10  -6 4.49347 2.05590   2
   2 -10   6 2.30239 1.46392   6
  -2 -10  -6 2.42981 2.44288  14
   2  10   6 6.71455 3.16083   1
  -2  10  -6 6.79715 2.68565   4
  -2  10  -6 5.47040 2.68975   7
   7 -11  -6 71.9212 6.62640   1
  -7 -11   6 71.0724 7.12751   1
  -7  11   6 68.2012 6.69715   3
   7  11  -6 63.3879 6.45557  11
   5 -11  -6 73.0583 6.65178   1
  -5 -11   6 67.5462 6.48558   1
  -5  11   6 54.9237 5.85220   3
   5  11  -6 56.3786 5.21255  11
   5  11  -6 59.1076 6.67286   7
  -3 -11   6 144.844 7.31977   6
   3 -11  -6 141.565 9.07754   1
  -3 -11   6 148.515 8.48090   1
   3  11  -6 134.016 7.91547   4
   3  11  -6 144.466 9.69056   7
  -3  11   6 136.874 8.42009   3
   1 -11  -6 57.5385 6.27008   1
  -1  11   6 61.2865 6.25786   3
  -1  11   6 61.6462 5.67426   1
   1  11  -6 72.8438 6.13393   4
   1  11  -6 61.1788 6.30302   7
  -1 -11  -6 106.086 6.79007   2
  -1 -11  -6 108.955 7.47095  14
   1 -11   6 111.820 5.76343   6
  -1  11  -6 118.212 9.00529   7
  -1  11  -6 106.136 7.70865   4
   1  11   6 108.226 7.76876   3
   1  11   6 117.685 8.63222   1
   4 -12  -6 273.680 13.0135   1
  -4  12   6 239.233 11.7378   3
   4  12  -6 263.545 13.2689   7
  -2 -12   6 297.990 11.0652   6
  -2 -12   6 288.570 12.2566   1
   2 -12  -6 297.519 13.5847   1
   2  12  -6 310.325 14.5393   7
  -2  12   6 273.885 12.8193   3
   2  12  -6 280.490 12.7611   4
   0 -12  -6 262.123 12.6438   1
   0 -12   6 261.304 9.88516   6
   0  12  -6 254.030 13.4126   7
   0  12  -6 254.855 12.3718   4
  12   0  -7 -0.5552 2.76098  11
 -12   0   7 0.25574 2.12305   5
  12   0  -7 0.67372 2.51710   1
  10   0  -7 -0.7774 1.98650  11
  10   0  -7 0.97681 2.43151  13
 -10   0   7 5.95102 2.33586   5
  10   0  -7 0.34451 2.22795   1
 -10   0   7 1.36127 1.99960  12
 -10   0   7 2.13641 1.99351   8
  -8   0   7 0.45301 1.37777   1
  -8   0   7 2.68146 1.67248  12
   8   0  -7 0.98037 1.86199   1
   8   0  -7 -0.8447 1.26084  11
   8   0  -7 0.35792 1.27862   4
  -6   0   7 0.69235 0.82459   9
   6   0  -7 2.98608 1.26738   4
   6   0  -7 0.85370 1.77882  13
   6   0  -7 0.73765 1.07130   1
  -6   0   7 0.81814 1.17732  12
  -6   0   7 -0.0244 1.65472  10
  -6   0   7 -0.2215 0.81694   1
   6   0  -7 3.82063 1.09939  11
  -4   0   7 -0.1877 1.51096  10
   4   0  -7 2.25616 1.37748  13
   4   0  -7 0.14339 0.52378   2
  -4   0   7 0.92374 0.84050  12
  -4   0   7 0.96320 0.90198   6
  -4   0   7 0.57019 1.11203   1
   4   0  -7 3.98267 1.42376   4
  -4   0   7 -0.1218 0.89673   9
   4   0  -7 0.25092 0.83629  14
  -2   0   7 -0.1237 0.93452   9
  -2   0   7 0.06829 1.16465  10
  -2   0   7 -0.1468 1.02303  12
  -2   0   7 0.18163 1.07499   1
   2   0  -7 0.39732 0.78863   2
  -2   0   7 1.44967 0.95367   6
   2   0  -7 1.02233 0.90084   1
   2   0  -7 -0.5917 0.91462  14
   2   0  -7 0.24820 0.95443   7
   0   0   7 1.85525 0.91999   6
   0   0   7 0.42352 1.45717  10
   0   0  -7 0.72177 1.30592   2
   0   0  -7 1.22772 0.87382   4
   0   0   7 0.99110 1.21834   9
   0   0  -7 0.58772 0.84458  14
   0   0   7 1.32801 1.07664   1
   0   0  -7 1.41079 1.61546   8
  -2   0  -7 2.59350 1.53492  14
   2   0   7 9.85014 3.38897  10
   2   0   7 0.88369 1.25230   1
  -2   0  -7 0.80446 1.10205   2
  -2   0  -7 1.00152 1.10696   4
  -2   0  -7 0.50254 1.78961   8
   2   0   7 1.28621 0.92099   6
   2   0   7 -0.1540 1.53915   9
   4   0   7 3.00501 1.84293   9
   4   0   7 3.48891 1.25111   6
  -4   0  -7 0.84401 1.52112  14
  -4   0  -7 0.24483 1.62273   8
  -4   0  -7 2.79182 1.93813   2
  -6   0  -7 2.96711 2.26552   2
  -6   0  -7 0.41371 2.63841   8
   6   0   7 3.08352 2.78821   9
   6   0   7 1.31098 1.36123   6
  11  -1  -7 247.101 11.2450  11
  11  -1  -7 264.968 11.8985   1
 -11  -1   7 251.051 9.76217   5
 -11  -1   7 246.341 10.3797   8
 -11  -1   7 245.088 10.4457  12
 -11   1   7 233.848 9.76565  12
 -11   1   7 242.610 10.0911   5
  11   1  -7 237.181 11.7557   1
  11   1  -7 241.907 11.1943  11
  -9  -1   7 803.528 20.6363  12
   9  -1  -7 812.238 20.2128   6
   9  -1  -7 800.041 20.7442  11
   9  -1  -7 816.848 25.4861  13
   9  -1  -7 827.970 22.6881   1
  -9  -1   7 810.844 20.9536   1
   9   1  -7 820.318 20.9435  11
  -9   1   7 805.340 20.3611  12
  -9   1   7 751.250 20.1973   3
   9   1  -7 789.906 24.5137  13
   9   1  -7 793.453 22.6608   1
  -7  -1   7 365.052 11.0771  12
   7  -1  -7 369.269 14.3221  13
   7  -1  -7 350.186 10.1504  11
  -7  -1   7 370.132 10.7529   9
  -7  -1   7 363.639 11.6534   1
   7  -1  -7 370.639 12.4180   1
   7   1  -7 349.553 10.1989  11
   7   1  -7 373.314 12.4751   1
  -7   1   7 378.652 11.0160  12
  -7   1   7 348.584 10.8101   9
  -7   1   7 366.577 11.4955   1
   7   1  -7 353.859 13.7193  13
   7   1  -7 358.912 10.6986   4
  -5  -1   7 2128.70 49.1975  10
   5  -1  -7 2186.97 46.9247  13
  -5  -1   7 2147.13 43.1242  12
  -5  -1   7 2162.65 44.2357   1
  -5  -1   7 2069.56 41.9821   6
   5  -1  -7 2131.75 44.4431   1
  -5  -1   7 2129.96 42.4435   9
   5  -1  -7 2095.04 42.0728  14
   5   1  -7 2169.55 44.2568   1
  -5   1   7 2146.55 44.1104   1
  -5   1   7 2099.98 49.3715  10
   5   1  -7 2083.44 42.0270  14
  -5   1   7 2161.46 43.0515  12
   5   1  -7 2123.96 46.7810  13
  -5   1   7 2154.25 43.0356   9
   5   1  -7 2157.78 43.2008   4
   3  -1  -7 454.815 11.7748  14
   3  -1  -7 439.651 11.1382   2
  -3  -1   7 447.426 12.0335  12
  -3  -1   7 446.797 11.1829   6
   3  -1  -7 440.291 11.8679   4
  -3  -1   7 463.722 16.3078  10
   3  -1  -7 476.017 12.2726   1
  -3  -1   7 432.231 11.2481   9
  -3  -1   7 442.598 12.3747   1
   3  -1  -7 444.523 13.6305  13
   3   1  -7 434.545 11.8504  14
   3   1  -7 441.531 11.5137   2
   3   1  -7 424.780 11.4406   1
  -3   1   7 435.479 11.8898  12
  -3   1   7 439.247 16.2997  10
  -3   1   7 451.870 11.1516   6
  -3   1   7 439.590 11.8111   9
   3   1  -7 445.210 11.9457   4
   3   1  -7 452.321 12.4513   7
  -3   1   7 433.734 12.4913   1
  -1  -1   7 2570.52 57.8965  10
  -1  -1   7 2609.95 51.7024  12
   1  -1  -7 2567.71 51.1134  14
   1  -1  -7 2583.25 50.6405   4
   1  -1  -7 2604.14 51.2464   2
  -1  -1   7 2520.06 50.8927   1
   1  -1  -7 2516.95 49.5634   7
  -1  -1   7 2579.02 49.6028   6
  -1  -1   7 2570.42 50.7107   9
   1   1  -7 2647.18 51.0719   4
   1   1  -7 2551.47 50.5386   7
   1   1  -7 2535.28 51.3441   2
   1   1  -7 2623.72 51.6081  14
  -1   1   7 2550.69 58.4558  10
  -1   1   7 2551.41 51.5612   1
  -1   1   7 2629.79 51.6045  12
  -1   1   7 2616.63 51.4570   9
  -1   1   7 2585.25 50.0106   6
   1  -1   7 208.853 7.95351   9
   1  -1   7 203.743 11.7210  10
  -1  -1  -7 229.349 7.92460  14
   1  -1   7 217.172 6.43972   6
  -1  -1  -7 212.130 8.89692   8
  -1  -1  -7 205.858 7.09879   4
  -1  -1  -7 214.764 8.16606   2
   1  -1   7 229.243 7.29181   1
   1   1   7 222.829 7.92315   1
   1   1   7 223.541 8.40695   9
  -1   1  -7 232.279 8.53064   2
  -1   1  -7 223.525 9.21306   8
  -1   1  -7 226.089 8.16638  14
   1   1   7 223.531 6.96213   6
   1   1   7 207.952 11.9421  10
  -1   1  -7 207.592 7.46824   4
   3  -1   7 1268.35 26.0356   6
   3  -1   7 1257.08 29.6281   9
  -3  -1  -7 1280.20 28.6102  14
  -3  -1  -7 1281.42 29.4110   2
  -3  -1  -7 1277.17 31.5411   8
  -3   1  -7 1260.46 31.3055   8
  -3   1  -7 1274.14 29.4182   2
   3   1   7 1272.50 30.2466   9
   3   1   7 1226.98 27.9255   1
   3   1   7 1294.07 27.1452   6
  -3   1  -7 1278.12 28.7814  14
  -5  -1  -7 90.3099 7.17201   8
  -5  -1  -7 99.5259 6.00091   2
   5  -1   7 97.8674 4.38409   6
   5  -1   7 96.9816 6.73993   9
  -5  -1  -7 96.4749 5.63749  14
   5   1   7 101.374 7.30434   9
   5   1   7 95.0395 4.95839   6
  -5   1  -7 93.5835 6.11477   2
  -5   1  -7 102.459 5.77531  14
  -5   1  -7 98.5373 7.41796   8
 -12  -2   7 136.715 7.46736   5
 -12  -2   7 138.725 7.99348   8
  12  -2  -7 152.415 9.19277   1
  12  -2  -7 138.595 8.50611  11
  12   2  -7 146.015 9.59129  11
  12   2  -7 136.552 9.23062   1
 -12   2   7 138.784 8.15136   5
 -10  -2   7 233.110 9.08033   5
 -10  -2   7 227.448 9.83024   8
 -10  -2   7 242.957 10.0233  12
  10  -2  -7 260.321 10.6150  11
  10  -2  -7 246.657 11.1025   1
  10  -2  -7 230.510 12.9006  13
  10  -2  -7 242.596 9.66129   6
 -10   2   7 254.499 9.76329  12
 -10   2   7 243.580 9.81007   5
  10   2  -7 245.275 11.5075   1
 -10   2   7 223.731 9.90993   3
  10   2  -7 254.189 10.9104  11
   8  -2  -7 323.790 11.9866   1
  -8  -2   7 326.033 10.8550  12
   8  -2  -7 312.065 10.2510   6
  -8  -2   7 341.559 11.4985   1
   8  -2  -7 301.581 13.6545  13
   8  -2  -7 311.676 10.2804  11
  -8   2   7 304.878 10.5978   9
   8   2  -7 315.012 13.4274  13
   8   2  -7 363.579 11.7313   4
  -8   2   7 288.046 10.0923   1
  -8   2   7 314.056 10.4797   3
   8   2  -7 324.341 12.2845   1
  -8   2   7 325.722 10.2512  12
   8   2  -7 335.257 10.7230  11
  -6  -2   7 684.647 17.0626  12
   6  -2  -7 653.676 20.0697  13
  -6  -2   7 692.919 17.9800   1
  -6  -2   7 677.533 16.2116   9
   6  -2  -7 686.515 18.4170   1
   6   2  -7 705.052 18.4092   1
  -6   2   7 663.310 16.4238  12
  -6   2   7 716.229 17.9761   1
  -6   2   7 688.968 17.0489   9
  -6   2   7 655.322 21.9303  10
  -6   2   7 737.444 18.0506   3
   6   2  -7 668.737 20.1595  13
   6   2  -7 699.093 17.0163   4
   6   2  -7 670.390 15.6198  11
   4  -2  -7 646.187 16.6920   1
   4  -2  -7 659.618 18.4450  13
  -4  -2   7 628.184 14.9612   6
   4  -2  -7 644.091 14.2912   2
  -4  -2   7 670.808 16.1558  12
  -4  -2   7 649.103 16.5291   1
  -4  -2   7 637.581 20.1747  10
  -4  -2   7 646.959 14.8277   9
   4  -2  -7 660.276 15.5420  14
  -4   2   7 637.415 16.5863   1
  -4   2   7 602.433 14.7794   6
  -4   2   7 642.519 20.6537  10
   4   2  -7 635.757 15.9186   1
  -4   2   7 666.045 15.9182   9
   4   2  -7 647.913 15.9690   4
   4   2  -7 635.002 15.5066  14
  -4   2   7 646.671 15.5979  12
   4   2  -7 656.421 17.0425   7
   2  -2  -7 811.605 18.5439   4
  -2  -2   7 777.943 17.4680   6
   2  -2  -7 785.559 18.6028  14
  -2  -2   7 807.352 18.8749   1
  -2  -2   7 787.846 17.7466   9
  -2  -2   7 785.185 23.3027  10
   2  -2  -7 789.939 18.2027   2
   2  -2  -7 751.670 18.3982   1
  -2  -2   7 818.132 19.0924  12
   2  -2  -7 830.406 20.4343  13
  -2   2   7 820.312 18.8388  12
  -2   2   7 797.933 24.1007  10
  -2   2   7 819.799 19.0146   9
   2   2  -7 823.031 18.9916   4
   2   2  -7 795.007 19.0262  14
  -2   2   7 781.547 17.7951   6
   2   2  -7 807.522 19.0357   7
  -2   2   7 793.620 19.5508   1
   2   2  -7 793.849 18.8197   2
   0  -2   7 756.049 16.4389   6
   0  -2   7 712.800 23.4492  10
   0  -2   7 756.730 17.4282   1
   0  -2  -7 753.852 18.3978   2
   0  -2  -7 761.330 17.5118   4
   0  -2  -7 757.766 18.2272  14
   0  -2   7 733.341 18.5665  12
   0  -2   7 723.510 17.5429   9
   0  -2  -7 767.545 19.6262   8
   0   2   7 740.320 18.5605  12
   0   2   7 761.308 18.8947   9
   0   2  -7 772.030 17.8672   7
   0   2   7 755.659 25.0149  10
   0   2   7 759.016 18.8939   1
   0   2   7 747.896 17.3396   6
   0   2  -7 780.622 18.9584   2
   0   2  -7 783.790 18.3363   4
   0   2  -7 762.416 18.7052  14
  -2  -2  -7 447.523 14.7082   8
  -2  -2  -7 458.335 12.8619  14
  -2  -2  -7 401.336 12.4162   4
  -2  -2  -7 435.406 13.0749   2
   2  -2   7 446.221 10.4046   6
   2  -2   7 414.957 17.9995  10
   2  -2   7 435.478 12.7561   9
   2  -2   7 364.082 11.4984   1
   2   2   7 445.220 13.9179   9
  -2   2  -7 449.549 12.5186   4
  -2   2  -7 470.407 13.2959  14
  -2   2  -7 446.720 14.7096   8
   2   2   7 454.631 13.0983   1
  -2   2  -7 460.023 13.5429   2
   2   2   7 456.121 12.0168   6
  -4  -2  -7 364.502 12.3324   2
  -4  -2  -7 381.097 11.9203  14
   4  -2   7 371.961 12.7245   9
   4  -2   7 372.555 9.28564   6
  -4  -2  -7 365.278 13.9944   8
  -4   2  -7 387.063 14.4417   8
   4   2   7 353.532 11.6450   1
   4   2   7 366.478 13.6105   9
  -4   2  -7 383.464 12.1889  14
  -4   2  -7 373.616 12.5331   2
   4   2   7 372.865 11.1827   6
   6  -2   7 193.891 9.52421   9
  -6  -2  -7 191.160 9.13573   2
  -6  -2  -7 204.301 10.8298   8
   6  -2   7 192.876 6.28270   6
  -6   2  -7 206.390 9.03331   2
  -6   2  -7 205.671 10.7273   8
   6   2   7 203.594 10.6231   9
   6   2   7 197.631 8.15827   6
  11  -3  -7 919.735 23.5015   6
 -11  -3   7 902.122 24.7455   8
  11  -3  -7 902.136 25.3323   1
  11  -3  -7 894.570 24.6755  11
 -11  -3   7 890.280 24.1054  12
 -11   3   7 872.512 23.5932   5
  11   3  -7 916.754 25.7370  11
 -11   3   7 872.436 24.6486   3
  11   3  -7 924.281 26.7642   1
   9  -3  -7 210.030 9.84298   1
   9  -3  -7 217.143 8.51972   6
  -9  -3   7 209.664 8.79399  12
   9  -3  -7 214.107 11.8764  13
  -9  -3   7 220.854 9.54115   1
  -9   3   7 213.668 8.35119  12
   9   3  -7 214.332 10.4808   1
   9   3  -7 216.590 9.24063  11
  -9   3   7 206.898 9.04977   3
   7  -3  -7 1414.64 33.2880   1
   7  -3  -7 1421.67 36.2756  13
  -7  -3   7 1458.59 31.7075  12
  -7  -3   7 1460.79 32.9880   1
   7  -3  -7 1438.08 31.1596   6
  -7   3   7 1384.84 31.6554   1
   7   3  -7 1499.35 31.3597   4
   7   3  -7 1520.99 33.9048   1
  -7   3   7 1475.04 30.9604  12
   7   3  -7 1385.70 30.6801  11
  -7   3   7 1390.20 31.2850   3
  -7   3   7 1457.66 31.8376   9
  -5  -3   7 398.098 15.2239  10
  -5  -3   7 421.050 11.0773   6
  -5  -3   7 426.007 12.6541   1
  -5  -3   7 419.923 11.8789  12
   5  -3  -7 409.033 14.3008  13
   5  -3  -7 433.784 13.1091   1
   5  -3  -7 427.648 11.2055  14
  -5  -3   7 392.773 10.3922   9
  -5   3   7 422.681 11.3977  12
   5   3  -7 416.922 11.9965   4
   5   3  -7 415.163 11.0817  14
   5   3  -7 402.996 12.2119   1
   5   3  -7 434.080 13.4314   7
  -5   3   7 428.709 12.6013   1
  -5   3   7 428.550 12.0282   9
  -5   3   7 423.841 16.3252  10
  -5   3   7 417.883 11.1144   3
  -3  -3   7 1454.75 30.3103  12
  -3  -3   7 1389.10 34.6595  10
   3  -3  -7 1426.86 30.0720  14
   3  -3  -7 1423.75 31.1242   1
  -3  -3   7 1384.12 29.0012   6
   3  -3  -7 1448.00 32.5498  13
  -3  -3   7 1348.15 28.3339   9
   3  -3  -7 1389.48 28.8626   2
  -3  -3   7 1413.67 30.6423   1
  -3   3   7 1409.40 29.3223   6
   3   3  -7 1465.28 31.4651   7
  -3   3   7 1415.46 36.4656  10
  -3   3   7 1425.42 30.5171   9
   3   3  -7 1417.82 30.4400  14
  -3   3   7 1453.10 29.9589  12
  -3   3   7 1417.34 31.3500   1
   3   3  -7 1420.03 30.5615   4
   1  -3  -7 481.961 13.4974  13
   1  -3  -7 464.468 12.5435   2
  -1  -3   7 459.703 11.6042   9
  -1  -3   7 434.839 16.2354  10
   1  -3  -7 430.596 12.2424   1
  -1  -3   7 472.131 11.2681   6
   1  -3  -7 444.246 13.0641   8
  -1  -3   7 460.746 12.8686  12
  -1  -3   7 463.099 12.1968   1
   1  -3  -7 462.164 12.1972   4
   1  -3  -7 468.409 12.6868  14
   1   3  -7 501.855 13.1857   7
  -1   3   7 482.206 12.8470  12
   1   3  -7 485.923 13.3878  14
  -1   3   7 468.073 17.9010  10
  -1   3   7 457.147 13.0015   9
   1   3  -7 458.447 13.0507   2
   1   3  -7 458.866 12.8599   4
  -1   3   7 471.786 13.6748   1
  -1   3   7 445.862 11.9152   6
   1  -3   7 942.593 29.0467  10
   1  -3   7 990.042 20.5722   6
  -1  -3  -7 996.454 21.9217   4
  -1  -3  -7 1013.15 23.4524   2
   1  -3   7 935.378 22.3645   9
  -1  -3  -7 999.345 24.9621   8
   1  -3   7 980.628 21.3523   1
   1  -3   7 1007.77 23.8028  12
  -1  -3  -7 1042.53 23.3431  14
  -1   3  -7 1018.04 24.1750   2
  -1   3  -7 1031.97 23.9806  14
  -1   3  -7 988.273 22.9886   7
   1   3   7 989.773 30.8308  10
   1   3   7 1003.49 24.1699   1
  -1   3  -7 1014.88 23.4227   4
   1   3   7 1028.31 22.5975   6
   1   3   7 1014.54 24.3893   9
   3  -3   7 321.799 7.95300   6
  -3  -3  -7 319.220 12.6689   8
  -3  -3  -7 323.056 10.6659  14
   3  -3   7 302.211 10.5687   9
  -3  -3  -7 346.024 11.5094   2
   3   3   7 317.213 11.1865   1
  -3   3  -7 312.171 10.4872   4
  -3   3  -7 328.682 11.4259   2
   3   3   7 317.395 10.2717   6
  -3   3  -7 333.435 11.0761  14
  -3   3  -7 327.542 12.6516   8
   3   3   7 327.123 12.3850   9
   5  -3   7 593.580 13.1555   6
  -5  -3  -7 624.414 20.0964   8
  -5  -3  -7 604.539 17.7424   2
  -5  -3  -7 580.205 16.3155  14
  -5   3  -7 610.174 19.3617   8
   5   3   7 621.094 19.5853   9
   5   3   7 593.957 17.0571   1
  -5   3  -7 568.601 17.1374   2
   5   3   7 599.415 16.4312   6
 -12   4   7 115.575 7.94931   3
  10  -4  -7 114.714 6.57617   6
  10  -4  -7 106.643 7.29612   1
 -10  -4   7 122.531 7.33895  12
  10  -4  -7 99.6788 9.10600  13
 -10  -4   7 120.720 7.66141   8
 -10   4   7 122.278 7.47724   3
  10   4  -7 119.289 7.76368  11
  10   4  -7 129.413 8.67539   1
 -10   4   7 120.866 7.13093   5
  10   4  -7 117.954 8.76028   7
 -10   4   7 120.700 6.38801  12
  -8  -4   7 66.5479 5.43963   1
   8  -4  -7 72.4329 7.33149  13
  -8  -4   7 63.3123 4.81997  12
   8  -4  -7 69.3756 5.27542   1
   8  -4  -7 61.7188 4.60522   6
  -8   4   7 82.3194 4.61271  12
   8   4  -7 62.6329 6.09507   7
   8   4  -7 73.2485 6.01111   1
   8   4  -7 61.5008 4.67427  11
  -8   4   7 67.9661 4.87492   9
  -8   4   7 59.0146 4.74527   3
   6  -4  -7 199.234 10.0224  13
   6  -4  -7 189.118 8.31461   1
  -6  -4   7 196.727 6.92797   6
  -6  -4   7 202.376 8.59733   1
  -6  -4   7 189.717 7.36733  12
   6  -4  -7 188.181 7.03401   6
   6  -4  -7 170.044 6.42230  14
   6   4  -7 191.713 8.86106   7
  -6   4   7 191.954 7.81362   1
  -6   4   7 185.984 7.56178   9
   6   4  -7 192.405 6.75878  11
  -6   4   7 185.925 10.7007  10
   6   4  -7 191.666 8.33241   1
   6   4  -7 157.730 6.58556  14
  -6   4   7 179.892 7.14813   3
  -6   4   7 190.495 6.83195  12
   6   4  -7 201.128 7.41075   4
  -4  -4   7 31.3301 2.53710   6
   4  -4  -7 35.4748 3.35790   1
  -4  -4   7 32.0484 4.03319  10
   4  -4  -7 27.5734 3.85456  13
   4  -4  -7 30.5301 2.78083  14
  -4  -4   7 31.6252 3.06733  12
  -4  -4   7 30.9878 3.28256   1
  -4   4   7 32.2990 3.24638   9
   4   4  -7 31.7622 3.14856   4
  -4   4   7 31.9997 4.26559  10
   4   4  -7 29.3876 2.62711  14
  -4   4   7 29.9011 2.59868   3
   4   4  -7 33.2364 3.40317   7
  -4   4   7 31.7262 2.75311  12
  -4   4   7 41.9966 3.70203   1
  -2  -4   7 51.6090 4.81016  10
  -2  -4   7 47.5083 3.60511  12
   2  -4  -7 50.1018 3.45301  14
   2  -4  -7 56.1826 4.34799  13
  -2  -4   7 52.2386 3.06632   6
  -2  -4   7 52.6950 3.62011   1
   2  -4  -7 44.5791 3.61472   1
   2  -4  -7 51.2920 3.31531   2
  -2   4   7 58.5863 4.46767   1
   2   4  -7 53.7770 4.08276  14
  -2   4   7 51.9433 3.54068  12
   2   4  -7 56.2684 4.24250   7
  -2   4   7 53.1060 4.07094   9
  -2   4   7 48.0176 3.09732   6
  -2   4   7 53.6501 5.52263  10
  -2   4   7 51.0593 3.18672   3
   2   4  -7 50.7645 3.94802   4
   0  -4   7 66.3361 4.40514  12
   0  -4  -7 77.0991 4.40223  14
   0  -4  -7 68.3244 3.91369   4
   0  -4  -7 73.9463 4.55788   2
   0  -4  -7 60.8544 4.44433   8
   0  -4   7 67.6203 3.61878   1
   0  -4   7 62.4860 5.91505  10
   0  -4   7 69.8605 3.25055   6
   0   4   7 74.0248 4.54403  12
   0   4  -7 70.2378 4.80933   2
   0   4   7 79.5920 5.08437   1
   0   4   7 67.4805 4.59198   9
   0   4   7 65.6681 7.03134  10
   0   4  -7 68.7174 4.63582   4
   0   4  -7 67.4363 4.59004   7
   0   4   7 74.2765 4.24010   6
   0   4  -7 72.1778 4.57437  14
  -2  -4  -7 3.70131 2.19262   8
   2  -4   7 4.15116 1.01310   6
  -2  -4  -7 2.79904 1.68242  14
   2  -4   7 8.77686 2.33661  12
  -2  -4  -7 0.93943 1.79095   2
   2   4   7 1.53503 1.43092   6
   2   4   7 1.70232 2.08472   9
  -2   4  -7 0.42240 1.20227  14
  -2   4  -7 1.14559 1.50140   7
  -2   4  -7 2.37731 1.69837   4
  -2   4  -7 1.89410 1.43386   2
  -4  -4  -7 54.0959 4.46495  14
   4  -4   7 45.9661 2.23700   6
  -4  -4  -7 42.4831 4.55123   2
  -4  -4  -7 46.7099 5.08097   8
   4   4   7 48.0667 4.74711   1
  -4   4  -7 50.7390 4.22040  14
  -4   4  -7 50.7972 4.66595   2
   4   4   7 47.2758 4.24749   6
   4   4   7 54.4942 5.32595   9
  -4   4  -7 49.5706 5.35173   8
   6  -4   7 7.07081 1.07321   6
  -6  -4  -7 4.89255 3.23221   8
  -6  -4  -7 10.9449 3.12926   2
  -6   4  -7 6.83090 2.82513   8
   6   4   7 4.81930 2.20805   1
   6   4   7 11.7467 3.70060   9
   6   4   7 5.21353 2.10795   6
  11  -5  -7 155.849 8.79733  11
  11  -5  -7 141.571 7.65192   6
 -11  -5   7 136.821 8.42312   8
  11  -5  -7 141.436 8.71034   1
 -11   5   7 159.185 8.94440   3
  11   5  -7 151.296 9.96586   1
 -11   5   7 136.979 8.12022   5
  11   5  -7 139.783 9.07293  11
  11   5  -7 160.440 10.2212   7
   9  -5  -7 475.536 14.3829   6
  -9  -5   7 469.643 14.7327  12
  -9  -5   7 453.226 15.2993   1
   9  -5  -7 441.528 15.3112   1
   9  -5  -7 435.462 18.9702  13
   9   5  -7 449.371 16.5786   1
   9   5  -7 459.136 14.9948  11
  -9   5   7 468.348 14.4596   5
  -9   5   7 467.023 15.1682   3
   9   5  -7 432.735 16.5706   7
   7  -5  -7 332.135 14.6304  13
  -7  -5   7 334.078 11.1718  12
  -7  -5   7 338.309 12.3249   1
   7  -5  -7 332.321 12.3586   1
   7  -5  -7 331.287 10.7058   6
  -7   5   7 318.950 11.2324   3
   7   5  -7 387.362 13.7791   7
  -7   5   7 339.685 11.3815   9
   7   5  -7 329.839 12.4225   1
   7   5  -7 328.451 10.7261  11
  -7   5   7 341.853 10.0454  12
  -5  -5   7 1318.28 27.8434   6
   5  -5  -7 1328.66 30.6796   1
  -5  -5   7 1274.48 28.2856  12
   5  -5  -7 1302.33 32.4553  13
   5  -5  -7 1259.02 27.9188  14
  -5  -5   7 1283.17 30.1124   1
   5   5  -7 1307.05 30.7513   7
  -5   5   7 1283.68 27.2330  12
   5   5  -7 1294.03 29.1989   4
  -5   5   7 1301.90 29.4806   1
   5   5  -7 1254.67 28.9016   1
  -5   5   7 1310.53 28.9356   9
  -5   5   7 1249.25 34.2435  10
  -5   5   7 1241.97 28.2475   3
   5   5  -7 1272.37 28.0483  14
  -3  -5   7 690.860 17.1207  12
   3  -5  -7 644.809 15.7425   2
  -3  -5   7 693.054 17.7960   1
   3  -5  -7 717.464 17.5004  14
   3  -5  -7 700.509 18.6849   1
   3  -5  -7 698.117 19.3860  13
  -3  -5   7 704.473 16.5128   6
  -3   5   7 685.900 16.4695  12
  -3   5   7 705.594 18.6475   1
   3   5  -7 675.828 17.7323  14
   3   5  -7 699.960 18.7782   7
  -3   5   7 744.177 18.0393   9
  -3   5   7 688.941 22.5345  10
  -3   5   7 671.007 16.7746   3
   3   5  -7 694.178 17.9890   4
  -1  -5   7 1471.03 30.0091   6
  -1  -5   7 1455.72 31.6612  12
   1  -5  -7 1477.93 31.9255  14
   1  -5  -7 1461.40 31.4101   2
   1  -5  -7 1429.49 32.2524   1
   1  -5  -7 1431.56 31.7481   8
  -1  -5   7 1460.33 31.0384   1
   1   5  -7 1493.35 33.1599   7
  -1   5   7 1463.31 31.4036  12
   1   5  -7 1455.51 32.8521  14
  -1   5   7 1490.61 32.7305   9
   1   5  -7 1514.28 32.9142   4
  -1   5   7 1492.18 33.7035   1
  -1   5   7 1454.11 39.0030  10
  -1   5   7 1466.12 31.2665   6
  -1  -5  -7 467.629 13.6439   2
   1  -5   7 444.310 13.3093  12
  -1  -5  -7 451.002 13.2980  14
   1  -5   7 473.446 11.0691   6
  -1  -5  -7 446.989 14.3581   8
  -1   5  -7 455.325 13.8766   4
  -1   5  -7 459.994 14.1491   2
   1   5   7 459.090 13.2770   6
  -1   5  -7 459.772 14.2328  14
   1   5   7 456.561 14.8624   1
  -1   5  -7 460.143 14.0974   7
   1   5   7 453.715 14.5434   9
   3  -5   7 588.793 12.7539   6
  -3  -5  -7 599.873 17.1364   2
  -3  -5  -7 581.504 18.5345   8
  -3  -5  -7 604.745 16.6154  14
  -3   5  -7 587.492 16.8517   4
  -3   5  -7 584.303 17.2108   2
   3   5   7 594.320 18.2338   1
   3   5   7 590.424 16.6903   6
  -3   5  -7 585.991 17.1883  14
   3   5   7 599.275 18.7001   9
   5  -5   7 143.664 3.99386   6
  -5  -5  -7 145.104 7.92966   2
  -5  -5  -7 161.969 9.30091   8
   5   5   7 138.838 7.39276   6
  -5   5  -7 138.456 7.47596   2
   5   5   7 132.695 7.72347   1
   5   5   7 156.134 9.13198   9
  10  -6  -7 56.9133 5.79771   1
  10  -6  -7 58.5535 5.23463   6
 -10  -6   7 57.1303 6.01936   8
  10   6  -7 60.9270 6.19801  11
  10   6  -7 60.6464 6.70346   1
 -10   6   7 57.5681 5.35266   3
 -10   6   7 64.5698 5.16080   5
  10   6  -7 52.9361 5.83715   7
  -8  -6   7 126.293 6.89501  12
  -8  -6   7 120.691 7.61196   1
   8  -6  -7 136.991 10.0958  13
   8  -6  -7 149.508 7.06177   6
   8  -6  -7 129.833 7.80471   1
   8   6  -7 119.965 6.85766  11
  -8   6   7 132.252 7.11605   9
   8   6  -7 127.752 8.12763   7
  -8   6   7 121.733 7.11485   3
   8   6  -7 125.967 7.70428   1
   6  -6  -7 7.87443 1.66532  14
  -6  -6   7 6.24108 2.44366   1
   6  -6  -7 5.75293 2.43839   1
  -6  -6   7 6.70084 2.06295  12
   6  -6  -7 4.24483 2.26746  13
   6   6  -7 3.66411 1.98111   7
   6   6  -7 5.07099 2.12174   1
  -6   6   7 8.46373 2.11186   3
   6   6  -7 4.72310 1.99799   4
  -6   6   7 3.91976 1.62620   9
   6   6  -7 11.6578 2.27752  11
  -6   6   7 9.63834 2.26746   1
  -4  -6   7 90.0656 4.69213   6
   4  -6  -7 108.739 7.05007  13
   4  -6  -7 92.9899 6.09455   1
  -4  -6   7 82.6788 4.69567  12
  -4  -6   7 83.8381 5.28818   1
   4  -6  -7 79.8893 4.89647  14
   4   6  -7 83.4417 5.95175   7
  -4   6   7 86.6112 5.55916   1
  -4   6   7 91.0902 5.09602   3
  -4   6   7 77.6978 7.00292  10
   4   6  -7 86.7623 5.48557   4
   4   6  -7 87.8725 5.07698  14
  -4   6   7 88.6335 5.10558   9
   2  -6  -7 11.8206 2.01771   2
  -2  -6   7 12.7903 2.00525   6
  -2  -6   7 16.4163 2.46589  12
  -2  -6   7 17.6864 2.63534   1
   2  -6  -7 12.0308 2.42297  14
   2  -6  -7 13.8453 2.69454  13
   2  -6  -7 14.3885 2.77527   1
   2   6  -7 26.3714 3.75278   7
   2   6  -7 20.2442 3.30793   4
  -2   6   7 14.9732 2.55618   3
  -2   6   7 16.2978 2.91334   1
  -2   6   7 14.9524 3.69079  10
  -2   6   7 15.8827 2.25432  12
  -2   6   7 15.1292 2.79280   9
   2   6  -7 15.9240 2.89544  14
   0  -6  -7 2.91706 1.65287   2
   0  -6   7 -0.8780 1.17473  12
   0  -6  -7 0.08367 1.34775   8
   0  -6   7 3.11723 1.10086   6
   0  -6   7 5.56407 1.53268   1
   0  -6  -7 1.47799 1.60963  14
   0   6   7 1.29113 1.32509  12
   0   6  -7 1.24618 1.84803   4
   0   6   7 1.13326 2.32597  10
   0   6  -7 1.93560 1.84982  14
   0   6   7 1.19068 1.87339   1
   0   6   7 -0.5137 1.34108   9
   0   6  -7 -0.7693 1.61112   7
   0   6   7 1.14215 1.39732   6
  -2  -6  -7 33.2343 4.09659   2
  -2  -6  -7 34.8298 4.37516   8
   2  -6   7 35.1938 2.31549   6
  -2  -6  -7 32.4642 3.94423  14
   2   6   7 36.4682 4.59077   9
   2   6   7 44.3451 4.92528   1
  -2   6  -7 42.4681 4.55148   4
   2   6   7 40.9876 4.02393   6
  -2   6  -7 46.4417 5.00258  14
  -2   6  -7 38.1102 4.44668   7
  -4  -6  -7 0.91724 2.37359   8
  -4  -6  -7 1.46377 1.81732  14
  -4  -6  -7 2.43711 2.39388   2
   4  -6   7 0.89462 0.74757   6
   4   6   7 0.14608 1.73537   6
  -4   6  -7 0.32428 1.89903   4
   4   6   7 1.80353 1.90450   1
   4   6   7 3.04430 2.76095   9
  -4   6  -7 0.47876 1.90633  14
  -9  -7   7 910.901 25.5085   8
  -9  -7   7 874.391 23.6410  12
   9  -7  -7 921.230 23.3722   6
  -9  -7   7 936.447 25.6858   1
   9  -7  -7 911.736 25.3801   1
  -9   7   7 914.485 23.5067   5
   9   7  -7 897.116 24.6318  11
   9   7  -7 901.997 26.3096   7
   9   7  -7 889.707 26.3244   1
  -9   7   7 903.210 24.9110   3
   7  -7  -7 225.418 12.7085  13
  -7  -7   7 226.452 10.4883   1
   7  -7  -7 235.267 10.6534   1
  -7  -7   7 220.405 8.95785  12
  -7   7   7 224.873 9.34818   9
  -7   7   7 238.867 10.0184   3
   7   7  -7 220.845 9.06341  11
   7   7  -7 213.212 10.5155   7
  -5  -7   7 887.927 21.4569  12
   5  -7  -7 880.259 22.0958  14
  -5  -7   7 938.892 21.7946   6
   5  -7  -7 911.197 26.3642  13
   5  -7  -7 925.738 24.4647   1
  -5  -7   7 937.672 24.1771   1
  -5   7   7 859.769 27.3424  10
   5   7  -7 864.200 22.6148   4
  -5   7   7 900.003 22.6496   3
   5   7  -7 896.071 24.5345   7
  -5   7   7 905.071 22.3082   9
  -5   7   7 930.752 23.2738   1
  -3  -7   7 140.064 7.16872   1
   3  -7  -7 148.414 7.16806  14
   3  -7  -7 134.715 7.59187  13
  -3  -7   7 141.424 6.22190   6
   3  -7  -7 149.111 7.92706   1
   3   7  -7 149.993 7.60295   4
  -3   7   7 183.969 10.4403  10
   3   7  -7 136.736 7.10844  14
   3   7  -7 147.769 8.11193   7
  -3   7   7 149.203 7.07722   9
  -3   7   7 143.093 7.39583   1
  -3   7   7 139.860 6.83868   3
   1  -7  -7 655.899 18.5942   1
   1  -7  -7 678.001 17.8884  14
  -1  -7   7 693.244 16.1440   6
  -1  -7   7 642.187 17.0173   1
   1  -7  -7 673.794 17.0378   2
  -1   7   7 655.673 19.5594   1
  -1   7   7 627.774 17.8641   3
   1   7  -7 652.180 18.7716  14
   1   7  -7 662.784 19.4561   7
  -1   7   7 651.849 18.1616   9
   1   7  -7 675.081 18.9570   4
  -1   7   7 619.570 22.6140  10
  -1  -7  -7 197.356 8.24505  14
  -1  -7  -7 190.816 8.25986   2
   1  -7   7 174.712 6.03439   6
  -1   7  -7 183.359 9.18871   7
   1   7   7 173.347 9.37707   1
  -1   7  -7 178.851 8.94090  14
  -1   7  -7 186.912 8.68883   4
   1   7   7 161.235 7.39673  12
   1   7   7 216.148 9.66551   9
   3  -7   7 551.863 12.6206   6
  -3  -7  -7 540.595 17.8612   8
  -3  -7  -7 570.970 16.5972  14
  -3  -7  -7 589.751 17.2834   2
  -3   7  -7 565.327 17.4136   4
  -3   7  -7 558.804 17.5608  14
   3   7   7 567.543 18.4084   9
   3   7   7 536.395 16.6449   6
   3   7   7 566.887 18.9753   1
  -3   7  -7 573.246 18.2414   7
  10  -8  -7 115.251 6.93517   6
  10  -8  -7 102.274 7.52573   1
 -10  -8   7 112.096 8.31623   8
  10   8  -7 106.991 8.18531   1
 -10   8   7 116.112 7.23226   5
  10   8  -7 104.339 7.90739  11
 -10   8   7 110.712 7.96482   3
   8  -8  -7 330.525 13.4178   1
  -8  -8   7 333.041 13.8052   1
   8   8  -7 340.530 14.3592   7
  -8   8   7 323.351 11.4143   5
  -8   8   7 314.545 12.8241   3
  -8   8   7 318.802 11.7760   9
   8   8  -7 329.650 12.4322  11
   6  -8  -7 157.068 10.4520  13
  -6  -8   7 151.871 8.68834   1
   6  -8  -7 155.324 8.47344   1
   6   8  -7 159.908 7.48536  11
   6   8  -7 154.974 8.86476   7
  -6   8   7 156.181 8.07511   3
  -6   8   7 166.054 7.64618   9
   4  -8  -7 613.524 19.8793  13
   4  -8  -7 601.210 18.7693   1
  -4  -8   7 593.840 17.7945   1
  -4  -8   7 575.457 15.9289   6
  -4   8   7 586.409 17.1523   3
   4   8  -7 579.519 17.5239   4
   4   8  -7 596.575 18.8119   7
  -4   8   7 587.377 17.5210   1
  -4   8   7 605.634 16.7614   9
  -2  -8   7 418.899 13.3666   1
   2  -8  -7 447.897 14.1185  14
  -2  -8   7 446.906 12.5831   6
   2  -8  -7 427.313 14.9096   1
   2   8  -7 432.651 15.3849   7
  -2   8   7 429.257 13.7322   9
  -2   8   7 411.805 13.6564   3
   2   8  -7 441.381 14.8613   4
  -2   8   7 426.404 14.9600   1
   0  -8   7 270.850 8.74868   6
   0  -8  -7 294.817 10.1646   2
   0  -8   7 262.917 9.05997   1
   0  -8  -7 288.891 10.8219  14
   0   8  -7 289.393 12.1855   7
   0   8   7 272.962 11.1645   3
   0   8  -7 283.559 11.6225   4
   0   8   7 275.008 11.1045   9
   0   8   7 270.804 12.1597   1
   2  -8   7 505.589 12.5234   6
  -2  -8  -7 513.506 15.7170   2
  -2  -8  -7 501.014 15.6290  14
   2   8   7 473.772 17.3876   1
  -2   8  -7 508.563 17.3659   7
   2   8   7 505.580 17.0617   9
  -2   8  -7 503.853 16.7229   4
  -4  -8  -7 110.595 7.26444   2
  -4  -8  -7 97.4881 6.38183  14
   4  -8   7 104.406 3.87133   6
  -4   8  -7 101.107 7.04585   4
   4   8   7 104.849 8.01876   9
   4   8   7 106.297 7.79120   1
  -9  -9   7 28.4717 5.02561   8
   9  -9  -7 26.1796 4.34111   1
   9   9  -7 25.6899 4.43813  11
  -9   9   7 41.3982 5.58066   3
  -7  -9   7 743.061 22.5367   1
   7  -9  -7 733.050 22.1301   1
   7   9  -7 714.035 22.5513   7
  -7   9   7 735.130 19.9573   9
   7   9  -7 680.786 19.8846  11
  -7   9   7 721.072 21.4177   3
   5  -9  -7 104.285 8.47840  13
  -5  -9   7 108.436 6.17320   6
   5  -9  -7 129.381 8.30935   1
  -5  -9   7 114.934 7.62843   1
   5   9  -7 114.370 7.06548   4
  -5   9   7 101.439 6.20521   9
   5   9  -7 120.335 7.96818   7
  -5   9   7 111.761 6.80576   3
  -3  -9   7 1531.36 35.0761   1
  -3  -9   7 1466.00 32.8210   6
   3  -9  -7 1567.18 36.9679   1
  -3   9   7 1416.42 35.1146   1
   3   9  -7 1495.92 37.0573   7
  -3   9   7 1527.75 34.1711   9
  -3   9   7 1428.49 34.7338   3
   3   9  -7 1460.65 35.4031   4
  -1  -9   7 140.048 6.91668   1
  -1  -9   7 154.941 6.69371   6
   1  -9  -7 140.402 8.06820   1
   1  -9  -7 153.647 8.06598  14
  -1   9   7 154.302 8.95009   1
  -1   9   7 137.711 7.62786   9
   1   9  -7 144.662 9.12365   7
  -1   9   7 138.937 7.76906   3
   1   9  -7 142.310 8.14650   4
  -1  -9  -7 1173.52 28.4931  14
   1  -9   7 1171.88 25.2755   6
   1   9   7 1130.71 28.9196   9
  -1   9  -7 1137.85 30.5763   7
   1   9   7 1133.52 31.0045   1
   1   9   7 1097.37 29.5966   3
  -1   9  -7 1126.26 29.6701   4
  -3  -9  -7 25.5268 3.79373   2
   3  -9   7 29.0459 2.51255   6
  -3  -9  -7 26.9809 3.68668  14
   3   9   7 19.8483 4.22657   9
  -3   9  -7 25.3506 4.38386   7
  -3   9  -7 29.6131 4.68308   4
   3   9   7 27.6898 5.13659   1
  -8 -10   7 16.5596 4.28837   1
   8 -10  -7 18.1571 4.24249   1
  -8 -10   7 12.9049 3.59988   8
   8  10  -7 13.7059 4.89093  11
   8  10  -7 16.5491 4.39800   7
  -8  10   7 19.5854 3.84605   3
   6 -10  -7 34.1281 5.05274   1
  -6 -10   7 30.4657 4.96703   1
  -6  10   7 32.3286 3.99211   9
   6  10  -7 25.6469 4.80185   7
  -6  10   7 35.4428 4.86406   3
  -4 -10   7 5.82935 1.83184   6
   4 -10  -7 4.97864 3.18622  13
  -4 -10   7 12.2484 3.24798   1
   4 -10  -7 10.9464 3.52108   1
  -4  10   7 10.7741 2.76806   9
   4  10  -7 19.0721 4.51575   7
   4  10  -7 8.95639 2.53626   4
  -4  10   7 14.3372 3.37326   3
   2 -10  -7 3.55929 2.83812   1
  -2 -10   7 1.36024 1.73375   6
   2 -10  -7 4.01513 2.75370  14
  -2 -10   7 2.47932 2.06774   1
  -2  10   7 3.44073 2.52870   1
  -2  10   7 3.57935 2.24334   9
   2  10  -7 3.99949 2.25429   4
  -2  10   7 5.13989 2.72254   3
   2  10  -7 5.84877 2.72802   7
   0 -10  -7 17.4184 3.59008  14
   0 -10   7 16.4385 2.73583   6
   0  10   7 9.29742 3.54857   1
   0  10   7 17.8363 3.65812   3
   0  10  -7 14.8543 3.72278   7
   0  10   7 13.4305 3.28664   9
   0  10  -7 20.9030 4.30018   4
  -2 -10  -7 9.39235 3.02354   2
   2 -10   7 10.4215 1.87888   6
  -2 -10  -7 7.88873 3.01094  14
   2  10   7 10.0702 3.64170   3
   2  10   7 12.6183 3.49817   1
   2  10   7 9.37046 3.10421   9
  -2  10  -7 10.0769 3.71997   7
  -2  10  -7 9.56550 3.46314   4
   5 -11  -7 169.008 10.1478   1
  -5  11   7 153.655 8.71326   3
   5  11  -7 156.966 10.2338   7
   3 -11  -7 304.452 13.5864   1
  -3 -11   7 297.625 12.4105   1
  -3 -11   7 266.082 10.5835   6
   3  11  -7 273.934 13.5696   7
  -3  11   7 280.701 12.3149   3
  -1 -11   7 57.3013 4.96766   1
  -1 -11   7 60.1011 4.67096   6
   1 -11  -7 61.7809 6.08770  14
   1 -11  -7 57.5830 6.39686   1
   1  11  -7 62.6810 6.83784   4
  -1  11   7 63.8590 5.83301   3
  -1  11   7 50.9728 6.31922   1
   1  11  -7 71.4156 7.36319   7
  12   0  -8 351.863 14.0718  11
  12   0  -8 351.103 14.6609   1
 -12   0   8 362.602 12.7918   5
 -10   0   8 60.7284 5.18902  12
  10   0  -8 60.9804 6.18429   1
   8   0  -8 1505.50 39.1306  13
   8   0  -8 1595.52 36.8231   1
  -8   0   8 1581.39 35.1190   1
  -8   0   8 1521.20 33.9376   9
   8   0  -8 1552.01 34.2110   4
  -8   0   8 1575.34 34.2481  12
   6   0  -8 365.176 11.1502   4
  -6   0   8 372.360 11.2006  12
   6   0  -8 355.847 13.8141  13
   6   0  -8 336.661 9.74238  14
   6   0  -8 352.945 12.0078   1
  -6   0   8 365.478 11.9120   1
  -6   0   8 365.542 10.6999   9
  -6   0   8 357.222 15.6107  10
  -4   0   8 3642.87 69.2609   6
   4   0  -8 3595.27 70.0638  14
   4   0  -8 3626.75 70.3664   4
  -4   0   8 3685.25 71.6511   1
  -4   0   8 3618.50 70.4300  12
   4   0  -8 3659.63 73.9849  13
  -4   0   8 3511.27 77.4512  10
  -4   0   8 3607.84 69.7931   9
   4   0  -8 3481.40 70.3035   1
   4   0  -8 3654.42 69.1979   2
   2   0  -8 220.387 7.75236   4
  -2   0   8 225.574 8.35823   1
  -2   0   8 216.393 7.83447   9
   2   0  -8 214.158 7.73781   2
   2   0  -8 229.917 7.56037   7
  -2   0   8 222.783 7.20583   6
   2   0  -8 223.827 8.02727  14
  -2   0   8 197.832 11.3726  10
  -2   0   8 222.808 8.36012  12
   0   0   8 2512.32 51.7047   9
   0   0   8 2524.18 49.7357   6
   0   0   8 2518.24 51.1412   1
   0   0  -8 2570.59 50.8525   4
   0   0   8 2559.06 52.3451  12
   0   0  -8 2529.99 51.5346  14
   0   0  -8 2532.74 51.9041   2
   0   0   8 2479.95 60.6627  10
   0   0  -8 2518.48 53.5413   8
   2   0   8 9.74301 2.03461   1
  -2   0  -8 11.3017 2.48396  14
   2   0   8 21.6077 3.23637   9
   2   0   8 9.11975 1.76902   6
  -2   0  -8 11.3712 2.41611   2
  -2   0  -8 9.65980 2.74293   8
  -2   0  -8 10.6697 2.06744   4
  -4   0  -8 975.802 25.0614   2
   4   0   8 999.269 22.3535   6
   4   0   8 968.184 25.8879   9
  -4   0  -8 1009.47 27.7984   8
  -4   0  -8 958.468 24.1369  14
 -11  -1   8 1.76974 2.16219   8
 -11  -1   8 0.54891 2.23885  12
 -11  -1   8 2.52966 2.18405   5
  11  -1  -8 2.12991 2.77122   1
  11  -1  -8 -0.0744 2.43578  11
 -11   1   8 3.23476 2.24518  12
 -11   1   8 2.42442 2.46719   5
  11   1  -8 -1.3578 2.22473  11
  11   1  -8 1.17013 1.93467   1
  -9  -1   8 215.109 8.95275  12
   9  -1  -8 197.382 9.96263   1
   9  -1  -8 200.855 8.39305   4
   9  -1  -8 195.461 11.5913  13
  -9  -1   8 205.331 9.09387   1
   9   1  -8 202.669 11.5761  13
   9   1  -8 196.829 10.0220   1
  -9   1   8 207.986 8.61096  12
   7  -1  -8 2.51043 1.48447   1
   7  -1  -8 3.26849 1.97022  13
   7  -1  -8 3.26397 1.69450   4
  -7  -1   8 1.24369 1.26266   9
  -7  -1   8 1.10331 1.67910   1
  -7   1   8 6.91474 2.10614   1
   7   1  -8 6.59816 2.81749  13
   7   1  -8 6.42518 2.23816   1
   7   1  -8 0.99113 1.40538   4
  -7   1   8 1.69962 1.50374   9
  -7   1   8 2.70914 1.30643  12
   5  -1  -8 143.055 7.88870  13
  -5  -1   8 146.804 6.49734  12
   5  -1  -8 141.276 6.78087   1
  -5  -1   8 134.142 5.61456   9
  -5  -1   8 148.570 7.00028   1
   5  -1  -8 143.761 6.45780   4
  -5  -1   8 140.889 9.07085  10
  -5  -1   8 138.827 5.48999   6
   5  -1  -8 145.540 5.87469  14
   5   1  -8 142.914 6.24097   4
   5   1  -8 150.747 5.93016  14
   5   1  -8 153.232 8.16940  13
   5   1  -8 140.916 6.45341   1
  -5   1   8 144.574 6.77823   1
  -5   1   8 135.367 5.42366   6
  -5   1   8 150.629 6.27745  12
  -5   1   8 150.940 6.34161   9
  -5   1   8 138.649 9.27285  10
   3  -1  -8 203.427 7.50148   1
  -3  -1   8 208.592 11.2343  10
   3  -1  -8 213.947 7.77059  14
  -3  -1   8 217.169 8.12940  12
   3  -1  -8 207.204 7.20984   2
  -3  -1   8 211.282 8.21039   1
  -3  -1   8 214.818 7.41520   9
   3  -1  -8 215.820 9.42588  13
   3  -1  -8 216.169 7.64893   4
  -3  -1   8 222.677 7.23677   6
   3   1  -8 219.713 7.91357   4
   3   1  -8 204.834 7.68215  14
  -3   1   8 226.358 8.13394  12
   3   1  -8 218.577 8.08795   7
   3   1  -8 205.795 7.48489   2
  -3   1   8 232.914 8.64827   1
  -3   1   8 210.201 7.77834   9
  -3   1   8 208.769 11.4579  10
  -3   1   8 215.486 7.09960   6
   1  -1  -8 6.30468 1.52111   4
   1  -1  -8 7.71209 1.80588  14
   1  -1  -8 15.3685 2.37111   2
  -1  -1   8 5.46155 1.66747   1
  -1  -1   8 6.06307 1.75646   9
  -1  -1   8 4.27255 2.53046  10
  -1  -1   8 6.57065 1.48197   6
  -1  -1   8 9.07339 2.23604  12
   1   1  -8 5.28607 1.47906   7
  -1   1   8 5.67860 2.91218  10
   1   1  -8 5.37541 1.87460   2
   1   1  -8 5.43976 1.53603   4
  -1   1   8 6.19316 1.67241   1
  -1   1   8 7.61818 2.08759   9
   1   1  -8 8.04591 2.03547  14
  -1   1   8 6.18866 1.54689   6
  -1   1   8 6.72941 2.03663  12
   1  -1   8 286.395 8.37591   6
  -1  -1  -8 287.476 9.88863  14
  -1  -1  -8 286.353 9.07739   4
  -1  -1  -8 278.032 10.0589   2
   1  -1   8 284.078 10.4637  12
  -1  -1  -8 280.263 11.4843   8
   1  -1   8 271.056 9.97414   9
   1  -1   8 282.372 9.00525   1
   1  -1   8 278.632 15.4291  10
   1   1   8 271.573 10.4501   9
  -1   1  -8 283.680 9.98408  14
  -1   1  -8 279.822 9.37444   4
   1   1   8 282.797 8.84284   6
   1   1   8 277.216 9.76798   1
  -1   1  -8 285.424 11.4013   8
  -1   1  -8 274.456 10.1520   2
   1   1   8 283.406 10.6140  12
   3  -1   8 33.6747 2.66300   6
   3  -1   8 22.9574 3.79070   9
  -3  -1  -8 23.5675 4.10449   8
  -3  -1  -8 26.3165 3.49547  14
  -3  -1  -8 23.2921 3.61178   2
   3   1   8 25.1823 3.25390   1
  -3   1  -8 29.7068 4.86058   8
  -3   1  -8 22.7798 3.08945  14
   3   1   8 25.3292 4.27341   9
   3   1   8 29.4911 3.14854   6
  -3   1  -8 23.9690 3.78866   2
  -5  -1  -8 27.3803 4.75871   8
   5  -1   8 36.7459 3.04361   6
   5  -1   8 32.6285 4.78059   9
  -5  -1  -8 41.5445 4.94801   2
   5   1   8 35.8167 5.24757   9
  -5   1  -8 39.6890 5.34304   8
   5   1   8 32.8129 3.29860   6
  12  -2  -8 174.310 9.83848   1
 -12  -2   8 171.161 9.22943   8
  12   2  -8 202.371 12.0840  11
 -12   2   8 169.053 8.99411   5
  12   2  -8 181.655 10.7909   1
 -10  -2   8 1115.30 28.0631  12
  10  -2  -8 1138.44 30.2847   1
  10  -2  -8 1035.23 33.2104  13
  10   2  -8 1157.53 31.0751   1
 -10   2   8 1164.25 27.5887  12
  10   2  -8 1289.26 31.9322  11
  -8  -2   8 116.116 6.79610   1
   8  -2  -8 114.720 8.66351  13
   8  -2  -8 121.589 7.16328   1
  -8  -2   8 109.957 6.20475  12
  -8   2   8 116.468 6.46989   1
  -8   2   8 120.470 6.45474   9
  -8   2   8 118.615 6.01346  12
   8   2  -8 111.527 5.85207   4
   8   2  -8 121.075 7.47289   1
   6  -2  -8 1034.11 25.1698   1
   6  -2  -8 1038.66 27.7181  13
  -6  -2   8 975.895 23.3383  12
  -6  -2   8 1012.65 24.8387   6
  -6  -2   8 1012.74 24.6399   1
  -6  -2   8 968.738 22.2443   9
   6  -2  -8 967.476 21.9341  14
  -6   2   8 966.580 29.4731  10
  -6   2   8 1029.26 24.5541   1
  -6   2   8 1025.21 23.5441   9
  -6   2   8 1015.67 23.1456  12
   6   2  -8 987.607 23.4241   4
   6   2  -8 950.999 21.8195  14
   6   2  -8 973.683 24.3583   1
  -4  -2   8 129.900 5.26668   9
  -4  -2   8 128.889 6.29109   1
  -4  -2   8 141.188 6.39155  12
  -4  -2   8 137.032 8.86611  10
   4  -2  -8 130.475 5.78275  14
   4  -2  -8 118.811 6.08491   1
   4  -2  -8 125.954 7.13023  13
   4  -2  -8 129.572 6.04140   4
   4  -2  -8 124.681 4.91349   2
  -4  -2   8 153.222 5.59796   6
   4   2  -8 144.142 6.63782   7
  -4   2   8 130.721 6.54111   1
  -4   2   8 135.153 5.99738  12
  -4   2   8 127.259 8.89116  10
  -4   2   8 131.087 6.05713   9
   4   2  -8 123.304 5.70979  14
   4   2  -8 118.536 5.84365   4
  -4   2   8 131.343 5.34932   6
  -2  -2   8 873.717 19.9571   6
  -2  -2   8 885.779 20.3536   9
   2  -2  -8 891.889 20.8853   2
   2  -2  -8 903.560 21.0099   4
   2  -2  -8 907.675 21.3731  14
  -2  -2   8 911.581 21.5390   1
  -2  -2   8 904.990 21.8850  12
  -2  -2   8 861.369 26.7165  10
   2  -2  -8 926.074 23.1618  13
  -2   2   8 903.592 21.5186  12
   2   2  -8 926.733 21.7425   2
  -2   2   8 851.354 27.3291  10
  -2   2   8 895.568 22.3048   1
   2   2  -8 916.938 21.4926   7
   2   2  -8 914.176 21.7819  14
   2   2  -8 911.887 21.5476   4
  -2   2   8 939.583 20.6799   6
  -2   2   8 891.632 21.6734   9
   0  -2   8 447.070 12.3557   1
   0  -2  -8 447.767 13.0913  14
   0  -2  -8 445.801 14.5932   8
   0  -2   8 443.240 12.8574   9
   0  -2  -8 457.374 12.5438   4
   0  -2   8 470.731 14.1177  12
   0  -2   8 449.118 11.6118   6
   0  -2   8 433.469 18.4142  10
   0  -2  -8 461.257 13.6057   2
   0   2  -8 481.805 13.4638   4
   0   2   8 493.449 14.2319  12
   0   2  -8 469.080 13.7750  14
   0   2   8 478.286 14.2907   9
   0   2  -8 428.236 12.3999   7
   0   2   8 457.302 19.7652  10
   0   2   8 498.541 14.3547   1
   0   2   8 465.631 12.6213   6
   0   2  -8 466.096 13.9943   2
   2  -2   8 860.340 22.4287  12
  -2  -2  -8 863.674 21.2690  14
  -2  -2  -8 851.305 21.8668   2
   2  -2   8 807.482 21.2380   9
   2  -2   8 857.618 18.7309   6
  -2  -2  -8 837.942 23.5118   8
  -2   2  -8 866.117 23.9485   8
   2   2   8 819.175 20.0807   6
   2   2   8 850.204 21.4186   1
  -2   2  -8 825.552 21.3494  14
  -2   2  -8 831.849 20.7019   4
   2   2   8 800.578 22.5914   9
  -2   2  -8 868.500 22.1315   2
  -4  -2  -8 511.025 18.0957   8
  -4  -2  -8 516.643 16.1091   2
   4  -2   8 485.093 15.9004   9
   4  -2   8 532.770 12.8061   6
  -4  -2  -8 505.024 15.2667  14
   4   2   8 514.442 14.5620   6
  -4   2  -8 533.482 15.6760  14
   4   2   8 501.783 14.9155   1
  -4   2  -8 523.332 18.2604   8
   4   2   8 526.301 17.8211   9
  -4   2  -8 516.165 16.0821   2
  11  -3  -8 0.77941 2.82240  11
  11  -3  -8 0.84809 2.43964   1
 -11  -3   8 0.55784 2.50820   8
 -11  -3   8 4.74457 2.71121  12
  11   3  -8 0.30507 1.83569   1
 -11   3   8 0.27588 1.34214  12
  11   3  -8 6.15487 3.19612  11
 -11   3   8 -1.5369 2.12042   5
   9  -3  -8 95.2586 6.72224   1
  -9  -3   8 108.170 7.00459   1
   9  -3  -8 112.615 8.79996  13
  -9  -3   8 104.866 6.45011  12
   9   3  -8 115.432 7.51424   1
  -9   3   8 99.2287 5.71024  12
  -9   3   8 108.831 6.49991   9
   7  -3  -8 10.9163 3.47162  13
   7  -3  -8 9.02067 2.60489   1
  -7  -3   8 11.6721 2.53172  12
  -7  -3   8 10.1007 2.38500   1
  -7   3   8 9.15828 2.30894   1
  -7   3   8 8.61824 2.03472  12
   7   3  -8 13.3922 2.34811   4
   7   3  -8 12.8686 2.90879   1
  -7   3   8 10.1380 2.50960   9
   5  -3  -8 23.9848 2.79188  14
  -5  -3   8 21.5778 4.19136  10
  -5  -3   8 23.6451 3.05002  12
   5  -3  -8 25.4964 3.39531   1
  -5  -3   8 17.4805 2.78006   1
  -5  -3   8 24.3866 2.69742   6
   5  -3  -8 21.0111 3.50765  13
  -5   3   8 25.1759 3.22315   9
   5   3  -8 24.2153 3.01101   4
  -5   3   8 21.2196 4.35396  10
  -5   3   8 25.5354 3.27275   1
  -5   3   8 21.1961 2.74796  12
   5   3  -8 22.8471 2.73547  14
   5   3  -8 25.3385 3.16244   1
   5   3  -8 24.6861 3.62090   7
  -3  -3   8 19.8625 2.32615   6
   3  -3  -8 15.6104 2.36180   1
   3  -3  -8 17.3783 2.91708  13
  -3  -3   8 15.3040 2.57504  12
  -3  -3   8 14.1963 3.24453  10
   3  -3  -8 21.6266 2.85658  14
  -3   3   8 21.6480 2.50522   6
   3   3  -8 18.3646 2.75512  14
  -3   3   8 15.2942 3.92286  10
   3   3  -8 17.0924 2.48696   4
   3   3  -8 17.4627 2.68370   7
  -3   3   8 19.5981 2.64228  12
  -3   3   8 17.4290 2.88058   1
  -3   3   8 14.5982 2.46240   9
   1  -3  -8 73.1188 4.67478   2
   1  -3  -8 76.3175 4.80384  14
  -1  -3   8 71.6166 4.94829  12
  -1  -3   8 74.2582 6.88078  10
   1  -3  -8 74.2909 4.32607   4
  -1  -3   8 96.0903 4.21394   6
  -1  -3   8 70.8289 4.25934   1
  -1   3   8 70.8577 7.41337  10
   1   3  -8 72.7790 4.62105   4
   1   3  -8 75.2275 5.06566  14
  -1   3   8 69.2651 5.13354   1
  -1   3   8 76.0916 4.92735  12
   1   3  -8 71.0277 4.98283   2
   1   3  -8 72.8290 4.66429   7
  -1   3   8 80.3820 5.14928   9
  -1   3   8 68.5095 4.15665   6
   1  -3   8 17.3792 2.67791   9
  -1  -3  -8 18.0919 2.78088  14
  -1  -3  -8 18.4559 3.08142   2
   1  -3   8 21.8162 2.34771   1
   1  -3   8 15.6093 3.07058  12
   1  -3   8 22.2337 2.26437   6
  -1  -3  -8 20.1145 2.47074   4
   1  -3   8 15.7237 4.42209  10
  -1  -3  -8 19.3841 3.57044   8
   1   3   8 20.1441 3.06115   1
  -1   3  -8 22.2133 3.65093   2
  -1   3  -8 27.7085 3.46680   4
   1   3   8 22.6373 3.68099   9
  -1   3  -8 23.9311 3.41706  14
   1   3   8 19.2880 2.67708   6
  -3  -3  -8 45.9080 4.34605   2
   3  -3   8 49.7606 2.86943   6
  -3  -3  -8 46.9186 5.80759   8
  -3  -3  -8 49.8235 4.50262  14
   3  -3   8 36.3234 4.33189  12
   3   3   8 45.1333 5.23737   9
   3   3   8 51.5542 4.65411   1
  -3   3  -8 41.7186 4.71561   2
   3   3   8 48.6128 4.09962   6
  -3   3  -8 46.9722 3.86008   4
  -3   3  -8 49.8397 4.48928  14
   5  -3   8 5.45471 2.65945  12
   5  -3   8 9.49869 1.58744   6
  -5  -3  -8 10.9518 2.69264   2
  -5  -3  -8 14.7541 4.29701   8
   5   3   8 7.31461 2.82933   9
   5   3   8 10.7677 2.59090   1
  -5   3  -8 7.18977 2.50744   2
   5   3   8 13.5344 2.72986   6
  -5   3  -8 11.6714 3.71714   8
  10  -4  -8 992.631 26.8184   1
 -10  -4   8 913.194 24.6742  12
 -10  -4   8 946.089 25.6695   1
 -10   4   8 979.671 24.8042   5
  10   4  -8 966.071 27.7490   1
  10   4  -8 976.990 28.7420   7
   8  -4  -8 61.8016 7.00618  13
  -8  -4   8 68.2731 5.41205   1
  -8  -4   8 72.7479 5.33638  12
   8  -4  -8 64.6786 5.78777   1
  -8   4   8 71.2497 5.32848   9
   8   4  -8 72.3220 6.17295   7
   8   4  -8 73.4369 6.12657   1
  -8   4   8 75.0036 4.80592  12
  -6  -4   8 2340.68 47.0895   6
  -6  -4   8 2337.76 48.1786  12
   6  -4  -8 2403.33 50.5687   1
   6  -4  -8 2287.24 46.8545  14
  -6  -4   8 2390.90 50.0014   1
   6  -4  -8 2355.35 53.0638  13
   6   4  -8 2276.98 48.2066   4
   6   4  -8 2314.63 49.0636   1
  -6   4   8 2315.43 56.3916  10
  -6   4   8 2278.07 48.3055   9
   6   4  -8 2354.06 50.7622   7
  -6   4   8 2383.24 47.1671  12
  -6   4   8 2349.84 49.1486   1
   6   4  -8 2218.01 46.5738  14
  -4  -4   8 338.615 11.4787   1
  -4  -4   8 330.431 10.8089  12
  -4  -4   8 348.969 10.1638   6
   4  -4  -8 349.361 11.8949   1
  -4  -4   8 309.912 13.5994  10
   4  -4  -8 329.720 10.5034  14
   4  -4  -8 345.813 12.9497  13
  -4   4   8 322.587 14.8661  10
  -4   4   8 336.872 11.0220   9
   4   4  -8 342.406 11.9267   7
  -4   4   8 343.801 11.6924   1
  -4   4   8 351.208 10.3967  12
   4   4  -8 332.577 11.0771   4
   4   4  -8 330.923 10.8009  14
   2  -4  -8 2252.87 46.5126  14
   2  -4  -8 2245.38 45.8157   2
  -2  -4   8 2236.37 44.9576   6
  -2  -4   8 2282.33 46.4428   1
  -2  -4   8 2259.42 46.8173  12
   2  -4  -8 2313.03 48.3149  13
   2  -4  -8 2191.60 46.7282   1
   2   4  -8 2374.93 47.6707  14
  -2   4   8 2242.26 45.6112   6
   2   4  -8 2256.11 47.4386   7
  -2   4   8 2244.89 48.2015   1
  -2   4   8 2254.22 47.3582   9
  -2   4   8 2297.03 46.4995  12
  -2   4   8 2167.06 54.5006  10
   2   4  -8 2257.15 47.2343   4
   0  -4  -8 153.746 7.14661   2
   0  -4  -8 159.869 6.42146   4
   0  -4   8 140.896 7.05440  12
   0  -4  -8 149.378 7.00025  14
   0  -4   8 145.465 5.89099   1
   0  -4  -8 149.029 7.65045   8
   0  -4   8 155.386 5.64079   6
   0   4   8 144.527 7.69696   1
   0   4   8 149.267 7.18920  12
   0   4  -8 161.236 7.41529  14
   0   4   8 158.455 7.69132   9
   0   4  -8 153.482 7.20291   7
   0   4  -8 155.455 7.67473   2
   0   4   8 156.622 6.76144   6
   0   4  -8 150.364 7.03776   4
  -2  -4  -8 805.823 23.2379   8
   2  -4   8 824.079 18.0174   6
   2  -4   8 796.565 21.7752  12
  -2  -4  -8 837.183 21.8722   2
  -2  -4  -8 818.106 21.1697  14
   2   4   8 843.681 21.0940   6
   2   4   8 814.686 23.1025   9
   2   4   8 841.883 22.6173   1
  -2   4  -8 825.895 21.9353  14
  -2   4  -8 859.385 22.4818   2
  -2   4  -8 830.249 21.4256   4
  -4  -4  -8 24.6127 4.44018   8
  -4  -4  -8 23.1434 3.64811  14
   4  -4   8 30.8633 2.14673   6
  -4  -4  -8 32.7111 4.58190   2
   4  -4   8 21.8847 3.58882  12
  -4   4  -8 23.5990 3.85104   2
   4   4   8 27.0437 3.73535   6
  -4   4  -8 26.2668 3.86660  14
   4   4   8 28.8561 4.16226   1
   4   4   8 30.7359 5.04540   9
  11  -5  -8 273.240 12.2394   1
 -11  -5   8 259.176 11.3953  12
 -11  -5   8 261.758 11.7433   8
 -11   5   8 262.942 11.2204   5
  11   5  -8 273.427 13.4092   1
  11   5  -8 259.673 13.4671   7
   9  -5  -8 77.7808 7.81001  13
  -9  -5   8 75.9422 5.56617  12
   9  -5  -8 92.7683 7.01485   1
  -9  -5   8 90.5336 6.84639   1
  -9   5   8 82.1133 5.96608   9
   9   5  -8 89.4262 6.93756   1
  -9   5   8 92.6610 7.15248   3
   9   5  -8 91.3695 7.81229   7
  -7  -5   8 443.641 13.6994  12
   7  -5  -8 432.718 15.1679   1
   7  -5  -8 449.840 17.8027  13
  -7  -5   8 465.390 15.3342   1
  -7   5   8 436.757 13.8339   1
  -7   5   8 422.467 12.3109  12
   7   5  -8 445.689 13.7128   4
  -7   5   8 455.158 15.2941   3
  -7   5   8 428.069 13.7210   9
   7   5  -8 440.234 14.7380   1
   7   5  -8 430.046 15.5766   7
  -5  -5   8 167.806 7.12810  12
  -5  -5   8 179.044 7.06391   6
   5  -5  -8 174.541 8.57631   1
   5  -5  -8 169.016 7.01188  14
  -5  -5   8 169.114 8.25423   1
   5  -5  -8 170.903 9.48178  13
   5   5  -8 170.295 7.23132  14
  -5   5   8 173.871 7.59791   9
  -5   5   8 168.207 6.65680  12
  -5   5   8 154.746 10.2300  10
   5   5  -8 187.927 8.18311   4
   5   5  -8 181.342 8.63108   7
  -5   5   8 185.397 8.34501   1
   3  -5  -8 108.205 6.56165  13
  -3  -5   8 110.288 5.18138   6
  -3  -5   8 100.615 5.59628   1
   3  -5  -8 116.857 6.45623   1
  -3  -5   8 113.024 5.88073  12
   3  -5  -8 101.554 5.67117  14
  -3   5   8 99.1961 8.16782  10
  -3   5   8 106.516 6.10044   9
   3   5  -8 111.485 6.39252   7
  -3   5   8 105.292 5.32536  12
   3   5  -8 95.2461 5.84185  14
  -3   5   8 107.945 6.34883   1
   3   5  -8 102.911 5.84998   4
  -1  -5   8 248.209 7.91892   6
   1  -5  -8 249.538 8.74937   4
  -1  -5   8 238.405 8.43565   1
   1  -5  -8 246.019 9.17520  14
   1  -5  -8 243.289 8.96977   2
  -1  -5   8 240.079 9.21683  12
  -1   5   8 260.023 10.6632   1
   1   5  -8 253.807 9.92797  14
  -1   5   8 239.503 9.03423  12
  -1   5   8 250.772 8.79556   6
   1   5  -8 252.307 9.86047   7
   1   5  -8 244.276 9.73850   4
  -1   5   8 256.260 9.85730   9
   1  -5   8 4.63372 2.00746  12
  -1  -5  -8 2.34253 2.03932   8
   1  -5   8 8.16280 1.55479   6
  -1  -5  -8 3.77092 2.16115   2
  -1  -5  -8 7.77338 2.07028  14
  -1   5  -8 4.38559 1.93458   4
   1   5   8 4.45428 2.46951   9
   1   5   8 6.47027 2.59908   1
   1   5   8 9.38033 2.64160  12
  -1   5  -8 7.70240 2.53464  14
  -1   5  -8 7.65326 2.68256   2
  -1   5  -8 4.75202 2.11509   7
   1   5   8 5.12961 1.98624   6
  -3  -5  -8 56.3992 6.12758   8
   3  -5   8 53.2994 2.81988   6
  -3  -5  -8 55.8719 5.28403   2
  -3  -5  -8 47.7739 4.25803  14
   3   5   8 56.8860 6.57771   9
  -3   5  -8 52.8581 4.52588   4
   3   5   8 59.2969 5.53407   1
  -3   5  -8 55.5293 5.07376  14
   3   5   8 50.1599 4.63293   6
  -3   5  -8 50.6950 5.03732   2
 -10  -6   8 69.5763 6.12602  12
  10  -6  -8 71.6243 6.57853   1
 -10  -6   8 69.4709 6.57026   8
 -10  -6   8 71.5344 6.37674   1
  10   6  -8 74.9782 7.16610   1
 -10   6   8 75.3275 5.63587   5
  10   6  -8 63.8505 7.09416   7
 -10   6   8 61.7290 8.15362   3
   8  -6  -8 1095.81 29.1589   1
  -8  -6   8 1136.97 29.2137   1
   8  -6  -8 1084.90 33.2902  13
  -8  -6   8 1080.60 26.9848  12
  -8   6   8 1099.37 27.4284   9
   8   6  -8 1142.35 30.4012   7
   8   6  -8 1107.37 28.9740   1
   6  -6  -8 12.5375 3.71915  13
   6  -6  -8 11.7436 3.05921   1
  -6  -6   8 13.7126 2.57083  12
  -6  -6   8 12.2274 2.38421   6
   6  -6  -8 11.4735 2.32365  14
  -6  -6   8 10.6303 3.04422   1
  -6   6   8 9.42229 2.36653   3
  -6   6   8 12.0978 2.68018   9
  -6   6   8 12.6588 2.76213   1
   6   6  -8 8.69688 2.62540   7
   6   6  -8 9.26289 2.55681   4
  -4  -6   8 1134.41 26.9978  12
  -4  -6   8 1239.15 28.9947   1
   4  -6  -8 1212.35 29.5293   1
   4  -6  -8 1210.70 30.7697  13
  -4  -6   8 1225.05 26.8786   6
   4  -6  -8 1201.60 27.5815  14
  -4   6   8 1215.35 28.2580   9
  -4   6   8 994.370 28.2891   3
   4   6  -8 1211.17 28.7159   4
   4   6  -8 1205.20 29.7344   7
  -4   6   8 1235.29 29.3973   1
   4   6  -8 1186.37 28.1456  14
  -2  -6   8 17.6852 2.81040  12
   2  -6  -8 14.2994 2.76509  14
  -2  -6   8 14.1397 2.56990   1
   2  -6  -8 16.1161 2.35973   2
  -2  -6   8 21.1340 2.58964   6
   2  -6  -8 16.9830 3.07457   1
  -2   6   8 12.0370 3.02819   1
  -2   6   8 18.0429 3.27982   9
   2   6  -8 16.1369 3.31248   7
  -2   6   8 19.1904 2.69064  12
   2   6  -8 11.9248 2.69173   4
   2   6  -8 14.3716 2.78158  14
   0  -6  -8 1246.36 29.0939   2
   0  -6  -8 1274.86 29.5501  14
   0  -6   8 1217.94 27.3195   1
   0  -6   8 1266.94 26.7781   6
   0  -6  -8 1181.75 29.5020   8
   0  -6  -8 1265.84 27.9578   4
   0   6  -8 1286.03 30.7744  14
   0   6   8 1236.89 28.7938   6
   0   6  -8 1259.45 30.6579   7
   0   6  -8 1312.01 30.6897   4
   0   6   8 1282.74 31.8933   1
   0   6   8 1269.42 29.2902  12
   0   6   8 1258.19 30.9108   9
  -2  -6  -8 85.1079 6.10013   2
  -2  -6  -8 91.2269 6.06980  14
  -2  -6  -8 82.9491 6.59766   8
   2  -6   8 86.4428 3.87261   6
  -2   6  -8 87.3614 5.86809   4
  -2   6  -8 86.4040 6.42428  14
   2   6   8 84.6951 6.76802   1
   2   6   8 81.6152 6.43761   9
   2   6   8 83.9716 5.69972   6
   2   6   8 93.5364 6.34215  12
  -4  -6  -8 922.587 24.3354   2
   4  -6   8 884.546 18.4586   6
  -4  -6  -8 894.043 26.3375   8
  -4  -6  -8 885.176 23.0979  14
   4   6   8 886.403 25.2679   1
   4   6   8 914.293 26.5604   9
  -4   6  -8 893.248 23.8592  14
  -9  -7   8 9.67587 3.39698   1
  -9  -7   8 5.64962 2.65138  12
   9  -7  -8 8.42771 3.28089   1
   9   7  -8 5.79160 3.41173   7
  -9   7   8 8.49581 2.87557   5
  -9   7   8 7.71956 2.92145   3
  -7  -7   8 61.6576 6.02682   1
   7  -7  -8 58.7580 7.01533  13
  -7  -7   8 49.6417 4.50781  12
   7  -7  -8 56.9097 5.83386   1
  -7   7   8 57.2496 5.03470   3
   7   7  -8 62.1398 6.38649   7
  -7   7   8 55.7583 4.72999   9
   5  -7  -8 13.3623 2.64323  14
  -5  -7   8 11.2028 2.43841   6
   5  -7  -8 14.2155 3.35745  13
   5  -7  -8 13.0646 3.34413   1
  -5  -7   8 15.4108 3.35449   1
  -5  -7   8 12.0934 2.45710  12
   5   7  -8 16.6652 3.28226   4
  -5   7   8 12.3369 2.87968   9
  -5   7   8 23.3570 3.84555   1
   5   7  -8 13.1635 3.39232   7
  -5   7   8 9.19867 2.38404   3
   3  -7  -8 28.1566 4.10990  13
  -3  -7   8 29.3478 3.85819   1
  -3  -7   8 37.7796 3.47561   6
   3  -7  -8 32.5217 3.87631  14
   3  -7  -8 38.1987 4.75755   1
  -3   7   8 31.9056 4.16203   1
  -3   7   8 34.7816 3.47550   3
  -3   7   8 33.0701 3.97679   9
   3   7  -8 30.1403 4.47430   7
   3   7  -8 33.3668 4.12689  14
   3   7  -8 33.1818 4.15138   4
  -1  -7   8 162.850 6.49465   6
   1  -7  -8 160.917 7.84451  14
  -1  -7   8 155.669 6.98099   1
   1  -7  -8 160.324 7.30584   2
   1   7  -8 154.557 8.35027   4
  -1   7   8 162.068 7.91713   3
   1   7  -8 159.076 8.72541   7
  -1   7   8 145.888 7.83292   9
   1   7  -8 165.060 8.71639  14
  -1   7   8 175.100 9.40185   1
  -1  -7  -8 14.4062 3.19903   2
   1  -7   8 19.9128 2.37266   6
  -1  -7  -8 15.4446 3.23443  14
  -1   7  -8 15.4428 3.12519   4
  -1   7  -8 19.6442 3.81877   7
   1   7   8 21.4188 4.21775   1
   1   7   8 21.5616 4.30151   9
   1   7   8 18.3675 3.11154  12
  -1   7  -8 25.3748 4.31682  14
  -3  -7  -8 141.155 7.69902  14
   3  -7   8 132.810 4.73330   6
  -3  -7  -8 139.689 8.01040   2
  -3  -7  -8 127.630 8.30087   8
  -3   7  -8 127.161 7.98980  14
   3   7   8 129.336 8.72720   1
  -3   7  -8 124.007 7.65734   4
   3   7   8 126.010 8.79811   9
  -8  -8   8 637.341 20.5311   1
   8  -8  -8 640.569 20.5495   1
  -8   8   8 631.660 18.7011   9
   6  -8  -8 285.808 14.2595  13
  -6  -8   8 300.152 12.5223   1
   6  -8  -8 297.447 12.8768   1
   6  -8  -8 267.914 11.7129  14
  -6   8   8 293.036 11.2027   9
   6   8  -8 271.515 11.0362   4
  -6   8   8 275.840 11.1468   3
   6   8  -8 291.192 12.9154   7
  -4  -8   8 949.463 23.2103   6
  -4  -8   8 980.100 25.2840   1
   4  -8  -8 961.385 24.2735  14
   4  -8  -8 986.708 26.4565   1
  -4   8   8 909.783 24.0172   3
   4   8  -8 949.149 26.4931   7
  -4   8   8 943.697 24.2901   9
   4   8  -8 936.006 25.1267   4
  -4   8   8 924.719 25.1356   1
  -2  -8   8 420.603 12.9261   1
   2  -8  -8 358.709 13.6500   1
   2  -8  -8 364.160 12.8499  14
  -2  -8   8 369.004 11.5222   6
  -2   8   8 348.372 14.0864   1
   2   8  -8 346.798 14.1151   7
   2   8  -8 366.790 13.6291   4
  -2   8   8 357.290 12.6204   3
  -2   8   8 375.785 13.2662   9
   0  -8  -8 549.528 16.2151   2
   0  -8  -8 576.384 17.0329  14
   0  -8   8 554.754 14.3645   6
   0   8   8 556.339 18.8369   1
   0   8  -8 574.574 18.0227  14
   0   8  -8 528.413 18.0522   7
   0   8   8 585.808 18.1247   9
   0   8  -8 573.255 18.0299   4
   0   8   8 451.712 17.3643   3
  -2  -8  -8 172.128 8.85697   2
   2  -8   8 182.274 6.34046   6
  -2  -8  -8 186.372 9.07649  14
   2   8   8 176.539 10.0317   9
  -2   8  -8 179.299 9.57835   4
  -2   8  -8 181.212 9.82701   7
   2   8   8 204.176 11.0913   1
   7  -9  -8 2.52478 2.76612   1
  -7  -9   8 -1.0600 2.44767   1
   7   9  -8 -0.0542 2.64116   7
  -7   9   8 2.70283 2.42490   9
  -7   9   8 4.79380 2.18120   3
  -5  -9   8 24.0006 4.18845   1
   5  -9  -8 24.2468 4.55005   1
   5  -9  -8 24.5277 3.78349  14
  -5  -9   8 24.8708 3.43965   6
   5   9  -8 21.9470 3.56235   4
  -5   9   8 26.5523 4.09777   3
   5   9  -8 20.4075 4.51168   7
  -5   9   8 24.9442 3.79727   9
   3  -9  -8 31.9244 4.61807   1
  -3  -9   8 28.4004 3.99324   1
   3  -9  -8 28.0836 4.10415  14
  -3  -9   8 39.0172 4.11394   6
   3   9  -8 29.2857 4.94822   7
  -3   9   8 29.7157 4.05655   3
   3   9  -8 31.8603 4.38171   4
  -3   9   8 27.3592 4.06367   9
  -3   9   8 32.3478 4.79121   1
  -1  -9   8 8.23917 2.18684   6
  -1  -9   8 10.8408 2.47143   1
   1  -9  -8 6.82507 2.30864  14
   1   9  -8 6.98224 3.16943   4
  -1   9   8 9.16056 2.81424   1
  -1   9   8 9.87539 3.09026   3
   1   9  -8 9.54524 3.02126   7
  -1   9   8 10.6648 3.08704   9
  -1  -9  -8 68.8071 5.63096   2
  -1  -9  -8 76.6970 6.24228  14
   1  -9   8 60.6192 3.97409   6
   1   9   8 73.7158 7.28103   1
  -1   9  -8 71.3683 6.53763   4
   1   9   8 69.3874 6.68460   9
  -1   9  -8 62.4902 6.16171   7
  -6 -10   8 603.617 20.0726   1
   6 -10  -8 597.772 20.1029   1
  -6  10   8 598.333 17.8867   9
  -6  10   8 551.161 18.3937   3
   6  10  -8 584.806 20.5258   7
  -4 -10   8 31.1693 4.00362   6
  -4 -10   8 31.7291 4.49137   1
   4 -10  -8 24.6074 4.24167   1
   4 -10  -8 23.5727 3.93455  14
   4  10  -8 23.2910 3.94937   4
   4  10  -8 32.5271 5.24026   7
  -4  10   8 27.5258 3.70121   9
  -2 -10   8 715.642 20.1962   1
   2 -10  -8 708.818 22.3167   1
   2 -10  -8 743.714 21.1543  14
  -2 -10   8 748.651 19.4342   6
   2  10  -8 763.986 22.5628   4
   2  10  -8 703.484 23.0872   7
  -2  10   8 655.144 20.6454   3
  -2  10   8 708.440 22.3431   1
  -2  10   8 697.310 20.4258   9
   0 -10   8 18.8909 2.91682   6
   0 -10  -8 14.0395 3.03169  14
   0  10  -8 21.5280 4.48022   4
   0  10   8 17.3046 4.19166   1
   0  10   8 16.7804 3.88038   3
   0  10   8 16.0688 3.66685   9
   0  10  -8 18.5138 4.32649   7
   3 -11  -8 47.6871 5.25913  14
   3 -11  -8 57.0298 5.98156   1
  -3 -11   8 55.7298 4.91324   6
   3  11  -8 51.9065 6.03454   4
  -3  11   8 42.7282 5.34693   3
   3  11  -8 51.8667 6.64821   7
 -12   0   9 0.14769 2.34951  12
 -12   0   9 -1.1781 1.42730   5
  12   0  -9 -0.9766 2.68546   1
  10   0  -9 0.00861 2.60542   1
 -10   0   9 3.60700 2.33640  12
  10   0  -9 0.53067 2.87290  13
   8   0  -9 1.35633 2.39813  13
   8   0  -9 1.56544 1.60817   1
  -8   0   9 -0.4718 1.48032   9
  -8   0   9 0.34157 1.67462  12
  -8   0   9 1.07812 1.89149   1
   8   0  -9 2.30179 1.46751   4
  -6   0   9 1.15277 1.64845  12
  -6   0   9 0.12403 2.29209  10
   6   0  -9 2.27072 0.97535  14
   6   0  -9 0.09608 1.54817   4
   6   0  -9 0.82173 1.60336  13
   6   0  -9 -0.0828 1.00128   1
  -6   0   9 2.16819 1.90617   1
  -4   0   9 4.85873 2.81910  10
  -4   0   9 -0.2886 1.41695   1
   4   0  -9 11.3922 1.96516   2
  -4   0   9 3.39352 1.83305  12
  -4   0   9 0.97894 1.21838   6
  -4   0   9 0.72714 1.34398   9
   4   0  -9 3.13040 1.68379   7
   4   0  -9 0.66147 1.32103  14
   4   0  -9 0.07380 1.42008   4
  -2   0   9 0.72686 1.14513   1
  -2   0   9 0.64043 1.41335   9
  -2   0   9 0.67990 1.78900  10
   2   0  -9 -0.1512 1.04606   7
  -2   0   9 0.10199 1.13998   6
  -2   0   9 0.66507 1.65361  12
   2   0  -9 3.30524 1.69823   4
   2   0  -9 0.15871 1.02016   2
   2   0  -9 12.6022 2.68069  14
   0   0   9 -1.0117 1.02753   6
   0   0  -9 0.89490 1.66494  14
   0   0   9 0.27784 1.63920   9
   0   0   9 -0.1619 1.74688  12
   0   0  -9 6.04447 1.99807   2
   0   0   9 0.98366 1.42958   1
   0   0  -9 0.94527 1.08735   4
  -2   0  -9 0.35562 1.33481  14
  -2   0  -9 -1.8799 2.17893   8
   2   0   9 1.88643 1.42747   6
   2   0   9 -0.1467 1.24768   1
  -2   0  -9 1.48732 1.53370   2
   2   0   9 15.7693 3.46541  12
   2   0   9 1.21843 2.20447   9
  -4   0  -9 3.01269 3.02226   8
   4   0   9 1.21995 1.55586   6
  -4   0  -9 0.15189 1.72309  14
   4   0   9 -0.5164 2.47098   9
  -4   0  -9 0.06876 2.07495   2
  11  -1  -9 306.401 13.6762   1
 -11  -1   9 298.469 11.8576  12
 -11  -1   9 302.427 11.9869   8
 -11   1   9 291.587 11.5130  12
  11   1  -9 309.692 13.9500   1
 -11   1   9 278.682 11.2174   5
   9  -1  -9 545.812 16.3294   4
   9  -1  -9 519.779 20.4677  13
   9  -1  -9 581.356 18.5835   1
  -9  -1   9 520.472 16.7506   1
  -9  -1   9 567.784 16.5990  12
  -9   1   9 555.997 16.2837  12
   9   1  -9 557.485 15.9948   4
  -9   1   9 539.220 16.6321   1
   9   1  -9 550.685 18.4450   1
   9   1  -9 516.504 20.2317  13
  -9   1   9 548.789 16.2315   9
   7  -1  -9 505.168 18.5098  13
   7  -1  -9 516.740 16.4546   1
  -7  -1   9 527.791 14.4753   9
  -7  -1   9 521.192 16.1066   1
  -7  -1   9 509.952 14.9206  12
   7  -1  -9 509.884 15.2101   4
  -7   1   9 525.475 14.8345  12
   7   1  -9 526.506 16.2310   1
  -7   1   9 515.539 14.7992   9
   7   1  -9 517.227 15.1415   4
  -7   1   9 498.444 15.7564   1
   7   1  -9 490.988 18.2946  13
   5  -1  -9 826.754 23.8920  13
  -5  -1   9 865.486 20.0363   6
  -5  -1   9 808.898 26.7447  10
   5  -1  -9 843.875 21.0653   4
  -5  -1   9 879.147 21.4260  12
   5  -1  -9 864.235 20.5390  14
   5  -1  -9 845.208 21.5851   1
  -5  -1   9 866.682 22.3383   1
  -5  -1   9 850.831 20.2179   9
  -5   1   9 866.046 20.9934   9
  -5   1   9 862.232 22.2393   1
   5   1  -9 871.587 21.2808   4
   5   1  -9 754.778 20.8091   1
  -5   1   9 862.513 20.0363   6
  -5   1   9 890.385 21.4052  12
  -5   1   9 812.620 27.2657  10
   5   1  -9 840.967 20.4771  14
   3  -1  -9 672.259 17.4437  14
   3  -1  -9 636.899 16.5610   7
  -3  -1   9 679.643 16.4504   6
  -3  -1   9 674.192 17.9065  12
  -3  -1   9 626.070 23.1473  10
   3  -1  -9 634.412 16.4932   2
  -3  -1   9 640.132 17.7814   1
  -3  -1   9 648.823 16.6726   9
   3  -1  -9 680.136 17.2133   4
  -3   1   9 654.566 17.2322   9
  -3   1   9 620.888 23.4233  10
   3   1  -9 659.779 17.5106  14
  -3   1   9 655.997 17.6360  12
  -3   1   9 643.014 18.0730   1
   3   1  -9 629.488 16.8532   2
   3   1  -9 656.658 17.2856   7
   3   1  -9 643.831 17.0273   4
  -3   1   9 667.750 16.3617   6
  -1  -1   9 566.365 26.2233  10
  -1  -1   9 579.587 16.1753   9
   1  -1  -9 584.700 16.4493   2
   1  -1  -9 592.521 15.8393   4
  -1  -1   9 592.405 17.1369  12
  -1  -1   9 585.546 15.0140   6
  -1  -1   9 596.594 16.2615   1
   1  -1  -9 599.122 16.4973  14
   1   1  -9 614.046 16.2871   4
  -1   1   9 581.254 16.9126   9
  -1   1   9 622.733 17.3271  12
  -1   1   9 587.356 15.3051   6
  -1   1   9 580.449 16.7471   1
   1   1  -9 597.435 16.7658  14
   1   1  -9 602.881 16.8741   2
  -1  -1  -9 537.008 15.8772   2
   1  -1   9 496.731 14.0155   1
  -1  -1  -9 523.023 15.3561  14
   1  -1   9 508.483 16.2073  12
  -1  -1  -9 503.928 14.2179   4
  -1  -1  -9 511.742 17.5142   8
   1  -1   9 517.570 13.5126   6
   1  -1   9 501.021 15.6135   9
   1   1   9 527.376 14.2393   6
  -1   1  -9 528.339 14.9847   4
   1   1   9 508.484 16.3360   9
  -1   1  -9 535.048 15.7360  14
   1   1   9 507.791 15.1424   1
   1   1   9 514.160 16.4102  12
  -1   1  -9 543.177 16.2588   2
  -3  -1  -9 240.286 12.1039   8
  -3  -1  -9 240.001 10.3927   2
  -3  -1  -9 249.684 10.0907  14
   3  -1   9 239.039 11.0165  12
   3  -1   9 235.748 10.7273   9
   3  -1   9 254.002 8.37926   6
  -3   1  -9 242.126 9.99517  14
  -3   1  -9 249.486 12.1936   8
   3   1   9 247.884 8.90677   6
  -3   1  -9 248.087 10.6015   2
   3   1   9 233.703 11.1037   9
  12  -2  -9 108.770 8.38627   1
 -12  -2   9 116.234 7.33202   8
 -12  -2   9 104.717 6.74776   5
  12   2  -9 124.201 8.81713   1
 -12   2   9 112.097 7.45395   5
 -10  -2   9 104.410 6.91355  12
  10  -2  -9 91.8368 6.49992   4
  10  -2  -9 106.606 7.93994   1
 -10  -2   9 104.456 6.76312   1
  10   2  -9 106.856 8.14695   1
 -10   2   9 100.085 6.30384  12
   8  -2  -9 180.402 10.7387  13
  -8  -2   9 184.050 8.79509   1
   8  -2  -9 179.160 8.47666   4
  -8  -2   9 169.895 8.14787  12
   8  -2  -9 188.779 9.48451   1
   8   2  -9 179.468 9.08787   1
   8   2  -9 180.850 8.06189   4
  -8   2   9 186.912 8.36604   9
  -8   2   9 176.330 8.46908   1
  -8   2   9 179.311 7.91063  12
  -6  -2   9 220.550 7.88264   9
   6  -2  -9 221.909 9.00874   4
  -6  -2   9 205.253 12.1887  10
   6  -2  -9 225.407 11.0512  13
  -6  -2   9 233.703 9.79655   1
  -6  -2   9 236.110 8.39785   6
   6  -2  -9 220.522 7.97152  14
   6  -2  -9 238.384 9.95663   1
  -6  -2   9 215.464 8.68232  12
  -6   2   9 229.669 9.64013   1
  -6   2   9 211.205 8.57778   9
   6   2  -9 223.488 10.0097   7
   6   2  -9 240.117 9.33148   1
   6   2  -9 202.767 7.61149  14
   6   2  -9 220.117 8.70117   4
  -6   2   9 221.445 8.53445  12
   4  -2  -9 170.487 7.47296   1
  -4  -2   9 166.217 7.59329  12
  -4  -2   9 164.954 10.6281  10
   4  -2  -9 174.900 7.49014   4
   4  -2  -9 167.165 7.21058  14
   4  -2  -9 170.293 6.40737   2
  -4  -2   9 165.488 6.62508   6
   4  -2  -9 174.737 9.08606  13
  -4  -2   9 177.905 8.08762   1
  -4  -2   9 162.180 6.48668   9
   4   2  -9 168.443 7.33558  14
   4   2  -9 175.305 7.59294   4
  -4   2   9 179.110 6.85677   6
   4   2  -9 172.387 7.89980   7
  -4   2   9 165.242 7.18994  12
  -4   2   9 163.950 10.7792  10
  -4   2   9 167.707 7.48301   9
  -4   2   9 163.991 7.88046   1
   2  -2  -9 277.583 9.46809   4
  -2  -2   9 277.948 9.95113   1
   2  -2  -9 268.168 9.44906   2
  -2  -2   9 261.734 8.60833   6
   2  -2  -9 265.178 9.69347  14
  -2  -2   9 256.815 13.9035  10
  -2  -2   9 267.891 9.01249   9
  -2  -2   9 251.069 10.0168  12
  -2   2   9 272.855 10.4113   1
  -2   2   9 278.978 9.11937   6
  -2   2   9 269.883 10.1735   9
   2   2  -9 263.080 9.98303  14
   2   2  -9 267.715 9.56053   4
   2   2  -9 269.245 9.48174   7
  -2   2   9 277.411 10.2235  12
   2   2  -9 260.771 9.77623   2
   0  -2  -9 187.159 7.40952   4
   0  -2  -9 183.756 8.07080  14
   0  -2   9 193.733 6.88819   6
   0  -2   9 174.779 8.59278  12
   0  -2   9 179.580 7.23673   1
   0  -2  -9 175.680 8.18913   2
   0  -2   9 169.027 7.63564   9
   0  -2  -9 177.792 9.15814   8
   0   2   9 190.357 8.51976   1
   0   2  -9 187.101 7.85689   4
   0   2  -9 176.030 8.18713  14
   0   2  -9 177.221 8.54181   2
   0   2   9 188.629 8.82222  12
   0   2   9 179.860 7.37112   6
   0   2   9 178.025 8.47439   9
   2  -2   9 138.065 5.67470   6
  -2  -2  -9 144.261 9.11475   8
  -2  -2  -9 143.152 7.44902  14
   2  -2   9 151.217 8.38561  12
  -2  -2  -9 154.250 7.79273   2
   2  -2   9 146.612 7.65162   9
   2   2   9 145.061 7.61022   1
  -2   2  -9 141.710 7.53894  14
   2   2   9 149.996 8.72648   9
  -2   2  -9 149.565 7.26115   4
   2   2   9 147.859 8.45202  12
   2   2   9 145.411 6.88501   6
  -2   2  -9 145.291 7.99229   2
   4  -2   9 132.046 9.01715   9
   4  -2   9 135.300 8.41738  12
  -4  -2  -9 137.711 7.75635   2
  -4  -2  -9 138.063 9.53060   8
  -4  -2  -9 144.593 7.63785  14
   4  -2   9 142.360 5.65527   6
   4   2   9 137.571 9.14504   9
  -4   2  -9 147.121 7.41567  14
   4   2   9 151.443 7.16209   6
  -4   2  -9 142.376 7.78685   2
 -11  -3   9 35.5888 5.10773   8
  11  -3  -9 40.8680 5.63247   1
 -11  -3   9 29.0206 4.53103  12
 -11   3   9 29.9597 3.98071  12
  11   3  -9 31.5251 5.17911   1
  -9  -3   9 1109.84 28.4449   1
   9  -3  -9 1112.71 29.2600   1
  -9  -3   9 1086.18 27.2228  12
   9  -3  -9 1028.44 32.5820  13
   9   3  -9 1092.72 29.2876   1
  -9   3   9 1097.56 26.1222  12
  -9   3   9 1064.74 26.8671   9
   7  -3  -9 24.8008 4.06043   1
   7  -3  -9 28.1553 4.91081  13
  -7  -3   9 26.4190 3.91436   1
  -7  -3   9 26.6023 3.60883  12
   7   3  -9 24.8900 4.20711   7
   7   3  -9 25.9081 3.82592   1
  -7   3   9 23.2244 3.39714   1
  -7   3   9 28.0954 3.21735  12
  -7   3   9 32.4944 3.98025   9
   7   3  -9 27.4373 3.63919   4
   5  -3  -9 1603.71 39.3124  13
  -5  -3   9 1527.18 41.9196  10
  -5  -3   9 1640.26 36.1811  12
   5  -3  -9 1667.17 37.3857   1
  -5  -3   9 1653.32 37.1864   1
   5  -3  -9 1641.14 35.3195  14
  -5  -3   9 1642.36 34.7837   6
   5   3  -9 1675.74 36.4214   4
  -5   3   9 1669.58 37.4565   1
  -5   3   9 1619.67 36.1004   9
   5   3  -9 1656.41 37.5142   7
  -5   3   9 1701.10 35.7587  12
   5   3  -9 1588.95 35.3410  14
   3  -3  -9 90.4832 4.83932   2
  -3  -3   9 90.1088 4.80390   6
   3  -3  -9 94.5497 6.41789  13
  -3  -3   9 84.6462 7.65189  10
   3  -3  -9 91.8322 5.22431  14
   3  -3  -9 90.0330 5.38779   4
  -3  -3   9 94.1634 5.80876  12
  -3  -3   9 95.8493 5.68305   1
  -3   3   9 90.2855 5.78532   9
   3   3  -9 97.6525 5.89738   7
  -3   3   9 90.7916 6.06118   1
   3   3  -9 91.3099 5.69609  14
  -3   3   9 89.1075 4.96290   6
   3   3  -9 92.7612 5.44996   4
  -3   3   9 95.5731 5.63977  12
  -1  -3   9 1476.27 34.5922  12
   1  -3  -9 1544.59 33.2860   4
   1  -3  -9 1507.98 33.9707   2
   1  -3  -9 1565.09 34.2599  14
  -1  -3   9 1529.32 32.2023   6
  -1  -3   9 1529.61 33.3916   1
   1   3  -9 1497.52 34.8560   2
  -1   3   9 1578.07 35.6417   1
  -1   3   9 1508.87 35.1318   9
   1   3  -9 1523.41 34.3286   4
   1   3  -9 1522.44 33.8188   7
  -1   3   9 1542.06 33.4808   6
  -1   3   9 1571.49 34.9630  12
   1   3  -9 1526.64 34.7927  14
  -1  -3  -9 184.501 8.50439   2
  -1  -3  -9 149.549 8.98806   8
   1  -3   9 160.636 6.21764   6
  -1  -3  -9 154.541 7.70096  14
   1  -3   9 150.203 8.25527  12
   1   3   9 166.162 8.60138  12
   1   3   9 152.769 8.70402   9
  -1   3  -9 164.407 7.95652  14
  -1   3  -9 160.577 8.30484   2
   1   3   9 153.672 8.18360   1
  -1   3  -9 160.782 7.69015   4
   1   3   9 164.441 7.44187   6
  -3  -3  -9 750.744 20.3317  14
  -3  -3  -9 738.625 23.2675   8
   3  -3   9 717.893 21.2628  12
   3  -3   9 744.338 17.0643   6
  -3  -3  -9 747.722 20.9404   2
  -3   3  -9 710.784 20.3404  14
   3   3   9 728.280 20.4963   1
   3   3   9 760.134 19.8156   6
  -3   3  -9 722.659 20.8449   2
   3   3   9 719.406 22.4474   9
 -10  -4   9 145.133 8.19424  12
 -10  -4   9 132.756 8.43709   1
  10  -4  -9 137.699 8.51707   1
  10   4  -9 133.107 9.70775   7
 -10   4   9 135.558 7.04926  12
  10   4  -9 130.658 8.69499   1
  -8  -4   9 302.877 11.4230  12
  -8  -4   9 318.590 12.8095   1
   8  -4  -9 314.854 12.9480   1
   8  -4  -9 290.427 14.7753  13
   8   4  -9 292.291 10.9149   4
  -8   4   9 307.858 11.3663   9
   8   4  -9 295.283 13.1269   7
  -8   4   9 273.860 12.2087   1
   8   4  -9 312.545 12.5760   1
  -8   4   9 303.680 10.3875  12
  -6  -4   9 393.378 12.6924  12
   6  -4  -9 394.210 13.9151   1
   6  -4  -9 381.383 11.7147  14
  -6  -4   9 397.644 11.8283   6
   6  -4  -9 383.257 15.6338  13
  -6  -4   9 393.832 13.7912   1
  -6   4   9 362.939 12.4323   9
  -6   4   9 373.852 11.8083  12
   6   4  -9 385.301 12.6259   4
   6   4  -9 383.903 13.9244   7
   6   4  -9 373.407 11.6802  14
  -6   4   9 409.686 13.6778   1
   4  -4  -9 243.134 9.90718   1
  -4  -4   9 246.444 8.62469   6
  -4  -4   9 235.321 9.70992   1
   4  -4  -9 241.140 9.17936  14
   4  -4  -9 228.826 10.7672  13
  -4  -4   9 254.157 9.67993  12
  -4   4   9 256.884 9.87425   9
   4   4  -9 235.836 9.39857  14
  -4   4   9 255.938 10.5486   1
  -4   4   9 240.998 8.96304  12
   4   4  -9 253.115 9.71116   4
   4   4  -9 247.818 10.2640   7
  -2  -4   9 388.892 12.1744   1
  -2  -4   9 371.233 12.6685  12
   2  -4  -9 392.212 12.0252   4
   2  -4  -9 327.644 14.4582  13
   2  -4  -9 391.543 11.9770   2
  -2  -4   9 383.275 11.2205   6
   2  -4  -9 382.899 12.3448  14
   2   4  -9 390.132 12.7827   7
  -2   4   9 389.882 13.7930   1
  -2   4   9 399.045 12.6857  12
   2   4  -9 404.102 13.2194  14
  -2   4   9 377.854 11.7870   6
  -2   4   9 404.630 13.4262   9
   2   4  -9 386.005 12.9494   4
   0  -4  -9 149.435 7.67008   2
   0  -4  -9 161.381 6.89329   4
   0  -4   9 160.657 6.25336   6
   0  -4   9 159.729 8.21552  12
   0  -4  -9 154.739 8.45332   8
   0  -4  -9 161.827 7.52296  14
   0  -4   9 154.912 6.39925   1
   0   4   9 161.997 8.61659   1
   0   4  -9 151.069 7.48692   4
   0   4   9 163.209 8.79361   9
   0   4  -9 156.470 7.43596   7
   0   4  -9 151.069 7.90137   2
   0   4   9 162.032 7.41636   6
   0   4  -9 161.098 8.10805  14
   0   4   9 160.318 8.18088  12
  -2  -4  -9 108.876 8.07310   8
  -2  -4  -9 117.139 6.91206   2
  -2  -4  -9 114.736 6.87709  14
   2  -4   9 112.582 7.29905  12
   2  -4   9 110.388 4.81955   6
   2   4   9 124.140 8.32680   9
   2   4   9 118.224 6.65031   6
  -2   4  -9 110.263 7.24746   2
  -2   4  -9 117.599 6.80338   4
   2   4   9 118.711 7.69861  12
  -2   4  -9 105.936 6.54468  14
   2   4   9 103.779 7.04718   1
  -4  -4  -9 80.0938 5.54837  14
   4  -4   9 90.2325 6.69569  12
  -4  -4  -9 93.9521 6.93593   2
   4  -4   9 82.6785 3.85799   6
  -4  -4  -9 88.6826 7.86246   8
   4   4   9 87.1675 6.31589   1
  -4   4  -9 74.0869 5.97367  14
   4   4   9 84.2614 5.94483   6
  -4   4  -9 89.3645 6.56319   2
  11  -5  -9 347.927 14.6011   1
 -11  -5   9 339.732 13.8030   8
 -11  -5   9 327.192 13.2883  12
  11   5  -9 321.918 15.4756   7
 -11   5   9 341.408 12.9742   5
  11   5  -9 323.652 14.8558   1
  -9  -5   9 399.470 14.0244  12
   9  -5  -9 411.703 15.5862   1
  -9  -5   9 441.589 15.9881   1
  -9   5   9 391.510 13.9613   9
   9   5  -9 409.452 16.5342   7
   9   5  -9 399.029 15.6002   1
  -7  -5   9 765.592 21.7859   1
   7  -5  -9 714.143 21.5740   1
   7  -5  -9 690.638 23.7059  13
  -7  -5   9 720.697 19.6810  12
  -7   5   9 706.223 20.1089   1
  -7   5   9 725.845 18.4076  12
   7   5  -9 717.927 19.9662   4
  -7   5   9 700.592 19.7035   9
   7   5  -9 721.871 21.9177   7
   5  -5  -9 525.357 15.1785  14
  -5  -5   9 542.409 14.9121   6
  -5  -5   9 517.599 15.5510  12
   5  -5  -9 569.025 17.3799   1
  -5  -5   9 540.361 16.8184   1
   5  -5  -9 518.058 18.2279  13
  -5   5   9 561.373 15.0393  12
   5   5  -9 525.356 15.5273  14
  -5   5   9 527.276 16.5902   1
   5   5  -9 556.804 17.4705   7
   5   5  -9 551.905 16.5895   4
  -5   5   9 537.434 16.1811   9
   3  -5  -9 685.929 18.4109  14
   3  -5  -9 668.010 18.8697   1
  -3  -5   9 683.503 17.2439   6
  -3  -5   9 669.018 18.4443   1
   3  -5  -9 696.145 20.2867  13
  -3  -5   9 661.964 18.4687  12
   3   5  -9 661.446 18.8386   4
   3   5  -9 682.779 19.0984  14
  -3   5   9 681.513 20.0300   1
   3   5  -9 654.387 19.2289   7
  -3   5   9 677.228 17.8066  12
  -3   5   9 678.069 19.0965   9
  -1  -5   9 256.832 9.12174   1
  -1  -5   9 280.760 10.6208  12
   1  -5  -9 275.041 10.1782   2
   1  -5  -9 267.086 10.1685  14
   1  -5  -9 263.969 9.37512   4
  -1  -5   9 276.997 8.85186   6
  -1   5   9 277.803 11.1711   9
  -1   5   9 269.555 9.95511   6
  -1   5   9 272.959 11.5398   1
   1   5  -9 267.461 10.7570   7
  -1   5   9 263.743 10.3147  12
   1   5  -9 269.290 10.8154   4
   1   5  -9 269.403 11.0393  14
  -1  -5  -9 360.108 14.1894   8
  -1  -5  -9 391.631 13.3673   2
   1  -5   9 365.235 13.3219  12
  -1  -5  -9 376.622 13.0291  14
   1  -5   9 397.912 10.7321   6
   1   5   9 384.885 14.6519   9
   1   5   9 375.399 13.6697  12
   1   5   9 377.230 12.7822   6
  -1   5  -9 377.675 13.4584  14
   1   5   9 395.398 14.6565   1
  -1   5  -9 391.390 13.5699   4
   3  -5   9 139.812 5.23621   6
  -3  -5  -9 130.413 7.21314  14
  -3  -5  -9 145.290 9.42912   8
  -3  -5  -9 150.268 8.45860   2
   3   5   9 145.239 7.85797   6
  -3   5  -9 140.132 7.71757  14
   3   5   9 142.533 8.43217   1
   3   5   9 144.948 8.76323  12
  -3   5  -9 139.196 8.07891   2
   3   5   9 159.331 9.76944   9
  10  -6  -9 225.469 11.6243   1
 -10  -6   9 218.583 10.4451  12
 -10  -6   9 246.674 11.4971   1
  10   6  -9 221.380 12.0451   7
 -10   6   9 240.656 10.5122   5
   8  -6  -9 197.436 10.5112   1
  -8  -6   9 180.961 8.79318  12
  -8  -6   9 174.542 9.96220   1
   8   6  -9 176.593 10.3932   7
  -8   6   9 197.280 9.29195   9
   6  -6  -9 202.407 10.0961   1
   6  -6  -9 186.585 11.0243  13
  -6  -6   9 198.679 9.93912   1
  -6  -6   9 198.125 8.22928   6
  -6  -6   9 192.100 8.62176  12
   6  -6  -9 188.260 8.10209  14
   6   6  -9 181.555 9.64799   7
  -6   6   9 194.639 9.02480   9
  -6   6   9 190.680 9.22608   1
   6   6  -9 189.279 8.76883   4
   4  -6  -9 393.847 12.7673  14
  -4  -6   9 395.313 13.7982   1
   4  -6  -9 382.797 13.8810   1
  -4  -6   9 378.486 12.6306  12
  -4  -6   9 376.022 11.9569   6
   4  -6  -9 389.941 14.9871  13
   4   6  -9 391.898 14.2951   7
  -4   6   9 409.623 13.6680   9
   4   6  -9 368.033 13.1297  14
  -4   6   9 400.251 14.3088   1
   4   6  -9 394.448 13.7029   4
   2  -6  -9 109.510 6.62098  14
  -2  -6   9 111.680 6.25154   1
   2  -6  -9 105.016 5.83214   2
  -2  -6   9 112.492 5.63649   6
  -2  -6   9 106.392 6.37148  12
  -2   6   9 113.540 6.23662  12
  -2   6   9 118.347 7.73569   1
  -2   6   9 106.418 7.03436   9
   2   6  -9 111.117 7.17554   4
   2   6  -9 106.952 7.03809  14
   2   6  -9 109.650 7.23679   7
   0  -6  -9 180.713 8.34441  14
   0  -6   9 171.538 6.63758   6
   0  -6  -9 179.324 8.45983   2
   0   6   9 180.721 8.61023  12
   0   6  -9 171.036 8.65439   7
   0   6  -9 172.175 8.91499   4
   0   6   9 168.836 8.95650   9
   0   6  -9 178.748 9.18925  14
   0   6   9 182.202 9.62367   1
  -2  -6  -9 103.738 7.73125   8
  -2  -6  -9 99.4394 6.72614  14
  -2  -6  -9 96.0903 6.75439   2
   2  -6   9 100.105 4.44816   6
   2   6   9 103.425 6.70673   6
  -2   6  -9 93.7497 6.91668  14
  -2   6  -9 103.912 6.90887   4
   2   6   9 90.6137 7.66245   9
   2   6   9 101.469 7.08443  12
   2   6   9 101.870 7.53412   1
   9  -7  -9 45.3643 5.78953   1
  -9  -7   9 39.9361 4.80915  12
  -9  -7   9 40.1035 5.12981   1
   9   7  -9 43.1025 5.77194   7
  -9   7   9 45.1153 5.23772   9
  -9   7   9 44.1067 4.96142   5
  -7  -7   9 605.998 19.7394   1
   7  -7  -9 609.751 19.8896   1
  -7  -7   9 570.165 17.2477  12
  -7   7   9 597.167 18.0576   9
   7   7  -9 585.910 19.9434   7
  -5  -7   9 66.7278 5.95760   1
   5  -7  -9 66.0690 4.85360  14
   5  -7  -9 53.5478 5.31142   1
  -5  -7   9 56.5081 4.78365  12
  -5  -7   9 50.2402 4.12335   6
   5  -7  -9 56.8781 6.22462  13
  -5   7   9 55.8770 4.84804   9
   5   7  -9 54.1637 4.97123   4
  -5   7   9 58.7922 5.21753   1
   5   7  -9 57.4502 5.99628   7
   3  -7  -9 910.216 23.6519  14
  -3  -7   9 897.140 23.8503   1
   3  -7  -9 893.772 24.7780   1
  -3  -7   9 928.946 22.5138   6
   3   7  -9 898.204 24.7588  14
  -3   7   9 968.186 26.1457   1
   3   7  -9 920.862 24.7148   4
   3   7  -9 910.132 25.4275   7
  -3   7   9 953.106 24.6782   9
   1  -7  -9 178.200 8.64738  14
  -1  -7   9 160.739 7.00160   6
  -1  -7   9 162.384 7.30399   1
   1   7  -9 165.630 8.98497   4
  -1   7   9 169.018 9.91683   1
  -1   7   9 175.536 9.34445   9
   1   7  -9 192.424 9.49937  14
   1   7  -9 172.721 9.35664   7
   1  -7   9 853.874 19.4353   6
  -1  -7  -9 823.831 22.5538  14
  -1  -7  -9 852.481 22.6689   2
  -1   7  -9 822.547 23.2348   4
  -1   7  -9 843.928 23.8943  14
   1   7   9 813.569 24.2712   9
  -1   7  -9 807.632 23.2889   7
   1   7   9 829.007 25.0411   1
  -8  -8   9 37.0860 5.26114   1
   8  -8  -9 45.2232 6.22987   1
  -8   8   9 41.1564 4.48912   5
   8   8  -9 37.8034 6.00819   7
  -8   8   9 42.7448 5.02776   9
   6  -8  -9 43.8283 5.63343   1
  -6  -8   9 50.6974 5.75552   1
   6   8  -9 45.6237 6.00936   7
  -6   8   9 45.5104 5.21126   9
   6   8  -9 35.8598 4.61985   4
  -4  -8   9 175.773 9.06133   1
   4  -8  -9 179.085 8.81710  14
  -4  -8   9 173.362 8.06547   6
   4  -8  -9 189.943 9.82241   1
  -4   8   9 173.045 9.28827   1
   4   8  -9 184.195 10.2426   7
   4   8  -9 189.685 9.71771   4
  -4   8   9 189.184 9.36200   9
   2  -8  -9 30.8250 4.26030  14
  -2  -8   9 28.9164 3.80498   1
  -2  -8   9 30.3430 3.55365   6
   2   8  -9 35.0237 4.72543   4
  -2   8   9 35.9910 4.77355   9
  -2   8   9 28.8394 4.88845   1
   2   8  -9 32.6287 4.85702   7
   2   8  -9 26.9190 4.45750  14
   0  -8  -9 158.380 8.07010   2
   0  -8  -9 147.842 7.94504  14
   0  -8   9 152.726 6.53394   6
   0   8  -9 144.473 8.82620   4
   0   8   9 155.580 9.57768   1
   0   8   9 159.799 9.47241   9
   0   8  -9 144.955 8.53004  14
   7  -9  -9 329.343 14.4210   1
  -7  -9   9 339.163 14.3686   1
   7   9  -9 306.486 14.4572   7
  -7   9   9 326.597 12.7512   9
  -5  -9   9 617.992 19.6453   1
  -5  -9   9 626.885 18.0124   6
   5  -9  -9 620.277 18.5817  14
   5  -9  -9 634.548 20.9978   1
  -5   9   9 626.151 18.8596   9
   5   9  -9 608.824 21.0236   7
   5   9  -9 626.463 19.6663   4
  -3  -9   9 199.527 9.36075   1
   3  -9  -9 196.862 9.64990  14
  -3  -9   9 214.114 8.88424   6
   3  -9  -9 220.132 10.8777   1
   3   9  -9 204.640 11.2948   7
  -3   9   9 198.017 9.81408   9
   3   9  -9 183.147 10.0054   4
  -3   9   9 191.596 10.4982   1
  -1  -9   9 359.039 11.4787   6
   1  -9  -9 325.523 12.7139  14
  -1   9   9 340.795 14.7577   1
   1   9  -9 325.032 14.2038   7
  -1   9   9 355.363 13.6775   9
   1   9  -9 353.056 14.2220   4
  -4 -10   9 38.1997 5.03701   1
   4 -10  -9 46.4986 5.25338  14
  -4 -10   9 45.1126 4.56524   6
   4  10  -9 52.2693 6.80369   7
   4  10  -9 49.1372 6.05360   4
  -4  10   9 39.0086 4.85315   9
  -2 -10   9 6.76708 2.46404   1
  -2 -10   9 8.02940 2.44543   6
   2 -10  -9 11.3599 3.33568  14
   2  10  -9 9.03211 3.90768   7
  -2  10   9 8.17587 3.21027   1
  -2  10   9 3.90973 2.78063   9
   2  10  -9 6.51651 3.21278   4
  10   0 -10 1473.03 37.7285   1
 -10   0  10 1482.41 35.0283  12
  -8   0  10 165.607 7.96903  12
  -8   0  10 169.218 8.63842   1
   8   0 -10 169.288 8.32859   4
   8   0 -10 162.279 10.7597  13
   8   0 -10 166.948 8.94075   1
  -8   0  10 159.157 7.78846   9
  -6   0  10 1404.22 31.9371   9
   6   0 -10 1414.86 32.7791   4
   6   0 -10 1420.13 37.0233  13
   6   0 -10 1355.94 31.2795  14
  -6   0  10 1467.03 34.4867   1
  -6   0  10 1442.40 32.7361  12
   6   0 -10 1457.14 33.4421   1
   4   0 -10 71.3880 4.75079   2
  -4   0  10 78.4945 4.79619   6
   4   0 -10 83.4971 5.22727   7
   4   0 -10 70.9338 5.13441   4
  -4   0  10 80.0926 5.88191   1
   4   0 -10 93.5664 5.70090  14
  -4   0  10 76.0336 5.56931  12
  -4   0  10 74.2906 5.05599   9
  -2   0  10 749.527 19.1179   6
   2   0 -10 762.826 20.4398   2
   2   0 -10 765.042 20.4735  14
   2   0 -10 763.547 19.9728   4
  -2   0  10 800.847 21.4897  12
  -2   0  10 791.968 21.0586   1
  -2   0  10 753.901 20.3255   9
   0   0  10 33.6463 3.49382   6
   0   0  10 34.7180 4.11849   1
   0   0  10 36.2136 4.64303   9
   0   0 -10 33.8306 4.26721  14
   0   0  10 46.9330 4.71655  12
   0   0 -10 31.6284 3.27761   4
   0   0 -10 38.3699 4.70807   2
   2   0  10 530.747 17.6651   9
   2   0  10 555.432 15.0678   6
  -2   0 -10 561.937 17.4198   2
  -2   0 -10 532.800 16.5851  14
   2   0  10 566.618 18.5979  12
 -11  -1  10 74.7922 5.84400  12
  11  -1 -10 76.0958 7.38130   1
 -11   1  10 73.0605 5.61472  12
  11   1 -10 93.2689 7.91146   1
  -9  -1  10 79.2424 6.41148   1
  -9  -1  10 78.6356 5.61316  12
   9  -1 -10 76.4826 8.20226  13
   9  -1 -10 76.7532 6.78909   1
   9  -1 -10 79.1737 6.02148   4
   9   1 -10 85.3581 5.76278   4
  -9   1  10 83.7566 5.98652  12
  -9   1  10 76.4464 5.82065   9
   9   1 -10 85.4111 7.05958   1
  -9   1  10 80.3540 6.29387   1
   7  -1 -10 3.77340 2.24998  13
  -7  -1  10 4.25509 1.78047   9
  -7  -1  10 3.84297 2.33115   1
   7  -1 -10 6.33607 2.55756   1
   7  -1 -10 3.45452 2.22502   4
  -7  -1  10 6.04824 2.32410  12
   7   1 -10 6.46778 2.31186   4
  -7   1  10 5.79391 2.25041  12
  -7   1  10 4.74322 2.09911   1
  -7   1  10 5.38451 2.21894   9
   7   1 -10 6.51691 2.14259   1
   5  -1 -10 210.071 8.67134   4
   5  -1 -10 202.254 8.45036  14
   5  -1 -10 202.902 10.7587  13
  -5  -1  10 222.677 9.93223   1
  -5  -1  10 219.765 9.28515  12
  -5  -1  10 215.099 8.28487   9
  -5  -1  10 209.289 8.08342   6
   5   1 -10 204.736 9.03231   7
  -5   1  10 203.680 8.50235   9
   5   1 -10 202.492 8.33384  14
  -5   1  10 222.897 9.34242  12
   5   1 -10 220.549 9.10999   4
  -5   1  10 217.866 9.82191   1
   3  -1 -10 8.29931 2.09696   4
   3  -1 -10 5.48322 2.06805   2
  -3  -1  10 8.79362 2.57274   1
  -3  -1  10 8.01867 2.06311   6
  -3  -1  10 10.2767 2.14889   9
  -3  -1  10 6.73916 2.08991  12
   3  -1 -10 5.10619 2.21481  14
  -3   1  10 7.20250 2.04356   6
   3   1 -10 4.79457 1.77589   4
  -3   1  10 4.56903 2.21729   9
   3   1 -10 9.68022 2.52296   2
  -3   1  10 4.05288 2.19689   1
   3   1 -10 13.6898 2.58802  14
  -3   1  10 4.66767 1.86996  12
   3   1 -10 6.19760 1.78092   7
  -1  -1  10 48.1918 3.89795   6
  -1  -1  10 43.9363 5.01988  12
  -1  -1  10 43.9058 4.20461   1
   1  -1 -10 50.6238 4.74842   2
   1  -1 -10 43.2562 4.16362   4
   1  -1 -10 48.1871 4.27649  14
  -1  -1  10 40.8595 4.41409   9
  -1   1  10 46.8928 3.96523   6
   1   1 -10 44.8604 4.83360   2
  -1   1  10 56.6728 5.15651   9
   1   1 -10 39.8366 4.13490   4
   1   1 -10 57.6499 5.02545  14
  -1   1  10 46.3873 4.66996   1
  -1   1  10 51.4087 5.52570  12
   1  -1  10 69.6724 4.52681   6
  -1  -1 -10 78.1620 6.10959   2
  -1  -1 -10 80.5331 5.58724  14
   1  -1  10 71.2966 4.71327   1
   1  -1  10 73.8801 6.04311  12
  -1   1 -10 74.9986 6.14035   2
   1   1  10 66.2547 6.26466   9
   1   1  10 75.9161 4.92207   6
   1   1  10 71.8415 5.30673   1
  -1   1 -10 73.0131 5.17367   4
   1   1  10 74.3578 6.43936  12
  -1   1 -10 69.2437 5.31892  14
  -3  -1 -10 1.17788 2.31613   2
  -3  -1 -10 2.36763 2.18200  14
  -3  -1 -10 1.03391 2.29786   8
   3  -1  10 0.26784 2.45802  12
   3  -1  10 -1.1123 2.31720   9
   3  -1  10 1.93917 1.47484   6
  -3   1 -10 0.50543 1.44152  14
   3   1  10 0.92445 1.53666   6
  -3   1 -10 1.20281 2.37389   2
   3   1  10 0.28755 1.84982  12
   3   1  10 3.20556 2.91202   9
 -10  -2  10 50.3191 5.58049   1
  10  -2 -10 45.7779 4.52152   4
  10  -2 -10 59.3674 6.42487   1
 -10  -2  10 62.8868 5.18081  12
 -10   2  10 59.3496 5.21615  12
  10   2 -10 45.9783 5.89733   1
   8  -2 -10 562.012 21.3083  13
  -8  -2  10 570.791 17.0954  12
   8  -2 -10 589.183 17.6747   4
  -8  -2  10 567.286 18.0488   1
   8  -2 -10 575.372 18.8583   1
  -8   2  10 581.991 17.1149   9
   8   2 -10 577.098 18.4734   1
  -8   2  10 572.773 17.8278   1
  -8   2  10 572.487 16.7663  12
   8   2 -10 554.845 16.9628   4
   6  -2 -10 116.985 7.06340   1
   6  -2 -10 122.683 8.40794  13
   6  -2 -10 105.134 6.30947   4
   6  -2 -10 122.122 6.12404  14
  -6  -2  10 135.340 7.84262   1
  -6  -2  10 123.603 6.78092  12
   6   2 -10 130.277 7.07422   4
   6   2 -10 113.842 5.97989  14
  -6   2  10 115.896 6.59325  12
   6   2 -10 124.201 7.28771   7
  -6   2  10 115.682 6.69782   9
  -6   2  10 133.215 7.76655   1
   4  -2 -10 1414.09 32.0616  14
   4  -2 -10 1408.66 35.2723  13
  -4  -2  10 1422.82 31.0539   6
   4  -2 -10 1416.24 32.0947   4
  -4  -2  10 1425.50 32.8593  12
  -4  -2  10 1420.33 33.3095   1
   4  -2 -10 1354.24 30.4439   2
  -4   2  10 1371.77 32.1528   9
  -4   2  10 1404.05 33.6954   1
   4   2 -10 1359.44 32.1883   4
   4   2 -10 1415.32 32.4265  14
  -4   2  10 1360.34 30.8563   6
   4   2 -10 1428.21 32.7423   7
  -4   2  10 1447.14 32.5611  12
  -2  -2  10 306.749 10.0449   6
  -2  -2  10 286.858 10.6863   1
  -2  -2  10 294.688 11.6023  12
   2  -2 -10 299.387 10.4185   4
   2  -2 -10 300.791 10.7987   2
   2  -2 -10 293.287 10.8048  14
  -2   2  10 297.250 11.4724  12
  -2   2  10 293.885 10.2679   6
  -2   2  10 298.300 11.9259   1
  -2   2  10 305.359 11.6213   9
   2   2 -10 304.008 10.9997   4
   2   2 -10 292.383 11.2425   2
   2   2 -10 289.772 10.3155   7
   2   2 -10 289.622 11.1213  14
   0  -2 -10 1264.49 29.3744   4
   0  -2  10 1312.28 28.7370   6
   0  -2 -10 1287.90 30.7381  14
   0  -2  10 1277.15 29.2814   1
   0  -2 -10 1277.81 31.0078   2
   0  -2  10 1259.67 31.8695  12
   0   2 -10 1319.95 31.2146  14
   0   2 -10 1315.95 30.6230   4
   0   2  10 1266.11 32.1596   9
   0   2  10 1314.07 32.4297  12
   0   2 -10 1267.75 31.3340   2
   0   2  10 1273.91 31.1721   1
   0   2  10 1323.16 29.9207   6
  -2  -2 -10 156.301 8.26881  14
   2  -2  10 157.250 6.51380   6
   2  -2  10 152.121 9.10822  12
  -2  -2 -10 142.593 9.23245   8
  -2  -2 -10 165.327 8.78060   2
   2   2  10 158.755 7.96872   1
  -2   2 -10 151.772 8.25643  14
   2   2  10 157.515 7.49230   6
  -2   2 -10 148.118 8.56472   2
   2   2  10 155.538 9.43958   9
   2   2  10 157.709 9.23238  12
 -11  -3  10 3.27097 1.94510  12
  11  -3 -10 -0.5786 2.47040   1
 -11   3  10 2.56049 2.01730  12
  11   3 -10 5.29728 3.93201   7
  11   3 -10 2.89851 2.85910   1
   9  -3 -10 2.66093 1.91871   4
  -9  -3  10 1.57527 2.38105  12
  -9  -3  10 3.30274 2.77260   1
   9  -3 -10 5.36291 2.89367   1
  -9   3  10 4.09465 2.57348   9
   9   3 -10 5.61316 3.07477   1
   9   3 -10 0.93990 2.86468   7
  -9   3  10 4.36517 2.19806  12
   7  -3 -10 19.0419 4.09896  13
  -7  -3  10 15.5156 3.16312   1
   7  -3 -10 16.6614 3.64034   1
   7  -3 -10 14.6337 3.30161   4
  -7  -3  10 17.6855 3.43784  12
  -7   3  10 13.0833 2.98454   9
   7   3 -10 15.7499 3.75878   7
  -7   3  10 12.3447 2.75031   1
  -7   3  10 12.0198 2.68592  12
   7   3 -10 13.1410 2.95491   4
   5  -3 -10 78.9521 5.67990   4
  -5  -3  10 83.6248 5.12347   6
  -5  -3  10 76.8759 5.70574   1
   5  -3 -10 84.8732 5.25233  14
   5  -3 -10 82.7511 7.02636  13
   5  -3 -10 78.0893 5.67407   1
  -5  -3  10 78.3038 5.78488  12
   5   3 -10 86.1533 6.34415   7
   5   3 -10 86.0688 5.56765  14
   5   3 -10 80.4507 5.41764   4
  -5   3  10 77.4834 5.85805   1
  -5   3  10 85.6478 5.93742   9
  -5   3  10 82.9783 5.36895  12
   3  -3 -10 2.11570 1.85786  14
  -3  -3  10 2.14096 2.14829  12
   3  -3 -10 7.09074 2.08692   2
   3  -3 -10 4.50694 2.11520   4
  -3  -3  10 3.23978 1.72322   6
  -3  -3  10 0.72869 1.28621   1
   3  -3 -10 2.92910 2.23814  13
  -3   3  10 7.68680 2.41695   1
   3   3 -10 -0.1769 1.63347   4
  -3   3  10 0.81818 1.46133   6
  -3   3  10 5.02835 2.32357   9
   3   3 -10 1.34726 1.42856  14
  -3   3  10 0.58192 1.35859  12
   3   3 -10 0.92272 1.77285   7
  -1  -3  10 18.2006 3.62809  12
   1  -3 -10 22.3023 3.33389   2
   1  -3 -10 16.6516 3.23177  14
   1  -3 -10 18.3952 2.90180   4
  -1  -3  10 19.1644 2.95762   1
  -1  -3  10 16.7159 2.49198   6
   1   3 -10 22.4587 3.91563   2
  -1   3  10 12.0037 3.16759   1
  -1   3  10 21.9908 3.90038  12
   1   3 -10 22.2577 3.35551   4
  -1   3  10 19.0919 3.76379   9
   1   3 -10 16.6543 3.30289  14
  -1   3  10 23.7029 3.35250   6
  -1  -3 -10 35.6090 4.20366  14
   1  -3  10 42.9477 5.47257  12
  -1  -3 -10 39.7299 4.74259   2
   1  -3  10 39.1572 3.49961   6
   1   3  10 27.6545 4.57790   9
   1   3  10 36.3666 4.75349   1
   1   3  10 33.7023 4.83181  12
   1   3  10 38.1239 4.14287   6
  -1   3 -10 37.8001 4.42779  14
  -1   3 -10 29.2514 4.49001   2
  -1   3 -10 45.1878 4.93387   4
  -3  -3 -10 -1.0186 2.38577   2
   3  -3  10 1.62076 2.60406  12
  -3  -3 -10 1.46020 2.27114  14
   3  -3  10 2.80157 1.32639   6
  -3  -3 -10 1.92496 2.22960   8
   3   3  10 1.57616 2.87357   9
  -3   3 -10 1.68739 1.67241  14
  -3   3 -10 2.61707 2.53312   2
   3   3  10 2.27819 2.02877   6
   3   3  10 5.85207 3.21441  12
   3   3  10 4.59322 2.59793   1
  10  -4 -10 118.251 7.42924   4
  10  -4 -10 111.069 8.38988   1
 -10  -4  10 134.144 8.06231  12
 -10  -4  10 117.866 8.34569   1
  10   4 -10 130.366 9.27150   7
  10   4 -10 118.108 8.57738   1
 -10   4  10 110.600 6.60723  12
   8  -4 -10 1379.47 43.3797  13
  -8  -4  10 1514.42 36.7986   1
   8  -4 -10 1490.92 36.8755   1
  -8  -4  10 1456.62 34.2799  12
   8   4 -10 1423.44 36.7467   7
   8   4 -10 1430.64 34.0596   4
  -8   4  10 1464.64 34.3867   9
  -8   4  10 1481.47 33.1224  12
  -8   4  10 1450.63 34.9458   1
  -6  -4  10 50.6982 4.28823   6
  -6  -4  10 54.8588 5.51715   1
   6  -4 -10 58.0672 6.36961  13
   6  -4 -10 56.3132 5.05590   1
  -6  -4  10 54.2129 4.98730  12
   6  -4 -10 61.4708 4.57970  14
   6   4 -10 67.5129 6.13165   7
   6   4 -10 61.2741 5.27913   4
   6   4 -10 48.6956 4.00049  14
  -6   4  10 54.1482 5.46918   1
  -6   4  10 51.5531 4.43498  12
  -6   4  10 50.3747 4.61165   9
  -4  -4  10 1241.54 30.3830  12
   4  -4 -10 1303.04 30.2320   4
   4  -4 -10 1288.30 30.1320  14
  -4  -4  10 1261.78 30.8519   1
  -4  -4  10 1270.60 28.9893   6
   4  -4 -10 1286.86 33.1267  13
   4   4 -10 1266.46 30.7171   4
  -4   4  10 1333.95 32.4999   1
  -4   4  10 1283.97 29.8133  12
   4   4 -10 1256.88 30.5334  14
   4   4 -10 1280.83 31.2865   7
  -4   4  10 1287.99 30.8601   9
  -2  -4  10 4.94202 2.47302  12
   2  -4 -10 5.61175 2.13354   4
   2  -4 -10 6.01236 1.90400   2
   2  -4 -10 5.63663 2.38848  14
  -2  -4  10 3.60347 1.84828   1
  -2  -4  10 6.46974 1.90925   6
   2   4 -10 7.62032 2.68885  14
  -2   4  10 3.50761 2.62209   9
  -2   4  10 5.84886 2.62025   1
   2   4 -10 3.93693 2.38523   4
  -2   4  10 7.22386 2.17586   6
   2   4 -10 5.05653 2.22459   7
  -2   4  10 7.89691 2.62612  12
   0  -4  10 812.892 19.5308   6
   0  -4 -10 791.242 21.6721  14
   0  -4  10 799.321 22.7093  12
   0  -4 -10 809.140 21.9546   2
   0   4  10 828.209 23.0827  12
   0   4  10 766.629 21.0276   6
   0   4  10 807.701 23.4493   9
   0   4  10 807.329 23.1086   1
   0   4 -10 818.709 22.2066   4
   0   4 -10 812.495 22.5343  14
   0   4 -10 791.783 22.6628   2
  -2  -4 -10 14.7303 3.46686   2
   2  -4  10 9.37031 2.99671  12
   2  -4  10 11.4645 1.98364   6
  -2  -4 -10 14.3631 2.93458  14
  -2  -4 -10 10.5459 3.86039   8
  -2   4 -10 9.43113 2.64661   2
   2   4  10 13.8812 3.48698   1
  -2   4 -10 11.7876 2.93175   4
  -2   4 -10 12.9807 2.90473  14
   2   4  10 8.73047 3.67688   9
   2   4  10 11.3294 2.85272   6
   2   4  10 13.3923 3.69725  12
  -9  -5  10 72.0483 6.13045  12
  -9  -5  10 75.4435 7.04705   1
   9  -5 -10 81.5501 6.89050   1
   9   5 -10 82.6072 7.78297   7
  -9   5  10 76.0913 6.30202   9
   7  -5 -10 262.882 12.2484   1
  -7  -5  10 277.734 11.2111  12
  -7  -5  10 297.127 12.8616   1
   7  -5 -10 278.126 14.1106  13
  -7   5  10 284.761 11.4275   9
  -7   5  10 281.425 11.7557   1
   7   5 -10 296.157 12.9766   7
   7   5 -10 277.194 11.3037   4
  -5  -5  10 73.9787 5.73538  12
   5  -5 -10 75.0245 6.86189  13
   5  -5 -10 79.4484 5.59566  14
   5  -5 -10 79.5291 5.96316   1
  -5  -5  10 86.2161 6.45539   1
  -5  -5  10 84.7088 5.12861   6
  -5   5  10 78.6512 5.35609  12
   5   5 -10 79.6320 5.85427  14
  -5   5  10 79.9080 6.51001   1
  -5   5  10 77.5868 5.73380   9
   5   5 -10 85.9780 6.68775   7
   5   5 -10 87.7395 6.08345   4
   3  -5 -10 336.810 11.9859   4
  -3  -5  10 353.701 11.3907   6
  -3  -5  10 350.737 12.3418   1
  -3  -5  10 338.756 12.6063  12
   3  -5 -10 363.687 12.6000  14
   3   5 -10 346.541 13.0196  14
   3   5 -10 333.192 12.5530   4
  -3   5  10 341.512 12.8500   9
   3   5 -10 355.988 13.2355   7
  -3   5  10 341.815 13.7782   1
  -3   5  10 361.097 12.3125  12
   1  -5 -10 186.787 7.97739   4
   1  -5 -10 186.181 8.54926   2
  -1  -5  10 168.335 7.37907   1
  -1  -5  10 181.684 7.34296   6
   1  -5 -10 179.057 8.44767  14
  -1  -5  10 153.120 8.41965  12
   1   5 -10 169.592 8.57449   7
  -1   5  10 184.370 9.50287   9
  -1   5  10 185.483 9.95801   1
  -1   5  10 171.611 8.11433   6
   1   5 -10 194.925 9.26314   4
   1   5 -10 176.196 9.21863  14
  -1   5  10 177.102 8.91267  12
  -1  -5 -10 89.5419 6.56998   2
  -1  -5 -10 88.9375 6.46152  14
   1  -5  10 82.5916 6.55337  12
   1  -5  10 93.0016 4.81865   6
   1   5  10 91.5154 7.13995   1
   1   5  10 82.2046 7.46946   9
  -1   5 -10 92.9086 6.85181  14
  -1   5 -10 84.9054 6.42632   4
   1   5  10 84.6088 6.03307   6
   1   5  10 91.0503 7.06223  12
  -8  -6  10 18.1751 3.59679  12
  -8  -6  10 18.6224 4.02937   1
   8  -6 -10 20.4276 4.23189   1
  -8   6  10 16.1990 3.48881   9
   8   6 -10 21.7820 4.26240   7
   6  -6 -10 910.217 25.4279   1
   6  -6 -10 883.215 27.3688  13
   6  -6 -10 856.885 22.3617  14
  -6  -6  10 844.587 23.0259  12
  -6  -6  10 908.132 25.1148   1
  -6   6  10 888.115 24.5394   1
   6   6 -10 880.220 23.8793   4
   6   6 -10 813.744 22.1499  14
  -6   6  10 874.988 23.4992   9
   6   6 -10 887.416 25.4271   7
   4  -6 -10 94.6077 6.02868  14
  -4  -6  10 102.331 6.65665   1
  -4  -6  10 88.8329 5.88037  12
  -4  -6  10 87.1988 5.58080   6
   4   6 -10 94.9535 6.83358   4
   4   6 -10 93.8078 7.15731   7
   4   6 -10 100.763 6.84267  14
  -4   6  10 95.6950 7.37208   1
  -4   6  10 90.3415 6.64713   9
  -2  -6  10 1255.84 28.1846   6
   2  -6 -10 1219.47 29.8603  14
  -2  -6  10 1142.58 29.5406  12
  -2  -6  10 1204.08 28.9634   1
   2  -6 -10 1222.09 28.8837   4
   2   6 -10 1214.20 30.9907   7
   2   6 -10 1248.48 31.2375  14
  -2   6  10 1233.95 32.3763   1
  -2   6  10 1241.15 31.2943   9
   2   6 -10 1207.32 30.5766   4
   0  -6  10 126.859 5.87618   6
   0  -6 -10 116.305 7.11934   2
   0  -6 -10 115.282 7.28570  14
   0   6  10 116.443 8.33436   9
   0   6 -10 122.486 7.77822   4
   0   6 -10 115.147 7.82210  14
   0   6  10 131.720 8.76797   1
  -9  -7  10 13.8414 3.50589  12
  -9  -7  10 6.88503 2.78454   1
   9  -7 -10 9.22728 3.50060   1
   9   7 -10 4.97659 2.80382   7
  -9   7  10 13.2995 3.60410   9
  -7  -7  10 38.7982 5.20004   1
   7  -7 -10 31.7841 4.79173   1
  -7  -7  10 28.8628 4.26151  12
   7   7 -10 31.5499 5.25987   7
   7   7 -10 29.3202 4.43948   4
  -7   7  10 33.6541 4.45483   9
  -5  -7  10 3.66044 2.08229   1
   5  -7 -10 4.13485 2.30382  14
   5  -7 -10 5.43479 2.82138   1
  -5  -7  10 5.94441 2.17886   6
  -5   7  10 5.43012 2.66423   1
   5   7 -10 5.06858 3.02576   7
  -5   7  10 1.98696 2.52606   9
   5   7 -10 6.88523 2.52190   4
  -3  -7  10 15.6447 3.12785   1
   3  -7 -10 20.7192 3.42045  14
  -3  -7  10 16.3419 2.70280   6
  -3   7  10 19.5272 3.62836   9
   3   7 -10 15.9059 3.99401   7
   3   7 -10 18.1657 3.88823   4
   3   7 -10 21.9104 3.83562  14
  -3   7  10 19.6172 3.88340   1
   1  -7 -10 1.07827 3.50307   2
  -1  -7  10 0.35361 1.38375   6
   1  -7 -10 2.92768 2.46212  14
   1   7 -10 3.55813 2.19188   4
   1   7 -10 -0.9217 2.01708   7
  -1   7  10 0.22003 2.60954   9
  -1   7  10 3.47410 2.78417   1
   1   7 -10 0.64196 2.45611  14
  -8  -8  10 256.329 12.3383   1
   8  -8 -10 261.174 12.5498   1
   8   8 -10 227.592 12.1311   7
  -8   8  10 244.789 10.8846   9
  -6  -8  10 531.121 18.4318   1
   6  -8 -10 539.150 18.9700   1
   6   8 -10 517.231 19.0098   7
  -6   8  10 544.736 17.6761   9
   6   8 -10 536.616 17.9128   4
   4  -8 -10 163.805 11.0870   1
  -4  -8  10 135.348 7.26613   6
  -4  -8  10 131.693 7.92980   1
   4  -8 -10 146.690 8.23085  14
   4   8 -10 129.940 8.46945   4
   4   8 -10 136.532 8.79912   7
  -4   8  10 140.748 8.22121   9
  -4   8  10 123.157 8.52639   1
  -2  -8  10 405.871 12.8771   6
  -2  -8  10 382.857 13.0276   1
   2  -8 -10 403.061 14.4301  14
   2   8 -10 421.687 15.8090   7
  -2   8  10 401.165 16.1301   1
  -2   8  10 394.452 15.0107   9
   2   8 -10 409.197 15.5041  14
   2   8 -10 409.177 15.1962   4
  -5  -9  10 9.70104 3.22503   1
  -5  -9  10 10.3857 2.70092   6
   5  -9 -10 7.47966 2.86007  14
   5  -9 -10 11.6352 3.16356   1
   5   9 -10 6.82928 3.47970   7
   5   9 -10 10.7387 3.04907   4
  -5   9  10 5.53137 2.84692   9
  -3  -9  10 4.29534 2.29572   1
   3  -9 -10 6.93746 3.08574  14
  -3  -9  10 5.47350 2.28433   6
  -3   9  10 7.37803 3.23248   1
  -3   9  10 6.18844 2.44424   9
   3   9 -10 5.01135 3.33716   7
   3   9 -10 1.79496 2.73273   4
 -10   0  11 7.81145 2.43433  12
 -10   0  11 2.40895 2.45716   1
  10   0 -11 0.20884 2.11781   4
  10   0 -11 -0.6103 2.43047   1
  -8   0  11 7.86053 2.48204   9
   8   0 -11 -0.9629 1.85904   4
  -8   0  11 2.01642 2.31239  12
  -8   0  11 0.11073 2.35210   1
   8   0 -11 2.21232 2.12248   1
   6   0 -11 0.84064 1.97615   4
   6   0 -11 2.34499 1.76617  14
  -6   0  11 2.05009 2.34898   1
   6   0 -11 0.78611 2.09788   7
  -6   0  11 -0.0026 1.62908   9
  -6   0  11 6.52471 2.55617  12
  -4   0  11 0.17861 1.70799   9
  -4   0  11 3.59036 1.91279   6
  -4   0  11 1.38433 2.21844   1
   4   0 -11 2.49534 1.86088   2
   4   0 -11 0.69645 1.31587   4
   4   0 -11 -0.2481 1.19475  14
  -4   0  11 0.25594 1.43775  12
   2   0 -11 1.71756 2.14691   2
  -2   0  11 2.27592 2.67728  12
   2   0 -11 2.21110 2.02204   4
   2   0 -11 -0.3224 1.95806  14
  -2   0  11 2.04857 1.60447   9
  -2   0  11 0.45070 1.56087   6
  -2   0  11 1.52361 2.11825   1
   0   0 -11 7.77358 2.38779  14
   0   0 -11 0.36494 1.25412   4
   0   0 -11 1.80104 2.41720   2
   0   0  11 0.55913 1.67775   6
   0   0  11 0.05959 1.82122   1
   0   0  11 -0.3952 2.47486  12
   0   0  11 2.33990 2.39792   9
  -2   0 -11 1.27542 1.78078   2
   2   0  11 -0.5247 2.59337  12
  -2   0 -11 -1.6924 1.99346  14
   2   0  11 3.85226 2.86170   9
   2   0  11 3.04485 1.70553   6
  11  -1 -11 85.6329 7.83835   1
 -11  -1  11 75.2132 6.52891  12
  11   1 -11 80.5373 7.66047   1
 -11   1  11 72.7267 6.13596  12
  -9  -1  11 700.714 20.4720  12
   9  -1 -11 737.043 22.7802   1
   9  -1 -11 706.762 20.8552   4
  -9  -1  11 702.544 21.6262   1
  -9   1  11 677.311 19.8505   9
   9   1 -11 715.228 20.6500   4
  -9   1  11 736.333 21.7746   1
  -9   1  11 725.575 20.4676  12
  -7  -1  11 152.199 8.73472   1
   7  -1 -11 162.742 8.24438   4
  -7  -1  11 157.626 7.54537   9
  -7  -1  11 165.329 8.51963  12
   7  -1 -11 161.364 10.6535  13
   7   1 -11 160.094 8.10705   4
  -7   1  11 154.628 7.92378   9
  -7   1  11 171.412 8.50945  12
  -7   1  11 152.460 9.01173   1
   7   1 -11 155.619 9.13868   7
  -5  -1  11 679.490 18.2490   6
   5  -1 -11 683.011 19.0872  14
  -5  -1  11 711.817 20.9175   1
  -5  -1  11 683.531 19.9832  12
   5  -1 -11 673.367 19.1782   7
   5  -1 -11 686.458 19.3772   4
  -5  -1  11 637.648 18.0904   9
  -5   1  11 650.623 18.9076   9
   5   1 -11 696.577 19.6945   7
   5   1 -11 694.277 19.3687   4
  -5   1  11 730.929 21.1891   1
   5   1 -11 695.211 19.1911  14
  -5   1  11 686.359 19.8948  12
   3  -1 -11 279.024 11.0563  14
  -3  -1  11 285.017 11.4834   1
  -3  -1  11 242.398 9.97968   9
   3  -1 -11 276.944 10.6229   4
  -3  -1  11 264.551 9.84788   6
  -3  -1  11 255.464 11.2080  12
   3  -1 -11 274.014 10.4224   2
  -3   1  11 259.982 9.86472   6
  -3   1  11 263.884 10.8988   9
  -3   1  11 263.031 11.3212  12
   3   1 -11 268.463 10.7247   2
  -3   1  11 279.811 11.6490   1
   3   1 -11 276.422 11.0921  14
   3   1 -11 263.540 10.4743   4
  -1  -1  11 455.814 13.4958   6
   1  -1 -11 436.393 14.6191  14
   1  -1 -11 435.129 13.9059   4
  -1  -1  11 402.797 14.2702   9
  -1  -1  11 432.155 15.7087  12
   1  -1 -11 442.530 14.9678   2
  -1  -1  11 430.845 14.1831   1
   1   1 -11 442.481 14.3934   4
   1   1 -11 432.682 14.8689  14
   1   1 -11 435.449 15.0973   2
  -1   1  11 448.171 15.0650   1
  -1   1  11 453.870 13.9585   6
  -1   1  11 428.505 15.3057   9
  -1   1  11 440.369 15.7554  12
   1  -1  11 285.822 10.2016   6
   1  -1  11 258.524 12.3888  12
  -1  -1 -11 268.546 11.3970  14
  -1  -1 -11 258.219 11.5539   2
   1   1  11 267.042 12.5023   9
  -1   1 -11 304.540 11.9086  14
   1   1  11 302.358 10.7610   6
  -1   1 -11 273.641 11.7405   2
   1   1  11 276.647 12.4812  12
   1   1  11 293.671 11.0108   1
 -10  -2  11 207.139 10.1793  12
  10  -2 -11 199.235 11.0013   1
 -10  -2  11 194.476 10.6386   1
 -10   2  11 205.654 9.56576  12
  10   2 -11 204.826 11.7206   7
  10   2 -11 207.153 11.3980   1
   8  -2 -11 312.256 12.4723   4
   8  -2 -11 319.742 13.4778   1
  -8  -2  11 320.829 13.3849   1
  -8  -2  11 319.553 12.5936  12
  -8   2  11 303.129 11.7215   9
   8   2 -11 318.847 13.8946   7
  -8   2  11 306.794 12.8345   1
  -8   2  11 312.647 11.8666  12
   6  -2 -11 234.700 9.56512  14
  -6  -2  11 243.147 11.2463   1
  -6  -2  11 239.796 10.5062  12
   6  -2 -11 227.631 12.4109  13
   6  -2 -11 250.302 10.5125   4
   6   2 -11 228.718 10.0484   4
  -6   2  11 252.452 11.3649   1
   6   2 -11 245.975 9.66080  14
  -6   2  11 252.570 10.4650  12
   6   2 -11 254.023 11.2055   7
  -6   2  11 238.273 10.0164   9
  -4  -2  11 247.855 10.7881   1
  -4  -2  11 237.786 9.23909   6
  -4  -2  11 249.795 10.8643  12
   4  -2 -11 247.663 10.0900   4
   4  -2 -11 235.659 9.80456  14
  -4   2  11 228.179 10.2345  12
   4   2 -11 236.273 9.91487   7
   4   2 -11 234.865 10.0821   4
   4   2 -11 232.049 10.1559  14
  -4   2  11 237.150 10.2810   9
  -4   2  11 232.536 9.33069   6
  -4   2  11 254.763 11.4174   1
  -2  -2  11 217.656 9.55624   1
   2  -2 -11 228.265 9.91098  14
  -2  -2  11 203.534 10.2349  12
  -2  -2  11 212.475 8.65539   6
   2  -2 -11 204.262 9.28827   2
   2  -2 -11 213.702 9.12533   4
   2   2 -11 204.183 9.20142   4
   2   2 -11 214.052 9.95252   2
  -2   2  11 226.832 10.4929   1
  -2   2  11 227.334 10.6563  12
  -2   2  11 211.031 10.1481   9
  -2   2  11 218.846 9.09440   6
   2   2 -11 209.226 9.60811  14
   0  -2  11 107.864 7.86440  12
   0  -2 -11 110.851 6.80994  14
   0  -2  11 101.892 5.68518   6
   0  -2 -11 106.533 6.84820   2
   0   2  11 110.266 8.00563  12
   0   2 -11 101.324 6.34539   4
   0   2  11 109.462 6.48271   6
   0   2  11 112.368 7.31545   1
   0   2 -11 107.392 6.81287  14
   0   2 -11 100.498 7.30593   2
   0   2  11 100.301 7.75683   9
  -9  -3  11 136.915 9.00522   1
  -9  -3  11 137.311 8.22739  12
   9  -3 -11 123.930 7.69759   4
   9  -3 -11 141.611 9.29868   1
  -9   3  11 116.530 9.20198   1
   9   3 -11 156.549 10.0602   7
   9   3 -11 124.733 7.84956   4
  -9   3  11 135.619 7.83313   9
  -9   3  11 143.658 7.68102  12
  -7  -3  11 812.885 23.3860   1
   7  -3 -11 783.960 21.9496   4
   7  -3 -11 763.116 28.3943  13
   7  -3 -11 747.317 22.5791   1
  -7  -3  11 781.884 21.9225  12
  -7   3  11 776.009 21.6890   9
  -7   3  11 792.667 21.1040  12
   7   3 -11 787.031 23.4720   7
  -7   3  11 798.310 22.9308   1
   7   3 -11 780.058 21.9461   4
  -5  -3  11 181.479 8.01627   6
   5  -3 -11 179.492 10.6116  13
  -5  -3  11 179.718 9.37165   1
   5  -3 -11 165.204 8.45161   4
  -5  -3  11 183.420 9.24124  12
   5  -3 -11 161.287 8.14860  14
   5   3 -11 165.710 8.64012   7
   5   3 -11 174.842 8.82378   4
   5   3 -11 181.455 8.76011  14
  -5   3  11 183.275 9.09579   9
  -5   3  11 178.605 9.37376   1
  -5   3  11 178.128 8.52678  12
   3  -3 -11 947.298 24.2302   2
  -3  -3  11 1027.02 26.0114   1
  -3  -3  11 975.378 26.0662  12
   3  -3 -11 994.457 25.5227  14
   3  -3 -11 990.556 25.0067   4
  -3  -3  11 1017.94 24.2631   6
  -3   3  11 996.465 26.0369  12
  -3   3  11 994.800 26.4142   9
  -3   3  11 1020.74 27.2661   1
  -3   3  11 983.299 24.4194   6
   3   3 -11 968.912 25.6043   4
   3   3 -11 978.864 25.2322   7
   3   3 -11 989.202 25.9618  14
  -1  -3  11 84.3878 5.74056   1
   1  -3 -11 89.3753 6.13557  14
  -1  -3  11 97.0810 7.28608  12
  -1  -3  11 110.811 5.88293   6
   1  -3 -11 102.297 6.71114   2
   1  -3 -11 90.4760 5.80905   4
  -1   3  11 89.3337 5.94186   6
  -1   3  11 91.5977 6.78000  12
   1   3 -11 92.3101 6.47945   4
   1   3 -11 96.0459 7.08052   2
  -1   3  11 83.9814 7.16195   9
  -1   3  11 93.8011 7.01036   1
   1   3 -11 103.982 6.75763  14
  -1  -3 -11 603.092 18.9527   2
   1  -3  11 630.071 16.4149   6
   1  -3  11 610.627 20.1453  12
  -1  -3 -11 611.767 18.7391  14
   1   3  11 631.850 20.5159  12
   1   3  11 630.146 19.1803   1
   1   3  11 620.409 18.1411   6
  -1   3 -11 591.570 17.9014   4
  -1   3 -11 622.404 19.0440  14
  -1   3 -11 631.031 19.7714   2
 -10  -4  11 6.05959 3.14448   1
  10  -4 -11 6.59482 2.67241   4
  10  -4 -11 4.01836 3.12032   1
 -10  -4  11 3.67378 2.83414  12
  10   4 -11 11.3046 4.18706   7
 -10   4  11 5.03741 2.24217   9
   8  -4 -11 61.2633 5.54810   4
  -8  -4  11 55.5994 5.88354  12
  -8  -4  11 67.2337 6.79237   1
   8  -4 -11 56.1763 6.16322   1
  -8   4  11 60.2529 5.15326  12
   8   4 -11 62.5615 6.81748   7
  -8   4  11 65.2605 5.74805   1
  -8   4  11 69.7256 6.07636   9
  -6  -4  11 34.6371 4.87775   1
  -6  -4  11 33.4976 4.37049  12
   6  -4 -11 36.5705 4.75245   4
   6  -4 -11 31.8167 5.40185  13
   6  -4 -11 30.6726 3.97333  14
  -6  -4  11 33.2880 3.85702   6
  -6   4  11 34.7279 4.64862   9
   6   4 -11 44.2262 5.28962   4
  -6   4  11 30.0523 3.95926  12
   6   4 -11 30.6629 4.71715   7
  -6   4  11 44.2117 5.64992   1
  -4  -4  11 73.2476 4.89872   6
   4  -4 -11 74.8059 5.40751   4
   4  -4 -11 68.9851 6.57395  13
  -4  -4  11 75.6379 6.27213  12
  -4  -4  11 76.4866 6.14300   1
   4  -4 -11 70.9724 5.70575  14
  -4   4  11 75.5314 6.71551   1
   4   4 -11 69.2041 5.92246  14
  -4   4  11 68.5935 6.06342   9
  -4   4  11 78.9048 5.97608  12
   4   4 -11 75.5188 5.77331   4
   4   4 -11 69.7965 6.05534   7
  -2  -4  11 130.356 7.75564  12
  -2  -4  11 132.821 6.56471   6
   2  -4 -11 119.805 6.96424   2
   2  -4 -11 135.609 7.71051  14
   2  -4 -11 118.465 6.83681   4
  -2  -4  11 116.252 6.72101   1
  -2   4  11 121.978 7.15496   6
  -2   4  11 123.068 7.90997   1
   2   4 -11 114.964 7.65230  14
  -2   4  11 126.860 8.24520   9
   2   4 -11 124.569 7.37321   4
  -2   4  11 124.850 7.81789  12
   0  -4 -11 59.4987 5.59788  14
   0  -4  11 52.2447 6.19249  12
   0  -4  11 57.3903 4.27168   6
   0  -4 -11 52.9811 5.72231   2
   0   4  11 58.6257 6.51398   9
   0   4 -11 45.6801 5.16125   4
   0   4 -11 55.2455 5.14667  14
   0   4  11 48.4761 5.56314   1
   0   4  11 60.2827 5.16870   6
   0   4  11 64.1011 6.34662  12
   9  -5 -11 426.527 16.7694   1
   9  -5 -11 396.281 15.0662   4
  -9  -5  11 413.560 15.0065  12
   9   5 -11 400.903 16.7984   7
  -9   5  11 412.517 15.1314   9
  -7  -5  11 232.929 11.4138   1
  -7  -5  11 230.281 10.4546  12
   7  -5 -11 223.225 10.3502   4
   7  -5 -11 223.266 11.2167   1
  -7   5  11 214.535 10.3634   9
  -7   5  11 217.535 10.8606   1
   7   5 -11 216.528 10.4353   4
  -7   5  11 219.870 9.17964  12
   7   5 -11 203.137 11.0950   7
   5  -5 -11 305.347 12.2617   4
  -5  -5  11 325.596 12.7175  12
  -5  -5  11 325.844 13.1683   1
  -5  -5  11 353.603 11.9774   6
   5  -5 -11 323.713 12.1506  14
   5  -5 -11 325.819 14.7360  13
  -5   5  11 326.194 11.8917  12
  -5   5  11 339.694 13.0274   9
   5   5 -11 332.279 12.7156   4
   5   5 -11 311.716 12.4223  14
  -5   5  11 335.525 13.9412   1
   5   5 -11 329.192 13.2941   7
  -3  -5  11 213.897 9.57294   1
   3  -5 -11 211.846 9.82209  14
  -3  -5  11 201.748 10.0760  12
  -3  -5  11 220.068 8.95692   6
   3  -5 -11 212.073 9.43434   4
  -3   5  11 215.907 11.3238   1
   3   5 -11 208.495 10.2922  14
  -3   5  11 207.637 10.5388   9
   3   5 -11 206.459 10.1482   7
  -3   5  11 228.349 10.0272  12
   3   5 -11 217.869 10.2493   4
   1  -5 -11 286.119 11.3435   2
  -1  -5  11 302.311 12.5743  12
  -1  -5  11 299.430 10.4062   6
   1  -5 -11 310.141 12.2407  14
  -1   5  11 320.732 12.9235  12
   1   5 -11 298.788 12.1427   4
   1   5 -11 298.768 12.6156  14
  -1   5  11 310.714 13.5290   9
  -1   5  11 312.263 13.5476   1
  -8  -6  11 1.34258 2.23357  12
   8  -6 -11 3.07797 2.87047   1
  -8  -6  11 1.75886 2.90745   1
   8   6 -11 1.66230 2.97502   7
  -8   6  11 1.64719 2.49781   9
  -6  -6  11 65.9225 5.94201  12
   6  -6 -11 67.3870 6.49461   1
  -6  -6  11 74.9496 6.79016   1
   6   6 -11 61.3161 6.96349  14
  -6   6  11 73.0040 6.31753   9
   6   6 -11 73.6237 6.45614   4
   6   6 -11 61.7691 6.55278   7
  -6   6  11 79.0659 6.90283   1
  -4  -6  11 53.7392 4.80196   6
  -4  -6  11 72.2168 6.10284   1
   4  -6 -11 59.2184 5.60317  14
  -4  -6  11 56.7764 5.49180  12
  -4   6  11 56.1058 5.81390   1
  -4   6  11 53.2438 5.28278   9
   4   6 -11 52.3453 5.95833   4
   4   6 -11 58.1434 5.91712  14
   4   6 -11 48.7605 5.93635   7
  -2  -6  11 40.9242 4.08163   6
  -2  -6  11 42.9837 4.26153   1
   2  -6 -11 35.8194 4.14607   4
   2  -6 -11 49.2505 5.57625  14
   2   6 -11 37.5113 4.89791  14
  -2   6  11 42.7614 4.96695  12
  -2   6  11 43.8285 5.82235   9
   2   6 -11 31.1807 4.57389   4
  -2   6  11 47.1916 6.24838   1
   2   6 -11 39.3125 5.19318   7
   7  -7 -11 199.434 11.1775   1
  -7  -7  11 223.272 11.6757   1
  -7   7  11 204.137 10.3157   9
   7   7 -11 204.230 11.1028   7
   7   7 -11 205.894 10.4019   4
  -5  -7  11 648.169 20.2379   1
   5  -7 -11 633.991 19.3861   4
  -5   7  11 634.834 20.9513   1
  -5   7  11 620.301 19.8044   9
   5   7 -11 605.815 19.2598  14
   5   7 -11 607.828 20.7395   7
   5   7 -11 661.922 20.4423   4
  -3  -7  11 242.567 9.72241   6
  -3  -7  11 234.312 10.4261   1
   3  -7 -11 245.844 10.9083  14
  -3   7  11 240.471 12.2660   1
   3   7 -11 228.093 11.1080  14
   3   7 -11 234.665 11.0220   4
  -3   7  11 249.049 11.6479   9
   3   7 -11 233.899 11.3955   7
   4  -8 -11 93.3276 6.85267   4
  -4  -8  11 101.187 7.00058   1
  -4  -8  11 103.130 6.57844   6
   4   8 -11 109.693 8.49653   7
  -4   8  11 110.396 8.55618   1
  -4   8  11 97.1416 7.59310   9
   4   8 -11 114.853 8.14858   4
 -10   0  12 19.7993 4.14500  12
 -10   0  12 14.1714 3.26481   1
  10   0 -12 16.0561 3.19966   4
  -8   0  12 1139.99 30.5516   1
  -8   0  12 1156.39 29.1146  12
   8   0 -12 1085.57 30.1791   7
   8   0 -12 1095.42 28.8444   4
  -8   0  12 1117.69 27.9719   9
  -6   0  12 60.0202 6.27946   1
   6   0 -12 53.9695 5.39567   4
  -6   0  12 55.0335 5.51750  12
  -4   0  12 1219.62 30.9349   1
   4   0 -12 1177.65 29.1673   4
  -4   0  12 1107.56 28.6589   9
   4   0 -12 1178.10 29.5143  14
   4   0 -12 1148.42 28.3980   2
  -4   0  12 1177.92 28.3306   6
  -4   0  12 1162.44 30.1952  12
  -2   0  12 5.30732 2.63287   1
  -2   0  12 4.68307 2.15782   6
   2   0 -12 4.79321 1.99700   4
  -2   0  12 6.17743 2.77152   9
   2   0 -12 7.50401 2.96211   2
  -2   0  12 5.88039 2.59010  12
   2   0 -12 2.49683 2.45991  14
   0   0  12 1014.64 25.2490   6
   0   0  12 1026.26 25.8369   1
   0   0  12 1006.81 28.6419  12
   0   0 -12 989.684 26.6033  14
   0   0 -12 1027.27 27.5143   2
  -9  -1  12 20.1845 3.96474  12
  -9  -1  12 19.8192 3.73208   1
   9  -1 -12 14.4867 3.11995   4
  -9   1  12 13.8582 3.36105  12
  -9   1  12 10.6810 3.35781   1
   9   1 -12 13.1129 3.37294   4
   9   1 -12 14.4170 4.21106   7
  -9   1  12 14.7519 3.31476   9
  -7  -1  12 101.162 7.82341   1
   7  -1 -12 89.5606 7.00077   7
   7  -1 -12 96.6295 6.60230   4
  -7  -1  12 99.1462 7.13531  12
   7   1 -12 87.9844 6.70517   4
  -7   1  12 95.1903 6.98109  12
  -7   1  12 86.1912 5.96505   9
  -7   1  12 94.4569 7.57855   1
   7   1 -12 94.4240 7.41472   7
   5  -1 -12 120.953 7.13317  14
   5  -1 -12 121.726 7.49603   4
  -5  -1  12 110.934 7.75568  12
  -5  -1  12 122.317 6.88278   6
  -5  -1  12 119.514 8.12292   1
  -5   1  12 126.582 8.49302   1
   5   1 -12 124.528 7.23098  14
  -5   1  12 132.761 7.92859  12
   5   1 -12 126.282 7.43072   4
  -5   1  12 113.846 7.25779   9
   5   1 -12 127.105 7.46799   7
  -3  -1  12 12.3790 2.67055   6
  -3  -1  12 14.3791 3.72150  12
   3  -1 -12 7.10157 2.66853   4
   3  -1 -12 15.0977 3.42229  14
  -3  -1  12 8.40271 2.56094   1
   3  -1 -12 9.36520 2.84199   2
  -3   1  12 11.7400 3.46789   1
  -3   1  12 9.67256 3.00015   9
   3   1 -12 7.27186 2.28848   4
  -3   1  12 10.2728 2.64815   6
  -3   1  12 7.27264 3.31523  12
   3   1 -12 10.7342 3.15250   2
   3   1 -12 11.0349 3.08785  14
  -1  -1  12 121.950 7.19498   1
   1  -1 -12 123.143 7.49919  14
  -1  -1  12 123.669 8.73201  12
  -1  -1  12 141.558 7.13538   6
   1  -1 -12 111.992 7.65523   2
   1  -1 -12 110.637 6.81002   4
  -1   1  12 122.401 7.65815   1
   1   1 -12 126.704 7.49065   4
   1   1 -12 112.260 7.54801  14
  -1   1  12 120.195 8.31837   9
   1   1 -12 122.036 7.69782   2
  -1   1  12 122.117 8.60032  12
 -10   2  12 266.353 11.5699   9
   8  -2 -12 498.550 16.9613   4
  -8  -2  12 541.049 18.7615   1
  -8  -2  12 525.612 17.4409  12
  -8   2  12 518.172 16.7402  12
   8   2 -12 506.346 17.0619   4
  -8   2  12 535.199 18.3533   1
  -8   2  12 503.537 16.7093   9
   6  -2 -12 560.776 17.6749   4
  -6  -2  12 559.688 18.8407   1
  -6  -2  12 557.956 18.0007  12
  -6   2  12 527.507 17.3249   9
  -6   2  12 564.717 19.0604   1
   6   2 -12 525.951 16.5798  14
   6   2 -12 561.290 17.7972   4
  -6   2  12 557.541 17.7104  12
   6   2 -12 541.305 17.9303   7
   4  -2 -12 448.681 15.2182  14
  -4  -2  12 471.114 16.4051  12
  -4  -2  12 457.859 16.0163   1
  -4  -2  12 458.019 14.4018   6
   4  -2 -12 461.629 15.1944   4
  -4   2  12 431.180 15.3660   9
  -4   2  12 437.315 15.6980  12
   4   2 -12 438.440 15.4604  14
   4   2 -12 452.926 15.3599   4
  -4   2  12 464.665 16.9472   1
  -2  -2  12 404.116 13.8532   1
  -2  -2  12 359.286 14.7168  12
  -2  -2  12 387.781 12.8419   6
   2  -2 -12 343.922 13.2889   2
   2  -2 -12 383.049 14.0845  14
   2  -2 -12 366.574 13.1454   4
   2   2 -12 379.482 13.6501   4
  -2   2  12 400.193 14.8261   1
  -2   2  12 379.978 14.9624  12
  -2   2  12 367.355 14.5282   9
   2   2 -12 382.522 14.2893  14
   2   2 -12 370.748 14.0602   2
   0  -2 -12 124.292 7.51836  14
   0  -2 -12 125.702 8.02833   2
   0  -2  12 122.802 8.85742  12
   0  -2  12 126.021 6.63713   6
   0   2 -12 126.311 7.18299   4
   0   2 -12 118.265 8.15536   2
   0   2  12 134.324 7.22142   6
   0   2  12 127.941 8.96509   9
   0   2 -12 124.424 7.99772  14
   0   2  12 121.019 7.67107   1
   0   2  12 127.343 9.08503  12
   9  -3 -12 82.7203 7.00586   4
  -9  -3  12 83.8021 7.13879   1
  -9  -3  12 84.4149 6.90539  12
   9  -3 -12 78.1887 6.96586   1
  -9   3  12 94.3352 7.35963   1
   9   3 -12 77.4626 7.66655   7
  -9   3  12 84.2044 6.83962   9
   9   3 -12 75.2981 6.35240   4
  -9   3  12 84.2771 6.35021  12
  -7  -3  12 20.4811 3.85205   1
  -7  -3  12 17.5705 3.91061  12
   7  -3 -12 17.8071 3.92275   4
   7   3 -12 17.9238 3.71590   7
  -7   3  12 21.0142 4.13157   1
  -7   3  12 17.2836 3.53203  12
  -7   3  12 21.5726 3.78225   9
   7   3 -12 16.7726 3.59089   4
   5  -3 -12 9.75440 2.80521  14
  -5  -3  12 9.05733 3.24437  12
  -5  -3  12 6.59989 2.43734   1
  -5  -3  12 11.2801 2.80850   6
   5  -3 -12 6.34204 2.27141   4
  -5   3  12 7.12862 2.56516   9
   5   3 -12 1.55682 2.45227   4
  -5   3  12 8.01647 2.95958  12
   5   3 -12 7.10849 2.76039  14
  -5   3  12 7.80950 3.35451   1
   5   3 -12 6.76385 2.85255   7
  -3  -3  12 74.1900 6.09032   1
  -3  -3  12 76.6128 6.75309  12
  -3  -3  12 70.8942 5.31583   6
   3  -3 -12 69.7253 5.64903  14
   3  -3 -12 68.5317 5.64090   4
   3   3 -12 61.7884 5.49963  14
   3   3 -12 63.1462 5.87961   4
  -3   3  12 75.9467 6.86457   1
  -3   3  12 73.3913 6.54818  12
  -3   3  12 70.1317 6.58227   9
   1  -3 -12 3.26500 2.57954  14
  -1  -3  12 3.82939 3.01017  12
  -1  -3  12 1.11109 1.68323   6
   1  -3 -12 0.80473 2.35928   2
   1   3 -12 2.08277 1.87145  14
   1   3 -12 4.01894 2.54160   4
  -1   3  12 5.18013 3.20312   9
  -1   3  12 2.34763 1.61004   6
  -1   3  12 2.11935 2.63484   1
  -1   3  12 1.46885 2.85657  12
  -8  -4  12 38.2389 5.24597  12
   8  -4 -12 29.2381 4.73329   4
  -8  -4  12 39.1895 5.81817   1
   8  -4 -12 37.0012 4.97647   1
  -8   4  12 31.8167 4.19174  12
   8   4 -12 48.8277 5.79291   4
  -8   4  12 37.0070 5.42400   1
  -8   4  12 44.5541 5.27735   9
   8   4 -12 31.3678 5.23428   7
  -6  -4  12 458.495 16.1928  12
   6  -4 -12 443.482 15.4054  14
   6  -4 -12 466.063 15.9338   4
  -6  -4  12 480.475 16.9907   1
   6   4 -12 460.316 16.4855   7
  -6   4  12 465.065 15.1423  12
  -6   4  12 451.860 15.9011   9
  -6   4  12 472.192 17.5203   1
   6   4 -12 468.929 16.3542   4
  -4  -4  12 37.7376 4.38920   6
  -4  -4  12 38.6541 5.21733  12
  -4  -4  12 31.5313 4.33395   1
   4  -4 -12 35.3178 4.32363   4
   4  -4 -12 35.2930 4.72307  14
   4   4 -12 36.8460 4.87438   7
   4   4 -12 35.3969 4.60094  14
  -4   4  12 42.3462 5.59674   9
  -4   4  12 34.9543 4.48424  12
   4   4 -12 40.6682 5.18735   4
  -2  -4  12 658.588 18.1256   6
  -2  -4  12 616.010 20.1970  12
   2  -4 -12 648.982 19.5892  14
   2  -4 -12 640.981 18.5731   4
  -2   4  12 653.733 21.4481   1
   2   4 -12 624.847 19.5839   4
   2   4 -12 675.159 20.5234  14
  -2   4  12 630.651 20.7010   9
  -2   4  12 657.809 20.4690  12
  -7  -5  12 0.59887 2.51033  12
   7  -5 -12 4.98577 2.81191   4
  -7  -5  12 0.83618 2.00798   1
  -7   5  12 -2.7193 2.20276   9
   7   5 -12 0.52772 2.80141   7
  -7   5  12 -0.8639 2.56403   1
   7   5 -12 0.75177 1.71428   4
  -5  -5  12 1.67582 1.91663   6
  -5  -5  12 0.30487 2.51053   1
   5  -5 -12 1.88333 2.40878   4
  -5  -5  12 2.37697 2.76394  12
   5  -5 -12 3.88930 1.98537  14
  -5   5  12 3.03680 2.30679   1
   5   5 -12 2.02394 2.57775   7
   5   5 -12 4.52481 2.12105  14
  -5   5  12 0.66735 2.08240  12
   5   5 -12 1.23020 1.85314   4
  -5   5  12 1.95373 2.78340   9
  -3  -5  12 44.3021 5.31890  12
   3  -5 -12 42.6749 4.86756  14
   3  -5 -12 50.5286 5.13169   4
  -3  -5  12 42.4916 4.41738   6
  -3   5  12 41.3682 5.39586   9
   3   5 -12 50.6257 5.98638  14
  -3   5  12 47.9745 6.12909   1
   3   5 -12 37.6923 4.75364   7
  -3   5  12 50.0838 5.64780  12
   3   5 -12 42.2381 4.94579   4
  -6  -6  12 133.690 8.88867   1
  -6  -6  12 116.612 7.86886  12
   6  -6 -12 138.547 8.48424   4
  -6   6  12 132.098 9.12349   1
   6   6 -12 129.569 8.15731   4
  -6   6  12 127.904 8.48582   9
   6   6 -12 127.308 8.45594   7
  -4  -6  12 727.257 21.6662   1
  -4  -6  12 788.464 20.8484   6
  -4  -6  12 736.081 21.9373  12
   4  -6 -12 750.855 21.3431   4
   4  -6 -12 740.552 21.5984  14
  -4   6  12 738.403 23.8054   1
   4   6 -12 728.741 22.5880   4
   4   6 -12 748.218 22.5464  14
  -8   0  13 0.73458 2.05651   1
   8   0 -13 2.55434 2.71380   7
  -8   0  13 0.74326 2.66936  12
   8   0 -13 2.95462 2.08789   4
   6   0 -13 -0.9057 1.50381   4
  -6   0  13 1.28058 2.46744  12
  -6   0  13 -0.9323 2.31380   1
   4   0 -13 5.54718 2.70229   4
  -4   0  13 0.77664 2.02757   6
   4   0 -13 1.02594 2.32379  14
  -4   0  13 0.11634 2.38746   1
  -4   0  13 0.50884 2.50114  12
  -7  -1  13 574.620 19.8385   1
  -7  -1  13 580.162 19.0760  12
   7  -1 -13 558.168 18.5543   4
  -7   1  13 628.486 20.7019   1
   7   1 -13 567.748 18.8304   4
   7   1 -13 557.888 18.9389   7
  -7   1  13 579.584 18.1430   9
  -7   1  13 601.860 19.1158  12
   5  -1 -13 71.8335 5.77632   4
  -5  -1  13 84.7127 7.28733   1
  -5  -1  13 73.6394 6.89389  12
   5   1 -13 75.8025 5.92616   4
   5   1 -13 75.3636 6.36671  14
  -5   1  13 87.0497 7.64564   1
  -5   1  13 89.1511 7.23297  12
  -5   1  13 69.1026 6.15063   9
  -3  -1  13 647.993 19.8843   1
   3  -1 -13 560.161 18.1018   2
  -3  -1  13 608.325 20.0871  12
   3  -1 -13 592.382 18.5888   4
   3  -1 -13 597.569 19.1398  14
  -3  -1  13 651.039 18.5278   6
  -3   1  13 575.989 19.1708   9
  -3   1  13 618.177 18.3041   6
   3   1 -13 591.591 18.5547   4
  -3   1  13 627.577 20.1748   1
   3   1 -13 586.553 19.1707  14
  -3   1  13 623.707 20.2829  12
   8  -2 -13 186.460 9.69941   4
   8  -2 -13 182.455 11.6082   7
  -8  -2  13 190.413 10.5374   1
  -8  -2  13 168.041 9.82854  12
  -8   2  13 187.403 9.73669  12
   8   2 -13 184.243 10.6683   7
  -8   2  13 176.329 9.41918   9
  -8   2  13 185.129 10.3146   1
   8   2 -13 179.129 9.76626   4
   6  -2 -13 167.694 9.15235   4
  -6  -2  13 167.416 9.74040  12
  -6  -2  13 184.561 10.5190   1
  -6   2  13 172.084 9.46989  12
   6   2 -13 156.460 9.01216   7
  -6   2  13 171.598 10.3699   1
   6   2 -13 162.795 9.27468   4
   4  -2 -13 210.545 10.3207  14
   4  -2 -13 221.072 10.2302   4
  -4  -2  13 218.654 11.5552  12
  -4  -2  13 238.188 11.3991   1
  -4  -2  13 224.659 9.82922   6
  -4   2  13 217.789 11.6063   1
   4   2 -13 229.552 10.7869   4
   4   2 -13 215.247 10.3823  14
  -4   2  13 206.165 10.6104   9
  -4   2  13 217.868 11.1056  12
  -7  -3  13 173.229 9.86229  12
   7  -3 -13 174.875 9.31599   4
  -7  -3  13 167.705 10.2100   1
   7   3 -13 178.463 9.51392   4
   7   3 -13 182.198 10.2419   7
  -7   3  13 184.420 10.8226   1
  -7   3  13 200.404 9.81973  12
  -7   3  13 170.641 9.53918   9
  -5  -3  13 410.309 15.5310   1
  -5  -3  13 400.154 13.7490   6
  -5  -3  13 381.592 15.2106  12
   5  -3 -13 384.183 14.2318   4
  -5   3  13 387.627 14.5179  12
   5   3 -13 380.615 14.6922   4
   5   3 -13 376.297 14.4248  14
  -5   3  13 387.539 16.0134   1
  -5   3  13 374.768 14.8328   9
   0   0   0    0.00    0.00   0

 _exptl_absorpt_process_details
)
 SADABS 2016/2: Krause, L., Herbst-Irmer, R., Sheldrick G.M. & Stalke D.,
 J. Appl. Cryst. 48 (2015) 3-10
)
 _exptl_absorpt_correction_type   multi-scan
 _exptl_absorpt_correction_T_max  0.7479
 _exptl_absorpt_correction_T_min  0.5786
 _exptl_special_details
)
 The following wavelength and cell were deduced by SADABS from the
 direction cosines etc. They are given here for emergency use only:
 CELL 0.71064    6.932    7.604    7.458   89.990  116.409   90.018
)

;
_shelx_hkl_checksum              77493
loop_
_space_group_symop_operation_xyz
'x, y, z'
'-x, y, -z+1/2'
'x+1/2, y+1/2, z'
'-x+1/2, y+1/2, -z+1/2'
'-x, -y, -z'
'x, -y, z-1/2'
'-x+1/2, -y+1/2, -z'
'x+1/2, -y+1/2, z-1/2'
loop_
_atom_site_label
_atom_site_type_symbol
_atom_site_fract_x
_atom_site_fract_y
_atom_site_fract_z
_atom_site_U_iso_or_equiv
_atom_site_adp_type
_atom_site_occupancy
_atom_site_site_symmetry_order
_atom_site_calc_flag
_atom_site_refinement_flags_posn
_atom_site_refinement_flags_adp
_atom_site_refinement_flags_occupancy
_atom_site_disorder_assembly
_atom_site_disorder_group
Co Co 0.000000 0.500000 0.000000 0.00474(3) Uani 1 2 d S . P . .
S S 0.000000 0.15468(2) 0.250000 0.00432(4) Uani 1 2 d S T P . .
O1 O 0.17231(7) 0.04404(7) 0.40123(7) 0.00913(7) Uani 1 1 d . . . . .
O2 O 0.09866(7) 0.26764(6) 0.15475(7) 0.00793(7) Uani 1 1 d . . . . .
O3 O 0.000000 0.63806(9) 0.250000 0.00719(9) Uani 1 2 d S T P . .
H H 0.110(2) 0.705(2) 0.294(2) 0.020(3) Uiso 1 1 d . . . . .
loop_
_atom_site_aniso_label
_atom_site_aniso_U_11
_atom_site_aniso_U_22
_atom_site_aniso_U_33
_atom_site_aniso_U_23
_atom_site_aniso_U_13
_atom_site_aniso_U_12
Co 0.00454(5) 0.00472(5) 0.00503(5) 0.00034(3) 0.00235(3) -0.00008(3)
S 0.00356(7) 0.00404(7) 0.00533(7) 0.000 0.00210(5) 0.000
O1 0.00576(15) 0.01036(18) 0.01044(17) 0.00513(14) 0.00319(13) 0.00267(13)
O2 0.00812(16) 0.00695(16) 0.01093(16) 0.00341(13) 0.00634(13) 0.00101(12)
O3 0.0071(2) 0.0076(2) 0.0072(2) 0.000 0.00371(17) 0.000
loop_
_atom_type_symbol
_atom_type_description
_atom_type_scat_dispersion_real
_atom_type_scat_dispersion_imag
_atom_type_scat_source
O O 0.0106 0.0060 'International Tables Vol C Tables 4.2.6.8 and 6.1.1.4'
H H 0.0000 0.0000 'International Tables Vol C Tables 4.2.6.8 and 6.1.1.4'
S S 0.1246 0.1234 'International Tables Vol C Tables 4.2.6.8 and 6.1.1.4'
Co Co 0.3494 0.9721 'International Tables Vol C Tables 4.2.6.8 and 6.1.1.4'
loop_
_geom_angle_atom_site_label_1
_geom_angle_atom_site_label_2
_geom_angle_atom_site_label_3
_geom_angle
_geom_angle_site_symmetry_1
_geom_angle_site_symmetry_3
_geom_angle_publ_flag
O2 Co O2 180.0 5_565 . ?
O2 Co O1 85.52(2) 5_565 8_455 ?
O2 Co O1 94.48(2) . 8_455 ?
O2 Co O1 94.48(2) 5_565 4 ?
O2 Co O1 85.52(2) . 4 ?
O1 Co O1 180.0 8_455 4 ?
O2 Co O3 93.07(2) 5_565 5_565 ?
O2 Co O3 86.93(2) . 5_565 ?
O1 Co O3 93.581(16) 8_455 5_565 ?
O1 Co O3 86.419(16) 4 5_565 ?
O2 Co O3 86.93(2) 5_565 . ?
O2 Co O3 93.07(2) . . ?
O1 Co O3 86.419(16) 8_455 . ?
O1 Co O3 93.581(16) 4 . ?
O3 Co O3 180.0 5_565 . ?
O2 Co O2 81.697(13) 5_565 4 ?
O2 Co O2 98.303(14) . 4 ?
O1 Co O2 136.757(16) 8_455 4 ?
O1 Co O2 43.243(16) 4 4 ?
O3 Co O2 128.095(13) 5_565 4 ?
O3 Co O2 51.905(13) . 4 ?
O2 Co O2 98.303(14) 5_565 8_455 ?
O2 Co O2 81.697(14) . 8_455 ?
O1 Co O2 43.243(16) 8_455 8_455 ?
O1 Co O2 136.757(16) 4 8_455 ?
O3 Co O2 51.905(13) 5_565 8_455 ?
O3 Co O2 128.095(13) . 8_455 ?
O2 Co O2 180.0 4 8_455 ?
O2 Co O2 137.375(17) 5_565 2 ?
O2 Co O2 42.624(17) . 2 ?
O1 Co O2 67.249(19) 8_455 2 ?
O1 Co O2 112.751(19) 4 2 ?
O3 Co O2 119.674(19) 5_565 2 ?
O3 Co O2 60.326(19) . 2 ?
O2 Co O2 95.908(15) 4 2 ?
O2 Co O2 84.092(15) 8_455 2 ?
O2 Co O2 42.625(17) 5_565 6_565 ?
O2 Co O2 137.376(17) . 6_565 ?
O1 Co O2 112.751(19) 8_455 6_565 ?
O1 Co O2 67.249(19) 4 6_565 ?
O3 Co O2 60.326(19) 5_565 6_565 ?
O3 Co O2 119.674(19) . 6_565 ?
O2 Co O2 84.092(15) 4 6_565 ?
O2 Co O2 95.908(15) 8_455 6_565 ?
O2 Co O2 180.000(13) 2 6_565 ?
O1 S O1 109.95(4) 2 . ?
O1 S O2 110.04(3) 2 . ?
O1 S O2 108.77(3) . . ?
O1 S O2 108.77(3) 2 2 ?
O1 S O2 110.04(3) . 2 ?
O2 S O2 109.27(4) . 2 ?
S O1 Co 136.66(3) . 4_545 ?
S O1 O2 35.867(17) . . ?
Co O1 O2 100.85(2) 4_545 . ?
S O1 O1 35.02(2) . 2 ?
Co O1 O1 140.70(3) 4_545 2 ?
O2 O1 O1 60.48(2) . 2 ?
S O1 O2 35.227(17) . 2 ?
Co O1 O2 144.25(3) 4_545 2 ?
O2 O1 O2 60.35(2) . 2 ?
O1 O1 O2 59.701(19) 2 2 ?
S O1 O2 128.62(3) . 4_545 ?
Co O1 O2 47.208(14) 4_545 4_545 ?
O2 O1 O2 109.89(2) . 4_545 ?
O1 O1 O2 103.51(2) 2 4_545 ?
O2 O1 O2 162.87(3) 2 4_545 ?
S O1 O3 169.87(3) . 7_556 ?
Co O1 O3 48.494(12) 4_545 7_556 ?
O2 O1 O3 146.86(2) . 7_556 ?
O1 O1 O3 150.081(18) 2 7_556 ?
O2 O1 O3 134.71(2) 2 7_556 ?
O2 O1 O3 61.506(17) 4_545 7_556 ?
S O1 O2 114.45(3) . 8_556 ?
Co O1 O2 42.736(15) 4_545 8_556 ?
O2 O1 O2 86.66(2) . 8_556 ?
O1 O1 O2 146.99(2) 2 8_556 ?
O2 O1 O2 102.84(2) 2 8_556 ?
O2 O1 O2 89.94(2) 4_545 8_556 ?
O3 O1 O2 62.49(2) 7_556 8_556 ?
S O1 O3 92.57(2) . 3_545 ?
Co O1 O3 44.713(13) 4_545 3_545 ?
O2 O1 O3 57.605(18) . 3_545 ?
O1 O1 O3 102.56(3) 2 3_545 ?
O2 O1 O3 114.90(2) 2 3_545 ?
O2 O1 O3 62.773(19) 4_545 3_545 ?
O3 O1 O3 93.207(19) 7_556 3_545 ?
O2 O1 O3 56.955(16) 8_556 3_545 ?
S O1 O2 125.79(3) . 6_556 ?
Co O1 O2 97.098(19) 4_545 6_556 ?
O2 O1 O2 161.20(3) . 6_556 ?
O1 O1 O2 101.67(2) 2 6_556 ?
O2 O1 O2 106.81(2) 2 6_556 ?
O2 O1 O2 78.59(2) 4_545 6_556 ?
O3 O1 O2 51.930(15) 7_556 6_556 ?
O2 O1 O2 110.57(2) 8_556 6_556 ?
O3 O1 O2 138.08(2) 3_545 6_556 ?
S O1 O2 111.66(3) . 7_556 ?
Co O1 O2 77.683(19) 4_545 7_556 ?
O2 O1 O2 108.16(2) . 7_556 ?
O1 O1 O2 139.05(2) 2 7_556 ?
O2 O1 O2 80.20(2) 2 7_556 ?
O2 O1 O2 116.90(2) 4_545 7_556 ?
O3 O1 O2 58.956(19) 7_556 7_556 ?
O2 O1 O2 44.842(18) 8_556 7_556 ?
O3 O1 O2 101.542(19) 3_545 7_556 ?
O2 O1 O2 81.050(15) 6_556 7_556 ?
S O1 O3 103.77(3) . 1_545 ?
Co O1 O3 97.381(19) 4_545 1_545 ?
O2 O1 O3 118.83(2) . 1_545 ?
O1 O1 O3 68.751(10) 2 1_545 ?
O2 O1 O3 118.21(2) 2 1_545 ?
O2 O1 O3 51.809(16) 4_545 1_545 ?
O3 O1 O3 82.423(17) 7_556 1_545 ?
O2 O1 O3 138.316(19) 8_556 1_545 ?
O3 O1 O3 107.166(19) 3_545 1_545 ?
O2 O1 O3 52.599(14) 6_556 1_545 ?
O2 O1 O3 132.743(17) 7_556 1_545 ?
S O2 Co 132.30(3) . . ?
S O2 O1 35.366(16) . . ?
Co O2 O1 161.37(3) . . ?
S O2 O1 34.738(17) . 2 ?
Co O2 O1 119.07(3) . 2 ?
O1 O2 O1 59.82(3) . 2 ?
S O2 O2 35.36(2) . 2 ?
Co O2 O2 102.353(18) . 2 ?
O1 O2 O2 60.21(2) . 2 ?
O1 O2 O2 59.440(19) 2 2 ?
S O2 O3 108.25(3) . 3_545 ?
Co O2 O3 119.13(2) . 3_545 ?
O1 O2 O3 73.95(2) . 3_545 ?
O1 O2 O3 113.92(3) 2 3_545 ?
O2 O2 O3 129.98(3) 2 3_545 ?
S O2 O1 160.03(3) . 4 ?
Co O2 O1 47.268(16) . 4 ?
O1 O2 O1 136.83(2) . 4 ?
O1 O2 O1 162.87(3) 2 4 ?
O2 O2 O1 128.113(17) 2 4 ?
O3 O2 O1 74.16(2) 3_545 4 ?
S O2 O3 136.78(3) . 5_565 ?
Co O2 O3 48.251(16) . 5_565 ?
O1 O2 O3 149.03(3) . 5_565 ?
O1 O2 O3 102.47(2) 2 5_565 ?
O2 O2 O3 135.93(3) 2 5_565 ?
O3 O2 O3 93.824(18) 3_545 5_565 ?
O1 O2 O3 61.059(17) 4 5_565 ?
S O2 O1 92.70(2) . 8_455 ?
Co O2 O1 42.787(13) . 8_455 ?
O1 O2 O1 128.00(3) . 8_455 ?
O1 O2 O1 77.16(2) 2 8_455 ?
O2 O2 O1 73.77(2) 2 8_455 ?
O3 O2 O1 156.23(2) 3_545 8_455 ?
O1 O2 O1 90.06(2) 4 8_455 ?
O3 O2 O1 62.678(17) 5_565 8_455 ?
S O2 O3 102.11(2) . . ?
Co O2 O3 45.009(12) . . ?
O1 O2 O3 117.08(2) . . ?
O1 O2 O3 116.46(2) 2 . ?
O2 O2 O3 66.749(10) 2 . ?
O3 O2 O3 126.03(2) 3_545 . ?
O1 O2 O3 63.299(17) 4 . ?
O3 O2 O3 93.260(16) 5_565 . ?
O1 O2 O3 56.841(13) 8_455 . ?
S O2 O1 96.12(3) . 6 ?
Co O2 O1 113.10(2) . 6 ?
O1 O2 O1 84.897(17) . 6 ?
O1 O2 O1 73.19(2) 2 6 ?
O2 O2 O1 130.479(15) 2 6 ?
O3 O2 O1 57.330(17) 3_545 6 ?
O1 O2 O1 101.41(2) 4 6 ?
O3 O2 O1 64.891(19) 5_565 6 ?
O1 O2 O1 110.57(2) 8_455 6 ?
O3 O2 O1 158.019(19) . 6 ?
S O2 O1 82.01(2) . 7_556 ?
Co O2 O1 94.56(2) . 7_556 ?
O1 O2 O1 71.84(2) . 7_556 ?
O1 O2 O1 116.17(2) 2 7_556 ?
O2 O2 O1 61.39(2) 2 7_556 ?
O3 O2 O1 87.223(19) 3_545 7_556 ?
O1 O2 O1 78.285(17) 4 7_556 ?
O3 O2 O1 137.13(2) 5_565 7_556 ?
O1 O2 O1 107.22(2) 8_455 7_556 ?
O3 O2 O1 53.968(13) . 7_556 ?
O1 O2 O1 142.212(18) 6 7_556 ?
Co O3 Co 122.17(3) . 2 ?
Co O3 O2 88.939(13) . 4 ?
Co O3 O2 111.754(14) 2 4 ?
Co O3 O2 111.754(14) . 3_455 ?
Co O3 O2 88.940(13) 2 3_455 ?
O2 O3 O2 137.29(3) 4 3_455 ?
Co O3 O1 45.087(14) . 8_455 ?
Co O3 O1 104.08(2) 2 8_455 ?
O2 O3 O1 132.714(16) 4 8_455 ?
O2 O3 O1 70.740(18) 3_455 8_455 ?
Co O3 O1 104.08(2) . 7_556 ?
Co O3 O1 45.087(13) 2 7_556 ?
O2 O3 O1 70.740(18) 4 7_556 ?
O2 O3 O1 132.715(16) 3_455 7_556 ?
O1 O3 O1 122.82(3) 8_455 7_556 ?
Co O3 O2 161.44(2) . 6_566 ?
Co O3 O2 44.816(12) 2 6_566 ?
O2 O3 O2 86.176(18) 4 6_566 ?
O2 O3 O2 83.511(16) 3_455 6_566 ?
O1 O3 O2 140.754(17) 8_455 6_566 ?
O1 O3 O2 57.435(17) 7_556 6_566 ?
Co O3 O2 44.816(12) . 5_565 ?
Co O3 O2 161.44(2) 2 5_565 ?
O2 O3 O2 83.511(17) 4 5_565 ?
O2 O3 O2 86.175(18) 3_455 5_565 ?
O1 O3 O2 57.435(17) 8_455 5_565 ?
O1 O3 O2 140.754(17) 7_556 5_565 ?
O2 O3 O2 151.43(3) 6_566 5_565 ?
Co O3 O2 81.70(2) . 2 ?
Co O3 O2 41.923(14) 2 2 ?
O2 O3 O2 126.03(2) 4 2 ?
O2 O3 O2 94.641(14) 3_455 2 ?
O1 O3 O2 67.08(2) 8_455 2 ?
O1 O3 O2 60.669(18) 7_556 2 ?
O2 O3 O2 86.739(16) 6_566 2 ?
O2 O3 O2 120.69(2) 5_565 2 ?
Co O3 O2 41.923(14) . . ?
Co O3 O2 81.70(2) 2 . ?
O2 O3 O2 94.641(14) 4 . ?
O2 O3 O2 126.03(2) 3_455 . ?
O1 O3 O2 60.669(18) 8_455 . ?
O1 O3 O2 67.08(2) 7_556 . ?
O2 O3 O2 120.69(2) 6_566 . ?
O2 O3 O2 86.739(16) 5_565 . ?
O2 O3 O2 46.50(2) 2 . ?
Co O3 O1 121.47(2) . 3_455 ?
Co O3 O1 41.706(11) 2 3_455 ?
O2 O3 O1 146.347(16) 4 3_455 ?
O2 O3 O1 48.442(14) 3_455 3_455 ?
O1 O3 O1 80.433(17) 8_455 3_455 ?
O1 O3 O1 86.793(19) 7_556 3_455 ?
O2 O3 O1 60.367(16) 6_566 3_455 ?
O2 O3 O1 127.516(15) 5_565 3_455 ?
O2 O3 O1 53.928(14) 2 3_455 ?
O2 O3 O1 99.34(2) . 3_455 ?
Co O3 O1 41.706(11) . 4 ?
Co O3 O1 121.47(2) 2 4 ?
O2 O3 O1 48.442(15) 4 4 ?
O2 O3 O1 146.346(16) 3_455 4 ?
O1 O3 O1 86.793(19) 8_455 4 ?
O1 O3 O1 80.433(17) 7_556 4 ?
O2 O3 O1 127.516(15) 6_566 4 ?
O2 O3 O1 60.367(15) 5_565 4 ?
O2 O3 O1 99.34(2) 2 4 ?
O2 O3 O1 53.928(14) . 4 ?
O1 O3 O1 153.16(3) 3_455 4 ?
Co O3 H 105.2(10) . . ?
Co O3 H 108.8(10) 2 . ?
O2 O3 H 18.7(10) 4 . ?
O2 O3 H 120.4(10) 3_455 . ?
O1 O3 H 145.1(10) 8_455 . ?
O1 O3 H 76.1(10) 7_556 . ?
O2 O3 H 73.6(10) 6_566 . ?
O2 O3 H 89.0(10) 5_565 . ?
O2 O3 H 136.4(10) 2 . ?
O2 O3 H 112.9(10) . . ?
O1 O3 H 132.9(10) 3_455 . ?
O1 O3 H 66.4(10) 4 . ?
Co O3 H 108.8(10) . 2 ?
Co O3 H 105.3(10) 2 2 ?
O2 O3 H 120.4(10) 4 2 ?
O2 O3 H 18.7(10) 3_455 2 ?
O1 O3 H 76.1(10) 8_455 2 ?
O1 O3 H 145.1(10) 7_556 2 ?
O2 O3 H 89.0(10) 6_566 2 ?
O2 O3 H 73.6(10) 5_565 2 ?
O2 O3 H 112.9(10) 2 2 ?
O2 O3 H 136.4(10) . 2 ?
O1 O3 H 66.4(10) 3_455 2 ?
O1 O3 H 132.9(10) 4 2 ?
H O3 H 105(2) . 2 ?
loop_
_geom_bond_atom_site_label_1
_geom_bond_atom_site_label_2
_geom_bond_distance
_geom_bond_site_symmetry_2
_geom_bond_publ_flag
Co O2 2.0535(5) 5_565 ?
Co O2 2.0535(5) . ?
Co O1 2.0555(6) 8_455 ?
Co O1 2.0555(6) 4 ?
Co O3 2.1736(4) 5_565 ?
Co O3 2.1736(4) . ?
Co O2 3.4418(6) 4 ?
Co O2 3.4418(6) 8_455 ?
Co O2 3.4953(6) 2 ?
Co O2 3.4953(6) 6_565 ?
S O1 1.4676(5) 2 ?
S O1 1.4676(5) . ?
S O2 1.4857(5) . ?
S O2 1.4857(5) 2 ?
O1 O2 2.4008(7) . ?
O1 O1 2.4037(10) 2 ?
O1 O2 2.4197(7) 2 ?
O1 O2 2.7898(7) 4_545 ?
O1 O3 2.8968(7) 7_556 ?
O1 O2 3.0167(8) 8_556 ?
O1 O3 3.0835(6) 3_545 ?
O1 O2 3.2486(7) 6_556 ?
O1 O2 3.2993(8) 7_556 ?
O1 O3 3.3161(9) 1_545 ?
O2 O2 2.4231(9) 2 ?
O2 O3 2.7091(6) 3_545 ?
O2 O3 2.9093(6) 5_565 ?
O2 O3 3.0691(8) . ?
O3 H 0.847(15) . ?
O3 H 0.847(15) 2 ?
loop_
_geom_hbond_atom_site_label_D
_geom_hbond_atom_site_label_H
_geom_hbond_atom_site_label_A
_geom_hbond_distance_DH
_geom_hbond_distance_HA
_geom_hbond_distance_DA
_geom_hbond_angle_DHA
_geom_hbond_site_symmetry_A
_geom_hbond_publ_flag
O3 H O2 0.847(15) 1.927(15) 2.7091(6) 153.2(14) 4 yes
