#------------------------------------------------------------------------------
#$Date: 2021-12-06 10:59:38 +0200 (Mon, 06 Dec 2021) $
#$Revision: 271126 $
#$URL: file:///home/coder/svn-repositories/cod/cif/1/56/55/1565553.cif $
#------------------------------------------------------------------------------
#
# This file is available in the Crystallography Open Database (COD),
# http://www.crystallography.net/
#
# All data on this site have been placed in the public domain by the
# contributors.
#
data_1565553
loop_
_publ_author_name
'L\'opez Pl\'a, Jessica M.'
'Boudalis, Athanassios K.'
'Telser, Joshua'
'Raptis, Raphael G.'
_publ_section_title
;
 Chromium(III)-pyrazole complexes. X-Ray crystal structures, 1H NMR
 investigation of ligand fluxional behavior and EPR studies
;
_journal_name_full               'Inorganica Chimica Acta'
_journal_page_first              119299
_journal_paper_doi               10.1016/j.ica.2019.119299
_journal_volume                  502
_journal_year                    2020
_chemical_formula_moiety         '2(C6 H8 Cl Cr0.5 N4), Cl'
_chemical_formula_sum            'C12 H16 Cl3 Cr N8'
_chemical_formula_weight         430.68
_chemical_name_systematic        '[trans-Cr(pzH)4Cl2]Cl'
_space_group_crystal_system      triclinic
_space_group_IT_number           2
_space_group_name_Hall           '-P 1'
_space_group_name_H-M_alt        'P -1'
_atom_sites_solution_hydrogens   mixed
_atom_sites_solution_primary     dual
_cell_angle_alpha                76.6970(10)
_cell_angle_beta                 89.9270(10)
_cell_angle_gamma                68.3690(10)
_cell_formula_units_Z            2
_cell_length_a                   8.0428(3)
_cell_length_b                   8.4370(4)
_cell_length_c                   14.9426(6)
_cell_measurement_reflns_used    9927
_cell_measurement_temperature    302(2)
_cell_measurement_theta_max      26.39
_cell_measurement_theta_min      2.96
_cell_volume                     913.34(7)
_computing_cell_refinement       'SAINT V8.35A (?, 2016)'
_computing_data_reduction        'SAINT V8.35A (?, 2016)'
_computing_molecular_graphics    'Olex2 (Dolomanov et al., 2009)'
_computing_publication_material  'Olex2 (Dolomanov et al., 2009)'
_computing_structure_refinement  'ShelXL (Sheldrick, 2015)'
_computing_structure_solution    'ShelXT (Sheldrick, 2015)'
_diffrn_ambient_temperature      302.21
_diffrn_detector_area_resol_mean 10.42
_diffrn_measured_fraction_theta_full 0.998
_diffrn_measured_fraction_theta_max 0.993
_diffrn_measurement_device_type  'Bruker APEX-II CCD'
_diffrn_measurement_method       '\f and \w scans'
_diffrn_radiation_type           MoK\a
_diffrn_radiation_wavelength     0.71073
_diffrn_reflns_av_R_equivalents  0.0293
_diffrn_reflns_av_unetI/netI     0.0254
_diffrn_reflns_Laue_measured_fraction_full 0.998
_diffrn_reflns_Laue_measured_fraction_max 0.993
_diffrn_reflns_limit_h_max       10
_diffrn_reflns_limit_h_min       -9
_diffrn_reflns_limit_k_max       10
_diffrn_reflns_limit_k_min       -10
_diffrn_reflns_limit_l_max       18
_diffrn_reflns_limit_l_min       -18
_diffrn_reflns_number            19464
_diffrn_reflns_point_group_measured_fraction_full 0.998
_diffrn_reflns_point_group_measured_fraction_max 0.993
_diffrn_reflns_theta_full        25.242
_diffrn_reflns_theta_max         26.420
_diffrn_reflns_theta_min         2.959
_diffrn_standards_number         0
_exptl_absorpt_coefficient_mu    1.077
_exptl_absorpt_correction_T_max  1.0000
_exptl_absorpt_correction_T_min  0.9209
_exptl_absorpt_correction_type   multi-scan
_exptl_absorpt_process_details
'SADABS-2014/5 (Bruker,2014/5) was used for absorption correction. wR2(int) was 0.0672 before and 0.0478 after correction. The Ratio of minimum to maximum transmission is 0.9209. The \l/2 correction factor is 0.00150.'
_exptl_crystal_colour            'light blue'
_exptl_crystal_colour_modifier   light
_exptl_crystal_colour_primary    blue
_exptl_crystal_density_diffrn    1.566
_exptl_crystal_description       needle
_exptl_crystal_F_000             438
_exptl_crystal_size_max          0.141
_exptl_crystal_size_mid          0.101
_exptl_crystal_size_min          0.096
_refine_diff_density_max         0.399
_refine_diff_density_min         -0.275
_refine_diff_density_rms         0.065
_refine_ls_extinction_coef       .
_refine_ls_extinction_method     none
_refine_ls_goodness_of_fit_ref   1.099
_refine_ls_hydrogen_treatment    constr
_refine_ls_matrix_type           full
_refine_ls_number_parameters     220
_refine_ls_number_reflns         3729
_refine_ls_number_restraints     0
_refine_ls_restrained_S_all      1.099
_refine_ls_R_factor_all          0.0591
_refine_ls_R_factor_gt           0.0432
_refine_ls_shift/su_max          0.000
_refine_ls_shift/su_mean         0.000
_refine_ls_structure_factor_coef Fsqd
_refine_ls_weighting_details
'w=1/[\s^2^(Fo^2^)+(0.0369P)^2^+0.6702P] where P=(Fo^2^+2Fc^2^)/3'
_refine_ls_weighting_scheme      calc
_refine_ls_wR_factor_gt          0.0897
_refine_ls_wR_factor_ref         0.0963
_reflns_Friedel_coverage         0.000
_reflns_Friedel_fraction_full    .
_reflns_Friedel_fraction_max     .
_reflns_number_gt                2961
_reflns_number_total             3729
_reflns_threshold_expression     'I > 2\s(I)'
_cod_data_source_file            ICA-2020-502-119299.cif
_cod_data_source_block           jlp035_0m_a
_cod_database_code               1565553
_shelx_space_group_comment
;
The symmetry employed for this shelxl refinement is uniquely defined
by the following loop, which should always be used as a source of
symmetry information in preference to the above space-group names.
They are only intended as comments.
;
_shelx_estimated_absorpt_t_max   0.904
_shelx_estimated_absorpt_t_min   0.863
_olex2_refinement_description
;
1. Fixed Uiso
 At 1.2 times of:
  All C(H) groups, All N(H) groups
2.a Riding coordinates:
 N1(H1), N3(H3), N5(H5A), N7(H7)
2.b Aromatic/amide H refined with riding coordinates:
 C1(H1A), C2(H2), C3(H3A), C4(H4), C5(H5), C6(H6), C7(H7A), C8(H8), C9(H9),
 C10(H10), C11(H11), C12(H12)
;
_shelx_res_file
;
TITL jlp035_0m_P -1 R = New: P-1
 jlp035_0m_a.res created by SHELXL-2016/4 at 13:40:11 on 09-Aug-2018
CELL 0.71073 8.0428 8.437 14.9426 76.697 89.927 68.369
ZERR 2 0.0003 0.0004 0.0006 0.001 0.001 0.001
LATT 1
SFAC C H Cl Cr N
UNIT 24 32 6 2 16

L.S. 5
PLAN  -20
SIZE 0.096 0.101 0.141
BOND $H
HTAB
CONF
fmap 2
acta
REM <olex2.extras>
REM <HklSrc "%.\\JLP035_0m_a.hkl">
REM </olex2.extras>

WGHT    0.036900    0.670200
FVAR       0.51851
CR1   4    0.500000    0.000000    0.500000    10.50000    0.03590    0.03445 =
         0.03060   -0.00479    0.00274   -0.01470
CL1   3    0.195185    0.163864    0.486653    11.00000    0.03982    0.04969 =
         0.04807   -0.00565    0.00295   -0.01307
N1    5    0.384409    0.128232    0.672847    11.00000    0.04652    0.04698 =
         0.04336   -0.01078    0.00576   -0.01725
AFIX   3
H1    2    0.284529    0.202872    0.642977    11.00000   -1.20000
AFIX   0
N2    5    0.514302    0.013963    0.635820    11.00000    0.04107    0.04345 =
         0.03582   -0.00964    0.00404   -0.01764
N3    5    0.426332    0.382333    0.405105    11.00000    0.05373    0.04108 =
         0.04487   -0.00600    0.00020   -0.01796
AFIX   3
H3    2    0.316222    0.400763    0.390585    11.00000   -1.20000
AFIX   0
N4    5    0.547099    0.229020    0.456218    11.00000    0.04674    0.03542 =
         0.03850   -0.00631    0.00439   -0.01871
C1    1    0.429969    0.111167    0.761005    11.00000    0.06150    0.08174 =
         0.04532   -0.02869    0.01616   -0.03501
AFIX  43
H1A   2    0.361562    0.176692    0.799710    11.00000   -1.20000
AFIX   0
C2    1    0.593663   -0.018675    0.783943    11.00000    0.06036    0.10448 =
         0.04103   -0.02248   -0.00256   -0.02865
AFIX  43
H2    2    0.660454   -0.060546    0.841086    11.00000   -1.20000
AFIX   0
C3    1    0.641654   -0.076702    0.704811    11.00000    0.04503    0.07836 =
         0.04461   -0.01712   -0.00362   -0.01361
AFIX  43
H3A   2    0.748720   -0.167055    0.700552    11.00000   -1.20000
AFIX   0
C4    1    0.500914    0.501744    0.380125    11.00000    0.08599    0.04027 =
         0.04801   -0.00608    0.01292   -0.03121
AFIX  43
H4    2    0.443136    0.616718    0.345164    11.00000   -1.20000
AFIX   0
C5    1    0.675047    0.426021    0.414606    11.00000    0.06864    0.05674 =
         0.06925   -0.02196    0.02360   -0.03908
AFIX  43
H5    2    0.760567    0.476880    0.407883    11.00000   -1.20000
AFIX   0
C6    1    0.698867    0.256689    0.462038    11.00000    0.04611    0.05098 =
         0.05844   -0.01549    0.00961   -0.02067
AFIX  43
H6    2    0.806345    0.173445    0.493704    11.00000   -1.20000
AFIX   0

CR2   4    0.000000    1.000000    0.000000    10.50000    0.03224    0.04561 =
         0.03327   -0.00825    0.00489   -0.01310
CL3   3    0.154683    1.181384   -0.047588    11.00000    0.04934    0.06245 =
         0.04857   -0.01112    0.01115   -0.02811
N5    5    0.254412    0.648845    0.122415    11.00000    0.04915    0.06319 =
         0.05694    0.00091    0.00771   -0.01102
AFIX   3
H5A   2    0.166322    0.629765    0.148955    11.00000   -1.20000
AFIX   0
N6    5    0.237193    0.793526    0.057505    11.00000    0.04076    0.04667 =
         0.03892   -0.00806    0.00311   -0.01050
N7    5   -0.050831    0.987867    0.205172    11.00000    0.06919    0.05883 =
         0.04041   -0.01196    0.01138   -0.03340
AFIX   3
H7    2   -0.038921    0.879317    0.217052    11.00000   -1.20000
AFIX   0
N8    5   -0.037796    1.082381    0.121454    11.00000    0.04000    0.04735 =
         0.03654   -0.00873    0.00556   -0.01476
C7    1    0.425490    0.537608    0.140947    11.00000    0.05884    0.05934 =
         0.06312   -0.00501   -0.00515   -0.00291
AFIX  43
H7A   2    0.468947    0.428779    0.183506    11.00000   -1.20000
AFIX   0
C8    1    0.523003    0.612395    0.086594    11.00000    0.03879    0.06021 =
         0.09009   -0.01901    0.00324   -0.00163
AFIX  43
H8    2    0.646718    0.566560    0.083822    11.00000   -1.20000
AFIX   0
C9    1    0.402211    0.770275    0.036088    11.00000    0.04239    0.05590 =
         0.06682   -0.01745    0.01342   -0.01584
AFIX  43
H9    2    0.432577    0.850700   -0.007651    11.00000   -1.20000
AFIX   0
C10   1   -0.084543    1.083869    0.267147    11.00000    0.07200    0.08420 =
         0.04140   -0.02389    0.01423   -0.03699
AFIX  43
H10   2   -0.098894    1.045538    0.329121    11.00000   -1.20000
AFIX   0
C11   1   -0.094292    1.247733    0.223911    11.00000    0.05781    0.06419 =
         0.05542   -0.02744    0.00960   -0.01658
AFIX  43
H11   2   -0.117355    1.343674    0.249354    11.00000   -1.20000
AFIX   0
C12   1   -0.062472    1.240483    0.134026    11.00000    0.04947    0.04530 =
         0.05330   -0.00908    0.00591   -0.00849
AFIX  43
H12   2   -0.058705    1.334059    0.088002    11.00000   -1.20000
AFIX   0
CL2   3    0.027208    0.593431    0.297999    11.00000    0.06110    0.05745 =
         0.06910    0.00586    0.00364   -0.01931
HKLF 4




REM  jlp035_0m_P -1 R = New: P-1
REM R1 =  0.0432 for    2961 Fo > 4sig(Fo)  and  0.0591 for all    3729 data
REM    220 parameters refined using      0 restraints

END

WGHT      0.0367      0.6752

REM Instructions for potential hydrogen bonds
HTAB N1 CL1
EQIV $1 -x, -y+1, -z+
HTAB N1 CL2_$1
HTAB N3 CL1
HTAB N3 CL2
EQIV $2 x, y-1, z+
HTAB C1 CL3_$2
EQIV $3 -x+1, -y, -z+
HTAB C3 CL1_$3
EQIV $4 -x, -y+2, -
HTAB N5 CL3_$4
HTAB N5 CL2
HTAB N7 CL2
HTAB C9 CL3
EQIV $5 x, y+1,
HTAB C11 CL2_$5

REM Highest difference peak  0.399,  deepest hole -0.275,  1-sigma level  0.065
Q1    1   0.1064  0.5186  0.2693  11.00000  0.05    0.40
Q2    1   0.4905  0.1162  0.4903  11.00000  0.05    0.39
Q3    1   0.0359  0.6958  0.2811  11.00000  0.05    0.37
Q4    1   0.0192  0.8792  0.0138  11.00000  0.05    0.34
Q5    1   0.3515  0.1157  0.4893  11.00000  0.05    0.32
Q6    1   0.6450  0.2288  0.4435  11.00000  0.05    0.32
Q7    1   0.5400 -0.0283  0.3500  11.00000  0.05    0.30
Q8    1  -0.0653  0.6169  0.2618  11.00000  0.05    0.29
Q9    1   0.6990  0.3173  0.4314  11.00000  0.05    0.29
Q10   1   0.0716  0.6579  0.3234  11.00000  0.05    0.29
Q11   1  -0.0936  1.1623  0.1286  11.00000  0.05    0.27
Q12   1  -0.1999  0.9443  0.0240  11.00000  0.05    0.27
Q13   1   0.5010  0.2637  0.4308  11.00000  0.05    0.27
Q14   1   0.1822  1.2654 -0.0163  11.00000  0.05    0.26
Q15   1   0.2434  0.7139  0.0718  11.00000  0.05    0.26
Q16   1   0.7768 -0.0409  0.5015  11.00000  0.05    0.26
Q17   1   0.2575  0.2327  0.4466  11.00000  0.05    0.26
Q18   1   0.0111  0.5683  0.3568  11.00000  0.05    0.25
Q19   1   0.5573 -0.0684  0.4567  11.00000  0.05    0.25
Q20   1   0.7035 -0.1549  0.4880  11.00000  0.05    0.25
;
_shelx_res_checksum              38391
_shelx_hkl_file
;
  -2   0   0 2285.37   46.90
  -2   0   0 2429.86   47.30
  -2   0   0 2373.16   46.80
   2   0   0 2340.37   48.00
   2   0   0 2336.37   46.70
   2   0   0 2269.67   47.60
  -3   0   0   46.90    1.90
  -3   0   0   49.70    2.10
  -3   0   0   46.60    2.00
   3   0   0   47.10    2.00
   3   0   0   50.19    2.10
   3   0   0   45.30    2.10
  -4   0   0  362.36    8.60
  -4   0   0  357.26    8.70
  -4   0   0  355.86    8.80
   4   0   0  363.76    8.80
   4   0   0  368.96    8.60
   4   0   0  355.26    8.80
  -5   0   0  113.59    4.20
  -5   0   0  108.89    4.00
  -5   0   0  108.79    4.10
   5   0   0  109.29    4.10
   5   0   0  110.19    4.20
   5   0   0  118.29    4.30
  -6   0   0  125.19    4.90
  -6   0   0  115.89    4.60
  -6   0   0  126.29    4.80
   6   0   0  115.19    4.90
   6   0   0  124.69    5.00
   6   0   0  119.69    4.90
  -7   0   0    0.50    1.70
  -7   0   0   -2.20    1.60
   7   0   0   -0.70    1.30
   7   0   0   -0.10    1.50
   7   0   0   -0.30    2.30
  -8   0   0    5.60    2.60
  -8   0   0    3.80    2.10
   8   0   0    0.90    1.80
   8   0   0    4.70    2.10
  -9   0   0    6.40    3.00
   9   0   0    5.70    2.70
   9   0   0   -3.20    2.40
   8  -1   0    8.80    2.60
   8  -1   0    5.80    2.30
  -8   1   0   14.90    4.80
   7  -1   0   -0.60    1.60
   7  -1   0   -1.80    1.60
  -7   1   0   -2.60    1.90
  -7   1   0    2.20    2.00
   6  -1   0   66.99    4.00
   6  -1   0   74.59    4.50
  -6   1   0   70.79    4.20
  -6   1   0   70.29    4.70
  -6   1   0   76.39    4.10
   5  -1   0   99.29    4.10
   5  -1   0  102.29    4.20
   5  -1   0  100.99    4.60
  -5   1   0   99.49    4.20
  -5   1   0  105.79    4.30
  -5   1   0   96.29    4.00
   4  -1   0  191.38    5.70
   4  -1   0  189.78    5.60
   4  -1   0  191.58    5.60
  -4   1   0  200.78    5.80
  -4   1   0  197.18    5.70
  -4   1   0  189.08    5.50
   3  -1   0  120.89    3.80
   3  -1   0  126.19    4.00
   3  -1   0  119.59    3.70
  -3   1   0  117.39    3.60
  -3   1   0  120.99    3.80
  -3   1   0  117.39    3.70
   2  -1   0  265.17    6.30
   2  -1   0  250.47    6.10
   2  -1   0  267.27    6.10
  -2   1   0  261.47    6.20
  -2   1   0  261.27    5.30
  -2   1   0  260.77    6.10
  -2   1   0  260.47    6.30
   1  -1   0   81.19    2.40
   1  -1   0   84.49    2.00
   1  -1   0   86.39    2.60
  -1   1   0   88.69    2.60
  -1   1   0   85.19    2.00
  -1  -1   0   39.60    1.50
  -1  -1   0   40.10    1.60
  -1  -1   0   36.60    1.30
   1   1   0   36.40    1.20
   1   1   0   37.80    1.30
  -2  -1   0  118.29    2.90
  -2  -1   0  122.79    3.30
  -2  -1   0  127.89    2.80
   2   1   0  119.89    3.10
   2   1   0  117.99    3.10
   2   1   0  120.39    3.30
   2   1   0  120.89    2.90
   2   1   0  121.59    2.80
  -3  -1   0   15.50    1.20
  -3  -1   0   17.30    1.40
   3   1   0   16.40    1.20
   3   1   0   16.70    1.40
   3   1   0   16.80    1.20
   3   1   0   16.60    0.90
  -4  -1   0  670.03   14.70
  -4  -1   0  664.73   14.20
  -4  -1   0  681.13   14.70
   4   1   0  683.73   14.20
   4   1   0  669.03   14.70
   4   1   0  665.53   13.60
   4   1   0  652.13   14.90
  -5  -1   0  486.45   11.60
  -5  -1   0  496.85   11.60
  -5  -1   0  475.35   11.00
   5   1   0  487.15   10.00
   5   1   0  483.35   11.60
   5   1   0  487.55   11.00
   5   1   0  488.45   11.60
  -6  -1   0   68.59    3.60
  -6  -1   0   73.99    3.60
  -6  -1   0   72.79    3.40
   6   1   0   73.69    3.70
   6   1   0   72.39    3.80
   6   1   0   67.09    3.50
  -7  -1   0   47.40    3.70
  -7  -1   0   44.80    4.00
  -7  -1   0   36.30    3.40
   7   1   0   44.70    3.50
   7   1   0   42.50    3.80
   7   1   0   40.20    3.40
  -8  -1   0   13.70    3.90
   8   1   0    8.10    2.10
   8   1   0   17.10    3.60
   9   1   0   -0.20    2.10
   9   1   0    0.70    2.10
   9   1   0   -3.40    1.70
   8  -2   0   47.00    5.30
   8  -2   0   65.69    6.30
  -8   2   0   58.99    5.90
   7  -2   0    3.80    2.00
   7  -2   0    2.20    2.00
  -7   2   0    4.30    2.20
   6  -2   0  166.38    6.60
   6  -2   0  172.18    6.40
  -6   2   0  171.88    6.50
  -6   2   0  153.18    6.50
   5  -2   0   37.60    3.80
   5  -2   0   39.00    3.20
   5  -2   0   39.20    2.90
  -5   2   0   44.30    3.30
  -5   2   0   40.40    3.30
   4  -2   0  113.79    4.60
   4  -2   0  115.59    4.20
   4  -2   0  112.19    4.10
  -4   2   0  114.09    4.40
  -4   2   0  107.79    4.20
   3  -2   0   47.30    2.80
   3  -2   0   47.10    2.40
   3  -2   0   48.90    2.30
   3  -2   0   45.50    1.50
  -3   2   0   44.50    2.40
  -3   2   0   46.50    1.50
  -3   2   0   49.60    2.50
   2  -2   0 2103.39   41.50
   2  -2   0 2031.20   40.90
   2  -2   0 2107.99   41.70
   2  -2   0 2083.29   41.70
   2  -2   0 2046.10   41.90
  -2   2   0 2018.70   41.50
  -2   2   0 2059.99   41.80
  -2   2   0 2059.39   41.90
   1  -2   0  293.97    6.90
   1  -2   0  286.97    6.40
   1  -2   0  292.47    6.20
   1  -2   0  278.07    6.70
   1  -2   0  287.47    6.60
  -1   2   0  288.27    6.20
  -1   2   0  278.77    6.70
  -1   2   0  286.47    6.80
   0  -2   0  283.67    6.30
   0  -2   0  286.17    6.60
   0  -2   0  288.17    6.30
   0  -2   0  295.17    6.60
   0   2   0  289.37    6.50
   0   2   0  293.77    6.40
   0   2   0  287.97    6.60
  -1  -2   0 2325.87   47.50
  -1  -2   0 2372.76   47.40
  -1  -2   0 2366.06   46.90
  -1  -2   0 2298.67   47.70
   1   2   0 2312.37   46.70
   1   2   0 2414.56   47.20
   1   2   0 2306.77   47.10
  -2  -2   0 2150.48   43.00
  -2  -2   0 2177.18   43.10
  -2  -2   0 2192.98   43.10
   2   2   0 2077.09   43.30
   2   2   0 2196.98   43.00
   2   2   0 2192.68   43.30
  -3  -2   0  287.57    6.80
  -3  -2   0  287.97    6.50
  -3  -2   0  290.37    6.90
   3   2   0  293.27    6.90
   3   2   0  290.57    6.50
   3   2   0  287.17    6.80
  -4  -2   0  742.63   15.20
  -4  -2   0  743.43   15.00
  -4  -2   0  714.63   16.70
   4   2   0  735.13   15.80
   4   2   0  720.93   15.20
   4   2   0  716.53   16.10
   4   2   0  752.92   16.00
  -5  -2   0   32.90    1.70
  -5  -2   0   34.80    1.80
  -5  -2   0   33.90    2.40
   5   2   0   33.00    1.70
   5   2   0   32.30    2.50
   5   2   0   31.50    2.20
   5   2   0   32.40    2.20
   5   2   0   30.80    1.80
  -6  -2   0   14.30    1.50
  -6  -2   0   10.50    2.20
  -6  -2   0   15.10    1.90
   6   2   0   10.30    1.90
   6   2   0   15.40    2.30
   6   2   0   16.30    2.20
   6   2   0   16.60    2.60
   6   2   0   15.30    1.50
  -7  -2   0   44.30    3.70
  -7  -2   0   48.50    3.60
  -7  -2   0   50.49    2.10
   7   2   0   49.99    4.30
   7   2   0   50.69    2.10
   7   2   0   53.39    3.80
   7   2   0   53.49    3.80
   7   2   0   48.40    3.00
  -8  -2   0    9.50    3.10
   8   2   0   10.40    3.00
   8   2   0   16.40    3.10
   8   2   0   10.10    2.10
   9   2   0    2.40    1.90
   9   2   0   -1.70    2.00
   9   2   0   -3.00    1.70
   7  -3   0    1.70    2.30
   7  -3   0    0.90    2.20
  -7   3   0    1.90    2.60
   6  -3   0   -1.70    1.70
   6  -3   0   -1.60    1.80
  -6   3   0    0.00    2.10
   5  -3   0   33.70    4.20
   5  -3   0   38.90    3.90
   5  -3   0   38.30    3.50
   5  -3   0   38.80    3.20
  -5   3   0   32.60    3.50
  -5   3   0   36.60    3.50
   4  -3   0   66.19    3.20
   4  -3   0   68.89    3.60
   4  -3   0   68.89    4.10
   4  -3   0   63.29    2.00
   4  -3   0   62.49    3.90
  -4   3   0   61.29    3.40
  -4   3   0   67.19    2.20
  -4   3   0   66.69    3.70
   3  -3   0  224.48    6.80
   3  -3   0  209.38    5.10
   3  -3   0  221.08    6.40
   3  -3   0  215.78    6.30
   3  -3   0  224.38    6.10
  -3   3   0  219.68    6.50
  -3   3   0  220.48    5.20
  -3   3   0  219.38    6.50
   2  -3   0  160.68    4.50
   2  -3   0  159.28    4.70
   2  -3   0  158.18    4.70
   2  -3   0  152.48    4.00
   2  -3   0  158.08    5.00
  -2   3   0  161.98    4.10
  -2   3   0  156.68    4.80
  -2   3   0  158.38    4.90
   1  -3   0   29.20    2.00
   1  -3   0   25.20    1.40
   1  -3   0   29.10    1.70
   1  -3   0   25.90    1.70
  -1   3   0   27.10    1.80
  -1   3   0   27.80    1.60
  -1   3   0   29.30    1.70
   0  -3   0    0.50    0.50
   0  -3   0    1.30    0.60
   0  -3   0    0.50    0.70
   0  -3   0    0.50    0.60
   0   3   0    0.20    0.60
   0   3   0    0.60    0.40
   0   3   0    0.40    0.40
  -1  -3   0  123.39    3.50
  -1  -3   0  129.89    3.40
  -1  -3   0  124.79    3.30
   1   3   0  125.39    3.30
   1   3   0  126.19    3.70
   1   3   0  126.49    3.30
   1   3   0  124.09    3.50
  -2  -3   0 3310.47   67.39
  -2  -3   0 3350.46   66.69
  -2  -3   0 3409.96   67.09
  -2  -3   0 3407.36   66.49
   2   3   0 3298.27   68.09
   2   3   0 3389.56   66.89
   2   3   0 3406.16   67.09
   2   3   0 3282.57   67.69
  -3  -3   0  166.48    4.50
  -3  -3   0  164.68    4.40
  -3  -3   0  160.08    4.40
   3   3   0  163.18    4.50
   3   3   0  155.68    4.40
   3   3   0  164.98    4.30
  -4  -3   0 1129.59   24.10
  -4  -3   0 1138.39   23.50
  -4  -3   0 1151.98   23.90
   4   3   0 1131.09   23.50
   4   3   0 1152.18   24.00
   4   3   0 1145.79   23.90
  -5  -3   0  132.29    4.50
  -5  -3   0  132.79    3.90
   5   3   0  130.69    3.90
   5   3   0  135.19    4.40
   5   3   0  136.09    4.70
   5   3   0  130.79    4.50
  -6  -3   0   44.70    3.00
  -6  -3   0   48.00    2.50
  -6  -3   0   47.80    2.00
   6   3   0   50.59    3.50
   6   3   0   48.30    2.50
   6   3   0   45.90    1.90
   6   3   0   47.80    3.10
   6   3   0   50.79    3.00
  -7  -3   0   14.20    2.60
  -7  -3   0   17.10    1.90
  -7  -3   0   16.30    1.90
   7   3   0   13.70    3.00
   7   3   0   16.70    2.60
   7   3   0   13.90    1.80
   7   3   0   16.80    2.20
   7   3   0   16.80    3.10
  -8  -3   0  153.38    4.50
  -8  -3   0  148.09    4.90
   8   3   0  145.99    6.20
   8   3   0  148.29    4.70
   8   3   0  155.38    6.00
   8   3   0  151.98    4.60
   9   3   0   16.60    3.70
   9   3   0   15.10    3.00
   9   3   0    9.80    2.30
   7  -4   0   -0.30    2.50
   7  -4   0   -0.50    2.90
  -7   4   0    2.90    3.30
   6  -4   0    0.40    1.90
   6  -4   0    4.90    2.30
  -6   4   0    3.20    2.70
   5  -4   0    3.00    1.70
   5  -4   0    1.60    2.30
   5  -4   0   -0.60    1.70
  -5   4   0    3.40    2.00
   4  -4   0  118.99    3.50
   4  -4   0  129.29    5.70
   4  -4   0  116.69    5.40
   4  -4   0  127.39    4.80
   4  -4   0  130.29    5.10
  -4   4   0  127.09    5.50
  -4   4   0  124.69    3.80
  -4   4   0  113.59    5.10
   3  -4   0    3.80    0.90
   3  -4   0    3.10    1.40
   3  -4   0    4.10    1.40
   3  -4   0    3.70    1.20
   3  -4   0    6.80    1.70
  -3   4   0    3.70    1.10
  -3   4   0    3.10    1.50
  -3   4   0    2.30    1.10
   2  -4   0    2.80    1.20
   2  -4   0    2.40    0.80
   2  -4   0    5.90    1.60
   2  -4   0    5.00    1.50
   2  -4   0    2.40    1.00
  -2   4   0    2.00    1.20
  -2   4   0    2.80    0.90
  -2   4   0    2.60    1.00
   1  -4   0  159.88    5.00
   1  -4   0  162.28    4.50
   1  -4   0  161.18    5.20
   1  -4   0  164.48    4.70
  -1   4   0  166.28    5.20
  -1   4   0  164.48    4.60
  -1   4   0  163.08    5.00
   0  -4   0   63.19    2.40
   0  -4   0   65.29    2.60
   0  -4   0   68.09    2.90
   0  -4   0   67.19    2.90
   0   4   0   67.69    2.80
   0   4   0   68.49    2.70
   0   4   0   69.09    2.90
   0   4   0   68.99    2.60
  -1  -4   0    0.10    0.60
  -1  -4   0    0.10    0.70
  -1  -4   0   -0.50    0.90
  -1  -4   0   -0.10    0.60
   1   4   0   -0.50    0.70
   1   4   0   -0.30    0.50
   1   4   0   -0.30    0.50
   1   4   0   -0.40    0.70
  -2  -4   0 1597.44   32.00
  -2  -4   0 1581.74   32.20
  -2  -4   0 1630.34   31.70
   2   4   0 1535.85   32.40
   2   4   0 1511.25   32.90
   2   4   0 1611.84   31.70
   2   4   0 1559.44   31.90
  -3  -4   0   90.09    2.40
  -3  -4   0   87.29    3.10
  -3  -4   0   86.99    3.20
  -3  -4   0   90.89    3.20
   3   4   0   84.79    3.10
   3   4   0   85.09    3.10
   3   4   0   88.59    3.30
  -4  -4   0   19.70    1.50
  -4  -4   0   20.80    2.10
  -4  -4   0   19.60    1.90
   4   4   0   21.00    2.20
   4   4   0   19.80    1.90
   4   4   0   20.40    1.70
  -5  -4   0  414.26   10.20
  -5  -4   0  424.06   10.00
  -5  -4   0  424.06   10.40
   5   4   0  413.66    9.90
   5   4   0  422.96   10.30
   5   4   0  422.56   10.50
  -6  -4   0   16.70    2.30
  -6  -4   0   17.30    2.70
   6   4   0   14.50    2.20
   6   4   0   19.00    3.10
   6   4   0   16.90    2.50
   6   4   0   17.40    2.40
  -7  -4   0    2.80    1.30
   7   4   0    3.20    1.80
   7   4   0    2.00    1.40
   7   4   0    1.50    2.50
   7   4   0    2.70    1.70
  -8  -4   0   60.09    3.40
   8   4   0   61.49    4.20
   8   4   0   59.39    3.70
   8   4   0   58.79    4.40
  -9  -4   0    3.90    1.70
   9   4   0    2.10    2.10
   9   4   0   -1.50    2.00
  10   4   0   -2.20    2.90
  10   4   0    0.50    2.70
   6  -5   0    9.00    3.00
   6  -5   0   15.20    4.80
  -6   5   0   20.30    5.80
   5  -5   0    2.30    1.90
   5  -5   0    2.50    1.10
   5  -5   0   -1.00    1.80
  -5   5   0   13.70    4.50
   4  -5   0  140.79    4.30
   4  -5   0  132.99    6.70
   4  -5   0  133.49    6.30
   4  -5   0  144.19    6.30
  -4   5   0  138.99    5.70
  -4   5   0  159.88    6.60
   3  -5   0   49.10    3.10
   3  -5   0   58.99    3.50
   3  -5   0   57.29    2.70
   3  -5   0   59.39    4.10
   3  -5   0   57.49    4.00
  -3   5   0   62.49    4.20
  -3   5   0   59.59    3.20
   2  -5   0   42.60    2.50
   2  -5   0   45.90    3.70
   2  -5   0   48.60    2.80
   2  -5   0   47.80    3.10
   2  -5   0   48.40    3.10
  -2   5   0   43.60    3.00
  -2   5   0   43.90    2.90
  -2   5   0   47.20    3.50
   1  -5   0   58.69    3.70
   1  -5   0   53.59    2.80
   1  -5   0   54.99    3.30
   1  -5   0   52.99    2.70
  -1   5   0   52.59    3.00
  -1   5   0   53.89    3.00
  -1   5   0   57.79    3.40
   0  -5   0  842.62   18.10
   0  -5   0  846.62   18.80
   0  -5   0  856.01   18.40
   0  -5   0  833.22   18.80
   0   5   0  842.12   18.70
   0   5   0  845.92   18.40
   0   5   0  856.51   18.30
   0   5   0  861.81   19.00
  -1  -5   0  374.76    8.50
  -1  -5   0  366.56    8.90
  -1  -5   0  378.66    9.00
  -1  -5   0  369.76    9.20
   1   5   0  365.36    9.20
   1   5   0  369.76    8.90
   1   5   0  304.67   10.30
   1   5   0  375.76    8.70
  -2  -5   0  280.77    7.00
  -2  -5   0  278.27    7.20
  -2  -5   0  277.57    7.40
  -2  -5   0  281.67    6.90
   2   5   0  276.47    6.90
   2   5   0  281.27    7.30
   2   5   0  281.67    6.90
   2   5   0  278.57    7.50
  -3  -5   0    4.60    1.10
  -3  -5   0    5.50    1.30
  -3  -5   0    5.70    1.90
  -3  -5   0    6.90    1.50
   3   5   0    5.40    1.40
   3   5   0    4.80    1.60
   3   5   0    5.50    1.00
   3   5   0    4.50    1.10
  -4  -5   0   60.19    2.80
  -4  -5   0   63.19    3.10
  -4  -5   0   60.19    3.20
   4   5   0   61.89    2.80
   4   5   0   62.79    3.20
   4   5   0   62.29    3.30
  -5  -5   0   26.00    2.10
  -5  -5   0   29.40    2.90
  -5  -5   0   27.60    2.50
   5   5   0   27.10    2.60
   5   5   0   27.50    2.50
   5   5   0   28.30    3.20
  -6  -5   0  196.18    6.60
  -6  -5   0  190.98    6.30
  -6  -5   0  205.08    6.20
   6   5   0  200.18    6.40
   6   5   0  189.88    6.10
   6   5   0  206.78    6.90
  -7  -5   0   73.79    3.90
  -7  -5   0   66.29    4.60
   7   5   0   69.29    3.90
   7   5   0   73.19    4.20
   7   5   0   69.49    4.40
   7   5   0   72.79    4.60
  -8  -5   0   27.50    3.30
   8   5   0   20.50    4.00
   8   5   0   24.50    3.50
   8   5   0   26.70    3.70
  -9  -5   0   11.10    3.20
   9   5   0    9.40    2.50
   9   5   0    7.90    2.60
   9   5   0   13.80    3.20
   5  -6   0    1.80    2.60
  -5   6   0    1.30    3.20
   4  -6   0   11.90    2.70
   4  -6   0    5.70    2.20
  -4   6   0    6.20    2.80
   3  -6   0   62.79    4.70
   3  -6   0   64.59    4.10
   3  -6   0   60.69    3.40
   3  -6   0   66.29    4.80
  -3   6   0   75.19    5.20
  -3   6   0   62.39    4.10
   2  -6   0    0.20    1.10
   2  -6   0   -0.40    1.50
   2  -6   0    0.10    1.30
   2  -6   0   -0.40    1.50
  -2   6   0    0.00    1.60
  -2   6   0    0.40    1.40
   1  -6   0    6.20    1.40
   1  -6   0   10.00    2.40
   1  -6   0    5.40    1.30
   1  -6   0    6.60    1.90
   1  -6   0    6.40    1.40
  -1   6   0    7.70    2.60
  -1   6   0    9.70    2.90
  -1   6   0    5.00    1.60
   0  -6   0   59.29    3.30
   0  -6   0   53.69    2.90
   0  -6   0   53.59    3.40
   0  -6   0   61.09    3.90
   0   6   0   59.39    3.40
   0   6   0   61.89    3.70
   0   6   0   57.39    3.10
   0   6   0   58.59    3.40
  -1  -6   0    4.00    1.40
  -1  -6   0    2.10    1.20
  -1  -6   0    1.90    1.20
   1   6   0    3.50    1.10
   1   6   0    2.20    1.20
   1   6   0    3.80    1.20
   1   6   0    2.40    1.30
  -2  -6   0    8.60    2.40
  -2  -6   0    4.20    1.20
  -2  -6   0    5.10    1.30
   2   6   0    7.10    1.80
   2   6   0    3.20    1.10
   2   6   0    3.20    1.10
   2   6   0    5.20    1.60
  -3  -6   0  378.36    9.50
  -3  -6   0  366.16    8.80
  -3  -6   0  373.36    9.20
  -3  -6   0  361.46    9.50
   3   6   0  380.06    9.90
   3   6   0  364.66    8.60
   3   6   0  360.86    9.50
   3   6   0  377.36    9.20
  -4  -6   0   62.59    3.10
  -4  -6   0   70.79    3.60
  -4  -6   0   70.69    2.60
  -4  -6   0   70.99    3.80
   4   6   0   65.19    3.30
   4   6   0   72.89    3.90
   4   6   0   69.69    3.60
  -5  -6   0   50.79    3.10
  -5  -6   0   54.69    3.80
  -5  -6   0   53.39    3.50
   5   6   0   51.19    3.50
   5   6   0   46.00    3.20
   5   6   0   53.29    3.80
  -6  -6   0  210.68    7.10
  -6  -6   0  223.98    6.90
  -6  -6   0  199.18    6.70
   6   6   0  213.98    7.10
   6   6   0  204.98    6.70
   6   6   0  222.98    7.20
  -7  -6   0    7.60    2.40
   7   6   0    9.80    2.10
   7   6   0   11.40    3.00
   7   6   0   16.40    3.70
  -8  -6   0   13.50    3.60
   8   6   0    9.60    2.60
   8   6   0   13.30    4.10
   8   6   0   14.60    3.60
  -9  -6   0    4.30    2.30
   9   6   0    2.70    2.60
   9   6   0    5.20    2.90
   9   6   0    6.30    2.50
   4  -7   0   11.00    3.00
   4  -7   0    5.90    2.50
  -4   7   0   11.60    3.80
   3  -7   0   -0.70    2.00
   3  -7   0   -1.80    2.70
   3  -7   0   -3.20    1.90
   3  -7   0   -0.50    1.60
  -3   7   0    3.20    2.80
   2  -7   0  104.49    4.70
   2  -7   0   99.89    4.90
   2  -7   0   96.79    5.90
   2  -7   0   95.99    5.20
  -2   7   0  124.89    6.20
  -2   7   0   95.99    5.40
   1  -7   0   38.70    4.10
   1  -7   0   38.60    3.40
   1  -7   0   35.30    3.00
   1  -7   0   37.30    3.50
  -1   7   0   47.70    4.30
  -1   7   0   33.30    3.80
   0  -7   0   40.10    3.40
   0  -7   0   37.00    3.10
   0   7   0   41.90    3.80
   0   7   0   34.00    3.50
   0   7   0   39.60    3.30
  -1  -7   0   15.40    2.50
  -1  -7   0   20.40    4.50
  -1  -7   0   17.40    2.70
  -1  -7   0   20.20    3.40
   1   7   0   19.50    2.90
   1   7   0   18.80    2.60
   1   7   0   14.80    2.90
  -2  -7   0    9.10    2.00
  -2  -7   0    6.40    1.70
  -2  -7   0    7.40    1.70
  -2  -7   0    5.80    2.70
   2   7   0    7.40    2.20
   2   7   0    8.10    2.40
   2   7   0    7.20    1.80
   2   7   0    5.50    1.40
  -3  -7   0    0.20    1.40
  -3  -7   0    1.50    1.30
  -3  -7   0    1.30    1.60
   3   7   0    0.00    1.10
   3   7   0    0.30    1.00
   3   7   0   -1.60    1.20
   3   7   0    0.60    1.80
  -4  -7   0   35.20    3.10
  -4  -7   0   25.50    3.40
  -4  -7   0   30.00    2.60
   4   7   0   33.00    3.20
   4   7   0   29.30    3.30
   4   7   0   28.30    2.10
   4   7   0   22.00    2.50
  -5  -7   0   15.10    2.50
  -5  -7   0   24.50    3.20
  -5  -7   0   14.10    3.50
   5   7   0   22.70    3.30
   5   7   0    8.40    2.30
   5   7   0   16.60    3.20
  -6  -7   0   38.80    4.40
  -6  -7   0   48.50    4.10
   6   7   0   54.09    4.30
   6   7   0   44.80    3.80
  -7  -7   0   54.69    4.40
   7   7   0   44.40    4.30
   7   7   0   57.19    4.80
  -8  -7   0    2.90    2.10
   8   7   0    0.80    2.20
   8   7   0    4.50    2.50
  -9  -7   0   -2.60    2.40
   9   7   0   -2.50    2.50
   2  -8   0   44.10    5.60
   2  -8   0   51.69    4.80
   2  -8   0   54.19    4.40
  -2   8   0   71.39    6.50
   1  -8   0    0.80    1.80
   0  -8   0   30.90    4.60
   0  -8   0   33.50    4.00
   0  -8   0   38.30    3.90
  -1  -8   0  101.89    5.00
  -1  -8   0   85.59    5.40
  -1  -8   0   89.69    4.80
   1   8   0   87.99    4.70
   1   8   0  105.69    5.60
   1   8   0   85.19    5.10
  -2  -8   0   83.59    5.00
  -2  -8   0   84.09    5.00
  -2  -8   0   94.09    4.90
   2   8   0   85.59    4.40
   2   8   0   97.89    5.10
   2   8   0   79.19    4.60
  -3  -8   0    3.70    1.60
  -3  -8   0    1.10    1.70
  -3  -8   0    2.30    2.10
   3   8   0    1.00    1.50
   3   8   0    1.00    1.30
   3   8   0   -0.40    1.60
  -4  -8   0  168.68    6.60
  -4  -8   0  174.38    5.70
  -4  -8   0  186.28    6.60
   4   8   0  189.08    6.90
   4   8   0  163.48    5.40
   4   8   0  176.18    6.30
  -5  -8   0   10.90    1.90
  -5  -8   0    7.30    2.60
  -5  -8   0   21.50    3.50
  -5  -8   0   13.30    2.20
   5   8   0   11.10    3.60
   5   8   0   19.40    3.70
  -6  -8   0    2.70    1.90
  -6  -8   0   -1.00    2.60
   6   8   0    0.10    1.90
   6   8   0    1.20    2.00
  -7  -8   0    3.80    2.20
   7   8   0    5.50    2.60
   7   8   0    0.60    2.10
  -8  -8   0   25.40    4.90
   8   8   0   26.70    6.00
   1  -9   0    4.90    3.10
   1  -9   0    2.40    2.60
   0  -9   0   -0.30    2.70
   0  -9   0    1.10    2.00
   0  -9   0    3.80    2.10
  -1  -9   0    4.10    2.30
  -1  -9   0    0.80    2.40
   1   9   0    2.50    2.30
  -2  -9   0   31.50    5.40
  -2  -9   0   26.20    5.00
  -2  -9   0   41.00    4.60
   2   9   0   30.90    4.80
   2   9   0   30.60    4.20
  -3  -9   0    2.40    2.80
  -3  -9   0    2.90    2.10
  -3  -9   0    2.70    2.30
   3   9   0    2.00    2.00
   3   9   0    1.40    2.00
  -4  -9   0    0.20    2.90
  -4  -9   0    2.70    2.00
   4   9   0    1.40    1.70
   4   9   0    3.30    2.00
   4   9   0    2.90    2.10
  -5  -9   0   26.10    5.00
  -5  -9   0   16.70    5.60
   5   9   0   29.50    4.40
   5   9   0   28.50    7.40
  -6  -9   0   35.00    4.70
   6   9   0   18.70    4.50
   6   9   0   24.00    5.10
  -7  -9   0   15.90    5.00
   7   9   0    2.80    2.60
   7   9   0    4.10    2.70
  -2 -10   0   58.49    6.40
  -2 -10   0   44.90    7.00
  -3 -10   0    5.30    2.70
  -3 -10   0   -1.40    2.90
   3  10   0    2.60    2.70
   4  10   0    1.40    2.60
   5  10   0    1.10    2.70
   5  10   0    4.80    2.90
   5  10  -1    7.00    3.10
   5  10  -1    3.20    3.10
   4  10  -1   18.80    5.50
   3  10  -1    5.90    3.10
  -3 -10   1    1.60    3.20
   7   9  -1   18.00    5.70
  -7  -9   1   21.80    5.30
   6   9  -1    4.30    2.50
   5   9  -1   18.00    4.60
   5   9  -1   16.50    4.60
  -5  -9   1   28.30    4.20
  -5  -9   1    7.80    3.60
   4   9  -1    0.50    2.20
   4   9  -1    3.30    2.30
  -4  -9   1   -0.20    2.00
  -4  -9   1   -4.00    3.00
   3   9  -1   11.70    4.00
   3   9  -1   15.40    4.20
  -3  -9   1   11.00    3.30
  -3  -9   1    8.80    2.70
   2   9  -1    0.70    2.20
  -2  -9   1    4.90    2.20
  -2  -9   1    0.40    2.40
  -2  -9   1    2.50    3.10
   1   9  -1   54.89    5.60
  -1  -9   1   40.80    5.70
  -1  -9   1   57.19    5.30
   0  -9   1    3.70    2.50
   0  -9   1    0.90    3.00
   8   8  -1   36.00    6.00
  -8  -8   1   24.30    5.10
   7   8  -1    7.60    2.70
   7   8  -1    4.40    2.50
  -7  -8   1   14.10    4.60
   6   8  -1   27.60    4.50
   6   8  -1   23.60    4.30
  -6  -8   1   35.50    4.40
   5   8  -1   13.40    3.70
   5   8  -1   16.90    4.90
  -5  -8   1    5.20    2.70
  -5  -8   1   10.40    3.30
  -5  -8   1   11.00    2.70
  -5  -8   1   11.20    2.10
   4   8  -1   43.60    4.00
   4   8  -1   35.90    3.10
   4   8  -1   44.90    4.20
  -4  -8   1   34.20    4.60
  -4  -8   1   41.40    3.80
  -4  -8   1   46.10    3.90
   3   8  -1   10.20    3.00
   3   8  -1    9.00    2.10
   3   8  -1   10.30    3.50
  -3  -8   1   13.90    3.30
  -3  -8   1   11.40    3.50
  -3  -8   1    7.10    2.40
   2   8  -1   23.00    3.40
   2   8  -1   17.80    3.30
   2   8  -1   28.30    4.10
  -2  -8   1   20.20    3.60
  -2  -8   1   16.60    4.10
  -2  -8   1   23.50    3.90
   1   8  -1    6.60    2.30
   1   8  -1    4.50    2.00
   1   8  -1    6.80    2.20
  -1  -8   1    4.00    2.00
  -1  -8   1   14.30    3.60
  -1  -8   1    3.30    2.20
   0   8  -1   34.80    4.40
   0  -8   1   25.10    4.20
   0  -8   1   29.50    4.70
   0  -8   1   36.20    4.20
   1  -8   1    5.50    2.20
   1  -8   1    1.70    2.40
   1  -8   1    2.40    2.30
   1  -8   1    2.30    2.30
   2  -8   1   19.60    4.30
   2  -8   1   17.80    4.40
   2  -8   1   11.50    3.10
   9   7  -1   19.30    6.20
   9   7  -1    7.30    2.80
  -9  -7   1    9.30    2.90
   8   7  -1    2.20    2.40
  -8  -7   1    5.30    2.30
   7   7  -1  116.79    6.30
   7   7  -1  100.39    5.40
  -7  -7   1  113.49    5.60
   6   7  -1    0.80    1.80
   6   7  -1    0.80    1.80
  -6  -7   1    3.10    1.70
  -6  -7   1   -1.30    2.20
   5   7  -1  165.38    6.10
   5   7  -1  162.88    6.20
  -5  -7   1  162.78    4.30
  -5  -7   1  145.69    5.90
  -5  -7   1  173.18    6.10
  -5  -7   1  153.18    6.20
   4   7  -1    1.40    1.50
   4   7  -1    0.30    1.20
   4   7  -1    1.90    1.70
  -4  -7   1    1.30    1.20
  -4  -7   1   -1.30    1.80
  -4  -7   1    3.30    1.40
  -4  -7   1   -1.00    1.30
   3   7  -1   41.70    2.90
   3   7  -1   37.90    2.90
   3   7  -1   53.59    4.00
   3   7  -1   46.80    3.40
  -3  -7   1   44.60    3.80
  -3  -7   1   48.50    3.40
  -3  -7   1   45.50    3.30
  -3  -7   1   36.90    2.90
   2   7  -1   29.60    2.80
   2   7  -1   45.00    3.70
   2   7  -1   35.40    3.00
   2   7  -1   37.50    3.10
  -2  -7   1   29.00    2.50
  -2  -7   1   39.40    3.30
  -2  -7   1   36.70    3.50
  -2  -7   1   40.30    3.50
   1   7  -1   10.60    2.00
   1   7  -1   15.00    3.00
   1   7  -1   18.70    2.90
  -1  -7   1    9.60    2.20
  -1  -7   1   17.30    2.90
  -1  -7   1   17.80    3.70
  -1  -7   1   13.70    3.30
   0   7  -1   34.40    3.70
   0   7  -1   38.20    3.60
   0   7  -1   38.20    3.70
   0  -7   1   34.80    3.40
   0  -7   1   38.00    4.00
  -1   7  -1    9.70    2.20
   1  -7   1   12.30    2.80
   1  -7   1   11.70    3.60
   1  -7   1   18.10    3.40
   1  -7   1   11.20    2.30
  -2   7  -1    1.70    2.30
  -2   7  -1    3.90    2.50
   2  -7   1    3.10    3.20
   2  -7   1    0.80    2.20
   2  -7   1    0.20    1.90
   2  -7   1    2.20    1.70
  -3   7  -1   39.90    5.70
   3  -7   1   46.60    3.80
   3  -7   1   33.60    4.90
   3  -7   1   42.30    4.60
   4  -7   1   -0.90    2.80
   9   6  -1    1.20    2.30
   9   6  -1    0.10    2.50
  -9  -6   1    0.80    2.20
   8   6  -1   13.70    2.60
   8   6  -1   20.40    4.40
   8   6  -1   12.90    4.00
  -8  -6   1   12.00    3.90
   7   6  -1   63.09    4.30
   7   6  -1   76.29    4.90
   7   6  -1   66.69    4.20
  -7  -6   1   71.29    4.30
   6   6  -1    9.20    2.80
   6   6  -1   18.90    3.50
   6   6  -1   15.30    3.10
  -6  -6   1   14.80    2.60
  -6  -6   1   13.10    3.10
  -6  -6   1   10.70    3.50
   5   6  -1   79.29    3.90
   5   6  -1   92.29    4.50
   5   6  -1   97.79    4.60
  -5  -6   1   84.59    4.10
  -5  -6   1   87.89    4.60
  -5  -6   1   93.69    4.40
   4   6  -1   45.50    3.30
   4   6  -1   40.70    2.70
   4   6  -1   46.00    3.40
  -4  -6   1   45.80    3.10
  -4  -6   1   47.10    2.40
  -4  -6   1   42.20    2.10
  -4  -6   1   46.60    3.50
  -4  -6   1   41.10    2.80
   3   6  -1   82.69    3.70
   3   6  -1   84.49    4.20
   3   6  -1   83.79    3.20
   3   6  -1   77.89    3.70
  -3  -6   1   84.79    3.80
  -3  -6   1   87.09    3.60
  -3  -6   1   88.29    3.50
  -3  -6   1   82.09    4.00
   2   6  -1   16.40    2.10
   2   6  -1   14.30    1.90
   2   6  -1   12.30    2.50
   2   6  -1   14.50    2.10
  -2  -6   1   14.60    2.50
  -2  -6   1   10.40    1.80
  -2  -6   1   15.30    2.60
  -2  -6   1   20.70    2.40
   1   6  -1   31.60    2.60
   1   6  -1   28.60    2.50
   1   6  -1   25.30    2.70
   1   6  -1   29.10    3.00
  -1  -6   1   28.80    2.40
  -1  -6   1   29.40    2.60
  -1  -6   1   30.00    3.00
  -1  -6   1   29.60    2.80
   0   6  -1    1.10    1.40
   0   6  -1    2.10    1.40
   0   6  -1    0.70    1.20
   0   6  -1    1.20    1.20
   0  -6   1    1.00    1.20
   0  -6   1    0.60    1.10
   0  -6   1    0.90    1.20
   0  -6   1    2.70    1.60
  -1   6  -1    5.90    1.60
  -1   6  -1    6.80    1.70
  -1   6  -1   10.80    2.90
   1  -6   1    3.80    3.00
   1  -6   1    8.80    2.40
   1  -6   1    8.90    2.40
   1  -6   1    6.40    1.60
  -2   6  -1    3.90    1.80
  -2   6  -1    1.70    1.60
   2  -6   1    3.10    1.40
   2  -6   1    2.20    1.60
   2  -6   1    1.90    1.30
   2  -6   1    1.40    1.70
  -3   6  -1   88.09    5.70
  -3   6  -1   80.79    4.50
   3  -6   1   85.09    3.80
   3  -6   1   91.09    5.70
   3  -6   1   86.19    5.20
  -4   6  -1   25.70    4.80
   4  -6   1   12.30    2.50
   4  -6   1   19.30    4.30
   4  -6   1   13.90    2.80
  -5   6  -1    6.80    3.30
   5  -6   1   -1.40    2.60
   5  -6   1   -3.40    2.00
   9   5  -1   21.40    4.40
   9   5  -1   21.40    4.20
   9   5  -1   19.50    4.30
  -9  -5   1   22.90    3.70
   8   5  -1   57.99    4.10
   8   5  -1   66.59    4.40
   8   5  -1   76.79    5.00
  -8  -5   1   67.09    4.30
   7   5  -1   27.90    3.00
   7   5  -1   22.00    3.10
   7   5  -1   26.80    3.60
   7   5  -1   23.90    3.60
  -7  -5   1   18.60    3.70
  -7  -5   1   25.10    3.00
   6   5  -1    2.00    1.50
   6   5  -1    0.30    1.60
   6   5  -1    0.30    1.40
  -6  -5   1    0.90    1.30
  -6  -5   1   -0.10    1.50
  -6  -5   1    1.30    1.30
   5   5  -1   79.69    3.80
   5   5  -1   77.19    4.10
   5   5  -1   73.89    3.50
  -5  -5   1   80.39    3.70
  -5  -5   1   84.29    4.10
  -5  -5   1   81.09    3.50
   4   5  -1   35.50    2.80
   4   5  -1   40.50    2.80
   4   5  -1   37.10    2.30
  -4  -5   1   36.00    2.40
  -4  -5   1   36.10    3.00
  -4  -5   1   40.70    2.60
  -4  -5   1   40.50    2.40
  -4  -5   1   35.10    2.20
   3   5  -1  328.37    8.30
   3   5  -1  322.77    8.40
   3   5  -1  334.47    7.70
   3   5  -1  336.67    8.70
  -3  -5   1  338.37    8.40
  -3  -5   1  333.97    8.50
  -3  -5   1  336.77    7.70
  -3  -5   1  336.87    8.40
   2   5  -1   23.40    2.30
   2   5  -1   25.10    2.00
   2   5  -1   27.80    1.80
   2   5  -1   24.60    2.00
  -2  -5   1   26.50    2.30
  -2  -5   1   27.50    2.10
  -2  -5   1   25.70    1.90
  -2  -5   1   25.20    2.00
   1   5  -1   62.49    3.20
   1   5  -1   60.49    2.80
   1   5  -1   59.19    2.80
   1   5  -1   60.99    2.80
  -1  -5   1   62.79    2.80
  -1  -5   1   66.19    3.10
  -1  -5   1   59.69    2.90
  -1  -5   1   62.19    2.90
   0   5  -1   28.10    2.30
   0   5  -1   29.70    2.40
   0   5  -1   27.40    2.40
   0   5  -1   26.30    2.60
   0  -5   1   26.30    2.40
   0  -5   1   30.90    2.80
   0  -5   1   26.70    2.30
   0  -5   1   26.10    2.20
  -1   5  -1  177.98    5.40
  -1   5  -1  175.38    5.90
  -1   5  -1  188.68    6.20
  -1   5  -1  183.18    5.80
   1  -5   1  174.28    5.50
   1  -5   1  180.68    5.30
   1  -5   1  172.68    5.80
   1  -5   1  185.48    6.20
  -2   5  -1   19.30    2.50
  -2   5  -1   23.90    3.00
  -2   5  -1   17.40    2.40
   2  -5   1   20.70    2.40
   2  -5   1   22.90    3.30
   2  -5   1   25.30    2.60
   2  -5   1   20.60    2.80
   2  -5   1   19.10    2.10
  -3   5  -1    0.90    1.30
  -3   5  -1   -2.40    1.50
   3  -5   1    1.50    1.70
   3  -5   1    0.50    1.00
   3  -5   1    1.10    1.30
   3  -5   1    0.10    1.30
  -4   5  -1   50.39    4.60
  -4   5  -1   38.30    3.90
   4  -5   1   34.80    4.70
   4  -5   1   41.00    2.40
   4  -5   1   35.60    3.80
   4  -5   1   38.90    3.80
  -5   5  -1    2.90    2.40
   5  -5   1   -1.50    1.90
  -6   5  -1   -0.80    3.30
   6  -5   1   -4.20    2.30
   6  -5   1    0.90    2.80
  10   4  -1    0.80    2.60
   9   4  -1   62.59    5.00
   9   4  -1   72.79    4.90
  -9  -4   1   63.79    3.80
   8   4  -1    5.30    1.70
   8   4  -1    5.10    2.00
   8   4  -1    3.10    1.90
  -8  -4   1    2.10    1.50
   7   4  -1   41.80    3.30
   7   4  -1   36.00    3.50
   7   4  -1   47.70    4.00
   7   4  -1   41.10    3.00
  -7  -4   1   38.90    3.50
  -7  -4   1   44.10    3.00
   6   4  -1   91.29    4.20
   6   4  -1   94.39    4.60
   6   4  -1   95.99    4.10
   6   4  -1   92.99    3.80
  -6  -4   1   92.39    3.80
  -6  -4   1   92.29    4.30
   5   4  -1  235.38    6.60
   5   4  -1  230.48    6.30
   5   4  -1  233.88    6.90
  -5  -4   1  235.48    6.40
  -5  -4   1  236.08    6.60
  -5  -4   1  233.38    6.80
   4   4  -1  147.99    4.50
   4   4  -1  146.09    4.70
   4   4  -1  149.88    4.70
  -4  -4   1  148.49    4.50
  -4  -4   1  148.99    4.70
  -4  -4   1  143.89    4.50
   3   4  -1  940.71   20.10
   3   4  -1  922.91   20.00
   3   4  -1  937.21   20.00
  -3  -4   1  950.50   20.00
  -3  -4   1  951.00   19.10
  -3  -4   1  950.90   19.60
  -3  -4   1  944.91   20.00
  -3  -4   1  936.41   20.00
   2   4  -1   17.00    1.80
   2   4  -1   16.70    1.60
   2   4  -1   17.90    1.30
   2   4  -1   16.10    1.70
  -2  -4   1   16.40    1.70
  -2  -4   1   21.10    1.50
  -2  -4   1   16.40    1.70
   1   4  -1  725.03   15.80
   1   4  -1  669.33   16.00
   1   4  -1  740.23   15.50
   1   4  -1  720.73   15.50
  -1  -4   1  719.93   15.50
  -1  -4   1  719.63   15.30
  -1  -4   1  737.53   15.80
  -1  -4   1  726.13   15.50
   0   4  -1  166.38    5.60
   0   4  -1  177.78    5.20
   0   4  -1  157.48    5.30
   0   4  -1  180.58    5.00
   0  -4   1  176.98    5.20
   0  -4   1  178.68    4.80
   0  -4   1  174.88    5.10
   0  -4   1  178.78    4.80
  -1   4  -1  675.13   15.10
  -1   4  -1  661.23   14.80
  -1   4  -1  654.43   15.00
  -1   4  -1  657.33   14.30
   1  -4   1  650.33   14.20
   1  -4   1  642.74   14.80
   1  -4   1  663.63   14.90
   1  -4   1  657.73   15.10
  -2   4  -1   30.90    2.20
  -2   4  -1   26.40    2.40
  -2   4  -1   30.00    2.60
   2  -4   1   30.00    2.30
   2  -4   1   29.50    1.90
   2  -4   1   27.30    2.50
   2  -4   1   31.30    2.90
   2  -4   1   28.80    2.30
  -3   4  -1   86.39    3.20
  -3   4  -1   86.99    4.30
  -3   4  -1   93.99    4.40
   3  -4   1   86.19    4.20
   3  -4   1   91.69    3.90
   3  -4   1   89.39    4.60
   3  -4   1   87.19    3.00
   3  -4   1   86.99    3.90
  -4   4  -1    3.10    1.40
  -4   4  -1    3.70    1.10
  -4   4  -1    4.30    1.70
   4  -4   1    4.30    0.90
   4  -4   1    6.60    1.70
   4  -4   1    4.60    1.80
   4  -4   1    5.80    1.60
  -5   4  -1  262.27    9.00
   5  -4   1  261.37    8.40
   5  -4   1  255.07    8.80
  -6   4  -1   14.00    4.60
   6  -4   1    8.60    2.50
   6  -4   1    5.90    2.30
   9   3  -1   52.79    4.40
   9   3  -1   47.70    3.40
   9   3  -1   49.70    4.50
   8   3  -1   -2.40    1.50
   8   3  -1   -1.60    2.20
   8   3  -1   -0.60    1.00
   8   3  -1    2.00    1.60
  -8  -3   1   -1.00    1.30
  -8  -3   1    0.80    1.20
   7   3  -1    2.10    1.80
   7   3  -1    0.00    1.50
   7   3  -1    0.00    1.10
   7   3  -1   -0.90    0.80
   7   3  -1    0.20    1.30
  -7  -3   1    0.20    1.00
  -7  -3   1   -0.20    1.00
  -7  -3   1   -0.20    1.30
   6   3  -1   31.50    3.20
   6   3  -1   26.50    1.60
   6   3  -1   33.80    2.60
   6   3  -1   26.70    2.60
  -6  -3   1   31.50    1.80
  -6  -3   1   30.40    2.20
  -6  -3   1   26.60    2.60
   5   3  -1  101.19    3.80
   5   3  -1   99.19    3.40
   5   3  -1  104.49    3.70
   5   3  -1   99.79    4.10
  -5  -3   1  100.39    2.70
  -5  -3   1   99.79    3.40
  -5  -3   1  100.79    3.90
   4   3  -1   76.09    3.30
   4   3  -1   79.99    2.80
   4   3  -1   81.59    3.00
  -4  -3   1   75.49    2.80
  -4  -3   1   81.29    3.20
   3   3  -1  381.06    8.90
   3   3  -1  376.86    8.70
   3   3  -1  382.26    8.80
  -3  -3   1  392.26    7.90
  -3  -3   1  376.86    7.90
  -3  -3   1  389.86    8.90
  -3  -3   1  380.76    8.80
  -3  -3   1  383.06    8.80
   2   3  -1  940.11   19.60
   2   3  -1  942.91   19.60
   2   3  -1  949.40   19.70
   2   3  -1  935.91   20.00
  -2  -3   1  950.50   19.60
  -2  -3   1  943.11   19.60
  -2  -3   1  930.71   19.60
  -2  -3   1  950.20   19.20
   1   3  -1  412.36    8.80
   1   3  -1  393.86    8.90
   1   3  -1  398.56    9.10
  -1  -3   1  394.36    8.90
  -1  -3   1  404.76    8.80
  -1  -3   1  391.66    8.80
  -1  -3   1  395.46    9.00
   0   3  -1   94.89    3.20
   0   3  -1   97.79    3.00
   0   3  -1   98.89    3.00
   0   3  -1  101.79    3.20
   0  -3   1   99.29    3.00
   0  -3   1   99.69    3.20
   0  -3   1   94.99    2.90
   0  -3   1   98.89    3.20
  -1   3  -1    0.70    0.60
  -1   3  -1    1.10    0.70
  -1   3  -1    0.60    0.70
  -1   3  -1    1.40    0.70
   1  -3   1    2.40    0.70
   1  -3   1    0.90    0.60
   1  -3   1    1.90    0.80
  -2   3  -1   71.59    3.10
  -2   3  -1   70.69    2.40
  -2   3  -1   65.69    3.10
   2  -3   1   70.59    3.20
   2  -3   1   68.99    2.30
   2  -3   1   67.09    2.80
   2  -3   1   70.29    3.00
  -3   3  -1   22.70    1.60
  -3   3  -1   18.50    2.10
  -3   3  -1   22.80    2.30
   3  -3   1   23.40    2.20
   3  -3   1   20.50    1.30
   3  -3   1   21.40    2.40
   3  -3   1   22.10    2.00
   3  -3   1   24.50    2.70
  -4   3  -1   19.80    1.50
  -4   3  -1   18.80    2.60
   4  -3   1   19.70    2.30
   4  -3   1   19.20    3.00
   4  -3   1   21.10    2.70
   4  -3   1   23.30    3.20
  -5   3  -1   94.59    4.90
  -5   3  -1  111.99    5.10
   5  -3   1   99.09    5.50
   5  -3   1  110.99    5.30
   5  -3   1  101.99    6.20
  -6   3  -1    4.50    2.20
   6  -3   1    1.80    1.90
   6  -3   1    0.00    2.00
  -7   3  -1   -2.10    2.60
   7  -3   1   -0.60    2.20
   7  -3   1   -1.70    2.10
   9   2  -1   20.40    3.80
   9   2  -1   14.00    2.50
   8   2  -1   34.30    3.70
   8   2  -1   37.10    3.30
   8   2  -1   34.60    3.70
  -8  -2   1   28.10    3.60
  -8  -2   1   35.90    2.00
   7   2  -1   79.19    2.90
   7   2  -1   78.69    4.40
   7   2  -1   79.59    4.40
   7   2  -1   82.19    3.60
   7   2  -1   85.39    4.10
  -7  -2   1   80.99    2.80
  -7  -2   1   74.99    4.30
  -7  -2   1   81.29    3.80
   6   2  -1   70.59    3.80
   6   2  -1   68.89    3.30
   6   2  -1   65.39    2.90
   6   2  -1   65.39    2.50
   6   2  -1   66.09    3.50
  -6  -2   1   64.89    3.60
  -6  -2   1   68.19    2.60
  -6  -2   1   65.39    2.90
   5   2  -1  286.87    6.70
   5   2  -1  281.37    6.60
   5   2  -1  287.27    7.50
   5   2  -1  284.37    7.30
   5   2  -1  286.87    7.70
  -5  -2   1  294.77    7.70
  -5  -2   1  291.57    6.80
  -5  -2   1  285.27    6.70
   4   2  -1  178.98    5.20
   4   2  -1  173.28    4.50
   4   2  -1  173.58    4.90
   4   2  -1  172.98    4.20
   4   2  -1  170.38    4.80
  -4  -2   1  175.48    4.50
  -4  -2   1  191.28    5.30
  -4  -2   1  173.58    5.00
   3   2  -1 1472.55   30.00
   3   2  -1 1498.75   30.50
   3   2  -1 1462.95   30.20
   3   2  -1 1501.65   29.60
  -3  -2   1 1477.85   30.10
  -3  -2   1 1519.85   30.50
  -3  -2   1 1503.15   30.20
  -3  -2   1 1505.55   29.60
   2   2  -1    0.50    0.70
   2   2  -1    1.50    0.50
   2   2  -1    2.90    1.00
  -2  -2   1    1.50    0.30
  -2  -2   1    1.20    0.30
  -2  -2   1    2.60    0.80
  -2  -2   1    2.60    0.70
  -2  -2   1    1.50    0.60
   1   2  -1 2775.52   55.89
   1   2  -1 2750.92   55.29
   1   2  -1 2756.82   56.09
   1   2  -1 2807.42   55.79
  -1  -2   1 2692.53   56.29
  -1  -2   1 2737.03   55.99
  -1  -2   1 2770.62   55.79
   0   2  -1    1.80    0.70
   0   2  -1    1.70    0.70
   0   2  -1    2.80    0.90
   0   2  -1    2.90    0.90
   0  -2   1    4.20    1.00
   0  -2   1    1.80    0.70
   0  -2   1    3.20    1.00
   0  -2   1    2.00    0.80
  -1   2  -1  466.95   10.40
  -1   2  -1  468.15    9.80
  -1   2  -1  467.55   10.30
  -1   2  -1  473.25   10.40
   1  -2   1  469.95    9.80
   1  -2   1  468.75   10.50
   1  -2   1  452.95   10.30
   1  -2   1  478.85   10.30
  -2   2  -1  105.79    3.00
  -2   2  -1  102.29    3.50
  -2   2  -1  106.79    3.60
   2  -2   1  102.69    2.70
   2  -2   1  103.79    3.30
   2  -2   1  103.69    3.50
   2  -2   1  104.19    3.60
  -3   2  -1  331.57    6.80
  -3   2  -1  323.27    8.30
  -3   2  -1  329.97    8.30
   3  -2   1  332.87    8.40
   3  -2   1  303.67    6.90
   3  -2   1  316.97    8.30
   3  -2   1  328.77    8.00
   3  -2   1  316.77    8.10
  -4   2  -1   80.59    3.60
  -4   2  -1   80.59    3.80
   4  -2   1   77.49    3.90
   4  -2   1   84.99    4.10
   4  -2   1   78.79    3.50
   4  -2   1   81.59    3.70
  -5   2  -1   63.59    4.00
  -5   2  -1   70.19    4.00
   5  -2   1   65.69    3.40
   5  -2   1   70.29    4.30
   5  -2   1   67.79    3.80
   5  -2   1   63.49    4.30
  -6   2  -1   16.70    3.30
  -6   2  -1   12.40    3.50
   6  -2   1   13.30    3.20
   6  -2   1   11.90    3.50
  -7   2  -1   -1.20    1.90
   7  -2   1   -1.20    2.00
   7  -2   1   -2.70    1.90
  -8   2  -1    2.20    3.00
   8  -2   1   -3.10    2.40
   8  -2   1   -1.40    2.50
   9   1  -1    0.10    2.00
   9   1  -1    2.50    2.20
   8   1  -1   66.69    4.40
   8   1  -1   59.09    4.40
  -8  -1   1   61.39    4.90
   7   1  -1    2.80    1.50
   7   1  -1    6.30    2.00
   7   1  -1    4.30    1.50
  -7  -1   1    3.50    1.50
  -7  -1   1    3.30    1.50
   6   1  -1   33.20    1.50
   6   1  -1   32.60    2.80
   6   1  -1   30.10    2.70
   6   1  -1   33.90    3.10
  -6  -1   1   32.40    2.70
  -6  -1   1   29.80    2.60
  -6  -1   1   31.80    1.50
  -6  -1   1   35.20    2.70
   5   1  -1    8.70    1.00
   5   1  -1    6.70    2.00
   5   1  -1    6.60    1.10
   5   1  -1   10.50    1.70
  -5  -1   1    5.80    1.10
  -5  -1   1    7.00    1.80
  -5  -1   1    7.10    1.10
  -5  -1   1    7.00    1.60
   4   1  -1  281.07    7.20
   4   1  -1  284.17    6.20
   4   1  -1  285.67    7.10
   4   1  -1  282.57    6.70
  -4  -1   1  282.17    7.00
  -4  -1   1  283.17    7.20
  -4  -1   1  283.77    6.30
  -4  -1   1  288.97    6.70
   3   1  -1   37.30    1.50
   3   1  -1   42.00    1.50
   3   1  -1   40.00    2.00
   3   1  -1   38.60    1.70
  -3  -1   1   40.20    1.50
  -3  -1   1   40.00    1.90
  -3  -1   1   39.60    1.60
   2   1  -1   61.89    1.70
   2   1  -1   66.99    2.40
   2   1  -1   64.29    1.90
   2   1  -1   63.99    2.00
  -2  -1   1   63.49    1.80
  -2  -1   1   65.99    2.30
   1   1  -1 1805.62   36.50
   1   1  -1 1919.81   36.60
   1   1  -1 1577.34   37.90
   1   1  -1 1809.12   36.50
  -1  -1   1 1649.54   37.00
  -1  -1   1 1817.22   36.20
  -1  -1   1 1923.81   36.40
  -1  -1   1 1859.41   36.50
   0   1  -1    1.00    0.30
   0   1  -1    1.00    0.30
   0   1  -1    1.70    0.50
   0   1  -1    1.50    0.40
   0  -1   1    0.90    0.30
   0  -1   1    1.10    0.40
   0  -1   1    1.20    0.40
   0  -1   1    1.20    0.50
  -1   1  -1 1224.58   25.70
  -1   1  -1 1279.97   25.80
  -1   1  -1 1309.87   25.50
   1  -1   1 1253.87   25.70
   1  -1   1 1298.67   25.80
   1  -1   1 1293.87   25.80
   1  -1   1 1281.67   25.70
  -2   1  -1  341.97    6.80
  -2   1  -1  333.67    7.80
  -2   1  -1  342.57    7.80
   2  -1   1  338.87    7.80
   2  -1   1  337.87    6.80
   2  -1   1  323.77    7.70
   2  -1   1  334.27    7.60
  -3   1  -1 1628.04   32.80
  -3   1  -1 1663.13   33.00
  -3   1  -1 1635.44   33.00
   3  -1   1 1648.04   33.00
   3  -1   1 1647.24   32.90
   3  -1   1 1394.66   34.50
  -4   1  -1    2.80    1.00
  -4   1  -1    2.90    1.10
  -4   1  -1    3.00    0.80
   4  -1   1    3.70    1.00
   4  -1   1    3.00    1.10
   4  -1   1    1.70    0.80
  -5   1  -1   36.50    3.00
  -5   1  -1   37.40    2.90
  -5   1  -1   35.50    2.50
   5  -1   1   32.20    2.60
   5  -1   1   39.30    3.30
   5  -1   1   35.20    2.90
  -6   1  -1   42.20    3.30
  -6   1  -1   44.60    3.50
  -6   1  -1   39.60    3.60
   6  -1   1   42.40    3.40
   6  -1   1   40.00    4.00
   6  -1   1   41.30    3.50
  -7   1  -1  103.69    6.00
  -7   1  -1  121.89    5.80
   7  -1   1  112.09    5.50
   7  -1   1  113.69    5.80
  -8   1  -1   14.80    4.60
   8  -1   1    8.10    2.40
   8  -1   1   10.70    2.70
   9   0  -1    6.20    2.60
   9   0  -1   20.00    5.50
  -9   0   1    9.10    3.20
   8   0  -1   20.10    3.90
   8   0  -1   34.70    4.30
  -8   0   1   22.20    4.90
  -8   0   1   29.30    4.10
   7   0  -1  120.09    5.30
   7   0  -1  120.89    5.20
   7   0  -1  112.49    5.50
  -7   0   1  113.89    5.30
  -7   0   1  126.69    5.50
   6   0  -1    2.10    1.50
   6   0  -1    1.00    1.40
   6   0  -1    1.40    1.40
  -6   0   1    1.70    1.30
  -6   0   1   -0.10    1.30
  -6   0   1   -0.40    1.10
   5   0  -1  160.08    5.10
   5   0  -1  162.48    5.10
   5   0  -1  156.48    5.20
  -5   0   1  160.28    5.10
  -5   0   1  156.48    5.00
  -5   0   1  162.78    5.10
   4   0  -1  177.78    5.10
   4   0  -1  180.58    5.00
  -4   0   1  178.38    5.00
  -4   0   1  176.78    5.10
  -4   0   1  178.68    5.10
   3   0  -1   31.20    1.80
   3   0  -1   31.80    1.70
   3   0  -1   32.40    1.60
   3   0  -1   30.50    1.00
  -3   0   1   30.60    1.60
  -3   0   1   31.10    1.60
  -3   0   1   32.30    1.70
  -3   0   1   31.80    1.10
   2   0  -1  291.17    6.60
   2   0  -1  298.37    6.60
   2   0  -1  298.27    6.10
   2   0  -1  286.47    6.50
  -2   0   1  288.77    6.60
  -2   0   1  294.47    6.50
  -2   0   1  299.17    6.10
  -2   0   1  297.07    6.60
   1   0  -1 1975.40   39.90
   1   0  -1 1895.91   40.90
  -1   0   1 2042.80   40.30
  -1   0   1 1931.31   40.80
  -1   0  -1 2358.56   47.50
  -1   0  -1 2349.06   48.30
   1   0   1 2426.96   46.30
   1   0   1 2350.96   47.60
   1   0   1 2241.38   47.60
   1   0   1 2301.47   47.10
  -2   0  -1  393.06    8.60
  -2   0  -1  386.96    8.40
  -2   0  -1  378.26    8.50
   2   0   1  393.36    8.50
   2   0   1  393.06    8.40
   2   0   1  378.56    8.50
  -3   0  -1  727.53   15.20
  -3   0  -1  711.33   15.30
  -3   0  -1  725.13   15.50
   3   0   1  710.73   15.40
   3   0   1  721.73   15.20
   3   0   1  703.03   15.30
  -4   0  -1    0.10    0.60
  -4   0  -1    0.40    0.70
  -4   0  -1    0.80    0.70
   4   0   1    0.00    0.70
   4   0   1   -0.40    0.80
   4   0   1    0.10    0.80
  -5   0  -1   32.40    2.40
  -5   0  -1   36.90    2.50
  -5   0  -1   30.80    2.50
   5   0   1   35.90    2.40
   5   0   1   33.90    2.60
   5   0   1   37.50    2.80
  -6   0  -1   39.60    3.20
  -6   0  -1   46.20    3.20
  -6   0  -1   38.00    3.00
   6   0   1   39.80    3.30
   6   0   1   37.90    3.70
   6   0   1   47.00    3.30
  -7   0  -1  100.99    5.20
  -7   0  -1  117.09    5.40
   7   0   1  104.59    5.00
   7   0   1  103.79    5.10
  -8   0  -1    8.60    2.70
  -8   0  -1   10.30    2.70
   8   0   1    8.70    2.20
   8   0   1    6.70    2.30
  -9   0  -1    1.30    2.80
   9   0   1   -3.30    2.10
   9   0   1    3.40    2.80
   8  -1  -1   -1.30    2.10
   8  -1  -1    0.70    2.30
  -8   1   1    4.20    2.60
   7  -1  -1  152.38    6.40
   7  -1  -1  144.69    6.10
  -7   1   1  154.58    6.50
  -7   1   1  141.59    6.50
   6  -1  -1   97.59    4.80
   6  -1  -1  100.49    4.50
   6  -1  -1   99.19    4.90
  -6   1   1   87.69    4.50
  -6   1   1  102.09    4.60
  -6   1   1   95.79    4.60
   5  -1  -1    0.60    1.30
   5  -1  -1    0.00    1.10
   5  -1  -1   -0.90    1.10
  -5   1   1    0.50    1.10
  -5   1   1    0.40    1.10
  -5   1   1    0.60    0.90
   4  -1  -1    1.50    0.90
   4  -1  -1    0.50    1.00
   4  -1  -1    0.50    0.70
  -4   1   1    0.90    0.80
  -4   1   1    1.20    0.80
  -4   1   1    0.40    0.80
   3  -1  -1  263.07    6.60
   3  -1  -1  272.97    6.80
   3  -1  -1  273.17    6.60
  -3   1   1  267.77    5.50
  -3   1   1  266.07    6.70
  -3   1   1  265.07    6.70
  -3   1   1  267.97    6.50
   2  -1  -1   21.90    1.30
   2  -1  -1   24.70    1.80
   2  -1  -1   23.70    1.40
  -2   1   1   23.10    1.30
  -2   1   1   22.60    0.80
  -2   1   1   21.30    1.30
  -2   1   1   23.20    1.50
   1  -1  -1  100.69    3.30
   1  -1  -1  102.19    2.40
   1  -1  -1  103.59    2.60
  -1   1   1   94.79    3.00
  -1   1   1  107.19    2.90
  -1   1   1  103.49    2.40
  -1   1   1  104.29    2.60
  -1  -1  -1 2606.74   51.49
  -1  -1  -1 2592.34   52.59
  -1  -1  -1 2678.93   52.69
   1   1   1 2474.05   51.89
   1   1   1 2533.75   52.59
   1   1   1 2589.64   51.89
   1   1   1 2545.45   51.09
  -2  -1  -1  307.67    6.60
  -2  -1  -1  327.97    6.60
  -2  -1  -1  314.07    7.00
   2   1   1  318.47    7.00
   2   1   1  330.37    6.60
   2   1   1  312.57    7.00
   2   1   1  313.17    6.60
   2   1   1  310.17    7.10
  -3  -1  -1 1506.05   29.80
  -3  -1  -1 1479.65   30.20
  -3  -1  -1 1508.55   30.30
  -3  -1  -1 1474.55   29.40
   3   1   1 1471.35   29.40
   3   1   1 1436.46   30.30
   3   1   1 1541.95   29.80
   3   1   1 1475.25   30.20
  -4  -1  -1   13.40    1.50
  -4  -1  -1   13.20    0.80
  -4  -1  -1   14.60    1.50
  -4  -1  -1   12.90    1.30
   4   1   1   14.30    1.60
   4   1   1   13.50    0.90
   4   1   1   15.30    1.50
   4   1   1   12.40    1.60
  -5  -1  -1 1177.08   25.20
  -5  -1  -1 1194.58   25.40
  -5  -1  -1 1163.78   24.60
   5   1   1 1203.38   24.60
   5   1   1 1168.68   25.30
   5   1   1 1181.18   25.20
  -6  -1  -1  306.67    8.40
  -6  -1  -1  289.57    8.30
  -6  -1  -1  299.77    7.90
   6   1   1  301.17    7.90
   6   1   1  285.67    8.30
   6   1   1  295.27    8.30
  -7  -1  -1  140.59    5.30
  -7  -1  -1  148.39    5.80
   7   1   1  139.19    5.60
   7   1   1  130.99    5.70
   7   1   1  144.19    5.40
  -8  -1  -1   15.60    3.90
   8   1   1   18.30    3.90
   8   1   1   10.30    3.20
   9   1   1    2.00    2.30
   8  -2  -1   -1.20    2.40
   8  -2  -1    4.30    2.60
  -8   2   1    3.70    2.90
   7  -2  -1   18.60    4.10
  -7   2   1   13.50    3.70
   6  -2  -1   70.29    4.20
   6  -2  -1   70.29    4.50
   6  -2  -1   66.19    4.20
  -6   2   1   70.99    4.30
  -6   2   1   62.79    4.40
  -6   2   1   75.39    4.50
   5  -2  -1   49.10    3.90
   5  -2  -1   45.50    3.20
   5  -2  -1   47.10    3.40
  -5   2   1   48.60    3.30
  -5   2   1   39.80    3.30
  -5   2   1   43.90    3.20
   4  -2  -1   57.09    3.50
   4  -2  -1   51.89    2.80
   4  -2  -1   56.29    3.00
  -4   2   1   56.69    2.90
  -4   2   1   54.09    3.00
   3  -2  -1  451.65   10.60
   3  -2  -1  426.26   10.20
   3  -2  -1  439.36   10.10
  -3   2   1  450.35   10.10
  -3   2   1  433.46    9.30
  -3   2   1  438.36   10.40
   2  -2  -1  117.09    3.80
   2  -2  -1  116.29    2.90
   2  -2  -1  119.09    3.60
   2  -2  -1  123.29    3.40
  -2   2   1  119.09    3.40
  -2   2   1  116.99    3.00
  -2   2   1  120.49    3.80
  -2   2   1  117.29    3.60
   1  -2  -1    9.20    1.10
   1  -2  -1   11.20    0.90
   1  -2  -1   13.50    1.50
   1  -2  -1    9.90    0.90
   1  -2  -1    9.70    0.80
  -1   2   1    9.70    0.80
  -1   2   1    9.10    1.10
  -1   2   1   12.40    1.30
   0  -2  -1  587.74   12.10
   0  -2  -1  558.24   11.90
   0  -2  -1  565.14   12.10
   0  -2  -1  575.34   11.70
   0   2   1  561.14   11.90
   0   2   1  585.14   12.20
   0   2   1  594.04   11.70
   0   2   1  592.54   12.10
  -1  -2  -1   13.30    1.10
  -1  -2  -1   15.70    1.00
  -1  -2  -1   13.50    1.20
  -1  -2  -1    8.90    1.00
   1   2   1   10.40    1.10
   1   2   1    9.50    0.90
  -2  -2  -1   87.39    2.60
  -2  -2  -1   88.39    2.50
  -2  -2  -1   85.39    2.50
   2   2   1   90.79    2.60
   2   2   1   83.59    2.50
  -3  -2  -1    8.20    0.50
  -3  -2  -1    7.10    1.10
  -3  -2  -1    6.80    0.90
   3   2   1    8.50    1.30
   3   2   1    7.30    0.90
   3   2   1    7.70    1.00
  -4  -2  -1    0.80    1.30
  -4  -2  -1    2.20    0.80
  -4  -2  -1    1.70    0.60
   4   2   1    1.50    0.70
   4   2   1    2.20    1.00
   4   2   1    1.10    0.60
   4   2   1    2.00    0.80
  -5  -2  -1  329.17    7.30
  -5  -2  -1  337.17    7.60
  -5  -2  -1  336.07    8.50
   5   2   1  331.17    8.40
   5   2   1  322.67    8.50
   5   2   1  322.67    7.30
   5   2   1  333.57    8.50
   5   2   1  336.77    7.60
  -6  -2  -1   62.69    3.40
  -6  -2  -1   65.09    2.90
  -6  -2  -1   64.29    2.20
   6   2   1   66.69    2.30
   6   2   1   67.29    3.50
   6   2   1   68.59    3.30
   6   2   1   66.79    3.70
   6   2   1   67.29    3.00
  -7  -2  -1  109.59    5.00
  -7  -2  -1  119.79    4.40
   7   2   1  125.49    5.30
   7   2   1  109.09    4.90
   7   2   1  116.99    4.30
   7   2   1  121.89    5.10
   7   2   1  116.69    3.20
  -8  -2  -1   64.79    4.20
   8   2   1   62.39    4.30
   8   2   1   68.09    4.00
   8   2   1   71.09    4.30
   9   2   1   14.70    4.00
   9   2   1   12.10    3.90
   9   2   1    7.30    2.20
   7  -3  -1    1.50    2.20
  -7   3   1   -0.80    2.50
   6  -3  -1    1.50    1.70
   6  -3  -1    0.40    1.90
  -6   3   1    2.70    2.00
   5  -3  -1  106.59    4.90
   5  -3  -1  115.29    5.40
   5  -3  -1  109.19    5.40
   5  -3  -1  118.89    5.00
  -5   3   1   98.29    4.90
  -5   3   1  124.49    5.50
   4  -3  -1   87.49    3.80
   4  -3  -1   86.69    4.20
   4  -3  -1   87.19    2.50
   4  -3  -1   90.69    3.90
   4  -3  -1   92.49    4.60
  -4   3   1   87.49    2.70
  -4   3   1   83.69    3.90
  -4   3   1   91.39    4.20
   3  -3  -1  174.18    5.40
   3  -3  -1  174.58    5.10
   3  -3  -1  172.58    4.30
   3  -3  -1  175.48    5.80
   3  -3  -1  170.88    5.20
  -3   3   1  166.88    5.50
  -3   3   1  169.98    4.30
  -3   3   1  177.18    5.50
   2  -3  -1    8.60    1.30
   2  -3  -1    8.60    1.30
   2  -3  -1    8.90    1.00
   2  -3  -1    8.90    1.90
   2  -3  -1   10.30    1.50
  -2   3   1    8.70    1.50
  -2   3   1    8.70    1.20
  -2   3   1    8.10    1.60
   1  -3  -1  637.14   14.20
   1  -3  -1  644.84   13.50
   1  -3  -1  648.44   13.70
   1  -3  -1  638.74   13.50
   1  -3  -1  641.04   14.00
  -1   3   1  654.73   14.10
  -1   3   1  646.34   13.50
  -1   3   1  643.04   14.20
   0  -3  -1  161.58    4.30
   0  -3  -1  171.98    4.60
   0  -3  -1  178.48    4.60
   0   3   1  166.38    4.50
   0   3   1  176.08    4.50
   0   3   1  172.38    4.30
   0   3   1  173.38    4.60
  -1  -3  -1  341.27    7.40
  -1  -3  -1  321.37    7.50
  -1  -3  -1  340.57    7.70
  -1  -3  -1  330.97    7.10
   1   3   1  333.77    7.30
   1   3   1  320.07    7.70
  -2  -3  -1  230.08    5.70
  -2  -3  -1  236.08    5.40
  -2  -3  -1  239.58    5.10
  -2  -3  -1  230.08    5.60
   2   3   1  235.88    5.00
   2   3   1  228.18    5.60
   2   3   1  235.08    5.50
  -3  -3  -1  258.87    6.40
  -3  -3  -1  261.07    6.20
  -3  -3  -1  262.57    6.30
   3   3   1  261.17    6.30
   3   3   1  255.87    6.10
   3   3   1  259.37    6.40
  -4  -3  -1  250.77    6.50
  -4  -3  -1  247.38    6.10
   4   3   1  245.98    6.10
   4   3   1  255.17    6.50
   4   3   1  254.47    6.50
  -5  -3  -1  316.97    7.40
  -5  -3  -1  314.47    8.10
   5   3   1  319.27    8.10
   5   3   1  318.17    8.20
   5   3   1  314.27    7.50
   5   3   1  306.67    8.20
  -6  -3  -1    7.00    2.00
  -6  -3  -1    7.00    1.60
   6   3   1   11.30    2.00
   6   3   1    7.10    1.40
   6   3   1   10.60    2.10
   6   3   1    7.40    2.50
   6   3   1    9.80    1.70
  -7  -3  -1   19.50    1.90
  -7  -3  -1   13.50    2.70
  -7  -3  -1   19.50    1.90
   7   3   1   19.30    3.10
   7   3   1   17.60    2.10
   7   3   1   20.90    3.60
   7   3   1   17.00    2.00
   7   3   1   19.10    3.10
  -8  -3  -1    8.80    1.90
  -8  -3  -1   12.00    2.50
   8   3   1    6.80    1.90
   8   3   1    8.60    2.20
   8   3   1    9.70    2.10
   8   3   1   14.60    2.30
   9   3   1   23.30    3.10
   9   3   1   18.20    3.90
   9   3   1   14.70    3.70
   7  -4  -1   -4.70    2.60
   7  -4  -1    2.30    2.50
  -7   4   1   -3.50    2.90
   6  -4  -1   -2.00    2.00
   6  -4  -1    0.60    1.90
  -6   4   1   -3.60    2.30
   5  -4  -1   80.79    5.00
   5  -4  -1   75.69    5.30
   5  -4  -1   79.19    5.10
  -5   4   1   94.79    5.30
   4  -4  -1  114.39    4.60
   4  -4  -1  109.19    3.30
   4  -4  -1  111.99    5.10
   4  -4  -1  107.39    4.70
   4  -4  -1  119.09    5.40
  -4   4   1   99.99    4.60
  -4   4   1  109.69    3.60
  -4   4   1  114.49    6.10
   3  -4  -1   13.00    2.40
   3  -4  -1   13.90    3.00
   3  -4  -1   12.10    1.50
   3  -4  -1   15.60    2.20
   3  -4  -1   15.00    1.90
  -3   4   1   14.30    2.50
  -3   4   1   15.40    2.00
  -3   4   1   13.30    2.30
   2  -4  -1  259.47    7.50
   2  -4  -1  246.88    6.20
   2  -4  -1  257.77    6.50
   2  -4  -1  253.07    6.80
   2  -4  -1  250.47    6.90
  -2   4   1  254.37    7.20
  -2   4   1  256.77    6.30
  -2   4   1  262.77    7.30
   1  -4  -1  118.49    3.60
   1  -4  -1  121.69    4.00
   1  -4  -1  118.29    3.50
   1  -4  -1  120.99    4.30
   1  -4  -1  120.29    3.60
  -1   4   1  121.69    4.20
  -1   4   1  119.59    3.70
   0  -4  -1   67.89    2.30
   0  -4  -1   68.19    2.60
   0  -4  -1   72.89    3.00
   0  -4  -1   71.89    2.90
   0   4   1   70.39    2.90
   0   4   1   72.89    2.60
   0   4   1   69.89    2.40
   0   4   1   72.89    2.80
  -1  -4  -1  224.28    5.20
  -1  -4  -1  226.18    5.70
  -1  -4  -1  229.08    5.70
  -1  -4  -1  190.68    7.30
   1   4   1  221.78    5.70
   1   4   1  227.58    6.00
   1   4   1  221.28    5.30
   1   4   1  227.98    5.60
  -2  -4  -1    4.50    1.30
  -2  -4  -1    3.60    0.90
  -2  -4  -1    6.10    1.30
   2   4   1    4.50    1.00
   2   4   1    3.60    1.10
   2   4   1    5.60    1.50
  -3  -4  -1  382.46    7.90
  -3  -4  -1  382.16    9.10
  -3  -4  -1  386.36    8.80
  -3  -4  -1  391.56    9.00
   3   4   1  375.76    8.90
   3   4   1  384.46    8.80
   3   4   1  382.76    9.20
  -4  -4  -1   63.09    3.60
  -4  -4  -1   63.19    2.70
  -4  -4  -1   63.29    2.70
   4   4   1   64.39    2.90
   4   4   1   61.99    2.60
   4   4   1   64.09    3.00
  -5  -4  -1  288.67    7.40
  -5  -4  -1  292.57    7.70
  -5  -4  -1  299.97    7.90
   5   4   1  286.37    7.40
   5   4   1  295.67    7.80
   5   4   1  303.67    8.00
  -6  -4  -1   73.59    3.20
  -6  -4  -1   66.39    3.90
   6   4   1   70.69    3.30
   6   4   1   72.09    4.00
   6   4   1   74.79    3.60
   6   4   1   71.29    3.60
  -7  -4  -1   90.39    4.70
  -7  -4  -1   92.89    3.70
   7   4   1   96.79    4.40
   7   4   1   87.79    3.80
   7   4   1   89.29    4.80
   7   4   1   89.89    4.70
  -8  -4  -1    3.40    1.40
   8   4   1    2.00    1.90
   8   4   1    2.70    1.80
   8   4   1    1.80    1.60
  -9  -4  -1  105.99    4.20
   9   4   1  122.49    6.00
   9   4   1  105.89    6.00
  10   4   1    2.60    3.20
  10   4   1    9.20    3.00
   6  -5  -1    8.00    2.90
   6  -5  -1    6.50    2.40
  -6   5   1   21.90    5.90
   5  -5  -1   53.29    4.50
   5  -5  -1   44.90    4.60
  -5   5   1   53.19    5.20
   4  -5  -1    2.40    1.60
   4  -5  -1    1.50    1.10
   4  -5  -1    2.60    2.00
   4  -5  -1    1.20    1.50
  -4   5   1    3.30    2.20
   3  -5  -1    3.10    1.60
   3  -5  -1    4.30    1.60
   3  -5  -1    3.30    1.30
   3  -5  -1    3.20    1.00
   3  -5  -1    4.30    1.40
  -3   5   1    3.60    1.80
  -3   5   1    3.90    1.40
  -3   5   1    3.80    1.40
   2  -5  -1   15.50    2.00
   2  -5  -1   17.00    2.30
   2  -5  -1   13.40    1.80
   2  -5  -1   17.60    3.20
   2  -5  -1   16.20    2.10
  -2   5   1   18.70    2.40
  -2   5   1   11.70    2.00
  -2   5   1   12.80    2.70
   1  -5  -1  252.47    6.60
   1  -5  -1  253.57    7.20
   1  -5  -1  254.07    6.40
   1  -5  -1  258.17    7.60
   1  -5  -1  247.18    6.50
  -1   5   1  255.37    6.80
  -1   5   1  259.57    7.50
  -1   5   1  245.68    7.20
   0  -5  -1   37.40    2.60
   0  -5  -1   41.20    3.00
   0  -5  -1   35.30    2.30
   0  -5  -1   36.90    2.00
   0   5   1   36.00    2.50
   0   5   1   35.80    2.40
   0   5   1   44.90    2.80
   0   5   1   40.80    2.10
  -1  -5  -1    5.50    1.60
  -1  -5  -1    5.40    1.50
  -1  -5  -1    4.80    1.10
  -1  -5  -1    5.50    1.40
   1   5   1    7.50    1.80
   1   5   1    5.20    1.20
   1   5   1    6.80    1.50
   1   5   1    4.00    1.30
  -2  -5  -1    2.20    1.00
  -2  -5  -1    2.30    0.90
  -2  -5  -1    2.00    0.90
  -2  -5  -1    2.00    0.90
   2   5   1    1.70    0.70
   2   5   1    1.50    0.70
   2   5   1    2.40    1.00
   2   5   1    1.90    0.90
  -3  -5  -1   23.50    1.90
  -3  -5  -1   24.20    2.10
  -3  -5  -1   22.90    1.60
  -3  -5  -1   23.70    2.00
   3   5   1   19.90    1.80
   3   5   1   25.40    2.30
   3   5   1   21.20    1.90
   3   5   1   21.70    1.40
  -4  -5  -1    2.60    0.90
  -4  -5  -1    3.60    1.20
  -4  -5  -1    2.70    1.10
   4   5   1    4.50    1.40
   4   5   1    3.50    1.20
   4   5   1    2.80    1.20
  -5  -5  -1   -1.10    1.00
  -5  -5  -1    0.30    0.80
  -5  -5  -1   -0.10    1.20
   5   5   1   -1.60    1.30
   5   5   1   -0.20    1.20
   5   5   1    0.40    1.10
  -6  -5  -1    4.60    1.50
  -6  -5  -1    6.40    1.80
   6   5   1    7.70    2.30
   6   5   1    3.70    1.40
   6   5   1    6.00    1.90
  -7  -5  -1   34.50    3.00
  -7  -5  -1   30.30    4.00
   7   5   1   37.80    3.60
   7   5   1   35.50    3.20
   7   5   1   33.00    3.70
   7   5   1   29.70    3.10
  -8  -5  -1   12.30    2.80
   8   5   1   11.50    3.40
   8   5   1   11.30    2.20
   8   5   1    7.70    2.30
  -9  -5  -1   21.20    3.50
   9   5   1   18.20    4.10
   9   5   1   19.70    4.70
  10   5   1    2.40    3.00
   5  -6  -1    3.30    2.70
  -5   6   1    2.60    3.40
   4  -6  -1    2.00    2.60
   4  -6  -1   -1.00    1.30
   4  -6  -1   -2.00    1.80
   4  -6  -1   -1.50    1.70
  -4   6   1   -0.50    2.50
   3  -6  -1   83.49    5.00
   3  -6  -1   82.29    4.40
   3  -6  -1   83.19    3.70
   3  -6  -1   81.29    4.80
  -3   6   1   92.19    5.40
  -3   6   1   78.79    4.50
   2  -6  -1   -0.40    1.00
   2  -6  -1    0.10    1.50
   2  -6  -1    0.50    1.20
   2  -6  -1   -0.30    1.50
  -2   6   1   -0.50    1.50
  -2   6   1    0.00    1.20
  -2   6   1   -0.50    1.50
   1  -6  -1  138.79    4.70
   1  -6  -1  146.49    6.00
   1  -6  -1  139.39    4.50
   1  -6  -1  132.59    5.10
   1  -6  -1  146.89    4.80
  -1   6   1  142.89    5.20
  -1   6   1  125.39    8.20
  -1   6   1  144.09    5.40
   0  -6  -1   -0.70    1.00
   0  -6  -1   -0.10    1.20
   0  -6  -1   -0.60    1.40
   0  -6  -1   -0.60    0.90
   0   6   1    1.40    1.10
   0   6   1    0.20    1.40
   0   6   1    1.80    1.40
   0   6   1    0.90    1.00
  -1  -6  -1  178.28    5.50
  -1  -6  -1  171.08    5.80
  -1  -6  -1  169.58    4.90
  -1  -6  -1  178.88    5.90
   1   6   1  176.38    5.50
   1   6   1  176.58    5.60
   1   6   1  177.48    6.00
   1   6   1  175.78    5.10
  -2  -6  -1   23.90    2.70
  -2  -6  -1   24.90    2.30
  -2  -6  -1   24.00    2.50
  -2  -6  -1   24.80    2.40
   2   6   1   24.40    2.00
   2   6   1   25.70    2.80
   2   6   1   25.30    2.30
  -3  -6  -1   96.99    3.90
  -3  -6  -1   99.59    4.00
  -3  -6  -1   94.69    3.90
  -3  -6  -1   95.89    3.50
   3   6   1  100.59    4.30
   3   6   1   94.59    4.00
   3   6   1   98.79    3.60
   3   6   1   96.39    3.30
  -4  -6  -1   10.30    1.80
  -4  -6  -1   10.10    2.30
  -4  -6  -1   11.40    1.40
  -4  -6  -1   14.20    2.60
   4   6   1   13.70    2.50
   4   6   1   13.20    1.90
   4   6   1   10.20    2.40
   4   6   1   12.90    1.80
  -5  -6  -1    5.50    1.80
  -5  -6  -1    8.00    1.80
  -5  -6  -1    6.90    1.60
   5   6   1    7.10    1.60
   5   6   1    8.40    2.60
   5   6   1    8.50    1.70
  -6  -6  -1   66.39    3.70
  -6  -6  -1   69.79    4.30
  -6  -6  -1   72.39    4.00
   6   6   1   59.19    3.80
   6   6   1   72.29    4.50
   6   6   1   75.19    4.10
  -7  -6  -1  112.49    5.80
  -7  -6  -1  119.29    5.10
   7   6   1  104.29    5.00
   7   6   1  117.99    5.30
   7   6   1  117.79    5.60
  -8  -6  -1   12.20    3.30
   8   6   1   17.90    3.50
   8   6   1   21.00    4.30
   8   6   1   10.40    2.50
  -9  -6  -1   16.70    4.10
   9   6   1   15.00    4.80
   9   6   1   17.90    5.10
   9   6   1   12.20    2.80
   4  -7  -1   -1.50    2.10
   4  -7  -1    3.20    2.60
  -4   7   1   -1.60    3.30
   3  -7  -1   31.30    4.30
   3  -7  -1   28.00    3.50
   3  -7  -1   25.80    5.10
   3  -7  -1   27.30    4.10
  -3   7   1   42.20    5.40
  -3   7   1   34.00    4.70
   2  -7  -1   11.70    3.50
   2  -7  -1   11.20    2.90
   2  -7  -1   11.70    3.00
   2  -7  -1   10.40    2.40
  -2   7   1   20.80    4.00
  -2   7   1   11.00    2.50
   1  -7  -1   -0.50    1.60
   1  -7  -1    1.30    1.40
   1  -7  -1    1.10    1.50
   1  -7  -1    1.90    1.20
  -1   7   1    0.40    1.80
   0  -7  -1   21.00    3.70
   0  -7  -1   23.30    2.60
   0  -7  -1   20.80    2.90
   0   7   1   20.50    3.30
   0   7   1   31.50    3.40
   0   7   1   19.20    3.30
  -1  -7  -1   26.40    2.90
  -1  -7  -1   29.70    3.00
  -1  -7  -1   32.20    3.60
  -1  -7  -1   33.30    3.30
   1   7   1   36.50    3.50
   1   7   1   31.50    2.70
   1   7   1   34.30    3.10
   1   7   1   26.30    3.20
  -2  -7  -1    7.00    2.00
  -2  -7  -1    5.40    1.60
  -2  -7  -1    4.30    1.90
  -2  -7  -1    6.20    1.60
   2   7   1    6.90    2.10
   2   7   1    4.40    1.30
   2   7   1    6.50    2.00
   2   7   1    4.10    1.20
  -3  -7  -1    4.30    1.60
  -3  -7  -1    7.40    2.60
  -3  -7  -1    5.40    1.50
  -3  -7  -1    6.70    2.10
   3   7   1    2.90    1.40
   3   7   1    6.40    3.10
   3   7   1    6.20    1.40
  -4  -7  -1   20.90    2.80
  -4  -7  -1   13.80    2.20
  -4  -7  -1   14.30    3.10
   4   7   1   15.50    2.90
   4   7   1   14.70    1.80
   4   7   1    8.10    2.20
   4   7   1   14.90    2.50
  -5  -7  -1    4.40    1.60
  -5  -7  -1    0.50    1.20
  -5  -7  -1    3.20    1.80
   5   7   1    0.40    1.30
   5   7   1    4.00    1.60
   5   7   1    3.00    1.70
  -6  -7  -1   -1.00    1.80
  -6  -7  -1    2.20    1.60
   6   7   1    2.40    1.70
   6   7   1   -2.00    1.50
  -7  -7  -1   28.50    3.70
  -7  -7  -1   22.80    4.60
   7   7   1   25.30    4.30
   7   7   1   21.10    3.60
  -8  -7  -1   23.30    4.00
   8   7   1   31.60    5.00
   8   7   1   13.70    3.90
  -9  -7  -1    2.10    2.40
   9   7   1   -0.20    2.60
   9   7   1    3.10    2.90
   3  -8  -1   21.80    5.40
   3  -8  -1   29.40    5.30
   3  -8  -1   24.30    4.60
  -3   8   1   51.09    9.60
   2  -8  -1   -0.10    2.00
   2  -8  -1    1.90    2.00
   2  -8  -1    3.60    2.40
  -2   8   1   17.40    5.30
   1  -8  -1   47.40    3.70
   1  -8  -1   44.70    4.90
   1  -8  -1   40.60    4.10
   1  -8  -1   48.80    4.30
   0  -8  -1   -0.10    1.30
   0  -8  -1   -0.30    1.80
   0  -8  -1    0.00    2.00
   0  -8  -1    1.50    1.60
   0   8   1    4.10    2.20
  -1  -8  -1  106.39    5.10
  -1  -8  -1   93.99    4.70
   1   8   1  100.79    4.50
   1   8   1   87.89    5.30
   1   8   1  118.49    5.60
  -2  -8  -1   12.60    3.60
  -2  -8  -1   11.00    3.00
  -2  -8  -1   10.80    3.50
   2   8   1    9.50    2.70
  -3  -8  -1  108.59    4.90
  -3  -8  -1  104.09    5.00
  -3  -8  -1  123.19    5.20
   3   8   1  108.39    4.70
   3   8   1  113.69    5.20
   3   8   1  102.99    4.50
  -4  -8  -1   -1.20    1.40
  -4  -8  -1    0.40    1.50
  -4  -8  -1   -1.40    1.90
   4   8   1    0.00    1.30
   4   8   1    2.30    1.50
   4   8   1    0.40    1.60
  -5  -8  -1   49.10    4.00
  -5  -8  -1   41.70    4.50
   5   8   1   48.90    3.90
   5   8   1   38.70    3.90
  -6  -8  -1    3.80    2.50
  -6  -8  -1   13.30    3.70
   6   8   1    5.40    2.40
   6   8   1    2.40    2.10
  -7  -8  -1    1.80    2.00
   7   8   1    4.10    2.40
   7   8   1   -1.10    2.00
  -8  -8  -1   17.00    4.70
   8   8   1    9.20    2.80
   1  -9  -1   -0.20    2.80
   1  -9  -1   -0.40    2.20
   0  -9  -1    2.20    2.60
  -1  -9  -1   21.40    4.10
   1   9   1   29.40    4.60
   1   9   1   16.00    4.00
  -2  -9  -1    1.70    2.40
  -2  -9  -1    1.20    2.00
  -2  -9  -1    2.60    3.00
   2   9   1    1.60    1.90
   2   9   1   12.10    4.00
   2   9   1    1.70    2.20
  -3  -9  -1   46.30    4.80
  -3  -9  -1   35.90    5.00
  -3  -9  -1   52.99    4.50
   3   9   1   36.50    3.90
   3   9   1   56.09    4.50
   3   9   1   41.50    4.20
  -4  -9  -1   -0.50    1.80
  -4  -9  -1   -0.40    2.60
   4   9   1    0.50    1.60
   4   9   1    3.10    2.00
   4   9   1    0.30    1.80
  -5  -9  -1   25.10    3.40
  -5  -9  -1   21.30    5.40
   5   9   1   22.00    4.10
   5   9   1   21.90    4.00
  -6  -9  -1    3.20    2.20
  -6  -9  -1    2.40    3.10
   6   9   1   -0.60    2.30
   6   9   1    2.20    2.20
  -7  -9  -1    2.80    2.40
   7   9   1   -2.10    2.60
   7   9   1    3.00    2.70
  -2 -10  -1    4.50    2.60
  -2 -10  -1   -0.80    3.10
  -3 -10  -1    5.00    2.90
  -3 -10  -1    6.10    2.70
   3  10   1    4.20    3.10
   4  10   1   -1.50    2.20
   4  10   1    3.10    2.50
  -5 -10  -1   22.90    4.60
   5  10   1   17.20    4.80
  -6 -10  -1    6.40    3.50
   6  10   1    4.00    2.80
   6  10   1    3.20    3.20
   7   9  -2    2.20    3.20
   7   9  -2    7.80    3.10
  -7  -9   2    5.00    3.00
   6   9  -2    7.80    3.10
   6   9  -2    8.80    2.80
   5   9  -2    7.00    2.70
   5   9  -2   14.60    4.60
   4   9  -2    3.10    2.40
   4   9  -2    2.50    2.60
  -4  -9   2    2.70    2.40
   3   9  -2    8.40    2.50
   3   9  -2    9.20    2.50
  -3  -9   2   19.40    4.70
  -3  -9   2   13.60    3.60
  -3  -9   2   10.30    3.20
   2   9  -2   24.10    5.10
  -2  -9   2   18.20    6.10
  -2  -9   2   19.80    5.20
  -2  -9   2   31.90    5.00
   1   9  -2    1.50    2.50
  -1  -9   2   -1.60    2.60
  -1  -9   2    4.10    2.40
   0  -9   2   -0.70    2.50
   0  -9   2   -0.50    3.00
   8   8  -2   37.10    5.50
   8   8  -2   52.49    6.70
  -8  -8   2   47.60    6.10
   7   8  -2   22.60    5.20
  -7  -8   2   15.60    4.40
   6   8  -2   13.60    4.30
   6   8  -2    0.70    2.30
  -6  -8   2    0.60    1.90
   5   8  -2   27.30    4.00
   5   8  -2   25.20    4.20
  -5  -8   2   26.60    3.30
  -5  -8   2   20.70    5.10
  -5  -8   2   21.10    2.70
   4   8  -2  118.89    6.60
   4   8  -2  129.29    6.20
  -4  -8   2  135.19    5.70
  -4  -8   2  111.89    6.30
  -4  -8   2  118.89    5.20
   3   8  -2    2.70    1.90
   3   8  -2    3.00    1.70
  -3  -8   2    2.00    1.90
  -3  -8   2   11.70    3.40
  -3  -8   2    2.80    2.40
   2   8  -2   43.20    4.10
   2   8  -2   46.90    4.20
   2   8  -2   61.59    4.90
  -2  -8   2   57.89    4.40
  -2  -8   2   50.99    4.90
  -2  -8   2   38.50    4.50
   1   8  -2   41.60    4.40
  -1  -8   2   42.20    4.40
  -1  -8   2   33.80    4.60
  -1  -8   2   33.60    4.60
   0  -8   2    8.00    2.60
   0  -8   2   14.30    4.00
   0  -8   2    6.70    2.40
  -1   8  -2    5.00    2.70
   1  -8   2   -1.50    2.10
   1  -8   2    0.50    2.00
   1  -8   2   -2.70    2.00
   2  -8   2   28.60    5.10
   2  -8   2   23.30    5.30
   2  -8   2   31.10    4.40
   9   7  -2   27.60    6.40
  -9  -7   2    3.60    2.90
   8   7  -2   23.10    5.30
  -8  -7   2    2.20    2.20
   7   7  -2   25.30    4.00
  -7  -7   2   26.10    4.00
   6   7  -2   59.29    4.80
   6   7  -2   49.20    4.40
  -6  -7   2   64.19    4.30
   5   7  -2    5.30    1.80
   5   7  -2    5.10    2.10
  -5  -7   2    4.90    2.20
  -5  -7   2    5.30    1.70
  -5  -7   2    1.30    1.70
  -5  -7   2    4.30    1.20
  -5  -7   2    4.50    1.50
   4   7  -2  194.48    6.50
   4   7  -2  192.18    6.80
  -4  -7   2  183.88    5.60
  -4  -7   2  169.88    6.70
  -4  -7   2  185.08    6.70
  -4  -7   2  179.38    6.40
  -4  -7   2  191.28    6.40
   3   7  -2   -1.20    1.10
   3   7  -2   -0.10    1.40
   3   7  -2    0.70    1.50
   3   7  -2   -0.40    1.20
  -3  -7   2   -1.90    1.40
  -3  -7   2    1.60    1.80
  -3  -7   2    1.00    1.40
  -3  -7   2    2.00    1.30
   2   7  -2   -0.20    1.30
   2   7  -2    1.40    1.50
   2   7  -2    0.60    1.20
   2   7  -2   -1.30    1.20
  -2  -7   2    0.10    1.40
  -2  -7   2    1.40    1.30
  -2  -7   2    0.60    1.60
  -2  -7   2   -1.40    1.40
   1   7  -2  117.99    5.30
   1   7  -2  136.99    5.90
   1   7  -2  107.99    5.10
   1   7  -2  129.19    5.40
  -1  -7   2  131.79    5.60
  -1  -7   2  125.29    5.10
  -1  -7   2  130.49    5.30
   0   7  -2   -0.50    1.70
   0   7  -2    0.20    1.60
   0   7  -2   -0.70    1.70
   0   7  -2    3.30    1.90
   0  -7   2   -0.80    1.70
   0  -7   2    1.60    1.50
   0  -7   2    0.30    1.60
  -1   7  -2    1.00    2.10
  -1   7  -2    5.60    2.30
   1  -7   2    1.20    1.90
   1  -7   2    1.00    2.00
   1  -7   2   -0.40    1.80
  -2   7  -2    5.00    2.60
   2  -7   2    7.80    2.10
   2  -7   2    4.90    2.50
   2  -7   2    5.10    2.10
   2  -7   2    6.40    3.40
   3  -7   2   17.70    4.60
   3  -7   2   15.10    2.80
   3  -7   2   21.90    3.60
   9   6  -2   -2.60    2.40
  -9  -6   2   -2.10    2.40
   8   6  -2    2.20    2.10
   8   6  -2   19.40    4.60
  -8  -6   2    3.20    2.00
   7   6  -2   19.50    3.50
   7   6  -2   27.20    4.10
   7   6  -2   17.70    3.60
  -7  -6   2   26.30    3.50
   6   6  -2  275.27   11.20
   6   6  -2  291.77   10.20
   6   6  -2  276.77    8.40
  -6  -6   2  308.97    8.60
  -6  -6   2  285.27    8.50
  -6  -6   2  298.27    9.10
   5   6  -2  136.79    5.50
   5   6  -2  114.09    4.70
   5   6  -2  131.79    5.30
  -5  -6   2  126.69    5.90
  -5  -6   2  123.69    3.40
  -5  -6   2  121.69    5.50
  -5  -6   2  133.19    3.60
  -5  -6   2  122.59    4.90
   4   6  -2  175.18    5.90
   4   6  -2  179.48    6.20
  -4  -6   2  169.28    4.90
  -4  -6   2  168.08    5.80
  -4  -6   2  172.68    6.00
  -4  -6   2  173.98    4.90
  -4  -6   2  178.68    5.90
   3   6  -2   16.30    2.60
   3   6  -2   16.60    2.00
   3   6  -2   13.00    2.20
   3   6  -2   14.40    2.80
  -3  -6   2   22.00    2.40
  -3  -6   2   13.40    2.40
  -3  -6   2   16.30    2.40
  -3  -6   2   19.40    3.10
   2   6  -2   47.90    2.80
   2   6  -2   49.60    3.10
   2   6  -2   46.60    3.40
   2   6  -2   44.80    2.70
  -2  -6   2   48.20    2.90
  -2  -6   2   52.99    3.20
  -2  -6   2   50.39    3.40
  -2  -6   2   51.09    3.10
   1   6  -2   67.89    3.60
   1   6  -2   64.89    3.60
   1   6  -2   78.09    4.10
   1   6  -2   69.79    3.60
  -1  -6   2   66.99    3.30
  -1  -6   2   68.69    3.60
  -1  -6   2   69.69    3.90
  -1  -6   2   73.59    3.70
   0   6  -2  151.58    6.70
   0   6  -2  143.39    5.60
   0   6  -2  154.68    5.50
   0   6  -2  144.29    5.30
   0  -6   2  154.18    5.30
   0  -6   2  154.58    5.90
   0  -6   2  143.39    5.20
   0  -6   2  144.49    5.20
  -1   6  -2   74.29    4.30
  -1   6  -2   97.99    4.90
  -1   6  -2   92.79    4.70
  -1   6  -2   76.59    4.00
   1  -6   2   94.79    4.10
   1  -6   2   82.39    4.20
   1  -6   2   78.39    3.90
   1  -6   2   89.69    4.80
  -2   6  -2   34.20    3.60
  -2   6  -2   44.00    4.10
   2  -6   2   40.40    3.10
   2  -6   2   37.40    3.30
   2  -6   2   35.70    3.80
   2  -6   2   38.60    4.00
  -3   6  -2    1.90    1.90
  -3   6  -2    4.10    2.20
   3  -6   2    3.40    1.40
   3  -6   2    0.40    1.70
   3  -6   2    2.70    2.50
   3  -6   2    4.50    1.80
  -4   6  -2    7.70    2.90
   4  -6   2    4.80    1.70
   4  -6   2    1.00    1.80
   4  -6   2    5.10    2.20
   9   5  -2   17.90    4.30
   9   5  -2   14.50    2.90
   9   5  -2   14.10    4.10
   8   5  -2    7.60    2.10
   8   5  -2    6.90    2.30
   8   5  -2    5.90    2.10
  -8  -5   2    7.40    2.00
   7   5  -2    4.00    1.70
   7   5  -2    8.90    2.70
   7   5  -2    6.80    2.10
   7   5  -2    6.10    1.90
  -7  -5   2   11.20    2.90
   6   5  -2   96.79    4.40
   6   5  -2  100.19    5.00
   6   5  -2   92.49    4.30
  -6  -5   2   96.99    4.90
  -6  -5   2  102.79    4.40
  -6  -5   2   96.09    4.20
   5   5  -2    4.60    1.50
   5   5  -2    1.90    1.20
   5   5  -2    3.80    1.50
  -5  -5   2    3.20    1.20
  -5  -5   2    3.50    1.40
  -5  -5   2    3.00    1.50
   4   5  -2    1.60    0.80
   4   5  -2    0.70    1.20
   4   5  -2    1.00    1.30
  -4  -5   2    1.80    0.70
  -4  -5   2    3.50    1.10
  -4  -5   2    1.60    1.10
  -4  -5   2    1.60    0.60
  -4  -5   2    3.10    1.50
   3   5  -2  665.53   15.00
   3   5  -2  630.24   14.90
   3   5  -2  669.63   15.20
  -3  -5   2  675.23   15.10
  -3  -5   2  673.43   14.30
  -3  -5   2  666.93   15.10
  -3  -5   2  671.33   15.10
   2   5  -2    3.10    1.30
   2   5  -2    4.10    1.00
   2   5  -2    3.40    0.90
   2   5  -2    3.90    1.10
  -2  -5   2    2.90    1.10
  -2  -5   2    3.00    0.90
  -2  -5   2    3.20    1.00
  -2  -5   2    4.60    1.60
   1   5  -2   32.00    2.60
   1   5  -2   30.20    2.30
   1   5  -2   30.70    2.20
   1   5  -2   30.50    2.20
  -1  -5   2   31.10    2.30
  -1  -5   2   30.00    2.40
  -1  -5   2   31.10    2.20
  -1  -5   2   32.00    2.50
   0   5  -2  402.96   10.20
   0   5  -2  404.06   10.00
   0   5  -2  385.86    9.60
   0   5  -2  389.06   10.00
   0  -5   2  389.16    9.70
   0  -5   2  393.86    9.60
   0  -5   2  402.16   10.20
   0  -5   2  389.16    9.90
  -1   5  -2   28.80    2.50
  -1   5  -2   34.90    3.00
  -1   5  -2   28.80    2.60
  -1   5  -2   31.90    2.90
   1  -5   2   32.00    2.70
   1  -5   2   28.40    2.50
   1  -5   2   34.20    3.10
   1  -5   2   32.30    2.50
  -2   5  -2    6.30    2.80
  -2   5  -2    9.30    2.40
  -2   5  -2    4.50    1.40
   2  -5   2    7.70    2.20
   2  -5   2    4.30    1.20
   2  -5   2   11.50    2.40
   2  -5   2   10.80    2.90
  -3   5  -2    9.50    2.40
  -3   5  -2   16.90    3.20
   3  -5   2    9.40    3.00
   3  -5   2   10.50    2.80
   3  -5   2   12.20    3.50
   3  -5   2    6.90    2.00
  -4   5  -2   52.59    4.70
   4  -5   2   45.60    4.00
   4  -5   2   45.50    2.60
   4  -5   2   45.60    4.20
  -5   5  -2    2.80    2.60
   5  -5   2    1.70    2.20
   5  -5   2   -2.50    1.80
   9   4  -2   -1.90    2.20
   9   4  -2   -3.00    1.80
  -9  -4   2    0.10    1.70
   8   4  -2  130.39    5.10
   8   4  -2  136.29    5.70
   8   4  -2  139.39    6.10
  -8  -4   2  136.09    5.10
   7   4  -2  185.08    6.20
   7   4  -2  180.78    5.70
   7   4  -2  171.98    6.30
   7   4  -2  188.78    6.80
  -7  -4   2  176.88    6.70
  -7  -4   2  192.68    5.90
   6   4  -2  182.18    5.80
   6   4  -2  187.98    6.40
   6   4  -2  168.28    5.40
   6   4  -2  170.18    5.80
  -6  -4   2  170.98    5.90
  -6  -4   2  183.98    5.60
   5   4  -2    2.10    1.10
   5   4  -2    2.60    1.20
   5   4  -2    1.90    1.40
  -5  -4   2    3.10    1.30
  -5  -4   2    1.20    1.00
  -5  -4   2    2.00    0.70
  -5  -4   2    1.40    1.10
   4   4  -2    0.60    0.70
   4   4  -2   -0.20    0.90
   4   4  -2    0.80    1.00
  -4  -4   2    1.20    0.50
  -4  -4   2    0.50    0.80
  -4  -4   2    0.90    1.00
  -4  -4   2    0.30    1.00
   3   4  -2   40.60    2.10
   3   4  -2   42.40    2.40
   3   4  -2   40.70    2.40
  -3  -4   2   41.70    2.10
  -3  -4   2   40.50    2.40
  -3  -4   2   43.00    2.50
  -3  -4   2   41.00    1.80
  -3  -4   2   42.90    1.80
   2   4  -2  503.65   11.40
   2   4  -2  487.65   11.30
   2   4  -2  498.85   11.00
   2   4  -2  495.55   11.40
  -2  -4   2  513.35   11.10
  -2  -4   2  490.85   11.40
  -2  -4   2  492.75   11.30
  -2  -4   2  499.95   11.40
   1   4  -2    7.00    1.60
   1   4  -2    9.20    1.30
   1   4  -2    8.20    1.40
  -1  -4   2   10.70    1.50
  -1  -4   2    8.00    1.40
  -1  -4   2    6.70    1.50
  -1  -4   2    7.90    1.20
   0   4  -2  569.14   13.00
   0   4  -2  548.15   12.40
   0   4  -2  552.84   12.80
   0   4  -2  576.04   12.80
   0  -4   2  539.25   12.70
   0  -4   2  568.84   12.80
   0  -4   2  568.64   12.90
   0  -4   2  554.54   12.40
  -1   4  -2  242.98    6.90
  -1   4  -2  247.18    6.90
  -1   4  -2  245.48    6.80
   1  -4   2  238.58    6.60
   1  -4   2  240.28    6.70
   1  -4   2  247.08    7.00
   1  -4   2  243.58    6.20
  -2   4  -2   65.09    3.40
  -2   4  -2   71.29    3.60
  -2   4  -2   67.69    2.90
   2  -4   2   66.09    2.80
   2  -4   2   73.09    3.70
   2  -4   2   65.79    3.40
   2  -4   2   66.69    3.20
   2  -4   2   65.09    3.30
  -3   4  -2    3.20    1.50
  -3   4  -2    2.60    1.40
  -3   4  -2    2.90    1.10
   3  -4   2    2.50    0.90
   3  -4   2    3.80    1.30
   3  -4   2    2.70    1.40
   3  -4   2    7.00    2.10
   3  -4   2    2.70    1.40
  -4   4  -2  147.69    6.10
  -4   4  -2  141.19    4.10
   4  -4   2  140.59    5.90
   4  -4   2  138.59    6.20
   4  -4   2  133.89    6.80
   4  -4   2  138.89    3.90
  -5   4  -2   -0.80    2.00
   5  -4   2   -0.10    1.70
   5  -4   2   -0.30    1.70
  -6   4  -2    4.00    2.60
   6  -4   2    1.10    2.20
   6  -4   2    1.30    2.20
   9   3  -2    0.20    2.20
   9   3  -2   -1.50    1.80
   9   3  -2    0.00    1.40
  -9  -3   2   -0.30    1.40
   8   3  -2  130.69    5.50
   8   3  -2  125.59    4.50
   8   3  -2  122.29    4.30
   8   3  -2  130.29    5.90
  -8  -3   2  126.49    4.50
  -8  -3   2  125.39    5.20
   7   3  -2   -0.80    1.30
   7   3  -2   -0.10    1.10
   7   3  -2    1.40    1.70
   7   3  -2   -0.40    0.80
   7   3  -2    0.30    1.50
  -7  -3   2    0.90    1.10
  -7  -3   2    1.00    1.10
  -7  -3   2   -1.30    1.30
   6   3  -2   15.10    2.30
   6   3  -2   17.90    2.10
   6   3  -2   14.90    2.90
   6   3  -2   14.50    1.40
   6   3  -2   16.80    2.20
  -6  -3   2   17.70    1.80
  -6  -3   2   15.50    2.50
  -6  -3   2   16.10    2.10
   5   3  -2  369.66    9.50
   5   3  -2  363.66    8.00
   5   3  -2  364.96    9.10
   5   3  -2  363.56    8.90
   5   3  -2  360.56    8.70
  -5  -3   2  372.06    8.10
  -5  -3   2  371.36    8.80
  -5  -3   2  368.36    9.40
   4   3  -2  275.67    7.20
   4   3  -2  279.27    6.80
  -4  -3   2  278.87    6.80
  -4  -3   2  279.97    7.10
  -4  -3   2  255.77    6.20
  -4  -3   2  256.57    7.30
   3   3  -2   51.39    2.30
   3   3  -2   51.49    2.20
   3   3  -2   50.29    2.40
  -3  -3   2   52.39    2.40
  -3  -3   2   52.69    2.10
  -3  -3   2   53.19    2.50
  -3  -3   2   55.19    2.40
  -3  -3   2   53.89    1.80
   2   3  -2 1769.92   35.90
   2   3  -2 1751.82   35.90
   2   3  -2 1714.33   35.90
  -2  -3   2 1819.32   35.90
  -2  -3   2 1819.92   35.60
  -2  -3   2 1760.82   36.00
  -2  -3   2 1794.92   36.00
   1   3  -2   19.40    1.50
   1   3  -2   19.50    1.50
   1   3  -2   20.80    1.30
  -1  -3   2   21.50    1.40
  -1  -3   2   21.30    1.50
  -1  -3   2   22.40    1.40
  -1  -3   2   19.90    1.40
   0   3  -2   29.40    1.70
   0   3  -2   29.40    1.80
   0   3  -2   31.00    1.80
   0   3  -2   31.90    1.60
   0  -3   2   31.30    1.70
   0  -3   2   34.80    1.90
   0  -3   2   32.20    1.70
   0  -3   2   31.90    1.70
  -1   3  -2   12.60    1.50
  -1   3  -2   12.80    1.30
  -1   3  -2   12.40    1.50
  -1   3  -2   12.40    1.40
   1  -3   2   12.70    1.40
   1  -3   2   16.30    1.70
   1  -3   2   13.40    1.50
   1  -3   2   13.80    1.40
  -2   3  -2  179.98    4.60
  -2   3  -2  182.68    5.60
  -2   3  -2  180.58    5.50
   2  -3   2  179.88    5.20
   2  -3   2  183.58    5.50
   2  -3   2  180.18    5.40
   2  -3   2  177.68    4.60
   2  -3   2  184.08    5.60
  -3   3  -2  278.77    6.40
  -3   3  -2  280.17    7.90
  -3   3  -2  283.47    7.90
   3  -3   2  267.47    7.60
   3  -3   2  277.37    7.50
   3  -3   2  273.67    6.30
   3  -3   2  269.37    7.80
   3  -3   2  282.67    8.00
  -4   3  -2  128.99    5.20
  -4   3  -2  133.59    3.50
  -4   3  -2  141.39    5.40
   4  -3   2  137.39    5.60
   4  -3   2  127.29    5.00
   4  -3   2  130.29    3.30
   4  -3   2  130.79    5.50
   4  -3   2  139.29    5.10
  -5   3  -2   32.20    3.50
   5  -3   2   25.40    3.60
   5  -3   2   23.60    4.10
   5  -3   2   28.20    3.50
  -6   3  -2   21.60    4.10
   6  -3   2   16.10    3.70
   6  -3   2   13.00    2.50
  -7   3  -2    9.60    2.90
   7  -3   2    3.90    2.70
   7  -3   2    7.80    2.70
   9   2  -2    5.90    2.20
   9   2  -2    8.40    2.40
   9   2  -2   13.40    3.60
   8   2  -2   92.89    4.20
   8   2  -2   86.29    3.20
   8   2  -2   91.49    4.60
   8   2  -2   93.29    5.10
  -8  -2   2   88.89    3.20
  -8  -2   2   90.29    4.70
   7   2  -2   34.80    3.50
   7   2  -2   36.40    2.90
   7   2  -2   37.60    3.40
   7   2  -2   39.50    2.30
   7   2  -2   31.70    2.60
  -7  -2   2   33.50    2.90
  -7  -2   2   35.30    2.30
  -7  -2   2   37.40    3.50
   6   2  -2    8.40    1.80
   6   2  -2   15.00    2.80
   6   2  -2   14.20    2.30
   6   2  -2   12.60    2.10
   6   2  -2   13.30    1.60
  -6  -2   2   12.80    2.10
  -6  -2   2   12.20    2.50
  -6  -2   2   11.40    1.80
   5   2  -2   49.99    3.10
   5   2  -2   48.90    2.20
   5   2  -2   48.70    2.60
   5   2  -2   47.40    2.50
   5   2  -2   47.60    2.10
  -5  -2   2   52.19    2.90
  -5  -2   2   53.49    2.40
  -5  -2   2   48.10    2.40
   4   2  -2  396.46    9.20
   4   2  -2  390.46    8.50
   4   2  -2  388.76    9.00
   4   2  -2  396.86    9.50
   4   2  -2  382.76    8.80
  -4  -2   2  398.06    8.60
  -4  -2   2  399.26    8.90
  -4  -2   2  393.36    9.40
   3   2  -2  675.23   14.40
   3   2  -2  684.63   14.80
   3   2  -2  679.53   14.40
  -3  -2   2  702.83   14.50
  -3  -2   2  654.73   14.20
  -3  -2   2  699.53   14.40
  -3  -2   2  696.53   14.80
   2   2  -2    4.00    1.00
   2   2  -2    3.90    0.90
   2   2  -2    4.40    1.20
  -2  -2   2    2.20    0.60
  -2  -2   2    3.00    0.70
  -2  -2   2    3.80    1.30
  -2  -2   2    3.70    1.10
   1   2  -2  682.23   14.30
   1   2  -2  694.93   14.20
   1   2  -2  672.53   14.30
   1   2  -2  691.73   14.20
  -1  -2   2  685.13   14.20
  -1  -2   2  677.73   14.30
  -1  -2   2  675.63   14.30
  -1  -2   2  685.83   14.20
   0   2  -2  128.19    3.50
   0   2  -2  126.59    3.30
   0   2  -2  125.29    3.50
   0   2  -2  122.69    3.50
   0  -2   2  127.59    3.60
   0  -2   2  125.19    3.40
   0  -2   2  122.09    3.40
   0  -2   2  124.49    3.40
  -1   2  -2  119.79    3.10
  -1   2  -2  114.19    3.50
  -1   2  -2  115.39    3.60
   1  -2   2  116.59    3.50
   1  -2   2  115.79    3.60
   1  -2   2  120.19    3.60
   1  -2   2  118.69    3.10
  -2   2  -2  707.53   19.10
  -2   2  -2  807.52   16.20
  -2   2  -2  814.62   17.30
   2  -2   2  811.32   16.20
   2  -2   2  831.42   17.40
   2  -2   2  829.12   17.00
   2  -2   2  703.73   19.00
   2  -2   2  824.72   17.30
  -3   2  -2   38.40    2.40
  -3   2  -2   39.10    2.30
   3  -2   2   35.00    2.20
   3  -2   2   34.60    1.50
   3  -2   2   36.50    2.50
   3  -2   2   39.50    2.60
   3  -2   2   40.50    2.30
  -4   2  -2   33.10    2.70
  -4   2  -2   35.10    2.70
   4  -2   2   31.60    2.90
   4  -2   2   32.10    2.40
   4  -2   2   32.10    3.10
   4  -2   2   35.20    2.60
  -5   2  -2   89.99    4.60
   5  -2   2   89.09    4.10
   5  -2   2   95.19    4.40
   5  -2   2   90.79    4.90
   5  -2   2   92.39    4.90
  -6   2  -2    2.60    3.20
  -6   2  -2    2.80    1.80
   6  -2   2    6.50    1.80
   6  -2   2    2.50    1.80
  -7   2  -2    0.30    2.10
   7  -2   2   -1.50    2.10
   7  -2   2    0.10    2.00
  -8   2  -2    8.40    3.50
   8  -2   2    6.50    3.00
   8  -2   2    5.20    2.80
   9   1  -2   -1.70    2.00
   9   1  -2    4.70    2.20
   9   1  -2   -0.60    2.10
   8   1  -2   10.50    2.20
   8   1  -2   17.80    3.60
   8   1  -2    9.30    2.10
  -8  -1   2    7.80    2.20
   7   1  -2   69.89    2.30
   7   1  -2   68.89    3.80
   7   1  -2   73.29    4.20
   7   1  -2   71.79    4.30
  -7  -1   2   68.59    2.30
  -7  -1   2   65.69    3.90
   6   1  -2  127.59    5.00
   6   1  -2  126.19    4.70
   6   1  -2  122.29    4.40
   6   1  -2  119.49    3.30
  -6  -1   2  124.19    4.50
  -6  -1   2  123.79    4.70
  -6  -1   2  119.59    3.50
   5   1  -2  160.88    4.00
   5   1  -2  152.78    4.60
   5   1  -2  155.28    5.10
   5   1  -2  158.48    4.90
  -5  -1   2  160.88    4.10
  -5  -1   2  160.98    5.10
  -5  -1   2  156.18    4.70
   4   1  -2  597.64   12.90
   4   1  -2  605.74   13.50
   4   1  -2  606.64   12.60
   4   1  -2  600.34   13.20
  -4  -1   2  601.94   13.00
  -4  -1   2  602.44   13.50
  -4  -1   2  604.04   12.60
   3   1  -2   69.09    2.20
   3   1  -2   73.19    2.70
   3   1  -2   68.49    2.20
   3   1  -2   67.09    2.30
   3   1  -2   68.89    2.10
  -3  -1   2   69.79    2.60
  -3  -1   2   68.39    2.10
  -3  -1   2   69.29    2.30
   2   1  -2  210.98    4.80
   2   1  -2  203.38    5.10
   2   1  -2  204.58    4.80
  -2  -1   2  211.38    5.40
  -2  -1   2  211.18    5.20
  -2  -1   2  208.88    4.80
  -2  -1   2  211.68    4.90
   1   1  -2  564.94   11.60
   1   1  -2  569.94   11.70
   1   1  -2  541.35   11.70
   1   1  -2  569.74   11.50
  -1  -1   2  569.14   11.70
  -1  -1   2  571.74   11.60
  -1  -1   2  542.65   11.70
  -1  -1   2  564.34   11.40
   0   1  -2    3.80    0.90
   0   1  -2    3.20    0.80
   0   1  -2    2.20    0.60
   0  -1   2    2.20    0.50
   0  -1   2    2.60    0.60
   0  -1   2    3.20    0.80
   0  -1   2    3.50    0.70
  -1   1  -2 2687.33   53.89
  -1   1  -2 2772.12   53.89
  -1   1  -2 2583.74   54.59
  -1   1  -2 2726.23   53.29
   1  -1   2 2657.93   53.69
  -2   1  -2 3972.70   78.09
  -2   1  -2 3929.61   77.69
  -2   1  -2 3943.21   78.39
   2  -1   2 3857.61   79.29
   2  -1   2 3991.40   77.69
   2  -1   2 3791.92   80.19
   2  -1   2 3947.10   77.89
   2  -1   2 3907.21   77.99
  -3   1  -2    5.70    1.30
  -3   1  -2    5.40    1.20
   3  -1   2    7.90    1.50
   3  -1   2    8.20    1.30
   3  -1   2    3.80    0.90
   3  -1   2    4.60    1.50
  -4   1  -2  192.68    5.80
  -4   1  -2  191.18    5.80
   4  -1   2  184.08    5.70
   4  -1   2  191.68    5.70
   4  -1   2  198.18    5.90
  -5   1  -2   -1.60    1.00
  -5   1  -2   -0.10    1.10
   5  -1   2   -0.60    1.10
   5  -1   2    1.30    1.30
   5  -1   2   -1.60    0.90
  -6   1  -2  162.68    6.10
  -6   1  -2  153.28    6.10
   6  -1   2  153.98    5.80
   6  -1   2  164.78    6.10
   6  -1   2  160.58    6.20
  -7   1  -2   14.60    3.70
  -7   1  -2   18.60    5.10
   7  -1   2   13.60    4.00
   7  -1   2   16.40    3.40
  -8   1  -2   11.60    3.10
   8  -1   2    8.20    2.50
   8  -1   2    8.60    2.70
   9   0  -2    7.40    2.80
   9   0  -2   -0.40    2.40
   8   0  -2   -1.30    1.80
   8   0  -2    0.90    1.80
  -8   0   2    0.80    2.00
  -8   0   2    0.70    2.30
   7   0  -2   35.20    3.50
   7   0  -2   32.60    3.70
   7   0  -2   32.00    3.50
  -7   0   2   32.40    4.10
  -7   0   2   31.80    3.70
   6   0  -2  138.79    5.40
   6   0  -2  137.49    5.10
   6   0  -2  130.59    5.10
  -6   0   2  135.39    5.10
  -6   0   2  141.39    5.10
  -6   0   2  132.69    5.10
   5   0  -2    6.00    2.10
   5   0  -2    4.50    1.20
   5   0  -2    4.40    1.30
  -5   0   2    3.70    1.10
  -5   0   2    4.80    1.10
  -5   0   2    7.30    1.60
  -5   0   2    7.00    1.20
   4   0  -2  136.39    4.20
   4   0  -2  146.59    4.00
   4   0  -2  144.79    4.50
   4   0  -2  139.99    4.30
  -4   0   2  143.69    3.40
  -4   0   2  139.29    4.30
  -4   0   2  137.29    4.20
  -4   0   2  143.09    4.40
   3   0  -2 2116.39   43.90
   3   0  -2 2242.98   44.20
   3   0  -2 2203.98   44.20
   3   0  -2 2190.88   44.30
  -3   0   2 2266.57   44.30
  -3   0   2 2269.37   44.30
  -3   0   2 2117.59   43.80
  -3   0   2 2243.68   44.20
   2   0  -2 1913.91   38.70
   2   0  -2 1926.51   38.70
   2   0  -2 1924.21   38.40
   2   0  -2 2090.49   39.40
  -2   0   2 1912.81   38.70
  -2   0   2 1963.50   38.70
  -2   0   2 1849.61   39.50
   1   0  -2  120.59    2.50
   1   0  -2  111.29    2.90
   1   0  -2  109.49    3.10
   1   0  -2  117.99    2.70
  -1   0   2  114.29    2.80
  -1   0   2  119.79    2.70
  -1   0   2  119.09    2.50
  -1   0   2  116.79    2.90
  -1   0  -2  362.76    8.00
  -1   0  -2  369.56    7.90
  -1   0  -2  369.86    7.50
   1   0   2  378.26    8.30
   1   0   2  365.66    7.50
   1   0   2  355.76    7.90
  -2   0  -2   62.49    2.20
  -2   0  -2   66.89    2.20
  -2   0  -2   64.59    2.30
   2   0   2   63.59    1.60
   2   0   2   63.49    2.20
   2   0   2   67.09    1.60
   2   0   2   66.79    2.20
  -3   0  -2  163.88    4.50
  -3   0  -2  157.38    4.30
  -3   0  -2  155.78    4.50
   3   0   2  160.28    4.50
   3   0   2  159.38    4.50
   3   0   2  160.88    4.40
  -4   0  -2  319.67    8.20
  -4   0  -2  316.37    8.10
  -4   0  -2  331.17    8.00
   4   0   2  322.67    8.10
   4   0   2  329.67    8.00
   4   0   2  323.67    8.20
  -5   0  -2   23.50    2.30
  -5   0  -2   25.20    2.30
  -5   0  -2   24.90    2.30
   5   0   2   29.70    2.70
   5   0   2   26.20    2.40
   5   0   2   25.60    2.20
  -6   0  -2  257.37    7.70
  -6   0  -2  256.17    7.80
  -6   0  -2  272.07    8.20
   6   0   2  267.17    7.80
   6   0   2  237.58    8.80
   6   0   2  262.47    7.90
  -7   0  -2   54.89    4.30
  -7   0  -2   65.29    4.30
   7   0   2   59.29    4.60
   7   0   2   54.49    4.00
  -8   0  -2    7.50    2.50
  -8   0  -2    5.60    3.10
   8   0   2    8.20    2.40
  -9   0  -2    3.80    2.90
   9   0   2    5.20    3.10
   8  -1  -2   16.60    4.80
   8  -1  -2   13.20    4.10
  -8   1   2   26.00    4.70
   7  -1  -2   50.29    4.30
   7  -1  -2   40.80    4.00
  -7   1   2   50.39    4.20
  -7   1   2   42.30    4.40
   6  -1  -2  244.58    7.60
   6  -1  -2  259.47    7.90
   6  -1  -2  261.77    7.90
  -6   1   2  252.37    7.80
  -6   1   2  275.07    7.90
  -6   1   2  245.08    7.90
   5  -1  -2    1.70    1.30
   5  -1  -2    1.00    1.20
   5  -1  -2    3.10    1.30
  -5   1   2    2.00    1.10
  -5   1   2    0.40    1.10
  -5   1   2    1.60    1.20
   4  -1  -2  194.58    5.40
   4  -1  -2  179.98    5.30
   4  -1  -2  186.68    5.60
  -4   1   2  187.58    5.50
  -4   1   2  188.48    5.30
  -4   1   2  183.18    4.20
  -4   1   2  192.58    5.40
   3  -1  -2  241.98    6.10
   3  -1  -2  245.08    6.30
   3  -1  -2  234.08    6.00
  -3   1   2  244.98    6.00
  -3   1   2  246.88    5.30
  -3   1   2  241.08    6.10
  -3   1   2  251.87    6.30
   2  -1  -2  671.43   14.10
   2  -1  -2  674.83   14.40
   2  -1  -2  667.23   14.10
  -2   1   2  683.33   13.70
  -2   1   2  673.73   14.10
  -2   1   2  675.63   14.00
  -2   1   2  677.23   14.40
   1  -1  -2   -1.10    0.40
   1  -1  -2   -0.30    0.30
   1  -1  -2   -1.20    0.60
  -1   1   2   -0.30    0.70
  -1   1   2    0.20    0.40
  -1   1   2   -0.20    0.30
  -1   1   2   -0.80    0.40
   0  -1  -2 1638.54   32.00
   0  -1  -2 1584.44   32.50
   0  -1  -2 1662.33   32.50
   0   1   2 1588.14   31.90
   0   1   2 1568.84   32.30
   0   1   2 1651.33   32.40
   0   1   2 1559.74   32.90
  -1  -1  -2   18.00    0.80
  -1  -1  -2   19.00    0.90
  -1  -1  -2   17.60    0.80
  -1  -1  -2   19.80    0.80
   1   1   2   19.20    0.80
   1   1   2   18.00    0.80
   1   1   2   18.70    0.80
  -2  -1  -2 1692.33   33.60
  -2  -1  -2 1646.64   33.20
  -2  -1  -2 1692.63   33.70
  -2  -1  -2 1679.33   33.50
   2   1   2 1629.54   34.30
   2   1   2 1704.53   33.60
   2   1   2 1690.23   33.40
   2   1   2 1686.23   33.70
  -3  -1  -2  750.82   15.60
  -3  -1  -2  747.03   15.30
  -3  -1  -2  762.72   16.00
  -3  -1  -2  759.92   16.20
   3   1   2  767.62   15.60
   3   1   2  769.62   16.20
   3   1   2  746.83   16.00
   3   1   2  741.13   15.20
  -4  -1  -2  715.73   14.50
  -4  -1  -2  720.43   15.90
  -4  -1  -2  714.23   15.70
  -4  -1  -2  718.93   15.30
   4   1   2  713.93   15.90
   4   1   2  728.53   15.30
   4   1   2  708.83   14.50
   4   1   2  723.43   15.70
  -5  -1  -2  113.99    4.20
  -5  -1  -2  120.69    4.40
  -5  -1  -2  117.09    3.90
   5   1   2  115.59    4.30
   5   1   2  121.39    4.10
   5   1   2  115.99    4.30
  -6  -1  -2  104.39    4.10
  -6  -1  -2  101.49    4.50
  -6  -1  -2  105.39    4.50
   6   1   2  108.79    4.30
   6   1   2  102.69    4.50
   6   1   2  105.79    4.40
  -7  -1  -2   -0.60    1.60
  -7  -1  -2    0.00    1.30
   7   1   2   -0.40    1.50
  -8  -1  -2    6.40    2.10
  -8  -1  -2    7.60    2.40
   8   1   2    3.80    1.80
   8   1   2    4.60    2.00
   9   1   2   -3.50    1.90
   9   1   2    2.30    2.60
   8  -2  -2   11.30    3.00
  -8   2   2   16.40    5.20
   7  -2  -2   -1.10    1.80
   7  -2  -2    1.60    1.80
  -7   2   2    4.70    2.20
   6  -2  -2   47.70    3.70
   6  -2  -2   48.90    3.80
   6  -2  -2   50.39    4.10
  -6   2   2   42.20    4.00
  -6   2   2   51.59    3.70
  -6   2   2   48.50    4.00
   5  -2  -2  210.08    6.60
   5  -2  -2  219.58    6.70
   5  -2  -2  219.98    7.10
  -5   2   2  209.08    6.50
  -5   2   2  201.38    6.90
  -5   2   2  224.88    6.90
   4  -2  -2    3.10    1.30
   4  -2  -2    3.80    1.10
   4  -2  -2    3.40    1.10
  -4   2   2    4.30    1.00
  -4   2   2    3.90    0.90
  -4   2   2    3.70    1.20
  -4   2   2    3.90    1.10
  -4   2   2    3.10    1.10
   3  -2  -2   47.00    2.80
   3  -2  -2   43.20    2.60
   3  -2  -2   45.70    2.30
  -3   2   2   45.50    2.30
  -3   2   2   44.40    2.40
  -3   2   2   46.70    2.20
  -3   2   2   45.00    1.60
   2  -2  -2 1592.14   32.50
   2  -2  -2 1583.14   31.90
   2  -2  -2 1600.64   31.60
   2  -2  -2 1563.24   32.20
  -2   2   2 1579.84   31.90
  -2   2   2 1564.14   31.60
  -2   2   2 1601.34   32.50
  -2   2   2 1598.24   32.30
   1  -2  -2  712.23   14.60
   1  -2  -2  699.33   14.80
   1  -2  -2  712.53   15.10
  -1   2   2  722.93   14.90
  -1   2   2  706.83   14.50
  -1   2   2  703.23   15.10
  -1   2   2  716.03   14.40
   0  -2  -2 1015.60   20.50
   0  -2  -2 1000.30   20.30
   0  -2  -2  992.40   20.40
   0   2   2 1002.30   20.50
   0   2   2  999.10   20.30
   0   2   2 1025.70   20.50
  -1  -2  -2  227.88    5.10
  -1  -2  -2  222.88    5.20
  -1  -2  -2  231.08    5.40
  -1  -2  -2  238.58    4.90
   1   2   2  230.78    5.40
   1   2   2  233.48    5.10
   1   2   2  238.58    4.90
  -2  -2  -2  275.07    6.30
  -2  -2  -2  284.97    5.90
  -2  -2  -2  282.57    6.50
  -2  -2  -2  285.27    6.30
   2   2   2  287.97    6.30
   2   2   2  282.07    5.90
   2   2   2  280.87    6.30
  -3  -2  -2  124.09    3.20
  -3  -2  -2  126.89    3.60
   3   2   2  125.89    3.60
   3   2   2  124.69    3.20
   3   2   2  128.79    3.70
   3   2   2  123.59    3.60
   3   2   2  129.59    3.00
  -4  -2  -2  459.35    9.70
  -4  -2  -2  431.16   11.10
  -4  -2  -2  436.26    9.60
   4   2   2  448.56    9.70
   4   2   2  450.85   10.60
   4   2   2  460.85   10.50
   4   2   2  476.45    9.70
   4   2   2  457.35   10.40
  -5  -2  -2  129.09    3.50
  -5  -2  -2  134.99    4.50
  -5  -2  -2  134.99    3.80
   5   2   2  135.89    4.60
   5   2   2  131.89    4.40
   5   2   2  133.29    3.60
   5   2   2  144.69    4.80
   5   2   2  137.69    3.90
  -6  -2  -2  181.88    4.40
  -6  -2  -2  179.48    6.00
  -6  -2  -2  177.78    5.10
   6   2   2  186.28    6.10
   6   2   2  188.28    5.90
   6   2   2  185.48    5.30
   6   2   2  179.28    4.50
   6   2   2  183.38    6.00
  -7  -2  -2    3.70    1.40
  -7  -2  -2    7.20    2.20
   7   2   2    5.70    1.50
   7   2   2   12.20    2.90
   7   2   2    7.40    2.20
   7   2   2    8.00    2.60
  -8  -2  -2   52.69    3.90
   8   2   2   56.39    3.90
   8   2   2   48.90    4.10
   8   2   2   48.80    4.00
   9   2   2   44.10    4.60
   9   2   2   48.00    4.50
   9   2   2   31.90    4.20
   7  -3  -2    4.10    2.10
   7  -3  -2   -1.50    2.10
  -7   3   2    0.10    2.50
   6  -3  -2   -0.40    1.70
   6  -3  -2    1.30    1.70
  -6   3   2    1.40    2.00
   5  -3  -2   48.20    3.60
   5  -3  -2   44.00    3.90
   5  -3  -2   44.20    3.50
  -5   3   2   36.80    3.50
  -5   3   2   41.30    4.30
   4  -3  -2   42.00    2.90
   4  -3  -2   43.80    2.90
   4  -3  -2   41.00    3.50
  -4   3   2   46.70    3.20
  -4   3   2   35.40    2.80
  -4   3   2   43.70    2.00
   3  -3  -2    2.40    1.00
   3  -3  -2    2.00    0.90
   3  -3  -2    1.80    1.20
   3  -3  -2    1.10    0.60
  -3   3   2   -0.30    0.80
  -3   3   2    2.60    1.10
  -3   3   2    0.70    0.70
   2  -3  -2  693.03   14.50
   2  -3  -2  699.63   15.50
   2  -3  -2  695.23   14.90
   2  -3  -2  699.93   14.70
   2  -3  -2  681.63   15.10
  -2   3   2  695.63   15.30
  -2   3   2  682.13   15.40
  -2   3   2  682.63   14.40
   1  -3  -2  193.78    5.30
   1  -3  -2  192.28    4.50
   1  -3  -2  191.38    4.60
   1  -3  -2  190.98    5.00
   1  -3  -2  188.18    4.70
  -1   3   2  190.18    5.10
  -1   3   2  193.18    5.30
  -1   3   2  187.28    4.70
   0  -3  -2  157.68    4.10
   0  -3  -2  158.68    4.30
   0  -3  -2  166.88    4.50
   0  -3  -2  162.58    3.60
   0   3   2  161.08    4.40
   0   3   2  160.98    4.10
   0   3   2  166.08    4.40
  -1  -3  -2  721.53   14.90
  -1  -3  -2  739.73   14.50
  -1  -3  -2  722.93   15.20
   1   3   2  703.23   15.00
   1   3   2  706.63   14.40
   1   3   2  705.43   15.20
   1   3   2  728.03   14.90
  -2  -3  -2   51.39    2.00
  -2  -3  -2   57.39    1.90
  -2  -3  -2   56.79    2.20
  -2  -3  -2   54.89    1.60
   2   3   2   57.09    1.70
   2   3   2   54.79    2.00
   2   3   2   59.49    2.00
   2   3   2   55.69    2.20
  -3  -3  -2  438.96   10.00
  -3  -3  -2  445.36    9.70
  -3  -3  -2  425.96    9.70
   3   3   2  437.76   10.00
   3   3   2  447.76    9.70
   3   3   2  441.26    9.70
  -4  -3  -2   53.39    2.70
  -4  -3  -2   52.79    2.20
   4   3   2   55.99    2.50
   4   3   2   62.39    2.70
   4   3   2   56.79    2.30
  -5  -3  -2  244.28    6.00
  -5  -3  -2  247.78    6.70
   5   3   2  229.78    6.70
   5   3   2  235.98    6.60
   5   3   2  248.58    6.70
   5   3   2  232.28    5.40
   5   3   2  246.78    6.00
  -6  -3  -2    0.60    0.80
  -6  -3  -2    0.20    1.10
  -6  -3  -2    1.70    0.70
   6   3   2    1.10    1.10
   6   3   2    1.00    1.10
   6   3   2    0.80    0.80
   6   3   2    0.50    1.20
   6   3   2    1.50    1.00
  -7  -3  -2   14.50    2.60
  -7  -3  -2   12.00    1.70
  -7  -3  -2   14.20    1.90
   7   3   2   15.10    2.90
   7   3   2   11.40    2.90
   7   3   2   10.90    2.10
   7   3   2   10.80    2.00
   7   3   2   12.70    2.50
  -8  -3  -2   14.10    2.60
  -8  -3  -2   15.20    1.90
   8   3   2   12.70    2.50
   8   3   2   13.80    2.10
   8   3   2    9.40    3.00
   8   3   2   15.70    3.10
   9   3   2    6.50    1.80
   9   3   2    2.30    2.00
   9   3   2    6.60    2.30
   7  -4  -2   15.00    5.10
   7  -4  -2   -0.70    2.70
  -7   4   2    2.40    3.10
   6  -4  -2    2.40    1.90
   6  -4  -2   -2.00    2.00
  -6   4   2   -3.50    2.20
   5  -4  -2   11.60    3.30
   5  -4  -2    7.50    2.40
   5  -4  -2   10.10    3.20
  -5   4   2    8.50    1.60
  -5   4   2    9.20    2.10
  -5   4   2   14.60    3.70
   4  -4  -2   94.39    4.70
   4  -4  -2   94.69    3.10
   4  -4  -2   96.79    5.00
   4  -4  -2   95.39    4.50
   4  -4  -2   99.19    4.30
  -4   4   2   91.49    4.80
  -4   4   2  101.69    3.50
  -4   4   2   85.99    4.40
   3  -4  -2  142.79    4.60
   3  -4  -2  143.29    4.90
   3  -4  -2  141.59    4.10
   3  -4  -2  147.99    5.70
   3  -4  -2  140.99    5.00
  -3   4   2  138.49    5.30
  -3   4   2  145.49    5.30
  -3   4   2  142.49    4.20
   2  -4  -2   23.30    2.00
   2  -4  -2   25.90    2.80
   2  -4  -2   26.30    1.90
   2  -4  -2   23.60    1.70
   2  -4  -2   23.60    2.00
  -2   4   2   22.80    1.90
  -2   4   2   22.40    2.20
  -2   4   2   23.10    2.30
   1  -4  -2   65.19    2.80
   1  -4  -2   60.59    3.10
   1  -4  -2   64.39    2.20
   1  -4  -2   62.09    2.40
   1  -4  -2   64.29    2.40
  -1   4   2   63.09    2.80
  -1   4   2   63.69    2.50
  -1   4   2   64.39    2.90
   0  -4  -2   25.60    2.20
   0  -4  -2   28.50    1.70
   0  -4  -2   28.10    1.90
   0  -4  -2   25.70    1.30
   0   4   2   27.40    2.00
   0   4   2   26.40    1.60
   0   4   2   27.00    1.40
   0   4   2   27.10    1.70
  -1  -4  -2   29.60    1.90
  -1  -4  -2   30.00    1.90
  -1  -4  -2   28.10    1.60
   1   4   2   30.50    2.00
   1   4   2   25.80    1.70
   1   4   2   30.00    1.70
  -2  -4  -2 1366.56   26.70
  -2  -4  -2 1370.76   26.70
  -2  -4  -2 1297.07   27.20
   2   4   2 1351.36   26.70
   2   4   2 1353.26   27.50
   2   4   2 1382.76   26.70
   2   4   2 1134.49   28.60
  -3  -4  -2  197.78    5.40
  -3  -4  -2  194.78    4.30
  -3  -4  -2  202.28    5.10
  -3  -4  -2  193.18    5.30
   3   4   2  193.48    5.30
   3   4   2  202.88    5.10
   3   4   2  203.58    5.60
   3   4   2  201.48    4.30
  -4  -4  -2  261.27    6.80
  -4  -4  -2  255.57    6.80
  -4  -4  -2  258.07    6.60
   4   4   2  267.77    6.80
   4   4   2  260.37    6.90
   4   4   2  255.57    6.50
  -5  -4  -2   86.69    3.70
  -5  -4  -2   83.19    3.30
   5   4   2   91.79    3.80
   5   4   2   88.09    3.40
   5   4   2   88.29    3.60
  -6  -4  -2   96.59    3.50
  -6  -4  -2   91.89    4.30
   6   4   2   92.69    3.70
   6   4   2   97.49    4.50
   6   4   2   95.99    4.10
   6   4   2   92.39    4.10
  -7  -4  -2   24.00    2.30
  -7  -4  -2   19.10    3.30
   7   4   2   26.80    3.30
   7   4   2   20.00    3.20
   7   4   2   25.80    2.90
   7   4   2   25.10    2.60
  -8  -4  -2  103.19    4.00
   8   4   2  114.29    5.20
   8   4   2  104.69    5.40
   8   4   2  100.89    4.30
  -9  -4  -2    1.50    1.40
   9   4   2    0.90    2.20
   9   4   2   -3.30    2.00
  10   4   2   -2.10    2.90
   6  -5  -2    3.50    2.80
   6  -5  -2   14.80    4.40
  -6   5   2    6.10    3.20
   5  -5  -2    1.50    2.80
   5  -5  -2   10.30    3.40
   5  -5  -2    6.00    2.20
  -5   5   2   13.00    4.40
   4  -5  -2   42.70    2.60
   4  -5  -2   38.70    3.80
   4  -5  -2   39.40    4.20
   4  -5  -2   41.50    3.60
  -4   5   2   45.40    4.30
  -4   5   2   40.30    3.20
   3  -5  -2   31.30    3.50
   3  -5  -2   32.50    2.20
   3  -5  -2   35.50    3.10
   3  -5  -2   31.70    2.80
   3  -5  -2   29.70    3.10
  -3   5   2   23.10    2.90
  -3   5   2   34.40    5.80
  -3   5   2   31.60    2.90
   2  -5  -2    0.40    1.10
   2  -5  -2    0.20    0.90
   2  -5  -2    0.80    1.20
   2  -5  -2    0.00    0.90
   2  -5  -2   -0.70    1.30
  -2   5   2    1.10    1.30
  -2   5   2    0.90    1.20
   1  -5  -2  475.85   11.80
   1  -5  -2  459.65   10.50
   1  -5  -2  466.25   10.80
   1  -5  -2  470.75   10.40
   1  -5  -2  462.55   11.40
  -1   5   2  469.35   10.90
  -1   5   2  483.85   11.70
  -1   5   2  461.85   11.50
   0  -5  -2  224.78    6.50
   0  -5  -2  222.08    6.00
   0  -5  -2  212.78    5.30
   0  -5  -2  223.48    6.30
   0   5   2  220.58    6.00
   0   5   2  221.68    6.50
   0   5   2  225.68    5.60
   0   5   2  221.88    6.30
  -1  -5  -2    0.50    0.70
  -1  -5  -2    1.90    1.00
  -1  -5  -2    0.40    0.70
  -1  -5  -2    0.10    0.80
   1   5   2    0.40    0.90
   1   5   2    1.10    0.70
   1   5   2    1.10    0.80
   1   5   2    0.70    0.60
  -2  -5  -2   24.80    2.00
  -2  -5  -2   24.90    2.00
  -2  -5  -2   25.00    1.80
  -2  -5  -2   25.60    1.90
   2   5   2   23.60    1.70
   2   5   2   23.00    1.50
   2   5   2   26.10    2.30
   2   5   2   25.30    1.90
  -3  -5  -2   21.90    1.90
  -3  -5  -2   20.90    1.90
  -3  -5  -2   21.00    1.80
  -3  -5  -2   18.80    1.40
   3   5   2   22.00    1.30
   3   5   2   20.20    2.10
   3   5   2   20.20    1.80
   3   5   2   19.80    1.80
  -4  -5  -2  139.99    4.50
  -4  -5  -2  133.09    4.60
   4   5   2  141.29    4.80
   4   5   2  135.59    4.40
   4   5   2  129.99    4.30
  -5  -5  -2    1.40    0.90
  -5  -5  -2    1.60    1.00
  -5  -5  -2    2.00    1.30
   5   5   2    2.10    1.50
   5   5   2    2.50    1.20
   5   5   2    3.70    1.30
  -6  -5  -2   50.69    3.10
  -6  -5  -2   49.50    3.70
   6   5   2   58.19    3.90
   6   5   2   56.59    3.40
   6   5   2   51.39    3.30
  -7  -5  -2   52.79    4.20
  -7  -5  -2   64.59    3.40
   7   5   2   54.49    3.60
   7   5   2   62.39    3.80
   7   5   2   59.89    4.30
  -8  -5  -2   38.80    3.30
   8   5   2   37.20    3.80
   8   5   2   36.70    4.40
   8   5   2   37.50    3.70
  -9  -5  -2    1.40    1.70
   9   5   2   -1.80    2.20
   9   5   2   -3.40    2.30
   5  -6  -2   20.60    5.30
   5  -6  -2   28.20    4.10
  -5   6   2   24.40    5.90
   4  -6  -2   35.40    5.10
   4  -6  -2   38.30    4.10
   4  -6  -2   37.10    3.00
   4  -6  -2   42.20    4.40
  -4   6   2   40.10    4.30
  -4   6   2   53.59    5.20
   3  -6  -2    3.10    1.40
   3  -6  -2    5.00    1.80
   3  -6  -2    3.10    1.90
   3  -6  -2    3.00    1.50
  -3   6   2    2.70    1.90
  -3   6   2    5.70    2.20
   2  -6  -2   12.60    3.20
   2  -6  -2   20.20    2.70
   2  -6  -2   13.50    2.60
   2  -6  -2   14.40    2.30
   2  -6  -2   15.60    2.30
  -2   6   2   23.50    3.40
  -2   6   2   14.40    3.00
   1  -6  -2   27.40    2.30
   1  -6  -2   28.00    2.20
   1  -6  -2   29.30    3.60
   1  -6  -2   28.20    2.50
   1  -6  -2   25.30    2.50
  -1   6   2   33.70    2.90
  -1   6   2   26.80    3.30
  -1   6   2   29.20    3.10
   0  -6  -2  393.86    9.30
   0  -6  -2  423.36   10.80
   0  -6  -2  419.56   10.20
   0  -6  -2  403.16   10.50
   0   6   2  436.56   10.90
   0   6   2  404.86   10.50
   0   6   2  403.06   10.20
  -1  -6  -2   53.79    2.50
  -1  -6  -2   54.49    3.10
  -1  -6  -2   57.29    3.10
  -1  -6  -2   58.09    3.60
   1   6   2   58.89    3.00
   1   6   2   56.49    3.50
   1   6   2   52.49    3.00
   1   6   2   56.09    2.50
  -2  -6  -2   14.50    2.40
  -2  -6  -2   13.60    2.00
  -2  -6  -2   14.50    2.00
  -2  -6  -2   13.10    2.10
   2   6   2   15.90    2.00
   2   6   2   14.80    1.60
   2   6   2   14.20    1.90
   2   6   2   15.80    2.50
  -3  -6  -2  195.38    5.30
  -3  -6  -2  196.68    5.40
  -3  -6  -2  198.78    6.10
  -3  -6  -2  193.08    5.90
   3   6   2  193.78    5.30
   3   6   2  200.58    6.30
   3   6   2  199.98    5.20
   3   6   2  189.98    5.90
  -4  -6  -2    4.10    1.30
  -4  -6  -2    2.00    1.10
  -4  -6  -2    3.30    1.20
   4   6   2    3.50    1.20
   4   6   2    2.40    0.90
   4   6   2    5.20    1.50
   4   6   2    3.90    1.30
  -5  -6  -2   19.80    2.80
  -5  -6  -2   14.60    2.10
  -5  -6  -2   16.30    2.60
   5   6   2   19.30    2.90
   5   6   2   16.20    2.60
   5   6   2   15.40    2.50
  -6  -6  -2   48.50    3.30
  -6  -6  -2   50.69    3.80
  -6  -6  -2   46.50    2.90
   6   6   2   42.50    3.50
   6   6   2   50.69    3.90
   6   6   2   54.29    3.60
  -7  -6  -2   -0.10    2.00
  -7  -6  -2   -0.30    1.40
   7   6   2    0.70    1.40
   7   6   2    2.00    1.90
   7   6   2   -2.30    1.70
   8   6   2    1.30    2.10
   8   6   2    2.20    2.30
   8   6   2    0.90    1.80
  -9  -6  -2    7.10    2.30
   9   6   2    7.00    3.70
   9   6   2    3.30    2.70
   9   6   2    4.60    2.50
   4  -7  -2    0.00    2.40
   4  -7  -2   -1.20    1.90
  -4   7   2    0.10    3.30
   3  -7  -2   -0.10    2.40
   3  -7  -2   -1.80    1.80
   3  -7  -2    1.70    1.70
   3  -7  -2    0.10    1.80
  -3   7   2    5.70    2.80
  -3   7   2   -2.50    2.50
   2  -7  -2    2.50    1.50
   2  -7  -2    1.40    1.50
   2  -7  -2    3.00    2.00
   2  -7  -2    0.40    1.70
  -2   7   2    0.10    2.10
  -2   7   2    5.80    2.30
   1  -7  -2   81.89    3.60
   1  -7  -2   85.19    5.00
   1  -7  -2   83.09    3.80
   1  -7  -2   83.79    4.10
  -1   7   2  102.19    5.30
  -1   7   2   82.79    4.70
   0  -7  -2   54.59    4.20
   0  -7  -2   59.19    3.50
   0  -7  -2   54.69    2.70
   0  -7  -2   50.89    2.90
   0  -7  -2   46.80    3.30
   0   7   2   55.59    4.10
   0   7   2   54.29    3.90
   0   7   2   52.59    3.80
  -1  -7  -2    0.90    1.40
  -1  -7  -2    1.90    1.60
  -1  -7  -2    1.40    1.30
  -1  -7  -2    4.00    1.40
   1   7   2    3.70    1.60
   1   7   2    2.80    1.10
   1   7   2    3.70    1.60
   1   7   2    2.90    1.50
  -2  -7  -2    5.20    1.50
  -2  -7  -2    6.80    1.60
  -2  -7  -2    8.40    2.50
  -2  -7  -2    6.30    1.70
   2   7   2    4.60    1.10
   2   7   2    3.90    1.30
   2   7   2    5.30    1.40
  -3  -7  -2    2.80    1.40
  -3  -7  -2    2.40    1.40
  -3  -7  -2    0.70    1.20
   3   7   2    1.70    1.10
   3   7   2    1.50    1.30
   3   7   2    1.60    1.10
  -4  -7  -2  104.59    4.60
  -4  -7  -2  100.49    4.30
  -4  -7  -2   99.39    4.30
  -4  -7  -2   96.69    3.40
   4   7   2   98.39    3.20
   4   7   2   99.99    4.00
   4   7   2  101.19    4.20
   4   7   2   96.19    4.60
  -5  -7  -2   86.29    4.30
  -5  -7  -2   76.39    3.90
  -5  -7  -2   83.49    4.20
   5   7   2   85.19    4.10
   5   7   2   81.49    4.30
   5   7   2   74.79    3.90
  -6  -7  -2  102.09    4.90
  -6  -7  -2   92.39    4.90
   6   7   2  101.39    5.20
   6   7   2   99.89    4.90
   6   7   2   95.09    4.80
  -7  -7  -2   13.20    4.40
  -7  -7  -2   20.30    3.50
   7   7   2   18.50    3.30
   7   7   2   24.30    4.20
  -8  -7  -2    1.40    2.00
   8   7   2    0.10    2.10
   8   7   2    1.30    2.30
  -9  -7  -2   -1.80    2.40
   9   7   2    2.10    2.80
   9   7   2   -2.20    2.40
   3  -8  -2    2.00    2.30
  -3   8   2   21.60    6.70
   2  -8  -2   34.70    4.10
   2  -8  -2   31.50    4.90
   2  -8  -2   31.80    4.00
  -2   8   2   43.10    5.60
   1  -8  -2    1.80    1.90
   1  -8  -2    1.70    1.60
   1  -8  -2    2.00    1.80
   1  -8  -2    3.00    2.20
  -1   8   2   13.10    4.20
   0  -8  -2   -1.50    1.80
   0  -8  -2    2.20    1.70
   0  -8  -2    1.10    1.60
   0  -8  -2    0.30    1.20
   0   8   2    3.20    1.90
  -1  -8  -2   43.80    5.50
  -1  -8  -2   46.20    3.80
   1   8   2   39.80    4.10
   1   8   2   42.60    3.30
  -2  -8  -2   14.00    3.50
  -2  -8  -2   12.30    3.40
   2   8   2   12.40    2.60
   2   8   2   10.20    3.10
   2   8   2   13.20    3.00
  -3  -8  -2    6.00    1.90
  -3  -8  -2    5.70    1.70
  -3  -8  -2    9.40    2.80
   3   8   2    8.50    2.60
   3   8   2    5.60    1.50
   3   8   2   11.60    3.10
  -4  -8  -2  118.59    4.40
  -4  -8  -2  121.79    5.20
  -4  -8  -2  133.79    5.50
   4   8   2  126.69    4.80
   4   8   2  132.79    5.50
   4   8   2  117.59    4.20
  -5  -8  -2    2.60    1.60
  -5  -8  -2    1.50    2.00
   5   8   2    1.30    1.70
   5   8   2    2.60    1.60
  -6  -8  -2    0.20    2.30
  -6  -8  -2   -0.30    1.70
   6   8   2   -1.20    1.70
   6   8   2    0.50    1.80
  -7  -8  -2   16.20    4.00
  -7  -8  -2   10.80    3.60
   7   8   2   10.10    2.40
   7   8   2   17.10    4.70
  -8  -8  -2    0.80    2.20
   8   8   2   -0.60    2.20
   8   8   2    2.50    2.70
   1  -9  -2    4.70    2.80
   1  -9  -2    0.60    2.30
   0  -9  -2    2.00    2.00
   0  -9  -2    3.50    2.50
   0  -9  -2    1.50    2.20
  -1  -9  -2    4.20    2.10
  -1  -9  -2    3.50    2.40
  -2  -9  -2   84.39    5.90
  -2  -9  -2   94.69    5.50
   2   9   2  100.09    5.60
   2   9   2   74.99    5.20
   2   9   2   78.99    4.40
  -3  -9  -2   28.40    4.40
  -3  -9  -2   41.90    4.30
  -3  -9  -2   25.30    4.20
   3   9   2   28.20    4.10
   3   9   2   30.60    3.40
   3   9   2   33.40    3.90
  -4  -9  -2   92.49    4.60
  -4  -9  -2   90.69    5.50
  -4  -9  -2  112.99    5.70
   4   9   2  103.89    5.50
   4   9   2   89.49    4.30
   4   9   2   97.29    4.80
  -5  -9  -2   -1.20    2.60
  -5  -9  -2    2.40    1.90
  -5  -9  -2    0.30    1.40
   5   9   2    1.20    1.90
   5   9   2    1.30    2.00
  -6  -9  -2    1.90    2.20
  -6  -9  -2    2.80    2.90
   6   9   2    1.80    2.30
   6   9   2   -0.30    2.00
  -7  -9  -2    3.50    2.50
   7   9   2    1.30    2.50
   7   9   2    3.70    2.70
  -8  -9  -2   48.10    6.00
   8   9   2   47.90    7.10
  -1 -10  -2    5.00    3.30
  -1 -10  -2    5.10    2.80
  -2 -10  -2    5.70    2.80
  -2 -10  -2    4.30    3.00
  -3 -10  -2   15.50    5.10
  -3 -10  -2    5.90    2.80
   4  10   2   14.40    4.30
   4  10   2    1.20    2.80
   5  10   2    6.30    2.50
   5  10   2    4.00    2.60
  -6 -10  -2   18.50    5.40
   6  10   2    2.80    2.60
   6  10   2    5.30    2.80
   6   9  -3    0.80    2.90
   6   9  -3    3.20    2.80
   5   9  -3   16.30    5.40
   5   9  -3    6.70    2.60
   4   9  -3   23.00    5.20
  -4  -9   3   14.40    4.90
   3   9  -3   -0.20    2.40
   3   9  -3    2.20    2.50
  -3  -9   3    1.50    2.30
  -3  -9   3   -0.80    2.50
   2   9  -3    8.40    3.00
   2   9  -3   21.10    5.80
  -2  -9   3    6.80    3.10
  -2  -9   3   18.10    5.20
   1   9  -3    3.60    3.00
  -1  -9   3    8.20    2.70
  -1  -9   3    4.40    3.00
   8   8  -3   27.00    6.70
  -8  -8   3   20.10    5.50
   7   8  -3   28.60    5.10
   7   8  -3   44.70    5.70
  -7  -8   3   35.50    4.90
   6   8  -3    6.60    2.60
  -6  -8   3    3.80    2.00
   5   8  -3   72.09    5.30
   5   8  -3   69.09    5.20
  -5  -8   3   72.29    4.30
  -5  -8   3   85.59    4.60
  -5  -8   3   61.89    4.10
   4   8  -3    4.10    2.10
   4   8  -3    1.40    1.80
  -4  -8   3    0.10    2.60
  -4  -8   3    1.90    1.50
  -4  -8   3    0.00    1.80
  -4  -8   3   -0.30    1.50
   3   8  -3   84.69    5.40
   3   8  -3   97.59    5.70
   3   8  -3   84.19    4.90
  -3  -8   3   83.99    6.00
  -3  -8   3   89.99    5.10
  -3  -8   3  102.09    5.10
   2   8  -3    4.10    2.20
   2   8  -3    5.90    2.40
   2   8  -3    3.10    2.10
  -2  -8   3    4.90    1.90
  -2  -8   3    2.70    2.40
  -2  -8   3    3.90    2.10
   1   8  -3   77.09    5.60
   1   8  -3   57.59    5.10
  -1  -8   3   53.59    5.30
  -1  -8   3   66.39    4.90
  -1  -8   3   57.99    5.20
   0   8  -3    0.40    2.40
   0   8  -3   17.60    5.00
   0  -8   3    0.70    2.10
   0  -8   3    1.30    2.30
  -1   8  -3    5.10    2.90
   1  -8   3   -2.10    2.30
   1  -8   3   -0.20    2.10
   1  -8   3   -3.00    2.20
   2  -8   3   -2.00    2.70
   2  -8   3    2.40    2.60
   8   7  -3    1.50    2.50
  -8  -7   3    4.40    2.30
   7   7  -3   19.10    4.70
  -7  -7   3   20.80    3.90
   6   7  -3    1.70    2.10
   6   7  -3    3.60    2.00
  -6  -7   3    1.80    1.70
   5   7  -3   25.10    4.00
   5   7  -3   22.90    3.60
  -5  -7   3   17.40    3.30
  -5  -7   3   18.90    2.40
  -5  -7   3   12.00    4.10
  -5  -7   3   22.20    3.00
  -5  -7   3   17.80    2.20
   4   7  -3   10.20    3.30
   4   7  -3    3.20    1.90
  -4  -7   3    2.90    1.30
  -4  -7   3    2.60    1.40
  -4  -7   3    3.50    2.10
  -4  -7   3    2.40    1.70
  -4  -7   3    2.20    1.40
   3   7  -3   88.49    4.70
   3   7  -3   90.59    4.80
   3   7  -3   88.59    4.10
  -3  -7   3   73.79    4.40
  -3  -7   3   93.89    4.30
  -3  -7   3   87.09    4.20
  -3  -7   3   86.09    5.00
   2   7  -3    2.60    1.50
   2   7  -3    1.40    1.50
   2   7  -3    3.20    1.80
  -2  -7   3    3.00    1.50
  -2  -7   3    1.20    1.60
  -2  -7   3    1.40    1.70
  -2  -7   3    2.90    1.40
   1   7  -3   47.90    4.20
   1   7  -3   39.10    3.90
   1   7  -3   32.60    3.60
   1   7  -3   38.50    3.80
  -1  -7   3   37.40    4.60
  -1  -7   3   43.50    3.60
  -1  -7   3   36.40    3.80
   0   7  -3   31.90    4.00
   0   7  -3   32.50    4.20
   0   7  -3   26.70    3.80
   0  -7   3   36.80    3.80
   0  -7   3   31.80    4.10
   0  -7   3   28.30    3.80
  -1   7  -3   14.40    4.30
  -1   7  -3    9.30    2.50
   1  -7   3   10.90    3.40
   1  -7   3    9.70    2.30
   1  -7   3    9.20    2.50
  -2   7  -3   -0.70    2.50
  -2   7  -3    5.10    2.70
   2  -7   3   -3.50    1.90
   2  -7   3    0.90    1.80
   2  -7   3   -0.20    1.90
   3  -7   3   18.80    4.80
   3  -7   3   21.20    6.30
   3  -7   3   12.90    2.80
   9   6  -3   12.30    3.10
  -9  -6   3   15.50    4.90
   8   6  -3   -0.20    2.20
   8   6  -3    2.70    2.20
  -8  -6   3    1.80    2.00
   7   6  -3  123.49    6.10
   7   6  -3  106.49    5.40
  -7  -6   3  115.79    5.30
   6   6  -3   34.50    3.90
   6   6  -3   22.90    3.30
  -6  -6   3   25.70    3.10
  -6  -6   3   29.10    3.40
   5   6  -3   44.20    3.70
   5   6  -3   38.40    3.10
   5   6  -3   49.10    4.00
  -5  -6   3   45.10    2.30
  -5  -6   3   41.60    2.20
  -5  -6   3   40.30    3.20
  -5  -6   3   42.60    4.10
  -5  -6   3   42.30    3.40
   4   6  -3   21.70    3.20
   4   6  -3   18.20    2.30
   4   6  -3   22.50    3.20
  -4  -6   3   16.30    2.60
  -4  -6   3   19.30    4.30
  -4  -6   3   19.30    2.00
  -4  -6   3   20.10    3.50
  -4  -6   3   23.70    2.20
   3   6  -3   71.79    3.90
   3   6  -3   68.09    3.20
   3   6  -3   68.69    4.00
   3   6  -3   65.49    3.50
  -3  -6   3   67.29    3.60
  -3  -6   3   66.79    3.70
  -3  -6   3   72.99    3.40
  -3  -6   3   70.49    4.20
   2   6  -3    1.30    1.20
   2   6  -3    1.10    1.60
   2   6  -3    0.90    1.20
   2   6  -3   -0.90    0.90
  -2  -6   3    1.00    1.50
  -2  -6   3    0.70    1.30
  -2  -6   3    1.20    1.20
  -2  -6   3    0.00    1.20
   1   6  -3   25.30    2.80
   1   6  -3   26.70    3.30
   1   6  -3   22.40    2.80
   1   6  -3   26.70    2.70
  -1  -6   3   21.60    2.90
  -1  -6   3   27.30    3.10
  -1  -6   3   24.10    2.90
  -1  -6   3   21.90    2.40
   0   6  -3   35.90    3.40
   0   6  -3   28.70    3.10
   0   6  -3   34.30    4.20
   0   6  -3   31.80    3.20
   0  -6   3   34.60    3.00
   0  -6   3   28.10    2.90
   0  -6   3   32.80    3.40
   0  -6   3   31.10    2.60
  -1   6  -3    4.30    1.70
  -1   6  -3    3.60    1.50
  -1   6  -3    4.70    1.80
  -1   6  -3    5.40    1.90
   1  -6   3    3.40    1.60
   1  -6   3    5.60    1.50
   1  -6   3    5.80    1.90
  -2   6  -3   60.49    4.60
  -2   6  -3   44.60    3.90
   2  -6   3   46.70    4.30
   2  -6   3   43.00    4.00
   2  -6   3   46.90    3.70
   2  -6   3   52.09    3.60
  -3   6  -3   23.30    4.50
  -3   6  -3   20.30    4.20
   3  -6   3   13.40    2.90
   3  -6   3   20.20    3.90
   3  -6   3   10.60    2.30
  -4   6  -3   15.10    4.80
   4  -6   3   11.20    3.00
   4  -6   3    9.40    2.60
   9   5  -3   15.30    4.80
   9   5  -3   13.70    4.10
  -9  -5   3   25.40    4.40
   8   5  -3    5.00    2.10
   8   5  -3   12.40    3.80
   8   5  -3    3.40    2.10
  -8  -5   3    4.50    2.40
   7   5  -3   46.10    4.10
   7   5  -3   34.60    3.70
   7   5  -3   33.50    5.50
   7   5  -3   39.10    3.80
  -7  -5   3   40.90    3.50
   6   5  -3   50.99    3.60
   6   5  -3   55.19    6.70
   6   5  -3   50.09    3.40
  -6  -5   3   53.99    3.50
  -6  -5   3   52.39    3.40
  -6  -5   3   53.69    4.10
   5   5  -3   59.19    4.00
   5   5  -3   57.49    3.30
   5   5  -3   62.99    3.60
  -5  -5   3   55.29    3.90
  -5  -5   3   61.09    2.30
  -5  -5   3   56.19    2.30
  -5  -5   3   56.49    3.20
  -5  -5   3   62.49    3.70
   4   5  -3   59.89    3.40
   4   5  -3   49.20    2.70
   4   5  -3   55.99    3.40
  -4  -5   3   52.89    2.30
  -4  -5   3   53.09    3.20
  -4  -5   3   55.59    3.60
  -4  -5   3   57.39    2.40
  -4  -5   3   53.49    3.00
   3   5  -3  117.19    4.30
   3   5  -3  125.49    4.60
   3   5  -3  124.49    4.60
  -3  -5   3  120.69    4.70
  -3  -5   3  124.29    4.50
  -3  -5   3  121.19    4.00
  -3  -5   3  126.29    4.40
  -3  -5   3  124.49    4.00
   2   5  -3   11.90    2.30
   2   5  -3   10.30    2.10
   2   5  -3   13.80    1.80
   2   5  -3   11.50    1.70
  -2  -5   3   11.00    2.10
  -2  -5   3   11.90    2.00
  -2  -5   3   13.20    2.30
  -2  -5   3   13.30    1.90
   1   5  -3  203.48    6.10
   1   5  -3  198.28    5.90
   1   5  -3  206.68    6.30
   1   5  -3  201.38    6.00
  -1  -5   3  194.38    5.90
  -1  -5   3  198.68    6.00
  -1  -5   3  206.58    6.10
  -1  -5   3  202.38    6.00
   0   5  -3   26.30    2.50
   0   5  -3   29.10    2.70
   0   5  -3   26.20    2.50
   0   5  -3   28.70    2.80
   0  -5   3   28.50    2.60
   0  -5   3   26.50    2.60
   0  -5   3   28.60    2.20
   0  -5   3   29.40    2.90
  -1   5  -3  327.37    8.60
  -1   5  -3  323.17    9.20
  -1   5  -3  355.16    9.60
  -1   5  -3  338.17    9.30
   1  -5   3  343.17    9.50
   1  -5   3  326.87    8.90
   1  -5   3  329.37    8.50
   1  -5   3  320.67    8.80
  -2   5  -3   43.40    3.70
  -2   5  -3   31.30    2.90
  -2   5  -3   37.80    2.90
   2  -5   3   38.10    3.40
   2  -5   3   40.20    2.80
   2  -5   3   40.80    2.80
   2  -5   3   35.80    3.10
   2  -5   3   39.40    3.70
  -3   5  -3  102.09    5.20
  -3   5  -3   92.89    4.20
   3  -5   3   86.29    4.80
   3  -5   3   94.39    3.70
   3  -5   3   92.19    5.30
   3  -5   3   95.29    4.70
  -4   5  -3    1.40    2.00
  -4   5  -3    1.70    1.60
   4  -5   3   -0.50    1.80
   4  -5   3    2.00    1.20
  -5   5  -3    3.90    2.90
   5  -5   3   -1.50    2.00
   5  -5   3    7.00    2.60
   9   4  -3   34.30    4.40
   9   4  -3   44.50    4.50
  -9  -4   3   42.60    4.10
   8   4  -3   10.60    3.30
   8   4  -3    9.90    3.10
   8   4  -3    4.30    1.80
   8   4  -3    8.70    3.30
   8   4  -3    7.60    1.80
  -8  -4   3    7.70    2.40
  -8  -4   3   13.80    3.10
   7   4  -3   45.70    3.70
   7   4  -3   44.60    3.30
   7   4  -3   37.20    3.50
   7   4  -3   50.59    3.40
   7   4  -3   42.80    2.10
  -7  -4   3   44.50    2.50
  -7  -4   3   49.10    3.40
   6   4  -3    2.70    1.40
   6   4  -3    3.20    1.40
   6   4  -3    2.30    1.70
   6   4  -3    4.20    1.40
  -6  -4   3    5.30    1.90
  -6  -4   3    2.90    1.20
  -6  -4   3    2.90    1.50
   5   4  -3   26.50    3.00
   5   4  -3   27.30    2.40
   5   4  -3   28.10    2.50
  -5  -4   3   27.40    2.30
  -5  -4   3   24.30    1.70
  -5  -4   3   28.10    2.60
  -5  -4   3   28.00    1.50
  -5  -4   3   26.80    2.60
   4   4  -3   29.40    2.00
   4   4  -3   29.40    2.40
   4   4  -3   26.40    2.50
  -4  -4   3   28.70    2.00
  -4  -4   3   29.20    1.60
  -4  -4   3   28.90    2.60
  -4  -4   3   27.90    1.60
  -4  -4   3   26.80    2.40
   3   4  -3    0.70    0.90
   3   4  -3    1.50    1.00
   3   4  -3    1.60    0.80
  -3  -4   3    1.20    0.90
  -3  -4   3    1.10    0.60
  -3  -4   3    2.70    0.90
  -3  -4   3    1.10    0.60
  -3  -4   3    0.60    0.80
   2   4  -3   40.30    2.40
   2   4  -3   41.50    2.40
   2   4  -3   41.60    2.10
  -2  -4   3   42.10    2.10
  -2  -4   3   40.30    2.30
  -2  -4   3   39.70    2.30
  -2  -4   3   41.00    2.20
   1   4  -3   15.30    1.70
   1   4  -3   12.30    1.80
   1   4  -3   14.60    1.40
  -1  -4   3   15.40    1.80
  -1  -4   3   16.20    1.70
  -1  -4   3   12.20    1.50
  -1  -4   3   14.30    1.70
   0   4  -3   31.60    2.10
   0   4  -3   31.30    2.30
   0   4  -3   32.70    2.30
   0   4  -3   32.60    2.20
   0  -4   3   34.20    2.30
   0  -4   3   31.90    2.00
   0  -4   3   32.80    2.30
   0  -4   3   33.40    2.20
  -1   4  -3  204.28    5.60
  -1   4  -3  205.38    6.20
  -1   4  -3  214.28    6.40
  -1   4  -3  209.28    6.30
   1  -4   3  202.58    5.60
   1  -4   3  200.78    5.90
   1  -4   3  205.38    6.30
   1  -4   3  204.88    6.10
  -2   4  -3  109.59    4.60
  -2   4  -3   94.19    4.10
  -2   4  -3   97.99    4.30
   2  -4   3  103.39    4.00
   2  -4   3  102.29    4.40
   2  -4   3  103.89    4.60
   2  -4   3  105.09    3.60
  -3   4  -3   45.10    2.60
  -3   4  -3   43.30    5.20
  -3   4  -3   38.20    3.20
   3  -4   3   44.50    3.00
   3  -4   3   45.40    3.70
   3  -4   3   44.10    3.20
   3  -4   3   41.80    3.80
   3  -4   3   39.80    2.40
  -4   4  -3    0.90    1.20
  -4   4  -3    1.50    1.70
   4  -4   3    2.40    1.50
   4  -4   3    1.90    0.90
   4  -4   3    1.10    2.10
   4  -4   3    1.00    1.30
  -5   4  -3   43.00    4.60
   5  -4   3   43.10    4.30
  -6   4  -3   22.10    5.10
   6  -4   3    9.90    2.70
   6  -4   3   13.40    2.80
   9   3  -3   84.59    4.10
   9   3  -3   88.99    5.30
   9   3  -3   83.89    5.40
  -9  -3   3   84.99    4.20
   8   3  -3    2.70    1.80
   8   3  -3    0.40    1.50
   8   3  -3    0.30    1.80
   8   3  -3    0.60    2.30
   8   3  -3   -0.50    1.10
  -8  -3   3    1.80    1.50
  -8  -3   3    1.50    1.60
   7   3  -3  145.59    5.80
   7   3  -3  152.08    5.30
   7   3  -3  147.49    6.00
   7   3  -3  150.38    4.80
   7   3  -3  147.29    4.50
  -7  -3   3  151.68    4.80
  -7  -3   3  151.88    5.00
  -7  -3   3  154.68    6.60
   6   3  -3   12.80    2.00
   6   3  -3   11.50    1.50
   6   3  -3   11.30    2.10
   6   3  -3   15.30    3.00
   6   3  -3   12.30    2.20
  -6  -3   3   11.70    2.30
  -6  -3   3   10.40    2.50
  -6  -3   3   12.40    2.10
   5   3  -3  489.95   10.80
   5   3  -3  489.05   11.50
   5   3  -3  497.85   11.40
   5   3  -3  494.85   12.10
   5   3  -3  489.55   11.30
  -5  -3   3  491.25   10.80
  -5  -3   3  505.25   11.40
  -5  -3   3  490.05   12.00
   4   3  -3  114.79    3.70
   4   3  -3  113.49    3.30
   4   3  -3  112.39    4.10
   4   3  -3  114.49    3.70
  -4  -3   3  115.39    3.60
  -4  -3   3  113.19    4.10
  -4  -3   3  117.69    3.90
  -4  -3   3  110.39    3.20
   3   3  -3  431.76   10.90
   3   3  -3  443.66   10.50
   3   3  -3  461.25   10.20
  -3  -3   3  456.65   10.10
  -3  -3   3  455.05   10.70
  -3  -3   3  447.16    9.80
  -3  -3   3  460.75    9.90
  -3  -3   3  458.55   10.40
   2   3  -3  377.16    9.20
   2   3  -3  398.96    9.10
   2   3  -3  401.96    9.40
  -2  -3   3  398.26    9.30
  -2  -3   3  405.46    9.00
  -2  -3   3  406.96    9.10
  -2  -3   3  409.16    9.10
  -2  -3   3  404.96    9.30
   1   3  -3  905.31   19.10
   1   3  -3  913.61   19.20
   1   3  -3  907.91   19.30
   1   3  -3  915.71   19.20
  -1  -3   3  905.51   19.20
  -1  -3   3  931.31   19.10
  -1  -3   3  901.21   19.20
  -1  -3   3  908.51   19.20
   0   3  -3   79.09    2.90
   0   3  -3   77.19    2.90
   0   3  -3   78.99    2.70
   0   3  -3   79.39    3.00
   0  -3   3   77.89    2.80
   0  -3   3   77.59    2.90
   0  -3   3   80.29    2.80
   0  -3   3   82.99    3.10
  -1   3  -3  291.77    7.60
  -1   3  -3  293.27    7.60
  -1   3  -3  295.97    7.70
  -1   3  -3  295.27    7.00
   1  -3   3  296.27    7.60
   1  -3   3  297.57    7.00
   1  -3   3  288.47    7.40
   1  -3   3  297.67    7.70
  -2   3  -3   80.99    2.80
  -2   3  -3   81.89    3.50
  -2   3  -3   81.99    3.50
   2  -3   3   81.49    3.60
   2  -3   3   85.29    3.60
   2  -3   3   81.59    2.80
   2  -3   3   81.69    3.30
  -3   3  -3   33.20    2.60
  -3   3  -3   35.20    1.90
  -3   3  -3   37.70    2.80
   3  -3   3   40.20    3.10
   3  -3   3   35.60    1.90
   3  -3   3   36.20    2.60
   3  -3   3   36.80    2.70
   3  -3   3   32.90    2.90
  -4   3  -3   -0.50    2.20
  -4   3  -3   -0.40    1.10
  -4   3  -3    0.70    0.70
   4  -3   3   -0.50    0.60
   4  -3   3   -0.10    1.40
   4  -3   3    0.10    1.20
   4  -3   3    1.70    1.40
  -5   3  -3  142.79    6.20
   5  -3   3  142.59    5.90
   5  -3   3  137.09    6.10
  -6   3  -3   17.60    4.20
   6  -3   3    7.80    2.40
   6  -3   3    9.60    2.40
  -7   3  -3   -0.60    2.70
   7  -3   3   -0.10    2.40
   7  -3   3   -1.20    2.40
   9   2  -3   -0.90    1.90
   9   2  -3    0.60    1.80
   9   2  -3   -0.20    2.10
   8   2  -3   24.40    3.30
   8   2  -3   23.40    3.70
   8   2  -3   19.90    3.50
   8   2  -3   17.80    2.40
   8   2  -3   22.60    3.10
  -8  -2   3   19.00    3.60
  -8  -2   3   26.50    2.50
   7   2  -3    5.70    1.50
   7   2  -3    6.20    1.50
   7   2  -3    4.30    1.70
   7   2  -3    9.40    2.80
   7   2  -3    6.70    2.10
  -7  -2   3    3.30    1.40
  -7  -2   3    3.00    1.50
  -7  -2   3    6.50    2.10
   6   2  -3   32.60    3.30
   6   2  -3   29.90    2.20
   6   2  -3   32.70    2.60
   6   2  -3   28.80    2.20
   6   2  -3   31.20    2.40
  -6  -2   3   34.50    2.70
  -6  -2   3   31.90    2.40
  -6  -2   3   24.50    2.80
   5   2  -3   46.70    3.10
   5   2  -3   46.70    2.40
   5   2  -3   43.50    2.20
   5   2  -3   42.80    2.10
   5   2  -3   43.00    2.40
  -5  -2   3   42.60    2.40
  -5  -2   3   45.60    2.90
  -5  -2   3   46.10    2.50
   4   2  -3   13.30    1.40
   4   2  -3   12.50    1.40
   4   2  -3   12.40    1.40
   4   2  -3   13.40    2.00
   4   2  -3   11.80    1.20
  -4  -2   3   10.90    1.80
  -4  -2   3   12.90    1.60
  -4  -2   3   11.50    1.40
   3   2  -3    1.00    0.40
   3   2  -3    0.30    0.40
   3   2  -3    0.40    0.60
   3   2  -3    0.30    0.70
  -3  -2   3    0.60    0.60
  -3  -2   3    0.70    0.80
  -3  -2   3    0.40    0.50
  -3  -2   3    0.40    0.40
   2   2  -3  151.48    4.00
   2   2  -3  152.68    3.90
   2   2  -3  147.59    4.20
  -2  -2   3  151.88    4.30
  -2  -2   3  149.69    4.10
  -2  -2   3  154.28    3.80
  -2  -2   3  149.88    3.90
   1   2  -3   94.19    2.80
   1   2  -3   91.29    3.00
   1   2  -3   96.49    2.80
  -1  -2   3   95.19    3.00
  -1  -2   3   94.69    2.90
  -1  -2   3   95.39    2.70
  -1  -2   3  100.19    2.90
   0   2  -3    2.00    0.80
   0   2  -3    1.00    0.50
   0   2  -3    1.70    0.50
   0   2  -3    1.50    0.60
   0  -2   3    1.40    0.60
   0  -2   3    1.10    0.50
   0  -2   3    1.50    0.60
   0  -2   3    1.70    0.60
  -1   2  -3   32.50    1.80
  -1   2  -3   30.80    1.70
  -1   2  -3   31.80    1.90
  -1   2  -3   33.70    1.50
   1  -2   3   32.30    1.70
   1  -2   3   31.40    1.80
   1  -2   3   31.60    1.60
   1  -2   3   31.70    1.80
  -2   2  -3    5.70    1.00
  -2   2  -3    3.90    1.30
  -2   2  -3    4.80    1.30
   2  -2   3    4.70    1.30
   2  -2   3    4.20    1.10
   2  -2   3    4.60    1.40
   2  -2   3    7.40    1.20
  -3   2  -3  162.58    5.20
  -3   2  -3  163.58    5.20
  -3   2  -3  158.68    3.90
   3  -2   3  161.08    5.00
   3  -2   3  159.08    3.90
   3  -2   3  158.78    5.30
   3  -2   3  158.38    5.00
   3  -2   3  164.48    5.30
  -4   2  -3  298.47    8.40
  -4   2  -3  286.77    8.30
   4  -2   3  300.97    8.50
   4  -2   3  302.17    8.20
   4  -2   3  290.37    8.50
   4  -2   3  277.67    8.10
  -5   2  -3   26.50    3.00
  -5   2  -3   22.30    3.20
   5  -2   3   22.30    3.50
   5  -2   3   19.20    3.40
   5  -2   3   19.40    2.70
   5  -2   3   24.50    4.00
  -6   2  -3   13.40    3.40
   6  -2   3   10.30    2.20
   6  -2   3    9.30    3.10
  -7   2  -3    1.50    2.30
   7  -2   3   -0.40    2.30
  -8   2  -3   -1.50    3.70
   8  -2   3   -3.30    2.90
   8  -2   3   -2.80    2.60
   9   1  -3    7.20    2.40
   9   1  -3   13.80    4.40
   8   1  -3   11.00    3.50
   8   1  -3   16.60    3.10
   8   1  -3   23.80    3.60
  -8  -1   3   13.80    4.00
   7   1  -3  132.19    5.00
   7   1  -3  131.19    4.90
   7   1  -3  123.99    5.30
   7   1  -3  127.39    3.70
   7   1  -3  131.09    5.50
  -7  -1   3  128.19    6.10
  -7  -1   3  131.79    3.80
  -7  -1   3  126.29    5.20
   6   1  -3   53.49    3.10
   6   1  -3   56.49    3.00
   6   1  -3   57.69    3.20
   6   1  -3   56.69    3.80
   6   1  -3   50.19    2.20
  -6  -1   3   51.89    3.30
  -6  -1   3   47.70    3.10
  -6  -1   3   54.49    2.50
   5   1  -3  235.88    5.60
   5   1  -3  235.28    6.80
   5   1  -3  231.58    6.30
   5   1  -3  231.28    6.10
   5   1  -3  225.68    6.10
  -5  -1   3  234.98    5.70
  -5  -1   3  236.58    6.30
  -5  -1   3  228.58    6.60
   4   1  -3    0.90    0.60
   4   1  -3    1.10    0.70
   4   1  -3    0.90    0.60
   4   1  -3   -0.30    0.60
   4   1  -3    0.40    1.00
  -4  -1   3    0.90    0.60
  -4  -1   3   -0.80    0.60
  -4  -1   3    0.30    0.70
   3   1  -3  314.37    7.10
   3   1  -3  312.87    7.00
   3   1  -3  317.07    7.20
   3   1  -3  314.67    7.60
   3   1  -3  314.37    7.10
  -3  -1   3  324.57    7.20
  -3  -1   3  314.67    7.20
  -3  -1   3  320.07    7.60
   2   1  -3  143.39    3.60
   2   1  -3  141.89    3.60
   2   1  -3  128.89    3.80
  -2  -1   3  143.79    3.30
  -2  -1   3  135.89    3.50
  -2  -1   3  142.39    3.90
  -2  -1   3  143.69    3.60
   1   1  -3  107.29    3.20
   1   1  -3  112.89    3.10
   1   1  -3  120.49    3.20
   1   1  -3  117.69    2.80
  -1  -1   3  121.69    2.80
  -1  -1   3  112.99    3.10
  -1  -1   3  118.29    3.10
   0   1  -3  102.99    3.00
   0   1  -3  107.19    3.00
   0   1  -3  107.19    2.80
   0   1  -3  100.99    2.80
   0  -1   3  103.39    3.00
   0  -1   3  106.59    3.00
   0  -1   3  107.99    2.90
  -1   1  -3    0.00    0.40
  -1   1  -3    0.40    0.50
  -1   1  -3    0.30    0.30
  -1   1  -3    0.20    0.50
   1  -1   3    0.40    0.50
   1  -1   3    0.30    0.50
   1  -1   3    0.10    0.40
   1  -1   3    1.10    0.40
  -2   1  -3    6.20    1.20
  -2   1  -3    7.90    1.30
  -2   1  -3    8.80    1.10
   2  -1   3    7.40    1.20
   2  -1   3    7.20    1.30
   2  -1   3    5.80    1.20
   2  -1   3    7.30    1.00
   2  -1   3    6.80    0.80
  -3   1  -3  580.14   12.00
  -3   1  -3  585.54   13.40
  -3   1  -3  593.04   13.40
   3  -1   3  592.64   13.30
   3  -1   3  580.04   13.50
   3  -1   3  595.24   13.40
   3  -1   3  603.04   13.30
   3  -1   3  582.04   12.00
  -4   1  -3    5.00    1.70
  -4   1  -3    5.70    1.80
   4  -1   3    5.00    1.60
   4  -1   3    3.60    1.20
   4  -1   3    6.60    2.00
   4  -1   3    5.60    1.60
  -5   1  -3    1.10    1.20
  -5   1  -3   -0.50    1.10
   5  -1   3    2.10    1.50
   5  -1   3    1.30    1.40
   5  -1   3    1.90    1.30
   5  -1   3    2.80    1.30
  -6   1  -3   52.29    4.20
  -6   1  -3   64.29    3.90
   6  -1   3   55.59    4.20
   6  -1   3   56.49    3.80
  -7   1  -3    5.40    2.20
   7  -1   3    2.70    2.00
   7  -1   3    0.90    1.60
  -8   1  -3    0.50    2.60
   8  -1   3   -1.90    2.50
   8  -1   3   -2.10    2.20
   9   0  -3   20.20    6.00
   8   0  -3   10.30    2.50
  -8   0   3   16.80    3.90
  -8   0   3    8.60    2.80
   7   0  -3    6.60    2.10
   7   0  -3    4.30    1.80
   7   0  -3    6.00    1.70
  -7   0   3    6.30    1.80
  -7   0   3    3.70    1.90
   6   0  -3   23.90    3.10
   6   0  -3   26.60    2.70
   6   0  -3   25.60    3.20
  -6   0   3   25.40    2.80
  -6   0   3   27.80    1.80
  -6   0   3   26.30    3.10
  -6   0   3   27.40    2.80
  -6   0   3   28.20    1.60
   5   0  -3  265.27    7.20
   5   0  -3  262.17    7.10
   5   0  -3  269.67    7.50
   5   0  -3  268.57    6.10
  -5   0   3  281.27    7.20
  -5   0   3  270.57    6.20
  -5   0   3  268.17    7.40
  -5   0   3  265.77    7.30
   4   0  -3  110.29    3.00
   4   0  -3  114.09    3.90
   4   0  -3  112.59    3.60
   4   0  -3  108.29    3.70
  -4   0   3  108.49    3.50
  -4   0   3  112.69    3.80
  -4   0   3  115.09    3.80
  -4   0   3  110.09    3.00
   3   0  -3  324.77    7.30
   3   0  -3  317.17    7.60
   3   0  -3  333.27    7.10
   3   0  -3  324.77    7.70
  -3   0   3  322.97    7.60
  -3   0   3  320.27    7.60
  -3   0   3  324.77    7.40
  -3   0   3  326.37    7.10
   2   0  -3  102.09    3.10
   2   0  -3   99.69    3.00
   2   0  -3  103.69    2.70
   2   0  -3  105.79    2.60
  -2   0   3  104.89    3.00
  -2   0   3   96.89    2.80
  -2   0   3   99.39    3.00
  -2   0   3  104.39    2.70
   1   0  -3  171.98    4.20
   1   0  -3  175.08    4.00
   1   0  -3  174.08    4.20
  -1   0   3  174.08    4.30
  -1   0   3  167.88    4.20
  -1   0   3  180.98    4.10
   0   0  -3    2.20    0.60
   0   0  -3    2.40    0.40
   0   0  -3    2.90    0.80
   0   0   3    1.80    0.50
   0   0   3    2.60    0.60
   0   0   3    2.30    0.60
   0   0   3    2.50    0.40
  -1   0  -3  207.88    4.80
  -1   0  -3  206.68    4.90
  -1   0  -3  202.88    4.60
  -1   0  -3  205.38    5.00
   1   0   3  201.98    4.80
   1   0   3  208.58    5.00
   1   0   3  206.38    5.00
  -2   0  -3  191.98    4.80
  -2   0  -3  189.68    4.90
   2   0   3  189.08    4.80
   2   0   3  193.08    4.90
   2   0   3  193.08    4.90
   2   0   3  185.88    4.50
   2   0   3  195.88    5.10
  -3   0  -3  543.55   12.00
  -3   0  -3  543.85   12.20
   3   0   3  546.45   12.00
   3   0   3  519.15   12.20
   3   0   3  545.85   11.00
   3   0   3  537.95   12.10
   3   0   3  542.85   11.00
  -4   0  -3    2.70    1.00
  -4   0  -3    4.90    1.50
  -4   0  -3    4.30    1.40
   4   0   3    2.50    0.90
   4   0   3    3.40    1.00
   4   0   3    2.90    0.90
  -5   0  -3    7.60    2.00
  -5   0  -3    8.10    2.00
  -5   0  -3    5.10    1.30
   5   0   3    4.60    1.30
   5   0   3    5.40    1.30
   5   0   3    5.30    1.30
  -6   0  -3   11.00    2.90
  -6   0  -3   10.40    2.60
  -6   0  -3   14.20    2.60
   6   0   3   10.10    3.20
   6   0   3   13.80    2.70
   6   0   3    8.80    2.60
  -7   0  -3  192.98    7.20
  -7   0  -3  224.28    7.70
   7   0   3  205.58    7.30
   7   0   3  208.78    7.30
  -8   0  -3   82.19    5.70
   8   0   3   79.89    5.80
   8   0   3   66.59    4.80
  -9   0  -3   30.30    5.70
   9   0   3   29.00    6.30
   8  -1  -3   28.50    4.50
   8  -1  -3   39.60    5.20
  -8   1   3   35.60    5.10
   7  -1  -3   60.39    4.40
   7  -1  -3   50.79    4.20
   7  -1  -3   46.00    4.10
  -7   1   3   62.79    4.30
  -7   1   3   45.90    4.70
   6  -1  -3   37.90    3.80
   6  -1  -3   40.20    3.20
   6  -1  -3   42.00    3.60
  -6   1   3   42.10    3.20
  -6   1   3   30.70    3.60
  -6   1   3   38.80    3.50
   5  -1  -3   14.30    2.70
   5  -1  -3   13.40    2.10
   5  -1  -3   15.50    2.60
  -5   1   3   13.70    2.60
  -5   1   3   16.20    1.20
  -5   1   3   17.60    1.30
  -5   1   3   15.90    2.30
  -5   1   3   14.70    2.10
   4  -1  -3    0.70    0.90
   4  -1  -3    1.40    0.90
   4  -1  -3    1.00    0.90
  -4   1   3    2.00    0.60
  -4   1   3    1.40    0.90
  -4   1   3    3.20    0.90
  -4   1   3    1.30    0.90
  -4   1   3    0.70    0.80
   3  -1  -3   28.30    1.80
   3  -1  -3   26.20    1.50
   3  -1  -3   22.50    1.90
  -3   1   3   25.20    1.80
  -3   1   3   25.80    1.60
  -3   1   3   24.90    1.60
  -3   1   3   26.70    1.30
  -3   1   3   26.20    1.30
   2  -1  -3  368.56    8.60
   2  -1  -3  367.96    8.10
   2  -1  -3  374.56    8.30
  -2   1   3  378.36    8.10
  -2   1   3  379.86    8.30
  -2   1   3  386.56    8.10
  -2   1   3  376.66    8.60
  -2   1   3  372.86    8.20
   1  -1  -3   95.99    2.90
   1  -1  -3   96.49    3.00
   1  -1  -3  100.09    2.50
  -1   1   3  100.59    2.50
  -1   1   3  100.59    2.70
  -1   1   3  105.49    2.60
  -1   1   3  100.99    2.70
  -1   1   3   95.89    3.00
   0  -1  -3   11.20    0.70
   0  -1  -3    8.30    1.00
   0  -1  -3   10.00    0.90
   0  -1  -3    9.10    0.70
   0   1   3    8.20    0.70
   0   1   3   11.00    0.80
   0   1   3    7.30    0.90
   0   1   3    9.60    0.80
  -1  -1  -3    0.40    0.30
   1   1   3    0.00    0.50
   1   1   3    0.40    0.30
   1   1   3    0.50    0.50
   1   1   3    0.40    0.40
   1   1   3    0.50    0.30
  -2  -1  -3  685.43   14.60
  -2  -1  -3  698.43   14.20
  -2  -1  -3  697.33   14.50
   2   1   3  691.53   14.70
   2   1   3  700.63   14.40
   2   1   3  694.53   14.50
   2   1   3  705.63   14.30
  -3  -1  -3  102.79    3.00
  -3  -1  -3   96.79    2.60
  -3  -1  -3   96.39    3.30
  -3  -1  -3   96.89    3.10
   3   1   3  100.79    3.20
   3   1   3  101.49    3.30
   3   1   3   98.99    3.00
   3   1   3  107.79    3.20
  -4  -1  -3  618.54   13.30
  -4  -1  -3  619.24   13.90
  -4  -1  -3  606.54   13.70
   4   1   3  619.04   13.30
   4   1   3  609.84   13.70
   4   1   3  590.64   12.50
   4   1   3  602.84   13.80
  -5  -1  -3    0.80    0.90
  -5  -1  -3    1.40    0.90
  -5  -1  -3    0.30    0.90
   5   1   3   -0.40    1.00
   5   1   3    0.90    0.90
   5   1   3    1.50    1.00
  -6  -1  -3   18.10    2.40
  -6  -1  -3   13.90    2.50
  -6  -1  -3   15.40    2.50
   6   1   3   15.70    2.50
   6   1   3   12.10    2.40
   6   1   3   20.60    2.90
  -7  -1  -3   40.70    3.50
  -7  -1  -3   39.40    3.40
   7   1   3   38.90    3.60
   7   1   3   31.80    3.40
  -8  -1  -3   49.20    4.40
  -8  -1  -3   47.30    4.50
   8   1   3   35.30    3.80
   8   1   3   44.80    4.90
   9   1   3   -3.60    1.90
   9   1   3    0.10    2.60
   8  -2  -3    2.60    2.70
  -8   2   3    9.60    3.10
   7  -2  -3   33.80    4.30
   7  -2  -3   45.50    4.50
  -7   2   3   46.60    4.40
   6  -2  -3   -2.80    2.20
   6  -2  -3    1.80    1.70
   6  -2  -3    1.10    1.50
  -6   2   3   -1.40    1.70
  -6   2   3   -2.50    2.60
  -6   2   3   -1.50    1.60
   5  -2  -3   14.20    2.80
   5  -2  -3   16.80    2.30
   5  -2  -3   13.70    3.10
  -5   2   3   12.80    2.70
  -5   2   3   15.30    2.50
  -5   2   3   15.40    1.30
  -5   2   3   12.80    2.50
  -5   2   3   15.40    1.40
   4  -2  -3   49.00    2.70
   4  -2  -3   51.19    3.30
   4  -2  -3   53.59    2.90
  -4   2   3   49.70    2.90
  -4   2   3   48.90    1.90
  -4   2   3   51.59    2.80
  -4   2   3   48.20    1.90
  -4   2   3   52.29    2.80
   3  -2  -3  779.22   16.50
   3  -2  -3  762.52   17.00
   3  -2  -3  767.72   16.60
  -3   2   3  776.72   16.40
  -3   2   3  776.22   15.90
  -3   2   3  755.72   15.80
  -3   2   3  783.52   17.10
  -3   2   3  759.72   16.70
   2  -2  -3   22.60    1.40
   2  -2  -3   21.60    1.40
   2  -2  -3   17.10    1.80
   2  -2  -3   21.30    1.20
  -2   2   3   19.90    1.80
  -2   2   3   20.90    1.40
  -2   2   3   19.90    1.30
  -2   2   3   20.50    1.20
   1  -2  -3  345.97    8.10
   1  -2  -3  338.37    7.40
   1  -2  -3  344.67    7.70
   1  -2  -3  354.86    7.70
  -1   2   3  352.06    7.30
  -1   2   3  350.96    7.70
  -1   2   3  340.37    7.60
  -1   2   3  358.26    8.10
   0  -2  -3  520.35   11.00
   0  -2  -3  504.25   10.80
   0  -2  -3  524.95   10.80
   0   2   3  523.75   10.80
   0   2   3  498.25   10.80
   0   2   3  503.95   11.00
  -1  -2  -3 1396.26   29.10
  -1  -2  -3 1461.85   29.10
  -1  -2  -3 1463.95   29.10
   1   2   3 1451.35   29.10
   1   2   3 1444.16   29.10
   1   2   3 1483.75   28.90
  -2  -2  -3   13.20    1.10
  -2  -2  -3   12.70    1.00
  -2  -2  -3   12.70    1.00
  -2  -2  -3   14.50    1.00
   2   2   3   13.80    1.00
   2   2   3   15.70    1.10
   2   2   3   14.70    0.80
   2   2   3   13.90    1.20
  -3  -2  -3    0.00    0.40
  -3  -2  -3    0.60    0.50
   3   2   3    0.40    0.40
   3   2   3    0.70    0.60
   3   2   3    0.50    0.50
   3   2   3    0.90    0.60
   3   2   3    0.20    0.40
  -4  -2  -3   25.70    1.40
  -4  -2  -3   25.70    1.80
  -4  -2  -3   24.80    1.30
   4   2   3   27.00    2.00
   4   2   3   26.70    1.80
   4   2   3   26.10    1.50
   4   2   3   25.00    1.90
   4   2   3   22.50    1.40
  -5  -2  -3  102.99    3.30
  -5  -2  -3  101.09    2.90
  -5  -2  -3  102.89    3.90
   5   2   3  104.69    4.10
   5   2   3  100.49    3.00
   5   2   3  113.19    3.50
   5   2   3  100.89    3.80
   5   2   3  107.89    4.10
  -6  -2  -3  122.59    3.30
  -6  -2  -3  124.39    4.70
  -6  -2  -3  122.79    4.10
   6   2   3  127.39    4.30
   6   2   3  123.59    3.40
   6   2   3  129.39    4.70
   6   2   3  123.89    4.80
   6   2   3  120.89    4.80
  -7  -2  -3    0.90    1.20
  -7  -2  -3   -1.40    1.60
   7   2   3    1.00    1.30
   7   2   3   -0.50    1.80
   7   2   3   -0.20    1.40
   7   2   3   -0.70    1.10
  -8  -2  -3   24.10    3.60
   8   2   3   20.60    3.30
   8   2   3   32.10    3.30
   8   2   3   27.60    3.90
   9   2   3    0.80    2.30
   9   2   3    4.10    2.20
   7  -3  -3    2.20    2.40
  -7   3   3    1.70    2.60
   6  -3  -3   -0.80    1.70
   6  -3  -3   -0.10    1.70
  -6   3   3    1.10    2.00
  -6   3   3    2.00    1.90
   5  -3  -3    2.50    1.50
   5  -3  -3    2.10    1.50
   5  -3  -3    3.30    1.70
  -5   3   3    1.90    1.50
  -5   3   3    1.20    0.80
  -5   3   3   -0.90    1.40
  -5   3   3    2.70    1.70
  -5   3   3    1.30    0.90
   4  -3  -3    1.10    1.30
   4  -3  -3   -1.60    1.30
   4  -3  -3    0.10    1.10
  -4   3   3    0.40    1.20
  -4   3   3    0.40    1.10
  -4   3   3   -0.20    0.80
  -4   3   3    0.30    0.80
   3  -3  -3    1.60    0.60
   3  -3  -3    0.70    0.90
   3  -3  -3    0.30    1.10
   3  -3  -3    1.90    1.00
  -3   3   3    1.80    1.10
  -3   3   3    0.40    0.80
  -3   3   3    0.90    0.70
  -3   3   3    1.60    0.90
   2  -3  -3   12.50    1.40
   2  -3  -3   11.70    1.20
   2  -3  -3    9.30    1.90
  -2   3   3   10.00    1.20
  -2   3   3   10.20    1.80
  -2   3   3   13.40    1.50
  -2   3   3   11.60    1.30
   1  -3  -3   44.40    2.40
   1  -3  -3   47.20    1.90
   1  -3  -3   44.30    1.60
   1  -3  -3   46.70    2.00
  -1   3   3   45.20    2.30
  -1   3   3   44.40    2.10
  -1   3   3   45.90    1.90
   0  -3  -3  140.29    4.00
   0  -3  -3  145.29    4.00
   0  -3  -3  139.09    3.80
   0   3   3  145.89    4.00
   0   3   3  146.19    4.10
   0   3   3  141.19    3.80
  -1  -3  -3    5.00    0.90
  -1  -3  -3    3.70    1.00
  -1  -3  -3    6.50    1.00
   1   3   3    4.50    0.90
   1   3   3    6.90    1.10
   1   3   3    6.80    1.30
  -2  -3  -3   -0.30    0.40
  -2  -3  -3    0.00    0.40
  -2  -3  -3    0.00    0.50
   2   3   3    0.40    0.50
   2   3   3    0.30    0.40
   2   3   3    0.10    0.40
   2   3   3    0.50    0.60
  -3  -3  -3   18.30    1.40
  -3  -3  -3   16.20    1.30
  -3  -3  -3   18.10    1.40
   3   3   3   17.50    1.20
   3   3   3   17.00    0.90
   3   3   3   18.00    0.90
   3   3   3   19.10    1.50
   3   3   3   19.50    1.50
  -4  -3  -3   93.19    3.90
  -4  -3  -3  101.19    3.10
   4   3   3  102.49    2.60
   4   3   3  107.49    3.70
   4   3   3  103.99    2.60
   4   3   3  103.49    3.60
   4   3   3  103.19    3.50
   4   3   3  103.09    3.20
  -5  -3  -3  221.68    5.60
  -5  -3  -3  221.28    6.30
   5   3   3  229.08    6.40
   5   3   3  219.28    6.50
   5   3   3  220.78    5.60
   5   3   3  226.68    6.40
   5   3   3  235.58    5.30
   5   3   3  223.18    5.30
  -6  -3  -3   17.00    2.60
  -6  -3  -3   18.70    1.70
  -6  -3  -3   18.60    1.70
   6   3   3   21.70    2.10
   6   3   3   22.10    2.30
   6   3   3   22.00    2.00
   6   3   3   19.20    2.70
   6   3   3   18.70    2.40
  -7  -3  -3    6.80    1.90
  -7  -3  -3    6.60    1.80
  -7  -3  -3    8.00    1.60
   7   3   3    9.00    2.30
   7   3   3    6.40    1.70
   7   3   3   11.40    2.90
   7   3   3    6.70    1.90
   7   3   3    7.00    1.70
  -8  -3  -3   26.10    2.00
  -8  -3  -3   23.10    3.70
   8   3   3   23.30    2.10
   8   3   3   19.80    3.60
   8   3   3   29.10    3.40
   8   3   3   25.40    3.00
   9   3   3   22.50    3.70
   9   3   3   12.20    3.80
   9   3   3   18.10    3.90
  -7   4   3    6.80    3.10
   6  -4  -3   50.89    4.60
   6  -4  -3   36.50    4.50
  -6   4   3   33.90    4.80
   5  -4  -3   65.09    4.50
   5  -4  -3   59.29    4.90
   5  -4  -3   60.49    4.10
  -5   4   3   60.79    2.60
  -5   4   3   62.49    3.10
  -5   4   3   66.89    4.70
   4  -4  -3   45.10    3.90
   4  -4  -3   44.30    3.40
   4  -4  -3   45.80    2.40
   4  -4  -3   41.50    3.50
   4  -4  -3   45.40    3.50
  -4   4   3   44.50    2.60
  -4   4   3   37.20    3.20
  -4   4   3   47.70    3.60
   3  -4  -3    9.10    2.00
   3  -4  -3    8.60    2.20
   3  -4  -3    6.00    1.60
   3  -4  -3   10.60    2.30
   3  -4  -3    5.30    1.40
  -3   4   3    7.60    2.30
  -3   4   3    4.20    1.20
  -3   4   3    5.50    1.70
   2  -4  -3    0.10    0.80
   2  -4  -3    0.00    0.70
   2  -4  -3    0.30    1.10
   2  -4  -3    0.60    0.70
   2  -4  -3    0.50    1.00
  -2   4   3   -0.90    0.90
  -2   4   3   -0.40    0.80
  -2   4   3   -0.90    0.70
   1  -4  -3   69.49    3.30
   1  -4  -3   68.99    2.60
   1  -4  -3   70.69    2.20
   1  -4  -3   68.39    2.80
   1  -4  -3   68.19    2.30
  -1   4   3   69.49    3.00
  -1   4   3   62.79    2.90
  -1   4   3   68.89    2.60
   0  -4  -3   41.80    3.30
   0  -4  -3   46.50    2.10
   0  -4  -3   46.40    1.40
   0  -4  -3   44.90    1.40
   0  -4  -3   47.50    2.60
   0   4   3   49.00    2.30
   0   4   3   44.40    2.10
   0   4   3   48.00    2.40
  -1  -4  -3   25.40    1.80
  -1  -4  -3   26.00    1.10
  -1  -4  -3   24.60    1.60
  -1  -4  -3   27.90    1.80
   1   4   3   25.80    1.70
   1   4   3   26.30    1.00
   1   4   3   24.80    1.90
  -2  -4  -3  228.18    5.10
  -2  -4  -3  215.68    5.20
  -2  -4  -3  215.38    5.70
   2   4   3  206.88    6.20
   2   4   3  222.78    5.90
   2   4   3  221.28    5.20
   2   4   3  218.58    5.00
  -3  -4  -3  216.78    5.30
  -3  -4  -3  209.78    4.80
  -3  -4  -3  218.28    5.70
  -3  -4  -3  212.78    5.80
   3   4   3  220.38    5.40
   3   4   3  219.08    5.90
   3   4   3  210.28    5.60
   3   4   3  220.48    4.80
  -4  -4  -3    1.00    0.80
  -4  -4  -3   -0.20    0.70
  -4  -4  -3    0.90    0.80
   4   4   3    2.00    1.00
   4   4   3   -0.50    0.70
   4   4   3    0.50    0.90
  -5  -4  -3   34.10    2.60
  -5  -4  -3   36.50    2.30
   5   4   3   37.10    2.60
   5   4   3   33.70    2.50
   5   4   3   36.40    2.80
   5   4   3   36.10    2.30
  -6  -4  -3   86.49    4.30
  -6  -4  -3   90.89    3.50
   6   4   3   99.49    4.40
   6   4   3   87.09    4.10
   6   4   3   94.79    4.00
   6   4   3   90.39    3.60
  -7  -4  -3    6.30    1.90
  -7  -4  -3   10.10    3.10
   7   4   3    7.50    1.60
   7   4   3   10.60    3.10
   7   4   3   13.50    3.20
   7   4   3    9.10    2.40
  -8  -4  -3   -0.20    1.30
   8   4   3    0.30    1.60
   8   4   3   -3.00    1.60
   8   4   3   -0.20    1.60
   9   4   3   25.10    4.20
   9   4   3   18.00    4.30
   6  -5  -3    3.10    2.60
   6  -5  -3   20.00    4.60
  -6   5   3    9.20    3.20
   5  -5  -3   61.59    4.60
   5  -5  -3   55.99    5.50
   5  -5  -3   56.99    4.60
  -5   5   3   59.49    5.40
  -5   5   3   53.89    3.00
   4  -5  -3    0.30    1.80
   4  -5  -3    0.40    1.50
   4  -5  -3    0.30    1.50
   4  -5  -3    2.00    1.10
  -4   5   3    1.00    1.60
  -4   5   3    1.90    1.90
   3  -5  -3   11.70    2.60
   3  -5  -3   14.80    2.40
   3  -5  -3   13.70    2.80
   3  -5  -3   15.30    3.20
   3  -5  -3   10.40    1.90
  -3   5   3    7.90    2.50
  -3   5   3   17.50    3.30
  -3   5   3   18.60    2.50
   2  -5  -3   13.70    2.00
   2  -5  -3   15.20    1.90
   2  -5  -3   12.40    3.00
   2  -5  -3   14.40    1.90
   2  -5  -3   14.20    2.50
  -2   5   3   16.40    2.70
  -2   5   3   15.60    2.20
   1  -5  -3  145.49    4.90
   1  -5  -3  153.68    4.10
   1  -5  -3  146.69    4.10
   1  -5  -3  146.89    4.60
   1  -5  -3  147.29    5.50
  -1   5   3  147.99    4.60
  -1   5   3  148.39    5.10
  -1   5   3  153.68    5.20
   0  -5  -3    1.70    0.50
   0  -5  -3    1.80    0.80
   0  -5  -3    1.70    1.20
   0  -5  -3    1.00    0.60
   0  -5  -3    0.90    0.80
   0   5   3    1.20    1.10
   0   5   3    0.10    0.90
   0   5   3    0.90    0.90
  -1  -5  -3  129.89    4.30
  -1  -5  -3  125.69    3.30
  -1  -5  -3  131.19    4.30
  -1  -5  -3  131.09    4.20
   1   5   3  128.79    4.10
   1   5   3  129.69    4.50
   1   5   3  130.09    4.10
  -2  -5  -3   27.30    1.60
  -2  -5  -3   26.40    2.00
  -2  -5  -3   25.60    1.90
  -2  -5  -3   25.20    1.90
   2   5   3   29.30    2.30
   2   5   3   26.30    1.80
   2   5   3   27.40    1.40
   2   5   3   26.70    2.00
  -3  -5  -3  331.97    8.40
  -3  -5  -3  330.67    8.20
  -3  -5  -3  328.97    7.30
  -3  -5  -3  326.87    7.60
   3   5   3  328.17    7.30
   3   5   3  326.07    8.10
   3   5   3  326.17    8.50
   3   5   3  324.07    7.60
  -4  -5  -3   -0.70    0.80
  -4  -5  -3    0.20    0.90
  -4  -5  -3   -0.10    0.90
   4   5   3    0.20    1.10
   4   5   3    0.60    1.00
   4   5   3    0.30    0.70
  -5  -5  -3   54.09    3.10
  -5  -5  -3   48.50    2.90
  -5  -5  -3   52.29    2.90
   5   5   3   51.79    3.00
   5   5   3   51.39    2.90
   5   5   3   55.79    3.40
  -6  -5  -3   38.20    2.80
  -6  -5  -3   36.30    3.30
   6   5   3   37.20    3.00
   6   5   3   41.20    3.60
   6   5   3   35.70    3.00
   6   5   3   35.70    3.60
  -7  -5  -3   45.30    4.20
  -7  -5  -3   51.89    3.30
   7   5   3   45.40    4.80
   7   5   3   48.50    3.40
   7   5   3   50.59    3.50
  -8  -5  -3   45.00    3.30
   8   5   3   35.20    4.30
   8   5   3   41.90    3.80
   8   5   3   35.80    3.70
  -9  -5  -3   71.79    4.20
   9   5   3   76.19    5.20
   9   5   3   69.19    5.70
   5  -6  -3    0.50    2.50
   5  -6  -3    3.30    1.80
  -5   6   3    3.00    3.10
   4  -6  -3   -0.10    1.40
   4  -6  -3   -0.10    1.80
   4  -6  -3    0.50    2.30
   4  -6  -3   -0.30    1.60
  -4   6   3   -2.20    2.20
  -4   6   3    0.50    2.10
   3  -6  -3    1.20    1.40
   3  -6  -3   -1.00    1.20
   3  -6  -3    0.70    1.40
   3  -6  -3    0.80    1.70
  -3   6   3   -0.20    1.80
  -3   6   3    1.60    2.00
   2  -6  -3    0.10    1.50
   2  -6  -3    2.50    1.60
   2  -6  -3    0.10    1.10
   2  -6  -3   -1.10    1.10
   2  -6  -3   -0.20    1.30
  -2   6   3    0.90    1.60
  -2   6   3    1.60    1.70
   1  -6  -3   15.90    2.50
   1  -6  -3   20.50    3.40
   1  -6  -3   16.70    2.40
   1  -6  -3   16.10    1.90
   1  -6  -3   17.20    1.90
  -1   6   3   17.40    3.10
  -1   6   3   19.60    2.70
  -1   6   3   11.40    2.60
   0  -6  -3   -1.40    0.90
   0  -6  -3    0.40    0.70
   0  -6  -3   -0.80    0.70
   0  -6  -3   -0.10    1.40
   0  -6  -3   -1.10    1.10
   0   6   3    0.40    1.20
   0   6   3   -0.30    1.10
   0   6   3    1.30    1.40
  -1  -6  -3    7.80    1.60
  -1  -6  -3    6.60    1.90
  -1  -6  -3    6.30    1.30
  -1  -6  -3    5.20    1.50
   1   6   3    6.30    1.30
   1   6   3    9.80    2.40
   1   6   3    5.30    1.30
   1   6   3    8.30    1.70
  -2  -6  -3    6.10    1.60
  -2  -6  -3    7.80    1.90
  -2  -6  -3    6.50    2.10
  -2  -6  -3    5.20    1.30
   2   6   3    5.10    1.80
   2   6   3    7.40    1.80
   2   6   3    5.00    1.30
   2   6   3    7.20    2.40
  -3  -6  -3   38.50    2.30
  -3  -6  -3   40.10    2.70
  -3  -6  -3   44.00    2.40
  -3  -6  -3   40.50    2.70
   3   6   3   43.00    2.20
   3   6   3   43.80    3.10
   3   6   3   43.10    2.60
   3   6   3   39.30    2.20
  -4  -6  -3   45.50    2.90
  -4  -6  -3   41.90    2.10
  -4  -6  -3   40.80    2.80
  -4  -6  -3   45.10    3.30
   4   6   3   45.00    2.80
   4   6   3   44.70    2.60
   4   6   3   44.70    3.10
  -5  -6  -3   24.60    2.40
  -5  -6  -3   23.80    2.70
  -5  -6  -3   25.40    2.80
   5   6   3   23.10    3.00
   5   6   3   23.70    2.70
   5   6   3   23.80    2.70
  -6  -6  -3    0.70    1.30
  -6  -6  -3    0.60    1.60
  -6  -6  -3    0.70    1.20
   6   6   3   -0.90    1.60
   6   6   3    0.20    1.50
   6   6   3    0.60    1.30
  -7  -6  -3    7.40    1.90
  -7  -6  -3    5.90    2.20
   7   6   3    5.90    2.00
   7   6   3    6.00    2.40
   7   6   3    7.10    1.70
  -8  -6  -3   23.20    4.40
   8   6   3   13.30    3.50
   8   6   3   19.80    4.30
   8   6   3   16.70    4.20
  -9  -6  -3   -1.20    2.30
   9   6   3    0.20    2.60
   9   6   3   -0.30    2.30
   4  -7  -3   -2.00    2.90
   4  -7  -3    4.80    2.20
   4  -7  -3   -0.70    1.80
  -4   7   3    5.50    3.20
   3  -7  -3   67.99    5.20
   3  -7  -3   69.29    5.10
   3  -7  -3   66.09    4.10
   3  -7  -3   62.69    4.30
  -3   7   3   59.79    5.30
   2  -7  -3   27.10    4.00
   2  -7  -3   20.50    3.00
   2  -7  -3   16.70    2.80
   2  -7  -3   18.90    3.10
  -2   7   3   19.90    4.20
  -2   7   3   31.10    4.30
   1  -7  -3    6.00    1.70
   1  -7  -3    5.80    1.90
   1  -7  -3    7.70    2.20
   1  -7  -3   11.20    2.20
  -1   7   3    5.10    2.00
  -1   7   3    5.80    2.00
   0  -7  -3   19.80    2.70
   0  -7  -3   22.10    2.20
   0  -7  -3   22.50    1.90
   0  -7  -3   22.50    3.50
   0   7   3   22.50    3.20
   0   7   3   22.50    3.10
   0   7   3   24.80    3.50
  -1  -7  -3  113.89    4.70
  -1  -7  -3  117.39    3.90
  -1  -7  -3  124.99    5.30
  -1  -7  -3  127.59    4.90
   1   7   3  117.79    4.80
   1   7   3  121.89    3.80
   1   7   3  120.89    6.20
   1   7   3  119.79    4.90
  -2  -7  -3    8.40    2.10
  -2  -7  -3    6.00    1.60
  -2  -7  -3    9.20    2.60
  -2  -7  -3    7.50    2.10
   2   7   3    7.70    2.30
   2   7   3    6.80    1.70
   2   7   3   10.50    2.00
   2   7   3    8.50    2.60
  -3  -7  -3   43.10    3.10
  -3  -7  -3   40.70    2.80
  -3  -7  -3   43.10    2.80
   3   7   3   44.80    2.50
   3   7   3   47.20    2.80
   3   7   3   44.40    3.10
  -4  -7  -3    4.90    1.50
  -4  -7  -3    1.90    0.90
  -4  -7  -3    3.80    1.40
  -4  -7  -3    2.00    1.40
   4   7   3    1.70    1.50
   4   7   3    3.50    1.20
   4   7   3    3.10    0.90
   4   7   3    1.40    1.10
  -5  -7  -3   88.39    4.30
  -5  -7  -3   72.79    3.90
   5   7   3   77.89    4.10
   5   7   3   72.39    3.90
   5   7   3   80.79    4.00
  -6  -7  -3    6.50    2.00
  -6  -7  -3   15.00    3.10
   6   7   3    7.20    1.90
   6   7   3    6.70    2.00
   6   7   3   15.10    3.50
  -7  -7  -3   95.89    5.00
  -7  -7  -3   80.69    5.40
   7   7   3   87.19    4.70
   7   7   3   89.49    5.30
  -8  -7  -3    1.90    2.10
   8   7   3    1.30    2.00
   8   7   3    3.10    2.50
  -9  -7  -3    1.60    2.50
   9   7   3    3.50    3.00
   9   7   3    0.40    2.50
   3  -8  -3   21.80    5.20
  -3   8   3   21.30    6.90
   2  -8  -3   -0.70    1.90
   2  -8  -3   -0.50    2.20
   2  -8  -3    2.00    1.80
  -2   8   3   -0.20    2.60
   1  -8  -3   -0.70    1.70
   1  -8  -3    0.40    1.40
   1  -8  -3   -0.80    2.40
   1  -8  -3    0.40    2.10
   0  -8  -3    8.00    2.30
   0  -8  -3    7.80    2.20
   0  -8  -3   11.60    3.30
   0  -8  -3   10.30    2.90
   0   8   3   18.90    4.00
  -1  -8  -3    0.80    1.80
  -1  -8  -3    1.50    1.50
  -1  -8  -3    2.10    1.60
   1   8   3    3.40    1.90
   1   8   3    1.00    1.70
  -2  -8  -3   12.50    3.20
  -2  -8  -3    5.40    1.80
  -2  -8  -3    6.00    1.60
   2   8   3    4.90    1.80
   2   8   3    9.20    2.20
   2   8   3   10.70    3.00
  -3  -8  -3    1.70    1.30
  -3  -8  -3   -0.40    1.50
  -3  -8  -3   -0.10    1.40
   3   8   3    1.00    1.60
   3   8   3    0.30    1.20
   3   8   3   -1.70    1.10
  -4  -8  -3   -0.20    1.20
  -4  -8  -3   -0.10    1.50
  -4  -8  -3    0.20    1.30
   4   8   3   -0.20    1.20
   4   8   3    1.70    1.60
   4   8   3   -0.80    1.20
  -5  -8  -3  123.19    5.50
  -5  -8  -3  107.89    5.10
   5   8   3  116.29    4.90
   5   8   3  111.79    5.40
  -6  -8  -3   20.80    3.80
  -6  -8  -3   11.70    2.60
   6   8   3    9.80    2.20
   6   8   3   12.50    3.80
  -7  -8  -3   26.50    5.30
  -7  -8  -3   34.70    4.60
   7   8   3   32.60    4.80
  -8  -8  -3    6.50    2.70
   8   8   3    6.50    3.00
   8   8   3   -2.50    2.30
   1  -9  -3   25.50    5.70
   1  -9  -3   15.50    4.60
  -1   9   3   35.20    6.00
   0  -9  -3    2.40    2.40
   0  -9  -3    0.30    2.10
  -1  -9  -3   15.70    4.20
   1   9   3   24.60    4.40
  -2  -9  -3    5.20    3.80
  -2  -9  -3    5.10    2.00
   2   9   3    2.60    1.60
   2   9   3   14.60    4.00
   2   9   3   -0.70    2.10
  -3  -9  -3   18.20    3.90
  -3  -9  -3   29.10    4.20
   3   9   3   25.90    3.80
   3   9   3   16.30    3.70
   3   9   3   19.50    2.90
  -4  -9  -3    2.10    1.60
  -4  -9  -3    1.40    1.80
  -4  -9  -3    1.10    2.10
   4   9   3    1.20    1.60
   4   9   3   -1.30    1.60
   4   9   3    0.30    1.80
  -5  -9  -3   19.50    4.30
  -5  -9  -3   24.80    4.10
  -5  -9  -3   15.80    2.70
   5   9   3   13.30    3.40
   5   9   3   17.60    3.60
  -6  -9  -3    1.70    3.60
   6   9   3   -0.20    1.90
   6   9   3    0.20    2.00
  -7  -9  -3   17.90    5.20
   7   9   3    1.80    2.50
  -8  -9  -3    2.30    3.10
   8   9   3    2.60    3.20
   8   9   3    1.50    3.30
  -1 -10  -3    8.80    3.20
  -1 -10  -3   17.70    5.60
  -2 -10  -3    4.50    2.70
  -2 -10  -3    4.20    2.90
  -3 -10  -3   11.90    2.90
   4  10   3   13.20    4.40
   5  10   3   19.70    4.30
   6  10   3    3.10    3.20
   6  10   3    1.90    2.70
   6   9  -4    4.20    3.10
   6   9  -4    0.70    3.10
   5   9  -4    8.10    3.10
   5   9  -4    7.10    3.10
   4   9  -4   -1.60    2.80
   4   9  -4    4.30    2.90
  -4  -9   4    0.10    3.50
   3   9  -4   18.80    5.60
   3   9  -4   -0.20    2.60
  -3  -9   4   -1.40    2.70
   2   9  -4   41.30    6.40
   2   9  -4   53.99    6.50
  -2  -9   4   45.40    5.70
  -2  -9   4   31.90    6.10
   1   9  -4    1.30    3.10
  -1  -9   4   17.30    5.70
  -1  -9   4    1.60    3.10
   7   8  -4    3.20    2.80
  -7  -8   4   16.30    4.50
   6   8  -4   18.30    5.40
  -6  -8   4   18.20    4.00
   5   8  -4    3.70    2.30
   5   8  -4    7.00    2.50
  -5  -8   4    2.90    1.80
   4   8  -4   39.40    4.50
   4   8  -4   30.30    4.60
  -4  -8   4   30.50    3.90
  -4  -8   4   24.50    3.60
   3   8  -4   15.50    4.40
   3   8  -4   15.40    3.90
   3   8  -4   24.00    4.50
  -3  -8   4   19.70    4.00
  -3  -8   4   18.30    3.50
   2   8  -4   30.80    4.90
   2   8  -4   20.90    5.40
   2   8  -4   21.60    4.50
  -2  -8   4   31.90    4.00
  -2  -8   4   21.70    4.30
   1   8  -4    2.40    2.40
   1   8  -4   15.60    5.00
  -1  -8   4    3.20    2.30
  -1  -8   4    5.30    2.20
   0   8  -4    2.00    2.60
   0   8  -4    4.00    2.90
   0  -8   4   -1.30    2.20
   0  -8   4    4.50    2.40
  -1   8  -4    2.20    3.40
   1  -8   4   -3.20    2.50
   1  -8   4    3.40    2.60
   8   7  -4   31.70    6.00
  -8  -7   4   17.50    4.80
   7   7  -4   18.70    5.00
  -7  -7   4    1.70    1.90
   6   7  -4    7.00    2.30
   6   7  -4    3.10    2.20
  -6  -7   4    6.20    2.20
  -6  -7   4    3.50    1.20
  -6  -7   4    4.20    1.80
   5   7  -4    4.30    2.10
   5   7  -4   16.30    4.10
  -5  -7   4    6.90    1.90
  -5  -7   4    5.40    1.50
  -5  -7   4    7.80    2.60
   4   7  -4  415.26   11.30
   4   7  -4  403.06   11.00
  -4  -7   4  402.06   10.10
  -4  -7   4  414.96   10.90
  -4  -7   4  372.86   11.10
  -4  -7   4  373.86   10.10
  -4  -7   4  372.56   10.70
   3   7  -4   26.60    5.50
   3   7  -4   35.70    3.90
  -3  -7   4   27.60    3.10
  -3  -7   4   28.50    4.10
  -3  -7   4   22.60    3.20
  -3  -7   4   22.30    3.40
   2   7  -4  150.68    6.20
   2   7  -4  130.09    5.60
   2   7  -4  138.79    6.20
  -2  -7   4  139.99    5.70
  -2  -7   4  146.79    5.70
  -2  -7   4  136.99    5.90
   1   7  -4   22.80    4.00
   1   7  -4   16.80    3.60
  -1  -7   4   23.40    3.30
  -1  -7   4   17.00    3.70
  -1  -7   4   16.20    3.50
   0   7  -4   96.59    5.70
   0   7  -4  107.29    5.90
   0  -7   4   86.99    5.40
   0  -7   4  103.79    5.00
   0  -7   4   98.49    5.40
  -1   7  -4   38.50    5.20
  -1   7  -4   34.60    5.20
   1  -7   4   27.10    4.40
   1  -7   4   38.20    4.20
  -2   7  -4   54.09    6.30
  -2   7  -4   42.90    5.80
   2  -7   4   33.70    4.80
   2  -7   4   39.70    4.60
   2  -7   4   43.20    4.40
  -3   7  -4    5.50    3.60
   3  -7   4    1.60    2.30
   3  -7   4    2.50    2.70
   3  -7   4   -2.90    2.30
   9   6  -4    8.10    3.10
  -9  -6   4   18.00    5.20
   8   6  -4    5.00    2.50
  -8  -6   4    8.70    2.30
   7   6  -4   54.69    4.40
   7   6  -4   71.89    5.30
  -7  -6   4   60.89    5.20
  -7  -6   4   58.79    4.40
   6   6  -4   56.99    4.60
  -6  -6   4   42.80    2.40
  -6  -6   4   44.40    2.30
  -6  -6   4   49.80    3.80
  -6  -6   4   44.00    3.60
   5   6  -4   62.49    5.00
   5   6  -4   60.59    4.00
   5   6  -4   50.79    3.40
  -5  -6   4   52.19    4.50
  -5  -6   4   59.29    2.80
  -5  -6   4   58.29    2.80
  -5  -6   4   56.19    3.50
  -5  -6   4   67.29    3.90
   4   6  -4    5.10    1.90
   4   6  -4    4.30    1.30
   4   6  -4   10.30    3.10
  -4  -6   4    4.90    1.20
  -4  -6   4    5.80    2.00
  -4  -6   4    2.70    1.60
  -4  -6   4    8.90    2.40
  -4  -6   4    3.60    1.90
   3   6  -4    1.30    1.60
   3   6  -4    0.70    1.30
   3   6  -4   -0.20    1.40
  -3  -6   4   -0.50    1.60
  -3  -6   4   -1.10    1.40
  -3  -6   4    0.90    1.10
  -3  -6   4   -1.00    1.00
  -3  -6   4    0.10    1.60
   2   6  -4   14.20    3.00
   2   6  -4   10.00    2.20
   2   6  -4   14.40    2.90
   2   6  -4   14.80    2.50
  -2  -6   4   17.70    3.10
  -2  -6   4   16.60    2.80
  -2  -6   4   14.10    2.60
  -2  -6   4   17.60    2.70
   1   6  -4    2.50    1.50
   1   6  -4    4.40    1.50
   1   6  -4    5.10    1.80
   1   6  -4    2.70    1.50
  -1  -6   4    4.20    1.60
  -1  -6   4    3.40    1.50
  -1  -6   4    2.90    1.60
  -1  -6   4    4.00    1.50
   0   6  -4    7.50    1.90
   0   6  -4    5.00    1.50
   0   6  -4    5.00    1.70
   0   6  -4    5.10    1.70
   0  -6   4    5.40    1.60
   0  -6   4    6.00    1.60
   0  -6   4    8.10    2.80
  -1   6  -4   67.59    4.70
  -1   6  -4   56.09    4.00
   1  -6   4   55.29    4.30
   1  -6   4   64.49    3.80
   1  -6   4   63.19    4.40
  -2   6  -4    8.70    2.40
  -2   6  -4   19.10    4.40
   2  -6   4   11.80    3.30
   2  -6   4   10.80    3.20
   2  -6   4   13.00    3.20
  -3   6  -4    3.10    2.60
  -3   6  -4    1.50    2.30
   3  -6   4   -2.00    1.70
   3  -6   4    0.10    1.60
   3  -6   4    1.30    1.90
  -4   6  -4   18.40    5.60
   4  -6   4    4.20    2.70
   9   5  -4   14.60    4.60
  -9  -5   4   24.80    4.70
   8   5  -4    9.20    2.50
   8   5  -4   10.50    2.40
  -8  -5   4   14.00    3.80
   7   5  -4    0.40    1.90
   7   5  -4    2.50    1.90
   7   5  -4    2.30    2.00
   7   5  -4    3.40    1.60
  -7  -5   4    1.30    0.70
  -7  -5   4   -0.90    1.50
   6   5  -4  288.87    8.40
   6   5  -4  296.97    8.40
   6   5  -4  317.77    9.20
  -6  -5   4  289.47    8.20
  -6  -5   4  286.07    7.00
  -6  -5   4  302.47    8.50
  -6  -5   4  272.67    8.70
  -6  -5   4  292.77    6.90
   5   5  -4  222.08    6.80
   5   5  -4  228.88    7.30
   5   5  -4  208.68    6.60
  -5  -5   4  209.48    6.40
  -5  -5   4  205.58    5.50
  -5  -5   4  220.48    5.70
  -5  -5   4  226.18    7.30
  -5  -5   4  234.58    6.90
   4   5  -4  104.79    4.40
   4   5  -4   97.09    4.00
   4   5  -4  100.99    4.50
  -4  -5   4  103.89    3.60
  -4  -5   4  105.39    3.60
  -4  -5   4  101.49    4.10
  -4  -5   4  106.39    4.40
  -4  -5   4  104.79    4.70
   3   5  -4   89.09    4.00
   3   5  -4   86.79    4.00
   3   5  -4   84.49    3.80
  -3  -5   4   90.59    3.90
  -3  -5   4   93.19    4.00
  -3  -5   4   92.89    3.50
  -3  -5   4   89.89    4.20
   2   5  -4  122.09    4.70
   2   5  -4  125.19    4.60
   2   5  -4  117.69    4.30
   2   5  -4  117.89    4.30
  -2  -5   4  124.79    4.40
  -2  -5   4  120.49    4.50
  -2  -5   4  126.59    4.70
  -2  -5   4  121.09    4.50
   1   5  -4  139.39    4.90
   1   5  -4  136.19    5.10
   1   5  -4  134.09    4.70
   1   5  -4  136.89    5.00
  -1  -5   4  137.79    4.80
  -1  -5   4  133.79    4.80
  -1  -5   4  142.99    4.90
  -1  -5   4  133.99    4.80
   0   5  -4  184.18    6.20
   0   5  -4  192.78    6.00
   0   5  -4  197.18    6.50
   0   5  -4  204.08    6.60
   0  -5   4  199.78    6.10
   0  -5   4  191.48    6.10
   0  -5   4  194.88    6.20
   0  -5   4  203.08    6.50
  -1   5  -4    0.70    1.10
  -1   5  -4   -0.40    1.30
  -1   5  -4   -1.20    1.30
  -1   5  -4    0.50    1.30
   1  -5   4    1.10    1.20
   1  -5   4    0.40    1.20
   1  -5   4   -0.10    1.20
   1  -5   4   -0.10    1.40
  -2   5  -4    3.20    1.40
  -2   5  -4    2.50    1.60
  -2   5  -4    3.60    1.70
   2  -5   4    4.20    1.40
   2  -5   4    8.60    2.70
   2  -5   4    5.00    1.80
   2  -5   4    7.60    2.00
  -3   5  -4   -0.50    2.00
  -3   5  -4    0.90    1.60
   3  -5   4   -0.20    1.30
   3  -5   4    1.80    1.60
   3  -5   4   -0.30    1.20
  -4   5  -4   15.30    4.20
   4  -5   4    4.50    1.90
   4  -5   4   11.90    4.00
   4  -5   4    5.60    1.50
  -5   5  -4    0.70    2.80
   5  -5   4   -2.90    2.20
   9   4  -4   23.70    3.80
   9   4  -4   26.60    4.40
  -9  -4   4   24.80    4.10
   8   4  -4    9.90    2.30
   8   4  -4    9.40    2.10
   8   4  -4   10.80    3.20
   8   4  -4   12.80    4.30
   8   4  -4   10.00    3.20
  -8  -4   4   12.10    3.40
  -8  -4   4   11.00    2.90
   7   4  -4   42.60    3.80
   7   4  -4   39.40    2.30
   7   4  -4   34.60    3.40
   7   4  -4   41.70    3.30
   7   4  -4   38.20    3.30
  -7  -4   4   37.70    2.90
  -7  -4   4   38.60    3.40
   6   4  -4   49.00    3.20
   6   4  -4   46.40    3.20
   6   4  -4   46.00    3.10
  -6  -4   4   43.10    3.40
  -6  -4   4   46.10    2.70
  -6  -4   4   51.59    3.40
   5   4  -4    2.90    1.20
   5   4  -4    4.00    1.40
   5   4  -4    3.80    1.40
  -5  -4   4    2.10    0.90
  -5  -4   4    2.40    1.30
  -5  -4   4    3.90    1.20
  -5  -4   4    3.90    1.30
  -5  -4   4    3.40    1.30
   4   4  -4    9.10    2.30
   4   4  -4   11.50    1.60
   4   4  -4   13.70    2.20
  -4  -4   4   10.40    1.70
  -4  -4   4   12.90    2.20
  -4  -4   4   14.10    1.50
  -4  -4   4   10.50    2.20
  -4  -4   4   14.20    1.50
   3   4  -4   19.30    2.20
   3   4  -4   17.70    1.80
   3   4  -4   19.60    2.20
  -3  -4   4   21.10    1.60
  -3  -4   4   20.20    1.90
  -3  -4   4   21.60    2.20
  -3  -4   4   19.20    2.10
  -3  -4   4   18.20    1.60
   2   4  -4  174.58    5.40
   2   4  -4  175.18    5.20
   2   4  -4  173.48    5.20
  -2  -4   4  175.88    5.10
  -2  -4   4  176.18    5.30
  -2  -4   4  176.58    5.10
  -2  -4   4  175.18    5.30
   1   4  -4  280.37    7.30
   1   4  -4  280.17    7.20
   1   4  -4  281.97    7.60
   1   4  -4  279.77    7.30
  -1  -4   4  276.37    7.30
  -1  -4   4  280.57    7.20
  -1  -4   4  280.57    7.40
  -1  -4   4  276.37    7.30
   0   4  -4  758.12   17.30
   0   4  -4  776.12   17.20
   0   4  -4  758.12   16.70
   0   4  -4  761.12   17.20
   0  -4   4  750.52   17.00
   0  -4   4  767.02   16.80
   0  -4   4  786.82   17.40
   0  -4   4  763.72   17.00
  -1   4  -4   32.50    2.80
  -1   4  -4   32.20    2.40
  -1   4  -4   33.70    2.80
  -1   4  -4   37.50    2.50
   1  -4   4   33.20    2.80
   1  -4   4   33.90    2.30
   1  -4   4   37.50    2.50
   1  -4   4   35.10    2.70
  -2   4  -4   15.50    2.60
  -2   4  -4   18.90    2.40
  -2   4  -4   20.90    2.30
  -2   4  -4   20.30    2.90
   2  -4   4   18.20    1.90
   2  -4   4   21.30    3.00
   2  -4   4   20.80    2.70
   2  -4   4   17.80    2.20
  -3   4  -4    5.20    1.40
  -3   4  -4    7.60    1.90
  -3   4  -4    3.20    1.30
   3  -4   4    5.60    1.80
   3  -4   4    5.70    1.60
   3  -4   4    8.40    1.90
   3  -4   4    4.40    1.50
  -4   4  -4  116.69    4.00
  -4   4  -4  127.79    5.90
   4  -4   4  114.69    5.50
   4  -4   4  122.29    5.40
   4  -4   4  115.69    3.70
  -5   4  -4   20.80    4.30
   5  -4   4    5.90    2.20
   5  -4   4   12.10    3.70
  -6   4  -4   22.90    5.50
   6  -4   4    8.00    2.70
   6  -4   4   13.50    3.10
   9   3  -4    5.40    2.40
   9   3  -4    0.90    1.50
   9   3  -4    4.20    2.00
  -9  -3   4   11.70    3.50
   8   3  -4   97.49    5.70
   8   3  -4  105.99    4.90
   8   3  -4  106.69    4.60
   8   3  -4  103.39    4.10
   8   3  -4  108.99    5.40
  -8  -3   4  109.39    4.60
  -8  -3   4  100.69    4.70
   7   3  -4   18.10    2.10
   7   3  -4   20.80    3.20
   7   3  -4   22.20    3.20
   7   3  -4   21.40    2.70
   7   3  -4   19.40    2.70
  -7  -3   4   19.40    3.00
  -7  -3   4   21.30    2.80
   6   3  -4   23.40    3.10
   6   3  -4   23.50    2.40
   6   3  -4   24.10    2.40
   6   3  -4   25.90    2.40
   6   3  -4   22.10    1.80
  -6  -3   4   24.60    2.50
  -6  -3   4   23.40    2.90
  -6  -3   4   23.80    2.70
   5   3  -4  275.17    7.90
   5   3  -4  271.47    7.20
   5   3  -4  269.47    7.10
   5   3  -4  273.07    6.70
   5   3  -4  283.47    7.10
  -5  -3   4  266.67    6.70
  -5  -3   4  270.87    7.80
  -5  -3   4  288.97    7.40
   4   3  -4   21.30    1.80
   4   3  -4   19.80    1.80
   4   3  -4   19.00    2.30
   4   3  -4   18.20    1.50
  -4  -3   4   17.30    1.50
  -4  -3   4   21.90    2.10
  -4  -3   4   19.40    1.60
  -4  -3   4   19.90    2.30
   3   3  -4   57.49    2.80
   3   3  -4   60.99    2.50
   3   3  -4   61.09    2.50
  -3  -3   4   62.29    2.80
  -3  -3   4   61.09    2.40
  -3  -3   4   59.49    2.30
  -3  -3   4   62.09    2.40
  -3  -3   4   59.19    2.90
   2   3  -4 1188.78   24.40
   2   3  -4 1183.08   24.80
   2   3  -4 1154.78   24.50
  -2  -3   4 1162.28   24.60
  -2  -3   4 1168.98   24.90
  -2  -3   4 1200.88   24.60
  -2  -3   4 1186.68   24.30
  -2  -3   4 1198.28   24.50
   1   3  -4   10.40    1.20
   1   3  -4    8.00    1.50
   1   3  -4    7.30    1.40
   1   3  -4   10.50    1.40
  -1  -3   4    7.80    1.30
  -1  -3   4    9.80    1.40
  -1  -3   4    9.90    1.50
   0   3  -4    0.80    0.80
   0   3  -4    0.70    0.60
   0   3  -4    1.70    0.70
   0   3  -4    0.50    0.70
   0  -3   4    1.20    0.70
   0  -3   4    0.80    0.70
   0  -3   4    1.90    0.80
   0  -3   4    1.50    0.80
  -1   3  -4   39.70    2.10
  -1   3  -4   39.00    2.40
  -1   3  -4   37.00    2.50
  -1   3  -4   38.00    2.20
   1  -3   4   37.50    2.00
   1  -3   4   37.50    2.10
   1  -3   4   37.10    2.30
   1  -3   4   35.30    2.30
  -2   3  -4    0.50    0.80
  -2   3  -4   -0.10    0.80
  -2   3  -4    0.50    1.00
  -2   3  -4    0.00    1.00
   2  -3   4    1.30    1.00
   2  -3   4    0.60    0.80
   2  -3   4    0.40    0.80
  -3   3  -4    2.60    0.90
  -3   3  -4    4.00    1.30
  -3   3  -4    4.20    1.30
   3  -3   4    2.70    1.40
   3  -3   4    2.50    0.90
   3  -3   4    3.20    1.20
   3  -3   4    2.70    1.20
  -4   3  -4    4.70    1.50
  -4   3  -4    3.40    1.70
  -4   3  -4    3.50    1.20
   4  -3   4    4.90    1.50
   4  -3   4    5.30    1.50
   4  -3   4    2.70    1.70
  -5   3  -4    1.90    2.00
   5  -3   4    2.00    1.60
   5  -3   4   -0.10    1.70
  -6   3  -4    0.40    2.30
   6  -3   4   -2.80    2.00
  -7   3  -4   -3.90    2.90
   7  -3   4    1.50    2.50
   7  -3   4   -3.80    2.40
   9   2  -4   32.30    4.10
   9   2  -4   31.30    4.00
   9   2  -4   25.80    4.30
   8   2  -4   40.30    3.10
   8   2  -4   50.99    3.70
   8   2  -4   43.90    4.20
   8   2  -4   48.30    3.50
   8   2  -4   41.20    4.30
  -8  -2   4   38.60    4.20
  -8  -2   4   44.70    3.10
   7   2  -4   10.20    2.80
   7   2  -4    4.80    1.30
   7   2  -4    3.70    1.70
   7   2  -4    5.90    1.50
   7   2  -4    5.20    1.30
  -7  -2   4    3.70    1.60
  -7  -2   4    5.90    1.40
   6   2  -4    1.50    1.00
   6   2  -4    2.80    0.90
   6   2  -4    3.10    1.20
   6   2  -4    1.40    1.60
   6   2  -4    6.20    2.00
  -6  -2   4    3.10    1.30
  -6  -2   4    2.70    1.30
   5   2  -4   81.19    4.00
   5   2  -4   78.59    2.90
   5   2  -4   82.29    3.10
   5   2  -4   79.89    3.00
   5   2  -4   73.19    3.20
  -5  -2   4   85.69    3.30
  -5  -2   4   78.49    3.30
  -5  -2   4   78.89    3.70
   4   2  -4  892.11   18.40
   4   2  -4  881.21   18.30
   4   2  -4  798.42   18.90
   4   2  -4  882.41   19.10
   4   2  -4  868.91   18.20
  -4  -2   4  867.71   19.00
  -4  -2   4  895.61   18.50
  -4  -2   4  878.11   18.30
   3   2  -4  544.85   12.40
   3   2  -4  547.45   11.70
   3   2  -4  551.44   12.00
   3   2  -4  548.35   12.00
  -3  -2   4  554.64   11.70
  -3  -2   4  556.44   12.10
  -3  -2   4  543.45   11.80
  -3  -2   4  532.15   13.00
   2   2  -4 1427.36   30.30
   2   2  -4 1522.15   30.20
   2   2  -4 1487.15   29.80
  -2  -2   4 1501.75   30.20
  -2  -2   4 1500.85   30.20
  -2  -2   4 1434.06   30.30
  -2  -2   4 1486.55   29.70
   1   2  -4   20.20    1.30
   1   2  -4   21.20    1.60
   1   2  -4   21.70    1.40
  -1  -2   4   21.40    1.30
  -1  -2   4   21.50    1.50
  -1  -2   4   23.20    1.60
  -1  -2   4   23.00    1.50
  -1  -2   4   21.30    1.40
   0   2  -4    4.60    1.00
   0   2  -4    3.90    1.00
   0   2  -4    4.90    0.90
   0   2  -4    4.70    1.00
   0  -2   4    4.00    1.10
   0  -2   4    4.90    0.90
   0  -2   4    5.70    1.10
   0  -2   4    6.40    1.10
  -1   2  -4  353.06    8.30
  -1   2  -4  353.86    7.80
  -1   2  -4  357.16    8.60
   1  -2   4  338.57    8.10
   1  -2   4  310.67    8.90
   1  -2   4  354.56    8.60
   1  -2   4  349.77    7.90
  -2   2  -4  440.66   10.50
  -2   2  -4  445.46    9.70
  -2   2  -4  456.25   10.90
  -2   2  -4  435.36   10.70
   2  -2   4  440.46   10.70
   2  -2   4  447.96    9.70
   2  -2   4  431.16   10.40
   2  -2   4  443.56   10.70
  -3   2  -4  476.45   11.70
  -3   2  -4  492.55   11.80
  -3   2  -4  479.85   10.30
   3  -2   4  493.95   11.60
   3  -2   4  482.05   11.90
   3  -2   4  485.55   10.30
   3  -2   4  474.65   11.80
   3  -2   4  463.85   11.50
  -4   2  -4   45.80    3.10
  -4   2  -4   42.70    1.70
  -4   2  -4   41.40    3.00
   4  -2   4   47.70    3.40
   4  -2   4   48.90    3.20
   4  -2   4   41.30    2.80
   4  -2   4   37.90    3.30
   4  -2   4   42.80    1.70
  -5   2  -4    4.50    1.60
  -5   2  -4    2.40    1.60
   5  -2   4    3.90    1.50
   5  -2   4    2.70    1.60
   5  -2   4    3.90    1.60
   5  -2   4    2.60    1.80
  -6   2  -4   24.80    3.80
   6  -2   4   19.10    3.50
   6  -2   4   18.00    4.00
  -7   2  -4    3.70    2.40
   7  -2   4    3.90    2.20
   7  -2   4   -0.50    2.20
   9   1  -4   12.60    4.40
   9   1  -4    3.00    2.40
   9   1  -4    4.20    2.50
   8   1  -4    1.00    2.40
   8   1  -4   -3.00    1.70
   8   1  -4    1.90    1.70
   8   1  -4    1.80    1.60
  -8  -1   4   -0.70    2.10
  -8  -1   4    0.20    1.20
   7   1  -4   60.49    3.80
   7   1  -4   64.59    3.50
   7   1  -4   55.99    2.70
   7   1  -4   60.89    4.20
   7   1  -4   61.19    3.60
  -7  -1   4   58.49    4.10
  -7  -1   4   61.09    2.90
   6   1  -4   17.90    2.00
   6   1  -4   16.40    1.80
   6   1  -4   15.70    2.30
   6   1  -4   21.20    3.10
   6   1  -4   15.50    2.20
  -6  -1   4   14.00    2.80
  -6  -1   4   10.40    2.10
  -6  -1   4   20.80    2.20
   5   1  -4   17.40    1.90
   5   1  -4   14.20    1.80
   5   1  -4   17.20    1.70
   5   1  -4   18.10    1.60
   5   1  -4   16.00    2.60
  -5  -1   4   16.80    1.80
  -5  -1   4   14.50    2.00
   4   1  -4  169.68    4.70
   4   1  -4  175.98    5.40
   4   1  -4  170.78    4.70
   4   1  -4  180.28    4.60
   4   1  -4  173.08    4.50
  -4  -1   4  178.88    4.70
  -4  -1   4  175.48    4.90
  -4  -1   4  174.28    5.20
   3   1  -4   40.40    1.50
   3   1  -4   40.50    1.70
   3   1  -4   38.60    1.60
   3   1  -4   39.00    2.30
   3   1  -4   38.60    1.80
  -3  -1   4   37.90    1.80
  -3  -1   4   38.70    2.20
  -3  -1   4   40.70    1.80
   2   1  -4   63.79    2.20
   2   1  -4   65.79    2.30
   2   1  -4   62.79    1.90
  -2  -1   4   65.39    2.30
  -2  -1   4   63.99    1.80
  -2  -1   4   64.19    2.20
  -2  -1   4   64.99    2.50
   1   1  -4 1083.09   22.20
   1   1  -4 1058.49   22.40
   1   1  -4 1103.79   22.50
   1   1  -4 1112.89   21.70
  -1  -1   4 1113.49   21.70
  -1  -1   4 1040.60   22.30
  -1  -1   4 1089.89   22.20
  -1  -1   4 1096.79   22.40
   0   1  -4    1.60    0.50
   0   1  -4    0.50    0.40
   0   1  -4    0.60    0.50
   0  -1   4    0.60    0.50
   0  -1   4    0.50    0.40
   0  -1   4    0.20    0.40
   0  -1   4    0.40    0.50
   0  -1   4    0.30    0.50
  -1   1  -4   12.90    1.30
  -1   1  -4   11.80    1.10
  -1   1  -4   12.60    1.20
  -1   1  -4   12.70    1.00
   1  -1   4   12.90    1.10
   1  -1   4   14.50    1.10
   1  -1   4   13.70    1.30
   1  -1   4   12.40    1.20
  -2   1  -4  668.93   13.90
  -2   1  -4  678.73   14.70
  -2   1  -4  682.93   15.10
  -2   1  -4  672.63   14.80
   2  -1   4  618.64   15.70
   2  -1   4  667.03   14.60
   2  -1   4  690.03   14.90
   2  -1   4  698.73   14.00
  -3   1  -4   46.20    2.40
  -3   1  -4   43.30    2.50
  -3   1  -4   45.00    1.60
   3  -1   4   43.70    2.50
   3  -1   4   42.60    2.30
   3  -1   4   44.20    2.40
   3  -1   4   46.30    1.70
   3  -1   4   44.90    2.60
  -4   1  -4   16.70    2.10
  -4   1  -4   16.40    2.20
   4  -1   4   17.70    2.10
   4  -1   4   16.70    2.00
   4  -1   4   16.10    2.30
   4  -1   4   18.60    2.40
  -5   1  -4   11.40    2.60
  -5   1  -4   11.70    2.40
   5  -1   4    8.80    2.30
   5  -1   4   13.60    2.90
   5  -1   4   14.20    2.50
   5  -1   4    7.60    1.90
  -6   1  -4   78.29    4.80
  -6   1  -4   85.39    4.70
   6  -1   4   90.69    4.60
   6  -1   4   75.69    5.60
  -7   1  -4   11.30    3.70
   7  -1   4    2.00    1.90
   7  -1   4    2.70    2.30
  -8   1  -4   23.10    5.10
   8  -1   4   13.10    2.80
   8  -1   4   19.40    5.90
   9   0  -4   20.30    5.40
   8   0  -4    1.20    1.80
   8   0  -4   -2.20    2.00
  -8   0   4   -1.70    2.30
   7   0  -4    2.20    1.60
   7   0  -4    3.40    1.90
   7   0  -4    0.60    1.70
  -7   0   4    1.90    1.50
  -7   0   4    0.80    1.80
  -7   0   4    2.70    1.00
  -7   0   4    1.10    1.00
   6   0  -4  162.98    6.00
   6   0  -4  161.08    5.70
   6   0  -4  150.48    5.40
  -6   0   4  163.28    5.90
  -6   0   4  159.68    4.40
  -6   0   4  162.08    5.80
  -6   0   4  166.98    4.50
  -6   0   4  164.48    5.40
   5   0  -4  445.96   10.80
   5   0  -4  468.05   11.40
   5   0  -4  459.15   11.10
   5   0  -4  454.45   10.10
  -5   0   4  471.65   10.90
  -5   0   4  462.75   11.20
  -5   0   4  475.65   10.20
  -5   0   4  450.75   11.20
   4   0  -4  405.16    9.00
   4   0  -4  407.96    9.30
   4   0  -4  420.16    9.90
   4   0  -4  408.26    9.70
  -4   0   4  403.66    9.30
  -4   0   4  414.86    9.70
  -4   0   4  377.66   11.50
  -4   0   4  416.16    9.00
   3   0  -4   49.60    2.20
   3   0  -4   49.30    1.90
   3   0  -4   48.10    2.40
   3   0  -4   49.40    1.80
  -3   0   4   50.59    2.20
  -3   0   4   50.69    1.90
  -3   0   4   51.19    2.20
  -3   0   4   49.80    1.80
   2   0  -4    3.20    1.30
   2   0  -4    3.40    1.00
   2   0  -4    4.60    0.70
   2   0  -4    4.40    0.60
  -2   0   4    4.30    0.90
  -2   0   4    6.00    0.90
  -2   0   4    5.20    1.20
   1   0  -4  471.95   10.30
   1   0  -4  485.45   10.50
   1   0  -4  484.95   10.30
  -1   0   4  495.45   10.50
  -1   0   4  477.25   10.30
  -1   0   4  483.15   10.30
   0   0  -4  962.50   20.20
   0   0  -4  970.30   20.40
   0   0  -4  985.80   20.00
   0   0   4 1002.60   20.40
   0   0   4  986.90   20.10
   0   0   4 1011.90   20.10
   0   0   4  987.50   19.60
  -1   0  -4  331.57    7.90
  -1   0  -4  352.46    7.60
  -1   0  -4  343.17    7.50
   1   0   4  349.27    7.90
   1   0   4  349.47    7.90
   1   0   4  353.86    7.50
   1   0   4  344.77    8.00
   1   0   4  346.07    7.60
  -2   0  -4  113.69    3.40
  -2   0  -4  109.59    2.90
  -2   0  -4  113.49    3.40
   2   0   4  112.99    3.40
   2   0   4  112.29    3.40
   2   0   4  111.59    3.40
   2   0   4  112.99    2.90
   2   0   4  107.79    3.50
  -3   0  -4   13.90    1.40
  -3   0  -4   14.20    1.50
   3   0   4   13.60    1.70
   3   0   4   13.80    1.40
   3   0   4   14.70    1.50
   3   0   4   14.20    1.50
   3   0   4   13.90    0.90
   3   0   4   13.80    0.90
  -4   0  -4  119.99    4.10
  -4   0  -4  122.99    4.30
   4   0   4  113.69    3.30
   4   0   4  119.59    4.20
   4   0   4  116.59    2.80
   4   0   4  122.59    4.20
   4   0   4  116.39    4.50
   4   0   4  126.29    4.20
  -5   0  -4    3.70    1.20
  -5   0  -4    3.80    1.30
   5   0   4    3.40    1.50
   5   0   4    3.30    1.20
   5   0   4    2.80    1.10
   5   0   4    6.80    2.30
  -6   0  -4   43.40    3.40
  -6   0  -4   38.70    3.30
   6   0   4   35.60    3.90
   6   0   4   38.40    3.30
   6   0   4   39.80    3.80
   6   0   4   38.80    3.30
  -7   0  -4   -0.10    1.80
  -7   0  -4    4.30    2.20
   7   0   4   -2.20    1.40
  -8   0  -4    2.70    2.50
   8   0   4    1.30    1.80
   8   0   4    2.20    2.40
   8  -1  -4   -1.00    2.20
   8  -1  -4   14.30    5.00
  -8   1   4   -1.60    2.40
   7  -1  -4   16.30    3.80
   7  -1  -4   12.90    3.70
  -7   1   4   20.80    3.50
  -7   1   4   10.40    2.50
   6  -1  -4   83.29    4.60
   6  -1  -4   82.09    4.50
   6  -1  -4   78.29    3.90
  -6   1   4   90.39    4.20
  -6   1   4   80.49    4.40
  -6   1   4   76.69    4.60
  -6   1   4   82.29    2.70
  -6   1   4   89.19    2.80
   5  -1  -4   66.79    3.20
   5  -1  -4   70.39    3.90
   5  -1  -4   70.39    3.80
  -5   1   4   71.19    3.30
  -5   1   4   71.29    2.50
  -5   1   4   69.39    3.50
  -5   1   4   71.99    3.90
  -5   1   4   69.59    2.50
   4  -1  -4    1.60    0.90
   4  -1  -4    1.70    0.80
   4  -1  -4    2.10    1.10
  -4   1   4    2.10    0.60
  -4   1   4    1.50    0.90
  -4   1   4    2.20    0.70
  -4   1   4    1.50    1.00
  -4   1   4    2.50    0.80
   3  -1  -4  486.95   11.20
   3  -1  -4  493.05   11.00
   3  -1  -4  482.85   10.70
  -3   1   4  494.35   10.80
  -3   1   4  483.75   10.50
  -3   1   4  507.05   11.00
  -3   1   4  487.45   10.50
  -3   1   4  482.05   11.40
   2  -1  -4  218.08    5.00
   2  -1  -4  221.78    5.40
   2  -1  -4  218.08    5.60
  -2   1   4  215.18    5.20
  -2   1   4  215.28    5.60
  -2   1   4  226.48    5.10
  -2   1   4  221.48    5.30
  -2   1   4  225.08    5.20
   1  -1  -4   79.49    2.60
   1  -1  -4   77.99    2.40
   1  -1  -4   83.59    2.10
  -1   1   4   84.09    2.50
  -1   1   4   82.79    2.40
  -1   1   4   78.89    2.60
  -1   1   4   86.79    2.70
  -1   1   4   80.59    2.00
   0  -1  -4 9632.64  188.18
   0  -1  -4 9256.97  191.58
   0  -1  -4 9144.58  191.28
   0   1   4 9608.54  189.38
   0   1   4 9428.16  188.28
   0   1   4 9862.41  190.88
   0   1   4 9999.00  190.88
   0   1   4 9355.66  191.48
  -1  -1  -4  357.66    8.00
  -1  -1  -4  345.07    7.80
   1   1   4  353.66    7.80
   1   1   4  360.26    7.90
   1   1   4  350.16    7.70
   1   1   4  368.96    7.70
   1   1   4  350.36    7.70
  -2  -1  -4   38.30    1.80
   2   1   4   39.50    1.70
   2   1   4   41.10    1.70
   2   1   4   40.40    1.80
   2   1   4   40.50    1.90
   2   1   4   42.20    1.70
   2   1   4   38.80    1.50
  -3  -1  -4   55.89    2.40
  -3  -1  -4   55.49    2.20
   3   1   4   57.19    1.80
   3   1   4   56.59    2.40
   3   1   4   56.09    1.80
   3   1   4   54.49    2.20
   3   1   4   56.79    2.40
  -4  -1  -4  249.68    6.60
  -4  -1  -4  243.38    6.30
  -4  -1  -4  245.88    6.70
   4   1   4  245.58    5.50
   4   1   4  238.38    6.60
   4   1   4  245.18    6.60
   4   1   4  240.68    5.40
   4   1   4  243.58    6.30
  -5  -1  -4   44.70    2.90
  -5  -1  -4   43.50    2.70
  -5  -1  -4   45.60    2.60
   5   1   4   49.70    2.80
   5   1   4   45.00    2.90
   5   1   4   44.60    2.80
  -6  -1  -4   34.50    2.90
  -6  -1  -4   34.60    3.80
  -6  -1  -4   41.00    3.10
   6   1   4   32.60    3.70
   6   1   4   33.90    3.00
   6   1   4   38.40    3.30
  -7  -1  -4    0.90    1.60
  -7  -1  -4    2.20    1.60
   7   1   4   -0.80    1.20
   7   1   4    1.00    1.60
  -8  -1  -4   18.70    4.50
  -8  -1  -4   25.90    4.10
   8   1   4   24.10    5.80
   9   1   4    0.20    2.70
   8  -2  -4   55.69    6.00
  -8   2   4   50.89    5.70
   7  -2  -4   85.19    5.50
   7  -2  -4   64.99    5.10
  -7   2   4   75.09    4.90
   6  -2  -4   81.89    4.50
   6  -2  -4   74.49    4.20
  -6   2   4   73.29    4.40
  -6   2   4   77.99    4.40
  -6   2   4   65.79    4.70
   5  -2  -4    3.70    1.40
   5  -2  -4    2.80    1.60
   5  -2  -4    3.90    1.50
  -5   2   4    2.20    1.50
  -5   2   4    5.20    1.50
  -5   2   4    5.00    1.40
  -5   2   4    5.20    1.40
  -5   2   4    7.10    2.30
   4  -2  -4    8.60    2.20
   4  -2  -4    7.10    1.70
   4  -2  -4    4.50    1.40
  -4   2   4    6.90    1.30
  -4   2   4    6.20    1.20
  -4   2   4    7.50    2.00
  -4   2   4    7.80    1.80
  -4   2   4    7.40    1.80
   3  -2  -4    0.70    0.80
   3  -2  -4    0.70    0.80
   3  -2  -4   -0.60    0.80
  -3   2   4    0.40    0.70
  -3   2   4    0.60    0.90
  -3   2   4    0.00    0.60
  -3   2   4    1.40    0.80
  -3   2   4    1.10    0.60
   2  -2  -4  311.97    6.90
   2  -2  -4  301.27    7.50
   2  -2  -4  299.67    7.00
  -2   2   4  293.57    7.70
  -2   2   4  307.87    6.90
  -2   2   4  302.37    7.00
  -2   2   4  301.97    6.90
   1  -2  -4  309.37    7.20
   1  -2  -4  316.57    7.00
   1  -2  -4  318.27    7.60
  -1   2   4  312.47    7.50
  -1   2   4  319.57    7.10
  -1   2   4  330.27    6.80
  -1   2   4  311.87    7.10
   0  -2  -4   59.49    2.20
   0  -2  -4   59.79    1.50
   0  -2  -4   62.69    1.90
   0  -2  -4   62.19    2.10
   0   2   4   59.59    2.20
   0   2   4   62.49    2.00
   0   2   4   59.49    2.00
   0   2   4   59.99    1.60
  -1  -2  -4   37.10    1.60
  -1  -2  -4   38.20    1.50
  -1  -2  -4   38.20    1.60
   1   2   4   37.40    1.60
   1   2   4   39.40    1.60
   1   2   4   37.00    1.20
   1   2   4   38.30    1.30
   1   2   4   38.40    1.50
  -2  -2  -4  513.15   11.00
  -2  -2  -4  513.25   11.00
   2   2   4  513.45   10.90
   2   2   4  522.75   10.90
   2   2   4  506.55   11.10
   2   2   4  501.65   10.90
  -3  -2  -4   44.70    1.80
  -3  -2  -4   48.20    2.00
   3   2   4   47.90    2.10
   3   2   4   47.50    1.80
   3   2   4   46.40    1.80
   3   2   4   47.10    2.10
   3   2   4   48.20    2.10
   3   2   4   45.30    1.80
  -4  -2  -4   53.39    2.50
  -4  -2  -4   50.39    1.90
   4   2   4   50.09    1.90
   4   2   4   52.39    2.10
   4   2   4   47.80    2.50
   4   2   4   51.99    2.40
   4   2   4   56.09    2.60
  -5  -2  -4   84.29    3.10
  -5  -2  -4   84.89    2.70
  -5  -2  -4   86.09    3.60
   5   2   4   86.39    3.70
   5   2   4   89.49    3.20
   5   2   4   89.19    3.70
   5   2   4   83.99    2.70
   5   2   4   86.99    3.60
  -6  -2  -4    4.70    1.30
   6   2   4    6.30    1.50
   6   2   4   11.90    2.50
   6   2   4    8.10    2.30
   6   2   4    7.60    2.50
   6   2   4    5.40    1.40
  -7  -2  -4   86.59    4.10
   7   2   4   92.79    4.30
   7   2   4   88.39    4.50
   7   2   4   95.79    4.40
  -8  -2  -4   11.20    3.60
   8   2   4    7.40    2.20
   8   2   4    9.30    2.80
   8   2   4    5.30    1.90
   9   2   4    5.60    2.10
   9   2   4    2.80    2.40
   9   2   4   -2.00    1.80
   7  -3  -4    7.60    2.60
  -7   3   4    8.00    2.90
   6  -3  -4   42.60    4.40
   6  -3  -4   34.10    3.90
   6  -3  -4   46.30    6.10
  -6   3   4   35.50    4.00
  -6   3   4   39.20    4.30
   5  -3  -4   27.50    3.40
   5  -3  -4   23.00    3.00
   5  -3  -4   24.30    3.10
  -5   3   4   22.80    2.00
  -5   3   4   18.40    1.80
  -5   3   4   27.60    3.20
  -5   3   4   22.30    3.00
   4  -3  -4   61.59    3.90
   4  -3  -4   56.69    3.30
   4  -3  -4   55.69    3.30
  -4   3   4   59.09    2.40
  -4   3   4   55.49    2.40
  -4   3   4   49.99    3.20
  -4   3   4   53.59    3.00
  -4   3   4   59.79    3.30
   3  -3  -4  280.67    7.00
   3  -3  -4  280.07    7.80
   3  -3  -4  264.87    7.20
  -3   3   4  282.07    7.40
  -3   3   4  277.97    6.90
  -3   3   4  273.97    7.70
  -3   3   4  276.37    6.60
   2  -3  -4  991.00   21.00
   2  -3  -4 1001.10   20.80
   2  -3  -4 1004.90   20.50
   2  -3  -4 1002.10   21.60
  -2   3   4 1004.50   21.10
  -2   3   4 1002.00   20.70
  -2   3   4  997.80   20.50
  -2   3   4  994.30   21.60
   1  -3  -4  148.79    4.60
   1  -3  -4  154.88    4.20
   1  -3  -4  157.48    4.30
  -1   3   4  152.58    3.60
  -1   3   4  153.78    4.30
  -1   3   4  152.18    4.70
  -1   3   4  154.58    4.10
   0  -3  -4    5.50    0.90
   0  -3  -4    3.50    1.20
   0  -3  -4    3.60    0.90
   0   3   4    5.90    1.20
   0   3   4    3.20    0.70
   0   3   4    4.80    0.90
  -1  -3  -4  185.88    4.70
  -1  -3  -4  189.18    4.80
  -1  -3  -4  182.88    4.70
   1   3   4  188.08    4.70
   1   3   4  184.18    4.70
   1   3   4  180.88    4.80
  -2  -3  -4  916.61   19.10
  -2  -3  -4  931.01   19.20
  -2  -3  -4  911.31   18.80
  -2  -3  -4  923.91   18.60
   2   3   4  941.61   18.60
   2   3   4  923.61   19.10
   2   3   4  910.01   18.80
   2   3   4  900.51   19.20
  -3  -3  -4  363.86    8.20
  -3  -3  -4  356.16    8.30
   3   3   4  367.06    8.60
   3   3   4  361.36    8.20
   3   3   4  364.26    8.20
   3   3   4  359.56    7.90
  -4  -3  -4  293.07    7.00
   4   3   4  285.57    7.50
   4   3   4  298.77    7.30
   4   3   4  292.27    6.60
   4   3   4  292.17    7.60
   4   3   4  289.87    6.90
   4   3   4  297.57    6.60
  -5  -3  -4   16.60    1.60
  -5  -3  -4   18.60    2.10
   5   3   4   19.20    2.00
   5   3   4   20.20    2.30
   5   3   4   18.80    1.80
   5   3   4   18.40    1.40
   5   3   4   17.70    2.10
   5   3   4   21.70    1.60
  -6  -3  -4   51.69    3.40
  -6  -3  -4   54.79    2.40
   6   3   4   59.39    3.50
   6   3   4   59.09    2.80
   6   3   4   52.39    2.50
   6   3   4   57.09    3.20
   6   3   4   58.59    3.50
  -7  -3  -4    2.50    1.70
  -7  -3  -4    6.60    1.60
   7   3   4    9.00    2.50
   7   3   4    4.90    1.50
   7   3   4    8.10    1.80
   7   3   4    5.70    1.30
  -8  -3  -4   22.20    3.10
   8   3   4   20.50    2.30
   8   3   4   23.60    3.30
   8   3   4   20.80    3.60
   8   3   4   22.30    3.40
   9   3   4   -0.50    2.00
   9   3   4   -3.20    1.90
   9   3   4   -2.10    2.00
   7  -4  -4    0.20    2.80
  -7   4   4   -2.60    2.90
  -6   4   4    2.80    2.50
   5  -4  -4    1.70    1.90
   5  -4  -4    1.00    1.40
   5  -4  -4   -1.00    1.60
  -5   4   4    0.00    1.40
  -5   4   4   -0.20    1.90
  -5   4   4    1.30    1.00
   4  -4  -4   46.80    3.20
   4  -4  -4   43.30    3.40
   4  -4  -4   42.40    3.80
  -4   4   4   48.60    3.40
  -4   4   4   40.80    2.60
   3  -4  -4  134.89    4.10
   3  -4  -4  128.29    5.30
   3  -4  -4  132.39    4.20
   3  -4  -4  125.39    4.70
  -3   4   4  133.49    4.90
  -3   4   4  126.99    5.10
  -3   4   4  107.79    5.40
   2  -4  -4    4.40    1.50
   2  -4  -4    3.00    0.80
   2  -4  -4    4.20    1.40
   2  -4  -4    3.10    1.30
   2  -4  -4    3.80    1.30
  -2   4   4    2.70    1.10
  -2   4   4    3.30    1.10
  -2   4   4    4.90    1.20
   1  -4  -4   34.20    2.50
   1  -4  -4   34.60    1.70
   1  -4  -4   33.50    2.20
   1  -4  -4   34.80    1.50
   1  -4  -4   31.90    1.90
  -1   4   4   32.30    2.30
  -1   4   4   33.40    2.30
  -1   4   4   33.00    2.20
   0  -4  -4  159.18    4.40
   0  -4  -4  156.98    4.70
   0  -4  -4  139.89    4.90
   0   4   4  161.18    4.70
   0   4   4  152.18    4.70
   0   4   4  154.58    4.40
  -1  -4  -4  211.28    5.50
  -1  -4  -4  210.68    5.60
  -1  -4  -4  206.38    5.50
   1   4   4  207.98    5.50
   1   4   4  213.08    5.50
   1   4   4  209.28    5.70
  -2  -4  -4  402.86    9.40
  -2  -4  -4  404.36    8.60
  -2  -4  -4  401.06    9.00
   2   4   4  415.06    9.60
   2   4   4  403.86    9.40
   2   4   4  411.26    9.00
  -3  -4  -4    5.50    0.90
  -3  -4  -4    4.50    1.20
  -3  -4  -4    4.20    1.20
  -3  -4  -4    4.30    1.20
   3   4   4    6.20    1.40
   3   4   4    6.90    1.10
   3   4   4    6.60    1.50
   3   4   4    6.10    1.00
  -4  -4  -4   56.29    2.50
  -4  -4  -4   52.19    2.60
  -4  -4  -4   52.79    2.50
   4   4   4   52.59    1.60
   4   4   4   52.09    2.70
   4   4   4   48.90    2.40
   4   4   4   52.59    1.70
   4   4   4   55.29    2.60
  -5  -4  -4  178.08    5.10
  -5  -4  -4  175.18    5.40
   5   4   4  179.78    5.70
   5   4   4  176.48    5.10
   5   4   4  179.18    5.50
   5   4   4  174.78    5.70
  -6  -4  -4   -0.10    0.90
  -6  -4  -4    1.60    1.40
   6   4   4    1.00    1.10
   6   4   4    1.00    1.20
   6   4   4    2.00    1.50
   6   4   4   -0.80    1.30
  -7  -4  -4    6.80    1.90
  -7  -4  -4   11.50    2.00
   7   4   4    7.20    1.80
   7   4   4   12.90    1.40
   7   4   4   11.80    2.50
   7   4   4   10.50    1.80
   7   4   4   11.90    2.50
  -8  -4  -4   38.60    2.80
   8   4   4   41.60    3.40
   8   4   4   42.00    2.40
   8   4   4   44.00    4.10
   8   4   4   41.90    3.70
   8   4   4   40.00    2.60
   9   4   4    2.00    2.10
   9   4   4   -2.10    2.10
   6  -5  -4   15.30    5.10
  -6   5   4   19.10    5.50
   5  -5  -4   27.30    5.00
   5  -5  -4   31.90    5.00
  -5   5   4   35.80    4.90
  -5   5   4   27.00    2.80
   4  -5  -4  212.78    7.60
   4  -5  -4  219.78    8.70
   4  -5  -4  212.48    6.00
   4  -5  -4  205.98    6.50
   4  -5  -4  206.38    7.10
  -4   5   4  205.18    6.20
  -4   5   4  216.18    7.60
   3  -5  -4   57.29    4.10
   3  -5  -4   50.59    3.20
   3  -5  -4   57.29    2.90
   3  -5  -4   57.29    3.80
   3  -5  -4   53.19    3.10
  -3   5   4   60.79    3.90
  -3   5   4   51.29    3.00
   2  -5  -4   18.00    2.80
   2  -5  -4   12.30    1.90
   2  -5  -4   16.20    1.90
   2  -5  -4   13.80    1.90
   2  -5  -4   13.10    3.00
  -2   5   4   14.10    2.20
  -2   5   4    9.30    2.00
  -2   5   4   15.40    2.60
   1  -5  -4    8.40    1.30
   1  -5  -4    5.30    1.50
   1  -5  -4    8.80    1.30
   1  -5  -4    5.60    1.10
   1  -5  -4    6.60    2.00
  -1   5   4    5.90    1.50
  -1   5   4    4.50    1.20
  -1   5   4    5.30    1.30
   0  -5  -4  211.68    6.10
   0  -5  -4  203.88    5.80
   0  -5  -4  213.68    6.30
   0   5   4  206.08    6.10
   0   5   4  206.68    5.70
   0   5   4  215.58    6.20
  -1  -5  -4  139.69    4.40
  -1  -5  -4  136.29    4.40
  -1  -5  -4  143.59    4.50
   1   5   4  140.39    4.70
   1   5   4  136.59    4.30
   1   5   4  128.69    5.00
  -2  -5  -4  440.66   10.70
  -2  -5  -4  453.25   10.20
  -2  -5  -4  443.36    9.50
  -2  -5  -4  453.95   10.60
   2   5   4  454.85   10.20
   2   5   4  450.15   10.60
   2   5   4  463.85   10.90
  -3  -5  -4   13.10    1.80
  -3  -5  -4   10.90    1.30
  -3  -5  -4   14.80    1.50
  -3  -5  -4   13.10    1.70
   3   5   4   13.30    1.70
   3   5   4   13.20    1.60
   3   5   4   15.20    2.00
   3   5   4   14.30    1.50
  -4  -5  -4    6.50    1.70
  -4  -5  -4    4.70    1.10
  -4  -5  -4    5.70    1.50
  -4  -5  -4    4.70    0.80
   4   5   4    6.10    2.00
   4   5   4    4.80    1.30
   4   5   4    5.80    1.10
   4   5   4    6.30    1.70
  -5  -5  -4   80.19    3.50
  -5  -5  -4   80.79    3.60
  -5  -5  -4   77.19    3.50
   5   5   4   81.59    3.60
   5   5   4   84.09    3.80
   5   5   4   81.99    3.80
  -6  -5  -4    7.30    2.20
  -6  -5  -4    7.10    1.70
   6   5   4    9.00    3.00
   6   5   4    8.40    2.40
   6   5   4   11.10    2.60
   6   5   4   10.50    3.10
  -7  -5  -4    0.70    1.20
  -7  -5  -4    0.60    1.80
   7   5   4    1.00    1.90
   7   5   4    1.30    1.60
   7   5   4    2.80    1.40
  -8  -5  -4   18.80    3.00
   8   5   4   15.30    3.60
   8   5   4   12.50    3.10
   8   5   4   19.30    4.00
  -9  -5  -4    4.40    1.90
   9   5   4    4.80    2.20
   9   5   4    5.80    2.70
   5  -6  -4   26.10    4.20
  -5   6   4   22.70    5.50
   4  -6  -4   50.39    3.40
   4  -6  -4   44.10    4.10
   4  -6  -4   56.09    4.50
   4  -6  -4   42.70    4.80
  -4   6   4   45.30    4.50
  -4   6   4   59.09    5.30
   3  -6  -4   47.00    3.70
   3  -6  -4   51.59    3.20
   3  -6  -4   55.89    4.20
   3  -6  -4   50.09    3.40
  -3   6   4   52.39    3.80
  -3   6   4   63.29    4.70
   2  -6  -4   27.40    3.60
   2  -6  -4   24.80    2.30
   2  -6  -4   22.50    3.20
   2  -6  -4   23.20    2.50
   2  -6  -4   25.90    2.60
  -2   6   4   23.30    3.50
  -2   6   4   24.70    3.00
   1  -6  -4    3.50    1.30
   1  -6  -4    3.90    1.00
   1  -6  -4    5.70    1.70
   1  -6  -4    5.40    1.70
   1  -6  -4    7.20    1.60
  -1   6   4    6.00    1.70
  -1   6   4    2.20    1.40
  -1   6   4    5.20    1.50
   0  -6  -4  269.47    7.90
   0  -6  -4  255.27    7.60
   0  -6  -4  263.67    5.90
   0  -6  -4  268.27    7.30
   0   6   4  258.77    7.30
   0   6   4  259.57    7.60
   0   6   4  271.77    7.90
  -1  -6  -4  177.18    5.60
  -1  -6  -4  180.08    5.80
  -1  -6  -4  180.38    5.60
   1   6   4  176.38    5.90
   1   6   4  178.58    5.60
   1   6   4  169.08    5.30
  -2  -6  -4   18.70    1.80
  -2  -6  -4   18.20    2.20
  -2  -6  -4   16.20    1.90
  -2  -6  -4   16.10    2.20
   2   6   4   17.50    2.00
   2   6   4   16.70    3.50
   2   6   4   14.40    1.30
   2   6   4   18.60    2.70
  -3  -6  -4    5.70    1.50
  -3  -6  -4    3.10    1.10
  -3  -6  -4    2.80    1.10
  -3  -6  -4    3.50    0.90
   3   6   4    3.10    1.00
   3   6   4    3.00    0.90
   3   6   4    5.20    1.50
   3   6   4    3.00    1.10
  -4  -6  -4    7.70    1.90
  -4  -6  -4    6.30    1.10
  -4  -6  -4    6.00    1.20
  -4  -6  -4    6.30    1.40
   4   6   4    5.90    1.30
   4   6   4    8.70    1.30
   4   6   4    8.10    2.40
   4   6   4    9.60    1.60
  -5  -6  -4   45.90    3.00
  -5  -6  -4   44.30    3.00
  -5  -6  -4   48.00    3.20
   5   6   4   51.09    3.40
   5   6   4   46.00    3.40
   5   6   4   44.00    3.20
  -6  -6  -4   63.29    3.70
  -6  -6  -4   72.69    3.90
  -6  -6  -4   64.99    3.90
   6   6   4   63.29    3.80
   6   6   4   70.69    4.20
   6   6   4   71.49    3.90
  -7  -6  -4   33.60    4.10
  -7  -6  -4   37.60    3.40
   7   6   4   29.50    6.70
   7   6   4   34.10    3.70
   7   6   4   30.50    3.30
  -8  -6  -4   12.60    4.10
   8   6   4    6.40    2.50
   8   6   4    6.90    2.10
   8   6   4    9.60    2.60
  -9  -6  -4    0.40    3.00
   9   6   4    1.50    2.30
   9   6   4   -1.00    2.60
   4  -7  -4    5.00    2.10
   4  -7  -4    5.60    2.00
   4  -7  -4    2.20    2.30
  -4   7   4    7.60    3.10
   3  -7  -4    8.60    2.10
   3  -7  -4    5.70    1.90
  -3   7   4   17.70    4.80
  -3   7   4    6.70    2.80
   2  -7  -4    5.90    1.70
   2  -7  -4    4.80    1.50
   2  -7  -4   14.20    3.70
   2  -7  -4    4.90    1.60
  -2   7   4    6.10    2.30
  -2   7   4    5.30    2.20
   1  -7  -4   37.00    2.50
   1  -7  -4   42.20    2.40
   1  -7  -4   40.10    3.30
   1  -7  -4   44.90    4.10
  -1   7   4   39.40    3.60
  -1   7   4   32.20    4.50
  -1   7   4   47.70    4.00
   0  -7  -4   52.19    2.20
   0  -7  -4   43.50    3.40
   0  -7  -4   48.90    2.40
   0  -7  -4   51.79    4.20
   0  -7  -4   51.19    3.40
   0   7   4   56.59    4.00
   0   7   4   47.60    3.80
   0   7   4   52.29    3.70
  -1  -7  -4    0.40    1.40
  -1  -7  -4    0.00    1.20
  -1  -7  -4   -1.90    1.20
   1   7   4   -0.80    1.30
   1   7   4    0.20    1.20
  -2  -7  -4    8.30    1.60
  -2  -7  -4   10.70    2.10
  -2  -7  -4   10.60    1.70
  -2  -7  -4    6.40    1.70
   2   7   4    7.70    2.00
   2   7   4   12.10    2.10
   2   7   4    9.20    2.50
   2   7   4   11.50    1.40
  -3  -7  -4   95.89    4.20
  -3  -7  -4   99.89    3.30
  -3  -7  -4   88.69    6.70
  -3  -7  -4   94.99    3.80
   3   7   4   95.59    3.20
   3   7   4   93.49    4.20
   3   7   4   95.09    4.40
  -4  -7  -4   39.80    2.20
  -4  -7  -4   46.90    3.40
  -4  -7  -4   37.80    3.00
  -4  -7  -4   44.00    2.70
   4   7   4   45.60    3.50
   4   7   4   39.50    2.70
   4   7   4   39.90    2.70
   4   7   4   45.20    2.40
  -5  -7  -4    8.20    2.70
  -5  -7  -4   12.10    3.10
   5   7   4    8.10    2.40
   5   7   4    7.30    2.40
   5   7   4    7.90    2.70
  -6  -7  -4   96.59    4.70
  -6  -7  -4   77.99    4.50
   6   7   4   82.49    4.70
   6   7   4   82.59    4.60
   6   7   4   90.09    4.70
  -7  -7  -4   18.80    3.70
  -7  -7  -4   15.70    4.30
   7   7   4   18.90    3.20
  -8  -7  -4    3.70    2.20
   8   7   4   -3.00    1.80
   8   7   4    0.90    2.50
  -9  -7  -4    4.70    2.50
   9   7   4    0.80    2.30
   9   7   4   -0.50    3.00
   3  -8  -4    1.00    2.30
   3  -8  -4    3.30    2.50
  -3   8   4    5.90    3.70
   2  -8  -4   64.89    5.70
   2  -8  -4   74.99    5.00
  -2   8   4   78.99    6.50
   1  -8  -4   23.60    4.50
   1  -8  -4   17.30    2.50
   1  -8  -4   18.50    3.60
  -1   8   4   30.30    4.70
   0  -8  -4   26.90    2.20
   0  -8  -4   28.40    4.40
   0  -8  -4   32.60    3.60
   0  -8  -4   28.60    2.80
   0   8   4   36.30    4.30
  -1  -8  -4    2.10    1.80
  -1  -8  -4    1.90    1.60
   1   8   4    2.70    1.70
   1   8   4    2.60    1.80
  -2  -8  -4   -0.40    1.50
  -2  -8  -4    2.20    1.50
  -2  -8  -4   -0.70    1.20
   2   8   4    0.30    1.00
   2   8   4    2.40    1.50
   2   8   4    0.20    1.50
  -3  -8  -4   26.70    3.50
  -3  -8  -4   27.70    2.50
  -3  -8  -4   27.50    3.10
   3   8   4   30.40    3.40
   3   8   4   26.90    2.90
   3   8   4   25.20    2.20
  -4  -8  -4   70.69    4.10
  -4  -8  -4   71.29    3.40
  -4  -8  -4   87.09    4.60
   4   8   4   73.39    3.40
   4   8   4   77.59    4.50
   4   8   4   72.79    3.40
  -5  -8  -4   23.50    3.80
  -5  -8  -4   12.00    3.30
   5   8   4   10.40    3.00
   5   8   4   15.00    3.00
  -6  -8  -4   53.99    4.80
  -6  -8  -4   50.99    4.40
   6   8   4   47.70    4.30
   6   8   4   44.20    3.70
  -7  -8  -4   -0.20    2.60
  -7  -8  -4    5.30    2.30
   7   8   4   -0.10    2.30
   7   8   4   -3.30    1.70
  -8  -8  -4    6.90    2.60
   8   8   4    4.90    3.00
   1  -9  -4   25.20    5.50
  -1   9   4   27.50    5.90
   0  -9  -4   15.70    5.00
  -1  -9  -4   63.69    5.10
  -1  -9  -4   62.09    5.70
   1   9   4   79.79    5.60
  -2  -9  -4   42.70    4.60
   2   9   4   53.19    4.60
  -3  -9  -4   -0.20    1.80
  -3  -9  -4    0.20    1.90
   3   9   4    1.30    1.90
   3   9   4    1.10    1.30
  -4  -9  -4   35.60    3.40
  -4  -9  -4   44.70    4.50
   4   9   4   31.10    3.50
   4   9   4   36.60    4.00
   4   9   4   38.80    3.20
  -5  -9  -4   15.80    2.60
  -5  -9  -4   28.70    4.40
   5   9   4   18.10    3.30
   5   9   4   19.20    3.60
  -6  -9  -4    0.10    2.30
   6   9   4    1.00    2.00
   6   9   4   -3.80    1.90
  -7  -9  -4    3.30    2.70
   7   9   4   -1.90    2.00
   7   9   4    4.00    2.60
   8   9   4   31.20    6.80
  -1 -10  -4   -0.60    2.90
  -1 -10  -4    2.60    2.70
  -2 -10  -4   29.60    5.90
  -2 -10  -4   38.50    5.50
  -3 -10  -4   25.40    5.10
   3  10   4   31.00    4.70
  -4 -10  -4   18.10    5.10
   4  10   4    6.60    2.50
  -5 -10  -4   20.60    5.40
  -6 -10  -4    1.90    2.90
   6  10   4    3.70    2.50
   5   9  -5   39.00    6.10
   5   9  -5   32.20    6.60
  -5  -9   5   37.20    6.30
   4   9  -5    0.40    3.00
  -4  -9   5    2.40    2.80
   3   9  -5    5.70    3.20
   3   9  -5   11.40    3.60
  -3  -9   5   24.90    4.90
  -3  -9   5    5.20    3.00
   2   9  -5    2.00    3.20
  -2  -9   5    2.50    2.80
  -2  -9   5   -2.00    2.90
   7   8  -5   -0.30    3.00
   7   8  -5    7.60    3.10
  -7  -8   5   14.30    4.70
   6   8  -5    1.50    2.70
   6   8  -5    1.40    2.60
  -6  -8   5    2.90    2.20
   5   8  -5    6.20    2.70
   5   8  -5    3.90    2.40
  -5  -8   5    3.40    1.90
  -5  -8   5   -0.20    1.70
   4   8  -5   14.70    4.50
   4   8  -5    8.50    2.60
  -4  -8   5   11.80    3.40
  -4  -8   5    5.00    2.10
  -4  -8   5    5.80    2.20
   3   8  -5    3.50    2.40
  -3  -8   5    4.20    2.20
  -3  -8   5    4.90    2.00
   2   8  -5   23.90    4.80
  -2  -8   5   14.30    3.90
   1   8  -5   42.20    5.60
   1   8  -5   57.79    6.00
  -1  -8   5   42.70    5.10
  -1  -8   5   46.90    4.70
   0   8  -5   19.40    5.90
   0   8  -5    5.80    3.10
   0  -8   5    6.50    2.60
   0  -8   5    0.70    2.40
  -1   8  -5    5.00    3.50
   1  -8   5    5.10    2.90
   1  -8   5   -2.00    2.70
   8   7  -5   -3.10    3.00
  -8  -7   5    2.80    2.40
   7   7  -5   20.30    4.70
  -7  -7   5   20.60    4.20
   6   7  -5   15.00    4.50
   6   7  -5    3.30    2.20
  -6  -7   5    4.50    1.90
  -6  -7   5    3.10    1.40
   5   7  -5   17.80    3.80
   5   7  -5   20.50    4.50
  -5  -7   5   17.00    3.20
  -5  -7   5   16.40    2.70
  -5  -7   5   22.10    3.00
   4   7  -5    2.00    1.90
   4   7  -5    2.80    2.00
  -4  -7   5    2.70    1.50
  -4  -7   5   -0.80    1.30
  -4  -7   5    1.50    2.10
   3   7  -5   85.59    5.20
   3   7  -5   90.99    5.30
  -3  -7   5   74.99    4.50
  -3  -7   5   70.89    5.10
  -3  -7   5   84.19    4.40
  -3  -7   5   86.79    6.20
  -3  -7   5   85.29    4.60
   2   7  -5    9.10    2.20
   2   7  -5   14.50    3.90
   2   7  -5   12.90    3.50
  -2  -7   5   19.60    4.00
  -2  -7   5   11.60    3.10
   1   7  -5   44.70    4.70
   1   7  -5   37.60    4.40
  -1  -7   5   38.20    3.80
  -1  -7   5   41.30    5.30
  -1  -7   5   37.30    4.10
   0   7  -5    5.40    2.30
   0   7  -5   17.00    4.50
   0  -7   5   11.50    3.50
  -1   7  -5   -1.90    2.50
  -1   7  -5   -0.40    2.40
   1  -7   5    1.30    1.90
   1  -7   5    2.00    2.00
  -2   7  -5    2.90    3.00
   2  -7   5    2.10    2.30
   2  -7   5    0.50    2.30
   2  -7   5    0.60    2.20
   9   6  -5   -2.20    3.00
  -9  -6   5    3.60    2.80
   8   6  -5   10.70    2.80
  -8  -6   5   19.40    4.40
   7   6  -5   31.70    4.80
   7   6  -5   19.30    3.90
  -7  -6   5   18.00    2.10
  -7  -6   5   20.20    3.80
  -7  -6   5   17.10    3.70
   6   6  -5    5.60    3.90
   6   6  -5    8.60    2.30
  -6  -6   5    5.00    1.20
  -6  -6   5    7.50    1.90
  -6  -6   5    3.70    1.20
  -6  -6   5    6.70    2.00
   5   6  -5   10.80    3.10
   5   6  -5   14.40    3.40
  -5  -6   5   10.70    2.20
  -5  -6   5   11.30    2.80
  -5  -6   5   11.10    2.40
  -5  -6   5    8.30    2.70
  -5  -6   5    5.90    2.30
   4   6  -5   28.20    3.30
   4   6  -5   31.00    6.70
   4   6  -5   32.00    3.30
  -4  -6   5   36.30    3.10
  -4  -6   5   35.50    2.80
  -4  -6   5   29.20    3.10
  -4  -6   5   30.10    3.80
  -4  -6   5   31.80    2.70
   3   6  -5   82.89    4.10
   3   6  -5   97.29    4.90
   3   6  -5   97.79    4.60
  -3  -6   5   99.99    4.40
  -3  -6   5   88.89    4.40
  -3  -6   5   91.69    4.20
  -3  -6   5   92.69    4.90
  -3  -6   5   92.39    4.10
   2   6  -5   69.39    3.80
   2   6  -5   73.79    4.40
   2   6  -5   78.59    4.40
   2   6  -5   75.59    4.00
  -2  -6   5   78.59    4.50
  -2  -6   5   80.19    4.00
  -2  -6   5   79.99    4.20
  -2  -6   5   74.79    4.10
   1   6  -5   18.40    3.00
   1   6  -5   21.70    3.30
   1   6  -5   22.00    3.10
  -1  -6   5   20.30    3.10
  -1  -6   5   24.30    3.10
  -1  -6   5   24.40    3.50
  -1  -6   5   23.50    3.20
   0   6  -5    2.70    1.90
   0   6  -5    2.00    1.80
   0   6  -5    1.90    1.60
   0   6  -5   -0.80    2.80
   0  -6   5   -1.60    1.60
   0  -6   5    1.50    1.60
   0  -6   5    1.70    2.60
   0  -6   5    0.90    1.40
  -1   6  -5   80.09    5.30
  -1   6  -5   69.79    4.70
  -1   6  -5   79.89    5.30
   1  -6   5   72.69    5.10
   1  -6   5   67.39    4.60
   1  -6   5   75.69    4.40
  -2   6  -5   90.99    6.00
  -2   6  -5   72.29    5.00
   2  -6   5   78.69    4.60
   2  -6   5   69.49    4.90
  -3   6  -5   92.09    6.50
   3  -6   5   86.19    5.50
   3  -6   5   85.09    4.70
   3  -6   5   83.29    5.50
  -4   6  -5    5.20    3.30
   4  -6   5    4.90    2.90
   4  -6   5   -0.50    2.70
   9   5  -5   15.30    4.80
   9   5  -5    1.90    2.80
  -9  -5   5    3.40    2.60
   8   5  -5    9.90    2.60
  -8  -5   5    9.10    2.40
  -8  -5   5   16.10    3.40
   7   5  -5    6.10    2.20
   7   5  -5    4.60    2.00
   7   5  -5    3.70    1.90
  -7  -5   5    5.80    1.60
  -7  -5   5    6.10    1.80
  -7  -5   5    7.90    2.00
   6   5  -5   11.70    3.10
   6   5  -5    5.20    1.70
  -6  -5   5    6.10    1.60
  -6  -5   5    7.00    1.80
  -6  -5   5    4.50    1.20
  -6  -5   5    6.60    1.70
   5   5  -5   13.80    3.70
   5   5  -5   13.10    2.60
   5   5  -5   17.60    3.00
  -5  -5   5   12.60    3.30
  -5  -5   5   18.60    1.90
  -5  -5   5   16.50    2.30
  -5  -5   5   18.10    1.90
  -5  -5   5   10.90    3.10
   4   5  -5   25.10    3.10
   4   5  -5   21.70    2.30
   4   5  -5   21.80    2.90
  -4  -5   5   25.30    2.60
  -4  -5   5   18.80    3.00
  -4  -5   5   25.20    2.20
  -4  -5   5   21.30    2.70
  -4  -5   5   19.80    3.30
   3   5  -5   22.20    2.50
   3   5  -5   24.50    2.70
   3   5  -5   25.50    3.00
  -3  -5   5   27.00    2.30
  -3  -5   5   27.20    2.60
  -3  -5   5   27.70    3.00
  -3  -5   5   27.00    2.70
  -3  -5   5   27.30    2.40
   2   5  -5   43.50    3.20
   2   5  -5   41.00    2.60
   2   5  -5   39.00    3.10
  -2  -5   5   41.40    3.00
  -2  -5   5   41.30    2.90
  -2  -5   5   44.20    3.30
  -2  -5   5   42.30    2.90
   1   5  -5    1.50    1.30
   1   5  -5    2.90    1.30
   1   5  -5    2.20    1.20
   1   5  -5    2.00    1.20
  -1  -5   5    2.70    1.40
  -1  -5   5    4.10    1.50
  -1  -5   5    3.00    1.20
  -1  -5   5    3.40    1.40
   0   5  -5    1.90    1.20
   0   5  -5    1.40    1.30
   0   5  -5    1.30    1.40
   0   5  -5    0.40    1.40
   0  -5   5    0.90    1.30
   0  -5   5    2.80    1.30
   0  -5   5    2.00    1.30
   0  -5   5    2.80    1.50
  -1   5  -5   16.20    2.80
  -1   5  -5   11.50    2.60
  -1   5  -5   12.90    2.90
   1  -5   5   13.90    2.60
   1  -5   5   14.60    3.00
   1  -5   5   17.90    2.90
  -2   5  -5   18.90    3.50
  -2   5  -5   20.90    3.00
  -2   5  -5   17.50    3.80
   2  -5   5   13.60    2.80
   2  -5   5   16.90    2.70
   2  -5   5   19.70    3.80
  -3   5  -5   35.40    4.30
  -3   5  -5   36.10    3.50
   3  -5   5   24.80    3.50
   3  -5   5   27.60    3.70
   3  -5   5   30.40    3.10
  -4   5  -5   47.20    5.10
   4  -5   5   32.70    4.10
   4  -5   5   40.20    4.70
   4  -5   5   38.90    3.10
  -5   5  -5    4.60    3.30
   5  -5   5    0.90    2.50
   9   4  -5    6.00    2.70
  -9  -4   5   10.40    2.60
   8   4  -5   43.70    2.90
   8   4  -5   52.69    4.30
   8   4  -5   42.20    3.90
   8   4  -5   42.20    4.30
   8   4  -5   45.60    4.80
  -8  -4   5   39.60    5.20
   7   4  -5    4.30    1.70
   7   4  -5    4.10    1.80
   7   4  -5    4.80    1.70
   7   4  -5    0.20    1.70
   7   4  -5    3.10    1.10
  -7  -4   5    4.30    1.70
  -7  -4   5    2.30    1.50
   6   4  -5   15.60    2.60
   6   4  -5   16.80    2.70
   6   4  -5   18.20    3.40
   6   4  -5   13.90    2.50
  -6  -4   5   16.40    2.90
  -6  -4   5   17.10    2.40
   5   4  -5  124.19    4.50
   5   4  -5  122.29    4.60
   5   4  -5  127.59    5.30
  -5  -4   5  119.19    4.00
  -5  -4   5  124.59    4.00
  -5  -4   5  125.29    5.00
  -5  -4   5  125.59    4.90
  -5  -4   5  126.89    4.30
   4   4  -5   21.60    2.70
   4   4  -5   25.80    2.40
   4   4  -5   23.40    2.00
  -4  -4   5   25.20    2.70
  -4  -4   5   24.40    1.90
  -4  -4   5   24.10    1.90
  -4  -4   5   23.10    2.00
  -4  -4   5   22.90    2.60
   3   4  -5   72.29    3.20
   3   4  -5   71.19    3.50
   3   4  -5   69.29    3.20
  -3  -4   5   71.69    3.00
  -3  -4   5   67.69    3.40
  -3  -4   5   76.39    3.10
  -3  -4   5   71.89    3.20
  -3  -4   5   74.29    3.40
   2   4  -5    0.80    1.00
   2   4  -5    0.60    0.80
   2   4  -5    0.70    1.00
  -2  -4   5    1.60    1.00
  -2  -4   5    1.10    0.90
  -2  -4   5    0.70    0.80
  -2  -4   5    1.70    1.00
  -2  -4   5    0.90    0.80
   1   4  -5  249.78    6.80
   1   4  -5  247.08    6.90
   1   4  -5  239.38    6.60
   1   4  -5  241.48    7.10
  -1  -4   5  235.78    6.60
  -1  -4   5  242.18    6.80
  -1  -4   5  254.27    7.00
  -1  -4   5  250.57    6.80
   0   4  -5  294.67    7.70
   0   4  -5  291.17    8.10
   0   4  -5  299.17    8.00
   0   4  -5  296.27    8.30
   0  -4   5  291.17    8.00
   0  -4   5  289.97    7.80
   0  -4   5  307.47    8.30
   0  -4   5  299.87    7.80
  -1   4  -5  459.35   11.40
  -1   4  -5  456.55   11.60
  -1   4  -5  462.85   10.70
  -1   4  -5  428.56   11.20
   1  -4   5  426.16   11.10
   1  -4   5  424.06   10.90
   1  -4   5  451.45   10.70
   1  -4   5  441.76   11.40
  -2   4  -5    2.30    1.50
  -2   4  -5   -0.10    1.00
  -2   4  -5    0.00    1.20
  -2   4  -5    1.50    1.40
   2  -4   5   -0.20    1.40
   2  -4   5    0.30    1.40
   2  -4   5    1.00    1.20
  -3   4  -5    5.70    1.50
  -3   4  -5    9.50    3.00
   3  -4   5    5.00    2.00
   3  -4   5    4.50    1.50
   3  -4   5    6.00    1.60
   3  -4   5    6.60    2.20
  -4   4  -5    7.10    2.30
   4  -4   5    4.90    1.30
   4  -4   5    4.90    1.90
   4  -4   5    4.50    1.70
  -5   4  -5   15.50    4.50
   5  -4   5   17.70    4.10
   5  -4   5    9.40    2.50
  -6   4  -5    4.30    3.00
   6  -4   5   -4.80    2.50
   6  -4   5   -1.10    2.70
   9   3  -5    8.00    1.90
   9   3  -5    7.50    2.60
   9   3  -5   13.80    3.80
  -9  -3   5    8.60    2.30
   8   3  -5    2.10    1.80
   8   3  -5    2.60    1.70
   8   3  -5    2.30    2.10
   8   3  -5    3.10    2.50
   8   3  -5    2.70    1.30
  -8  -3   5    1.00    2.00
  -8  -3   5    2.10    1.90
   7   3  -5   11.50    3.00
   7   3  -5   13.80    2.70
   7   3  -5    8.50    2.80
   7   3  -5   11.00    2.50
   7   3  -5   10.20    2.00
  -7  -3   5    9.20    3.10
  -7  -3   5    7.70    1.80
   6   3  -5   75.09    6.80
   6   3  -5   89.19    3.80
   6   3  -5   93.49    3.80
   6   3  -5   88.89    3.80
   6   3  -5   91.49    3.50
  -6  -3   5   89.59    3.90
  -6  -3   5   90.39    4.60
  -6  -3   5   99.49    4.30
   5   3  -5   20.50    2.10
   5   3  -5   23.00    1.80
   5   3  -5   20.70    2.20
   5   3  -5   21.20    2.90
   5   3  -5   22.70    2.20
  -5  -3   5   20.80    2.20
  -5  -3   5   22.20    2.80
  -5  -3   5   26.30    2.60
   4   3  -5  173.38    5.70
   4   3  -5  173.58    5.10
   4   3  -5  176.68    4.90
   4   3  -5  174.68    5.00
  -4  -3   5  174.28    5.70
  -4  -3   5  184.28    5.40
  -4  -3   5  168.28    4.80
  -4  -3   5  170.98    4.80
   3   3  -5   29.10    2.00
   3   3  -5   26.00    1.80
   3   3  -5   24.70    2.20
  -3  -3   5   24.00    1.70
  -3  -3   5   25.70    1.70
  -3  -3   5   27.90    1.70
  -3  -3   5   25.20    2.20
  -3  -3   5   25.60    2.10
   2   3  -5  119.29    4.20
   2   3  -5  118.89    3.70
   2   3  -5  117.89    3.90
  -2  -3   5  120.19    3.90
  -2  -3   5  119.09    3.80
  -2  -3   5  121.39    4.00
  -2  -3   5  116.69    4.00
  -2  -3   5  120.89    3.60
   1   3  -5  199.88    5.50
   1   3  -5  202.98    5.90
   1   3  -5  202.58    5.40
  -1  -3   5  200.98    5.30
  -1  -3   5  203.88    5.70
  -1  -3   5  204.18    5.60
  -1  -3   5  195.78    5.60
   0   3  -5  132.49    4.40
   0   3  -5  135.79    4.30
   0   3  -5  133.49    4.10
   0   3  -5  130.39    4.50
   0  -3   5  135.89    4.20
   0  -3   5  132.59    4.50
   0  -3   5  130.19    4.20
   0  -3   5  133.59    4.40
  -1   3  -5  193.78    5.80
  -1   3  -5  193.28    5.90
  -1   3  -5  196.18    6.20
  -1   3  -5  196.48    5.40
   1  -3   5  193.98    5.60
   1  -3   5  194.38    6.00
   1  -3   5  199.18    5.50
   1  -3   5  198.58    5.90
  -2   3  -5   11.30    2.10
  -2   3  -5   11.40    2.00
  -2   3  -5   10.30    2.40
   2  -3   5    9.30    1.90
   2  -3   5   11.90    2.10
   2  -3   5    9.40    2.20
   2  -3   5   14.40    1.80
  -3   3  -5   15.60    2.70
  -3   3  -5   17.10    1.90
  -3   3  -5   19.90    2.40
   3  -3   5   20.40    2.70
   3  -3   5   20.50    3.00
   3  -3   5   17.70    2.50
   3  -3   5   23.40    2.10
   3  -3   5   18.50    2.00
  -4   3  -5   -0.80    1.50
  -4   3  -5   -1.10    1.40
  -4   3  -5   -0.30    0.90
   4  -3   5    1.00    1.80
   4  -3   5    0.50    0.90
   4  -3   5    0.30    1.30
   4  -3   5    0.00    1.10
  -5   3  -5  310.27    9.90
   5  -3   5  297.47    9.70
   5  -3   5  316.27    9.60
  -6   3  -5   15.70    4.40
   6  -3   5    6.60    2.40
   6  -3   5   11.10    2.60
   9   2  -5   28.90    4.40
   9   2  -5   21.50    4.40
   9   2  -5   24.70    4.10
   8   2  -5    2.90    1.50
   8   2  -5    2.70    1.80
   8   2  -5    2.60    2.20
   8   2  -5    0.60    2.30
   8   2  -5    0.40    1.50
  -8  -2   5   -0.50    2.10
  -8  -2   5    3.90    1.70
   7   2  -5    8.30    2.50
   7   2  -5    9.20    2.80
   7   2  -5   11.50    2.90
   7   2  -5    7.20    2.40
   7   2  -5    7.50    2.30
  -7  -2   5    7.80    1.90
  -7  -2   5   10.00    2.60
   6   2  -5    3.60    1.20
   6   2  -5    1.30    1.50
   6   2  -5    3.30    1.30
   6   2  -5    2.80    1.10
   6   2  -5    2.80    1.20
  -6  -2   5    4.30    1.40
  -6  -2   5    2.70    1.40
  -6  -2   5    2.20    1.20
   5   2  -5   36.10    2.20
   5   2  -5   34.10    2.20
   5   2  -5   35.50    3.10
   5   2  -5   37.80    2.30
   5   2  -5   35.70    2.50
  -5  -2   5   33.50    2.50
  -5  -2   5   36.90    2.60
  -5  -2   5   34.70    2.90
   4   2  -5    0.10    0.70
   4   2  -5    0.50    0.60
   4   2  -5    0.70    0.70
   4   2  -5    0.40    0.70
   4   2  -5   -0.90    0.90
  -4  -2   5   -0.30    0.60
  -4  -2   5   -0.10    1.00
  -4  -2   5   -0.20    0.80
   3   2  -5  122.09    3.80
   3   2  -5  119.59    4.10
   3   2  -5  122.69    3.40
   3   2  -5  125.69    3.80
  -3  -2   5  123.09    3.70
  -3  -2   5  118.99    4.20
  -3  -2   5  124.59    3.30
  -3  -2   5  121.29    3.90
   2   2  -5   22.80    1.80
   2   2  -5   20.70    1.40
  -2  -2   5   21.80    1.50
  -2  -2   5   23.50    1.70
  -2  -2   5   18.20    2.90
   1   2  -5  318.47    7.90
   1   2  -5  323.77    7.30
   1   2  -5  325.87    7.60
  -1  -2   5  328.67    7.30
  -1  -2   5  314.97    7.90
  -1  -2   5  310.27    7.80
  -1  -2   5  328.37    7.80
  -1  -2   5  325.67    7.70
   0   2  -5    0.00    0.50
   0   2  -5    0.50    0.50
   0   2  -5    0.40    0.60
   0   2  -5   -0.40    0.50
   0  -2   5    0.40    0.60
   0  -2   5    0.00    0.50
   0  -2   5    0.40    0.60
  -1   2  -5   31.60    2.00
  -1   2  -5   32.20    2.20
  -1   2  -5   30.90    1.70
  -1   2  -5   32.70    2.10
   1  -2   5   32.30    2.10
   1  -2   5   30.00    2.10
   1  -2   5   31.80    1.80
   1  -2   5   32.70    1.80
  -2   2  -5   15.40    1.80
  -2   2  -5   16.00    1.50
  -2   2  -5   18.00    2.20
  -2   2  -5   17.10    1.80
   2  -2   5   19.20    2.00
   2  -2   5   18.30    1.60
   2  -2   5   18.50    1.60
   2  -2   5   18.40    1.90
  -3   2  -5   34.70    1.80
  -3   2  -5   32.80    2.40
  -3   2  -5   34.50    2.70
   3  -2   5   38.40    2.70
   3  -2   5   36.60    2.60
   3  -2   5   37.30    2.10
   3  -2   5   37.90    2.90
   3  -2   5   37.80    2.30
  -4   2  -5   30.50    2.90
  -4   2  -5   31.20    1.80
  -4   2  -5   30.90    2.80
   4  -2   5   34.80    2.60
   4  -2   5   30.90    3.20
   4  -2   5   29.60    3.20
   4  -2   5   32.00    2.90
   4  -2   5   32.20    1.90
  -5   2  -5   79.19    4.50
  -5   2  -5   66.89    4.50
   5  -2   5   75.19    4.60
   5  -2   5   80.29    4.40
  -6   2  -5    3.10    2.10
   6  -2   5    0.60    1.60
   6  -2   5    1.60    2.00
  -7   2  -5   13.60    4.60
   7  -2   5   -1.50    2.40
   7  -2   5   -1.20    2.20
   9   1  -5    1.10    2.50
   9   1  -5    4.40    2.40
   9   1  -5    1.20    2.20
   8   1  -5    7.80    2.20
   8   1  -5   12.00    4.00
   8   1  -5    9.40    3.20
   8   1  -5   11.30    3.80
  -8  -1   5   10.70    2.70
  -8  -1   5    8.00    2.60
   7   1  -5   30.10    3.20
   7   1  -5   28.30    3.60
   7   1  -5   27.50    3.30
   7   1  -5   28.20    2.80
   7   1  -5   25.90    2.30
  -7  -1   5   31.70    2.80
  -7  -1   5   25.00    3.80
   6   1  -5    9.40    1.80
   6   1  -5    5.80    1.90
   6   1  -5    6.40    1.90
   6   1  -5    8.70    1.60
   6   1  -5    6.50    1.30
  -6  -1   5   11.60    2.20
  -6  -1   5    6.40    1.50
  -6  -1   5    9.30    2.90
   5   1  -5    1.70    0.90
   5   1  -5    1.70    0.90
   5   1  -5    2.10    1.30
   5   1  -5    2.20    0.90
  -5  -1   5    2.60    1.00
  -5  -1   5    2.60    1.20
  -5  -1   5    0.50    0.90
   4   1  -5   11.20    1.30
   4   1  -5   10.60    2.00
   4   1  -5   11.40    1.20
   4   1  -5   10.90    1.50
   4   1  -5   11.00    1.30
  -4  -1   5   10.20    1.70
  -4  -1   5   12.40    1.80
  -4  -1   5   13.30    1.50
   3   1  -5  320.47    7.60
   3   1  -5  323.77    7.50
   3   1  -5  319.47    7.00
   3   1  -5  313.27    6.90
   3   1  -5  311.87    7.90
  -3  -1   5  300.87    8.50
  -3  -1   5  321.97    7.60
  -3  -1   5  323.67    7.50
   2   1  -5   25.90    1.10
   2   1  -5   24.70    1.70
   2   1  -5   22.40    1.50
   2   1  -5   26.80    1.40
  -2  -1   5   26.00    1.50
  -2  -1   5   25.80    1.00
  -2  -1   5   23.90    1.70
  -2  -1   5   23.40    1.50
   1   1  -5  633.14   13.60
   1   1  -5  639.54   14.00
   1   1  -5  639.74   13.00
   1   1  -5  634.94   13.90
  -1  -1   5  653.43   14.00
  -1  -1   5  632.04   13.80
  -1  -1   5  648.24   13.00
  -1  -1   5  643.14   13.70
   0   1  -5    1.40    0.50
   0   1  -5    2.50    0.90
   0   1  -5    1.90    0.70
   0  -1   5    1.60    0.60
   0  -1   5    1.50    0.60
   0  -1   5    1.70    0.60
   0  -1   5    1.20    0.50
   0  -1   5    1.40    0.60
  -1   1  -5   49.00    2.30
  -1   1  -5   51.69    1.90
  -1   1  -5   50.99    2.10
   1  -1   5   49.80    2.30
   1  -1   5   49.10    2.00
   1  -1   5   50.69    2.40
   1  -1   5   49.70    2.00
  -2   1  -5  257.77    6.10
  -2   1  -5  261.07    7.10
  -2   1  -5  270.47    6.90
  -2   1  -5  260.07    6.80
   2  -1   5  259.57    7.00
   2  -1   5  260.57    6.10
  -3   1  -5  577.54   12.40
  -3   1  -5  589.54   13.70
  -3   1  -5  592.34   13.70
   3  -1   5  587.34   14.00
   3  -1   5  600.84   13.80
   3  -1   5  580.14   13.50
   3  -1   5  600.34   12.50
   3  -1   5  597.24   13.60
  -4   1  -5  176.58    5.80
  -4   1  -5  170.98    5.70
   4  -1   5  170.98    5.70
   4  -1   5  174.68    4.20
   4  -1   5  165.48    6.00
   4  -1   5  168.18    4.10
   4  -1   5  167.78    5.50
   4  -1   5  176.08    5.70
  -5   1  -5   78.19    4.20
  -5   1  -5   80.29    5.00
   5  -1   5   94.89    4.70
   5  -1   5   92.29    4.60
   5  -1   5   84.59    4.10
  -6   1  -5   35.60    3.70
  -6   1  -5   24.20    3.80
   6  -1   5   33.70    3.80
   6  -1   5   28.80    3.40
  -7   1  -5   27.60    4.30
   7  -1   5   28.50    3.90
   7  -1   5   21.70    4.80
  -8   1  -5    5.60    3.00
   8  -1   5    0.70    2.30
   8  -1   5    2.20    3.00
   9   0  -5   -1.80    2.60
   9   0  -5    2.10    2.50
   9   0  -5   17.50    5.20
   8   0  -5   -0.90    2.20
   8   0  -5   -0.80    1.80
   7   0  -5   40.10    3.90
   7   0  -5   34.60    3.50
   7   0  -5   33.30    4.00
  -7   0   5   32.00    2.60
  -7   0   5   36.50    2.60
  -7   0   5   29.30    4.20
   6   0  -5   62.09    4.20
   6   0  -5   59.79    3.40
   6   0  -5   58.29    3.80
  -6   0   5   52.49    3.80
  -6   0   5   62.99    3.20
  -6   0   5   57.09    4.10
  -6   0   5   62.39    2.80
   5   0  -5   19.70    2.90
   5   0  -5   14.00    1.60
   5   0  -5   17.80    2.40
   5   0  -5   18.40    2.00
  -5   0   5   13.30    2.40
  -5   0   5   21.10    1.90
  -5   0   5   20.00    1.80
  -5   0   5   16.70    2.80
   4   0  -5   18.00    2.30
   4   0  -5   20.20    1.50
   4   0  -5   19.70    1.90
   4   0  -5   17.60    1.50
  -4   0   5   20.70    1.60
  -4   0   5   20.10    2.10
  -4   0   5   20.30    1.50
  -4   0   5   17.80    1.90
   3   0  -5   11.90    1.40
   3   0  -5   13.60    1.80
   3   0  -5   12.60    1.00
   3   0  -5   12.80    1.10
  -3   0   5   11.10    1.30
  -3   0   5   14.80    1.60
  -3   0   5   13.10    1.50
   2   0  -5    1.80    0.50
   2   0  -5    1.40    0.50
   2   0  -5    2.10    0.80
   2   0  -5    2.60    1.00
   2   0  -5    2.00    0.40
  -2   0   5    1.40    0.60
  -2   0   5    3.40    0.90
  -2   0   5    1.80    0.70
   1   0  -5  185.68    4.80
   1   0  -5  195.08    4.70
   1   0  -5  188.78    5.00
  -1   0   5  195.18    4.80
  -1   0   5  187.58    4.90
  -1   0   5  187.08    4.80
   0   0  -5  411.86    8.40
   0   0  -5  400.46    8.90
   0   0  -5  400.26    9.30
   0   0  -5  406.86    9.10
   0   0   5  401.96    8.40
   0   0   5  404.56    9.00
   0   0   5  407.26    9.30
   0   0   5  414.66    8.90
  -1   0  -5   40.10    2.00
  -1   0  -5   39.60    1.60
  -1   0  -5   38.00    1.60
   1   0   5   41.10    1.90
   1   0   5   39.80    1.60
   1   0   5   37.80    1.90
   1   0   5   39.50    1.60
  -2   0  -5   93.79    3.30
  -2   0  -5   88.99    2.60
  -2   0  -5   90.39    3.10
  -2   0  -5   90.09    3.00
   2   0   5   90.39    3.00
   2   0   5   90.19    3.10
   2   0   5   91.29    3.30
   2   0   5   92.49    2.70
  -3   0  -5  245.68    6.60
  -3   0  -5  236.08    7.20
   3   0   5  252.07    6.60
   3   0   5  244.68    5.70
   3   0   5  246.98    6.60
   3   0   5  256.97    6.70
   3   0   5  251.07    5.70
   3   0   5  247.38    6.90
  -4   0  -5  116.69    4.30
  -4   0  -5  114.49    4.20
   4   0   5  112.99    3.00
   4   0   5  111.39    4.60
   4   0   5  111.19    4.10
   4   0   5  120.69    4.30
   4   0   5  118.39    4.30
   4   0   5  115.49    3.00
  -5   0  -5    0.20    1.10
  -5   0  -5    0.50    1.10
   5   0   5   -1.00    1.30
   5   0   5    1.30    1.10
   5   0   5    0.40    1.10
   5   0   5    2.40    1.30
  -6   0  -5  178.08    6.50
  -6   0  -5  165.38    6.20
   6   0   5  182.68    6.50
   6   0   5  173.18    6.30
  -7   0  -5  122.99    6.00
  -7   0  -5  104.59    5.80
   7   0   5  116.49    5.40
   7   0   5  119.69    6.00
  -8   0  -5    0.60    2.70
   8   0   5    2.10    2.10
   8   0   5    1.80    2.50
   8  -1  -5   45.00    5.50
   8  -1  -5   28.20    5.00
  -8   1   5   30.00    4.50
   7  -1  -5   83.39    5.10
   7  -1  -5   90.89    5.20
   7  -1  -5   69.19    4.60
  -7   1   5   80.19    3.10
  -7   1   5   75.59    7.40
  -7   1   5   73.29    2.90
  -7   1   5   69.59    5.30
   6  -1  -5    4.20    1.70
   6  -1  -5    7.60    2.40
   6  -1  -5    7.20    1.90
  -6   1   5    8.00    1.80
  -6   1   5    4.10    1.80
  -6   1   5    6.30    1.70
  -6   1   5    7.90    2.50
  -6   1   5    3.40    1.80
   5  -1  -5  367.66    9.50
   5  -1  -5  365.96    9.60
   5  -1  -5  344.57    8.90
  -5   1   5  354.26    8.30
  -5   1   5  360.66    8.30
  -5   1   5  366.56    9.00
  -5   1   5  351.96    9.60
  -5   1   5  354.96    9.30
   4  -1  -5  107.39    4.20
   4  -1  -5  107.59    3.50
   4  -1  -5  114.19    4.20
  -4   1   5  110.89    4.30
  -4   1   5  109.29    3.30
  -4   1   5  110.89    3.60
  -4   1   5  110.89    3.40
  -4   1   5  108.89    4.00
   3  -1  -5  216.38    5.30
   3  -1  -5  224.48    5.90
   3  -1  -5  220.38    6.10
  -3   1   5  226.28    5.60
  -3   1   5  228.28    5.80
  -3   1   5  221.08    5.50
  -3   1   5  224.48    5.40
  -3   1   5  224.38    6.10
   2  -1  -5   37.50    1.90
   2  -1  -5   37.50    2.00
   2  -1  -5   36.40    1.40
  -2   1   5   39.10    2.00
  -2   1   5   37.10    1.70
  -2   1   5   39.50    1.80
   1  -1  -5 1428.16   29.70
   1  -1  -5 1434.86   29.20
   1  -1  -5 1476.75   28.70
  -1   1   5 1423.56   29.20
  -1   1   5 1468.45   29.40
  -1   1   5 1490.75   28.70
  -1   1   5 1448.36   29.70
   0  -1  -5    0.60    0.50
   0  -1  -5    0.00    0.50
   0   1   5    1.00    0.60
   0   1   5    0.20    0.50
   0   1   5    1.00    0.60
   0   1   5    1.00    0.70
   0   1   5    1.60    0.60
  -1  -1  -5 1303.37   27.20
  -1  -1  -5 1324.77   27.00
   1   1   5 1327.37   26.90
   1   1   5 1334.17   26.90
   1   1   5 1360.46   26.70
   1   1   5 1335.47   27.20
   1   1   5 1322.97   26.70
   1   1   5 1310.27   26.90
  -2  -1  -5  487.15   10.80
   2   1   5  484.65   10.50
   2   1   5  495.75   10.60
   2   1   5  493.45   11.10
   2   1   5  495.15   10.90
   2   1   5  490.85   11.00
   2   1   5  493.35   10.80
   2   1   5  494.25   10.90
  -3  -1  -5  145.99    4.40
   3   1   5  145.49    4.30
   3   1   5  146.69    3.80
   3   1   5  147.09    3.80
   3   1   5  146.59    4.30
  -4  -1  -5   17.20    1.90
  -4  -1  -5   17.10    2.20
   4   1   5   17.30    1.90
   4   1   5   17.20    2.10
   4   1   5   19.30    1.80
   4   1   5   18.70    1.80
   4   1   5   18.80    1.30
   4   1   5   15.80    1.20
  -5  -1  -5    7.40    2.10
  -5  -1  -5    8.40    2.00
   5   1   5    7.50    1.20
   5   1   5    7.80    2.10
   5   1   5    6.30    1.10
   5   1   5    8.70    2.30
   5   1   5   11.40    2.00
   5   1   5    8.40    2.10
  -6  -1  -5    0.90    1.30
  -6  -1  -5    1.30    1.50
   6   1   5    1.10    1.40
   6   1   5   -1.00    1.20
   6   1   5    1.90    1.40
   6   1   5    0.00    1.60
  -7  -1  -5  130.09    5.80
  -7  -1  -5  139.59    6.00
   7   1   5  139.49    5.80
   7   1   5  136.59    5.90
  -8  -1  -5    1.10    2.40
  -8  -1  -5    0.20    2.20
   8   1   5   -0.10    2.10
   9   1   5   -4.40    3.00
   8  -2  -5   -3.60    2.60
  -8   2   5    0.40    2.80
   7  -2  -5   45.40    4.70
   7  -2  -5   66.09    5.20
  -7   2   5   49.30    4.50
   6  -2  -5   72.09    4.70
   6  -2  -5   58.29    3.90
  -6   2   5   46.50    4.40
  -6   2   5   60.29    2.60
  -6   2   5   64.59    4.30
  -6   2   5   60.89    2.70
  -6   2   5   64.59    4.00
   5  -2  -5    7.50    1.80
   5  -2  -5    8.50    2.20
   5  -2  -5   10.60    2.90
  -5   2   5    9.20    2.50
  -5   2   5    9.50    2.20
  -5   2   5    5.30    1.70
  -5   2   5    8.30    1.60
  -5   2   5    8.00    1.60
   4  -2  -5   56.19    3.20
   4  -2  -5   54.39    3.40
   4  -2  -5   53.49    2.80
  -4   2   5   53.49    2.30
  -4   2   5   54.39    3.20
  -4   2   5   55.39    2.80
  -4   2   5   56.79    2.40
  -4   2   5   55.49    2.90
   3  -2  -5   39.10    2.40
   3  -2  -5   37.30    2.00
   3  -2  -5   39.50    2.60
  -3   2   5   40.50    2.50
  -3   2   5   37.60    2.10
  -3   2   5   38.20    1.90
  -3   2   5   38.80    2.00
  -3   2   5   39.10    1.90
   2  -2  -5    0.60    0.70
   2  -2  -5    1.00    0.80
   2  -2  -5    1.00    0.70
  -2   2   5    0.90    0.80
  -2   2   5    1.70    0.60
  -2   2   5    1.00    0.60
  -2   2   5    1.30    0.60
  -2   2   5    1.50    0.70
   1  -2  -5    7.50    0.90
   1  -2  -5    8.50    1.00
   1  -2  -5    8.60    1.30
  -1   2   5    7.10    0.90
  -1   2   5    9.90    1.70
  -1   2   5   10.30    1.10
  -1   2   5    8.80    1.30
   0  -2  -5  464.95   10.40
   0  -2  -5  467.15    9.60
   0  -2  -5  463.85    9.80
   0  -2  -5  457.75   10.20
   0   2   5  462.65   10.20
   0   2   5  463.45   10.30
   0   2   5  456.35    9.50
   0   2   5  474.85    9.80
  -1  -2  -5  700.63   14.50
  -1  -2  -5  694.53   14.80
  -1  -2  -5  698.33   14.80
  -1  -2  -5  696.13   14.50
   1   2   5  694.33   14.70
   1   2   5  703.83   14.80
   1   2   5  707.93   14.50
  -2  -2  -5  199.28    5.10
  -2  -2  -5  194.88    4.90
   2   2   5  199.48    5.00
   2   2   5  195.28    4.90
   2   2   5  196.78    5.00
   2   2   5  196.28    5.00
   2   2   5  197.88    4.90
   2   2   5  194.78    4.80
  -3  -2  -5   11.90    1.20
   3   2   5   11.20    1.40
   3   2   5   11.50    1.20
   3   2   5   12.30    1.40
   3   2   5   11.00    1.10
   3   2   5   11.40    1.20
   3   2   5   11.40    1.30
  -4  -2  -5    6.70    1.50
  -4  -2  -5    6.60    1.10
   4   2   5    8.50    1.60
   4   2   5    5.90    1.10
   4   2   5    8.40    1.30
   4   2   5    6.90    1.40
   4   2   5    7.40    1.30
   4   2   5    7.60    1.50
  -5  -2  -5  276.57    7.70
  -5  -2  -5  287.07    7.20
   5   2   5  278.77    7.70
   5   2   5  281.77    7.70
   5   2   5  276.07    7.80
   5   2   5  275.97    6.50
   5   2   5  284.67    7.10
  -6  -2  -5  126.29    4.60
  -6  -2  -5  122.89    5.00
   6   2   5  120.19    3.50
   6   2   5  130.49    4.60
   6   2   5  130.99    5.20
   6   2   5  125.59    3.50
   6   2   5  120.39    5.70
   6   2   5  126.99    5.10
  -7  -2  -5   83.79    4.30
   7   2   5   91.19    4.70
   7   2   5   94.19    4.40
   7   2   5   93.09    4.50
  -8  -2  -5    4.40    2.00
   8   2   5    5.20    1.80
   8   2   5    4.20    2.00
   8   2   5    1.20    1.80
   9   2   5   -2.30    4.60
   9   2   5    1.60    2.10
   7  -3  -5   12.60    2.90
  -7   3   5   20.50    4.60
   6  -3  -5    0.40    2.10
   6  -3  -5    1.20    1.80
   6  -3  -5    0.80    1.70
  -6   3   5   -0.40    1.20
  -6   3   5   -1.20    2.00
  -6   3   5    0.20    1.80
   5  -3  -5  114.29    5.30
   5  -3  -5  110.99    4.70
   5  -3  -5  105.59    4.70
  -5   3   5  105.89    4.60
  -5   3   5  107.89    4.80
  -5   3   5   86.99    4.90
  -5   3   5  104.89    3.50
  -5   3   5  110.09    3.60
   4  -3  -5    2.40    1.40
   4  -3  -5    1.30    1.30
   4  -3  -5    1.10    1.30
  -4   3   5    1.80    0.90
  -4   3   5    1.80    1.20
  -4   3   5    1.10    1.30
  -4   3   5   -1.10    1.00
  -4   3   5    0.50    0.90
   3  -3  -5  358.76    8.40
   3  -3  -5  339.07    8.60
   3  -3  -5  349.67    9.30
  -3   3   5  353.66    8.80
  -3   3   5  344.37    9.30
  -3   3   5  352.26    8.20
  -3   3   5  348.47    8.20
  -3   3   5  354.36    8.30
   2  -3  -5   93.19    3.80
   2  -3  -5   95.29    3.00
   2  -3  -5   98.29    3.20
   2  -3  -5   97.89    3.30
  -2   3   5   96.39    3.30
  -2   3   5   94.59    2.90
  -2   3   5   95.89    3.10
  -2   3   5   92.79    3.90
   1  -3  -5  148.89    4.20
   1  -3  -5  154.38    4.70
   1  -3  -5  147.39    4.20
  -1   3   5  151.48    3.50
  -1   3   5  147.79    4.70
  -1   3   5  151.68    4.20
  -1   3   5  150.88    4.20
   0  -3  -5   24.60    1.70
   0  -3  -5   24.40    1.50
   0  -3  -5   27.60    1.60
   0   3   5   26.90    1.50
   0   3   5   24.60    1.60
   0   3   5   24.30    1.60
  -1  -3  -5  302.77    7.10
  -1  -3  -5  303.57    7.20
  -1  -3  -5  306.47    7.20
   1   3   5  299.47    7.10
   1   3   5  303.37    7.20
   1   3   5  309.87    7.20
  -2  -3  -5  121.99    3.60
  -2  -3  -5  120.89    3.50
  -2  -3  -5  122.99    3.70
   2   3   5  124.99    3.60
   2   3   5  121.19    3.40
   2   3   5  124.79    3.20
   2   3   5  125.79    3.40
   2   3   5  125.59    3.70
  -3  -3  -5   49.90    2.10
  -3  -3  -5   48.00    2.10
   3   3   5   49.30    2.30
   3   3   5   50.59    2.10
   3   3   5   50.19    1.90
   3   3   5   50.19    2.10
  -4  -3  -5   13.90    1.50
  -4  -3  -5   13.60    1.70
   4   3   5   15.10    1.70
   4   3   5   14.30    1.20
   4   3   5   13.90    1.20
   4   3   5   14.70    1.70
   4   3   5   15.80    1.70
   4   3   5   13.50    1.50
  -5  -3  -5  151.58    5.00
  -5  -3  -5  147.99    4.30
   5   3   5  151.28    4.20
   5   3   5  150.98    5.20
   5   3   5  147.59    4.30
   5   3   5  154.28    5.00
   5   3   5  149.79    4.20
   5   3   5  147.99    5.00
  -6  -3  -5    5.60    1.50
  -6  -3  -5    5.80    1.60
   6   3   5    4.10    1.30
   6   3   5    5.70    1.90
   6   3   5    5.50    1.60
   6   3   5    8.20    2.50
   6   3   5   10.00    2.10
   6   3   5    4.80    1.10
  -7  -3  -5   11.60    1.80
  -7  -3  -5    5.80    2.10
   7   3   5   10.40    2.60
   7   3   5    6.60    1.80
   7   3   5    9.10    2.50
   7   3   5    9.90    2.20
   7   3   5    9.60    2.40
   8   3   5  140.79    4.10
   8   3   5  133.69    4.20
   8   3   5  144.99    5.60
   8   3   5  156.48    6.10
   8   3   5  143.59    6.30
   9   3   5    6.60    2.50
   9   3   5   13.60    4.50
   9   3   5   14.00    3.90
   6  -4  -5    5.40    2.30
  -6   4   5    8.00    2.40
  -6   4   5    7.60    2.70
   5  -4  -5   79.59    4.40
   5  -4  -5   71.89    4.60
   5  -4  -5   84.09    4.90
  -5   4   5   79.79    4.50
  -5   4   5   62.99    5.10
  -5   4   5   79.79    3.40
  -5   4   5   79.89    4.90
   4  -4  -5    6.80    1.80
   4  -4  -5   11.40    2.80
   4  -4  -5    6.60    1.70
  -4   4   5    8.10    2.40
  -4   4   5    6.00    1.90
  -4   4   5    7.20    1.40
  -4   4   5    8.90    2.70
   3  -4  -5   65.89    3.50
   3  -4  -5   63.39    4.00
   3  -4  -5   67.89    3.20
   3  -4  -5   70.69    3.00
  -3   4   5   67.99    3.00
  -3   4   5   64.79    3.80
  -3   4   5   70.69    3.60
  -3   4   5   65.59    2.90
   2  -4  -5  135.59    5.10
   2  -4  -5  138.49    4.70
   2  -4  -5  137.59    4.30
   2  -4  -5  140.19    3.90
  -2   4   5  140.79    4.60
  -2   4   5  137.29    4.20
  -2   4   5  135.99    5.00
   1  -4  -5  311.17    6.80
   1  -4  -5  316.97    7.90
   1  -4  -5  308.97    8.20
   1  -4  -5  310.47    7.70
  -1   4   5  314.07    7.60
  -1   4   5  313.87    7.80
  -1   4   5  314.37    8.20
   0  -4  -5  118.39    3.70
   0  -4  -5  115.29    4.00
   0  -4  -5  112.39    3.70
   0   4   5  115.39    3.80
   0   4   5  114.99    3.60
   0   4   5  110.89    3.90
  -1  -4  -5   59.69    2.50
  -1  -4  -5   56.59    2.50
  -1  -4  -5   55.99    2.50
   1   4   5   60.49    2.60
   1   4   5   57.19    2.50
   1   4   5   56.89    2.40
  -2  -4  -5   16.70    1.60
  -2  -4  -5   19.70    1.50
  -2  -4  -5   17.70    1.40
   2   4   5   19.00    1.80
   2   4   5   17.60    1.60
  -3  -4  -5  479.65   10.40
  -3  -4  -5  466.95   11.00
  -3  -4  -5  471.95   10.40
  -3  -4  -5  487.25   11.00
   3   4   5  474.55   10.80
   3   4   5  478.35   11.10
   3   4   5  485.75   10.40
   3   4   5  473.75   10.30
  -4  -4  -5  115.09    4.00
  -4  -4  -5  119.19    3.90
  -4  -4  -5  115.39    3.80
   4   4   5  119.19    3.80
   4   4   5  116.29    3.80
   4   4   5  115.19    4.10
   4   4   5  115.99    3.20
   4   4   5  115.29    3.20
  -5  -4  -5  210.08    5.80
  -5  -4  -5  206.78    6.10
   5   4   5  211.68    6.30
   5   4   5  207.98    5.00
   5   4   5  212.58    6.20
   5   4   5  213.38    5.00
   5   4   5  203.98    6.40
   5   4   5  206.58    5.70
  -6  -4  -5    1.50    1.40
  -6  -4  -5    3.80    1.20
   6   4   5    3.00    1.80
   6   4   5    3.60    1.50
   6   4   5    3.20    0.80
   6   4   5    2.80    1.50
   6   4   5    2.60    1.20
  -7  -4  -5   -0.10    1.70
  -7  -4  -5    2.30    1.20
   7   4   5    3.00    1.70
   7   4   5    5.00    1.50
   7   4   5    6.00    2.10
   7   4   5    3.40    1.50
   7   4   5    4.00    1.00
  -8  -4  -5    3.50    1.40
   8   4   5    1.60    1.80
   8   4   5    3.70    1.50
   8   4   5    1.50    1.70
   8   4   5    0.90    1.20
   8   4   5    0.90    1.80
   9   4   5   46.50    5.20
   9   4   5   57.09    4.60
  -6   5   5    5.00    3.00
   5  -5  -5   60.49    5.70
   5  -5  -5   81.39    5.00
   5  -5  -5   66.89    4.80
  -5   5   5   63.39    3.50
  -5   5   5   78.89    5.70
   4  -5  -5   24.30    3.60
   4  -5  -5   23.50    3.60
   4  -5  -5   16.30    3.60
   4  -5  -5   21.10    3.30
  -4   5   5   24.70    3.70
  -4   5   5   17.80    2.90
   3  -5  -5   70.79    4.20
   3  -5  -5   76.49    4.50
   3  -5  -5   74.19    3.40
   3  -5  -5   72.99    3.60
   3  -5  -5   74.49    3.40
  -3   5   5   70.59    3.50
  -3   5   5   75.09    4.10
   2  -5  -5    6.00    1.80
   2  -5  -5    4.30    1.50
   2  -5  -5    0.70    1.00
   2  -5  -5    2.60    1.00
   2  -5  -5    3.00    1.50
  -2   5   5    3.10    1.40
  -2   5   5    2.40    1.20
  -2   5   5    0.90    0.90
   1  -5  -5  103.39    4.60
   1  -5  -5  104.69    4.30
   1  -5  -5  105.59    3.30
   1  -5  -5  109.29    3.90
  -1   5   5  108.49    4.30
  -1   5   5  106.89    3.90
  -1   5   5  106.69    4.30
   0  -5  -5    5.40    1.30
   0  -5  -5    7.50    1.90
   0  -5  -5    6.20    1.20
   0   5   5    5.90    1.40
   0   5   5    7.10    1.70
   0   5   5    6.40    2.00
  -1  -5  -5   52.29    2.80
  -1  -5  -5   53.79    2.70
  -1  -5  -5   53.59    2.90
   1   5   5   56.19    3.00
   1   5   5   53.29    2.80
   1   5   5   55.29    2.60
  -2  -5  -5   19.50    1.80
  -2  -5  -5   20.40    1.80
  -2  -5  -5   21.70    2.00
   2   5   5   24.30    2.10
   2   5   5   22.60    2.00
   2   5   5   24.30    2.30
  -3  -5  -5  444.76   10.60
  -3  -5  -5  452.65   10.70
  -3  -5  -5  438.16    9.90
  -3  -5  -5  443.26    9.70
   3   5   5  446.56   10.90
   3   5   5  451.65    9.90
   3   5   5  451.65    9.80
   3   5   5  441.06   10.50
  -4  -5  -5   20.10    1.90
  -4  -5  -5   22.90    2.20
  -4  -5  -5   21.60    2.00
  -4  -5  -5   23.30    1.40
   4   5   5   24.10    1.60
   4   5   5   24.80    2.40
   4   5   5   24.50    2.30
   4   5   5   23.90    2.10
  -5  -5  -5   24.40    2.40
  -5  -5  -5   25.40    2.20
  -5  -5  -5   24.40    2.50
   5   5   5   27.10    2.70
   5   5   5   22.90    2.50
   5   5   5   22.50    2.60
  -6  -5  -5  162.88    5.80
  -6  -5  -5  177.78    5.50
   6   5   5  167.98    6.20
   6   5   5  171.68    5.50
   6   5   5  177.38    6.00
   6   5   5  172.38    6.00
  -7  -5  -5    7.50    2.10
  -7  -5  -5    8.30    2.50
   7   5   5    8.50    2.80
   7   5   5    7.00    1.70
   7   5   5    8.00    1.90
  -8  -5  -5    1.20    1.50
   8   5   5    1.60    2.00
   8   5   5    1.70    1.70
   8   5   5    1.80    2.10
  -9  -5  -5   48.50    3.80
   9   5   5   49.20    4.50
   9   5   5   46.20    5.30
  -5   6   5   23.80    5.70
   4  -6  -5    0.20    1.60
   4  -6  -5    1.70    1.70
   4  -6  -5   -0.90    1.80
   4  -6  -5   -0.60    2.10
  -4   6   5   -1.60    2.20
  -4   6   5    2.10    2.20
   3  -6  -5   66.29    3.60
   3  -6  -5   63.29    3.90
   3  -6  -5   76.89    4.70
   3  -6  -5   66.89    3.70
  -3   6   5   62.09    4.00
  -3   6   5   72.19    4.70
   2  -6  -5   11.60    2.10
   2  -6  -5   18.30    3.30
   2  -6  -5   10.70    3.00
   2  -6  -5   13.10    2.10
   2  -6  -5    9.10    2.30
  -2   6   5    9.10    3.60
  -2   6   5   11.50    2.80
   1  -6  -5  159.88    4.20
   1  -6  -5  175.78    6.50
   1  -6  -5  164.78    5.90
   1  -6  -5  168.38    4.20
   1  -6  -5  174.78    5.50
  -1   6   5  159.98    6.00
  -1   6   5  166.48    5.50
  -1   6   5  178.88    6.20
   0  -6  -5   39.00    3.10
   0  -6  -5   37.10    3.60
   0  -6  -5   38.40    2.80
   0   6   5   39.70    3.30
   0   6   5   34.70    3.20
   0   6   5   38.30    2.90
  -1  -6  -5  100.89    4.00
  -1  -6  -5   96.69    4.10
  -1  -6  -5   97.89    4.30
   1   6   5   97.79    4.40
   1   6   5   96.19    3.70
   1   6   5   96.59    4.10
  -2  -6  -5  155.08    5.20
  -2  -6  -5  159.78    5.10
  -2  -6  -5  163.18    5.30
   2   6   5  156.98    5.10
   2   6   5  157.68    5.60
   2   6   5  161.38    5.00
  -3  -6  -5  214.68    5.70
  -3  -6  -5  231.38    6.60
  -3  -6  -5  214.78    6.40
  -3  -6  -5  216.28    5.30
   3   6   5  219.38    5.80
   3   6   5  216.28    5.30
   3   6   5  208.48    6.20
   3   6   5  229.58    6.90
  -4  -6  -5    0.80    0.60
  -4  -6  -5    0.60    1.00
  -4  -6  -5   -0.40    1.00
  -4  -6  -5   -0.80    1.00
   4   6   5    0.60    1.30
   4   6   5    0.50    0.80
   4   6   5    0.40    1.10
   4   6   5    0.50    0.90
  -5  -6  -5    9.60    2.00
  -5  -6  -5    7.10    2.30
  -5  -6  -5    9.20    1.60
   5   6   5   10.20    2.80
   5   6   5    8.90    2.50
  -6  -6  -5    0.20    1.50
  -6  -6  -5    0.40    1.20
   6   6   5   -0.60    1.60
   6   6   5   -0.90    1.40
   6   6   5   -1.60    1.20
  -7  -6  -5   48.50    4.30
  -7  -6  -5   55.79    3.80
   7   6   5   49.99    3.90
   7   6   5   47.30    3.90
  -8  -6  -5   17.70    5.90
   8   6   5   23.50    3.50
   8   6   5   26.80    4.50
   8   6   5   20.50    4.40
  -9  -6  -5   20.70    5.00
   9   6   5    9.80    3.10
   9   6   5   13.50    4.00
   4  -7  -5   25.90    4.70
   4  -7  -5   13.90    3.80
   3  -7  -5   26.30    3.60
  -3   7   5   26.90    4.80
  -3   7   5   35.20    5.20
   2  -7  -5   10.00    2.40
   2  -7  -5    8.50    2.40
  -2   7   5   11.70    3.90
  -2   7   5    6.60    2.30
   1  -7  -5   21.10    1.90
   1  -7  -5   23.50    4.90
   1  -7  -5   34.60    3.90
  -1   7   5   25.90    3.40
  -1   7   5   29.20    3.80
   0  -7  -5    0.90    2.10
   0  -7  -5   -1.10    1.60
   0  -7  -5   -0.60    1.50
   0   7   5   -0.80    1.40
   0   7   5   -0.20    1.50
   0   7   5    0.90    1.70
  -1  -7  -5  110.19    5.00
  -1  -7  -5  108.49    4.90
   1   7   5  105.29    4.40
   1   7   5   99.79    6.90
   1   7   5   99.99    4.60
  -2  -7  -5    4.50    1.50
  -2  -7  -5    4.10    2.60
  -2  -7  -5    5.20    1.50
   2   7   5    9.60    3.00
   2   7   5    3.30    1.20
   2   7   5    4.40    1.40
  -3  -7  -5   36.40    2.80
  -3  -7  -5   48.60    3.80
  -3  -7  -5   39.80    2.80
  -3  -7  -5   41.50    2.00
   3   7   5   40.00    3.00
   3   7   5   41.10    2.00
   3   7   5   33.60    3.30
  -4  -7  -5   14.20    2.10
  -4  -7  -5   13.80    2.20
  -4  -7  -5   21.90    2.90
  -4  -7  -5   13.30    1.80
   4   7   5   16.40    2.10
   4   7   5   17.70    2.10
   4   7   5   13.20    2.20
   4   7   5   22.80    2.90
  -5  -7  -5   11.10    2.50
  -5  -7  -5   17.30    3.00
   5   7   5   14.50    2.70
   5   7   5    9.90    2.50
   5   7   5   16.30    2.80
  -6  -7  -5   10.40    3.40
  -6  -7  -5   10.80    3.30
   6   7   5    8.20    2.70
   6   7   5    8.10    2.00
   6   7   5   14.30    3.90
  -7  -7  -5  111.29    5.40
  -7  -7  -5  101.99    5.50
   7   7   5   88.79    8.50
   7   7   5  103.59    5.20
  -8  -7  -5    2.40    2.00
   8   7   5    1.50    2.00
   8   7   5    2.60    2.70
  -9  -7  -5    1.10    2.50
   9   7   5    3.00    3.20
   9   7   5    1.20    2.40
   3  -8  -5   36.70    5.60
  -3   8   5   37.00    6.90
   2  -8  -5   17.10    4.80
  -2   8   5    4.70    2.70
   1  -8  -5   10.60    3.30
   1  -8  -5    8.20    2.40
   0  -8  -5    0.80    1.80
   0  -8  -5    0.80    1.70
   0   8   5    0.60    2.10
  -1  -8  -5   45.80    5.20
  -1  -8  -5   48.70    3.80
   1   8   5   36.40    4.10
   1   8   5   52.39    4.50
  -2  -8  -5    4.50    1.50
  -2  -8  -5   10.00    3.20
   2   8   5    4.70    1.80
   2   8   5    1.60    1.70
  -3  -8  -5    2.90    1.40
  -3  -8  -5    9.20    3.00
   3   8   5    2.20    1.50
   3   8   5    3.60    1.80
  -4  -8  -5    6.70    1.70
  -4  -8  -5    5.30    1.20
  -4  -8  -5    5.30    1.40
   4   8   5    8.70    2.40
   4   8   5    5.40    1.80
   4   8   5    4.00    1.20
  -5  -8  -5   67.19    3.80
  -5  -8  -5   80.59    4.80
   5   8   5   65.79    4.30
   5   8   5   68.69    3.70
  -6  -8  -5    2.40    2.10
  -6  -8  -5    3.00    2.00
   6   8   5    1.30    1.80
   6   8   5    3.60    1.90
  -7  -8  -5   24.80    4.70
  -7  -8  -5   28.80    4.60
   7   8   5   16.60    3.60
  -8  -8  -5   31.70    4.90
   8   8   5   25.30    5.80
   8   8   5   16.10    4.10
   1  -9  -5   43.80    6.00
   1  -9  -5   34.90    4.90
  -1   9   5   45.40    6.70
   0  -9  -5    5.40    2.40
   0  -9  -5    2.50    2.20
   0   9   5   16.80    5.10
  -1  -9  -5   43.80    5.20
  -1  -9  -5   46.50    4.50
   1   9   5   60.69    5.40
  -2  -9  -5   -2.10    1.70
  -2  -9  -5    0.10    3.60
   2   9   5   -1.60    2.10
  -3  -9  -5   53.99    4.60
  -3  -9  -5   51.59    4.50
   3   9   5   54.49    4.50
   3   9   5   49.60    4.40
  -4  -9  -5   -0.50    1.50
  -4  -9  -5    3.30    1.90
   4   9   5    2.70    2.10
   4   9   5   -0.50    1.30
   4   9   5    0.20    1.70
  -5  -9  -5   63.09    3.70
   5   9   5   59.79    3.60
   5   9   5   63.19    4.70
  -6  -9  -5    3.90    2.40
   6   9   5   -0.60    1.90
   6   9   5    0.80    1.90
  -7  -9  -5    4.40    2.60
   7   9   5    6.40    4.90
   7   9   5    1.30    2.20
  -1 -10  -5    2.50    2.70
  -1 -10  -5    3.70    3.10
   1  10   5   19.80    6.50
  -2 -10  -5    7.50    2.80
  -2 -10  -5    8.90    2.90
  -3 -10  -5   23.30    5.30
  -3 -10  -5   23.20    5.60
   3  10   5   31.20    5.00
  -4 -10  -5    2.80    2.60
   4  10   5    3.80    2.40
  -5 -10  -5   23.10    5.30
  -6 -10  -5   22.00    6.00
   7   8  -6   24.60    7.20
   6   8  -6    2.40    2.80
   6   8  -6    1.70    2.90
  -6  -8   6    4.50    2.30
   5   8  -6    5.80    2.80
   5   8  -6    3.50    2.80
  -5  -8   6    2.70    2.10
  -5  -8   6    2.20    1.90
   4   8  -6   16.70    5.30
   4   8  -6   21.20    4.80
  -4  -8   6   21.50    3.70
  -4  -8   6   23.30    7.00
   3   8  -6   35.00    5.30
   3   8  -6   47.90    5.30
  -3  -8   6   34.00    4.90
  -3  -8   6   42.80    4.50
   2   8  -6   58.79    5.60
   2   8  -6   54.59    5.80
  -2  -8   6   47.70    5.30
  -2  -8   6   50.09    5.10
   1   8  -6    3.10    2.90
   1   8  -6    8.20    3.00
  -1  -8   6    6.90    2.40
  -1  -8   6    1.70    2.40
   0   8  -6   33.80    6.50
   0   8  -6   27.40    6.30
   0  -8   6   32.90    5.40
   8   7  -6    7.00    3.20
  -8  -7   6    8.00    3.00
   7   7  -6   36.20    5.10
   7   7  -6   54.79    6.20
  -7  -7   6   39.50    4.80
   6   7  -6   17.70    4.30
  -6  -7   6   16.10    3.00
  -6  -7   6   23.20    3.90
   5   7  -6   38.20    4.30
   5   7  -6   44.20    5.30
  -5  -7   6   31.10    3.40
  -5  -7   6   33.70    3.50
  -5  -7   6   38.80    3.70
   4   7  -6   51.59    4.40
   4   7  -6   52.29    5.10
  -4  -7   6   41.20    3.90
  -4  -7   6   46.70    3.80
  -4  -7   6   54.59    3.80
   3   7  -6    3.70    2.10
   3   7  -6    2.70    2.30
  -3  -7   6    2.50    1.60
  -3  -7   6    3.40    1.70
  -3  -7   6    0.10    1.70
   2   7  -6   17.00    3.90
   2   7  -6    8.40    2.30
  -2  -7   6    6.60    1.90
  -2  -7   6    6.90    2.00
   1   7  -6   55.99    5.00
   1   7  -6   54.99    5.30
  -1  -7   6   48.30    4.20
  -1  -7   6   44.60    4.50
   0   7  -6   11.50    2.80
   0   7  -6   22.40    4.50
   0  -7   6   12.50    3.90
   0  -7   6    9.90    2.40
  -1   7  -6    3.40    2.70
   1  -7   6   -1.70    2.00
   1  -7   6    2.80    2.20
  -2   7  -6   30.00    6.60
   2  -7   6   23.20    5.00
   2  -7   6   10.00    2.80
   2  -7   6   16.10    4.80
   8   6  -6   -2.90    2.60
  -8  -6   6    0.70    2.30
   7   6  -6   12.70    4.20
  -7  -6   6   14.90    2.50
  -7  -6   6   12.10    3.90
   6   6  -6   59.89    4.70
  -6  -6   6   43.70    3.30
  -6  -6   6   48.10    4.20
  -6  -6   6   45.10    4.00
  -6  -6   6   47.10    3.10
   5   6  -6    4.80    2.00
   5   6  -6   13.80    3.80
  -5  -6   6    2.90    1.50
  -5  -6   6    4.00    1.30
  -5  -6   6    2.90    1.30
  -5  -6   6    0.80    1.70
   4   6  -6  127.49    6.00
   4   6  -6  117.39    5.00
  -4  -6   6  112.49    4.90
  -4  -6   6  123.89    5.00
  -4  -6   6  114.09    4.70
  -4  -6   6  117.99    4.70
  -4  -6   6  104.99    5.60
   3   6  -6    6.40    1.90
   3   6  -6   10.10    2.90
  -3  -6   6    5.10    1.60
  -3  -6   6   10.40    2.60
  -3  -6   6    5.70    1.80
  -3  -6   6   14.50    3.50
  -3  -6   6    5.60    1.50
   2   6  -6   -2.90    2.00
   2   6  -6    0.00    1.60
   2   6  -6   -0.20    1.60
  -2  -6   6    1.80    1.70
  -2  -6   6   -0.10    1.20
  -2  -6   6   -1.40    1.60
  -2  -6   6    0.50    1.40
   1   6  -6   17.90    3.30
   1   6  -6   10.70    3.30
   1   6  -6   13.00    3.30
   1   6  -6   15.90    3.20
  -1  -6   6   14.40    2.90
  -1  -6   6   16.70    3.20
  -1  -6   6   10.60    3.20
  -1  -6   6   23.00    3.50
   0   6  -6   58.79    4.50
   0   6  -6   46.00    4.50
   0   6  -6   47.80    4.30
   0  -6   6   51.99    4.10
   0  -6   6   49.00    3.90
  -1   6  -6   15.30    4.30
  -1   6  -6   16.50    4.20
  -1   6  -6    8.70    2.40
   1  -6   6   13.10    3.50
   1  -6   6    8.60    2.00
  -2   6  -6   22.10    4.60
   2  -6   6   29.00    4.40
   2  -6   6   20.00    3.90
  -3   6  -6   10.20    3.40
   3  -6   6    4.90    2.40
   3  -6   6    2.80    2.00
   3  -6   6    6.30    2.30
   9   5  -6   16.10    5.10
  -9  -5   6   12.60    3.00
   8   5  -6    0.00    2.40
   8   5  -6    7.10    3.40
  -8  -5   6    2.50    2.30
   7   5  -6   20.80    3.50
   7   5  -6   21.00    3.70
  -7  -5   6   19.60    2.50
  -7  -5   6   22.80    4.00
  -7  -5   6   23.70    3.60
   6   5  -6  128.89    7.60
   6   5  -6  107.69    4.80
   6   5  -6  122.09    5.70
  -6  -5   6  106.49    5.00
  -6  -5   6  103.09    3.90
  -6  -5   6  101.59    4.60
  -6  -5   6   86.79    6.00
   5   5  -6   29.40    3.40
   5   5  -6   25.80    3.10
   5   5  -6   22.00    2.80
  -5  -5   6   23.20    2.30
  -5  -5   6   23.10    2.30
  -5  -5   6   16.80    3.00
  -5  -5   6   24.00    2.60
  -5  -5   6   22.50    3.00
   4   5  -6    1.40    1.60
   4   5  -6   -1.00    1.40
   4   5  -6    1.00    1.10
  -4  -5   6    0.80    1.10
  -4  -5   6    1.40    1.60
  -4  -5   6    0.60    1.30
  -4  -5   6    0.70    1.40
  -4  -5   6    1.50    1.00
   3   5  -6  103.09    4.90
   3   5  -6   90.59    4.10
   3   5  -6   98.49    4.20
  -3  -5   6   95.99    4.10
  -3  -5   6   95.99    4.10
  -3  -5   6   95.59    4.50
  -3  -5   6   98.79    4.10
  -3  -5   6   97.99    4.50
   2   5  -6    0.30    1.10
   2   5  -6    0.90    1.40
   2   5  -6    0.90    1.30
  -2  -5   6    1.50    1.40
  -2  -5   6    0.20    1.20
  -2  -5   6    0.80    1.40
  -2  -5   6    1.10    1.10
  -2  -5   6    1.70    1.20
   1   5  -6   38.70    3.10
   1   5  -6   43.00    3.20
   1   5  -6   41.10    3.40
   1   5  -6   39.20    3.20
  -1  -5   6   41.20    3.30
  -1  -5   6   38.00    3.20
  -1  -5   6   40.30    3.20
  -1  -5   6   38.40    3.20
   0   5  -6   39.50    3.30
   0   5  -6   45.10    3.40
   0   5  -6   45.00    3.90
   0   5  -6   41.70    3.40
   0  -5   6   38.40    3.30
   0  -5   6   42.60    3.30
   0  -5   6   39.60    3.40
   0  -5   6   41.70    3.30
  -1   5  -6   25.00    3.50
  -1   5  -6   23.40    3.60
  -1   5  -6   22.20    3.10
  -1   5  -6   22.70    3.00
   1  -5   6   22.50    3.00
   1  -5   6   19.80    3.50
   1  -5   6   21.50    3.20
   1  -5   6   26.20    3.00
  -2   5  -6  102.29    5.50
  -2   5  -6   96.99    5.80
  -2   5  -6   91.89    4.70
   2  -5   6   90.09    4.90
   2  -5   6   89.89    4.30
  -3   5  -6    1.70    1.80
  -3   5  -6    1.40    2.30
   3  -5   6    2.90    1.60
   3  -5   6    0.00    1.80
   3  -5   6    0.50    1.50
  -4   5  -6   61.19    6.00
   4  -5   6   47.80    4.50
   4  -5   6   53.69    3.80
   4  -5   6   50.89    5.40
   9   4  -6    6.70    2.70
  -9  -4   6    4.30    2.60
   8   4  -6    3.10    2.60
   8   4  -6    6.30    2.40
   8   4  -6   15.00    4.10
   8   4  -6    8.60    2.80
   8   4  -6   11.60    2.70
  -8  -4   6    8.20    2.30
   7   4  -6   64.59    4.10
   7   4  -6   80.69    4.90
   7   4  -6   65.99    3.90
   7   4  -6   64.19    3.40
   7   4  -6   58.99    4.30
  -7  -4   6   66.99    4.20
  -7  -4   6   66.09    5.00
   6   4  -6   95.79    4.90
   6   4  -6   85.69    4.30
   6   4  -6   82.49    4.00
   6   4  -6   79.59    3.90
  -6  -4   6   85.49    4.40
  -6  -4   6   83.79    3.90
   5   4  -6    0.80    1.20
   5   4  -6    0.10    1.40
   5   4  -6   -1.30    1.40
  -5  -4   6    0.70    1.40
  -5  -4   6   -0.60    0.80
  -5  -4   6    0.40    1.40
  -5  -4   6    1.30    1.10
  -5  -4   6   -0.20    1.00
   4   4  -6    0.80    1.30
   4   4  -6   -0.20    0.90
   4   4  -6   -0.20    1.10
  -4  -4   6    1.60    1.20
  -4  -4   6    1.20    0.80
  -4  -4   6    0.80    1.10
  -4  -4   6   -0.20    0.90
  -4  -4   6    0.90    1.20
   3   4  -6  377.46    9.30
   3   4  -6  392.16   10.10
   3   4  -6  359.96    9.50
  -3  -4   6  382.96    9.80
  -3  -4   6  388.46    9.40
  -3  -4   6  382.66    9.10
  -3  -4   6  365.76    9.70
  -3  -4   6  376.76    9.50
   2   4  -6    2.50    1.20
   2   4  -6    0.80    1.10
   2   4  -6    2.00    0.90
  -2  -4   6    3.20    1.20
  -2  -4   6    3.60    1.00
  -2  -4   6    2.60    1.00
  -2  -4   6    1.90    0.90
  -2  -4   6    2.40    1.10
   1   4  -6   18.50    2.10
   1   4  -6   17.40    2.40
   1   4  -6   17.00    2.20
  -1  -4   6   22.30    2.10
  -1  -4   6   19.60    2.30
  -1  -4   6   18.80    2.30
  -1  -4   6   18.70    2.40
   0   4  -6  118.09    4.50
   0   4  -6  111.69    4.30
   0   4  -6  109.89    4.50
   0   4  -6  115.29    4.90
   0  -4   6  111.69    4.40
   0  -4   6  122.29    4.50
   0  -4   6  121.49    4.60
   0  -4   6  117.39    4.70
  -1   4  -6  187.58    6.30
  -1   4  -6  184.58    6.50
  -1   4  -6  169.68    5.60
  -1   4  -6  171.48    6.00
   1  -4   6  180.78    6.30
   1  -4   6  176.28    6.20
   1  -4   6  171.68    5.90
   1  -4   6  181.08    5.70
  -2   4  -6    2.00    2.80
  -2   4  -6    3.20    1.30
  -2   4  -6    3.40    1.90
  -2   4  -6    5.70    1.50
   2  -4   6    7.20    2.40
   2  -4   6    5.00    1.70
   2  -4   6    5.10    1.50
  -3   4  -6    7.90    2.60
  -3   4  -6   12.70    3.30
   3  -4   6    7.50    2.60
   3  -4   6   13.50    3.00
   3  -4   6   13.30    2.50
  -4   4  -6   33.80    4.50
  -4   4  -6   31.80    3.00
   4  -4   6   35.40    2.90
   4  -4   6   32.50    3.80
   4  -4   6   46.20    4.30
  -5   4  -6    6.50    3.00
   5  -4   6    4.40    2.20
   9   3  -6   -0.60    2.40
   9   3  -6    2.20    2.00
   9   3  -6    0.80    1.70
  -9  -3   6    2.50    2.30
   8   3  -6   81.39    4.10
   8   3  -6   81.29    5.10
   8   3  -6   79.39    4.60
   8   3  -6   96.09    5.30
   8   3  -6   80.89    4.70
  -8  -3   6   86.89    4.90
  -8  -3   6   71.29    5.30
   7   3  -6   95.29    4.20
   7   3  -6   93.59    4.40
   7   3  -6   93.29    4.00
   7   3  -6   95.59    4.60
   7   3  -6  107.09    5.20
  -7  -3   6   93.29    4.80
  -7  -3   6  101.99    4.70
   6   3  -6   17.00    3.20
   6   3  -6   20.60    2.60
   6   3  -6   21.50    2.10
   6   3  -6   16.90    2.30
   6   3  -6   18.20    2.40
  -6  -3   6   16.70    2.70
  -6  -3   6   15.80    3.10
  -6  -3   6   23.00    3.00
   5   3  -6   37.00    2.40
   5   3  -6   38.40    2.70
   5   3  -6   34.20    2.50
   5   3  -6   37.60    3.40
   5   3  -6   34.70    2.50
  -5  -3   6   34.40    2.60
  -5  -3   6   35.40    3.30
  -5  -3   6   41.70    3.00
   4   3  -6    0.70    0.80
   4   3  -6    2.60    1.10
   4   3  -6    0.10    0.80
   4   3  -6    0.00    1.10
  -4  -3   6   -0.40    1.40
  -4  -3   6    0.70    1.00
  -4  -3   6    0.10    0.80
  -4  -3   6    0.10    1.10
   3   3  -6   61.09    2.80
   3   3  -6   62.99    2.70
   3   3  -6   66.59    3.30
  -3  -3   6   64.39    2.90
  -3  -3   6   65.19    2.50
  -3  -3   6   63.09    3.00
  -3  -3   6   61.19    3.30
   2   3  -6  433.06   10.70
   2   3  -6  426.76   10.30
   2   3  -6  428.86    9.80
  -2  -3   6  432.66   10.40
  -2  -3   6  446.26    9.90
  -2  -3   6  434.96   10.60
  -2  -3   6  442.66   10.40
  -2  -3   6  431.36   10.50
   1   3  -6   22.10    1.80
   1   3  -6   24.10    1.90
   1   3  -6   24.60    2.20
  -1  -3   6   23.20    2.00
  -1  -3   6   25.30    2.00
  -1  -3   6   24.70    2.00
  -1  -3   6   25.70    2.00
  -1  -3   6   22.20    1.90
   0   3  -6  314.37    8.50
   0   3  -6  307.77    7.80
   0   3  -6  309.47    8.20
   0   3  -6  317.07    8.00
   0  -3   6  305.47    7.80
   0  -3   6  313.97    8.30
   0  -3   6  321.07    7.90
   0  -3   6  314.47    8.40
  -1   3  -6    7.20    2.00
  -1   3  -6   10.70    2.30
  -1   3  -6   11.20    1.80
  -1   3  -6   11.00    1.80
   1  -3   6   14.60    2.10
   1  -3   6    9.80    2.00
   1  -3   6   10.50    1.90
   1  -3   6   13.20    2.10
  -2   3  -6  138.79    4.40
  -2   3  -6  142.29    5.60
  -2   3  -6  137.39    5.30
  -2   3  -6  139.89    5.20
   2  -3   6  147.09    4.60
   2  -3   6  139.89    5.30
   2  -3   6  140.59    5.30
   2  -3   6  135.89    4.90
  -3   3  -6    0.40    1.10
  -3   3  -6    2.50    1.60
  -3   3  -6    0.10    1.10
   3  -3   6   -1.30    1.10
   3  -3   6    2.70    1.30
   3  -3   6    0.70    1.20
   3  -3   6    2.60    1.50
  -4   3  -6  275.97    8.80
  -4   3  -6  253.47    6.70
   4  -3   6  286.27    8.60
   4  -3   6  259.77    6.70
   4  -3   6  275.57    8.80
  -5   3  -6    3.10    2.20
   5  -3   6   -0.90    1.80
  -6   3  -6   23.60    4.80
   6  -3   6   24.10    4.80
   6  -3   6   13.60    3.00
   9   2  -6    9.60    2.70
   9   2  -6    8.20    2.50
   8   2  -6   88.09    4.80
   8   2  -6   96.29    4.70
   8   2  -6   85.79    5.20
   8   2  -6   94.59    5.30
   8   2  -6   82.79    4.30
  -8  -2   6   91.39    4.70
  -8  -2   6   84.69    5.70
   7   2  -6    3.30    1.40
   7   2  -6    2.90    1.80
   7   2  -6    1.70    1.60
   7   2  -6    4.00    1.50
   7   2  -6    3.80    1.30
  -7  -2   6    3.60    1.70
  -7  -2   6    3.50    2.00
   6   2  -6   13.20    2.10
   6   2  -6   17.50    2.40
   6   2  -6   10.70    3.70
   6   2  -6   11.50    2.20
   6   2  -6   15.20    2.20
  -6  -2   6   11.00    2.40
  -6  -2   6   11.70    2.90
  -6  -2   6   14.90    2.60
   5   2  -6  325.27    8.30
   5   2  -6  310.77    7.80
   5   2  -6  334.37    9.10
   5   2  -6  322.87    8.20
   5   2  -6  320.17    7.80
  -5  -2   6  320.97    8.30
  -5  -2   6  317.27    8.80
  -5  -2   6  332.57    8.30
   4   2  -6   47.10    2.50
   4   2  -6   47.20    3.00
   4   2  -6   50.69    2.60
   4   2  -6   50.29    2.10
   4   2  -6   50.19    2.20
  -4  -2   6   50.59    2.80
  -4  -2   6   48.00    3.10
   3   2  -6   18.50    1.60
   3   2  -6   19.80    1.50
   3   2  -6   20.90    2.10
   3   2  -6   21.40    1.80
  -3  -2   6   20.50    1.30
  -3  -2   6   20.60    2.10
  -3  -2   6   19.60    1.80
  -3  -2   6   20.30    1.70
   2   2  -6  475.75   11.30
   2   2  -6  474.45   10.90
   2   2  -6  470.15   10.20
  -2  -2   6  482.05   10.20
  -2  -2   6  482.75   11.10
  -2  -2   6  469.25   11.20
  -2  -2   6  491.05   11.00
   1   2  -6  404.56    9.00
   1   2  -6  404.06    9.40
   1   2  -6  399.96    9.80
  -1  -2   6  399.46    9.70
  -1  -2   6  412.46    9.50
  -1  -2   6  411.46    9.70
  -1  -2   6  407.36    9.00
   0   2  -6  366.96    8.70
   0   2  -6  370.96    8.90
   0   2  -6  381.76    9.40
   0  -2   6  387.36    8.90
   0  -2   6  372.56    8.60
   0  -2   6  379.16    9.20
   0  -2   6  376.16    9.50
   0  -2   6  377.76    9.30
  -1   2  -6    5.40    1.50
  -1   2  -6    3.00    0.90
  -1   2  -6    3.50    1.00
   1  -2   6    5.50    1.40
   1  -2   6    4.90    1.40
   1  -2   6    5.50    1.50
   1  -2   6    4.20    1.00
  -2   2  -6   20.60    2.10
  -2   2  -6   23.40    1.80
  -2   2  -6   22.40    2.20
  -2   2  -6   22.20    2.40
   2  -2   6   22.60    2.20
   2  -2   6   22.70    1.80
   2  -2   6   23.90    2.00
   2  -2   6   24.80    2.40
  -3   2  -6   14.20    2.10
  -3   2  -6   13.70    1.60
  -3   2  -6   14.90    2.30
   3  -2   6   14.10    1.90
   3  -2   6   14.20    2.30
   3  -2   6   13.80    2.20
   3  -2   6   17.10    2.00
   3  -2   6   15.30    2.60
  -4   2  -6   21.20    1.80
  -4   2  -6   19.60    2.80
   4  -2   6   25.90    3.30
   4  -2   6   26.00    2.90
   4  -2   6   21.80    2.10
   4  -2   6   27.30    2.60
  -5   2  -6   -1.90    1.70
   5  -2   6   -0.80    1.40
   5  -2   6    0.50    1.40
  -6   2  -6   40.90    4.50
   6  -2   6   47.30    4.40
   6  -2   6   32.90    4.60
  -7   2  -6    6.60    3.10
   7  -2   6    1.80    2.30
   7  -2   6   -2.30    2.50
   9   1  -6   19.80    4.40
   9   1  -6   26.80    5.10
   9   1  -6   24.50    5.00
   8   1  -6   96.99    5.50
   8   1  -6  105.99    5.80
  -8  -1   6   92.29    6.40
  -8  -1   6  102.79    4.60
   7   1  -6   16.50    3.00
   7   1  -6    9.20    2.40
   7   1  -6   10.70    2.40
   7   1  -6   11.10    3.10
   7   1  -6   13.50    3.30
  -7  -1   6   13.80    2.70
  -7  -1   6   10.50    2.30
   6   1  -6   18.50    2.40
   6   1  -6   16.80    3.90
   6   1  -6   18.10    2.50
   6   1  -6   18.10    2.10
   6   1  -6   17.10    2.10
  -6  -1   6   14.70    2.60
  -6  -1   6   19.70    2.50
  -6  -1   6   21.50    3.30
   5   1  -6   76.89    4.00
   5   1  -6   72.69    2.90
   5   1  -6   73.39    3.10
   5   1  -6   75.09    3.40
   5   1  -6   73.89    2.80
  -5  -1   6   72.39    3.50
  -5  -1   6   76.59    3.20
  -5  -1   6   70.69    3.60
   4   1  -6  451.55   10.40
   4   1  -6  457.75    9.90
   4   1  -6  449.76   10.00
   4   1  -6  456.15   11.10
   4   1  -6  453.65   10.70
  -4  -1   6  462.05   10.50
  -4  -1   6  451.35   10.70
  -4  -1   6  453.25   11.00
   3   1  -6  342.07    7.30
   3   1  -6  336.17    8.30
   3   1  -6  325.17    8.40
   3   1  -6  345.57    8.30
   3   1  -6  341.77    8.10
  -3  -1   6  338.47    8.30
  -3  -1   6  345.37    8.20
  -3  -1   6  336.27    8.40
   2   1  -6   69.79    3.70
   2   1  -6   79.19    2.00
   2   1  -6   75.09    2.90
   2   1  -6   76.79    2.90
  -2  -1   6   78.69    2.00
  -2  -1   6   81.19    2.90
  -2  -1   6   72.09    3.40
  -2  -1   6   78.99    2.80
   1   1  -6  279.07    6.70
   1   1  -6  273.87    7.00
   1   1  -6  278.47    7.10
  -1  -1   6  275.87    6.70
  -1  -1   6  276.27    7.00
  -1  -1   6  278.57    6.00
  -1  -1   6  269.57    6.80
   0   1  -6   15.20    1.20
   0   1  -6   14.40    1.50
   0   1  -6   14.80    1.10
   0  -1   6   15.00    1.10
   0  -1   6   14.50    1.30
   0  -1   6   14.90    1.40
   0  -1   6   16.50    1.50
   0  -1   6   15.90    1.40
  -1   1  -6    6.20    1.50
  -1   1  -6    8.70    1.20
  -1   1  -6    7.90    1.20
   1  -1   6    7.40    1.30
   1  -1   6    7.80    1.20
   1  -1   6    6.00    1.00
   1  -1   6    6.90    1.40
  -2   1  -6  468.85   11.60
  -2   1  -6  474.55   11.10
  -2   1  -6  482.75   11.50
  -2   1  -6  474.55   10.50
   2  -1   6  486.45   10.60
   2  -1   6  488.55   11.50
   2  -1   6  484.65   11.60
   2  -1   6  480.45   11.10
  -3   1  -6   15.90    2.00
  -3   1  -6   11.90    1.80
  -3   1  -6   12.20    1.40
   3  -1   6   14.40    1.90
   3  -1   6   14.60    2.00
   3  -1   6   13.90    2.20
   3  -1   6   14.20    1.50
   3  -1   6   15.70    1.80
  -4   1  -6   66.49    3.70
  -4   1  -6   68.59    3.60
   4  -1   6   64.59    2.40
   4  -1   6   63.59    3.90
   4  -1   6   67.69    3.30
   4  -1   6   73.59    3.70
   4  -1   6   71.39    3.70
   4  -1   6   67.39    2.50
  -5   1  -6   68.09    4.20
  -5   1  -6   70.79    4.10
   5  -1   6   77.09    4.50
   5  -1   6   75.19    3.80
   5  -1   6   65.49    4.60
   5  -1   6   74.19    4.10
  -6   1  -6   59.79    4.50
   6  -1   6   55.29    4.20
   6  -1   6   49.99    4.50
  -7   1  -6    2.60    2.50
   7  -1   6    3.50    2.40
   7  -1   6   -0.10    1.80
   8  -1   6   -1.70    3.20
   9   0  -6    2.60    3.00
   9   0  -6   18.40    5.80
   9   0  -6    6.90    2.70
   8   0  -6   -0.60    2.50
   8   0  -6   -0.30    1.80
   8   0  -6   -1.80    2.10
   8   0  -6   -0.50    1.90
  -8   0   6   -0.60    1.60
   7   0  -6   40.00    4.20
   7   0  -6   41.40    4.70
   7   0  -6   33.20    3.60
  -7   0   6   38.50    3.00
  -7   0   6   33.70    4.60
  -7   0   6   43.80    3.00
   6   0  -6   50.09    4.20
   6   0  -6   50.19    3.20
   6   0  -6   55.59    3.60
  -6   0   6   48.50    3.90
  -6   0   6   47.30    3.90
  -6   0   6   52.09    2.80
   5   0  -6  211.08    5.80
   5   0  -6  220.88    6.50
   5   0  -6  211.28    5.70
   5   0  -6  216.88    6.80
  -5   0   6  220.38    5.80
  -5   0   6  215.18    6.60
  -5   0   6  209.98    6.60
   4   0  -6  184.68    5.70
   4   0  -6  153.58    6.20
   4   0  -6  182.18    4.70
   4   0  -6  185.48    5.40
  -4   0   6  188.58    5.50
  -4   0   6  186.38    5.60
  -4   0   6  187.38    5.00
   3   0  -6    4.90    1.30
   3   0  -6    3.80    1.10
   3   0  -6    6.00    1.30
   3   0  -6    4.90    0.90
   3   0  -6    3.30    1.00
  -3   0   6    5.00    1.50
  -3   0   6    6.80    1.70
  -3   0   6    4.00    0.80
   2   0  -6   62.79    2.60
   2   0  -6   63.69    2.60
  -2   0   6   65.29    2.50
  -2   0   6   67.39    2.60
  -2   0   6   64.39    2.40
   1   0  -6   45.20    2.10
   1   0  -6   44.10    2.10
  -1   0   6   46.70    2.10
  -1   0   6   46.70    2.00
  -1   0   6   45.50    2.00
   0   0  -6  272.87    6.50
   0   0  -6  272.47    7.00
   0   0  -6  274.87    6.70
   0   0   6  281.67    6.70
   0   0   6  276.77    6.60
   0   0   6  272.27    5.90
   0   0   6  274.97    6.90
  -1   0  -6  205.88    5.20
  -1   0  -6  209.08    5.20
  -1   0  -6  209.28    5.70
   1   0   6  218.28    5.60
   1   0   6  214.08    5.30
   1   0   6  209.68    5.10
   1   0   6  210.08    5.80
   1   0   6  216.28    5.70
  -2   0  -6  681.93   15.30
  -2   0  -6  660.63   14.40
  -2   0  -6  677.23   14.80
   2   0   6  680.03   14.80
   2   0   6  693.03   14.40
   2   0   6  693.03   15.20
   2   0   6  683.93   15.20
  -3   0  -6   10.70    1.60
  -3   0  -6   11.20    1.70
   3   0   6    8.20    1.20
   3   0   6   10.00    1.20
   3   0   6    9.10    1.50
   3   0   6   10.60    1.80
   3   0   6    8.10    1.60
   3   0   6   10.50    1.60
  -4   0  -6  107.89    4.30
  -4   0  -6  104.19    4.20
   4   0   6   99.59    4.40
   4   0   6  107.49    3.10
   4   0   6  107.29    4.20
   4   0   6  106.19    4.20
   4   0   6  104.99    3.10
   4   0   6  109.59    4.30
  -5   0  -6    0.00    1.20
  -5   0  -6    2.30    1.30
   5   0   6    1.30    1.20
   5   0   6    1.70    0.70
   5   0   6    1.20    1.20
   5   0   6    0.40    0.60
   5   0   6    2.30    1.30
   5   0   6    1.60    1.40
  -6   0  -6  150.58    6.20
  -6   0  -6  145.39    6.10
   6   0   6  147.39    6.00
   6   0   6  150.78    6.00
  -7   0  -6    1.90    2.10
   7   0   6    0.20    2.00
   7   0   6   -0.80    1.50
  -8   0  -6   13.60    3.20
   8   0   6   11.50    2.60
   8   0   6    9.60    3.10
   8  -1  -6    0.80    2.30
   8  -1  -6    0.10    2.40
  -8   1   6   -0.80    2.20
   7  -1  -6    4.10    2.10
   7  -1  -6    2.30    2.00
  -7   1   6    1.50    1.30
  -7   1   6    1.00    1.80
  -7   1   6    1.90    1.30
   6  -1  -6  315.47    9.00
   6  -1  -6  280.67    8.10
   6  -1  -6  293.67   10.00
  -6   1   6  282.67    9.10
  -6   1   6  306.97    8.30
  -6   1   6  290.67    8.70
  -6   1   6  299.17    7.30
   5  -1  -6   70.89    4.20
   5  -1  -6   71.49    3.20
   5  -1  -6   77.19    4.20
  -5   1   6   72.59    3.90
  -5   1   6   76.69    3.00
  -5   1   6   74.09    4.30
  -5   1   6   73.79    3.20
   4  -1  -6  111.79    4.30
   4  -1  -6  101.79    3.40
   4  -1  -6  106.29    4.20
  -4   1   6  107.99    4.30
  -4   1   6  107.79    3.70
  -4   1   6  107.49    3.50
  -4   1   6  110.69    3.50
  -4   1   6  111.89    4.10
   3  -1  -6  190.48    5.60
   3  -1  -6  188.18    5.40
   3  -1  -6  188.58    4.60
  -3   1   6  188.48    5.50
  -3   1   6  188.38    5.00
  -3   1   6  191.88    5.30
  -3   1   6  190.08    4.60
   2  -1  -6   39.60    2.10
   2  -1  -6   41.20    1.40
   2  -1  -6   39.30    2.00
  -2   1   6   41.10    2.10
  -2   1   6   40.10    1.30
  -2   1   6   40.00    1.90
   1  -1  -6    0.50    0.50
   1  -1  -6    1.20    0.60
  -1   1   6   -0.10    0.50
  -1   1   6    0.30    0.60
  -1   1   6    0.50    0.50
   0  -1  -6 2801.22   55.99
   0  -1  -6 2803.02   55.49
   0   1   6 2788.62   55.59
   0   1   6 2809.42   55.59
   0   1   6 2809.82   55.39
   0   1   6 2748.23   55.69
   0   1   6 2784.22   55.89
  -1  -1  -6  306.77    7.50
  -1  -1  -6  317.37    7.80
   1   1   6  318.17    7.30
   1   1   6  321.67    7.00
   1   1   6  317.77    7.60
   1   1   6  314.77    7.30
   1   1   6  318.67    7.40
   1   1   6  317.87    7.10
  -2  -1  -6    4.70    1.10
   2   1   6    4.00    1.00
   2   1   6    5.50    1.00
   2   1   6    5.20    1.00
   2   1   6    3.90    1.10
   2   1   6    5.10    1.20
   2   1   6    4.10    1.00
  -3  -1  -6  100.69    3.60
   3   1   6  104.09    3.60
   3   1   6  104.19    3.10
   3   1   6  103.49    3.60
   3   1   6  102.19    3.70
   3   1   6  103.69    3.10
   3   1   6  107.19    3.90
   3   1   6  103.99    3.60
  -4  -1  -6   29.20    2.40
  -4  -1  -6   31.40    2.30
   4   1   6   31.30    2.30
   4   1   6   31.90    1.70
   4   1   6   30.80    2.30
   4   1   6   32.30    2.40
   4   1   6   29.40    1.60
   4   1   6   31.00    2.60
  -5  -1  -6   17.90    2.50
  -5  -1  -6   14.00    2.40
   5   1   6   15.00    2.20
   5   1   6   12.80    1.40
   5   1   6   18.30    2.80
   5   1   6   14.90    2.20
   5   1   6   14.60    1.40
   5   1   6   18.00    2.50
  -6  -1  -6   41.60    3.50
  -6  -1  -6   40.80    3.50
   6   1   6   46.60    3.50
   6   1   6   39.90    4.00
   6   1   6   43.70    3.30
   6   1   6   45.40    3.50
  -7  -1  -6    4.60    2.00
  -7  -1  -6    1.30    1.90
   7   1   6    1.50    1.60
   7   1   6    3.80    1.80
  -8  -1  -6    4.70    4.20
  -8  -1  -6    3.60    2.40
   8   1   6    0.80    1.80
   8   1   6    4.60    2.70
   8  -2  -6   31.70    6.30
   8  -2  -6   10.00    3.30
  -8   2   6   19.00    5.20
   7  -2  -6   25.10    4.90
   7  -2  -6   17.90    4.20
   7  -2  -6   13.70    4.40
  -7   2   6   14.80    4.00
  -7   2   6   14.10    2.30
   6  -2  -6  112.39    5.60
   6  -2  -6   88.39    7.70
   6  -2  -6   93.59    4.60
  -6   2   6  100.49    3.70
  -6   2   6  101.69    3.60
  -6   2   6   95.19    5.00
  -6   2   6  102.69    8.30
  -6   2   6  104.99    4.70
   5  -2  -6    0.40    1.30
   5  -2  -6    0.80    1.40
   5  -2  -6    0.20    1.60
  -5   2   6    0.10    1.10
  -5   2   6   -0.80    1.30
  -5   2   6   -1.80    1.50
  -5   2   6   -0.20    0.90
   4  -2  -6   17.20    2.90
   4  -2  -6   19.00    2.70
   4  -2  -6   15.80    2.00
  -4   2   6   16.70    1.90
  -4   2   6   18.00    1.80
  -4   2   6   16.80    2.40
  -4   2   6   18.80    2.30
   3  -2  -6    8.60    1.90
   3  -2  -6    7.20    2.00
   3  -2  -6    6.70    1.40
  -3   2   6    7.60    1.40
  -3   2   6    6.80    1.60
  -3   2   6    7.00    1.40
  -3   2   6    5.30    1.40
  -3   2   6    6.80    1.70
   2  -2  -6  901.71   19.50
   2  -2  -6  900.01   18.50
   2  -2  -6  880.51   18.70
  -2   2   6  908.51   18.90
  -2   2   6  906.81   18.90
  -2   2   6  886.61   19.50
  -2   2   6  890.51   18.50
  -2   2   6  907.91   18.60
   1  -2  -6  467.25   10.90
   1  -2  -6  476.15    9.90
   1  -2  -6  469.25   10.00
  -1   2   6  471.35   10.50
  -1   2   6  485.55   10.10
  -1   2   6  447.96   10.90
  -1   2   6  475.35   10.60
  -1   2   6  476.85    9.90
   0  -2  -6 3007.20   60.69
   0  -2  -6 3021.30   60.59
   0  -2  -6 3047.40   60.29
   0   2   6 3094.99   60.59
   0   2   6 3092.69   60.49
   0   2   6 3035.40   60.79
   0   2   6 2923.31   60.49
  -1  -2  -6   12.60    1.10
  -1  -2  -6   14.10    1.30
  -1  -2  -6   14.20    1.30
  -1  -2  -6   13.30    1.00
   1   2   6   15.00    1.20
   1   2   6   12.50    1.10
   1   2   6   14.00    1.10
   1   2   6   14.70    1.20
  -2  -2  -6  115.89    3.70
  -2  -2  -6  121.19    3.60
   2   2   6  117.99    3.40
   2   2   6  116.89    3.50
   2   2   6  121.99    3.60
   2   2   6  121.79    3.60
   2   2   6  117.39    3.50
   2   2   6  120.49    3.60
  -3  -2  -6    2.80    0.70
   3   2   6    3.00    0.70
   3   2   6    2.90    0.80
   3   2   6    2.90    1.10
   3   2   6    2.80    0.80
   3   2   6    2.50    0.90
   3   2   6    2.50    0.80
   3   2   6    2.60    0.80
   4   2   6  736.83   16.50
   4   2   6  743.43   16.00
   4   2   6  731.93   16.60
   4   2   6  714.33   15.40
   4   2   6  729.03   16.00
   4   2   6  724.63   16.20
   4   2   6  727.63   16.20
   5   2   6   68.59    3.40
   5   2   6   67.89    2.60
   5   2   6   69.79    3.60
   5   2   6   70.19    3.20
   5   2   6   70.39    2.60
   5   2   6   68.89    3.90
   5   2   6   66.99    3.50
   5   2   6   65.79    3.10
   6   2   6   48.90    3.40
   6   2   6   47.90    4.10
   6   2   6   50.59    3.50
   6   2   6   49.99    2.20
   6   2   6   48.60    2.30
   6   2   6   53.99    3.30
  -7  -2  -6    1.00    1.50
   7   2   6    0.50    1.50
   7   2   6    0.10    1.40
   7   2   6   -1.20    0.80
   7   2   6   -1.30    1.40
  -8  -2  -6   38.70    4.70
   8   2   6   26.60    4.10
   8   2   6   37.50    4.70
   8   2   6   40.10    3.70
   9   2   6   -3.00    2.70
   9   2   6    5.40    2.30
   7  -3  -6    0.50    2.50
  -7   3   6    2.00    2.40
   6  -3  -6   28.20    4.00
   6  -3  -6   24.20    4.10
  -6   3   6   28.60    3.80
  -6   3   6   25.80    3.60
  -6   3   6   26.60    2.50
  -6   3   6   25.10    4.20
   5  -3  -6  249.58    8.00
   5  -3  -6  208.48    6.70
   5  -3  -6  229.38    7.10
  -5   3   6  205.48    7.80
  -5   3   6  219.88    6.00
  -5   3   6  221.78    5.90
  -5   3   6  219.58    6.90
  -5   3   6  220.78    7.00
   4  -3  -6    4.40    1.50
   4  -3  -6    3.70    1.40
   4  -3  -6    3.70    1.50
  -4   3   6    2.90    1.20
  -4   3   6    5.20    1.40
  -4   3   6    3.50    1.30
  -4   3   6    5.80    1.70
  -4   3   6    2.90    1.10
   3  -3  -6    2.90    1.20
   3  -3  -6    2.80    1.30
   3  -3  -6    2.90    1.20
  -3   3   6    2.30    0.90
  -3   3   6    1.80    1.00
  -3   3   6    3.20    1.10
  -3   3   6    2.50    1.20
  -3   3   6    1.20    0.90
   2  -3  -6  322.37    8.50
   2  -3  -6  319.87    7.40
   2  -3  -6  327.27    7.70
  -2   3   6  325.07    7.30
  -2   3   6  318.47    7.70
  -2   3   6  315.47    8.40
  -2   3   6  322.37    7.70
   1  -3  -6  137.99    4.00
   1  -3  -6  124.19    4.00
   1  -3  -6  135.59    3.80
   1  -3  -6  131.29    4.30
  -1   3   6  129.49    4.10
  -1   3   6  133.19    3.80
  -1   3   6  133.49    4.30
  -1   3   6  126.89    3.50
   0  -3  -6   48.00    2.00
   0  -3  -6   46.70    2.20
   0  -3  -6   45.80    2.30
   0   3   6   44.90    2.20
   0   3   6   47.30    2.10
  -1  -3  -6   12.70    1.20
  -1  -3  -6   13.70    1.30
  -1  -3  -6   12.00    1.40
   1   3   6   11.20    0.80
   1   3   6   12.40    0.90
   1   3   6   12.80    1.30
   1   3   6   12.90    1.40
  -2  -3  -6  119.99    3.70
  -2  -3  -6  121.19    3.60
  -2  -3  -6  117.29    3.70
   2   3   6  122.29    3.60
   2   3   6  123.09    3.50
   2   3   6  124.49    3.70
   2   3   6  123.09    3.30
  -3  -3  -6    0.50    0.60
   3   3   6    0.50    0.70
   3   3   6    1.10    0.70
   3   3   6    0.10    0.50
   3   3   6    0.20    0.70
   3   3   6    0.40    0.70
  -4  -3  -6  194.38    5.20
   4   3   6  189.88    5.40
   4   3   6  181.08    5.60
   4   3   6  184.08    5.70
   4   3   6  193.58    5.00
   4   3   6  189.78    5.10
   4   3   6  189.78    5.60
  -5  -3  -6    2.90    1.20
  -5  -3  -6    4.60    1.50
   5   3   6    2.40    1.20
   5   3   6    3.20    1.20
   5   3   6    2.40    0.90
   5   3   6    3.30    1.30
   5   3   6    3.20    0.90
   5   3   6    2.80    1.20
  -6  -3  -6   77.19    3.00
  -6  -3  -6   74.89    4.10
   6   3   6   78.49    4.10
   6   3   6   63.79    4.10
   6   3   6   71.19    4.80
   6   3   6   80.89    4.10
   6   3   6   75.99    3.30
   7   3   6   19.30    3.20
   7   3   6   22.10    2.40
   7   3   6   24.00    2.80
   7   3   6   25.50    3.00
   7   3   6   18.90    2.70
   8   3   6   33.50    3.60
   8   3   6   33.60    2.30
   8   3   6   32.60    4.10
   8   3   6   35.30    3.70
   8   3   6   25.60    4.10
   8   3   6   33.70    3.70
   9   3   6   -0.10    2.50
   9   3   6    1.70    2.30
   9   3   6    3.30    2.20
   7  -4  -6   -2.10    3.00
  -7   4   6   -0.30    3.00
   6  -4  -6    4.40    2.40
  -6   4   6    4.50    2.70
  -6   4   6    2.00    2.40
  -6   4   6    4.10    1.50
   5  -4  -6    3.00    2.20
   5  -4  -6    1.10    1.80
  -5   4   6    2.00    1.40
  -5   4   6    3.00    1.90
  -5   4   6    1.10    1.50
   4  -4  -6  110.89    5.20
   4  -4  -6  102.89    4.40
   4  -4  -6  100.39    4.50
  -4   4   6  104.89    4.60
  -4   4   6  104.89    4.20
  -4   4   6  105.29    3.90
  -4   4   6   90.29    4.70
  -4   4   6  102.99    3.90
   3  -4  -6  157.88    4.90
   3  -4  -6  162.38    6.10
   3  -4  -6  159.28    5.30
  -3   4   6  164.18    5.40
  -3   4   6  155.98    4.80
  -3   4   6  156.08    6.00
  -3   4   6  161.18    4.70
   2  -4  -6  510.05   11.80
   2  -4  -6  518.35   11.10
   2  -4  -6  503.45   11.80
   2  -4  -6  522.85   12.70
  -2   4   6  520.15   11.90
  -2   4   6  501.95   11.00
  -2   4   6  504.85   12.60
  -2   4   6  502.85   11.70
   1  -4  -6    0.10    0.70
   1  -4  -6    0.70    1.20
   1  -4  -6   -0.30    0.90
  -1   4   6    1.20    0.80
  -1   4   6    0.00    0.80
  -1   4   6   -0.20    0.80
   0  -4  -6   85.29    3.20
   0  -4  -6   86.09    3.50
   0  -4  -6   88.29    3.20
   0   4   6   87.49    3.20
   0   4   6   83.99    3.30
   0   4   6   85.19    3.10
  -1  -4  -6   50.89    2.40
  -1  -4  -6   49.30    2.50
  -1  -4  -6   53.59    2.40
   1   4   6   52.79    2.50
   1   4   6   52.49    2.40
   1   4   6   51.29    2.50
  -2  -4  -6 1376.86   28.60
  -2  -4  -6 1369.06   28.50
  -2  -4  -6 1401.56   28.80
   2   4   6 1394.96   28.70
   2   4   6 1360.86   27.70
   2   4   6 1397.46   28.70
   2   4   6 1389.36   28.40
  -3  -4  -6   70.89    2.70
  -3  -4  -6   72.89    2.90
  -3  -4  -6   78.19    3.10
   3   4   6   76.09    2.60
   3   4   6   75.09    2.90
   3   4   6   68.79    2.60
   3   4   6   72.39    3.10
  -4  -4  -6  229.78    8.10
  -4  -4  -6  267.67    6.80
   4   4   6  258.77    6.70
   4   4   6  258.47    7.10
   4   4   6  248.08    6.10
   4   4   6  262.47    6.20
   4   4   6  257.37    6.60
  -5  -4  -6   88.99    3.80
  -5  -4  -6   88.49    3.50
   5   4   6   85.89    2.90
   5   4   6   93.59    3.00
   5   4   6   92.29    3.90
   5   4   6   84.79    4.00
   5   4   6   86.49    3.50
   5   4   6   93.29    4.00
  -6  -4  -6   44.80    3.50
  -6  -4  -6   49.30    2.80
   6   4   6   46.50    3.40
   6   4   6   49.30    3.60
   6   4   6   46.90    2.30
   6   4   6   44.40    2.80
   6   4   6   49.40    3.50
   6   4   6   53.19    2.50
  -7  -4  -6    0.30    1.10
  -7  -4  -6    1.50    1.90
   7   4   6    0.50    1.20
   7   4   6    1.40    1.00
   7   4   6   -0.40    1.50
   7   4   6   -0.50    1.30
   7   4   6    2.40    1.50
  -8  -4  -6    9.40    2.50
   8   4   6    3.90    2.10
   8   4   6    3.40    1.90
   8   4   6    4.50    1.80
   8   4   6    3.00    1.60
   8   4   6    4.10    1.70
   9   4   6    2.40    2.20
   9   4   6   -3.20    2.30
   6  -5  -6    3.50    2.80
  -6   5   6   -0.70    2.90
   5  -5  -6    2.10    2.60
   5  -5  -6   -0.90    2.10
  -5   5   6    1.30    2.40
  -5   5   6   -2.40    3.20
  -5   5   6    0.00    1.40
   4  -5  -6   65.69    4.40
   4  -5  -6   69.19    4.00
   4  -5  -6   70.19    4.60
   4  -5  -6   77.49    4.70
  -4   5   6   68.09    3.90
  -4   5   6   69.89    3.60
  -4   5   6   70.89    4.60
   3  -5  -6   19.60    3.20
   3  -5  -6   16.70    2.50
   3  -5  -6   20.10    3.30
   3  -5  -6   16.80    3.20
   3  -5  -6   21.40    2.50
  -3   5   6   19.70    2.90
  -3   5   6   16.50    2.60
   2  -5  -6   -0.60    1.30
   2  -5  -6    2.10    1.00
   2  -5  -6    2.10    1.00
   2  -5  -6    2.90    1.10
   2  -5  -6    2.00    1.60
  -2   5   6    2.40    1.20
  -2   5   6    1.60    1.40
  -2   5   6    2.10    1.10
   1  -5  -6   24.50    3.00
   1  -5  -6   28.80    2.70
   1  -5  -6   26.30    2.20
  -1   5   6   27.70    2.60
  -1   5   6   23.80    2.30
  -1   5   6   22.70    2.40
   0  -5  -6  137.29    4.80
   0  -5  -6  142.79    5.10
   0  -5  -6  144.79    4.70
   0   5   6  144.29    4.60
   0   5   6  143.49    4.90
   0   5   6  147.59    5.00
  -1  -5  -6   27.40    2.10
  -1  -5  -6   25.00    2.30
  -1  -5  -6   27.50    2.30
   1   5   6   29.10    2.50
   1   5   6   27.70    2.00
   1   5   6   28.60    2.40
  -2  -5  -6  937.81   20.40
  -2  -5  -6  938.11   20.10
  -2  -5  -6  955.00   20.50
   2   5   6  940.71   20.50
   2   5   6  954.60   20.10
   2   5   6  940.91   20.30
  -3  -5  -6    8.10    1.90
  -3  -5  -6   10.70    1.70
  -3  -5  -6    9.30    1.30
  -3  -5  -6   10.20    1.40
   3   5   6   12.10    2.20
   3   5   6   14.30    1.60
   3   5   6    9.40    1.70
   3   5   6   11.30    1.70
  -4  -5  -6  294.47    7.30
  -4  -5  -6  291.67    8.00
  -4  -5  -6  311.47    8.00
  -4  -5  -6  292.77    7.10
   4   5   6  305.97    7.40
   4   5   6  290.87    7.00
   4   5   6  299.97    7.80
   4   5   6  307.77    8.20
  -5  -5  -6   35.70    2.70
  -5  -5  -6   41.90    2.80
   5   5   6   44.60    3.10
   5   5   6   44.70    2.80
   5   5   6   39.40    2.00
   5   5   6   44.80    3.10
   5   5   6   42.90    1.80
  -6  -5  -6  135.09    4.80
  -6  -5  -6  120.89    5.00
   6   5   6  131.09    5.20
   6   5   6  121.79    5.20
   6   5   6  126.39    5.00
   6   5   6  128.29    4.80
  -7  -5  -6    5.90    1.50
  -7  -5  -6    6.30    2.20
   7   5   6    4.10    1.90
   7   5   6    4.60    1.70
   7   5   6    7.20    1.90
  -8  -5  -6   65.89    3.80
   8   5   6   67.89    4.40
   8   5   6   68.59    4.70
   8   5   6   62.39    4.90
   9   5   6   -1.00    2.10
   9   5   6   -2.90    2.30
   5  -6  -6    1.70    2.90
  -5   6   6    3.30    3.20
   4  -6  -6   30.70    3.90
   4  -6  -6   28.40    4.40
  -4   6   6   30.00    4.20
  -4   6   6   36.30    4.90
   3  -6  -6   30.90    3.30
   3  -6  -6   32.60    3.10
   3  -6  -6   39.80    4.90
   3  -6  -6   35.40    3.10
  -3   6   6   38.80    4.10
  -3   6   6   31.20    3.50
   2  -6  -6    9.80    3.10
   2  -6  -6    1.80    1.90
   2  -6  -6    3.60    1.10
   2  -6  -6    0.90    1.20
   2  -6  -6    3.60    1.20
  -2   6   6    3.50    1.70
  -2   6   6    3.90    1.50
   1  -6  -6   85.09    4.80
   1  -6  -6   77.89    3.80
   1  -6  -6   83.29    4.30
  -1   6   6   67.49    4.10
  -1   6   6   81.69    4.30
  -1   6   6   77.69    3.90
   0  -6  -6  301.87    8.10
   0  -6  -6  294.57    8.30
   0  -6  -6  304.27    8.60
   0   6   6  291.87    8.40
   0   6   6  281.97    8.30
   0   6   6  283.47    8.00
  -1  -6  -6   33.10    2.70
  -1  -6  -6   33.70    3.20
  -1  -6  -6   40.10    3.10
   1   6   6   40.00    3.30
   1   6   6   34.20    3.10
   1   6   6   40.20    2.50
  -2  -6  -6   92.79    3.90
  -2  -6  -6   92.59    3.80
  -2  -6  -6   91.79    4.00
   2   6   6   91.09    3.80
   2   6   6   92.09    3.80
   2   6   6   97.49    4.40
  -3  -6  -6   22.00    1.50
  -3  -6  -6   18.50    2.20
  -3  -6  -6   22.60    2.40
  -3  -6  -6   21.20    2.00
   3   6   6   22.10    2.10
   3   6   6   24.00    2.30
   3   6   6   20.10    2.80
   3   6   6   18.50    1.70
  -4  -6  -6    5.60    1.70
  -4  -6  -6    4.90    1.30
  -4  -6  -6    6.40    1.50
  -4  -6  -6    4.30    0.90
   4   6   6    6.30    1.70
   4   6   6    7.60    1.90
   4   6   6    7.80    1.90
   4   6   6    5.10    1.40
  -5  -6  -6    0.60    1.20
  -5  -6  -6    1.30    1.20
  -5  -6  -6    0.60    1.20
   5   6   6    1.20    1.40
   5   6   6    1.60    0.60
   5   6   6    1.80    0.90
   5   6   6    2.00    1.50
   5   6   6    2.60    1.50
  -6  -6  -6   48.50    3.60
  -6  -6  -6   41.40    3.50
   6   6   6   45.60    3.70
   6   6   6   50.89    3.40
   6   6   6   45.20    3.50
  -7  -6  -6   -1.70    1.70
  -7  -6  -6   -0.30    2.00
   7   6   6   -0.70    1.80
   7   6   6    0.60    1.60
   7   6   6   -1.30    3.00
  -8  -6  -6   23.10    4.40
   8   6   6   25.90    4.80
   8   6   6   19.00    3.50
   8   6   6   14.60    4.50
  -9  -6  -6   -1.00    2.20
   9   6   6   -2.70    2.20
   9   6   6   -0.20    2.80
   3  -7  -6   32.00    3.50
   3  -7  -6   40.30    3.90
  -3   7   6   46.90    5.30
  -3   7   6   26.70    4.90
   2  -7  -6    6.20    2.10
   2  -7  -6    4.70    1.70
   2  -7  -6    6.10    1.40
  -2   7   6   17.70    4.10
  -2   7   6    5.80    2.10
   1  -7  -6   21.50    3.10
   1  -7  -6   13.00    3.50
   1  -7  -6   28.70    3.80
  -1   7   6   17.20    3.30
  -1   7   6   27.70    3.70
   0  -7  -6  178.78    6.60
   0  -7  -6  195.98    7.30
   0  -7  -6  192.28    6.40
   0   7   6  171.98    6.50
   0   7   6  173.88    6.10
   0   7   6  191.08    7.00
  -1  -7  -6   15.90    2.80
  -1  -7  -6   14.90    3.00
  -1  -7  -6   21.70    3.30
   1   7   6   18.70    2.60
   1   7   6   17.90    3.90
  -2  -7  -6   76.99    4.00
  -2  -7  -6   79.29    4.00
  -2  -7  -6   74.29    4.00
   2   7   6   74.89    4.60
   2   7   6   69.49    3.50
   2   7   6   73.59    3.90
  -3  -7  -6   17.70    2.70
  -3  -7  -6   18.90    2.60
  -3  -7  -6   12.40    2.30
   3   7   6   14.30    2.60
   3   7   6   17.20    2.50
  -4  -7  -6  116.09    4.80
  -4  -7  -6  102.79    4.40
  -4  -7  -6  106.59    3.60
  -4  -7  -6  106.39    3.60
   4   7   6  106.79    3.70
   4   7   6  101.99    3.80
   4   7   6  110.69    5.00
   4   7   6  105.79    4.10
  -5  -7  -6   34.00    3.30
  -5  -7  -6   29.80    2.80
   5   7   6   33.70    3.20
   5   7   6   32.60    3.10
   5   7   6   33.50    3.30
  -6  -7  -6  129.49    5.50
  -6  -7  -6  108.39    5.00
   6   7   6  117.59    5.30
   6   7   6  116.89    5.30
  -7  -7  -6    0.40    2.10
  -7  -7  -6    0.30    1.90
   7   7   6   -0.50    1.70
   7   7   6   -0.30    2.60
  -8  -7  -6   37.70    4.50
   8   7   6   30.80    5.30
   8   7   6   35.90    4.10
  -9  -7  -6    0.80    2.50
   9   7   6   -1.40    3.30
   3  -8  -6    0.10    2.30
  -3   8   6    6.50    3.30
   2  -8  -6   -0.60    2.00
  -2   8   6    4.30    2.60
   1  -8  -6   13.80    3.60
   1  -8  -6   14.70    4.40
  -1   8   6   26.10    4.70
   0  -8  -6   14.70    4.40
   0  -8  -6   11.30    3.30
   0   8   6    5.90    2.30
  -1  -8  -6   20.90    3.40
   1   8   6   17.40    3.80
  -2  -8  -6    0.70    1.60
  -2  -8  -6    2.60    1.60
   2   8   6    1.80    1.80
   2   8   6   -1.60    1.60
  -3  -8  -6    3.40    1.40
  -3  -8  -6    9.90    2.90
   3   8   6    5.00    2.10
   3   8   6    2.70    1.70
  -4  -8  -6   73.79    4.40
  -4  -8  -6   69.39    3.40
  -4  -8  -6   63.99    2.90
   4   8   6   74.09    4.50
   4   8   6   66.29    2.80
   4   8   6   57.69    5.50
  -5  -8  -6    1.40    1.50
  -5  -8  -6    2.40    0.90
  -5  -8  -6    2.90    1.80
   5   8   6    1.60    1.10
   5   8   6    1.40    1.40
   5   8   6    1.50    1.70
  -6  -8  -6   63.69    4.70
  -6  -8  -6   46.10    4.10
   6   8   6   48.80    3.80
   6   8   6   51.09    4.30
  -7  -8  -6   22.00    4.50
  -7  -8  -6   17.20    4.70
   7   8   6   12.60    2.50
   7   8   6   14.50    4.80
  -8  -8  -6    5.50    2.60
   8   8   6    4.70    2.40
   8   8   6    3.70    3.10
   1  -9  -6    0.20    2.50
  -1   9   6    4.00    3.30
   0  -9  -6   23.60    5.50
   0   9   6   15.10    5.10
  -1  -9  -6   30.90    5.20
  -1  -9  -6   19.40    4.10
   1   9   6   37.10    5.10
  -2  -9  -6   40.10    4.40
  -2  -9  -6   40.20    4.90
   2   9   6   33.10    4.90
   2   9   6   47.60    4.70
  -3  -9  -6    1.80    1.70
  -3  -9  -6    1.90    1.80
   3   9   6    2.50    2.00
   3   9   6    2.90    2.30
  -4  -9  -6   85.09    4.30
  -4  -9  -6  102.49    5.60
   4   9   6   88.19    5.40
   4   9   6   90.79    4.70
  -5  -9  -6   -0.70    1.80
  -5  -9  -6    1.50    2.10
   5   9   6    1.30    2.10
   5   9   6    0.90    1.50
  -6  -9  -6    6.50    2.40
   6   9   6    1.30    2.10
   6   9   6    5.10    2.00
  -7  -9  -6    3.70    2.50
   7   9   6   -0.80    2.20
   7   9   6    3.40    2.60
  -1 -10  -6    2.70    2.80
   1  10   6    7.70    3.60
  -2 -10  -6   48.10    5.60
  -2 -10  -6   57.89    6.60
   2  10   6   65.39    6.10
  -3 -10  -6    0.00    2.30
  -3 -10  -6    5.20    2.50
  -4 -10  -6   38.00    4.90
   4  10   6   29.00    4.90
  -5 -10  -6    6.70    2.60
   5  10   6    5.90    2.60
  -6 -10  -6    4.40    2.90
   6  10   6    6.70    4.30
   6   8  -7   21.60    7.30
  -6  -8   7    3.20    2.40
   5   8  -7   21.70    6.30
   5   8  -7   16.60    5.30
  -5  -8   7    8.10    2.20
  -5  -8   7   14.10    4.60
   4   8  -7    9.60    3.00
   4   8  -7   22.30    6.10
  -4  -8   7    6.20    2.50
  -4  -8   7    5.10    2.10
   3   8  -7    3.20    2.80
   3   8  -7   -2.60    2.60
  -3  -8   7    0.30    2.30
  -3  -8   7    2.60    2.20
   2   8  -7    1.90    2.90
   2   8  -7    1.80    2.90
  -2  -8   7    0.70    2.30
  -2  -8   7    0.60    2.50
   1   8  -7   38.80    6.10
   1   8  -7   29.30    6.60
  -1  -8   7   32.70    5.70
  -1  -8   7   38.50    5.30
   7   7  -7   14.00    3.40
  -7  -7   7   20.60    4.70
   6   7  -7    6.30    2.70
  -6  -7   7    3.30    2.20
  -6  -7   7    4.50    1.80
   5   7  -7    9.50    2.90
   5   7  -7    5.40    2.60
  -5  -7   7   10.50    3.40
  -5  -7   7    6.50    1.90
  -5  -7   7    8.40    2.10
   4   7  -7   21.30    4.30
   4   7  -7   19.50    4.80
  -4  -7   7   10.80    3.20
  -4  -7   7   10.50    3.40
  -4  -7   7   17.30    4.00
   3   7  -7   43.00    5.10
   3   7  -7   51.29    4.60
  -3  -7   7   49.30    4.20
  -3  -7   7   32.10    4.60
  -3  -7   7   42.40    4.00
   2   7  -7   11.20    2.60
   2   7  -7    8.60    2.50
  -2  -7   7    7.60    2.10
  -2  -7   7   13.20    3.80
   1   7  -7   74.29    6.30
   1   7  -7   86.89    5.60
  -1  -7   7   67.19    5.40
  -1  -7   7   74.59    5.00
   0   7  -7   -0.30    2.50
   0   7  -7    1.50    2.80
   0  -7   7    1.40    2.00
   0  -7   7    0.70    2.10
  -1   7  -7    7.70    3.60
  -1   7  -7    7.30    3.30
   1  -7   7    4.60    2.50
   1  -7   7    5.10    2.50
   8   6  -7    1.20    3.10
  -8  -6   7    4.00    2.80
   7   6  -7   17.90    4.40
  -7  -6   7   19.60    3.00
  -7  -6   7   23.20    4.40
   6   6  -7   24.30    5.40
  -6  -6   7   29.80    3.20
  -6  -6   7   24.90    3.30
  -6  -6   7   28.80    3.70
  -6  -6   7   26.40    3.90
   5   6  -7    3.70    2.20
   5   6  -7    1.40    2.00
  -5  -6   7    1.90    1.50
  -5  -6   7    0.60    1.80
  -5  -6   7    0.90    1.40
  -5  -6   7    2.00    1.40
   4   6  -7   16.60    3.10
   4   6  -7   17.80    4.30
  -4  -6   7    9.60    2.20
  -4  -6   7    6.60    1.70
  -4  -6   7   10.90    2.80
  -4  -6   7    8.30    2.80
   3   6  -7   24.00    3.80
   3   6  -7   24.40    3.40
  -3  -6   7   21.40    2.90
  -3  -6   7   15.60    3.10
  -3  -6   7   18.50    2.90
  -3  -6   7   19.90    3.20
   2   6  -7    9.40    2.60
   2   6  -7    8.50    2.10
  -2  -6   7   12.40    2.90
  -2  -6   7   12.30    3.30
  -2  -6   7    5.10    2.10
  -2  -6   7    7.90    3.20
   1   6  -7    3.10    2.00
   1   6  -7    2.90    1.80
   1   6  -7    2.30    2.20
  -1  -6   7    0.70    1.50
  -1  -6   7    1.10    2.00
  -1  -6   7    2.00    1.70
   0   6  -7  147.89    6.50
   0   6  -7  144.59    6.90
   0  -6   7  132.59    6.10
   0  -6   7  145.49    5.90
  -1   6  -7    6.40    2.60
  -1   6  -7    5.10    2.50
   1  -6   7   -0.60    1.80
   1  -6   7   -0.10    1.70
  -2   6  -7    0.40    2.80
  -2   6  -7    6.00    3.00
   2  -6   7    0.90    1.80
   2  -6   7    4.60    2.20
  -3   6  -7   42.80    6.30
   3  -6   7   20.80    4.40
   3  -6   7   32.30    5.20
   3  -6   7   35.20    4.90
   8   5  -7   -3.40    3.30
   8   5  -7    0.20    2.50
  -8  -5   7    1.40    2.30
   7   5  -7   63.39    4.60
   7   5  -7   67.79    4.70
   7   5  -7   85.59    5.50
  -7  -5   7   70.39    4.80
  -7  -5   7   66.89    4.40
  -7  -5   7   66.49    3.60
   6   5  -7   25.80    3.70
   6   5  -7   17.40    3.30
  -6  -5   7   15.60    2.90
  -6  -5   7   13.60    3.40
  -6  -5   7   16.40    2.50
  -6  -5   7   16.60    3.10
   5   5  -7   92.09    4.40
   5   5  -7  109.49    5.40
  -5  -5   7   89.19    3.90
  -5  -5   7   89.29    4.50
  -5  -5   7   79.19    3.90
  -5  -5   7   86.99    3.90
   4   5  -7   36.20    3.10
   4   5  -7   32.30    2.80
   4   5  -7   41.00    4.10
  -4  -5   7   38.70    3.00
  -4  -5   7   35.50    3.20
  -4  -5   7   36.30    3.00
  -4  -5   7   38.00    2.90
  -4  -5   7   36.50    3.30
   3   5  -7  155.18    5.70
   3   5  -7  170.38    5.70
   3   5  -7  172.08    8.60
  -3  -5   7  167.98    6.10
  -3  -5   7  158.88    5.80
  -3  -5   7  169.18    5.60
  -3  -5   7  174.28    5.80
  -3  -5   7  173.38    6.00
   2   5  -7   -1.60    1.10
   2   5  -7   -0.30    1.40
   2   5  -7    1.00    1.80
  -2  -5   7    0.60    1.20
  -2  -5   7   -0.20    1.40
  -2  -5   7   -0.10    1.20
  -2  -5   7   -0.20    1.30
  -2  -5   7    1.50    1.40
   1   5  -7   -0.10    2.50
   1   5  -7   -1.10    1.40
   1   5  -7    2.20    1.40
  -1  -5   7   -1.10    2.20
  -1  -5   7    0.90    1.60
  -1  -5   7    0.60    1.20
  -1  -5   7    2.30    1.40
   0   5  -7   16.70    3.60
   0   5  -7   12.70    3.00
   0   5  -7   15.10    3.00
   0   5  -7   11.00    2.00
   0  -5   7   16.30    2.90
   0  -5   7   11.80    2.80
   0  -5   7   16.80    3.20
   0  -5   7   11.10    2.70
  -1   5  -7   69.89    4.70
  -1   5  -7   63.99    4.20
  -1   5  -7   66.39    4.90
   1  -5   7   68.29    4.10
   1  -5   7   65.49    4.30
   1  -5   7   62.09    3.90
  -2   5  -7   35.30    3.90
  -2   5  -7   46.20    4.70
  -2   5  -7   49.20    5.20
   2  -5   7   39.60    3.90
   2  -5   7   41.10    3.70
  -3   5  -7   46.10    5.20
  -3   5  -7   41.30    4.30
   3  -5   7   30.80    4.00
   3  -5   7   40.70    4.50
   3  -5   7   40.90    3.90
  -4   5  -7   13.10    3.70
   4  -5   7   20.40    4.80
   4  -5   7   21.40    5.10
   9   4  -7    6.20    3.00
  -9  -4   7   10.10    3.10
   8   4  -7    2.00    1.60
   8   4  -7    0.50    2.60
   8   4  -7    3.80    2.70
  -8  -4   7    1.40    2.30
   7   4  -7   -0.20    1.80
   7   4  -7   -1.30    1.80
   7   4  -7    1.60    2.30
   7   4  -7   -0.30    1.30
   7   4  -7    2.50    1.60
  -7  -4   7    1.30    1.80
  -7  -4   7   -0.30    1.90
   6   4  -7    3.00    1.50
   6   4  -7    9.10    3.10
   6   4  -7    2.80    1.60
   6   4  -7    1.40    1.70
  -6  -4   7    0.70    1.40
  -6  -4   7    2.70    1.70
   5   4  -7  105.79    4.20
   5   4  -7   98.09    4.50
   5   4  -7  110.59    5.10
  -5  -4   7  104.89    4.00
  -5  -4   7  100.79    4.00
  -5  -4   7  104.79    4.10
  -5  -4   7   98.49    4.80
   4   4  -7   20.10    2.20
   4   4  -7   25.30    3.10
   4   4  -7   23.90    2.50
  -4  -4   7   23.40    2.80
  -4  -4   7   26.30    2.40
  -4  -4   7   23.00    2.10
  -4  -4   7   21.80    2.30
  -4  -4   7   26.40    2.80
   3   4  -7   10.60    2.80
   3   4  -7    9.20    2.10
   3   4  -7    9.70    2.00
  -3  -4   7   10.10    2.30
  -3  -4   7    8.30    2.10
  -3  -4   7    8.30    2.10
  -3  -4   7    8.20    2.00
  -3  -4   7    7.20    1.90
   2   4  -7  165.88    5.50
   2   4  -7  169.98    5.30
   2   4  -7  174.98    6.10
  -2  -4   7  163.18    5.60
  -2  -4   7  172.68    5.80
  -2  -4   7  175.78    5.70
  -2  -4   7  178.08    5.80
  -2  -4   7  172.58    5.20
   1   4  -7    5.00    1.30
   1   4  -7    5.10    1.30
   1   4  -7    4.30    1.40
  -1  -4   7    4.80    1.50
  -1  -4   7    8.60    1.80
  -1  -4   7    7.60    2.30
  -1  -4   7    3.70    1.20
  -1  -4   7    4.30    1.30
   0   4  -7    2.30    1.10
   0   4  -7    0.30    1.20
   0   4  -7    1.00    1.20
   0   4  -7   -0.30    1.20
   0  -4   7   -0.10    1.20
   0  -4   7    1.30    1.40
   0  -4   7    2.70    1.40
  -1   4  -7  133.49    5.20
  -1   4  -7  125.59    5.10
  -1   4  -7  130.59    4.80
  -1   4  -7  130.09    6.20
   1  -4   7  130.99    5.10
   1  -4   7  131.79    5.00
   1  -4   7  133.89    5.40
   1  -4   7  115.99    7.60
  -2   4  -7    2.20    1.50
  -2   4  -7    2.80    1.80
  -2   4  -7    1.10    1.70
   2  -4   7    2.60    1.80
   2  -4   7    0.70    1.40
   2  -4   7   10.80    2.80
   2  -4   7    0.10    1.20
  -3   4  -7   21.00    3.00
  -3   4  -7   20.40    3.80
   3  -4   7   14.20    3.30
   3  -4   7   19.90    2.90
  -4   4  -7   24.90    4.10
  -4   4  -7   27.30    4.50
   4  -4   7   23.90    3.50
   4  -4   7   20.00    3.00
   4  -4   7   29.60    4.00
  -5   4  -7   15.50    3.80
   5  -4   7   17.10    4.90
   9   3  -7   40.40    4.80
   9   3  -7   45.40    4.30
  -9  -3   7   50.39    5.30
   8   3  -7   14.20    3.40
   8   3  -7   19.40    4.20
   8   3  -7   11.90    3.10
   8   3  -7   10.50    2.50
  -8  -3   7   12.00    2.90
  -8  -3   7   15.50    4.10
   7   3  -7   56.89    3.80
   7   3  -7   70.09    4.60
   7   3  -7   58.39    4.00
   7   3  -7   53.89    3.60
   7   3  -7   56.69    3.50
  -7  -3   7   61.79    4.40
  -7  -3   7   57.79    4.50
   6   3  -7    3.00    1.20
   6   3  -7    9.30    3.10
   6   3  -7    0.70    1.40
   6   3  -7    4.90    1.40
   6   3  -7    4.90    1.50
  -6  -3   7    4.70    1.50
  -6  -3   7    4.70    1.60
   5   3  -7  151.58    4.70
   5   3  -7  150.88    5.30
   5   3  -7  158.98    5.20
   5   3  -7  158.18    6.10
  -5  -3   7  164.58    5.60
  -5  -3   7  148.59    5.10
  -5  -3   7  155.48    6.00
   4   3  -7    1.10    1.10
   4   3  -7    0.40    1.10
   4   3  -7   -1.30    0.80
  -4  -3   7    0.80    1.50
  -4  -3   7    0.90    1.10
  -4  -3   7    0.30    0.80
  -4  -3   7    0.20    0.90
   3   3  -7   26.10    2.60
   3   3  -7   22.70    1.90
   3   3  -7   23.30    2.00
  -3  -3   7   21.10    2.10
  -3  -3   7   23.30    2.30
  -3  -3   7   21.30    2.50
  -3  -3   7   23.70    1.80
  -3  -3   7   19.40    2.10
   2   3  -7  126.89    3.90
   2   3  -7  129.69    4.40
   2   3  -7  129.19    4.80
  -2  -3   7  125.69    4.40
  -2  -3   7  125.99    4.60
  -2  -3   7  123.29    4.60
  -2  -3   7  132.29    4.00
  -2  -3   7  130.49    4.60
   1   3  -7  249.48    6.70
   1   3  -7  250.17    7.30
   1   3  -7  247.78    6.50
  -1  -3   7  257.27    7.20
  -1  -3   7  249.97    6.90
  -1  -3   7  251.97    6.50
  -1  -3   7  242.98    7.00
  -1  -3   7  244.78    7.20
   0   3  -7    1.80    1.20
   0   3  -7    0.30    1.00
   0   3  -7    1.60    1.00
   0  -3   7    3.00    1.10
   0  -3   7    1.40    1.00
   0  -3   7    2.00    1.00
   0  -3   7    1.10    1.10
  -1   3  -7  128.19    4.70
  -1   3  -7  126.59    5.20
  -1   3  -7  128.49    4.40
  -1   3  -7  127.39    4.90
   1  -3   7  129.79    4.90
   1  -3   7  122.79    4.50
   1  -3   7  131.89    4.50
   1  -3   7  128.29    5.00
  -2   3  -7  219.18    7.30
  -2   3  -7  226.78    6.30
  -2   3  -7  229.28    7.10
  -2   3  -7  227.08    7.60
   2  -3   7  230.38    7.40
   2  -3   7  232.38    6.50
   2  -3   7  219.78    6.90
   2  -3   7  227.78    7.30
  -3   3  -7   24.30    2.40
  -3   3  -7   23.30    3.30
  -3   3  -7   25.50    3.00
   3  -3   7   27.90    3.00
   3  -3   7   26.40    3.10
   3  -3   7   24.80    2.70
   3  -3   7   27.80    2.80
   3  -3   7   25.50    3.50
  -4   3  -7   10.90    3.60
  -4   3  -7   13.60    2.30
   4  -3   7   13.80    3.10
   4  -3   7   12.30    3.00
   4  -3   7   15.00    2.40
  -5   3  -7   47.70    5.10
   5  -3   7   47.30    2.70
   5  -3   7   44.20    4.60
   5  -3   7   47.60    4.80
  -6   3  -7    1.50    2.80
   6  -3   7    0.20    2.40
   6  -3   7   -0.60    2.30
   9   2  -7   48.20    5.60
   9   2  -7   36.60    4.90
   9   2  -7   37.80    4.60
   8   2  -7   -0.20    1.80
   8   2  -7    1.20    1.70
   8   2  -7   12.60    4.00
   8   2  -7    1.70    1.90
   8   2  -7   -0.90    2.30
  -8  -2   7   -0.40    2.70
  -8  -2   7    1.90    2.10
   7   2  -7   99.49    4.60
   7   2  -7   95.89    4.40
   7   2  -7  110.89    5.40
   7   2  -7   97.79    4.20
   7   2  -7  100.99    4.50
  -7  -2   7   97.89    5.30
  -7  -2   7  103.99    4.70
   6   2  -7    3.50    1.40
   6   2  -7    2.70    1.10
   6   2  -7    3.10    1.40
   6   2  -7    3.00    1.20
   6   2  -7    2.70    1.60
  -6  -2   7    2.40    1.30
  -6  -2   7    4.10    1.50
  -6  -2   7    3.00    1.50
   5   2  -7  121.39    5.20
   5   2  -7  115.39    3.70
   5   2  -7  121.19    4.40
   5   2  -7  114.49    3.80
   5   2  -7  117.89    4.30
  -5  -2   7  113.99    4.40
  -5  -2   7  115.09    4.70
  -5  -2   7  123.39    4.50
   4   2  -7   52.09    2.30
   4   2  -7   48.70    3.20
   4   2  -7   50.49    2.70
   4   2  -7   50.59    2.10
   4   2  -7   49.60    2.70
  -4  -2   7   48.40    3.10
  -4  -2   7   49.10    2.70
  -4  -2   7   54.89    3.00
   3   2  -7  313.47    8.10
   3   2  -7  307.37    7.00
   3   2  -7  307.87    7.80
   3   2  -7  302.27    8.20
  -3  -2   7  313.97    6.90
  -3  -2   7  301.87    7.90
  -3  -2   7  311.17    8.30
  -3  -2   7  317.67    8.00
   2   2  -7   -0.30    0.60
   2   2  -7    0.20    0.90
   2   2  -7    0.30    0.70
  -2  -2   7    0.30    0.60
  -2  -2   7    0.70    0.80
  -2  -2   7    0.10    0.70
  -2  -2   7    1.40    0.90
   1   2  -7  592.94   12.70
   1   2  -7  582.84   13.70
   1   2  -7  591.04   13.20
  -1  -2   7  575.04   13.50
  -1  -2   7  581.74   13.70
  -1  -2   7  603.34   13.60
  -1  -2   7  587.24   12.60
  -1  -2   7  598.04   13.30
   0   2  -7    9.50    1.40
   0   2  -7   10.70    1.40
   0   2  -7   11.90    1.80
   0  -2   7   10.90    1.50
   0  -2   7   14.20    1.90
   0  -2   7   12.20    1.70
   0  -2   7   12.70    1.60
   0  -2   7   12.50    1.60
  -1   2  -7  105.39    3.70
  -1   2  -7  100.09    3.50
  -1   2  -7   97.39    4.20
  -1   2  -7  103.89    4.10
   1  -2   7  106.19    3.70
   1  -2   7  100.59    3.60
   1  -2   7  103.69    4.10
   1  -2   7  100.69    4.00
  -2   2  -7   73.99    3.00
  -2   2  -7   78.69    3.70
  -2   2  -7   75.69    3.60
  -2   2  -7   77.39    4.00
   2  -2   7   78.49    3.20
   2  -2   7   78.29    3.50
   2  -2   7   80.19    3.80
   2  -2   7   77.69    3.90
  -3   2  -7   67.39    3.70
  -3   2  -7   67.09    3.80
  -3   2  -7   62.09    3.30
   3  -2   7   66.59    3.50
   3  -2   7   69.69    3.10
   3  -2   7   74.69    3.90
  -4   2  -7   20.80    3.20
  -4   2  -7   21.80    2.20
  -4   2  -7   25.10    3.20
   4  -2   7   26.30    2.80
   4  -2   7   27.60    2.40
   4  -2   7   23.70    2.80
   4  -2   7   25.30    3.90
   4  -2   7   26.30    2.90
  -5   2  -7  210.88    7.70
   5  -2   7  205.78    7.70
   5  -2   7  197.18    5.20
   5  -2   7  218.78    7.60
   5  -2   7  193.28    5.20
  -6   2  -7    3.50    2.50
   6  -2   7    2.80    1.90
   6  -2   7    4.30    2.30
  -7   2  -7    2.00    3.00
   7  -2   7   -2.00    2.30
   9   1  -7   16.60    5.00
   9   1  -7   19.20    5.00
   9   1  -7   22.50    4.50
   8   1  -7    2.00    2.50
   8   1  -7    0.80    1.70
   8   1  -7    1.70    2.00
   8   1  -7    2.00    1.80
  -8  -1   7    0.70    2.00
  -8  -1   7   -2.60    2.90
   7   1  -7   37.40    3.40
   7   1  -7   42.80    4.10
   7   1  -7   42.10    3.00
   7   1  -7   40.50    3.70
   7   1  -7   33.40    3.00
  -7  -1   7   46.00    3.50
  -7  -1   7   37.70    4.50
   6   1  -7    2.80    1.70
   6   1  -7    6.30    1.90
   6   1  -7    2.70    1.20
   6   1  -7    2.60    1.30
   6   1  -7    2.60    1.20
  -6  -1   7    4.00    1.60
  -6  -1   7    3.90    1.50
  -6  -1   7    2.40    1.50
   5   1  -7   20.90    3.10
   5   1  -7   16.90    1.80
   5   1  -7   20.30    1.70
   5   1  -7   20.70    2.40
   5   1  -7   22.00    2.20
  -5  -1   7   18.70    2.50
  -5  -1   7   18.00    2.80
  -5  -1   7   22.20    2.30
   4   1  -7    0.10    0.60
   4   1  -7    1.00    0.80
   4   1  -7    0.70    1.10
   4   1  -7    0.30    0.70
   4   1  -7    0.20    0.70
  -4  -1   7   -0.30    0.80
  -4  -1   7   -0.10    1.00
  -4  -1   7   -0.80    0.80
   3   1  -7  146.89    3.50
   3   1  -7  138.79    3.90
   3   1  -7  148.69    4.40
   3   1  -7  145.59    4.80
   3   1  -7  149.88    4.70
  -3  -1   7  152.48    4.80
  -3  -1   7  149.59    4.60
  -3  -1   7  149.29    4.70
   2   1  -7    3.50    1.00
   2   1  -7    4.90    1.30
   2   1  -7    3.60    1.10
  -2  -1   7    3.10    0.90
  -2  -1   7    6.00    1.30
  -2  -1   7    3.40    0.80
   1   1  -7  204.48    5.80
   1   1  -7  196.88    5.40
   1   1  -7  202.08    5.70
  -1  -1   7  196.68    4.90
  -1  -1   7  203.98    5.70
  -1  -1   7  200.58    5.40
  -1  -1   7  194.78    5.50
   0   1  -7  774.02   17.10
   0   1  -7  758.72   16.00
   0   1  -7  762.92   16.50
   0  -1   7  772.92   16.60
   0  -1   7  766.82   16.00
   0  -1   7  771.42   16.90
   0  -1   7  765.02   17.10
   0  -1   7  782.62   17.10
  -1   1  -7   57.79    3.00
  -1   1  -7   49.10    3.40
  -1   1  -7   57.09    2.40
   1  -1   7   55.19    2.30
   1  -1   7   58.69    2.80
   1  -1   7   58.69    2.90
   1  -1   7   58.29    2.50
   1  -1   7   57.69    2.80
  -2   1  -7  127.79    4.70
  -2   1  -7  123.19    4.20
  -2   1  -7  124.09    4.50
  -2   1  -7  123.99    3.80
   2  -1   7  129.39    4.60
   2  -1   7  127.19    3.90
   2  -1   7  128.59    4.60
   2  -1   7  130.49    4.20
  -3   1  -7   87.59    3.80
  -3   1  -7   90.19    3.80
  -3   1  -7   84.19    3.00
   3  -1   7   79.69    4.10
   3  -1   7   88.29    4.00
   3  -1   7   85.79    3.10
   3  -1   7   88.49    3.70
   3  -1   7   87.59    3.90
  -4   1  -7   35.10    2.90
  -4   1  -7   33.50    3.20
   4  -1   7   38.60    2.20
   4  -1   7   35.90    2.90
   4  -1   7   34.30    3.20
   4  -1   7   34.60    2.20
   4  -1   7   34.10    3.40
   4  -1   7   41.40    3.10
  -5   1  -7    1.60    1.60
  -5   1  -7    0.30    1.50
   5  -1   7    1.90    0.90
   5  -1   7    1.80    1.40
   5  -1   7    1.60    1.40
   5  -1   7    1.50    1.00
  -6   1  -7   11.10    3.70
   6  -1   7   11.00    3.70
   6  -1   7    9.90    3.30
  -7   1  -7    3.30    2.60
   7  -1   7   -0.90    2.30
   7  -1   7    0.70    1.90
   8   0  -7    1.10    2.10
   8   0  -7    4.50    2.00
   8   0  -7    3.40    2.20
   8   0  -7    4.60    2.70
  -8   0   7    3.10    1.90
   7   0  -7   83.49    5.20
   7   0  -7   83.29    5.00
   7   0  -7   76.89    4.30
   7   0  -7   79.69    3.80
  -7   0   7   70.89    4.00
  -7   0   7   84.29    3.90
  -7   0   7   65.09    5.40
   6   0  -7   20.60    2.50
   6   0  -7   20.60    2.10
   6   0  -7   18.50    4.30
   6   0  -7   24.10    3.00
  -6   0   7   24.60    2.50
  -6   0   7   17.50    3.40
  -6   0   7   18.40    3.50
   5   0  -7  163.88    4.80
   5   0  -7  174.18    5.70
   5   0  -7  161.48    5.00
   5   0  -7  171.08    6.00
   5   0  -7  164.88    4.60
  -5   0   7  169.78    5.10
  -5   0   7  167.28    5.90
  -5   0   7  166.58    5.80
   4   0  -7   32.40    1.70
   4   0  -7   33.00    1.60
   4   0  -7   33.60    2.50
   4   0  -7   31.60    2.90
   4   0  -7   34.50    2.20
  -4   0   7   30.30    2.60
  -4   0   7   34.30    2.70
  -4   0   7   32.40    2.20
   3   0  -7 1171.78   24.60
   3   0  -7 1172.68   24.90
   3   0  -7 1178.98   25.00
   3   0  -7 1175.38   23.40
  -3   0   7 1162.98   25.00
  -3   0   7 1198.28   24.60
  -3   0   7 1182.98   24.90
   2   0  -7  120.69    3.90
   2   0  -7  119.29    4.00
  -2   0   7  121.59    4.00
  -2   0   7  125.59    4.00
  -2   0   7  123.59    3.80
   1   0  -7  376.46    8.90
   1   0  -7  366.96    9.10
   1   0  -7  368.96    9.60
  -1   0   7  376.16    8.70
  -1   0   7  375.46    8.70
   0   0  -7   62.69    2.80
   0   0  -7   61.79    2.60
   0   0  -7   59.49    1.90
   0   0  -7   62.89    2.50
   0   0   7   63.99    2.50
   0   0   7   63.09    2.50
   0   0   7   67.29    2.60
  -1   0  -7  439.86    9.90
  -1   0  -7  428.76    9.70
  -1   0  -7  442.76   10.50
   1   0   7  442.56    9.90
   1   0   7  437.86    9.70
   1   0   7  448.16   10.50
   1   0   7  436.76   10.50
  -2   0  -7   13.80    1.50
  -2   0  -7   12.90    1.30
  -2   0  -7   12.10    1.80
   2   0   7   15.00    1.80
   2   0   7   11.70    1.60
   2   0   7   11.90    1.40
   2   0   7   13.50    1.60
   2   0   7   12.10    1.40
  -3   0  -7  858.71   19.00
   3   0   7  859.41   18.20
   3   0   7  868.21   19.20
   3   0   7  868.91   18.10
   3   0   7  872.01   19.10
   3   0   7  851.71   18.90
   3   0   7  870.91   19.50
  -4   0  -7   13.80    2.30
  -4   0  -7    8.60    2.00
   4   0   7    9.50    2.30
   4   0   7   11.00    1.50
   4   0   7   10.80    2.20
   4   0   7   13.60    1.60
   4   0   7   12.00    2.10
   4   0   7    9.90    2.30
  -5   0  -7    3.60    1.50
  -5   0  -7    5.90    3.20
   5   0   7    4.40    1.70
   5   0   7    5.40    1.50
   5   0   7    8.20    2.60
   5   0   7    9.10    2.50
   5   0   7    5.00    1.50
   5   0   7    6.20    1.50
  -6   0  -7   65.59    4.70
  -6   0  -7   74.79    4.70
   6   0   7   74.49    4.50
   6   0   7   70.89    4.40
  -7   0  -7   32.70    4.70
   7   0   7   23.40    3.80
   7   0   7   27.40    4.60
  -8   0  -7    0.70    2.70
   8   0   7   -0.10    2.20
   8   0   7    2.70    3.00
   8  -1  -7    3.70    2.40
   8  -1  -7    0.40    2.50
   7  -1  -7    0.60    2.10
   7  -1  -7    0.70    2.10
   7  -1  -7    1.80    1.70
  -7   1   7    0.30    1.40
  -7   1   7    0.50    1.50
  -7   1   7   -0.80    1.60
   6  -1  -7    5.30    1.50
   6  -1  -7    0.70    3.10
   6  -1  -7    4.00    1.90
  -6   1   7    3.80    1.40
  -6   1   7    3.20    1.50
  -6   1   7    2.30    1.20
  -6   1   7    0.10    1.80
  -6   1   7   -0.60    1.90
   5  -1  -7   56.69    3.70
   5  -1  -7   53.39    2.80
   5  -1  -7   56.79    3.90
  -5   1   7   58.99    3.00
  -5   1   7   56.69    2.80
  -5   1   7   54.79    3.60
  -5   1   7   55.59    2.80
  -5   1   7   55.79    4.00
   4  -1  -7   55.69    2.40
   4  -1  -7   59.39    3.40
   4  -1  -7   61.49    3.40
  -4   1   7   61.39    3.50
  -4   1   7   59.29    2.40
  -4   1   7   59.59    2.90
  -4   1   7   60.29    3.20
  -4   1   7   60.29    2.80
   3  -1  -7   96.79    2.70
   3  -1  -7  101.69    3.80
   3  -1  -7  100.39    3.70
  -3   1   7   97.79    3.70
  -3   1   7  100.59    2.70
  -3   1   7   94.19    3.60
  -3   1   7  101.19    3.40
   2  -1  -7   23.60    1.80
   2  -1  -7   23.50    1.90
  -2   1   7   27.60    2.00
  -2   1   7   25.00    1.80
  -2   1   7   25.80    1.80
   1  -1  -7  223.38    6.00
   1  -1  -7  219.78    5.50
  -1   1   7  226.88    5.70
  -1   1   7  217.18    5.50
  -1   1   7  196.18    6.30
   0  -1  -7  162.88    4.90
   0  -1  -7  170.38    4.60
   0   1   7  166.88    4.80
   0   1   7  167.38    4.40
   0   1   7  163.58    3.80
   0   1   7  167.48    4.60
   0   1   7  167.28    3.80
  -1  -1  -7 1117.99   23.40
  -1  -1  -7 1123.49   23.80
   1   1   7 1106.69   22.90
   1   1   7 1122.69   23.30
   1   1   7 1123.39   22.80
   1   1   7 1132.29   23.70
   1   1   7 1126.59   23.30
   1   1   7 1114.09   23.30
  -2  -1  -7   87.29    3.40
  -2  -1  -7   86.19    3.00
   2   1   7   81.49    3.80
   2   1   7   88.99    3.00
   2   1   7   85.39    2.90
   2   1   7   87.19    3.00
   2   1   7   86.19    3.30
  -3  -1  -7  407.66    9.90
   3   1   7  408.06    9.30
   3   1   7  403.16    9.20
   3   1   7  408.96    9.80
   3   1   7  397.06    9.80
   3   1   7  419.96   10.00
   3   1   7  412.66   10.20
   3   1   7  405.36   10.10
  -4  -1  -7  132.89    4.70
   4   1   7  129.59    3.80
   4   1   7  125.29    3.80
   4   1   7  132.39    4.60
   4   1   7  128.89    5.00
   4   1   7  127.69    4.60
   4   1   7  131.19    4.70
   4   1   7  127.69    4.70
  -5  -1  -7   10.60    1.90
  -5  -1  -7    9.00    2.50
   5   1   7    7.10    2.40
   5   1   7    8.10    1.60
   5   1   7    8.00    1.50
   5   1   7    8.80    2.40
   5   1   7   11.30    2.40
   5   1   7   12.90    2.80
  -6  -1  -7    2.90    1.60
  -6  -1  -7    1.20    1.50
   6   1   7    0.30    1.40
   6   1   7    1.50    0.90
   6   1   7    3.00    1.40
   6   1   7    1.80    0.90
  -7  -1  -7  129.39    6.10
  -7  -1  -7  114.69    6.10
   7   1   7  121.89    7.00
   7   1   7  124.69    5.70
  -8  -1  -7   38.00    5.00
   8   1   7   25.40    4.50
   8   1   7   27.10    5.70
   8  -2  -7    7.60    3.20
   8  -2  -7   22.10    6.00
  -8   2   7    4.90    3.20
   7  -2  -7   41.40    4.50
   7  -2  -7   44.60    5.00
  -7   2   7   52.79    3.20
  -7   2   7   53.29    4.50
   6  -2  -7    7.60    1.90
   6  -2  -7    6.60    2.30
  -6   2   7    7.40    1.50
  -6   2   7   11.60    3.00
  -6   2   7    5.10    2.10
  -6   2   7    9.70    2.50
   5  -2  -7   77.59    7.40
   5  -2  -7   86.59    4.40
   5  -2  -7   83.59    3.70
  -5   2   7   80.79    3.40
  -5   2   7   80.79    3.40
  -5   2   7   74.39    4.60
  -5   2   7   81.19    4.10
  -5   2   7   81.59    3.70
   4  -2  -7    4.90    1.50
   4  -2  -7    3.50    1.20
   4  -2  -7    2.60    1.30
  -4   2   7    2.60    1.20
  -4   2   7    3.50    1.30
  -4   2   7    3.70    1.10
  -4   2   7    5.80    1.80
  -4   2   7    4.80    1.10
   3  -2  -7   64.09    3.10
   3  -2  -7   63.09    2.50
   3  -2  -7   67.49    3.40
  -3   2   7   65.89    3.00
  -3   2   7   65.39    2.50
  -3   2   7   69.69    2.90
  -3   2   7   62.49    2.80
  -3   2   7   63.59    3.20
   2  -2  -7  334.47    7.40
   2  -2  -7  328.77    7.80
   2  -2  -7  334.57    8.60
  -2   2   7  337.27    8.10
  -2   2   7  342.37    8.10
  -2   2   7  335.97    7.80
  -2   2   7  332.67    8.60
  -2   2   7  336.37    7.40
   1  -2  -7  670.13   13.90
   1  -2  -7  668.23   14.80
  -1   2   7  668.33   13.90
  -1   2   7  623.44   13.50
  -1   2   7  658.13   14.40
  -1   2   7  646.54   14.60
  -1   2   7  671.43   14.40
   0  -2  -7   51.39    1.70
   0  -2  -7   51.39    2.40
   0  -2  -7   49.10    1.90
   0   2   7   47.30    2.60
   0   2   7   52.89    1.80
   0   2   7   51.59    1.90
   0   2   7   51.49    2.30
   0   2   7   50.69    2.70
  -1  -2  -7  903.71   19.50
  -1  -2  -7  903.21   18.90
   1   2   7  916.41   18.80
   1   2   7  916.61   19.20
   1   2   7  905.11   18.70
   1   2   7  903.31   19.30
   1   2   7  906.31   18.80
  -2  -2  -7   40.70    2.20
   2   2   7   38.60    1.90
   2   2   7   39.40    2.10
   2   2   7   40.10    2.00
   2   2   7   39.70    2.10
   2   2   7   36.30    2.20
   2   2   7   39.50    1.90
   2   2   7   39.80    2.00
   3   2   7  146.69    4.60
   3   2   7  142.79    4.30
   3   2   7  146.69    4.50
   3   2   7  149.59    4.50
   3   2   7  147.29    4.70
   3   2   7  144.79    4.50
   3   2   7  145.69    4.20
   3   2   7  152.68    4.50
   4   2   7  226.18    6.40
   4   2   7  236.58    6.90
   4   2   7  232.58    6.60
   4   2   7  238.48    6.00
   4   2   7  228.28    5.90
   4   2   7  232.98    6.70
   4   2   7  233.48    6.50
   4   2   7  235.68    6.40
   5   2   7   71.99    3.70
   5   2   7   64.69    3.60
   5   2   7   69.99    2.80
   5   2   7   69.19    3.50
   5   2   7   69.39    4.20
   5   2   7   74.49    3.80
   5   2   7   73.39    3.40
   5   2   7   70.59    2.80
   6   2   7   26.40    3.80
   6   2   7   26.50    3.20
   6   2   7   31.60    2.80
   6   2   7   26.80    2.80
   6   2   7   25.20    3.10
   6   2   7   27.20    2.10
   6   2   7   28.80    2.10
   6   2   7   25.00    2.90
   7   2   7   26.50    3.60
   7   2   7   28.90    2.20
   7   2   7   22.00    2.00
   7   2   7   30.20    3.80
   7   2   7   23.40    3.00
   8   2   7    0.60    1.80
   8   2   7   -1.40    2.70
   8   2   7   -2.10    1.90
   7  -3  -7   18.30    5.20
  -7   3   7   23.60    4.70
   6  -3  -7   -0.60    2.20
   6  -3  -7    0.20    2.00
  -6   3   7   -0.50    1.50
  -6   3   7   -1.60    2.20
  -6   3   7    0.90    1.40
  -6   3   7    0.40    1.90
   5  -3  -7   18.60    3.70
   5  -3  -7    7.90    1.90
   5  -3  -7   11.20    2.90
  -5   3   7    9.80    2.70
  -5   3   7    8.40    1.50
  -5   3   7    9.60    2.40
  -5   3   7    7.80    1.90
   4  -3  -7    0.00    1.40
   4  -3  -7   -0.10    1.50
   4  -3  -7   -0.90    1.30
  -4   3   7    0.00    1.00
  -4   3   7   -0.20    1.20
  -4   3   7    0.60    1.20
  -4   3   7   -0.50    1.00
  -4   3   7   -0.30    1.10
   3  -3  -7  150.68    5.50
   3  -3  -7  128.59    5.30
   3  -3  -7  136.89    4.50
  -3   3   7  143.49    4.30
  -3   3   7  144.59    4.50
  -3   3   7  143.89    4.40
  -3   3   7  137.49    5.20
  -3   3   7  141.19    4.50
   2  -3  -7   52.09    2.40
   2  -3  -7   45.80    2.30
   2  -3  -7   50.29    3.00
  -2   3   7   51.49    2.20
  -2   3   7   50.89    3.00
  -2   3   7   49.60    2.50
  -2   3   7   48.80    2.50
  -2   3   7   48.20    2.30
   1  -3  -7  211.58    5.30
   1  -3  -7  207.68    4.90
   1  -3  -7  215.28    6.20
  -1   3   7  214.48    6.00
  -1   3   7  214.18    4.90
  -1   3   7  211.38    5.70
  -1   3   7  208.38    5.30
   0  -3  -7  157.08    4.80
   0  -3  -7  153.28    4.10
   0  -3  -7  158.38    4.60
   0   3   7  159.48    4.60
   0   3   7  153.98    3.70
   0   3   7  155.58    4.20
   0   3   7  155.98    4.70
  -1  -3  -7  925.41   19.90
  -1  -3  -7  923.31   19.40
  -1  -3  -7  925.61   20.00
   1   3   7  940.21   19.80
   1   3   7  943.41   19.90
   1   3   7  934.11   19.00
   1   3   7  946.21   19.50
  -2  -3  -7   59.59    2.40
  -2  -3  -7   57.59    2.50
  -2  -3  -7   57.49    2.50
   2   3   7   57.29    2.40
   2   3   7   56.69    2.40
   2   3   7   56.99    2.10
   2   3   7   58.29    2.30
   2   3   7   57.19    2.50
  -3  -3  -7  131.89    4.10
   3   3   7  131.69    4.20
   3   3   7  133.19    4.20
   3   3   7  125.69    4.00
   3   3   7  128.69    4.10
   3   3   7  128.69    3.90
   3   3   7  125.89    3.90
  -4  -3  -7   31.60    2.10
   4   3   7   34.90    2.10
   4   3   7   29.70    2.10
   4   3   7   29.00    2.10
   4   3   7   32.30    2.40
   4   3   7   31.70    2.60
   4   3   7   34.40    2.40
   4   3   7   32.00    2.40
  -5  -3  -7  664.33   14.50
   5   3   7  632.84   15.40
   5   3   7  659.73   15.10
   5   3   7  666.43   14.60
   5   3   7  667.13   15.30
   5   3   7  635.54   14.30
   5   3   7  651.93   15.70
   6   3   7   71.49    4.10
   6   3   7   75.79    4.10
   6   3   7   75.69    3.50
   6   3   7   74.89    3.90
   6   3   7   68.89    3.10
   6   3   7   65.09    4.80
   6   3   7   74.89    3.50
   7   3   7   47.00    3.50
   7   3   7   43.00    2.80
   7   3   7   44.30    3.60
   7   3   7   36.00    3.40
   7   3   7   45.50    4.00
   7   3   7   41.40    3.40
   8   3   7    8.10    2.10
   8   3   7   10.40    2.30
   8   3   7   18.40    4.30
   8   3   7   12.70    3.30
   8   3   7    8.30    2.30
   9   3   7   -1.30    2.40
   9   3   7    2.10    2.30
   7  -4  -7   -0.30    3.30
   6  -4  -7    3.10    2.50
  -6   4   7    2.80    2.60
  -6   4   7   -0.10    2.20
  -6   4   7    1.80    1.50
   5  -4  -7    7.50    2.10
   5  -4  -7    7.60    2.50
  -5   4   7   11.30    3.00
  -5   4   7    6.70    1.60
  -5   4   7    7.20    2.10
  -5   4   7    6.60    2.10
   4  -4  -7    7.20    1.70
   4  -4  -7   12.10    2.80
  -4   4   7    8.10    1.70
  -4   4   7    8.70    2.40
  -4   4   7    8.40    2.30
  -4   4   7   11.30    2.50
   3  -4  -7   28.20    3.60
   3  -4  -7   25.70    2.70
   3  -4  -7   28.00    2.90
  -3   4   7   27.10    2.40
  -3   4   7   28.80    2.60
  -3   4   7   25.40    2.20
  -3   4   7   29.30    2.50
  -3   4   7   23.20    3.10
   2  -4  -7    5.20    1.70
   2  -4  -7   11.30    1.90
   2  -4  -7    9.90    2.10
   2  -4  -7    9.40    2.70
  -2   4   7    8.70    1.90
  -2   4   7    7.40    2.30
  -2   4   7    8.80    1.90
  -2   4   7    8.10    1.40
   1  -4  -7  197.78    5.70
   1  -4  -7  202.58    6.20
   1  -4  -7  187.28    6.10
  -1   4   7  195.28    5.50
  -1   4   7  200.28    5.60
  -1   4   7  199.18    6.00
   0  -4  -7  150.08    4.50
   0  -4  -7  155.88    5.00
   0  -4  -7  152.58    4.70
   0   4   7  151.68    4.50
   0   4   7  149.59    4.60
   0   4   7  149.09    4.80
  -1  -4  -7    7.90    1.50
  -1  -4  -7    5.70    1.40
  -1  -4  -7    7.80    1.60
   1   4   7    7.30    1.50
   1   4   7    6.90    1.60
   1   4   7    9.50    1.60
  -2  -4  -7    5.30    1.40
  -2  -4  -7    6.50    1.40
  -2  -4  -7    7.40    1.40
   2   4   7    8.20    1.20
   2   4   7    8.40    1.40
   2   4   7    6.90    1.50
   2   4   7   11.50    1.70
   2   4   7    9.20    1.10
  -3  -4  -7   24.80    2.00
  -3  -4  -7   26.10    2.00
  -3  -4  -7   23.80    1.80
   3   4   7   26.90    1.80
   3   4   7   27.60    2.00
   3   4   7   28.90    2.30
   3   4   7   24.80    1.80
   3   4   7   25.20    1.90
  -4  -4  -7   33.30    2.30
   4   4   7   33.00    2.50
   4   4   7   30.20    1.90
   4   4   7   32.90    2.40
   4   4   7   32.20    2.60
   4   4   7   31.20    2.00
   4   4   7   31.40    2.30
   4   4   7   32.90    2.60
  -5  -4  -7  329.97    8.30
   5   4   7  319.07    7.80
   5   4   7  314.27    9.00
   5   4   7  329.37    8.60
   5   4   7  317.67    8.10
   5   4   7  331.47    8.90
   5   4   7  332.47    7.90
  -6  -4  -7   12.60    2.30
   6   4   7    8.70    2.80
   6   4   7   13.90    2.60
   6   4   7   10.60    2.80
   6   4   7   11.80    2.40
   6   4   7   12.10    2.00
   6   4   7   11.20    2.00
  -7  -4  -7    9.30    2.40
   7   4   7    4.20    1.70
   7   4   7    5.40    1.60
   7   4   7    5.10    1.40
   7   4   7    2.90    1.70
   8   4   7   29.10    3.80
   8   4   7   32.40    3.70
   8   4   7   30.90    4.30
   8   4   7   39.90    3.80
   9   4   7   30.50    4.20
   9   4   7   20.90    5.00
   6  -5  -7   -1.90    3.00
  -6   5   7   -4.90    2.90
   5  -5  -7   19.40    4.90
   5  -5  -7   18.20    4.30
  -5   5   7   26.90    4.70
  -5   5   7   23.00    3.40
   4  -5  -7   12.60    3.60
   4  -5  -7    0.30    2.30
   4  -5  -7   -0.50    1.70
  -4   5   7    0.50    1.70
  -4   5   7    0.60    1.40
   3  -5  -7   23.40    3.10
   3  -5  -7   20.20    2.70
   3  -5  -7   25.90    2.70
   3  -5  -7   30.60    3.50
  -3   5   7   25.40    3.10
  -3   5   7   29.20    2.90
   2  -5  -7    6.00    1.40
   2  -5  -7    9.60    3.20
   2  -5  -7    5.10    1.10
   2  -5  -7    6.00    1.80
   2  -5  -7    5.50    1.60
  -2   5   7    6.70    1.60
  -2   5   7    4.20    1.30
  -2   5   7    8.00    2.40
   1  -5  -7  252.57    7.70
   1  -5  -7  248.08    7.00
   1  -5  -7  247.68    7.00
  -1   5   7  251.67    7.10
  -1   5   7  253.27    7.00
  -1   5   7  247.08    7.40
   0  -5  -7   37.10    2.80
   0  -5  -7   31.00    2.90
   0  -5  -7   33.80    2.40
   0   5   7   33.70    2.80
   0   5   7   34.20    2.40
   0   5   7   34.10    2.70
  -1  -5  -7  126.19    4.40
  -1  -5  -7  126.59    4.40
  -1  -5  -7  125.99    4.50
   1   5   7  128.59    4.30
   1   5   7  130.19    4.60
   1   5   7  125.59    4.50
  -2  -5  -7   -0.10    0.70
  -2  -5  -7    0.20    1.00
  -2  -5  -7   -0.40    0.80
   2   5   7   -0.20    1.20
   2   5   7    0.60    0.90
   2   5   7    0.80    1.00
  -3  -5  -7  724.43   16.50
  -3  -5  -7  757.32   16.60
  -3  -5  -7  729.53   16.00
   3   5   7  727.83   15.50
   3   5   7  716.83   16.30
   3   5   7  755.22   15.30
   3   5   7  724.13   15.80
   3   5   7  734.23   16.60
  -4  -5  -7   44.20    2.80
  -4  -5  -7   40.10    2.30
  -4  -5  -7   45.50    2.80
   4   5   7   48.30    3.20
   4   5   7   40.80    2.30
   4   5   7   44.70    2.80
   4   5   7   45.60    2.60
  -5  -5  -7  159.18    5.10
  -5  -5  -7  165.38    5.30
   5   5   7  156.68    4.40
   5   5   7  160.78    5.20
   5   5   7  152.68    4.40
   5   5   7  150.08    5.70
   5   5   7  154.98    5.20
   5   5   7  167.68    5.80
  -6  -5  -7   46.30    3.60
  -6  -5  -7   45.10    3.10
   6   5   7   49.80    4.70
   6   5   7   52.59    3.50
   6   5   7   45.80    3.50
   6   5   7   50.59    2.40
   6   5   7   44.80    2.30
   6   5   7   46.10    3.20
  -7  -5  -7   24.90    3.90
  -7  -5  -7   26.90    3.00
   7   5   7   27.00    3.50
   7   5   7   28.90    2.10
   7   5   7   23.80    3.30
   7   5   7   29.30    2.40
   7   5   7   27.90    3.70
  -8  -5  -7    2.50    1.80
   8   5   7   -1.30    2.00
   8   5   7    2.20    1.40
   8   5   7    0.80    1.80
   8   5   7    1.00    2.10
   9   5   7   33.70    5.40
   9   5   7   40.90    4.40
   5  -6  -7    1.50    3.10
  -5   6   7    4.50    3.40
  -5   6   7    3.80    3.10
   4  -6  -7   16.60    3.90
  -4   6   7   17.80    3.50
  -4   6   7   18.10    4.10
  -4   6   7   18.00    4.50
   3  -6  -7    1.50    2.30
   3  -6  -7    2.10    1.60
   3  -6  -7    0.70    1.70
   3  -6  -7    0.60    1.50
   3  -6  -7    1.90    1.50
  -3   6   7    3.00    1.90
  -3   6   7    2.20    1.90
   2  -6  -7   33.40    2.10
   2  -6  -7   34.00    3.10
   2  -6  -7   28.00    3.50
   2  -6  -7   45.80    4.10
  -2   6   7   35.60    3.30
  -2   6   7   38.20    3.60
   1  -6  -7   21.10    5.60
   1  -6  -7   16.20    2.90
   1  -6  -7   17.40    2.40
  -1   6   7   19.90    2.90
  -1   6   7   12.60    3.10
  -1   6   7   14.80    3.00
   0  -6  -7  106.29    4.30
   0  -6  -7  104.09    5.10
   0  -6  -7  104.29    4.60
   0   6   7   96.59    4.60
   0   6   7   97.69    4.20
   0   6   7  103.39    4.70
  -1  -6  -7   53.89    3.40
  -1  -6  -7   56.69    3.20
  -1  -6  -7   54.39    3.40
   1   6   7   56.69    3.60
   1   6   7   53.59    3.70
   1   6   7   58.39    3.00
  -2  -6  -7    4.90    1.50
  -2  -6  -7    7.40    2.00
  -2  -6  -7    6.00    2.10
   2   6   7    5.70    1.70
   2   6   7    7.90    2.10
   2   6   7    3.90    1.40
  -3  -6  -7  179.58    5.90
  -3  -6  -7  184.88    5.50
  -3  -6  -7  188.88    6.00
   3   6   7  192.88    6.30
   3   6   7  184.38    4.60
   3   6   7  191.48    5.80
   3   6   7  179.98    4.50
  -4  -6  -7    1.40    1.10
  -4  -6  -7    1.40    0.90
  -4  -6  -7    1.60    1.30
   4   6   7    6.80    2.10
   4   6   7    0.60    1.40
   4   6   7    3.60    1.30
   4   6   7    0.60    1.10
  -5  -6  -7   16.10    2.40
  -5  -6  -7   19.60    2.40
  -5  -6  -7   16.60    2.50
   5   6   7   15.90    2.70
   5   6   7   15.30    2.70
   5   6   7   14.90    1.60
   5   6   7   10.00    2.70
   5   6   7   12.90    2.00
  -6  -6  -7   17.40    3.10
  -6  -6  -7   20.60    3.60
   6   6   7   15.70    3.00
   6   6   7   14.90    2.90
   6   6   7   14.60    3.10
  -7  -6  -7  101.29    5.70
  -7  -6  -7   93.39    5.40
   7   6   7   98.79    5.40
   7   6   7  106.79    5.20
   7   6   7   97.79    5.00
  -8  -6  -7   19.00    3.60
   8   6   7   16.90    4.50
   8   6   7   14.90    4.60
   8   6   7   24.80    3.70
  -9  -6  -7   67.09    5.10
   9   6   7   45.20    4.90
   9   6   7   54.79    6.30
  -4   7   7    3.40    3.10
   3  -7  -7   16.10    3.60
  -3   7   7   15.30    4.70
   2  -7  -7    3.30    1.60
  -2   7   7    6.00    2.30
  -2   7   7    4.10    2.10
   1  -7  -7    2.60    2.10
   1  -7  -7   12.90    3.70
   1  -7  -7    2.50    1.60
  -1   7   7    5.20    1.90
  -1   7   7    5.20    1.90
   0  -7  -7   16.60    3.50
   0  -7  -7   22.50    6.40
   0  -7  -7   13.60    2.70
   0   7   7   12.80    3.00
   0   7   7   17.60    4.10
  -1  -7  -7   68.89    3.90
  -1  -7  -7   60.69    4.10
  -1  -7  -7   74.59    4.40
   1   7   7   70.89    4.30
   1   7   7   59.29    4.10
   1   7   7   70.79    3.60
  -2  -7  -7    2.70    1.40
  -2  -7  -7    2.80    1.30
  -2  -7  -7    1.80    1.60
   2   7   7    5.10    2.00
   2   7   7    1.80    1.50
   2   7   7    3.30    1.10
  -3  -7  -7   30.80    3.10
  -3  -7  -7   35.90    2.70
  -3  -7  -7   35.30    3.10
   3   7   7   33.10    3.10
   3   7   7   33.10    2.80
   3   7   7   37.20    4.70
  -4  -7  -7    5.50    1.80
  -4  -7  -7    6.90    1.60
  -4  -7  -7    7.10    1.60
   4   7   7    6.30    1.80
   4   7   7   10.60    2.00
   4   7   7    5.00    1.50
   4   7   7    8.80    2.00
  -5  -7  -7    2.60    1.40
  -5  -7  -7    1.60    1.50
   5   7   7    3.20    1.50
   5   7   7    1.40    1.10
   5   7   7    0.90    1.50
  -6  -7  -7   13.10    3.40
  -6  -7  -7   15.60    3.60
   6   7   7   16.20    3.60
   6   7   7   17.60    3.00
  -7  -7  -7   44.70    4.90
  -7  -7  -7   57.09    4.30
   7   7   7   43.40    3.90
  -8  -7  -7    2.20    2.30
   8   7   7    1.10    2.80
   8   7   7    2.00    2.00
  -3   8   7   28.90    6.70
  -2   8   7   15.90    5.40
   1  -8  -7   20.90    4.90
  -1   8   7   18.30    4.50
   0  -8  -7    1.40    1.80
   0   8   7    1.10    2.20
  -1  -8  -7   90.39    5.40
  -1  -8  -7   86.29    4.60
   1   8   7   90.29    5.20
   1   8   7   66.59    4.80
  -2  -8  -7   10.90    3.10
  -2  -8  -7   13.60    3.20
   2   8   7   16.20    3.70
  -3  -8  -7    3.80    1.50
  -3  -8  -7    3.50    1.60
   3   8   7    1.50    1.70
   3   8   7    3.50    1.90
  -4  -8  -7   -0.50    1.10
  -4  -8  -7   -0.40    1.70
   4   8   7    1.50    1.70
   4   8   7   -1.40    1.50
  -5  -8  -7   59.19    2.90
  -5  -8  -7   68.09    4.70
   5   8   7   60.49    3.20
   5   8   7   62.39    3.50
   5   8   7   60.29    4.30
  -6  -8  -7   11.50    3.60
  -6  -8  -7   23.00    4.40
   6   8   7   14.90    3.30
  -7  -8  -7   79.99    5.50
   7   8   7   63.19    4.90
   7   8   7   70.99    5.60
  -8  -8  -7    2.80    2.60
   8   8   7    2.80    3.20
   8   8   7   -2.60    2.10
   1  -9  -7    1.30    2.30
  -1   9   7    6.30    3.50
   0  -9  -7   21.60    5.50
   0   9   7    3.60    2.80
  -1  -9  -7    4.10    2.50
  -1  -9  -7    4.20    2.10
   1   9   7    4.90    2.50
  -2  -9  -7    7.80    2.30
  -2  -9  -7    7.60    2.40
   2   9   7    5.60    2.70
   2   9   7   14.80    4.40
  -3  -9  -7   -0.50    1.90
  -3  -9  -7    1.90    1.80
   3   9   7    1.70    2.20
   3   9   7    2.00    2.50
  -4  -9  -7    9.70    2.40
  -4  -9  -7    5.90    1.70
   4   9   7   13.40    3.90
   4   9   7    6.20    2.10
  -5  -9  -7   53.49    5.10
   5   9   7   47.00    3.20
   5   9   7   46.20    4.60
  -6  -9  -7    2.20    2.40
   6   9   7    0.30    1.90
   6   9   7   -0.40    2.20
  -7  -9  -7   -0.90    2.60
   7   9   7    2.70    2.60
   7   9   7   -1.40    2.20
  -1 -10  -7   27.00    7.00
  -1 -10  -7   19.60    5.40
   1  10   7   11.50    3.50
  -2 -10  -7   19.70    6.10
  -3 -10  -7   50.19    5.50
  -3 -10  -7   51.49    5.50
   3  10   7   56.79    5.70
  -4 -10  -7    1.90    2.40
   4  10   7    0.30    2.80
  -5 -10  -7   25.60    5.20
   5  10   7   25.70    5.20
   5   8  -8   33.30    6.80
   5   8  -8   36.50    6.00
  -5  -8   8   23.70    5.60
   4   8  -8   -1.50    3.20
   4   8  -8    3.80    3.20
  -4  -8   8    2.30    2.20
  -4  -8   8    2.90    2.60
   3   8  -8    3.70    2.90
   3   8  -8    0.40    2.90
  -3  -8   8   -0.30    2.30
  -3  -8   8   -0.80    2.60
   2   8  -8    8.70    3.60
   2   8  -8    9.30    3.20
  -2  -8   8    4.10    2.80
  -2  -8   8    7.40    2.80
   7   7  -8   -3.00    3.00
  -7  -7   8   -0.40    2.50
   6   7  -8    4.60    2.70
   6   7  -8    6.70    3.10
  -6  -7   8    5.00    2.40
  -6  -7   8    2.70    2.00
   5   7  -8    1.50    2.30
   5   7  -8    4.30    2.80
  -5  -7   8    1.60    1.90
  -5  -7   8    1.90    1.80
   4   7  -8   73.39    5.50
   4   7  -8   87.19    6.40
  -4  -7   8   67.79    5.30
  -4  -7   8   72.59    5.10
  -4  -7   8   80.19    4.70
   3   7  -8   10.30    2.60
   3   7  -8    5.90    2.80
  -3  -7   8   10.70    3.50
  -3  -7   8    5.00    2.10
   2   7  -8   25.80    5.20
   2   7  -8   35.00    4.80
  -2  -7   8   29.10    4.30
  -2  -7   8   30.50    4.30
   1   7  -8    8.60    2.80
   1   7  -8    6.60    2.90
  -1  -7   8   12.60    4.30
  -1  -7   8    1.90    2.20
   0   7  -8    3.70    2.80
   0   7  -8    2.10    2.90
   0  -7   8   -0.90    2.30
   0  -7   8   -0.20    2.20
  -1   7  -8    0.40    3.50
  -1   7  -8   -0.10    3.30
   1  -7   8    2.20    2.60
   1  -7   8   -4.00    2.20
   8   6  -8    1.30    3.20
  -8  -6   8    1.80    2.90
   7   6  -8   23.00    4.70
  -7  -6   8   22.80    4.30
   6   6  -8    9.70    3.00
  -6  -6   8   12.10    2.70
  -6  -6   8   16.50    4.90
  -6  -6   8   17.90    3.40
  -6  -6   8    8.60    2.20
   5   6  -8    1.60    2.00
   5   6  -8    5.60    2.40
  -5  -6   8   -1.10    1.50
  -5  -6   8    1.70    1.80
  -5  -6   8    2.30    2.00
  -5  -6   8    1.80    1.60
   4   6  -8  233.58    8.70
   4   6  -8  211.98    7.20
  -4  -6   8  219.78    7.20
  -4  -6   8  208.38    7.30
  -4  -6   8  206.68    7.10
  -4  -6   8  206.08    7.30
   3   6  -8    5.60    2.20
   3   6  -8    8.80    2.10
  -3  -6   8    9.20    2.80
  -3  -6   8    5.40    2.00
  -3  -6   8    7.50    2.20
   2   6  -8   33.70    4.40
   2   6  -8   40.50    4.00
  -2  -6   8   39.00    4.20
  -2  -6   8   32.40    3.90
  -2  -6   8   38.90    3.90
  -2  -6   8   30.50    3.50
   1   6  -8   58.39    4.60
   1   6  -8   51.69    4.80
  -1  -6   8   50.29    4.20
  -1  -6   8   49.00    4.20
   0   6  -8   53.39    4.80
   0   6  -8   54.29    5.50
   0  -6   8   50.69    4.40
   0  -6   8   51.59    4.40
  -1   6  -8    0.10    2.50
  -1   6  -8    0.70    2.40
   1  -6   8   -0.60    1.90
   1  -6   8   -0.40    2.00
  -2   6  -8   18.90    6.40
  -2   6  -8   24.00    5.20
   2  -6   8   15.30    4.50
   8   5  -8    0.80    2.70
  -8  -5   8    0.20    2.50
   7   5  -8   18.30    3.80
   7   5  -8   12.40    3.90
  -7  -5   8    9.90    3.00
  -7  -5   8   10.00    2.50
   6   5  -8  143.09    5.70
   6   5  -8  168.38    6.90
  -6  -5   8  150.48    6.30
  -6  -5   8  139.99    5.40
  -6  -5   8  133.09    5.60
  -6  -5   8  137.99    5.30
   5   5  -8   45.30    3.50
  -5  -5   8   37.00    3.20
  -5  -5   8   42.20    3.80
  -5  -5   8   44.90    3.30
  -5  -5   8   39.00    3.40
   4   5  -8   55.99    4.60
   4   5  -8   45.30    3.30
  -4  -5   8   41.60    3.50
  -4  -5   8   44.00    3.30
  -4  -5   8   40.10    3.40
  -4  -5   8   44.20    3.40
   3   5  -8    1.60    1.80
   3   5  -8    0.50    1.50
  -3  -5   8    2.80    1.60
  -3  -5   8    1.40    1.30
  -3  -5   8    8.40    2.80
  -3  -5   8    1.80    1.60
  -3  -5   8    0.90    1.40
   2   5  -8   -1.70    1.40
   2   5  -8   -2.30    1.40
   2   5  -8   -0.30    1.30
  -2  -5   8   -1.50    1.40
  -2  -5   8   -2.00    1.50
  -2  -5   8    0.50    1.20
  -2  -5   8   -0.60    1.30
   1   5  -8   11.80    2.80
   1   5  -8    6.00    1.90
   1   5  -8    6.30    1.80
  -1  -5   8    3.50    1.50
  -1  -5   8    5.20    1.80
  -1  -5   8    5.20    1.70
  -1  -5   8    7.90    2.70
   0   5  -8    2.60    1.90
   0   5  -8   10.10    3.20
   0  -5   8    1.10    1.30
   0  -5   8   -0.80    1.40
   0  -5   8    1.50    1.80
  -1   5  -8    2.80    2.20
  -1   5  -8   -0.40    2.00
  -1   5  -8   -1.20    1.90
   1  -5   8   -0.90    1.30
   1  -5   8   -2.00    1.70
  -2   5  -8    0.20    2.30
  -2   5  -8    3.30    2.30
  -2   5  -8    0.70    2.10
   2  -5   8   -0.10    1.50
  -3   5  -8   29.90    5.40
   3  -5   8   19.90    4.20
   3  -5   8   13.80    3.90
   3  -5   8   19.10    3.80
  -4   5  -8    6.50    3.40
   4  -5   8   15.60    5.30
   8   4  -8    6.90    2.00
   8   4  -8    7.40    2.50
  -8  -4   8    5.00    2.60
   7   4  -8    5.90    2.10
   7   4  -8    3.80    2.00
  -7  -4   8    2.90    2.20
  -7  -4   8    4.30    2.10
   6   4  -8  235.98    7.00
   6   4  -8  267.57    8.50
   6   4  -8  231.28    6.90
  -6  -4   8  236.88    7.20
  -6  -4   8  252.67    8.00
  -6  -4   8  226.58    7.20
   5   4  -8   36.70    2.90
   5   4  -8   45.20    3.80
   5   4  -8   26.20    3.20
  -5  -4   8   37.10    3.00
  -5  -4   8   36.60    3.40
  -5  -4   8   37.10    2.80
  -5  -4   8   33.60    2.90
   4   4  -8   98.09    4.10
   4   4  -8  104.99    5.00
   4   4  -8   96.19    3.90
  -4  -4   8   97.79    4.20
  -4  -4   8  100.29    4.20
  -4  -4   8   96.39    3.70
  -4  -4   8   90.99    4.70
  -4  -4   8   99.89    4.50
   3   4  -8   68.49    3.60
   3   4  -8   66.29    3.20
   3   4  -8   70.59    4.70
  -3  -4   8   60.59    5.50
  -3  -4   8   69.79    3.60
  -3  -4   8   69.99    3.30
  -3  -4   8   68.19    3.80
  -3  -4   8   68.39    3.70
   2   4  -8  328.87    9.00
   2   4  -8  345.87    9.70
   2   4  -8  336.07    8.60
  -2  -4   8  330.87    9.20
  -2  -4   8  329.47    8.50
  -2  -4   8  336.17    9.20
  -2  -4   8  344.47    9.30
  -2  -4   8  331.57    9.40
   1   4  -8   69.59    3.60
   1   4  -8   74.69    3.60
   1   4  -8   68.99    4.10
  -1  -4   8   71.89    3.90
  -1  -4   8   73.69    4.00
  -1  -4   8   74.19    3.70
  -1  -4   8   68.69    3.60
  -1  -4   8   67.59    3.90
   0   4  -8  270.37    7.70
   0   4  -8  248.08    7.50
   0   4  -8  237.98   11.40
   0  -4   8  262.77    7.60
   0  -4   8  267.67    8.00
   0  -4   8  278.27    7.80
   0  -4   8  261.07    9.30
  -1   4  -8    6.10    1.90
  -1   4  -8    5.10    1.90
  -1   4  -8    2.40    1.20
  -1   4  -8    6.40    1.60
   1  -4   8    4.60    1.50
   1  -4   8    4.20    1.60
  -2   4  -8   64.49    4.00
  -2   4  -8   73.69    4.50
  -2   4  -8   70.19    5.20
   2  -4   8   67.19    3.90
   2  -4   8   57.49    4.10
   2  -4   8   65.29    4.20
  -3   4  -8    6.20    2.30
  -3   4  -8    3.90    1.80
   3  -4   8    4.20    1.80
   3  -4   8    1.30    1.60
   3  -4   8    2.60    1.90
  -4   4  -8   17.40    4.80
   4  -4   8    8.10    2.20
   4  -4   8   17.60    4.30
   4  -4   8   12.20    3.20
  -5   4  -8    2.00    3.30
   5  -4   8   -0.80    2.60
   9   3  -8    0.90    2.70
  -9  -3   8    0.40    2.90
   8   3  -8   36.80    3.90
   8   3  -8   43.60    3.90
  -8  -3   8   44.20    5.00
   7   3  -8   32.10    3.30
   7   3  -8   35.70    3.20
   7   3  -8   34.60    3.90
   7   3  -8   31.10    3.40
  -7  -3   8   37.60    4.00
  -7  -3   8   30.50    4.40
   6   3  -8   39.50    2.90
   6   3  -8   40.50    3.20
   6   3  -8   34.20    2.70
   6   3  -8   41.10    3.50
  -6  -3   8   39.90    3.60
  -6  -3   8   37.10    4.70
   5   3  -8   63.59    4.10
   5   3  -8   54.19    2.80
   5   3  -8   54.39    3.50
   5   3  -8   54.39    2.90
   5   3  -8   55.69    3.40
  -5  -3   8   51.89    3.90
  -5  -3   8   54.89    3.40
  -5  -3   8   60.09    3.60
   4   3  -8    3.40    1.40
   4   3  -8    3.70    1.20
   4   3  -8    3.20    1.10
  -4  -3   8    1.70    1.20
  -4  -3   8    2.40    1.00
  -4  -3   8    0.30    1.30
  -4  -3   8    2.70    1.00
   3   3  -8   37.90    3.30
   3   3  -8   34.90    2.50
   3   3  -8   33.80    2.10
  -3  -3   8   32.40    2.60
  -3  -3   8   33.50    2.60
  -3  -3   8   36.00    2.70
  -3  -3   8   34.20    2.10
  -3  -3   8   35.90    3.10
   2   3  -8  101.49    4.60
   2   3  -8   97.49    3.90
   2   3  -8  100.09    3.40
  -2  -3   8  105.99    4.20
  -2  -3   8  105.29    4.30
  -2  -3   8  105.19    4.10
  -2  -3   8   99.79    4.30
  -2  -3   8  103.09    3.50
   1   3  -8    7.80    1.70
   1   3  -8    7.00    2.20
   1   3  -8    7.10    1.70
  -1  -3   8   10.00    2.10
  -1  -3   8    8.00    1.90
  -1  -3   8    6.50    2.00
  -1  -3   8    7.60    2.00
   0   3  -8  272.67    8.30
   0   3  -8  271.87    7.50
   0   3  -8  273.77    7.40
   0  -3   8  267.77    8.20
   0  -3   8  278.67    7.40
   0  -3   8  286.57    8.20
   0  -3   8  281.37    7.60
   0  -3   8  271.67    7.90
  -1   3  -8  202.38    6.10
  -1   3  -8  209.58    7.20
  -1   3  -8  202.88    6.70
  -1   3  -8  203.48    6.40
   1  -3   8  206.48    6.20
   1  -3   8  202.98    6.70
   1  -3   8  200.38    6.20
   1  -3   8  211.28    6.90
  -2   3  -8    2.80    1.30
  -2   3  -8    2.00    1.70
  -2   3  -8    1.70    1.50
  -2   3  -8    2.80    1.30
   2  -3   8    0.90    1.40
   2  -3   8    4.20    1.50
   2  -3   8    3.20    1.60
   2  -3   8    2.60    1.30
  -3   3  -8    0.60    1.30
  -3   3  -8    1.60    1.70
   3  -3   8    0.50    1.40
  -4   3  -8   23.40    4.00
  -4   3  -8   26.50    2.80
   4  -3   8   23.40    3.60
   4  -3   8   19.20    2.90
   4  -3   8   15.20    3.30
  -5   3  -8    1.40    2.60
   5  -3   8    2.60    2.00
   5  -3   8    5.20    1.60
   5  -3   8    2.10    2.00
  -6   3  -8    3.70    3.30
   6  -3   8    1.20    2.60
   6  -3   8   -0.90    2.40
   9   2  -8   12.30    2.70
   9   2  -8   12.60    3.00
   8   2  -8  183.78    6.20
   8   2  -8  169.88    6.60
  -8  -2   8  169.88    8.00
   7   2  -8   40.80    4.40
   7   2  -8   32.90    3.40
   7   2  -8   28.20    3.30
   7   2  -8   31.20    3.50
   7   2  -8   29.80    2.90
  -7  -2   8   28.40    3.70
  -7  -2   8   30.80    4.60
   6   2  -8   93.79    4.40
   6   2  -8  100.49    4.40
   6   2  -8  117.09    5.40
   6   2  -8   92.69    4.30
   6   2  -8  102.19    3.70
  -6  -2   8  111.19    4.60
  -6  -2   8   97.99    4.80
   5   2  -8   66.09    4.20
   5   2  -8   62.49    3.40
   5   2  -8   61.39    2.70
   5   2  -8   63.19    2.80
   5   2  -8   65.99    3.40
  -5  -2   8   67.29    3.60
  -5  -2   8   63.89    3.60
  -5  -2   8   62.99    3.70
   4   2  -8  335.17    7.60
   4   2  -8  324.07    7.60
   4   2  -8  332.37    8.90
   4   2  -8  344.87    9.30
   4   2  -8  339.97    8.70
  -4  -2   8  330.87    8.80
  -4  -2   8  349.96    8.90
  -4  -2   8  327.37    9.10
   3   2  -8  134.19    4.80
   3   2  -8  128.19    3.50
   3   2  -8  131.99    4.40
   3   2  -8  133.19    4.90
  -3  -2   8  132.59    3.40
  -3  -2   8  139.09    4.70
  -3  -2   8  133.79    4.80
  -3  -2   8  127.69    4.60
   2   2  -8  964.60   21.20
   2   2  -8  982.50   20.20
   2   2  -8 1000.90   21.80
  -2  -2   8  984.50   20.10
  -2  -2   8 1014.80   21.60
  -2  -2   8  962.20   21.50
  -2  -2   8  993.60   21.30
  -2  -2   8  974.50   21.50
   1   2  -8   28.10    2.40
   1   2  -8   28.30    2.00
   1   2  -8   26.70    1.70
  -1  -2   8   28.20    2.20
  -1  -2   8   30.50    2.20
  -1  -2   8   27.40    1.80
  -1  -2   8   27.20    2.20
  -1  -2   8   28.20    2.20
   0   2  -8  123.29    3.90
   0   2  -8  123.89    4.20
   0   2  -8  126.29    4.80
   0  -2   8  127.59    4.60
   0  -2   8  126.39    4.60
   0  -2   8  130.79    4.80
   0  -2   8  129.89    4.30
   0  -2   8  123.69    3.90
  -1   2  -8   10.90    1.80
  -1   2  -8   10.40    1.80
  -1   2  -8   13.70    2.40
   1  -2   8   11.00    2.20
   1  -2   8   10.20    1.90
   1  -2   8   11.10    2.10
   1  -2   8   11.30    2.00
   1  -2   8   11.90    1.90
  -2   2  -8   77.79    3.90
  -2   2  -8   74.69    3.70
  -2   2  -8   82.69    4.30
  -2   2  -8   79.49    3.30
   2  -2   8   81.29    4.30
   2  -2   8   83.19    4.00
   2  -2   8   78.09    3.40
   2  -2   8   78.79    3.70
  -3   2  -8    8.70    2.40
  -3   2  -8    7.80    1.90
  -3   2  -8    9.20    2.40
   3  -2   8    8.80    2.60
   3  -2   8    9.70    2.90
   3  -2   8    9.10    2.20
   3  -2   8   12.70    2.60
  -4   2  -8    7.10    2.00
  -4   2  -8    9.50    2.20
   4  -2   8    8.10    2.60
   4  -2   8    6.70    1.50
   4  -2   8    7.90    2.60
  -5   2  -8    1.90    1.90
   5  -2   8   -0.30    1.30
   5  -2   8   -0.20    1.60
   5  -2   8   -0.80    1.70
   5  -2   8   -0.70    1.30
  -6   2  -8    1.40    2.50
   6  -2   8    3.10    2.40
   6  -2   8    1.70    1.80
   8   1  -8   27.40    4.30
   8   1  -8   26.20    5.20
   8   1  -8   27.20    3.60
   8   1  -8   35.40    5.00
  -8  -1   8   28.70    4.20
   7   1  -8   35.50    3.40
   7   1  -8   36.10    4.50
   7   1  -8   38.00    3.00
   7   1  -8   42.30    4.40
   7   1  -8   29.40    3.40
  -7  -1   8   42.50    3.60
  -7  -1   8   27.20    4.80
   6   1  -8    7.30    2.50
   6   1  -8   10.70    3.40
   6   1  -8    8.70    2.30
   6   1  -8   10.40    2.00
  -6  -1   8   10.00    3.20
  -6  -1   8    4.20    1.90
  -6  -1   8   11.10    2.50
   5   1  -8   47.50    3.80
   5   1  -8   44.20    3.10
   5   1  -8   47.30    2.20
   5   1  -8   43.80    2.20
   5   1  -8   46.50    2.90
  -5  -1   8   42.80    3.30
  -5  -1   8   44.20    3.50
  -5  -1   8   49.50    3.10
   4   1  -8  590.84   13.50
   4   1  -8  599.34   14.00
   4   1  -8  581.44   12.30
   4   1  -8  598.54   14.10
   4   1  -8  580.34   12.30
  -4  -1   8  594.14   14.10
  -4  -1   8  597.74   13.60
  -4  -1   8  591.94   13.90
   3   1  -8  108.39    3.70
   3   1  -8  106.09    4.20
   3   1  -8  106.69    4.10
  -3  -1   8  106.59    4.00
  -3  -1   8  104.09    3.90
  -3  -1   8  103.69    4.10
   2   1  -8  450.35   10.90
   2   1  -8  437.76   10.40
   2   1  -8  452.15   11.00
  -2  -1   8  437.66   10.70
  -2  -1   8  452.15   10.60
  -2  -1   8  441.06   10.80
   1   1  -8   26.70    2.10
   1   1  -8   23.40    1.80
   1   1  -8   23.90    1.20
   1   1  -8   21.00    2.00
  -1  -1   8   24.60    2.00
  -1  -1   8   24.40    1.50
  -1  -1   8   21.40    1.80
  -1  -1   8   23.40    1.80
   0   1  -8   21.80    1.50
   0   1  -8   23.70    1.70
   0   1  -8   22.30    2.00
   0  -1   8   25.20    1.90
   0  -1   8   21.50    1.50
   0  -1   8   21.40    1.80
   0  -1   8   23.20    2.00
   0  -1   8   22.30    1.90
  -1   1  -8    3.50    1.10
  -1   1  -8    4.60    1.30
  -1   1  -8    3.30    0.90
   1  -1   8    5.90    1.60
   1  -1   8    4.90    1.50
   1  -1   8    5.10    1.30
   1  -1   8    4.60    1.00
   1  -1   8    3.90    1.00
  -2   1  -8  375.26   10.00
  -2   1  -8  362.46    8.80
  -2   1  -8  368.56    9.20
   2  -1   8  355.46    9.10
   2  -1   8  374.56    9.80
   2  -1   8  375.76    9.80
   2  -1   8  382.66    8.90
   2  -1   8  364.86    9.90
  -3   1  -8   16.60    2.30
  -3   1  -8   14.70    2.30
  -3   1  -8   16.80    1.90
   3  -1   8   13.20    2.50
   3  -1   8   15.50    2.40
   3  -1   8   14.90    2.20
   3  -1   8   18.20    1.90
  -4   1  -8   22.60    3.20
  -4   1  -8   17.00    2.80
   4  -1   8   17.80    2.60
   4  -1   8   18.20    2.10
   4  -1   8   21.60    2.80
   4  -1   8   18.50    3.20
  -5   1  -8    8.20    2.10
   5  -1   8    9.40    2.10
   5  -1   8    5.10    1.60
   5  -1   8   10.30    2.90
   5  -1   8    9.70    2.10
  -6   1  -8   52.39    4.90
   6  -1   8   49.60    4.90
   6  -1   8   40.70    4.00
  -7   1  -8    5.00    3.00
   7  -1   8    2.90    2.50
   8   0  -8    3.00    2.40
   8   0  -8    4.60    2.10
   8   0  -8    5.70    2.40
  -8   0   8    3.00    2.10
   7   0  -8   22.60    2.80
   7   0  -8   28.40    4.10
   7   0  -8   24.60    3.30
   7   0  -8   23.40    3.90
  -7   0   8   28.00    3.40
  -7   0   8   21.60    3.60
  -7   0   8   21.30    4.90
   6   0  -8   15.80    3.00
   6   0  -8   16.40    2.30
   6   0  -8   18.80    3.50
   6   0  -8   17.70    2.10
   6   0  -8   14.50    2.50
  -6   0   8   14.50    2.50
  -6   0   8   11.50    3.50
  -6   0   8   12.90    3.30
   5   0  -8   50.19    3.90
   5   0  -8   43.30    2.30
   5   0  -8   47.70    3.40
   5   0  -8   44.00    2.80
   5   0  -8   45.50    2.20
  -5   0   8   45.70    2.90
  -5   0   8   42.10    3.60
  -5   0   8   47.70    3.60
   4   0  -8  394.66    9.70
   4   0  -8  391.16    8.60
   4   0  -8  395.56    8.50
   4   0  -8  407.26   10.30
   4   0  -8  408.06   10.30
  -4   0   8  416.26    9.80
  -4   0   8  398.06   10.10
  -4   0   8  391.86   10.20
   3   0  -8   12.30    1.80
   3   0  -8   10.40    2.00
   3   0  -8   12.40    1.60
  -3   0   8   10.50    2.10
  -3   0   8    9.60    1.70
  -3   0   8   12.80    1.80
   2   0  -8    2.30    0.60
   2   0  -8    2.40    0.90
   2   0  -8    2.30    0.80
  -2   0   8    4.10    1.20
  -2   0   8    1.70    0.80
  -2   0   8    1.90    0.90
   1   0  -8   16.20    1.50
   1   0  -8   15.00    1.80
   1   0  -8   17.10    1.80
  -1   0   8   14.70    1.50
  -1   0   8   15.80    1.60
  -1   0   8   17.60    1.60
   0   0  -8  189.78    4.50
   0   0  -8  189.38    5.20
   0   0  -8  190.58    5.50
   0   0  -8  188.98    5.80
   0   0   8  194.08    5.30
   0   0   8  186.68    4.40
   0   0   8  187.58    5.30
   0   0   8  191.08    5.70
  -1   0  -8   10.00    1.20
  -1   0  -8   10.30    1.80
  -1   0  -8    9.30    1.40
   1   0   8   12.20    1.50
   1   0   8   11.70    1.50
   1   0   8   10.60    1.30
   1   0   8    8.30    1.40
   1   0   8    9.40    1.60
  -2   0  -8  565.64   12.70
  -2   0  -8  569.14   12.90
  -2   0  -8  569.14   13.60
   2   0   8  572.04   13.50
   2   0   8  596.74   13.60
   2   0   8  587.84   12.80
   2   0   8  556.44   13.10
   2   0   8  577.04   13.70
  -3   0  -8  229.28    6.60
   3   0   8  223.28    6.90
   3   0   8  231.48    6.00
   3   0   8  226.68    7.00
   3   0   8  218.68    6.50
   3   0   8  226.48    6.90
   3   0   8  220.68    6.10
   3   0   8  231.78    6.80
  -4   0  -8   61.69    3.50
   4   0   8   54.59    3.70
   4   0   8   54.59    3.50
   4   0   8   59.29    2.70
   4   0   8   62.49    3.50
   4   0   8   59.79    3.60
   4   0   8   55.09    2.80
  -5   0  -8   43.40    3.90
  -5   0  -8   51.99    3.70
   5   0   8   49.10    6.50
   5   0   8   49.10    3.90
   5   0   8   45.10    3.60
   5   0   8   47.00    3.60
   5   0   8   47.20    2.40
   5   0   8   44.10    2.40
  -6   0  -8   25.20    4.00
   6   0   8   22.60    3.70
   6   0   8   14.30    1.80
   6   0   8   19.30    3.30
  -7   0  -8    2.30    2.50
   7   0   8    3.00    2.00
   7   0   8    5.20    2.40
   8  -1  -8    2.90    2.60
   8  -1  -8    3.20    2.50
   7  -1  -8   -1.30    2.10
   7  -1  -8   -1.70    1.90
   7  -1  -8    1.90    2.00
  -7   1   8    2.50    1.90
  -7   1   8    1.40    1.60
   6  -1  -8  171.98    6.50
   6  -1  -8  164.48    6.30
   6  -1  -8  153.28    5.30
  -6   1   8  149.88    6.40
  -6   1   8  161.98    5.20
  -6   1   8  147.89    6.70
  -6   1   8  159.58    5.30
  -6   1   8  157.78    5.50
   5  -1  -8   37.80    2.40
   5  -1  -8   40.10    3.50
   5  -1  -8   36.20    3.60
  -5   1   8   35.90    2.80
  -5   1   8   36.60    2.70
  -5   1   8   40.00    2.40
  -5   1   8   37.10    3.40
  -5   1   8   34.40    3.60
   4  -1  -8  224.38    5.60
   4  -1  -8  236.48    7.10
   4  -1  -8  234.98    7.00
  -4   1   8  239.48    5.70
  -4   1   8  234.68    7.20
  -4   1   8  236.08    6.80
  -4   1   8  232.18    6.60
  -4   1   8  236.98    6.50
   3  -1  -8  165.28    5.40
   3  -1  -8  158.48    5.00
  -3   1   8  158.08    5.00
  -3   1   8  163.08    4.90
  -3   1   8  145.69    4.40
  -3   1   8  163.78    5.20
   2  -1  -8   45.20    2.30
   2  -1  -8   46.20    2.60
  -2   1   8   48.40    2.50
  -2   1   8   46.80    2.60
  -2   1   8   49.00    2.40
   1  -1  -8  115.19    4.10
   1  -1  -8  116.19    3.70
  -1   1   8  117.29    3.70
  -1   1   8  119.29    3.80
  -1   1   8  117.79    4.00
   0  -1  -8  857.51   19.10
   0  -1  -8  873.11   18.60
   0   1   8  886.01   17.60
   0   1   8  858.51   18.40
   0   1   8  869.11   18.60
   0   1   8  868.31   19.00
  -1  -1  -8  279.37    7.60
  -1  -1  -8  288.27    7.30
   1   1   8  275.47    6.60
   1   1   8  284.97    7.40
   1   1   8  282.97    7.10
   1   1   8  279.47    7.10
   1   1   8  283.97    7.00
   1   1   8  284.87    6.50
  -2  -1  -8  476.35   11.50
  -2  -1  -8  474.05   10.90
   2   1   8  470.85   10.90
   2   1   8  478.85   10.90
   2   1   8  479.85   11.00
   2   1   8  484.85   11.40
   2   1   8  494.45   11.60
   2   1   8  490.85   11.50
  -3  -1  -8    9.00    1.70
   3   1   8   11.10    1.60
   3   1   8   10.70    1.80
   3   1   8   11.80    1.80
   3   1   8    9.00    1.80
   3   1   8   11.60    2.10
   3   1   8   10.20    1.80
   3   1   8    9.30    1.60
  -4  -1  -8  150.98    5.40
   4   1   8  154.68    4.50
   4   1   8  157.58    5.50
   4   1   8  159.58    5.40
   4   1   8  153.18    5.30
   4   1   8  153.28    5.50
   4   1   8  155.18    5.70
  -5  -1  -8    7.60    2.50
   5   1   8    4.90    1.90
   5   1   8    7.10    2.50
   5   1   8    5.00    1.50
   5   1   8    4.70    2.60
   5   1   8    7.50    1.70
   5   1   8    4.40    1.60
   5   1   8    7.60    1.70
  -6  -1  -8   68.49    4.40
   6   1   8   60.19    2.70
   6   1   8   63.29    2.80
   6   1   8   62.09    4.20
   6   1   8   61.89    4.00
  -7  -1  -8    0.10    2.00
   7   1   8    0.00    2.00
   7   1   8   -2.00    1.70
   8   1   8    8.70    3.00
   8   1   8    5.10    2.40
   8  -2  -8    3.80    3.20
   8  -2  -8   19.50    6.40
   7  -2  -8   19.40    4.60
   7  -2  -8   13.60    4.40
   7  -2  -8   10.50    2.70
  -7   2   8    7.70    1.90
  -7   2   8   11.90    3.00
   6  -2  -8   95.39    4.70
   6  -2  -8  100.59    5.30
   6  -2  -8  120.89    5.80
  -6   2   8   89.19    5.40
  -6   2   8  104.49    4.20
  -6   2   8   98.59    4.30
  -6   2   8  100.59    4.60
   5  -2  -8    0.70    1.40
   5  -2  -8    0.10    1.50
   5  -2  -8   -0.30    1.30
  -5   2   8    0.90    1.40
  -5   2   8    0.40    1.10
  -5   2   8   -1.10    1.20
  -5   2   8    0.20    1.60
  -5   2   8   -2.00    1.50
   4  -2  -8    0.50    1.10
   4  -2  -8   -0.30    1.30
   4  -2  -8    0.80    1.10
  -4   2   8   -0.10    1.00
  -4   2   8    0.80    0.90
  -4   2   8    1.30    1.10
  -4   2   8    0.70    1.30
  -4   2   8    1.40    1.00
   3  -2  -8  612.04   13.90
   3  -2  -8  620.54   13.10
   3  -2  -8  628.34   14.70
  -3   2   8  602.74   14.50
  -3   2   8  618.84   13.90
  -3   2   8  616.14   13.10
  -3   2   8  615.64   13.90
  -3   2   8  613.34   13.70
   2  -2  -8  162.08    5.30
   2  -2  -8  165.48    4.00
   2  -2  -8  156.18    4.60
  -2   2   8  161.18    5.20
  -2   2   8  163.58    4.90
  -2   2   8  166.08    4.00
  -2   2   8  168.88    4.90
  -2   2   8  166.78    4.70
   1  -2  -8  133.19    4.50
   1  -2  -8  130.49    3.20
   1  -2  -8  129.29    3.80
  -1   2   8  133.59    4.20
  -1   2   8  127.79    4.30
  -1   2   8  135.69    4.20
  -1   2   8  127.79    3.80
   0  -2  -8  608.54   13.90
   0  -2  -8  610.34   13.10
   0   2   8  615.74   12.60
   0   2   8  600.64   13.00
   0   2   8  610.34   13.50
   0   2   8  582.54   13.60
   0   2   8  610.74   13.50
  -1  -2  -8  174.38    4.80
  -1  -2  -8  172.28    5.30
   1   2   8  171.78    4.90
   1   2   8  179.38    5.00
   1   2   8  174.48    4.40
   1   2   8  173.58    4.70
   1   2   8  172.28    4.50
   1   2   8  174.78    5.10
  -2  -2  -8    5.40    1.50
   2   2   8    5.20    1.20
   2   2   8    4.60    1.50
   2   2   8    5.20    1.40
   2   2   8    5.10    1.40
   2   2   8    4.40    1.00
   2   2   8    6.60    1.40
   3   2   8   59.39    2.90
   3   2   8   63.69    2.80
   3   2   8   64.09    3.00
   3   2   8   59.19    2.90
   3   2   8   62.29    3.10
   3   2   8   59.89    2.70
   3   2   8   63.29    2.90
   3   2   8   59.69    2.80
   4   2   8  350.06    8.50
   4   2   8  357.06    9.10
   4   2   8  357.26    9.10
   4   2   8  354.06    9.60
   4   2   8  355.76    9.20
   4   2   8  357.26    9.30
   4   2   8  363.86    8.60
   4   2   8  347.87    9.20
   5   2   8    5.60    1.80
   5   2   8    2.30    1.10
   5   2   8    1.50    1.20
   5   2   8    3.50    1.10
   5   2   8    1.80    1.60
   5   2   8    7.60    2.40
   5   2   8    2.20    1.20
   5   2   8    2.10    1.30
   6   2   8   45.40    3.60
   6   2   8   52.99    5.60
   6   2   8   49.80    3.40
   6   2   8   47.80    3.40
   6   2   8   50.49    2.70
   6   2   8   48.90    3.80
   7   2   8    2.00    1.60
   7   2   8    2.30    1.90
   7   2   8    0.50    1.20
   7   2   8    1.70    1.80
   7   2   8    1.50    1.10
   7   2   8    0.10    1.70
   8   2   8   25.30    4.80
   8   2   8   42.90    5.40
   8   2   8   32.20    5.30
   8   2   8   29.10    4.00
   7  -3  -8   24.90    5.70
  -7   3   8   32.50    4.80
   6  -3  -8   39.90    4.50
   6  -3  -8   38.50    4.70
  -6   3   8   41.60    3.30
  -6   3   8   43.20    4.90
  -6   3   8   40.10    3.60
  -6   3   8   42.10    4.00
   5  -3  -8    6.60    2.10
   5  -3  -8    7.60    2.00
  -5   3   8    8.50    1.90
  -5   3   8    7.50    1.70
  -5   3   8    7.60    1.50
  -5   3   8    6.60    2.00
   4  -3  -8   64.99    3.40
   4  -3  -8   75.49    4.40
   4  -3  -8   67.19    3.70
  -4   3   8   70.19    3.40
  -4   3   8   66.19    3.40
  -4   3   8   61.99    3.80
  -4   3   8   67.19    3.40
  -4   3   8   66.39    3.50
   3  -3  -8    0.60    1.00
   3  -3  -8    0.20    1.20
   3  -3  -8    0.10    1.10
  -3   3   8    0.40    1.00
  -3   3   8   -1.10    0.90
  -3   3   8   -0.10    1.20
  -3   3   8   -0.60    1.00
  -3   3   8   -0.60    1.00
   2  -3  -8  457.45   10.40
   2  -3  -8  467.95   10.40
   2  -3  -8  478.45   11.80
  -2   3   8  487.45   11.10
  -2   3   8  465.85   11.00
  -2   3   8  474.35   10.40
  -2   3   8  465.65   10.40
  -2   3   8  448.86   11.60
   1  -3  -8  102.89    4.00
   1  -3  -8  102.49    3.10
   1  -3  -8  100.09    3.00
  -1   3   8  102.49    3.10
  -1   3   8  102.89    3.70
  -1   3   8  106.69    3.10
  -1   3   8  101.09    3.80
  -1   3   8  101.79    3.60
   0  -3  -8    0.50    0.70
   0  -3  -8    0.50    0.70
   0  -3  -8   -0.20    0.50
   0   3   8    0.80    0.70
   0   3   8    1.10    0.60
   0   3   8    1.50    0.80
   0   3   8    0.50    0.60
  -1  -3  -8   24.50    1.90
  -1  -3  -8   25.00    1.60
  -1  -3  -8   26.60    1.60
  -1  -3  -8   26.30    2.00
   1   3   8   25.30    1.90
   1   3   8   25.20    1.80
   1   3   8   25.70    1.80
   1   3   8   25.40    1.50
  -2  -3  -8   41.70    2.40
  -2  -3  -8   41.80    2.40
   2   3   8   42.10    2.20
   2   3   8   43.10    2.00
   2   3   8   42.00    2.20
   2   3   8   43.90    2.20
   2   3   8   43.10    2.30
   2   3   8   41.10    2.10
  -3  -3  -8    5.50    1.10
   3   3   8    6.50    1.60
   3   3   8    4.60    1.50
   3   3   8    6.10    1.50
   3   3   8    5.80    1.50
   3   3   8    4.40    1.00
   4   3   8  172.88    5.70
   4   3   8  170.88    5.20
   4   3   8  163.18    5.00
   4   3   8  165.58    5.30
   4   3   8  161.08    5.40
   4   3   8  172.68    5.30
   4   3   8  167.38    5.10
   5   3   8   13.10    3.00
   5   3   8   16.00    2.40
   5   3   8   14.80    2.10
   5   3   8   16.80    2.70
   5   3   8   12.50    2.00
   5   3   8   15.20    2.20
   5   3   8   12.90    2.70
   5   3   8   14.80    2.10
   6   3   8   34.70    3.00
   6   3   8   44.60    4.50
   6   3   8   42.90    3.10
   6   3   8   40.50    3.80
   6   3   8   40.00    2.80
   6   3   8   40.00    2.70
   6   3   8   41.70    4.50
   6   3   8   44.90    3.30
   7   3   8   12.70    3.20
   7   3   8    7.90    2.20
   7   3   8   13.20    2.90
   7   3   8    5.50    1.60
   7   3   8   11.90    3.00
   7   3   8    7.20    2.30
   8   3   8   39.00    4.00
   8   3   8   32.20    6.00
   8   3   8   29.80    4.80
   8   3   8   41.30    4.60
   8   3   8   36.70    4.20
   6  -4  -8    0.00    2.60
  -6   4   8   -0.60    2.70
  -6   4   8    1.50    1.80
  -6   4   8    0.40    2.30
   5  -4  -8   68.59    4.70
   5  -4  -8   67.99    4.70
  -5   4   8   74.99    3.90
  -5   4   8   80.49    4.70
  -5   4   8   69.79    4.50
  -5   4   8   66.29    4.00
   4  -4  -8   38.60    3.70
   4  -4  -8   29.30    3.20
   4  -4  -8   28.80    3.30
  -4   4   8   26.10    3.00
  -4   4   8   28.30    3.00
  -4   4   8   30.50    2.80
  -4   4   8   30.10    3.00
   3  -4  -8   29.50    3.50
   3  -4  -8   25.20    2.70
   3  -4  -8   22.40    2.60
  -3   4   8   23.10    3.20
  -3   4   8   26.20    2.30
  -3   4   8   27.30    2.70
  -3   4   8   28.90    2.70
  -3   4   8   23.30    2.50
   2  -4  -8  321.97    7.60
   2  -4  -8  331.27    8.30
   2  -4  -8  349.47    9.40
  -2   4   8  347.77    8.70
  -2   4   8  332.37    8.30
  -2   4   8  329.07    8.50
  -2   4   8  331.17    7.60
  -2   4   8  318.67    9.10
   1  -4  -8   51.99    3.20
   1  -4  -8   49.20    2.80
   1  -4  -8   50.89    2.70
  -1   4   8   47.70    2.60
  -1   4   8   51.39    2.80
  -1   4   8   48.20    2.00
  -1   4   8   48.90    2.90
   0  -4  -8    0.20    0.80
   0  -4  -8    0.70    0.80
   0  -4  -8   -0.20    0.90
   0   4   8    1.10    0.80
   0   4   8    0.30    1.00
   0   4   8    0.40    0.80
  -1  -4  -8   36.40    2.20
  -1  -4  -8   36.60    2.50
  -1  -4  -8   34.70    2.30
   1   4   8   35.30    1.30
   1   4   8   37.80    2.40
   1   4   8   37.40    2.50
   1   4   8   37.60    2.40
  -2  -4  -8  144.19    4.70
  -2  -4  -8  140.19    4.40
  -2  -4  -8  141.99    4.70
   2   4   8  138.39    4.50
   2   4   8  143.69    3.90
   2   4   8  144.59    4.50
   2   4   8  143.39    3.70
   2   4   8  144.89    4.50
  -3  -4  -8   60.39    2.90
  -3  -4  -8   61.59    3.00
   3   4   8   58.59    2.50
   3   4   8   58.99    2.90
   3   4   8   59.89    3.10
   3   4   8   58.29    2.70
  -4  -4  -8  116.59    4.30
   4   4   8  115.19    4.40
   4   4   8  113.79    4.00
   4   4   8  120.79    4.10
   4   4   8  118.69    4.50
   4   4   8  108.49    4.50
   4   4   8  111.99    4.10
   4   4   8  124.69    4.50
  -5  -4  -8   -0.60    1.10
   5   4   8    0.80    1.50
   5   4   8   -0.30    0.90
   5   4   8    0.20    1.20
   5   4   8   -0.70    1.10
   5   4   8   -0.30    1.50
   5   4   8    1.60    1.30
  -6  -4  -8  176.48    5.60
   6   4   8  175.38    5.40
   6   4   8  179.78    6.30
   6   4   8  168.98    5.50
   6   4   8  164.68    6.70
   6   4   8  180.88    6.20
   6   4   8  168.08    5.30
   7   4   8   -0.60    1.50
   7   4   8   -0.70    1.60
   7   4   8   -0.80    1.30
   7   4   8   -2.10    1.60
   7   4   8    0.50    1.30
   8   4   8   49.20    4.30
   8   4   8   33.20    4.60
   8   4   8   37.70    3.50
   8   4   8   45.40    4.20
   9   4   8   -4.20    2.60
   9   4   8    0.60    3.40
   6  -5  -8   -0.80    3.10
  -6   5   8    0.10    2.90
   5  -5  -8    0.80    2.30
  -5   5   8    3.50    1.90
  -5   5   8    1.80    2.60
   4  -5  -8   25.20    3.50
   4  -5  -8   27.40    4.30
  -4   5   8   29.60    3.80
  -4   5   8   30.10    3.40
  -4   5   8   32.70    3.70
   3  -5  -8   13.80    3.20
   3  -5  -8    5.60    2.00
   3  -5  -8    5.10    1.40
  -3   5   8    5.30    1.60
  -3   5   8    7.90    1.80
  -3   5   8   10.60    2.80
   2  -5  -8   26.40    3.50
   2  -5  -8   18.50    1.80
   2  -5  -8   21.80    2.80
   2  -5  -8   24.30    2.70
  -2   5   8   18.80    2.60
  -2   5   8   19.80    2.60
   1  -5  -8  147.29    5.80
   1  -5  -8  147.09    5.00
   1  -5  -8  145.59    5.00
  -1   5   8  146.99    5.00
  -1   5   8  136.59    5.20
  -1   5   8  137.39    5.00
   0  -5  -8    1.40    1.20
   0  -5  -8   -0.40    1.10
   0  -5  -8    1.00    1.00
   0   5   8    1.40    1.20
   0   5   8    1.50    1.00
   0   5   8    2.10    1.40
  -1  -5  -8   56.59    3.00
  -1  -5  -8   57.39    3.20
  -1  -5  -8   60.19    3.10
   1   5   8   58.49    3.30
   1   5   8   55.59    3.20
   1   5   8   55.99    2.90
  -2  -5  -8  144.39    4.80
  -2  -5  -8  147.89    5.00
  -2  -5  -8  147.79    4.80
   2   5   8  145.09    4.90
   2   5   8  151.18    5.10
   2   5   8  143.19    4.80
  -3  -5  -8    4.50    1.30
  -3  -5  -8    1.80    0.90
  -3  -5  -8    2.80    1.10
   3   5   8    3.50    1.10
   3   5   8    6.00    1.60
   3   5   8    2.90    0.90
   3   5   8    4.40    1.40
   3   5   8    6.80    1.60
  -4  -5  -8    4.60    1.10
  -4  -5  -8    7.70    2.10
  -4  -5  -8    5.80    1.30
   4   5   8    6.10    1.60
   4   5   8    8.00    2.00
   4   5   8    6.30    1.70
   4   5   8    7.70    2.00
   4   5   8    6.10    1.90
  -5  -5  -8   35.10    2.80
   5   5   8   37.30    3.00
   5   5   8   36.00    2.40
   5   5   8   39.10    3.30
   5   5   8   35.20    3.80
   5   5   8   40.30    3.00
   5   5   8   38.60    2.30
   5   5   8   39.00    3.50
  -6  -5  -8   16.20    2.70
   6   5   8   16.80    2.10
   6   5   8   21.90    2.20
   6   5   8   16.10    2.70
   6   5   8   15.40    3.00
   6   5   8   16.40    3.00
  -7  -5  -8    1.60    1.60
   7   5   8    0.60    1.80
   7   5   8    0.90    1.10
   7   5   8    0.10    1.90
   7   5   8    0.30    1.70
   7   5   8    2.90    1.20
  -8  -5  -8   18.30    3.60
   8   5   8   14.90    4.40
   8   5   8   12.40    3.60
   8   5   8    9.30    2.60
   8   5   8   13.30    2.90
   9   5   8    2.30    3.40
   9   5   8   -0.80    2.80
  -5   6   8   17.90    5.90
   4  -6  -8   64.29    4.50
  -4   6   8   69.89    5.40
  -4   6   8   64.29    5.00
   3  -6  -8    1.80    1.50
   3  -6  -8    0.90    2.50
   3  -6  -8    0.90    1.50
  -3   6   8    1.10    2.00
  -3   6   8    3.10    2.00
   2  -6  -8   -0.30    2.00
   2  -6  -8    1.30    1.40
  -2   6   8    4.30    1.70
  -2   6   8    2.30    1.70
   1  -6  -8   77.29    4.70
   1  -6  -8   70.29    4.10
   1  -6  -8   72.29    3.80
  -1   6   8   69.59    3.80
  -1   6   8   73.39    4.00
  -1   6   8   57.69    4.00
   0  -6  -8  136.49    5.60
   0  -6  -8  132.59    5.20
   0  -6  -8  137.59    5.10
   0   6   8  132.49    5.50
   0   6   8  138.59    5.40
   0   6   8  136.49    5.00
  -1  -6  -8    6.70    1.70
  -1  -6  -8    4.20    1.40
  -1  -6  -8    3.60    1.20
   1   6   8    5.40    1.80
   1   6   8    3.10    1.50
  -2  -6  -8   86.39    3.90
  -2  -6  -8   87.19    3.90
  -2  -6  -8   81.79    3.90
   2   6   8   77.19    3.70
   2   6   8   86.59    4.00
   2   6   8   84.89    4.30
  -3  -6  -8    0.10    1.30
  -3  -6  -8   -0.70    0.80
  -3  -6  -8   -0.60    1.00
   3   6   8   -0.20    0.80
   3   6   8   -0.40    0.90
   3   6   8    0.50    1.20
   3   6   8    0.50    1.50
   3   6   8    0.40    1.00
  -4  -6  -8   16.30    2.60
  -4  -6  -8   17.20    2.10
  -4  -6  -8   19.10    2.60
   4   6   8   15.50    2.90
   4   6   8   24.50    2.60
   4   6   8   20.00    2.40
   4   6   8   16.60    2.50
   4   6   8   16.30    2.30
   5   6   8   -0.20    1.10
   5   6   8    0.10    1.30
   5   6   8   -0.60    0.80
   5   6   8   -0.10    1.40
   5   6   8    1.20    1.40
  -6  -6  -8   44.30    3.50
   6   6   8   47.70    2.70
   6   6   8   37.50    3.60
   6   6   8   49.30    3.80
   6   6   8   48.10    2.40
   6   6   8   43.70    3.80
  -7  -6  -8    3.30    1.80
   7   6   8    3.10    1.90
   7   6   8    4.30    2.20
   7   6   8    3.50    2.00
  -8  -6  -8   42.00    4.40
   8   6   8   41.10    4.30
   8   6   8   46.00    5.30
   8   6   8   40.90    5.20
   3  -7  -8   39.80    4.40
  -3   7   8   45.80    5.30
  -2   7   8   12.30    3.90
   1  -7  -8   15.80    3.80
   1  -7  -8   26.10    4.10
   1  -7  -8   18.60    3.20
  -1   7   8   23.50    3.50
   0  -7  -8   54.89    3.70
   0  -7  -8   63.99    4.70
   0  -7  -8   49.10    4.20
   0   7   8   43.90    4.20
  -1  -7  -8    3.30    1.80
  -1  -7  -8    1.30    1.40
  -1  -7  -8    1.90    1.40
   1   7   8    2.90    1.80
   1   7   8   -1.10    1.50
  -2  -7  -8    1.90    1.30
  -2  -7  -8    0.30    1.60
  -2  -7  -8    2.20    1.30
   2   7   8   10.10    3.30
   2   7   8    5.40    2.30
   2   7   8    1.10    1.60
  -3  -7  -8   58.69    3.40
  -3  -7  -8   61.99    3.70
  -3  -7  -8   54.59    3.80
   3   7   8   58.09    3.70
   3   7   8   60.79    4.20
  -4  -7  -8    2.50    1.00
  -4  -7  -8    4.30    1.50
  -4  -7  -8    2.00    1.70
   4   7   8    3.30    1.80
   4   7   8    2.70    1.50
   4   7   8    2.90    1.20
   4   7   8    3.50    1.10
  -5  -7  -8   10.60    3.10
   5   7   8    8.90    2.70
   5   7   8    8.90    2.90
   5   7   8    6.00    2.00
  -6  -7  -8    3.80    1.80
  -6  -7  -8   10.50    3.30
   6   7   8    4.60    2.00
   6   7   8    6.60    2.10
  -7  -7  -8    3.70    2.00
  -7  -7  -8    3.80    2.40
   7   7   8   -1.00    2.00
  -8  -7  -8    9.00    2.50
   8   7   8    4.40    2.40
   8   7   8    7.30    3.10
   2  -8  -8   14.60    4.40
  -2   8   8   25.20    5.40
   1  -8  -8   37.60    4.10
  -1   8   8   55.59    5.30
   0  -8  -8   38.50    4.10
   0  -8  -8   63.89    5.60
   0   8   8   54.29    4.90
  -1  -8  -8    4.10    1.90
  -1  -8  -8    5.80    1.80
   1   8   8    0.30    2.10
  -2  -8  -8    1.20    1.60
  -2  -8  -8    2.40    1.70
   2   8   8    1.60    1.90
   2   8   8   -0.50    1.90
  -3  -8  -8   24.10    3.20
  -3  -8  -8   29.10    3.30
   3   8   8   25.10    3.90
   3   8   8   19.30    3.80
  -4  -8  -8   20.80    2.70
  -4  -8  -8   24.00    3.30
   4   8   8   16.50    3.40
   4   8   8   17.80    3.70
  -5  -8  -8    0.00    1.10
  -5  -8  -8    0.90    1.80
   5   8   8   -1.30    1.50
   5   8   8    0.10    1.40
   5   8   8   -1.40    1.90
  -6  -8  -8   39.20    4.40
   6   8   8   29.90    4.10
   6   8   8   27.80    3.90
  -7  -8  -8    3.50    2.50
   7   8   8    5.70    2.70
  -8  -8  -8    7.40    3.00
   8   8   8    3.90    3.40
   8   8   8    1.90    2.80
   1  -9  -8   -0.60    2.30
  -1   9   8    7.60    3.50
   0  -9  -8    1.00    2.20
   0   9   8    6.10    2.80
  -1  -9  -8    8.00    2.40
  -1  -9  -8   14.70    5.20
   1   9   8    7.80    2.70
  -2  -9  -8    4.00    2.10
  -2  -9  -8    0.50    2.10
   2   9   8    0.60    2.50
   2   9   8    2.80    2.40
  -3  -9  -8    3.70    1.80
  -3  -9  -8    2.30    1.80
   3   9   8    1.30    2.40
   3   9   8    0.60    2.30
  -4  -9  -8   27.50    3.50
  -4  -9  -8   32.00    4.40
   4   9   8   29.00    5.70
   4   9   8   27.70    4.70
  -5  -9  -8   -0.20    2.30
   5   9   8   -2.10    2.20
  -6  -9  -8   16.90    4.80
   6   9   8    3.70    2.50
  -7  -9  -8    1.70    2.60
   7   9   8   -1.20    2.40
  -2 -10  -8   36.60    6.20
  -2 -10  -8   34.00    5.60
   2  10   8   38.20    6.30
  -3 -10  -8    5.60    2.50
  -3 -10  -8    1.00    2.40
   3  10   8   -1.60    2.70
  -4 -10  -8   12.10    2.90
   4  10   8   18.10    5.50
  -5 -10  -8    7.40    3.00
   5  10   8    5.90    3.30
   6   7  -9    8.30    3.20
  -6  -7   9    4.00    2.40
   5   7  -9    3.70    3.10
   5   7  -9    5.60    2.70
  -5  -7   9   -0.10    2.10
  -5  -7   9    1.20    1.90
   4   7  -9   42.30    6.20
   4   7  -9   33.60    4.90
  -4  -7   9   37.50    3.90
  -4  -7   9   42.20    4.80
   3   7  -9    6.00    2.70
   3   7  -9    7.50    2.90
  -3  -7   9    3.40    2.20
  -3  -7   9    5.60    2.20
   2   7  -9    2.40    2.60
   2   7  -9    1.30    2.80
  -2  -7   9    0.20    2.10
  -2  -7   9    1.30    2.00
   1   7  -9   16.40    5.50
   1   7  -9   21.00    6.30
  -1  -7   9   11.80    2.80
  -1  -7   9   15.20    4.80
   0   7  -9    1.70    3.40
   0   7  -9   20.60    6.00
   0  -7   9    6.70    2.80
   0  -7   9    6.60    2.80
   7   6  -9   27.80    4.90
  -7  -6   9   29.90    4.80
   6   6  -9    5.70    2.40
  -6  -6   9    2.00    2.60
  -6  -6   9    4.00    1.90
  -6  -6   9    2.00    2.10
   5   6  -9   47.50    4.20
  -5  -6   9   51.29    4.30
  -5  -6   9   48.00    4.50
  -5  -6   9   45.30    4.30
  -5  -6   9   45.10    4.20
   4   6  -9    0.00    2.10
   4   6  -9   15.30    5.10
  -4  -6   9   -1.50    2.30
  -4  -6   9    1.50    2.00
  -4  -6   9   -1.50    1.60
  -4  -6   9   -0.30    1.60
   3   6  -9  263.37    9.50
   3   6  -9  225.58    9.00
  -3  -6   9  260.67   10.50
  -3  -6   9  250.67    8.30
  -3  -6   9  222.08    7.90
  -3  -6   9  247.58    8.40
   2   6  -9   15.80    4.30
   2   6  -9   21.60    3.60
  -2  -6   9   16.10    4.20
  -2  -6   9   19.60    3.70
  -2  -6   9   14.00    3.40
   1   6  -9   86.59    5.40
   1   6  -9   84.89    6.10
  -1  -6   9   78.19    5.00
  -1  -6   9   79.79    5.40
   0   6  -9    7.10    2.80
   0   6  -9   10.40    2.70
   0  -6   9   11.00    2.50
   0  -6   9   12.10    3.70
  -1   6  -9    4.00    3.00
  -1   6  -9    1.00    2.80
   1  -6   9    0.80    2.30
   1  -6   9    0.50    2.10
  -2   6  -9    0.60    3.40
  -2   6  -9    5.80    3.10
   2  -6   9   -0.80    2.50
   2  -6   9   -3.60    2.10
   7   5  -9    5.40    2.50
  -7  -5   9    5.50    2.50
  -7  -5   9    5.80    1.90
   6   5  -9   19.50    3.50
  -6  -5   9   23.20    4.10
  -6  -5   9   23.30    3.90
  -6  -5   9   25.40    3.30
   5   5  -9   -1.20    1.70
  -5  -5   9   -1.20    1.50
  -5  -5   9    0.60    1.30
  -5  -5   9   -0.50    1.70
  -5  -5   9    0.20    1.60
   4   5  -9   24.40    3.10
  -4  -5   9   21.20    3.10
  -4  -5   9   20.70    2.90
  -4  -5   9   25.00    3.10
  -4  -5   9   24.50    3.40
   3   5  -9   89.59    4.20
   3   5  -9   95.99    5.40
  -3  -5   9   84.49    4.70
  -3  -5   9   89.09    4.50
  -3  -5   9   94.39    4.60
  -3  -5   9   91.89    4.80
   2   5  -9    0.30    1.70
   2   5  -9    1.80    1.60
  -2  -5   9    2.50    1.70
  -2  -5   9    0.80    1.40
  -2  -5   9    1.40    1.80
  -2  -5   9    0.90    1.50
   1   5  -9    1.70    1.80
   1   5  -9    4.90    1.90
  -1  -5   9    1.60    1.90
  -1  -5   9    1.50    1.60
  -1  -5   9    1.30    1.60
   0   5  -9   31.70    3.80
   0   5  -9   31.00    4.70
   0  -5   9   30.00    3.70
   0  -5   9   25.60    3.70
   0  -5   9   27.20    3.70
  -1   5  -9   48.70    5.30
  -1   5  -9   42.40    4.40
   1  -5   9   47.00    4.30
   1  -5   9   34.30    4.00
  -2   5  -9   26.90    5.70
  -2   5  -9   26.20    4.70
  -2   5  -9   28.00    4.60
   2  -5   9   26.20    4.20
  -3   5  -9   29.90    5.60
   3  -5   9   25.90    4.50
   3  -5   9   25.10    4.80
   3  -5   9   16.60    4.30
   8   4  -9    1.20    2.50
   8   4  -9    1.80    2.00
  -8  -4   9    1.10    2.70
   7   4  -9   26.40    3.80
  -7  -4   9   28.60    4.80
  -7  -4   9   27.60    4.60
   6   4  -9    9.70    2.70
   6   4  -9    8.60    2.00
  -6  -4   9    9.90    2.30
  -6  -4   9   10.40    2.80
  -6  -4   9    7.30    2.00
   5   4  -9  137.59    6.10
   5   4  -9  118.19    4.40
  -5  -4   9  125.79    4.50
  -5  -4   9  117.09    5.10
  -5  -4   9  127.29    5.50
  -5  -4   9  127.99    5.10
   4   4  -9    3.10    1.70
   4   4  -9    1.80    1.30
  -4  -4   9    2.40    1.30
  -4  -4   9    1.90    1.30
  -4  -4   9    2.40    1.40
  -4  -4   9    2.50    1.40
   3   4  -9  107.89    4.10
   3   4  -9   96.69    4.60
   3   4  -9  119.79    5.50
  -3  -4   9  105.19    4.80
  -3  -4   9  112.29    4.80
  -3  -4   9  105.99    4.90
  -3  -4   9  115.09    4.80
  -3  -4   9  108.39    4.10
   2   4  -9   32.50    3.50
   2   4  -9   38.10    2.70
   2   4  -9   29.10    2.70
  -2  -4   9   35.60    2.90
  -2  -4   9   33.00    3.20
  -2  -4   9   33.00    3.30
  -2  -4   9   36.90    3.10
  -2  -4   9   36.50    2.90
   1   4  -9   23.10    2.70
   1   4  -9   24.70    3.10
   1   4  -9   18.70    2.80
  -1  -4   9   21.90    2.80
  -1  -4   9   22.70    3.40
  -1  -4   9   25.30    4.80
  -1  -4   9   23.90    3.20
   0   4  -9   -0.50    1.40
   0   4  -9   -0.80    1.40
   0   4  -9    1.30    1.50
   0  -4   9    2.00    1.60
   0  -4   9   -0.10    1.20
   0  -4   9   12.30    4.20
   0  -4   9    1.80    1.50
  -1   4  -9  132.49    5.70
  -1   4  -9  139.59    6.50
  -1   4  -9  128.29    5.40
   1  -4   9  131.09    5.50
   1  -4   9  138.79    5.40
   1  -4   9  134.19    5.80
  -2   4  -9   17.00    3.40
  -2   4  -9   15.70    4.60
  -2   4  -9   10.90    2.50
   2  -4   9    8.60    2.80
   2  -4   9   13.30    3.30
  -3   4  -9    0.00    2.30
  -3   4  -9    5.40    2.10
   3  -4   9    2.10    1.60
   3  -4   9    0.60    1.90
  -4   4  -9   41.30    5.60
   4  -4   9   43.50    5.10
   4  -4   9   44.60    4.20
   4  -4   9   31.40    4.30
   8   3  -9    1.00    2.20
   8   3  -9    4.50    3.20
  -8  -3   9   -1.60    2.70
   7   3  -9   17.20    3.10
   7   3  -9   17.80    3.30
   7   3  -9   13.00    3.30
  -7  -3   9   18.70    3.90
  -7  -3   9   23.40    4.70
   6   3  -9   11.40    3.60
   6   3  -9    7.50    2.50
   6   3  -9   10.00    2.50
   6   3  -9    9.90    2.90
  -6  -3   9    7.20    2.00
  -6  -3   9   11.40    3.20
   5   3  -9  174.08    5.00
   5   3  -9  179.18    6.20
   5   3  -9  165.68    6.00
   5   3  -9  168.38    4.90
   5   3  -9  198.28    6.90
  -5  -3   9  170.28    6.00
  -5  -3   9  179.48    6.20
   4   3  -9   15.60    1.90
   4   3  -9   21.50    3.20
   4   3  -9   14.70    2.10
  -4  -3   9   10.80    2.70
  -4  -3   9   16.00    1.80
  -4  -3   9   18.40    2.60
   3   3  -9   -0.50    0.90
   3   3  -9    2.70    1.40
   3   3  -9    1.10    1.10
  -3  -3   9    1.40    1.20
  -3  -3   9    0.10    1.00
  -3  -3   9    1.80    1.40
  -3  -3   9    1.60    1.00
  -3  -3   9    0.90    1.10
   2   3  -9    4.60    1.20
   2   3  -9    4.10    1.10
   2   3  -9    5.70    1.50
  -2  -3   9    6.60    1.80
  -2  -3   9    4.10    1.30
  -2  -3   9    4.10    1.30
  -2  -3   9    4.40    1.30
  -2  -3   9    5.20    1.50
   1   3  -9  336.07    9.10
   1   3  -9  363.36   10.10
   1   3  -9  345.57    8.60
  -1  -3   9  348.77    9.60
  -1  -3   9  348.07    9.80
  -1  -3   9  357.66    9.70
  -1  -3   9  350.66    8.60
  -1  -3   9  366.36    9.40
   0   3  -9   80.59    3.90
   0   3  -9   87.09    4.50
   0   3  -9   80.99    3.70
   0  -3   9   85.89    4.00
   0  -3   9   84.19    4.20
   0  -3   9   84.09    4.20
   0  -3   9   84.69    3.80
   0  -3   9   79.89    4.20
  -1   3  -9  410.86   10.40
  -1   3  -9  426.16   11.70
  -1   3  -9  419.26   10.70
   1  -3   9  407.76   11.20
   1  -3   9  400.56   10.40
   1  -3   9  390.86   11.40
   1  -3   9  426.26   10.50
   1  -3   9  414.06   11.30
  -2   3  -9    2.90    1.50
  -2   3  -9    2.60    1.60
  -2   3  -9    5.00    1.80
   2  -3   9    3.90    1.60
   2  -3   9    3.00    1.70
   2  -3   9    2.00    1.30
  -3   3  -9   19.80    3.60
  -3   3  -9   22.60    3.00
   3  -3   9   16.90    2.90
   3  -3   9   25.10    3.20
  -4   3  -9   -1.20    1.80
  -4   3  -9    1.10    2.40
   4  -3   9   -1.50    1.70
   4  -3   9   -0.90    1.70
  -5   3  -9   45.20    5.30
   5  -3   9   48.40    5.10
   5  -3   9   39.90    5.00
   8   2  -9    2.30    1.90
   8   2  -9    3.10    2.10
  -8  -2   9    1.60    3.60
  -8  -2   9    1.20    2.40
   7   2  -9  148.29    6.70
   7   2  -9  114.19    4.70
   7   2  -9  117.39    4.50
   7   2  -9  122.69    5.60
   7   2  -9  112.79    5.40
  -7  -2   9  136.19    5.70
  -7  -2   9  114.69    6.50
   6   2  -9    9.70    2.20
   6   2  -9   13.10    2.10
   6   2  -9    8.00    2.70
   6   2  -9   13.90    3.00
  -6  -2   9   18.10    3.50
  -6  -2   9    8.80    3.10
   5   2  -9  106.09    4.60
   5   2  -9  109.89    4.60
   5   2  -9  112.59    5.30
   5   2  -9  105.39    3.50
   5   2  -9  105.29    3.40
  -5  -2   9  109.39    4.70
  -5  -2   9  105.89    4.80
  -5  -2   9  116.49    4.70
   4   2  -9   15.90    2.80
   4   2  -9   14.70    1.40
   4   2  -9   14.40    2.20
   4   2  -9   18.10    2.50
   4   2  -9   14.30    1.50
  -4  -2   9   16.60    2.40
  -4  -2   9   18.90    2.60
  -4  -2   9   16.60    2.40
   3   2  -9   22.90    1.40
   3   2  -9   25.50    2.10
   3   2  -9   26.90    3.00
   3   2  -9   26.70    2.60
  -3  -2   9   25.50    1.40
  -3  -2   9   21.50    2.50
  -3  -2   9   27.50    2.40
  -3  -2   9   24.40    2.40
   2   2  -9    3.90    1.10
   2   2  -9    5.00    1.40
   2   2  -9    6.00    1.80
  -2  -2   9    6.00    1.30
  -2  -2   9    4.00    1.20
  -2  -2   9    4.20    1.20
  -2  -2   9    4.80    1.20
  -2  -2   9    6.00    1.80
   1   2  -9  282.57    8.10
   1   2  -9  277.27    6.70
   1   2  -9  271.57    7.40
  -1  -2   9  275.57    6.70
  -1  -2   9  273.57    7.70
  -1  -2   9  280.27    8.00
  -1  -2   9  283.67    8.00
  -1  -2   9  277.47    7.50
   0   2  -9   10.80    1.90
   0   2  -9    8.90    2.20
   0   2  -9    8.80    1.60
   0  -2   9   11.20    2.00
   0  -2   9    7.30    1.90
   0  -2   9    7.70    1.80
   0  -2   9    8.70    1.90
   0  -2   9   11.90    2.10
  -1   2  -9   45.70    2.80
  -1   2  -9   49.40    2.80
  -1   2  -9   49.50    3.60
   1  -2   9   49.20    3.40
   1  -2   9   50.99    3.20
   1  -2   9   46.10    2.80
   1  -2   9   47.30    3.30
   1  -2   9   49.70    3.00
  -2   2  -9  244.98    6.80
  -2   2  -9  219.98   11.00
  -2   2  -9  248.78    7.40
   2  -2   9  242.78    7.20
   2  -2   9  256.27    7.00
   2  -2   9  247.98    7.90
  -3   2  -9    1.10    1.50
  -3   2  -9    2.70    1.70
  -3   2  -9    1.10    1.20
   3  -2   9    0.30    1.10
   3  -2   9    2.40    1.60
   3  -2   9    1.00    1.20
  -4   2  -9    0.30    1.80
  -4   2  -9   -0.30    1.30
   4  -2   9   -0.70    1.40
   4  -2   9   -1.70    1.40
   4  -2   9    0.90    1.50
  -5   2  -9  102.59    6.00
   5  -2   9   98.39    5.70
   5  -2   9  105.49    5.70
   5  -2   9   93.19    4.20
  -6   2  -9    1.10    2.80
   6  -2   9   -1.80    2.00
   6  -2   9    0.70    2.30
   8   1  -9   -1.50    1.90
   8   1  -9   -0.20    1.90
   8   1  -9    1.60    2.40
   7   1  -9   59.79    4.30
   7   1  -9   64.79    3.40
   7   1  -9   78.89    5.50
   7   1  -9   62.09    3.80
   7   1  -9   74.19    4.70
  -7  -1   9   56.69    5.70
  -7  -1   9   73.99    4.40
   6   1  -9    0.10    1.10
   6   1  -9    1.10    1.40
   6   1  -9   -0.40    1.30
   6   1  -9    1.90    1.70
   6   1  -9    0.70    1.20
  -6  -1   9    0.10    1.40
  -6  -1   9    2.10    1.80
   5   1  -9   72.19    3.70
   5   1  -9   73.49    4.00
   5   1  -9   73.49    2.60
   5   1  -9   76.69    2.70
   5   1  -9   74.49    5.20
  -5  -1   9   80.39    4.30
  -5  -1   9   63.49    4.10
  -5  -1   9   78.79    3.80
   4   1  -9    5.70    1.80
   4   1  -9    5.50    1.60
   4   1  -9    7.80    2.10
  -4  -1   9    3.20    1.40
  -4  -1   9    5.20    1.30
  -4  -1   9    5.40    1.40
   3   1  -9  347.37    9.20
   3   1  -9  332.47    8.60
   3   1  -9  342.97    9.20
  -3  -1   9  331.87    9.00
  -3  -1   9  340.07    9.00
  -3  -1   9  350.76    8.90
   2   1  -9  662.03   15.30
   2   1  -9  645.14   14.90
   2   1  -9  665.73   15.50
  -2  -1   9  650.73   15.10
  -2  -1   9  658.43   15.30
  -2  -1   9  677.53   15.00
   1   1  -9  455.95   10.90
   1   1  -9  459.45    9.80
   1   1  -9  462.05   11.40
  -1  -1   9  472.15   11.10
  -1  -1   9  466.95   11.50
  -1  -1   9  471.15    9.80
  -1  -1   9  459.15   11.20
   0   1  -9   52.69    2.60
   0   1  -9   50.79    2.20
   0   1  -9   51.59    3.00
   0  -1   9   58.29    3.10
   0  -1   9   53.29    2.80
   0  -1   9   54.89    2.80
   0  -1   9   55.79    3.00
   0  -1   9   50.49    2.20
  -1   1  -9   58.99    2.80
  -1   1  -9   62.39    3.60
  -1   1  -9   62.19    2.80
   1  -1   9   66.09    3.30
   1  -1   9   58.99    3.30
   1  -1   9   59.89    3.00
   1  -1   9   65.99    3.30
  -2   1  -9    1.90    1.30
  -2   1  -9    1.60    1.10
  -2   1  -9    0.10    0.90
   2  -1   9    0.70    1.10
   2  -1   9    1.90    1.20
   2  -1   9    2.10    1.00
   2  -1   9    1.20    1.20
   2  -1   9    0.70    1.00
  -3   1  -9  173.98    5.30
  -3   1  -9  181.28    6.10
   3  -1   9  184.58    6.60
   3  -1   9  171.68    5.90
   3  -1   9  184.28    6.40
   3  -1   9  185.68    5.40
  -4   1  -9   58.09    3.80
  -4   1  -9   54.69    4.20
   4  -1   9   56.59    3.00
   4  -1   9   55.39    3.80
   4  -1   9   51.89    3.10
   4  -1   9   58.49    4.00
   4  -1   9   61.99    3.80
  -5   1  -9   52.79    4.50
   5  -1   9   56.09    4.20
   5  -1   9   51.69    3.10
   5  -1   9   55.39    3.10
   5  -1   9   59.29    4.30
  -6   1  -9    2.00    2.60
   6  -1   9    2.30    2.10
   6  -1   9    0.60    1.80
  -7   1  -9   -2.80    3.00
   7  -1   9    0.00    2.70
   7  -1   9   -0.30    2.70
   8   0  -9    6.90    2.40
   8   0  -9   18.70    5.30
   8   0  -9    5.20    2.10
  -8   0   9    4.90    2.40
   7   0  -9   20.40    3.90
   7   0  -9   28.80    4.30
   7   0  -9   13.80    3.20
   7   0  -9   15.20    2.70
  -7   0   9   15.80    4.00
  -7   0   9   18.10    3.40
   6   0  -9   25.60    3.40
   6   0  -9   20.10    2.90
   6   0  -9   22.30    3.80
   6   0  -9   23.20    2.10
   6   0  -9   19.80    2.90
  -6   0   9   23.00    2.80
  -6   0   9   23.30    3.90
  -6   0   9   19.80    4.60
   5   0  -9    4.90    1.70
   5   0  -9    6.90    1.40
   5   0  -9    2.90    1.30
   5   0  -9    3.80    1.00
   5   0  -9    5.50    1.50
  -5   0   9    3.70    1.60
  -5   0   9    4.50    1.40
  -5   0   9    4.20    1.80
   4   0  -9   18.70    2.90
   4   0  -9   14.70    2.30
   4   0  -9   15.60    2.20
  -4   0   9   17.20    2.60
  -4   0   9   16.70    2.30
  -4   0   9   13.50    2.80
   3   0  -9  197.58    5.80
   3   0  -9  202.78    6.30
   3   0  -9  196.58    6.10
  -3   0   9  202.58    6.20
  -3   0   9  204.78    6.20
  -3   0   9  206.88    6.00
   2   0  -9   24.40    2.30
   2   0  -9   27.20    1.90
   2   0  -9   23.20    2.30
  -2   0   9   27.10    2.00
  -2   0   9   28.70    2.10
  -2   0   9   26.20    2.30
   1   0  -9   44.70    2.40
   1   0  -9   43.80    2.60
   1   0  -9   44.00    2.70
  -1   0   9   47.40    2.50
  -1   0   9   44.60    2.60
  -1   0   9   44.70    2.40
   0   0  -9   52.39    1.90
   0   0  -9   55.79    3.00
   0   0  -9   54.99    2.80
   0   0  -9   54.79    2.50
   0   0   9   53.29    1.90
   0   0   9   53.29    2.80
   0   0   9   55.09    2.60
   0   0   9   53.09    2.70
  -1   0  -9   43.10    2.80
  -1   0  -9   40.40    2.00
  -1   0  -9   38.60    2.30
   1   0   9   40.80    2.00
   1   0   9   42.50    2.50
   1   0   9   39.50    2.40
   1   0   9   37.90    2.60
   1   0   9   43.40    2.60
  -2   0  -9   68.99    3.00
  -2   0  -9   69.99    3.00
  -2   0  -9   73.19    3.70
   2   0   9   72.89    3.50
   2   0   9   74.49    3.10
   2   0   9   72.29    3.50
   2   0   9   74.89    3.60
   2   0   9   69.19    3.10
  -3   0  -9  573.84   13.50
   3   0   9  577.84   14.00
   3   0   9  582.04   12.90
   3   0   9  559.24   14.20
   3   0   9  570.54   13.00
   3   0   9  570.14   13.50
   3   0   9  570.34   14.10
  -4   0  -9   27.70    2.80
   4   0   9   23.90    3.00
   4   0   9   21.60    2.30
   4   0   9   25.40    3.30
   4   0   9   26.80    2.30
   4   0   9   24.90    3.00
   4   0   9   25.30    3.20
   4   0   9   27.10    3.30
  -5   0  -9   24.30    3.40
   5   0   9   18.40    2.30
   5   0   9   19.90    3.20
   5   0   9   16.40    2.10
   5   0   9   18.70    3.30
  -6   0  -9   25.80    4.20
   6   0   9   18.00    3.60
   6   0   9   17.60    2.30
   6   0   9   20.70    2.40
   6   0   9   18.00    3.50
  -7   0  -9   19.90    5.20
   7   0   9   18.50    4.40
   7   0   9   22.00    5.20
   8  -1  -9    6.30    3.10
   8  -1  -9    6.80    2.70
   8  -1  -9    3.00    2.50
   7  -1  -9   40.50    4.90
   7  -1  -9   41.70    4.60
   7  -1  -9   32.90    3.20
  -7   1   9   38.10    4.20
  -7   1   9   37.40    3.70
   6  -1  -9    4.00    1.90
   6  -1  -9    5.00    1.80
   6  -1  -9    3.50    1.60
  -6   1   9    0.60    2.20
  -6   1   9    2.90    1.90
  -6   1   9    0.00    1.50
   5  -1  -9  144.79    4.40
   5  -1  -9  156.58    5.90
  -5   1   9  148.99    5.80
  -5   1   9  153.18    5.10
  -5   1   9  148.59    6.00
  -5   1   9  142.29    5.30
   4  -1  -9    0.20    1.40
   4  -1  -9    0.60    0.90
   4  -1  -9    0.70    1.20
  -4   1   9   -0.10    1.20
  -4   1   9    0.60    1.40
  -4   1   9    2.40    1.30
  -4   1   9    1.30    1.10
   3  -1  -9  211.08    6.60
   3  -1  -9  207.18    6.20
  -3   1   9  213.38    6.30
  -3   1   9  217.68    6.10
  -3   1   9  207.98    6.40
   2  -1  -9   18.50    2.00
   2  -1  -9   15.70    1.60
   2  -1  -9   14.90    2.00
  -2   1   9   19.10    2.20
  -2   1   9   21.90    2.00
  -2   1   9   17.40    1.90
   1  -1  -9   79.19    3.40
   1  -1  -9   74.89    3.10
  -1   1   9   74.89    3.10
   0  -1  -9    2.10    0.80
   0  -1  -9    1.10    0.80
   0   1   9    1.50    0.80
   0   1   9    1.00    0.70
   0   1   9    3.40    0.90
   0   1   9    0.50    1.40
  -1  -1  -9  155.18    5.20
  -1  -1  -9  154.28    4.90
   1   1   9  156.08    4.70
   1   1   9  149.39    4.60
   1   1   9  153.18    4.90
   1   1   9  149.59    4.70
   1   1   9  155.48    4.10
   1   1   9  148.09    4.10
  -2  -1  -9  124.49    4.50
   2   1   9  131.69    4.20
   2   1   9  128.99    4.50
   2   1   9  123.49    4.10
   2   1   9  121.79    4.50
   2   1   9  112.19    4.50
   2   1   9  127.39    4.50
  -3  -1  -9  239.38    6.80
   3   1   9  241.08    6.50
   3   1   9  242.88    7.00
   3   1   9  247.38    7.10
   3   1   9  241.38    6.80
   3   1   9  244.98    7.30
   3   1   9  237.18    7.20
   3   1   9  240.08    6.50
  -4  -1  -9   65.49    3.60
   4   1   9   67.39    3.70
   4   1   9   62.09    2.90
   4   1   9   61.19    3.70
   4   1   9   64.39    4.00
   4   1   9   64.49    3.60
   4   1   9   64.59    3.70
   4   1   9   65.19    3.00
  -5  -1  -9    8.00    2.70
   5   1   9    3.40    1.70
   5   1   9    4.50    1.90
   5   1   9    3.70    1.50
   5   1   9    6.00    1.60
   5   1   9    9.40    2.10
   5   1   9    4.80    1.20
   5   1   9    4.90    1.60
  -6  -1  -9   54.49    4.30
   6   1   9   34.50    4.30
   6   1   9   46.10    2.80
   6   1   9   45.00    4.10
   6   1   9   42.10    4.50
   6   1   9   41.50    3.80
  -7  -1  -9   91.29    5.90
   7   1   9   89.09    5.80
   7   1   9   84.19    5.50
   8   1   9    4.20    2.90
   8   1   9    0.30    2.50
   7  -2  -9    9.90    2.80
  -7   2   9    9.40    2.10
  -7   2   9    9.30    2.50
   6  -2  -9    1.60    1.90
   6  -2  -9   12.10    3.90
   6  -2  -9    1.10    2.10
  -6   2   9    2.20    1.90
  -6   2   9    3.30    2.30
  -6   2   9    2.20    1.70
  -6   2   9    0.80    1.60
   5  -2  -9  217.58    7.40
   5  -2  -9  193.58    5.80
   5  -2  -9  202.88    6.80
  -5   2   9  202.58    6.50
  -5   2   9  206.08    6.20
  -5   2   9  204.38    5.80
  -5   2   9  211.88    8.80
  -5   2   9  197.18    6.80
   4  -2  -9    8.10    1.70
   4  -2  -9    9.40    2.80
   4  -2  -9    8.50    1.80
  -4   2   9   12.30    2.40
  -4   2   9   10.10    2.50
  -4   2   9    8.20    2.10
  -4   2   9    8.60    1.60
  -4   2   9    6.20    1.60
   3  -2  -9  108.49    4.60
   3  -2  -9  104.49    4.00
   3  -2  -9  103.29    3.10
  -3   2   9  106.49    4.10
  -3   2   9  103.99    3.00
  -3   2   9  103.79    4.10
  -3   2   9  107.99    4.10
  -3   2   9  102.29    4.30
   2  -2  -9   63.29    2.90
   2  -2  -9   68.39    3.40
  -2   2   9   65.39    3.10
  -2   2   9   67.09    3.10
  -2   2   9   66.19    3.20
   1  -2  -9  264.37    7.50
   1  -2  -9  262.67    6.70
  -1   2   9  276.67    7.10
  -1   2   9  267.67    5.80
  -1   2   9  268.47    7.20
  -1   2   9  269.17    7.40
  -1   2   9  266.97    6.70
   0  -2  -9    1.00    0.70
   0  -2  -9    0.80    0.70
   0   2   9    4.70    1.20
   0   2   9    1.30    0.80
   0   2   9    2.00    0.70
   0   2   9    2.00    0.60
   0   2   9    2.20    0.80
   0   2   9    1.50    0.80
  -1  -2  -9  350.96    8.60
  -1  -2  -9  362.76    9.30
   1   2   9  359.66    8.10
   1   2   9  350.56    8.10
   1   2   9  352.96    8.80
   1   2   9  352.66    9.00
   1   2   9  362.76    8.80
   1   2   9  354.66    8.50
  -2  -2  -9   79.29    3.40
  -2  -2  -9   80.99    3.60
   2   2   9   80.29    3.40
   2   2   9   79.19    3.20
   2   2   9   74.59    2.90
   2   2   9   79.49    3.40
   2   2   9   80.39    3.30
   2   2   9   79.69    3.00
   3   2   9   36.70    2.40
   3   2   9   39.60    2.90
   3   2   9   36.60    2.40
   3   2   9   38.80    2.60
   3   2   9   34.70    2.50
   3   2   9   36.60    2.40
   3   2   9   36.10    2.50
   3   2   9   35.80    2.50
   4   2   9   22.60    2.90
   4   2   9   24.60    2.20
   4   2   9   22.50    2.50
   4   2   9   22.30    2.70
   4   2   9   22.10    2.40
   4   2   9   20.70    2.30
   4   2   9   20.30    2.20
   4   2   9   24.00    2.50
   5   2   9   43.90    3.30
   5   2   9   42.50    4.10
   5   2   9   44.60    3.20
   5   2   9   42.60    2.70
   5   2   9   37.20    3.40
   5   2   9   43.70    3.40
   5   2   9   42.10    3.20
   5   2   9   40.90    2.70
   6   2   9   66.59    3.30
   6   2   9   71.39    4.60
   6   2   9   66.19    4.10
   6   2   9   68.79    3.30
   6   2   9   67.69    4.40
   6   2   9   67.49    4.00
   7   2   9  114.79    6.00
   7   2   9  113.89    4.00
   7   2   9  117.39    6.20
   7   2   9  114.09    5.40
   7   2   9   97.19    5.70
   8   2   9    5.30    2.70
   8   2   9    1.70    2.50
   8   2   9    7.40    2.40
   7  -3  -9    9.70    3.20
  -7   3   9   14.20    4.60
   6  -3  -9   11.20    2.90
   6  -3  -9    9.20    2.50
  -6   3   9   16.40    3.40
  -6   3   9    7.90    2.70
  -6   3   9    7.90    2.20
  -6   3   9   15.10    3.20
   5  -3  -9   33.70    3.90
   5  -3  -9   45.70    4.20
   5  -3  -9   33.70    3.40
  -5   3   9   32.30    3.00
  -5   3   9   32.40    3.10
  -5   3   9   31.70    3.80
  -5   3   9   34.90    3.40
   4  -3  -9    2.50    1.40
   4  -3  -9    2.30    1.50
   4  -3  -9    3.10    1.60
  -4   3   9    2.30    1.30
  -4   3   9   -0.60    1.40
  -4   3   9    1.80    1.40
  -4   3   9    3.10    1.30
  -4   3   9    1.20    1.30
   3  -3  -9   33.10    3.20
   3  -3  -9   27.00    2.50
   3  -3  -9   28.80    2.30
  -3   3   9   29.50    2.90
  -3   3   9   29.10    2.70
  -3   3   9   29.50    2.10
  -3   3   9   28.60    2.60
  -3   3   9   32.00    2.60
   2  -3  -9   33.20    2.10
   2  -3  -9   33.00    2.80
   2  -3  -9   30.70    2.10
  -2   3   9   36.70    2.60
  -2   3   9   34.80    2.60
  -2   3   9   31.90    1.90
  -2   3   9   28.40    2.90
  -2   3   9   31.80    2.30
   1  -3  -9   52.49    3.00
   1  -3  -9   50.49    2.20
   1  -3  -9   51.39    2.10
  -1   3   9   50.89    2.10
  -1   3   9   50.49    2.40
  -1   3   9   56.89    2.90
  -1   3   9   52.59    2.80
  -1   3   9   55.69    2.80
   0  -3  -9  189.68    4.70
   0  -3  -9  185.28    5.80
   0  -3  -9  187.38    4.90
   0   3   9  189.98    5.60
   0   3   9  192.98    4.90
   0   3   9  197.08    5.60
   0   3   9  184.18    4.80
   0   3   9  195.38    5.70
  -1  -3  -9   36.40    2.50
  -1  -3  -9   38.90    2.00
   1   3   9   36.90    2.30
   1   3   9   35.80    2.30
   1   3   9   36.70    2.30
   1   3   9   35.60    1.90
   1   3   9   37.10    2.10
  -2  -3  -9  269.07    7.50
   2   3   9  272.87    6.90
   2   3   9  274.97    7.20
   2   3   9  272.37    6.70
   2   3   9  274.67    6.90
   2   3   9  267.07    7.10
   2   3   9  265.97    7.30
   3   3   9   46.70    2.70
   3   3   9   50.49    2.80
   3   3   9   48.10    2.70
   3   3   9   50.39    2.60
   3   3   9   47.00    2.70
   3   3   9   47.90    2.90
   3   3   9   51.39    2.70
   4   3   9   28.00    2.50
   4   3   9   25.80    2.50
   4   3   9   21.60    2.30
   4   3   9   23.40    2.30
   4   3   9   25.00    2.40
   4   3   9   24.80    2.80
   4   3   9   27.40    2.70
   4   3   9   25.30    2.40
   5   3   9   48.50    3.60
   5   3   9   43.80    3.90
   5   3   9   47.70    3.30
   5   3   9   49.60    3.60
   5   3   9   45.20    2.90
   5   3   9   50.49    3.10
   5   3   9   46.30    2.90
   5   3   9   46.00    3.10
   6   3   9   36.80    2.80
   6   3   9   37.00    3.30
   6   3   9   38.80    3.40
   6   3   9   32.20    3.60
   6   3   9   38.80    4.60
   6   3   9   39.40    2.90
   6   3   9   38.50    3.30
   7   3   9   16.10    3.50
   7   3   9   16.50    3.30
   7   3   9   16.50    2.80
   7   3   9   16.90    4.00
   7   3   9   15.00    3.60
   7   3   9   15.50    2.90
   8   3   9    9.00    2.60
   8   3   9    4.40    2.50
   8   3   9    3.80    2.30
   6  -4  -9    0.10    2.50
  -6   4   9   -0.40    2.30
  -6   4   9    0.40    2.00
  -6   4   9    0.70    3.10
   5  -4  -9   19.50    4.30
   5  -4  -9   17.80    3.80
  -5   4   9   13.90    3.50
  -5   4   9   18.50    4.00
  -5   4   9   20.30    3.20
  -5   4   9   22.70    3.70
   4  -4  -9    6.90    2.00
   4  -4  -9    5.80    1.70
  -4   4   9    5.10    1.60
  -4   4   9    5.60    1.70
  -4   4   9    5.90    1.80
  -4   4   9    4.70    1.80
   3  -4  -9  110.39    4.40
   3  -4  -9  111.59    4.00
   3  -4  -9  124.59    5.30
  -3   4   9  114.89    4.20
  -3   4   9  102.19    5.00
  -3   4   9  115.09    4.50
  -3   4   9  109.29    4.50
  -3   4   9  111.49    4.10
   2  -4  -9   15.30    3.90
   2  -4  -9   23.70    3.10
   2  -4  -9   21.00    1.80
  -2   4   9   26.00    2.20
  -2   4   9   20.60    2.50
  -2   4   9   23.90    2.60
  -2   4   9   22.70    2.50
  -2   4   9   25.10    1.90
   1  -4  -9  263.17    7.70
   1  -4  -9  258.77    6.60
   1  -4  -9  247.48    5.80
  -1   4   9  254.47    6.50
  -1   4   9  254.17    7.10
  -1   4   9  260.57    5.80
  -1   4   9  250.27    7.40
   0  -4  -9   39.00    2.20
   0  -4  -9   38.60    2.70
   0  -4  -9   38.60    2.80
   0   4   9   39.50    2.60
   0   4   9   38.00    2.50
   0   4   9   41.20    2.60
   0   4   9   40.30    1.70
  -1  -4  -9  149.09    4.90
  -1  -4  -9  140.49    4.90
  -1  -4  -9  133.99    4.80
   1   4   9  142.09    4.90
   1   4   9  138.99    3.60
   1   4   9  147.99    4.50
   1   4   9  139.89    4.70
   1   4   9  144.09    3.50
  -2  -4  -9   18.70    2.10
  -2  -4  -9   15.60    1.80
  -2  -4  -9   20.00    2.20
   2   4   9   17.00    1.60
   2   4   9   21.90    2.10
   2   4   9   19.70    1.90
   2   4   9   18.30    1.50
   2   4   9   18.80    2.10
  -3  -4  -9    2.50    1.00
  -3  -4  -9    0.80    1.00
   3   4   9    0.00    1.00
   3   4   9    0.20    1.10
   3   4   9    0.20    1.00
   3   4   9    0.70    0.90
   3   4   9    0.90    0.90
   3   4   9    0.40    1.00
  -4  -4  -9   69.99    3.50
   4   4   9   60.09    3.20
   4   4   9   63.99    3.60
   4   4   9   70.39    3.60
   4   4   9   62.29    3.20
   4   4   9   67.89    3.30
   4   4   9   62.59    3.10
   4   4   9   62.69    3.50
  -5  -4  -9  158.98    5.40
   5   4   9  157.48    5.80
   5   4   9  157.98    5.10
   5   4   9  152.78    5.10
   5   4   9  160.38    6.00
   5   4   9  159.88    5.50
   5   4   9  157.98    5.20
   5   4   9  156.18    5.90
   6   4   9    2.00    1.30
   6   4   9   -0.70    2.10
   6   4   9    4.30    1.50
   6   4   9    3.50    1.40
   6   4   9    4.80    1.60
   7   4   9    1.30    1.80
   7   4   9    0.60    1.80
   7   4   9    3.20    1.50
   7   4   9   -0.40    1.80
   7   4   9   -0.50    1.50
   7   4   9   -0.10    1.50
   8   4   9   32.30    4.40
   8   4   9   34.70    4.20
   8   4   9   25.70    3.50
   8   4   9   23.20    4.70
   5  -5  -9    3.40    3.80
   5  -5  -9    4.80    2.30
  -5   5   9    2.10    2.60
  -5   5   9    8.70    2.30
   4  -5  -9    9.90    2.70
   4  -5  -9   12.20    3.30
  -4   5   9   14.80    3.50
  -4   5   9   16.30    3.60
  -4   5   9   16.20    3.20
  -4   5   9   15.20    3.20
   3  -5  -9    4.20    1.30
   3  -5  -9   13.40    3.40
   3  -5  -9    2.50    2.00
  -3   5   9    3.90    1.60
  -3   5   9    6.50    1.80
  -3   5   9    4.60    1.40
  -3   5   9    3.20    1.80
   2  -5  -9    4.30    1.40
   2  -5  -9    4.00    1.60
  -2   5   9    2.40    1.20
  -2   5   9    6.80    1.50
  -2   5   9    4.20    1.40
  -2   5   9    8.50    2.60
   1  -5  -9   28.70    2.90
   1  -5  -9   27.10    2.80
   1  -5  -9   24.80    3.30
  -1   5   9   27.30    2.80
  -1   5   9   24.40    2.70
  -1   5   9   22.80    2.50
   0  -5  -9   42.30    2.80
   0  -5  -9   39.60    2.70
   0  -5  -9   36.90    3.10
   0   5   9   44.80    2.80
   0   5   9   38.90    2.90
   0   5   9   36.10    3.10
  -1  -5  -9   11.00    2.10
  -1  -5  -9   11.90    2.40
  -1  -5  -9   13.60    2.20
   1   5   9   12.00    2.60
   1   5   9   14.80    2.10
   1   5   9   12.00    2.50
  -2  -5  -9    4.30    1.30
  -2  -5  -9    5.80    1.90
  -2  -5  -9    3.90    1.10
   2   5   9    6.90    1.80
   2   5   9    7.20    2.40
   2   5   9    4.00    1.30
  -3  -5  -9  131.29    4.70
  -3  -5  -9  128.99    4.60
  -3  -5  -9  137.29    4.90
   3   5   9  126.19    4.60
   3   5   9  132.69    4.10
   3   5   9  130.39    4.60
   3   5   9  138.29    5.00
   3   5   9  133.49    3.90
  -4  -5  -9    9.50    2.00
  -4  -5  -9   10.90    2.30
   4   5   9    9.50    2.30
   4   5   9   11.20    2.30
   4   5   9    9.10    2.50
   4   5   9    8.80    1.80
   4   5   9    8.70    2.20
   4   5   9    7.40    2.30
  -5  -5  -9   39.30    3.10
   5   5   9   37.40    3.20
   5   5   9   38.50    3.60
   5   5   9   37.20    2.60
   5   5   9   41.20    3.10
   5   5   9   43.00    3.50
   5   5   9   36.00    3.50
   5   5   9   37.90    2.60
  -6  -5  -9    2.70    1.50
   6   5   9    3.50    1.80
   6   5   9    4.50    1.80
   6   5   9    3.80    1.70
   6   5   9    4.30    1.30
   6   5   9    6.60    2.30
   6   5   9    4.20    1.20
  -7  -5  -9    2.40    1.80
   7   5   9    1.10    1.90
   7   5   9   -0.10    1.30
   7   5   9    1.30    1.40
   7   5   9   -0.30    1.90
   7   5   9   -1.00    1.90
   8   5   9   -1.60    2.30
   8   5   9    3.00    2.20
  -5   6   9   49.00    6.30
  -5   6   9   42.40    5.20
   4  -6  -9   -1.10    2.50
  -4   6   9    0.70    2.60
  -4   6   9    2.80    2.10
  -4   6   9   -0.50    2.50
   3  -6  -9   51.09    3.00
   3  -6  -9   53.99    4.10
   3  -6  -9   49.20    4.90
  -3   6   9   49.40    4.40
  -3   6   9   55.19    4.20
  -3   6   9   54.09    5.40
   2  -6  -9    2.60    1.70
   2  -6  -9    0.40    2.00
  -2   6   9   10.50    3.30
  -2   6   9    3.40    1.70
   1  -6  -9   29.90    3.00
   1  -6  -9   28.80    3.40
   1  -6  -9   38.30    3.70
  -1   6   9   24.90    3.40
  -1   6   9   29.70    3.10
  -1   6   9   28.10    3.30
   0  -6  -9   36.20    3.60
   0  -6  -9   34.60    3.30
   0  -6  -9   34.60    3.10
   0   6   9   37.60    3.40
   0   6   9   34.70    3.00
   0   6   9   34.20    3.60
  -1  -6  -9    3.40    1.50
  -1  -6  -9    4.70    1.40
  -1  -6  -9    5.20    1.60
   1   6   9    4.90    1.60
   1   6   9    6.30    1.90
   1   6   9    9.90    2.20
  -2  -6  -9   10.90    2.40
  -2  -6  -9    8.50    2.50
  -2  -6  -9   13.40    3.20
   2   6   9   14.30    3.00
   2   6   9   18.00    2.40
   2   6   9   12.00    2.80
  -3  -6  -9  194.38    6.10
  -3  -6  -9  187.08    6.20
  -3  -6  -9  195.08    6.90
   3   6   9  191.48    4.70
   3   6   9  199.38    6.10
   3   6   9  190.08    6.00
   3   6   9  194.58    6.50
   3   6   9  194.38    4.80
  -4  -6  -9   29.00    3.00
  -4  -6  -9   33.00    2.70
  -4  -6  -9   29.30    3.00
   4   6   9   31.70    2.70
   4   6   9   34.00    3.50
   4   6   9   34.20    2.60
   4   6   9   33.90    3.00
   4   6   9   33.30    2.90
  -5  -6  -9   -0.40    1.40
   5   6   9    1.70    2.30
   5   6   9    0.20    1.00
   5   6   9   -0.30    1.60
   5   6   9    2.80    1.60
   5   6   9   -0.70    1.40
   5   6   9   -0.30    1.60
  -6  -6  -9   70.59    4.20
   6   6   9   59.99    4.20
   6   6   9   61.99    4.20
   6   6   9   64.69    4.40
   6   6   9   65.49    3.10
   6   6   9   60.79    3.30
   6   6   9   63.79    4.90
  -7  -6  -9    2.30    2.00
   7   6   9    1.30    1.10
   7   6   9   -0.80    2.00
   7   6   9    1.10    2.70
   7   6   9    1.80    2.00
   7   6   9    0.10    2.90
  -8  -6  -9   15.80    4.30
   8   6   9    7.90    2.90
   8   6   9   11.20    2.70
  -4   7   9    0.40    3.20
  -4   7   9    1.60    2.60
  -3   7   9   39.60    5.30
   2  -7  -9    3.70    1.90
  -2   7   9    0.10    2.00
   1  -7  -9   14.20    3.50
   1  -7  -9   13.20    4.20
  -1   7   9   16.50    3.50
   0  -7  -9    9.30    2.90
   0  -7  -9    9.10    2.30
   0   7   9    7.30    3.50
  -1  -7  -9   27.00    3.00
  -1  -7  -9   25.60    3.40
  -1  -7  -9   29.70    3.50
   1   7   9   19.90    3.50
   1   7   9   25.10    3.60
  -2  -7  -9   30.50    3.10
  -2  -7  -9   32.70    3.30
  -2  -7  -9   25.10    3.30
   2   7   9   27.70    3.60
   2   7   9   35.10    5.30
  -3  -7  -9   22.50    3.00
  -3  -7  -9   23.50    2.80
  -3  -7  -9   21.90    3.20
   3   7   9   22.50    3.40
   3   7   9   25.10    3.40
  -4  -7  -9   16.00    2.50
  -4  -7  -9   16.80    3.00
   4   7   9   15.30    3.20
   4   7   9   14.40    2.20
   4   7   9   16.30    2.20
   4   7   9   18.90    3.30
  -5  -7  -9   -0.30    1.60
   5   7   9    3.20    1.70
   5   7   9    3.00    1.70
   5   7   9    2.40    1.80
  -6  -7  -9   -1.70    1.80
   6   7   9   -1.30    1.40
   6   7   9    0.00    2.00
   6   7   9   -0.10    0.90
   6   7   9   -2.80    1.80
   6   7   9    1.10    2.30
  -7  -7  -9   16.00    3.90
   7   7   9   18.50    5.50
   7   7   9   18.20    4.20
   7   7   9   18.70    5.60
  -8  -7  -9   26.90    5.00
   8   7   9   24.70    6.00
   8   7   9   21.90    4.70
   2  -8  -9    2.20    2.20
  -2   8   9    8.80    2.90
   1  -8  -9    5.60    2.20
  -1   8   9    8.30    2.60
   0  -8  -9   15.90    4.50
   0   8   9   13.50    4.30
  -1  -8  -9   48.20    4.20
  -1  -8  -9   62.79    5.00
   1   8   9   62.39    4.80
  -2  -8  -9    1.90    1.60
  -2  -8  -9    0.50    1.60
   2   8   9    3.00    2.20
   2   8   9   -0.50    2.20
  -3  -8  -9    1.50    1.60
  -3  -8  -9   -0.20    1.40
   3   8   9   -1.80    2.00
   3   8   9   -2.10    2.00
  -4  -8  -9   34.60    3.20
  -4  -8  -9   36.20    3.90
   4   8   9   34.50    4.20
   4   8   9   29.90    4.20
  -5  -8  -9    2.10    1.40
  -5  -8  -9    1.40    1.90
   5   8   9    2.50    1.50
   5   8   9    0.30    1.80
   5   8   9    1.70    1.90
   5   8   9    1.60    2.10
  -6  -8  -9    0.00    2.00
   6   8   9   -1.00    2.10
   6   8   9   -0.50    2.10
  -7  -8  -9   14.40    4.60
   7   8   9   16.30    5.20
   7   8   9    9.40    2.70
  -1   9   9   21.80    6.50
   0  -9  -9   20.00    6.00
   0   9   9   15.60    5.30
  -1  -9  -9   10.30    2.50
  -1  -9  -9   20.80    5.10
   1   9   9   15.50    4.80
  -2  -9  -9    4.40    2.20
  -2  -9  -9    3.80    2.30
   2   9   9    7.20    2.70
  -3  -9  -9    2.90    1.90
  -3  -9  -9    1.20    2.00
   3   9   9   -0.30    2.50
   3   9   9    2.00    2.50
  -4  -9  -9    0.50    1.60
  -4  -9  -9   -1.90    1.90
   4   9   9   -2.00    2.40
  -5  -9  -9   70.29    5.50
   5   9   9   62.69    5.40
  -6  -9  -9    1.80    2.40
   6   9   9   -3.40    2.50
  -2 -10  -9    2.60    2.80
  -2 -10  -9    5.70    2.80
   2  10   9   22.50    6.40
  -3 -10  -9    5.90    2.80
  -3 -10  -9    3.60    2.60
   3  10   9    5.50    3.20
  -4 -10  -9    4.50    3.00
   4  10   9    0.70    3.10
   5   7 -10    7.60    3.10
   5   7 -10   22.70    6.90
  -5  -7  10   11.70    3.20
  -5  -7  10    5.10    2.60
   4   7 -10   26.30    7.00
   4   7 -10   18.10    4.60
  -4  -7  10   17.00    4.90
   3   7 -10    1.40    2.60
   3   7 -10    1.30    3.00
  -3  -7  10    1.10    2.20
  -3  -7  10   -0.40    2.40
   2   7 -10   17.50    6.00
   2   7 -10   12.40    3.30
  -2  -7  10    9.20    2.80
  -2  -7  10   10.60    2.80
   1   7 -10   -1.10    3.50
   1   7 -10    2.60    3.30
  -1  -7  10    0.40    2.60
  -1  -7  10    3.00    2.70
   6   6 -10    1.80    2.50
   6   6 -10   19.70    6.70
  -6  -6  10   -0.10    2.20
  -6  -6  10    1.50    2.00
   5   6 -10    2.60    2.20
   5   6 -10    4.50    2.90
  -5  -6  10   -2.20    1.80
  -5  -6  10    0.50    2.00
  -5  -6  10    0.10    2.30
   4   6 -10   79.39    6.20
   4   6 -10   74.89    4.70
  -4  -6  10   67.59    4.50
  -4  -6  10   74.39    5.10
  -4  -6  10   61.99    5.10
   3   6 -10    3.50    2.60
   3   6 -10    0.20    2.50
  -3  -6  10   -2.60    1.60
  -3  -6  10    1.10    2.70
  -3  -6  10    1.80    2.00
   2   6 -10   23.50    5.00
   2   6 -10   28.10    4.30
  -2  -6  10   16.60    3.80
  -2  -6  10   23.70    4.00
  -2  -6  10   23.10    4.90
   1   6 -10   25.70    4.50
   1   6 -10   19.00    5.20
  -1  -6  10   20.60    4.40
  -1  -6  10   15.20    4.30
   0   6 -10   24.50    6.10
   0   6 -10   16.10    4.80
   0  -6  10    5.40    2.30
   0  -6  10   10.80    2.70
  -1   6 -10    4.80    3.50
  -1   6 -10    1.80    2.90
   1  -6  10   -0.10    2.00
   1  -6  10    2.90    2.60
  -7  -5  10    5.40    2.70
  -7  -5  10    8.20    2.80
   6   5 -10   29.90    3.60
  -6  -5  10   32.30    4.60
  -6  -5  10   35.00    4.50
  -6  -5  10   31.10    4.50
   5   5 -10   18.30    3.20
  -5  -5  10   15.80    3.50
  -5  -5  10   20.90    3.20
  -5  -5  10   16.20    3.90
  -5  -5  10   20.30    5.80
   4   5 -10   59.29    3.80
  -4  -5  10   61.09    4.20
  -4  -5  10   63.89    4.20
  -4  -5  10   59.09    4.50
  -4  -5  10   62.39    4.00
   3   5 -10    7.40    2.20
   3   5 -10   10.20    2.80
  -3  -5  10    5.60    2.10
  -3  -5  10    8.70    2.20
  -3  -5  10   13.40    3.10
  -3  -5  10    9.50    2.90
   2   5 -10   30.10    3.50
   2   5 -10   32.00    4.20
  -2  -5  10   26.10    3.60
  -2  -5  10   26.80    3.80
  -2  -5  10   32.30    3.60
   1   5 -10    5.20    2.00
   1   5 -10    1.40    2.10
  -1  -5  10    3.70    1.90
  -1  -5  10    2.00    2.30
  -1  -5  10    3.80    1.80
   0   5 -10  104.39    5.50
   0   5 -10  110.29    6.70
   0  -5  10  108.99    5.70
   0  -5  10   99.99    5.70
   0  -5  10   99.99    5.40
  -1   5 -10   23.60    5.40
  -1   5 -10   22.40    4.30
   1  -5  10   14.60    4.20
  -2   5 -10   45.90    6.80
   2  -5  10   30.50    4.80
   2  -5  10   24.60    4.00
  -3   5 -10    4.60    3.30
   3  -5  10    0.60    2.70
   3  -5  10   -0.10    2.60
  -8  -4  10    0.10    2.90
   7   4 -10    3.10    2.10
  -7  -4  10    2.70    2.40
   6   4 -10   68.69    3.90
   6   4 -10   67.09    3.80
  -6  -4  10   77.09    5.00
  -6  -4  10   76.09    4.40
  -6  -4  10   65.59    4.90
   5   4 -10   13.50    2.50
  -5  -4  10   12.00    3.40
  -5  -4  10   11.90    2.50
  -5  -4  10    7.60    1.80
   4   4 -10   14.60    3.90
   4   4 -10    5.90    1.60
  -4  -4  10    7.40    1.50
  -4  -4  10    6.10    1.60
  -4  -4  10    5.40    1.50
  -4  -4  10    8.50    3.00
   3   4 -10   52.59    4.50
   3   4 -10   40.70    2.70
  -3  -4  10   40.70    3.50
  -3  -4  10   42.80    3.00
  -3  -4  10   39.70    3.20
  -3  -4  10   41.20    3.70
   2   4 -10    0.90    1.60
   2   4 -10    1.50    1.30
  -2  -4  10    0.60    1.60
  -2  -4  10   -1.40    1.20
  -2  -4  10    1.20    1.60
  -2  -4  10    0.40    1.30
   1   4 -10    3.50    1.60
   1   4 -10    1.30    1.50
  -1  -4  10    3.00    1.50
  -1  -4  10    1.30    1.40
  -1  -4  10    0.60    1.70
  -1  -4  10    1.20    1.50
   0   4 -10    2.70    1.90
   0   4 -10    2.00    1.80
   0   4 -10    3.20    1.70
   0  -4  10    3.30    1.80
   0  -4  10    1.20    1.40
   0  -4  10    1.10    1.70
  -1   4 -10    2.70    1.90
  -1   4 -10   -0.20    2.00
  -1   4 -10    1.70    1.80
   1  -4  10    0.70    1.70
   1  -4  10    0.40    1.50
   1  -4  10    2.20    2.10
  -2   4 -10   42.20    4.50
  -2   4 -10   38.20    4.30
  -2   4 -10   42.90    5.50
   2  -4  10   39.50    4.20
   2  -4  10   37.60    4.00
  -3   4 -10   -0.10    2.20
  -3   4 -10    2.10    2.50
   3  -4  10   -0.90    1.50
   3  -4  10   -1.20    2.50
  -4   4 -10   30.10    6.10
   4  -4  10   31.30    5.30
   4  -4  10   28.00    5.80
   8   3 -10   24.10    4.40
  -8  -3  10   29.60    5.90
   7   3 -10   55.99    3.80
   7   3 -10   73.09    5.50
   7   3 -10   53.99    5.70
  -7  -3  10   52.19    5.80
  -7  -3  10   58.39    5.00
   6   3 -10  133.49    5.90
   6   3 -10  157.38    6.60
   6   3 -10  128.59    4.50
   6   3 -10  127.09    4.50
  -6  -3  10  125.79    5.90
  -6  -3  10  143.29    5.90
   5   3 -10   18.40    2.10
   5   3 -10   21.30    3.30
   5   3 -10   20.80    2.20
  -5  -3  10   21.10    3.30
  -5  -3  10   23.70    3.10
   4   3 -10   25.20    2.00
   4   3 -10   29.10    2.60
   4   3 -10   35.50    3.90
  -4  -3  10   26.20    2.90
  -4  -3  10   26.70    2.00
  -4  -3  10   28.60    2.90
  -4  -3  10   31.80    3.10
   3   3 -10    1.60    1.50
   3   3 -10    1.30    1.10
   3   3 -10    0.70    0.90
  -3  -3  10    2.50    1.30
  -3  -3  10    1.60    1.10
  -3  -3  10   -0.10    1.10
  -3  -3  10    1.80    1.30
  -3  -3  10    0.60    1.10
   2   3 -10  152.78    5.40
   2   3 -10  158.68    6.30
   2   3 -10  154.28    4.60
  -2  -3  10  165.58    6.00
  -2  -3  10  160.08    5.80
  -2  -3  10  156.08    5.90
  -2  -3  10  155.08    6.00
  -2  -3  10  156.88    4.70
   1   3 -10   43.00    2.70
   1   3 -10   49.70    3.70
   1   3 -10   42.80    3.10
  -1  -3  10   42.30    2.90
  -1  -3  10   43.50    3.40
  -1  -3  10   44.60    3.60
  -1  -3  10   45.20    3.30
   0   3 -10  170.68    6.60
   0   3 -10  158.98    5.70
   0   3 -10  165.18    5.40
   0  -3  10  165.78    6.20
   0  -3  10  160.28    6.10
   0  -3  10  157.78    6.30
   0  -3  10  160.68    5.40
   0  -3  10  170.88    5.90
  -1   3 -10   35.10    4.00
  -1   3 -10   36.60    3.10
  -1   3 -10   32.10    3.20
   1  -3  10   32.60    3.00
   1  -3  10   31.20    3.10
   1  -3  10   28.10    3.10
  -2   3 -10   56.89    4.80
  -2   3 -10   46.90    6.10
  -2   3 -10   50.09    3.60
   2  -3  10   49.70    4.00
   2  -3  10   59.69    3.80
   2  -3  10   57.69    3.90
  -3   3 -10    3.80    1.80
  -3   3 -10    4.30    2.20
   3  -3  10    5.10    1.90
   3  -3  10    0.80    1.60
  -4   3 -10   16.60    4.40
   4  -3  10   15.80    3.50
   4  -3  10   14.30    3.90
   4  -3  10   13.60    3.80
  -5   3 -10   -0.50    3.00
   5  -3  10    1.20    2.50
   5  -3  10   -1.30    2.40
   8   2 -10   48.60    4.80
  -8  -2  10   50.29    5.60
   7   2 -10   -0.60    1.70
   7   2 -10   -0.40    1.60
  -7  -2  10    0.90    2.50
  -7  -2  10   -0.20    2.00
   6   2 -10    2.70    1.80
   6   2 -10    0.10    1.20
   6   2 -10    1.50    2.00
   6   2 -10    1.70    1.50
   6   2 -10    1.20    1.30
  -6  -2  10    3.10    2.00
  -6  -2  10    0.60    1.70
   5   2 -10   45.60    2.20
   5   2 -10   49.20    3.50
   5   2 -10   50.59    3.60
   5   2 -10   60.29    4.20
  -5  -2  10   51.49    3.60
  -5  -2  10   51.79    3.90
   4   2 -10   16.50    3.30
   4   2 -10   17.00    2.70
   4   2 -10   10.00    2.30
  -4  -2  10   13.70    2.60
  -4  -2  10   11.00    2.60
   3   2 -10   43.30    2.80
   3   2 -10   50.99    3.90
   3   2 -10   50.79    3.50
  -3  -2  10   49.80    3.10
  -3  -2  10   46.10    3.10
  -3  -2  10   49.00    3.20
   2   2 -10  185.88    4.70
   2   2 -10  200.28    6.70
   2   2 -10  184.98    5.90
  -2  -2  10  191.78    6.40
  -2  -2  10  182.58    6.10
  -2  -2  10  191.38    6.40
  -2  -2  10  194.48    6.10
  -2  -2  10  194.58    4.70
   1   2 -10   15.70    2.70
   1   2 -10   16.80    1.60
   1   2 -10   12.30    1.90
  -1  -2  10   21.30    2.20
  -1  -2  10   16.80    2.30
  -1  -2  10   12.70    2.20
  -1  -2  10   17.60    1.90
  -1  -2  10   16.30    2.30
   0   2 -10  132.89    4.90
   0   2 -10  135.29    4.40
   0   2 -10  147.79    5.70
   0  -2  10  144.19    5.00
   0  -2  10  134.49    4.60
   0  -2  10  142.19    5.20
   0  -2  10  136.69    5.40
   0  -2  10  144.79    5.40
  -1   2 -10    6.30    2.10
  -1   2 -10    9.70    2.30
   1  -2  10    7.40    2.30
   1  -2  10    9.10    2.60
   1  -2  10   11.00    2.40
   1  -2  10   10.30    2.60
  -2   2 -10   58.79    4.30
  -2   2 -10   48.20    3.10
  -2   2 -10   56.19    3.50
   2  -2  10   59.39    3.40
   2  -2  10   56.79    4.10
   2  -2  10   51.99    3.40
   2  -2  10   55.79    3.70
   2  -2  10   57.49    4.10
  -3   2 -10    3.10    1.60
  -3   2 -10    2.80    1.70
   3  -2  10    1.60    1.50
   3  -2  10    0.80    1.40
   3  -2  10    2.20    1.90
  -4   2 -10  103.69    5.60
   4  -2  10  108.49    4.70
   4  -2  10  101.79    5.30
   4  -2  10  103.99    5.60
  -5   2 -10    0.30    2.20
   5  -2  10    0.50    2.00
   5  -2  10    0.40    1.90
   5  -2  10   -1.60    1.80
  -6   2 -10   21.10    5.80
   6  -2  10   18.30    5.70
   8   1 -10   45.60    5.30
   8   1 -10   66.99    6.00
  -8  -1  10   55.39    5.50
   7   1 -10    8.40    2.10
   7   1 -10    9.40    2.50
   7   1 -10    3.40    2.30
  -7  -1  10    6.20    2.20
   6   1 -10    0.60    1.10
   6   1 -10    2.00    1.80
   6   1 -10   -0.40    1.10
   6   1 -10    0.00    1.40
   6   1 -10    2.20    1.70
  -6  -1  10   -2.10    1.40
  -6  -1  10   -0.40    1.90
   5   1 -10   77.89    3.90
   5   1 -10   78.69    4.10
   5   1 -10   85.79    4.80
  -5  -1  10   66.69    4.50
  -5  -1  10   83.29    4.50
  -5  -1  10   82.29    4.10
   4   1 -10  148.69    5.70
   4   1 -10  147.79    5.60
   4   1 -10  140.19    5.10
  -4  -1  10  143.39    5.70
  -4  -1  10  146.09    5.50
  -4  -1  10  148.59    5.30
   3   1 -10   24.50    2.60
   3   1 -10   25.90    3.10
   3   1 -10   24.10    2.10
  -3  -1  10   24.60    2.60
  -3  -1  10   24.60    2.50
  -3  -1  10   26.70    2.80
   2   1 -10  242.18    7.30
   2   1 -10  227.78    6.70
   2   1 -10  245.98    7.50
  -2  -1  10  242.88    6.90
  -2  -1  10  231.68    7.00
  -2  -1  10  228.98    6.90
   1   1 -10   19.20    2.40
   1   1 -10   15.80    1.20
   1   1 -10   18.10    1.90
  -1  -1  10   18.20    2.10
  -1  -1  10   18.70    2.10
  -1  -1  10   19.80    2.20
  -1  -1  10   17.80    1.40
   0   1 -10    0.80    1.00
   0   1 -10   -0.30    0.90
   0   1 -10    0.70    0.80
   0  -1  10   -0.30    0.80
   0  -1  10    0.90    1.00
   0  -1  10   -0.30    1.00
   0  -1  10   -0.30    0.90
   0  -1  10    1.40    0.90
  -1   1 -10   64.19    3.20
  -1   1 -10   65.69    3.90
  -1   1 -10   65.39    2.90
   1  -1  10   70.09    3.40
   1  -1  10   65.49    2.90
   1  -1  10   66.89    3.50
   1  -1  10   68.09    3.50
   1  -1  10   71.49    3.80
  -2   1 -10   20.10    2.40
  -2   1 -10   18.90    2.40
  -2   1 -10   21.40    3.00
   2  -1  10   22.20    2.70
   2  -1  10   19.40    2.40
   2  -1  10   20.30    2.60
   2  -1  10   19.70    2.30
   2  -1  10   23.10    2.80
  -3   1 -10    2.90    1.20
  -3   1 -10    2.50    1.40
   3  -1  10    2.90    1.30
   3  -1  10    3.50    1.30
   3  -1  10    2.20    1.40
   3  -1  10   10.40    3.10
   3  -1  10    2.60    1.50
  -4   1 -10   -0.40    1.60
   4  -1  10   -0.70    1.80
   4  -1  10   -0.30    1.30
   4  -1  10   -0.70    1.40
   4  -1  10   -0.80    1.50
   4  -1  10    0.20    1.30
  -5   1 -10    4.30    2.30
   5  -1  10    2.40    1.70
   5  -1  10    2.90    1.50
   5  -1  10   -0.60    1.60
   5  -1  10    1.70    1.80
  -6   1 -10   19.90    4.90
   6  -1  10   13.50    4.20
   6  -1  10   18.20    4.70
   8   0 -10   16.10    5.30
   8   0 -10   10.70    3.20
  -8   0  10   15.30    4.70
   7   0 -10   39.40    3.10
   7   0 -10   52.69    4.90
   7   0 -10   53.89    5.40
  -7   0  10   32.40    4.50
  -7   0  10   37.20    4.80
   6   0 -10    2.50    1.40
   6   0 -10    3.20    1.60
   6   0 -10    3.70    1.20
   6   0 -10    4.60    1.80
   6   0 -10    5.30    2.00
  -6   0  10    2.60    1.60
   5   0 -10   19.20    5.00
   5   0 -10   23.20    2.70
  -5   0  10   17.30    3.40
  -5   0  10   22.70    2.70
   4   0 -10  179.28    6.20
   4   0 -10  166.68    5.60
   4   0 -10  173.98    6.10
  -4   0  10  162.98    6.10
  -4   0  10  185.88    5.80
  -4   0  10  171.38    6.10
   3   0 -10   63.69    3.60
   3   0 -10   60.09    3.00
   3   0 -10   68.49    3.70
  -3   0  10   66.09    3.30
  -3   0  10   65.29    3.50
  -3   0  10   63.79    3.80
   2   0 -10   61.79    2.90
   2   0 -10   60.29    3.40
   2   0 -10   61.29    3.40
  -2   0  10   59.99    3.40
  -2   0  10   62.69    3.10
  -2   0  10   62.99    3.10
   1   0 -10    0.20    0.90
   1   0 -10    0.30    0.90
   1   0 -10    0.90    0.80
  -1   0  10   -0.10    0.90
  -1   0  10    1.70    1.00
  -1   0  10   -0.70    0.80
   0   0 -10  132.99    4.40
   0   0 -10  140.49    4.90
   0   0 -10  134.69    3.60
   0   0  10  143.39    4.60
   0   0  10  136.69    4.90
   0   0  10  133.49    3.60
   0   0  10  134.19    4.70
  -1   0 -10   96.59    4.30
  -1   0 -10   91.09    3.20
  -1   0 -10   94.09    3.60
   1   0  10   94.19    3.20
   1   0  10   93.39    4.10
   1   0  10   97.89    4.10
   1   0  10   96.79    4.10
   1   0  10   98.29    3.80
  -2   0 -10  320.47    8.40
  -2   0 -10  333.67    8.40
  -2   0 -10  337.57    9.40
   2   0  10  344.47    8.50
   2   0  10  323.57    9.30
   2   0  10  330.17    9.10
   2   0  10  319.17    8.30
   2   0  10  339.87    9.30
  -3   0 -10   54.79    3.30
   3   0  10   51.59    3.70
   3   0  10   54.09    3.50
   3   0  10   56.99    3.90
   3   0  10   51.99    3.00
   3   0  10   49.30    3.30
   3   0  10   53.79    3.10
  -4   0 -10   97.49    4.70
   4   0  10   96.79    4.80
   4   0  10  104.39    4.90
   4   0  10   98.29    4.80
   4   0  10  104.09    4.00
   4   0  10   93.19    5.10
   4   0  10   96.99    4.00
  -5   0 -10   14.10    3.40
   5   0  10    8.10    2.50
   5   0  10   14.40    3.20
   5   0  10    6.40    1.50
   5   0  10    6.30    1.90
  -6   0 -10   96.39    6.00
   6   0  10   87.59    3.80
   6   0  10   84.59    5.30
   6   0  10   87.59    5.30
  -7   0 -10   -3.60    2.70
   7   0  10   -1.20    2.20
   7   0  10    0.40    2.60
   7  -1 -10   19.50    4.60
   7  -1 -10   16.20    5.20
   7  -1 -10    9.50    2.00
  -7   1  10   13.40    3.50
   6  -1 -10   21.40    4.00
   6  -1 -10   16.90    2.20
   6  -1 -10   16.40    4.00
  -6   1  10   13.50    3.70
  -6   1  10   11.30    3.00
   5  -1 -10   52.89    2.20
   5  -1 -10   51.39    2.50
   5  -1 -10   57.39    4.00
   5  -1 -10   56.49    4.10
  -5   1  10   46.50    3.80
  -5   1  10   49.90    4.20
  -5   1  10   50.09    4.10
  -5   1  10   55.09    3.40
   4  -1 -10   32.90    3.20
   4  -1 -10   26.50    3.20
  -4   1  10   32.90    2.80
  -4   1  10   27.90    3.00
  -4   1  10   26.70    3.20
  -4   1  10   35.20    3.30
   3  -1 -10   12.00    2.20
   3  -1 -10    9.50    2.20
  -3   1  10   11.50    2.10
  -3   1  10   12.90    1.90
  -3   1  10   10.50    2.70
   2  -1 -10   22.40    2.40
   2  -1 -10   23.20    2.40
  -2   1  10   24.50    2.20
  -2   1  10   25.10    2.30
  -2   1  10   24.40    2.60
   1  -1 -10   24.40    2.20
   1  -1 -10   22.80    2.30
  -1   1  10   23.20    2.10
  -1   1  10   25.50    2.10
  -1   1  10   24.80    2.30
   0  -1 -10  116.19    4.20
   0  -1 -10  116.39    4.50
   0   1  10  115.59    2.90
   0   1  10  114.69    3.10
   0   1  10  105.59    4.20
   0   1  10  108.39    4.00
   0   1  10  112.49    4.00
  -1  -1 -10    6.60    2.00
   1   1  10    7.30    1.30
   1   1  10    6.90    1.80
   1   1  10    5.70    1.30
   1   1  10    5.70    1.30
   1   1  10    9.40    1.80
   1   1  10    7.10    1.80
  -2  -1 -10   38.00    2.90
   2   1  10   39.10    2.80
   2   1  10   38.30    2.60
   2   1  10   40.40    2.60
   2   1  10   40.20    2.40
   2   1  10   37.70    2.70
   2   1  10   40.50    2.90
  -3  -1 -10   -0.10    1.00
   3   1  10   -1.00    0.90
   3   1  10   -0.90    1.10
   3   1  10   -0.50    1.10
   3   1  10   -0.90    0.90
   3   1  10   -0.90    1.20
   3   1  10    0.20    1.10
   3   1  10    0.90    1.30
  -4  -1 -10   13.00    2.50
   4   1  10   14.10    2.10
   4   1  10   15.50    2.70
   4   1  10   12.80    2.80
   4   1  10   15.80    3.00
   4   1  10   18.50    2.40
   4   1  10   13.20    3.30
   4   1  10   11.70    2.70
  -5  -1 -10    7.80    1.90
   5   1  10    5.10    2.00
   5   1  10    4.00    1.80
   5   1  10    6.10    1.80
   5   1  10    8.70    2.30
   5   1  10    5.50    2.10
   5   1  10    8.00    2.50
  -6  -1 -10   23.10    4.00
   6   1  10   24.20    2.80
   6   1  10   24.30    3.80
   6   1  10   20.80    2.80
   6   1  10   21.50    3.80
   7   1  10   -2.60    2.10
   7   1  10   -0.90    2.10
   7  -2 -10    3.10    2.60
   7  -2 -10   14.80    5.00
  -7   2  10   -1.80    2.00
   6  -2 -10  162.08    6.80
   6  -2 -10  137.29    5.40
   6  -2 -10  158.68    6.90
  -6   2  10  144.39    5.60
  -6   2  10  146.39    5.20
  -6   2  10  143.59    6.00
   5  -2 -10   25.60    3.70
   5  -2 -10   22.30    2.60
   5  -2 -10   25.70    3.80
  -5   2  10   23.20    2.90
  -5   2  10   25.00    2.30
  -5   2  10   25.90    3.40
  -5   2  10   15.70    3.70
   4  -2 -10   28.40    2.10
   4  -2 -10   29.60    3.30
   4  -2 -10   29.40    3.00
  -4   2  10   27.20    2.70
  -4   2  10   28.50    1.80
  -4   2  10   31.90    2.80
  -4   2  10   29.80    3.10
  -4   2  10   24.60    3.10
   3  -2 -10   10.90    2.50
   3  -2 -10    8.70    2.20
  -3   2  10    7.60    2.10
  -3   2  10   13.30    2.20
  -3   2  10   10.10    2.50
  -3   2  10   10.00    2.50
   2  -2 -10  249.97    6.70
   2  -2 -10  251.97    7.50
  -2   2  10  248.38    6.70
  -2   2  10  241.88    7.00
  -2   2  10  255.17    7.00
  -2   2  10  239.08    7.30
   1  -2 -10   16.20    1.90
   1  -2 -10   16.40    2.00
  -1   2  10   15.60    2.00
  -1   2  10   16.10    2.00
  -1   2  10   13.70    2.10
  -1   2  10   16.60    2.00
   0  -2 -10  932.51   20.80
   0  -2 -10  924.61   19.80
   0   2  10  911.01   19.60
   0   2  10  908.71   20.20
   0   2  10  926.31   18.80
   0   2  10  903.31   20.40
   0   2  10  950.00   20.20
   0   2  10  924.91   18.80
  -1  -2 -10   11.10    1.90
  -1  -2 -10   11.70    2.00
   1   2  10   10.70    1.40
   1   2  10   10.30    1.70
   1   2  10    7.60    1.80
   1   2  10   12.40    1.70
   1   2  10   10.80    1.40
   1   2  10   10.80    1.80
  -2  -2 -10   27.00    2.50
   2   2  10   30.00    2.30
   2   2  10   27.30    2.40
   2   2  10   29.00    2.40
   2   2  10   28.00    2.40
   2   2  10   29.50    2.00
   3   2  10    2.80    1.20
   3   2  10    0.50    1.00
   3   2  10    3.40    1.30
   3   2  10    1.40    1.00
   3   2  10    2.00    1.10
   3   2  10    0.10    1.10
   3   2  10    2.10    1.10
   3   2  10    1.80    1.10
   4   2  10    3.10    1.40
   4   2  10    5.30    1.60
   4   2  10    4.40    1.30
   4   2  10    7.60    2.40
   4   2  10    2.70    1.40
   4   2  10    3.60    1.20
   4   2  10    3.10    1.20
   4   2  10    2.60    1.50
   5   2  10    0.90    1.40
   5   2  10    1.90    1.50
   5   2  10    1.20    1.30
   5   2  10    1.20    1.90
   5   2  10    2.10    1.80
   5   2  10    0.60    1.40
   5   2  10    1.50    1.30
   5   2  10    1.40    1.30
   6   2  10   -1.70    1.40
   6   2  10    0.30    1.70
   6   2  10   -0.30    2.70
   6   2  10   -0.90    1.30
   6   2  10    0.40    1.50
   6   2  10    1.20    1.70
   7   2  10   -4.00    1.90
   7   2  10    1.50    1.50
   7   2  10    2.10    1.90
   7   2  10   -0.40    1.90
   8   2  10   11.60    3.10
   8   2  10   14.60    3.30
   8   2  10   26.60    4.80
   7  -3 -10    4.00    3.20
  -7   3  10    1.60    2.90
   6  -3 -10   15.90    4.70
  -6   3  10    5.30    2.10
  -6   3  10    5.40    2.00
  -6   3  10    4.00    2.50
  -6   3  10    2.70    4.40
   5  -3 -10    9.20    2.20
   5  -3 -10   18.00    4.00
   5  -3 -10    9.90    2.20
  -5   3  10   11.40    3.70
  -5   3  10    7.80    1.90
  -5   3  10   13.20    3.50
  -5   3  10    8.10    2.60
   4  -3 -10   22.60    3.30
   4  -3 -10   14.30    2.60
   4  -3 -10   14.60    2.90
  -4   3  10   15.20    2.10
  -4   3  10   15.40    2.70
  -4   3  10   13.40    3.00
  -4   3  10   13.10    3.00
   3  -3 -10    8.60    2.50
   3  -3 -10    5.10    1.30
   3  -3 -10    6.80    1.80
  -3   3  10    7.00    1.60
  -3   3  10    5.40    1.40
  -3   3  10    5.30    1.50
  -3   3  10    6.30    2.30
  -3   3  10    5.10    1.50
   2  -3 -10  135.69    4.30
   2  -3 -10  139.09    5.40
   2  -3 -10  132.29    3.70
  -2   3  10  132.99    3.70
  -2   3  10  143.99    4.90
  -2   3  10  133.89    4.90
  -2   3  10  131.79    4.30
  -2   3  10  136.39    5.20
   1  -3 -10  110.59    3.60
   1  -3 -10  115.89    4.70
   1  -3 -10  108.39    3.10
  -1   3  10  111.29    4.30
  -1   3  10  117.79    4.30
  -1   3  10  119.99    4.30
  -1   3  10  109.89    3.30
  -1   3  10  112.39    3.80
   0  -3 -10  320.87    7.40
   0  -3 -10  318.67    7.80
   0  -3 -10  321.97    8.90
   0   3  10  340.77    8.60
   0   3  10  331.17    8.60
   0   3  10  326.57    7.50
   0   3  10  325.97    8.60
   0   3  10  321.17    7.70
  -1  -3 -10    5.10    1.60
  -1  -3 -10    3.90    1.20
   1   3  10    6.80    1.90
   1   3  10    4.20    1.00
   1   3  10    5.30    1.40
   1   3  10    8.30    1.60
   1   3  10    6.30    1.60
   1   3  10    6.40    1.70
  -2  -3 -10   96.19    4.20
   2   3  10   94.99    3.50
   2   3  10   96.79    3.90
   2   3  10   93.29    3.80
   2   3  10   97.69    3.60
   2   3  10   97.19    3.90
   2   3  10   95.59    3.50
   3   3  10    0.40    1.10
   3   3  10   -1.60    1.10
   3   3  10    0.60    1.00
   3   3  10   -0.10    1.10
   3   3  10   -0.40    1.00
   3   3  10   -0.10    1.00
   3   3  10    0.70    1.20
   3   3  10   -0.70    0.90
   4   3  10   68.59    3.40
   4   3  10   75.09    3.60
   4   3  10   72.99    3.70
   4   3  10   71.19    4.00
   4   3  10   71.59    3.70
   4   3  10   72.49    3.70
   4   3  10   75.89    3.60
   4   3  10   71.09    3.80
   5   3  10   24.60    2.70
   5   3  10   29.30    3.50
   5   3  10   30.60    3.90
   5   3  10   26.60    2.90
   5   3  10   26.50    2.80
   5   3  10   28.00    3.10
   5   3  10   28.50    2.80
   6   3  10    1.00    1.50
   6   3  10   -0.90    1.40
   6   3  10   -0.30    1.60
   6   3  10    1.20    1.40
   6   3  10    1.30    1.60
   6   3  10    0.70    1.60
   7   3  10   17.50    4.20
   7   3  10   13.00    3.20
   7   3  10   13.30    4.10
   7   3  10   13.20    3.60
   7   3  10    9.50    3.10
   7   3  10   11.10    3.70
   8   3  10   34.40    5.40
   8   3  10   34.90    4.70
   6  -4 -10    6.20    2.90
  -6   4  10    7.80    3.40
   5  -4 -10   66.89    4.90
   5  -4 -10   60.39    4.90
  -5   4  10   55.59    4.60
  -5   4  10   63.99    4.30
  -5   4  10   58.49    5.00
  -5   4  10   61.79    4.80
   4  -4 -10    6.30    2.10
   4  -4 -10    6.30    1.70
  -4   4  10    4.90    1.90
  -4   4  10    8.00    2.00
  -4   4  10    7.40    1.80
  -4   4  10    9.80    3.00
   3  -4 -10   22.60    2.40
   3  -4 -10   27.20    2.80
  -3   4  10   29.10    2.90
  -3   4  10   25.00    2.50
  -3   4  10   24.20    3.10
   2  -4 -10   25.00    2.50
   2  -4 -10   25.90    3.50
   2  -4 -10   23.80    2.00
  -2   4  10   25.60    2.20
  -2   4  10   23.30    2.20
  -2   4  10   23.50    2.70
  -2   4  10   23.20    2.60
  -2   4  10   25.20    2.90
   1  -4 -10   17.80    2.60
   1  -4 -10   20.90    1.60
   1  -4 -10   21.50    2.00
  -1   4  10   22.70    2.60
  -1   4  10   21.80    2.30
  -1   4  10   20.60    2.40
  -1   4  10   19.80    2.00
  -1   4  10   22.80    1.80
   0  -4 -10    1.10    1.00
   0  -4 -10    0.70    0.70
   0  -4 -10    0.80    1.00
   0   4  10    1.70    1.10
   0   4  10    0.60    0.90
   0   4  10    0.30    1.10
   0   4  10    1.60    0.90
   0   4  10   -0.40    1.00
  -1  -4 -10    5.70    1.90
   1   4  10    5.20    1.40
   1   4  10    8.70    2.10
   1   4  10    4.60    1.40
   1   4  10    8.90    2.20
  -2  -4 -10   74.79    3.60
   2   4  10   72.99    3.50
   2   4  10   74.39    3.30
   2   4  10   73.79    2.90
   2   4  10   72.19    2.70
   2   4  10   70.29    3.30
  -3  -4 -10    0.40    1.00
   3   4  10    1.00    1.00
   3   4  10    0.90    1.00
   3   4  10    0.50    1.20
   3   4  10    1.50    1.30
   3   4  10    0.60    1.20
   3   4  10    0.70    1.30
   4   4  10   14.00    2.30
   4   4  10   13.60    2.40
   4   4  10   18.20    2.50
   4   4  10   18.40    2.70
   4   4  10   13.50    2.50
   4   4  10   14.80    2.80
   4   4  10   15.40    2.70
   5   4  10    0.80    1.40
   5   4  10    1.90    1.80
   5   4  10    2.00    1.20
   5   4  10   -0.10    1.70
   5   4  10    0.30    1.80
   5   4  10    0.50    1.20
   5   4  10    0.80    1.30
   5   4  10    1.30    1.20
   6   4  10    1.40    2.40
   6   4  10    1.70    1.50
   6   4  10    1.60    1.30
   6   4  10    3.10    1.60
   6   4  10    2.90    1.70
   6   4  10    3.80    1.80
   6   4  10    2.50    1.70
   7   4  10    1.10    1.70
   7   4  10   -0.50    1.60
   7   4  10    3.30    2.10
   7   4  10    1.70    1.90
   7   4  10    1.80    2.00
   7   4  10    1.50    2.10
   8   4  10   -0.50    2.30
   8   4  10    2.40    2.20
   8   4  10    2.30    2.30
   8   4  10   -2.40    2.50
   5  -5 -10    3.10    2.40
  -5   5  10    1.10    2.50
  -5   5  10   -0.30    2.10
   4  -5 -10   31.80    3.40
   4  -5 -10   27.80    4.60
  -4   5  10   25.60    4.20
  -4   5  10   25.60    3.50
  -4   5  10   33.00    3.80
  -4   5  10   33.90    3.80
   3  -5 -10   80.79    4.50
   3  -5 -10   78.89    3.40
  -3   5  10   82.89    3.50
  -3   5  10   89.99    4.70
  -3   5  10   93.49    4.60
  -3   5  10   85.99    4.30
   2  -5 -10   36.30    3.40
   2  -5 -10   36.60    2.00
  -2   5  10   37.20    3.50
  -2   5  10   28.50    4.80
  -2   5  10   39.30    2.90
  -2   5  10   35.10    2.00
   1  -5 -10    1.40    1.70
   1  -5 -10    2.50    1.50
  -1   5  10    2.10    1.50
  -1   5  10    0.00    1.10
  -1   5  10    1.50    1.30
   0  -5 -10    7.70    2.40
   0  -5 -10    5.40    1.60
   0  -5 -10    4.80    1.50
   0   5  10   10.40    2.20
   0   5  10    4.90    1.50
   0   5  10    9.10    2.70
  -1  -5 -10    4.90    1.30
  -1  -5 -10    5.20    1.30
  -1  -5 -10    3.20    1.30
   1   5  10    4.40    1.30
   1   5  10    3.80    1.40
   1   5  10    2.80    1.60
  -2  -5 -10  356.96    9.20
  -2  -5 -10  372.06    9.80
  -2  -5 -10  383.36    9.80
   2   5  10  365.96    9.40
   2   5  10  365.86    8.00
   2   5  10  354.86    8.00
   2   5  10  362.76    9.60
   2   5  10  364.96    9.50
  -3  -5 -10    0.10    1.30
  -3  -5 -10    0.70    1.10
  -3  -5 -10    0.10    1.10
   3   5  10    2.30    1.30
   3   5  10    0.10    1.10
   3   5  10    1.30    0.90
   3   5  10    1.00    1.30
   3   5  10    0.10    1.10
  -4  -5 -10   92.69    4.30
   4   5  10   88.19    4.00
   4   5  10   85.49    4.10
   4   5  10   93.89    4.30
   4   5  10   88.79    4.10
   4   5  10   88.99    4.40
   4   5  10   91.89    3.70
  -5  -5 -10    2.50    1.70
   5   5  10    0.10    1.10
   5   5  10    2.10    1.60
   5   5  10    0.00    1.50
   5   5  10    2.10    1.90
   5   5  10    0.30    1.20
   5   5  10   -0.10    1.30
   5   5  10    1.00    1.70
   6   5  10   21.60    2.90
   6   5  10   20.70    3.40
   6   5  10   21.20    3.40
   6   5  10   19.40    2.90
   6   5  10   16.90    3.50
   6   5  10   22.60    4.50
   7   5  10    9.50    3.10
   7   5  10    5.80    2.30
   7   5  10   10.10    3.60
   7   5  10    6.50    2.50
   7   5  10    5.70    2.30
   8   5  10   -1.50    2.30
   8   5  10   -1.30    2.50
  -4   6  10   40.00    4.90
  -4   6  10   37.80    4.50
   3  -6 -10    2.20    2.70
  -3   6  10    5.90    2.80
  -3   6  10    1.90    1.90
   2  -6 -10   -0.40    2.20
  -2   6  10    3.10    1.80
   1  -6 -10    4.10    1.70
   1  -6 -10    1.90    1.60
   1  -6 -10    1.10    1.80
  -1   6  10    2.10    1.90
  -1   6  10    2.10    1.60
   0  -6 -10    4.60    1.50
   0  -6 -10   11.10    3.10
   0  -6 -10    5.80    1.70
   0   6  10   10.90    2.70
   0   6  10    5.40    1.70
   0   6  10   12.80    2.90
  -1  -6 -10    1.30    1.30
  -1  -6 -10    1.30    1.40
  -1  -6 -10    0.60    1.20
   1   6  10    1.00    1.50
   1   6  10   -0.70    1.50
   1   6  10    2.50    1.30
  -2  -6 -10   71.29    3.80
  -2  -6 -10   81.09    4.10
  -2  -6 -10   68.89    3.70
   2   6  10   76.79    4.20
   2   6  10   76.59    4.20
   2   6  10   77.29    3.80
  -3  -6 -10   19.40    2.70
  -3  -6 -10   20.20    2.70
  -3  -6 -10   20.10    2.80
   3   6  10   17.10    1.70
   3   6  10   23.80    3.00
   3   6  10   22.90    3.10
   3   6  10   20.30    1.90
  -4  -6 -10   22.60    3.10
  -4  -6 -10   20.80    2.90
  -4  -6 -10   20.90    2.70
   4   6  10   16.40    5.00
   4   6  10   21.10    3.00
   4   6  10   18.60    2.40
   4   6  10   24.00    3.00
   4   6  10   19.70    2.60
  -5  -6 -10   34.90    3.50
   5   6  10   29.00    3.10
   5   6  10   28.70    3.60
   5   6  10   26.90    3.10
   5   6  10   27.90    3.50
   5   6  10   28.60    2.80
  -6  -6 -10    4.60    1.90
   6   6  10    3.30    2.00
   6   6  10    3.20    1.60
   6   6  10    1.70    1.20
   6   6  10    2.70    1.90
   6   6  10    6.10    2.60
  -7  -6 -10   -1.10    2.00
   7   6  10   -1.40    2.20
   7   6  10    1.70    1.40
   7   6  10    1.20    2.20
  -8  -6 -10    1.20    2.40
   8   6  10    0.30    2.80
   8   6  10   -1.30    2.50
   3  -7 -10   29.60    5.80
  -3   7  10   20.10    5.10
   2  -7 -10   10.30    2.50
  -2   7  10   15.80    4.00
   1  -7 -10    6.50    2.00
   1  -7 -10    2.90    2.60
  -1   7  10    5.40    2.00
   0  -7 -10   98.69    5.10
   0  -7 -10  103.79    5.70
   0  -7 -10   79.89    5.00
   0   7  10   93.29    5.80
  -1  -7 -10   81.09    4.90
  -1  -7 -10   82.59    4.40
  -1  -7 -10   70.09    4.40
   1   7  10   76.79    4.80
   1   7  10   67.39    4.80
  -2  -7 -10   18.60    3.20
  -2  -7 -10   19.80    2.90
  -2  -7 -10   12.00    3.30
   2   7  10   14.50    3.50
  -3  -7 -10    0.90    1.30
  -3  -7 -10    0.20    1.40
  -3  -7 -10   -0.70    1.70
   3   7  10    0.10    1.60
   3   7  10   -1.00    1.80
  -4  -7 -10   11.10    3.00
  -4  -7 -10   15.60    2.80
   4   7  10   13.10    2.20
   4   7  10   11.30    3.40
   4   7  10   12.10    2.30
   4   7  10   14.80    3.40
  -5  -7 -10    0.00    1.60
   5   7  10   -1.50    1.90
   5   7  10    1.30    1.80
   5   7  10    0.90    1.90
   5   7  10    0.10    1.70
  -6  -7 -10    1.70    1.90
   6   7  10    0.90    2.10
   6   7  10    0.90    1.20
   6   7  10    3.20    2.50
   6   7  10    0.30    2.10
  -7  -7 -10    0.90    2.20
   7   7  10   -1.80    2.40
   7   7  10   -1.20    3.50
   7   7  10   -0.20    2.50
  -8  -7 -10    3.20    2.80
   8   7  10   -0.10    3.10
   8   7  10   -2.90    2.80
   2  -8 -10    3.50    2.60
  -2   8  10    8.20    3.20
   1  -8 -10   17.60    4.30
   1  -8 -10   30.30    5.00
  -1   8  10   22.70    4.80
   0  -8 -10   17.60    3.80
   0   8  10   23.90    4.80
  -1  -8 -10    4.80    2.00
  -1  -8 -10    6.20    2.10
   1   8  10   12.80    4.00
  -2  -8 -10   13.80    3.80
  -2  -8 -10    5.30    1.80
   2   8  10    7.90    2.50
   2   8  10    3.80    2.40
  -3  -8 -10   -0.20    1.50
  -3  -8 -10   -1.10    1.40
   3   8  10    0.80    2.10
   3   8  10    0.00    2.30
  -4  -8 -10   25.00    3.80
  -4  -8 -10   28.00    3.40
   4   8  10   23.20    4.20
   4   8  10   20.70    4.40
  -5  -8 -10    2.70    2.10
  -5  -8 -10    4.10    1.60
   5   8  10    2.80    2.30
   5   8  10    9.00    2.80
  -6  -8 -10   22.50    4.30
   6   8  10   18.50    4.30
   6   8  10   13.90    4.40
  -7  -8 -10   -1.10    2.40
   7   8  10    2.10    2.90
   0  -9 -10    1.70    2.50
   0  -9 -10    5.50    2.70
   0   9  10    0.80    2.80
  -1  -9 -10   -1.70    2.10
  -1  -9 -10    1.80    2.50
   1   9  10    4.10    2.70
  -2  -9 -10    0.30    2.20
  -2  -9 -10    0.90    2.00
   2   9  10    4.40    2.70
  -3  -9 -10   -0.30    2.10
  -3  -9 -10    2.00    2.00
   3   9  10    4.70    2.70
   3   9  10   -0.60    2.80
  -4  -9 -10   17.80    3.80
  -4  -9 -10   12.30    2.60
   4   9  10   18.50    5.00
  -5  -9 -10   -1.10    2.30
   5   9  10    1.20    2.70
  -6  -9 -10    8.70    3.00
   6   9  10    7.70    2.90
   6   6 -11   50.39   10.70
   5   6 -11    7.10    3.40
   5   6 -11    1.80    2.40
  -5  -6  11   -0.60    2.30
  -5  -6  11   -0.10    1.90
   4   6 -11   12.10    3.90
   4   6 -11   21.80    5.60
  -4  -6  11   12.90    4.40
  -4  -6  11    8.80    2.10
   3   6 -11   29.90    5.70
   3   6 -11   23.00    4.30
  -3  -6  11   25.20    7.20
  -3  -6  11   15.00    3.80
  -3  -6  11   25.70    4.50
   2   6 -11    7.90    3.10
   2   6 -11    7.20    2.90
  -2  -6  11    5.20    2.50
  -2  -6  11    7.30    2.40
   1   6 -11   12.90    3.50
   1   6 -11   15.00    4.90
  -1  -6  11   12.30    2.90
  -1  -6  11   21.20    4.80
   0   6 -11    7.50    3.30
   0   6 -11   10.40    3.40
   0  -6  11    3.40    2.80
   0  -6  11    3.60    2.50
  -7  -5  11   16.50    4.70
  -7  -5  11   23.80    5.60
  -6  -5  11    8.60    2.20
  -6  -5  11   10.00    2.70
   5   5 -11   11.00    3.20
   5   5 -11   31.30    6.00
  -5  -5  11   16.60    3.70
  -5  -5  11   20.40    3.70
   4   5 -11   20.60    3.10
  -4  -5  11   15.60    3.60
  -4  -5  11   20.60    3.40
  -4  -5  11   17.50    3.40
   3   5 -11   59.89    3.90
   3   5 -11   73.09    5.70
  -3  -5  11   61.19    4.60
  -3  -5  11   54.19    4.40
  -3  -5  11   56.09    4.10
   2   5 -11    4.00    2.00
   2   5 -11    5.20    2.30
  -2  -5  11    3.10    1.90
  -2  -5  11    2.00    1.90
  -2  -5  11    3.20    2.40
   1   5 -11    1.70    2.10
  -1  -5  11   -1.50    2.60
  -1  -5  11   -0.40    1.70
  -1  -5  11    0.70    1.90
   0   5 -11   28.10    5.60
   0   5 -11   22.50    4.20
   0  -5  11   20.70    4.40
   0  -5  11   23.60    4.10
  -1   5 -11    5.40    3.20
  -1   5 -11    7.20    2.80
   1  -5  11    4.60    2.50
   1  -5  11    0.10    2.20
  -2   5 -11   -1.00    3.00
  -2   5 -11    4.40    3.60
   2  -5  11   -1.00    2.70
   2  -5  11    2.60    1.90
  -7  -4  11    3.30    2.10
  -7  -4  11    2.50    2.50
   6   4 -11    2.00    1.70
  -6  -4  11   -1.30    1.90
  -6  -4  11   -1.50    1.70
  -6  -4  11    1.50    2.30
   5   4 -11   52.59    5.20
   5   4 -11   40.30    2.90
  -5  -4  11   45.40    4.00
  -5  -4  11   37.10    4.00
  -5  -4  11   45.20    4.60
   4   4 -11   28.60    2.50
  -4  -4  11   26.00    3.50
  -4  -4  11   27.10    2.90
  -4  -4  11   34.60    3.30
  -4  -4  11   31.10    3.90
   3   4 -11   81.39    5.20
   3   4 -11   82.59    3.70
  -3  -4  11   79.99    5.20
  -3  -4  11   77.69    3.80
  -3  -4  11   80.39    4.70
  -3  -4  11   78.79    4.30
   2   4 -11   -0.40    1.70
   2   4 -11    0.60    1.50
  -2  -4  11   -1.50    1.30
  -2  -4  11   -0.40    1.80
  -2  -4  11    0.90    1.40
   1   4 -11    9.70    2.70
   1   4 -11    3.60    2.00
  -1  -4  11    8.30    2.90
  -1  -4  11    6.60    1.90
  -1  -4  11    6.10    2.10
   0   4 -11   11.90    3.10
   0   4 -11   13.40    4.30
   0  -4  11   10.40    3.40
   0  -4  11    5.90    2.00
   0  -4  11    6.60    1.90
  -1   4 -11   82.49    5.00
  -1   4 -11   87.29    6.00
   1  -4  11   74.39    4.90
   1  -4  11   85.79    5.00
   1  -4  11   75.49    5.30
  -2   4 -11   46.70    6.20
  -2   4 -11   42.40    4.70
   2  -4  11   50.19    4.80
   2  -4  11   42.40    4.40
  -3   4 -11   33.40    5.30
   3  -4  11   33.40    4.10
   3  -4  11   30.30    4.90
   8   3 -11   35.00    8.60
   7   3 -11    1.20    2.00
  -7  -3  11   -2.90    2.30
   6   3 -11    5.60    2.10
   6   3 -11    5.80    1.50
  -6  -3  11    4.60    2.30
  -6  -3  11    4.40    2.00
   5   3 -11  121.49    3.80
   5   3 -11  118.19    3.70
  -5  -3  11  123.09    5.80
  -5  -3  11  138.29    5.70
   4   3 -11   14.00    1.70
   4   3 -11   20.70    4.20
  -4  -3  11   21.40    3.20
  -4  -3  11   13.90    3.50
  -4  -3  11   10.60    2.70
   3   3 -11    1.80    1.00
   3   3 -11    3.20    1.80
  -3  -3  11    1.80    1.10
  -3  -3  11    1.10    1.50
  -3  -3  11    2.20    1.50
  -3  -3  11    0.30    1.20
   2   3 -11   43.90    3.90
   2   3 -11   36.90    2.40
  -2  -3  11   41.80    3.10
  -2  -3  11   39.80    2.60
  -2  -3  11   42.20    3.80
  -2  -3  11   37.30    3.50
   1   3 -11    2.40    1.50
   1   3 -11    3.20    1.30
   1   3 -11    2.80    1.60
  -1  -3  11    2.20    1.50
  -1  -3  11    3.00    1.40
  -1  -3  11    2.90    1.30
  -1  -3  11    3.30    1.60
   0   3 -11   17.40    3.00
   0   3 -11   18.50    3.60
   0   3 -11   18.00    2.70
   0  -3  11   13.50    2.80
   0  -3  11   16.00    2.80
   0  -3  11   18.30    2.90
  -1   3 -11   35.20    4.30
  -1   3 -11   24.90    3.20
  -1   3 -11   26.10    3.30
   1  -3  11   26.70    3.50
   1  -3  11   25.50    3.20
   1  -3  11   22.40    3.10
  -2   3 -11    1.40    1.80
  -2   3 -11    2.80    2.30
  -2   3 -11    1.00    2.00
   2  -3  11   -0.50    1.50
   2  -3  11   -0.10    1.80
   2  -3  11    3.60    2.20
  -3   3 -11    1.20    2.40
  -3   3 -11    2.20    2.10
   3  -3  11   -0.90    1.70
  -4   3 -11   21.50    4.80
   4  -3  11   23.80    4.50
   4  -3  11   20.30    4.00
   4  -3  11   20.90    4.30
   8   2 -11   -4.20    2.30
  -8  -2  11   -2.60    2.90
   7   2 -11   25.30    5.10
   7   2 -11   18.30    3.90
  -7  -2  11   16.40    4.20
   6   2 -11    4.00    1.90
   6   2 -11   12.20    4.10
  -6  -2  11    4.30    2.00
  -6  -2  11    4.40    2.40
   5   2 -11   65.19    4.80
  -5  -2  11   56.19    4.40
  -5  -2  11   64.89    4.10
   4   2 -11    2.50    1.70
   4   2 -11    0.30    1.40
   4   2 -11    1.70    1.40
  -4  -2  11   -1.70    1.60
  -4  -2  11    0.50    1.30
  -4  -2  11    0.90    1.40
   3   2 -11   12.00    2.10
   3   2 -11   17.90    3.60
  -3  -2  11   17.30    2.50
  -3  -2  11   14.50    2.30
  -3  -2  11   17.30    2.80
   2   2 -11    1.30    0.80
   2   2 -11    1.20    1.10
   2   2 -11   -0.50    2.40
  -2  -2  11    0.80    1.30
  -2  -2  11    1.40    1.10
  -2  -2  11    1.90    1.20
  -2  -2  11    0.50    1.10
  -2  -2  11    2.10    0.90
   1   2 -11  469.35   11.80
   1   2 -11  479.35   10.80
  -1  -2  11  480.75   10.70
  -1  -2  11  469.85   15.30
  -1  -2  11  483.45   12.70
  -1  -2  11  485.35   12.20
   0   2 -11  201.48    6.50
   0   2 -11  199.78    5.80
   0   2 -11  219.88    7.50
   0  -2  11  212.78    7.10
   0  -2  11  205.38    6.80
   0  -2  11  202.18    7.10
   0  -2  11  211.08    6.60
   0  -2  11  205.68    5.90
  -1   2 -11   82.69    5.00
  -1   2 -11   77.49    4.00
  -1   2 -11   77.39    3.80
   1  -2  11   83.99    4.50
   1  -2  11   75.69    3.80
   1  -2  11   84.49    4.10
   1  -2  11   80.69    4.60
   1  -2  11   87.79    6.30
  -2   2 -11    5.10    1.80
  -2   2 -11    4.10    1.70
  -2   2 -11    3.60    1.60
   2  -2  11    9.40    2.70
   2  -2  11    6.50    1.60
   2  -2  11    5.50    1.60
  -3   2 -11    3.80    2.00
  -3   2 -11    5.00    2.30
  -3   2 -11    1.90    1.80
   3  -2  11    3.50    1.70
   3  -2  11    3.70    1.70
   3  -2  11    3.30    2.20
  -4   2 -11    6.90    2.50
   4  -2  11    7.80    2.10
   4  -2  11    3.70    2.00
   4  -2  11    6.30    2.00
  -5   2 -11   60.69    5.90
   5  -2  11   63.29    6.10
   5  -2  11   59.99    5.70
   5  -2  11   52.89    5.10
   8   1 -11   20.50    6.10
   8   1 -11    1.20    2.40
   7   1 -11   15.10    3.90
  -7  -1  11   12.10    2.60
   6   1 -11   14.40    4.20
   6   1 -11    6.40    1.90
  -6  -1  11    8.40    2.10
   5   1 -11   10.50    2.90
   5   1 -11    9.80    2.90
   5   1 -11   17.80    3.50
  -5  -1  11    6.50    1.70
  -5  -1  11   16.30    3.30
   4   1 -11  160.68    6.80
   4   1 -11  146.09    5.90
   4   1 -11  133.89    5.20
  -4  -1  11  148.49    5.80
  -4  -1  11  139.29    5.80
  -4  -1  11  158.08    5.60
   3   1 -11   41.80    3.80
   3   1 -11   45.20    3.50
   3   1 -11   40.00    2.60
  -3  -1  11   44.50    3.20
  -3  -1  11   43.30    3.50
   2   1 -11    9.50    1.90
   2   1 -11   13.00    2.60
   2   1 -11    9.10    1.90
  -2  -1  11   10.70    2.20
  -2  -1  11    9.30    2.20
  -2  -1  11   14.40    2.50
   1   1 -11  126.69    4.70
   1   1 -11  130.09    3.40
   1   1 -11  130.39    5.30
  -1  -1  11  136.79    5.20
  -1  -1  11  135.29    5.00
  -1  -1  11  134.09    3.50
  -1  -1  11  139.79    5.30
  -1  -1  11  134.29    4.90
   0   1 -11    6.60    1.50
   0   1 -11    8.40    2.50
   0   1 -11    7.90    1.90
   0  -1  11    9.80    2.20
   0  -1  11    9.20    2.20
   0  -1  11    7.70    1.70
   0  -1  11    8.40    2.20
   0  -1  11   10.00    2.20
  -1   1 -11    2.80    1.20
  -1   1 -11    3.60    1.50
  -1   1 -11    1.90    1.10
   1  -1  11    2.90    1.30
   1  -1  11    0.60    1.20
   1  -1  11    1.10    1.20
  -2   1 -11   -1.20    1.30
  -2   1 -11   -0.40    1.20
  -2   1 -11    0.30    1.40
   2  -1  11   -1.50    1.10
   2  -1  11    2.20    1.30
   2  -1  11   -0.50    1.10
   2  -1  11    2.20    1.50
  -3   1 -11   20.30    2.80
  -3   1 -11   25.10    4.10
  -3   1 -11   23.00    3.10
   3  -1  11   22.70    3.10
   3  -1  11   19.80    2.70
   3  -1  11   19.90    3.00
  -4   1 -11   89.39    5.10
   4  -1  11   77.39    4.30
   4  -1  11   86.19    4.90
   4  -1  11   82.99    5.10
   4  -1  11   84.99    4.10
  -5   1 -11  100.89    6.10
   5  -1  11   99.39    5.90
   5  -1  11   94.69    4.60
   5  -1  11  102.39    6.00
  -6   1 -11   -0.20    2.90
   6  -1  11    0.80    2.40
   6  -1  11   -0.80    2.20
   7   0 -11   13.40    4.50
   7   0 -11   15.40    4.70
  -7   0  11    8.40    2.40
   6   0 -11   13.40    3.60
   6   0 -11   19.50    4.00
   5   0 -11    6.20    1.70
   5   0 -11   12.00    3.30
   5   0 -11    5.60    1.60
  -5   0  11    4.90    1.60
  -5   0  11    2.20    2.00
  -5   0  11    5.20    1.90
   4   0 -11    2.70    1.50
   4   0 -11    1.80    1.30
  -4   0  11    7.20    2.50
  -4   0  11    0.80    1.80
  -4   0  11    0.60    1.60
   3   0 -11  141.69    5.60
   3   0 -11  144.29    5.50
   3   0 -11  129.19    4.80
  -3   0  11  136.29    5.30
  -3   0  11  130.69    5.40
  -3   0  11  138.49    5.00
   2   0 -11   16.70    2.00
   2   0 -11   15.00    2.40
   2   0 -11   15.30    2.60
  -2   0  11   17.80    2.20
  -2   0  11   18.10    2.00
  -2   0  11   18.30    2.80
   1   0 -11  116.19    4.90
   1   0 -11  105.29    4.20
   1   0 -11  112.19    4.60
  -1   0  11  114.99    4.50
  -1   0  11  114.79    4.30
  -1   0  11  108.79    4.50
   0   0 -11  203.48    6.20
   0   0 -11  212.48    6.70
   0   0  11  209.68    5.10
   0   0  11  211.18    6.80
   0   0  11  203.78    6.40
   0   0  11  219.58    6.40
  -1   0 -11    5.20    1.30
  -1   0 -11    9.30    2.60
  -1   0 -11    6.00    1.60
   1   0  11   11.30    2.10
   1   0  11   10.70    2.00
   1   0  11    6.80    1.60
   1   0  11    6.50    2.10
   1   0  11    8.40    2.50
  -2   0 -11   30.00    3.20
  -2   0 -11   28.10    2.50
   2   0  11   29.50    2.60
   2   0  11   30.00    3.20
   2   0  11   29.60    2.80
   2   0  11   30.10    2.90
   2   0  11   30.70    2.60
  -3   0 -11   55.19    3.50
   3   0  11   54.99    3.90
   3   0  11   52.69    3.70
   3   0  11   55.49    3.50
   3   0  11   56.49    3.30
   3   0  11   60.59    4.30
   3   0  11   56.59    3.50
  -4   0 -11   55.09    4.10
   4   0  11   53.39    4.00
   4   0  11   51.99    4.10
   4   0  11   54.49    3.40
   4   0  11   57.19    4.20
   4   0  11   51.79    3.60
  -5   0 -11    0.50    2.10
   5   0  11    1.10    1.50
   5   0  11   -1.00    1.70
   5   0  11    2.00    1.80
   5   0  11    1.60    1.70
  -6   0 -11    2.00    2.70
   6   0  11   12.20    4.10
   6   0  11    4.10    2.20
   6   0  11    3.40    1.70
   7  -1 -11    4.30    2.40
  -7   1  11    1.40    2.20
   6  -1 -11    2.00    1.80
   6  -1 -11    1.30    1.10
   6  -1 -11    0.00    2.00
  -6   1  11   -1.10    2.30
  -6   1  11   -2.40    1.70
   5  -1 -11    1.20    2.00
   5  -1 -11    2.10    1.70
  -5   1  11    2.40    2.00
  -5   1  11   -0.50    2.10
  -5   1  11   -2.90    1.80
   4  -1 -11   16.50    2.80
   4  -1 -11   15.60    2.90
  -4   1  11   16.20    2.70
  -4   1  11   10.30    3.10
  -4   1  11   10.80    2.10
   3  -1 -11  173.58    6.20
   3  -1 -11  172.58    5.80
  -3   1  11  174.08    5.70
  -3   1  11  164.38    5.90
  -3   1  11  168.08    5.90
   2  -1 -11    1.60    1.00
   2  -1 -11    0.90    1.20
  -2   1  11    2.20    0.90
  -2   1  11    0.80    1.00
  -2   1  11    1.60    1.50
   1  -1 -11   25.50    2.50
   1  -1 -11   33.50    2.70
  -1   1  11   28.90    2.70
  -1   1  11   28.20    2.40
  -1   1  11   27.40    2.40
   0  -1 -11   71.19    3.80
   0  -1 -11   65.59    3.40
   0   1  11   66.39    3.20
   0   1  11   64.39    2.10
   0   1  11   66.79    2.10
   0   1  11   64.99    3.30
   0   1  11   61.69    3.30
  -1  -1 -11  154.08    5.50
   1   1  11  149.88    4.20
   1   1  11  155.18    5.30
   1   1  11  148.79    5.30
   1   1  11  150.88    4.30
   1   1  11  146.49    5.10
   1   1  11  157.48    5.10
  -2  -1 -11  117.79    4.90
   2   1  11  120.49    4.00
   2   1  11  113.99    4.40
   2   1  11  121.49    4.40
   2   1  11  117.99    4.80
   2   1  11  110.39    4.10
   2   1  11  114.79    4.70
   2   1  11  120.29    4.90
   3   1  11  221.68    6.70
   3   1  11  228.28    7.30
   3   1  11  222.58    7.50
   3   1  11  225.58    6.60
   3   1  11  226.88    7.50
   3   1  11  215.68    6.60
  -4  -1 -11    2.30    1.60
   4   1  11    2.30    1.50
   4   1  11    2.70    1.60
   4   1  11    1.20    1.60
   4   1  11    3.10    1.90
   4   1  11    0.40    1.30
   4   1  11    0.70    1.20
   4   1  11    2.40    2.00
  -5  -1 -11    3.90    2.00
   5   1  11    2.40    1.80
   5   1  11    2.20    1.60
   5   1  11    1.50    1.60
   5   1  11    1.80    1.40
  -6  -1 -11    4.70    2.30
   6   1  11    5.60    2.20
   6   1  11    3.00    1.90
   6   1  11    3.40    2.10
   6   1  11    4.70    1.60
   7   1  11   63.89    6.10
   7   1  11   68.49    6.10
   7  -2 -11   -0.20    2.50
   7  -2 -11    3.90    3.10
  -7   2  11   -1.10    2.30
   6  -2 -11    0.60    2.10
   6  -2 -11    2.20    2.00
  -6   2  11    1.60    1.90
  -6   2  11    5.40    2.60
   5  -2 -11   17.20    3.70
   5  -2 -11   11.60    3.30
   5  -2 -11    9.90    2.40
  -5   2  11    7.60    2.40
  -5   2  11   13.30    3.80
  -5   2  11   15.20    4.60
   4  -2 -11    4.20    1.60
   4  -2 -11    9.50    3.10
  -4   2  11    3.50    1.70
  -4   2  11    3.20    1.80
  -4   2  11    7.80    2.40
   3  -2 -11    1.60    1.30
   3  -2 -11    0.80    1.20
  -3   2  11   -0.30    1.10
  -3   2  11    0.80    1.50
  -3   2  11   -0.30    1.50
   2  -2 -11   30.00    2.80
   2  -2 -11   29.60    2.50
  -2   2  11   30.50    3.00
  -2   2  11   28.00    2.70
  -2   2  11   33.00    2.80
  -2   2  11   31.50    2.80
   1  -2 -11    8.20    2.00
   1  -2 -11    7.10    1.90
  -1   2  11    9.30    2.00
  -1   2  11    6.90    2.00
  -1   2  11    6.50    1.50
  -1   2  11   11.40    1.90
   0  -2 -11   36.80    2.80
   0  -2 -11   37.50    2.60
   0   2  11   37.90    2.70
   0   2  11   34.80    2.60
   0   2  11   32.30    2.70
   0   2  11   37.30    1.60
   0   2  11   39.60    1.80
   0   2  11   37.30    2.40
  -1  -2 -11  359.86    9.20
  -1  -2 -11  360.26    9.80
   1   2  11  352.06    8.20
   1   2  11  341.97    9.10
   1   2  11  356.96    9.10
   1   2  11  360.16    8.10
   1   2  11  341.97    8.80
   1   2  11  340.77    9.30
  -2  -2 -11   31.50    2.80
   2   2  11   33.50    2.80
   2   2  11   33.60    2.30
   2   2  11   37.30    2.80
   2   2  11   32.10    2.70
   2   2  11   32.90    2.80
   2   2  11   35.40    2.30
   3   2  11    1.80    1.30
   3   2  11    2.60    1.20
   3   2  11    8.00    2.30
   3   2  11    3.80    1.40
   3   2  11    2.90    1.30
   3   2  11    3.10    1.30
   3   2  11    3.90    1.70
   3   2  11    4.00    1.30
   4   2  11   65.49    3.50
   4   2  11   58.49    3.50
   4   2  11   65.59    4.40
   4   2  11   62.59    3.80
   4   2  11   69.29    4.00
   4   2  11   65.19    3.60
   4   2  11   63.39    3.80
   4   2  11   58.49    3.80
   5   2  11    3.10    1.50
   5   2  11    2.40    1.70
   5   2  11    4.70    2.20
   5   2  11    2.80    1.40
   5   2  11    2.70    1.60
   5   2  11    2.00    1.70
   6   2  11    1.20    1.40
   6   2  11    0.10    1.70
   6   2  11    0.80    2.60
   6   2  11    1.70    1.80
   6   2  11    0.70    1.90
   6   2  11    0.50    1.70
   7   2  11   32.20    4.00
   7   2  11   33.80    4.50
   7   2  11   42.60    4.80
   7   2  11   29.40    5.00
   6  -3 -11    1.10    2.60
   6  -3 -11    1.30    2.00
  -6   3  11   -1.20    2.00
  -6   3  11   -0.40    2.00
   5  -3 -11   31.10    3.40
   5  -3 -11   44.00    4.60
   5  -3 -11   35.40    4.10
  -5   3  11   31.00    4.10
  -5   3  11   27.20    4.60
  -5   3  11   36.30    2.90
  -5   3  11   37.50    3.60
   4  -3 -11   12.50    2.50
   4  -3 -11    8.20    2.80
   4  -3 -11   17.50    3.30
  -4   3  11    7.60    1.90
  -4   3  11    8.90    2.10
  -4   3  11   10.00    3.30
   3  -3 -11    2.40    1.20
   3  -3 -11    0.40    1.10
   3  -3 -11    3.40    1.40
  -3   3  11    9.00    2.90
  -3   3  11    1.60    0.90
  -3   3  11    9.20    3.00
  -3   3  11    0.70    1.40
  -3   3  11    1.10    1.40
   2  -3 -11   38.50    1.80
   2  -3 -11   36.70    2.50
  -2   3  11   45.70    3.10
  -2   3  11   40.00    3.00
  -2   3  11   40.80    3.30
  -2   3  11   39.00    1.80
  -2   3  11   39.60    3.20
   1  -3 -11  167.98    4.90
   1  -3 -11  163.68    4.10
   1  -3 -11  168.28    5.90
  -1   3  11  167.38    5.50
  -1   3  11  164.88    4.20
  -1   3  11  171.58    5.70
  -1   3  11  170.78    5.70
  -1   3  11  166.88    5.10
   0  -3 -11  110.39    4.60
   0  -3 -11  105.69    3.80
   0   3  11  108.99    3.40
   0   3  11  110.79    4.20
   0   3  11  106.69    4.40
   0   3  11  107.09    3.20
   0   3  11  114.49    4.30
   0   3  11  102.59    3.70
  -1  -3 -11  429.16   10.30
  -1  -3 -11  438.66   11.30
   1   3  11  446.06   10.80
   1   3  11  432.86   10.70
   1   3  11  434.96    9.80
   1   3  11  425.16   10.90
   1   3  11  430.46    9.80
   1   3  11  395.96   10.70
  -2  -3 -11    0.60    1.10
   2   3  11    1.30    1.10
   2   3  11   -0.20    1.00
   2   3  11    0.30    1.10
   2   3  11   -0.70    1.00
   2   3  11   -0.90    0.90
   2   3  11   -0.20    1.00
   3   3  11   32.70    2.90
   3   3  11   28.80    2.70
   3   3  11   28.60    2.70
   3   3  11   28.90    2.80
   3   3  11   31.30    3.00
   3   3  11   28.10    2.80
   3   3  11   30.40    2.60
   3   3  11   33.10    2.70
   4   3  11    0.80    1.40
   4   3  11   -0.40    1.20
   4   3  11   -2.00    1.10
   4   3  11   -0.80    1.20
   4   3  11    0.00    1.60
   4   3  11    1.60    1.30
   4   3  11    2.10    1.30
   4   3  11    0.20    1.60
   5   3  11   38.80    3.20
   5   3  11   33.60    4.20
   5   3  11   34.70    3.30
   5   3  11   31.90    3.20
   5   3  11   36.00    3.90
   5   3  11   35.70    3.60
   5   3  11   37.60    3.40
   5   3  11   33.00    4.20
   6   3  11   55.99    3.90
   6   3  11   56.49    4.40
   6   3  11   56.99    3.90
   6   3  11   56.89    4.40
   6   3  11   59.29    4.70
   6   3  11   61.59    4.30
   7   3  11    9.90    2.40
   7   3  11   13.00    4.60
   7   3  11    7.90    2.60
   7   3  11   13.90    4.00
   7   3  11   14.10    3.60
   6  -4 -11   17.70    6.20
   6  -4 -11    1.40    2.80
   5  -4 -11    6.00    2.20
  -5   4  11    2.80    2.00
  -5   4  11    5.50    2.70
  -5   4  11    4.10    2.50
  -5   4  11    4.30    2.00
   4  -4 -11    0.70    1.90
   4  -4 -11    3.20    1.80
   4  -4 -11    1.30    1.50
  -4   4  11    1.10    1.50
  -4   4  11    0.70    1.90
  -4   4  11    2.00    2.00
  -4   4  11   -0.30    1.70
   3  -4 -11    1.70    1.20
  -3   4  11    2.10    1.50
  -3   4  11    3.20    1.30
  -3   4  11    2.30    1.50
  -3   4  11    5.10    1.90
   2  -4 -11    2.40    1.00
   2  -4 -11    2.70    1.30
   2  -4 -11    2.20    1.30
  -2   4  11    1.80    1.20
  -2   4  11    0.70    1.00
  -2   4  11    7.30    2.10
  -2   4  11    3.00    1.60
   1  -4 -11    1.50    0.90
   1  -4 -11    2.60    2.10
   1  -4 -11    3.50    1.10
  -1   4  11    2.20    1.10
  -1   4  11    1.80    1.00
  -1   4  11    2.00    1.30
  -1   4  11    1.40    1.10
  -1   4  11    3.20    1.30
   0  -4 -11   33.60    2.90
   0  -4 -11   35.60    2.20
   0  -4 -11   34.80    2.10
   0   4  11   38.30    2.80
   0   4  11   39.10    2.90
   0   4  11   33.50    2.30
   0   4  11   34.30    2.50
   0   4  11   37.10    2.80
  -1  -4 -11   36.90    3.00
   1   4  11   37.50    2.80
   1   4  11   34.80    2.80
   1   4  11   36.80    3.10
   1   4  11   33.80    2.30
   1   4  11   38.50    2.70
  -2  -4 -11  102.19    4.50
   2   4  11   97.19    4.20
   2   4  11   96.29    3.80
   2   4  11   95.39    3.60
   2   4  11   97.19    4.20
   2   4  11   95.99    3.40
   2   4  11   96.49    3.90
   2   4  11   97.09    4.10
  -3  -4 -11    0.30    1.10
   3   4  11    2.30    1.30
   3   4  11    1.10    1.20
   3   4  11    0.90    1.10
   3   4  11    1.60    1.40
   3   4  11    0.80    1.30
   3   4  11    1.80    1.40
   3   4  11    2.00    1.30
   4   4  11   53.59    3.50
   4   4  11   46.80    3.40
   4   4  11   48.30    3.30
   4   4  11   51.89    3.30
   4   4  11   45.10    3.50
   4   4  11   47.00    3.70
   4   4  11   49.40    3.30
   4   4  11   48.20    3.40
   5   4  11  173.08    6.00
   5   4  11  171.68    6.00
   5   4  11  171.48    6.00
   5   4  11  170.48    6.20
   5   4  11  161.68    6.70
   5   4  11  160.88    6.60
   5   4  11  174.28    6.20
   5   4  11  179.18    6.10
   6   4  11    8.90    2.00
   6   4  11   15.30    3.50
   6   4  11   12.00    3.50
   6   4  11   15.30    3.40
   6   4  11   12.90    3.30
   6   4  11   12.80    3.40
   7   4  11    8.00    2.60
   7   4  11   12.40    3.90
   7   4  11   11.70    2.60
   7   4  11   14.50    3.90
   7   4  11   15.50    3.40
   7   4  11   12.00    4.20
   8   4  11    5.90    3.00
   8   4  11    8.30    2.90
   8   4  11    7.70    3.20
  -5   5  11   11.10    4.90
  -5   5  11   13.40    4.30
   4  -5 -11    2.20    3.00
   4  -5 -11   -0.50    1.70
  -4   5  11   -0.20    2.00
  -4   5  11    0.90    2.00
   3  -5 -11   35.60    2.70
   3  -5 -11   34.60    3.90
  -3   5  11   35.40    3.40
  -3   5  11   35.30    3.70
  -3   5  11   31.80    2.90
   2  -5 -11   38.10    3.30
   2  -5 -11   39.30    2.20
   2  -5 -11   46.20    3.90
  -2   5  11   47.30    3.60
  -2   5  11   38.50    2.20
  -2   5  11   42.20    3.10
  -2   5  11   41.30    3.90
   1  -5 -11   63.99    4.20
   1  -5 -11   57.59    3.30
  -1   5  11   59.89    3.60
  -1   5  11   54.59    3.50
  -1   5  11   59.49    3.90
  -1   5  11   53.79    3.10
   0  -5 -11    4.90    1.50
   0  -5 -11    4.20    1.80
   0   5  11    9.80    2.90
   0   5  11    4.60    1.50
  -1  -5 -11    3.90    1.40
  -1  -5 -11    2.30    1.20
  -1  -5 -11    2.90    1.40
   1   5  11    3.00    1.60
   1   5  11    3.20    1.50
   1   5  11    3.70    1.40
  -2  -5 -11    2.50    1.40
  -2  -5 -11    0.80    1.30
  -2  -5 -11    3.30    1.30
   2   5  11    2.50    1.20
   2   5  11    2.80    1.40
   2   5  11    0.50    0.90
   2   5  11    2.40    1.50
   2   5  11    2.60    0.90
  -3  -5 -11   13.50    2.70
  -3  -5 -11   12.40    2.70
   3   5  11   11.00    2.60
   3   5  11   10.40    2.70
   3   5  11   10.20    2.10
   3   5  11   15.00    2.70
   3   5  11   16.30    2.80
   3   5  11   11.10    2.00
  -4  -5 -11   30.40    3.30
   4   5  11   26.60    3.30
   4   5  11   26.70    2.70
   4   5  11   25.00    3.10
   4   5  11   24.10    3.10
   4   5  11   27.30    2.90
   4   5  11   30.30    3.20
   5   5  11   71.89    4.40
   5   5  11   68.89    5.50
   5   5  11   68.59    3.90
   5   5  11   63.09    4.60
   5   5  11   67.89    4.00
   5   5  11   64.89    4.00
   5   5  11   68.09    4.20
   6   5  11    7.90    2.20
   6   5  11   14.60    3.60
   6   5  11    6.90    1.80
   6   5  11   10.80    3.60
   6   5  11    5.00    2.70
   6   5  11   11.20    3.00
   7   5  11   -1.90    2.20
   7   5  11   -0.90    2.00
   7   5  11   -0.40    2.40
   7   5  11   -4.40    2.20
   7   5  11    0.60    1.70
   8   5  11   15.00    5.00
   8   5  11    9.00    2.70
   8   5  11    6.30    3.10
  -4   6  11    1.40    2.40
  -4   6  11    2.60    2.60
   3  -6 -11   22.60    4.80
  -3   6  11   28.00    4.20
  -3   6  11   27.40    4.20
   2  -6 -11   44.20    4.40
   2  -6 -11   31.70    4.40
  -2   6  11   35.50    3.70
  -2   6  11   32.50    3.80
   1  -6 -11   35.60    3.70
   1  -6 -11   49.50    4.20
  -1   6  11   38.90    3.40
   0  -6 -11    3.50    1.60
   0  -6 -11    0.30    1.70
   0  -6 -11    0.20    1.60
   0   6  11   -0.30    1.60
   0   6  11    4.00    1.80
  -1  -6 -11   13.70    2.70
  -1  -6 -11    9.50    2.80
  -1  -6 -11   15.80    3.80
   1   6  11    9.40    3.00
   1   6  11   11.10    3.00
  -2  -6 -11   12.50    2.80
  -2  -6 -11   18.70    2.90
  -2  -6 -11   18.40    2.80
   2   6  11   18.50    3.20
   2   6  11   18.40    3.00
  -3  -6 -11  245.78    7.60
  -3  -6 -11  216.08    7.10
  -3  -6 -11  240.38    7.50
   3   6  11  223.28    7.20
   3   6  11  236.38    7.40
   3   6  11  219.38    5.60
   3   6  11  231.48    5.60
  -4  -6 -11    4.70    1.70
  -4  -6 -11    5.70    1.50
   4   6  11    5.10    1.80
   4   6  11    6.90    2.00
   4   6  11    5.60    1.40
  -5  -6 -11   12.50    3.40
   5   6  11   10.80    3.20
   5   6  11   10.50    3.60
   5   6  11    9.90    2.70
   5   6  11    9.50    2.50
   5   6  11    9.40    1.90
  -6  -6 -11   23.20    3.90
   6   6  11   11.70    3.60
   6   6  11   10.30    2.30
   6   6  11   13.60    2.80
   6   6  11   11.80    3.00
   6   6  11   13.00    2.60
  -7  -6 -11    8.50    2.60
   7   6  11   13.00    4.30
   7   6  11    8.60    2.60
   7   6  11    9.60    3.30
  -3   7  11   23.40    5.20
   2  -7 -11    2.50    3.40
  -2   7  11    7.10    2.40
   1  -7 -11    4.40    2.80
   1  -7 -11    4.90    2.10
   1  -7 -11    5.10    2.30
  -1   7  11    3.40    2.50
   0  -7 -11    5.40    1.80
   0  -7 -11    3.90    2.30
   0  -7 -11    5.50    1.90
   0   7  11    3.20    2.10
  -1  -7 -11   23.80    3.50
  -1  -7 -11   13.80    3.60
  -1  -7 -11   21.40    3.70
   1   7  11   16.80    4.10
   1   7  11   22.40    3.80
  -2  -7 -11   36.80    3.70
  -2  -7 -11   30.60    3.70
  -2  -7 -11   25.00    4.10
   2   7  11   30.40    4.10
  -3  -7 -11   52.59    4.00
  -3  -7 -11   45.70    3.80
  -3  -7 -11   38.20    4.00
   3   7  11   46.70    4.20
   3   7  11   43.90    4.40
  -4  -7 -11    1.20    1.70
  -4  -7 -11   -0.10    1.40
   4   7  11    1.30    2.00
   4   7  11   -0.50    1.90
   4   7  11   -0.10    1.30
   4   7  11    0.00    1.20
  -5  -7 -11    4.80    2.00
   5   7  11    2.40    2.00
   5   7  11    2.40    2.20
   5   7  11    2.80    2.00
   5   7  11    2.20    1.80
  -6  -7 -11    5.50    2.30
   6   7  11    3.00    2.30
   6   7  11    5.60    1.60
   6   7  11    3.50    2.20
   6   7  11    4.60    3.80
  -7  -7 -11   21.80    4.80
   7   7  11   18.30    4.80
   7   7  11   18.60    5.00
   2  -8 -11   23.90    6.00
   1  -8 -11    2.00    2.40
  -1   8  11    5.30    2.80
   0  -8 -11    4.60    2.40
   0  -8 -11    0.10    2.10
   0   8  11    3.70    2.50
  -1  -8 -11   63.19    5.30
  -1  -8 -11   58.69    4.80
   1   8  11   63.89    5.20
  -2  -8 -11    8.70    2.20
  -2  -8 -11    6.10    2.00
   2   8  11    7.30    2.50
   2   8  11    7.70    3.40
  -3  -8 -11    3.60    2.20
  -3  -8 -11   10.80    3.50
   3   8  11    9.20    2.80
   3   8  11    5.10    2.70
  -4  -8 -11    1.90    1.90
  -4  -8 -11   -0.70    1.70
   4   8  11   -1.30    2.40
   4   8  11   -1.60    2.30
  -5  -8 -11    1.10    1.70
  -5  -8 -11    1.80    2.20
   5   8  11   -3.60    2.30
  -6  -8 -11   22.60    4.70
   6   8  11   22.70    4.80
  -7  -8 -11   36.70    5.80
   7   8  11   25.30    5.40
   0  -9 -11    0.70    2.70
   0  -9 -11    3.80    2.80
   0   9  11    1.50    3.00
  -1  -9 -11   18.90    4.70
  -1  -9 -11   26.00    5.40
   1   9  11   22.00    5.50
  -2  -9 -11    1.40    2.50
  -2  -9 -11    5.20    2.50
   2   9  11   10.50    3.10
  -3  -9 -11    0.60    2.10
  -3  -9 -11    0.20    2.00
   3   9  11   -0.10    4.90
   3   9  11    2.50    2.80
  -4  -9 -11   -1.00    2.00
  -4  -9 -11    0.60    2.20
   4   9  11    0.60    2.90
  -5  -9 -11   21.20    4.90
   5   9  11   16.50    5.40
  -4  -6  12   30.70    4.60
  -4  -6  12   38.20    5.40
   3   6 -12   12.20    3.50
   3   6 -12   13.50    3.10
  -3  -6  12   12.90    3.00
  -3  -6  12   14.30    4.80
   2   6 -12   21.00    5.10
   2   6 -12   23.50    6.30
  -2  -6  12   12.60    2.90
  -2  -6  12   14.20    3.10
   1   6 -12   20.60    6.80
   1   6 -12    4.70    3.20
  -1  -6  12    8.20    2.90
  -1  -6  12    4.00    2.80
  -5  -5  12    3.60    2.10
  -5  -5  12    1.50    2.00
   4   5 -12   36.40    3.60
  -4  -5  12   33.30    4.50
  -4  -5  12   26.80    3.80
   3   5 -12    9.60    2.90
   3   5 -12    5.90    2.20
  -3  -5  12   11.20    3.80
  -3  -5  12    5.90    2.00
   2   5 -12    0.30    2.10
   2   5 -12    0.60    2.30
  -2  -5  12    1.20    2.10
  -2  -5  12    0.90    2.10
  -2  -5  12    3.00    2.70
   1   5 -12    8.60    2.50
   1   5 -12    8.00    3.00
  -1  -5  12    6.60    2.20
  -1  -5  12    6.80    2.50
  -1  -5  12    9.20    3.30
   0   5 -12    4.60    2.60
   0   5 -12    4.50    3.30
   0  -5  12    1.50    2.10
   0  -5  12    3.70    2.50
  -1   5 -12    5.10    3.10
  -1   5 -12    3.90    3.40
   1  -5  12   -0.60    2.40
   1  -5  12    1.60    2.80
  -7  -4  12   -0.30    2.30
  -7  -4  12   -0.70    2.70
  -6  -4  12   66.69    5.20
  -6  -4  12   68.69    5.40
  -5  -4  12   29.60    3.90
  -5  -4  12   28.20    4.00
   4   4 -12   50.39    5.50
   4   4 -12   37.30    2.80
  -4  -4  12   29.80    3.40
  -4  -4  12   35.30    4.00
   3   4 -12   17.10    4.10
   3   4 -12   12.40    2.50
  -3  -4  12   10.50    3.40
  -3  -4  12   10.10    2.00
  -3  -4  12   11.50    2.90
   2   4 -12    7.10    2.10
   2   4 -12    9.80    2.80
  -2  -4  12    6.10    1.80
  -2  -4  12    5.40    1.80
  -2  -4  12    8.90    2.20
   1   4 -12   31.70    4.60
   1   4 -12   30.30    3.40
  -1  -4  12   33.50    3.80
  -1  -4  12   30.10    4.00
  -1  -4  12   32.30    3.90
   0   4 -12    0.90    2.00
   0   4 -12    5.50    2.50
   0  -4  12   -0.30    1.90
   0  -4  12    1.60    1.70
   0  -4  12   -0.20    2.40
  -1   4 -12    6.50    2.80
  -1   4 -12    3.10    2.40
   1  -4  12    5.90    2.40
   1  -4  12    3.40    1.90
  -2   4 -12   -1.70    2.60
  -2   4 -12    3.40    3.10
   2  -4  12    3.00    2.00
   2  -4  12    5.30    2.60
   6   3 -12   32.40    4.50
  -6  -3  12   18.60    4.00
   5   3 -12   19.00    4.80
   4   3 -12    4.80    2.30
  -4  -3  12    0.30    1.50
  -4  -3  12    0.60    1.50
   3   3 -12   38.40    2.20
   3   3 -12   45.60    4.60
  -3  -3  12   37.30    2.30
  -3  -3  12   44.00    3.90
  -3  -3  12   44.00    3.40
   2   3 -12   58.29    2.90
   2   3 -12   63.19    4.90
  -2  -3  12   59.59    4.20
  -2  -3  12   63.79    3.80
  -2  -3  12   58.59    3.10
   1   3 -12   15.80    2.50
   1   3 -12   15.20    3.50
  -1  -3  12   13.30    2.80
  -1  -3  12   16.30    3.00
  -1  -3  12   14.70    2.90
   0   3 -12   38.70    3.30
   0   3 -12   48.70    4.70
   0  -3  12   43.70    3.70
   0  -3  12   38.30    3.60
   0  -3  12   38.10    3.60
  -1   3 -12   -0.20    2.00
  -1   3 -12   -0.20    1.70
   1  -3  12    3.10    2.30
   1  -3  12   -1.50    1.40
   1  -3  12    0.60    1.70
  -2   3 -12   58.49    5.80
  -2   3 -12   63.79    4.80
   2  -3  12   64.89    4.70
   2  -3  12   53.99    4.60
  -3   3 -12    8.20    2.70
   3  -3  12    4.00    2.50
   3  -3  12   11.10    3.80
  -4   3 -12   12.30    3.50
   4  -3  12   11.10    3.00
   4  -3  12    5.60    2.30
   7   2 -12   31.20    4.90
  -7  -2  12   31.00    4.80
   6   2 -12    1.60    1.90
  -6  -2  12   -0.70    2.00
   5   2 -12   16.40    3.70
   5   2 -12   28.20    4.70
   4   2 -12   -1.80    1.50
   4   2 -12    1.10    1.90
  -4  -2  12    2.60    1.60
  -4  -2  12    0.10    1.40
   3   2 -12   22.80    4.00
  -3  -2  12   20.80    2.60
  -3  -2  12   21.20    3.30
   2   2 -12   32.40    1.80
   2   2 -12   38.90    3.80
  -2  -2  12   35.10    3.30
  -2  -2  12   35.40    1.90
  -2  -2  12   43.30    3.60
  -2  -2  12   36.40    2.90
   1   2 -12    0.50    1.30
   1   2 -12    1.90    1.10
   1   2 -12    3.40    1.60
  -1  -2  12    2.60    1.40
  -1  -2  12    9.30    2.60
  -1  -2  12    2.00    1.30
  -1  -2  12    2.30    1.40
  -1  -2  12    3.00    1.80
   0   2 -12   45.10    4.00
   0   2 -12   41.20    2.80
   0   2 -12   37.80    3.40
   0  -2  12   40.70    3.40
   0  -2  12   41.50    3.00
   0  -2  12   43.60    3.30
  -1   2 -12   10.00    2.80
  -1   2 -12   12.10    3.70
  -1   2 -12   12.00    2.50
   1  -2  12   11.80    2.90
   1  -2  12   13.20    2.80
  -2   2 -12    6.00    2.20
  -2   2 -12    6.40    1.90
  -2   2 -12    6.10    1.90
   2  -2  12    4.60    1.60
   2  -2  12   11.70    3.50
   2  -2  12    4.40    1.90
  -3   2 -12   -0.20    2.10
  -3   2 -12    1.40    2.10
  -3   2 -12    0.40    2.30
   3  -2  12    1.70    1.90
   3  -2  12   -1.70    1.60
  -4   2 -12    6.10    2.50
   4  -2  12    2.10    2.60
   4  -2  12    4.20    2.20
   4  -2  12    5.90    2.10
   5  -2  12   14.00    4.70
   7   1 -12    3.40    2.10
   7   1 -12   20.90    5.40
  -7  -1  12    2.80    2.30
   6   1 -12   -1.60    1.70
   6   1 -12    3.20    2.10
  -6  -1  12   -0.50    1.80
   5   1 -12   31.80    3.60
   5   1 -12   33.40    4.50
  -5  -1  12   21.30    3.30
   4   1 -12   54.79    4.10
   4   1 -12   65.09    4.80
  -4  -1  12   57.09    4.30
  -4  -1  12   55.29    3.70
  -4  -1  12   54.59    5.10
   3   1 -12    4.20    1.80
   3   1 -12    8.60    2.90
   3   1 -12    4.00    1.20
  -3  -1  12   10.20    2.80
  -3  -1  12    9.40    3.00
  -3  -1  12    3.60    1.40
   2   1 -12   95.39    5.10
   2   1 -12   96.49    6.20
  -2  -1  12   95.79    4.60
  -2  -1  12   91.69    4.50
  -2  -1  12   92.89    4.30
   1   1 -12    6.90    1.90
   1   1 -12    5.00    1.70
  -1  -1  12   12.20    2.70
  -1  -1  12   10.50    2.40
  -1  -1  12    4.40    1.40
  -1  -1  12    4.80    1.50
   0   1 -12   24.80    5.50
   0   1 -12   23.00    2.60
   0   1 -12   24.10    2.00
   0  -1  12   28.00    3.00
   0  -1  12   22.70    2.20
   0  -1  12   25.20    4.50
   0  -1  12   26.00    2.90
   0  -1  12   33.70    3.00
  -1   1 -12   26.50    2.90
  -1   1 -12   29.00    2.40
  -1   1 -12   24.90    3.60
   1  -1  12   26.80    2.50
   1  -1  12   28.60    2.90
   1  -1  12   21.80    3.40
   1  -1  12   35.10    4.60
  -2   1 -12   46.10    3.50
  -2   1 -12   51.49    4.40
  -2   1 -12   50.89    3.40
   2  -1  12   45.20    3.30
   2  -1  12   43.10    3.30
   2  -1  12   43.20    3.60
  -3   1 -12   -0.60    2.00
   3  -1  12    0.10    1.40
   3  -1  12   -1.70    1.70
   3  -1  12   -1.40    1.40
  -4   1 -12   47.10    4.50
   4  -1  12   47.90    4.40
   4  -1  12   39.30    4.40
   4  -1  12   34.30    4.10
   4  -1  12   44.30    3.90
  -5   1 -12   17.80    4.90
   5  -1  12   11.60    3.80
   5  -1  12   16.90    4.90
   5  -1  12   13.30    4.40
   7   0 -12   15.10    5.00
   7   0 -12   18.40    5.30
  -7   0  12    9.10    2.60
   6   0 -12    0.30    1.70
   6   0 -12    4.50    2.20
  -6   0  12   -1.00    1.80
   5   0 -12    1.40    1.50
   5   0 -12    4.60    2.00
  -5   0  12   -0.20    1.70
   4   0 -12   34.30    3.60
   4   0 -12   33.70    3.20
   4   0 -12   38.20    4.00
  -4   0  12   30.50    3.10
  -4   0  12   43.60    4.20
  -4   0  12   25.30    3.90
   3   0 -12    1.10    1.30
   3   0 -12    0.90    1.10
   3   0 -12    1.00    1.40
  -3   0  12    1.50    1.20
  -3   0  12    1.80    1.30
  -3   0  12    1.30    1.70
   2   0 -12    1.10    1.30
   2   0 -12    1.20    1.10
  -2   0  12    1.60    1.50
  -2   0  12    0.00    1.30
  -2   0  12    2.70    1.10
   1   0 -12   78.99    3.70
   1   0 -12   73.89    4.50
   1   0 -12   77.19    4.20
  -1   0  12   79.09    3.90
  -1   0  12   77.09    4.50
  -1   0  12   79.79    4.10
   0   0 -12   21.60    2.80
   0   0 -12   19.90    2.30
   0   0  12   16.60    2.60
   0   0  12   22.60    2.90
   0   0  12   17.60    1.70
   0   0  12   21.30    2.60
   0   0  12   17.70    1.50
   0   0  12   17.50    4.30
  -1   0 -12   -1.20    1.10
  -1   0 -12    1.10    1.00
  -1   0 -12    0.70    1.50
   1   0  12    2.30    1.20
   1   0  12    2.00    1.20
   1   0  12    0.90    1.20
   1   0  12    3.30    1.60
   1   0  12    1.60    1.20
  -2   0 -12    9.70    3.00
  -2   0 -12    6.10    1.60
   2   0  12   11.20    3.20
   2   0  12    4.40    1.40
   2   0  12    6.10    1.60
   2   0  12    6.10    1.50
  -3   0 -12    7.00    1.90
   3   0  12    5.30    1.60
   3   0  12    9.80    2.80
   3   0  12    9.70    2.70
   3   0  12    5.90    1.90
  -4   0 -12    2.40    1.90
   4   0  12    2.90    1.90
   4   0  12    3.20    2.20
   4   0  12    4.30    1.70
   4   0  12    2.50    1.80
   4   0  12    0.70    1.70
  -5   0 -12    5.70    2.50
   5   0  12    6.80    1.90
   5   0  12    5.00    2.30
   5   0  12    5.00    2.10
   5   0  12   12.90    3.60
  -6   0 -12   26.80    5.10
   6   0  12   30.10    5.30
   6   0  12   19.10    4.70
   7  -1 -12    6.30    2.80
   7  -1 -12    2.40    2.50
  -7   1  12    0.20    2.40
   6  -1 -12   17.10    4.20
   6  -1 -12   23.10    4.50
  -6   1  12   11.30    3.70
   5  -1 -12   80.29    5.00
   5  -1 -12   80.39    5.00
  -5   1  12   83.09    4.50
  -5   1  12   68.19    5.20
   4  -1 -12   59.49    4.10
   4  -1 -12   57.49    4.10
  -4   1  12   43.20    4.20
  -4   1  12   58.39    3.80
  -4   1  12   46.20    4.20
   3  -1 -12    9.90    2.90
   3  -1 -12   13.20    2.70
  -3   1  12   11.40    2.40
  -3   1  12    8.30    2.00
   2  -1 -12   -0.40    1.20
  -2   1  12   -0.10    1.50
  -2   1  12    1.80    1.00
   1  -1 -12    3.10    1.40
   1  -1 -12    2.80    1.10
  -1   1  12    2.70    1.00
  -1   1  12    3.40    1.10
  -1   1  12    4.00    1.50
   0  -1 -12   50.29    3.30
   0  -1 -12   54.29    3.60
   0   1  12   49.00    3.10
   0   1  12   46.30    3.20
   0   1  12   45.80    3.00
   0   1  12   49.99    1.90
   0   1  12   46.10    1.80
   0   1  12   46.60    3.00
  -1  -1 -12   -0.20    1.20
   1   1  12   -0.40    1.30
   1   1  12    0.20    1.10
   1   1  12    0.50    0.90
   1   1  12   -1.10    1.00
   1   1  12    0.20    1.30
   1   1  12   -0.10    1.00
  -2  -1 -12  112.59    5.10
   2   1  12  114.49    4.20
   2   1  12  109.39    5.00
   2   1  12  115.09    5.00
   2   1  12  111.49    4.50
   2   1  12  106.79    4.60
   2   1  12  106.49    7.20
   2   1  12  112.69    4.00
   3   1  12   17.60    3.00
   3   1  12   23.20    3.60
   3   1  12   22.60    2.70
   3   1  12   22.60    3.00
   3   1  12   18.00    3.20
   3   1  12   21.90    2.90
   4   1  12   68.59    4.50
   4   1  12   73.49    4.30
   4   1  12   73.39    4.50
   4   1  12   72.39    4.50
   4   1  12   72.29    3.90
   5   1  12   12.30    2.00
   5   1  12   14.00    4.00
   5   1  12   15.80    3.80
   5   1  12   15.40    3.50
   6   1  12    8.30    2.40
   6   1  12   13.20    3.50
   6   1  12   12.40    2.60
   6  -2 -12   59.29    5.90
   6  -2 -12   62.49    5.20
  -6   2  12   49.00    4.50
   5  -2 -12    4.70    2.00
   5  -2 -12    2.80    1.90
  -5   2  12    4.60    1.90
  -5   2  12    0.80    2.50
   4  -2 -12    4.00    1.70
   4  -2 -12    6.50    1.80
  -4   2  12    5.30    1.70
  -4   2  12    5.00    2.10
  -4   2  12    5.20    2.00
   3  -2 -12   60.59    3.90
   3  -2 -12   56.59    3.70
  -3   2  12   48.50    4.00
  -3   2  12   51.09    3.80
  -3   2  12   50.49    3.40
  -3   2  12   70.49    5.20
   2  -2 -12    1.60    1.20
   2  -2 -12    0.80    1.10
  -2   2  12    0.80    1.50
  -2   2  12    2.10    1.60
   1  -2 -12   -1.60    1.10
   1  -2 -12    0.30    1.00
  -1   2  12    0.30    1.30
  -1   2  12   -0.10    1.00
  -1   2  12   -0.10    1.10
  -1   2  12   -1.00    1.10
   0  -2 -12   72.39    4.00
   0  -2 -12   73.19    3.50
   0   2  12   72.29    3.40
   0   2  12   73.39    2.40
   0   2  12   73.39    3.60
   0   2  12   67.19    3.50
   0   2  12   68.59    2.30
   0   2  12   69.29    3.70
  -1  -2 -12   12.60    2.50
  -1  -2 -12   11.60    2.40
   1   2  12   13.20    1.80
   1   2  12    8.70    2.30
   1   2  12    9.30    1.70
   1   2  12   10.10    2.30
   1   2  12    8.50    2.30
   1   2  12    9.60    2.10
  -2  -2 -12   25.20    2.90
   2   2  12   20.40    2.80
   2   2  12   24.40    2.20
   2   2  12   22.20    2.80
   2   2  12   22.40    2.90
   2   2  12   26.70    2.80
   2   2  12   20.80    2.30
   2   2  12   20.90    2.70
   3   2  12   16.60    3.00
   3   2  12   14.30    3.20
   3   2  12   16.20    3.00
   3   2  12   11.70    2.60
   3   2  12   14.60    2.70
   3   2  12    9.00    2.50
   3   2  12   18.00    2.40
   3   2  12   14.30    2.80
   4   2  12   77.39    5.10
   4   2  12   74.39    4.50
   4   2  12   79.79    4.50
   4   2  12   81.99    4.20
   4   2  12   79.09    4.60
   4   2  12   80.59    4.10
   4   2  12   75.59    4.20
   4   2  12   82.69    4.50
   5   2  12   -0.30    1.50
   5   2  12    0.20    1.70
   5   2  12   -3.00    1.40
   5   2  12    1.60    1.80
   5   2  12    2.50    1.70
   6   2  12   19.60    3.90
   6   2  12    9.90    2.20
   6   2  12   12.50    3.20
   6   2  12   10.90    2.30
   6   2  12   13.50    4.20
   7   2  12    2.90    2.60
   7   2  12   -0.70    2.50
   6  -3 -12   73.69    6.30
   6  -3 -12   69.19    5.80
  -6   3  12   63.19    5.20
   5  -3 -12   15.20    4.30
  -5   3  12    1.10    1.40
  -5   3  12   -0.30    2.50
  -5   3  12   -0.10    1.80
   4  -3 -12    1.60    1.60
   4  -3 -12    3.00    1.70
   4  -3 -12    3.20    1.40
  -4   3  12    0.10    1.50
  -4   3  12    3.10    2.00
  -4   3  12    1.80    1.00
  -4   3  12    4.30    3.30
   3  -3 -12   59.69    3.50
   3  -3 -12   62.89    4.40
  -3   3  12   63.49    4.50
  -3   3  12   54.49    3.80
  -3   3  12   62.59    3.90
   2  -3 -12   50.69    3.60
   2  -3 -12   50.49    3.10
  -2   3  12   48.90    3.40
  -2   3  12   56.29    3.50
  -2   3  12   55.69    3.60
  -2   3  12   54.99    3.90
   1  -3 -12    3.30    1.20
   1  -3 -12    1.60    1.70
  -1   3  12    4.30    2.30
  -1   3  12    4.20    1.50
  -1   3  12    3.10    1.50
   0  -3 -12   19.20    2.80
   0  -3 -12   18.30    2.20
   0   3  12   18.10    2.70
   0   3  12   16.90    2.40
   0   3  12   21.70    2.90
   0   3  12   17.90    1.50
   0   3  12   20.20    1.90
  -1  -3 -12   12.00    2.60
  -1  -3 -12   14.70    2.30
   1   3  12   14.50    2.00
   1   3  12   13.50    2.20
   1   3  12   12.40    1.80
   1   3  12   17.30    2.40
   1   3  12   13.20    2.30
   1   3  12   17.50    2.50
  -2  -3 -12    0.80    1.20
   2   3  12   -0.50    1.20
   2   3  12    1.10    1.30
   2   3  12    0.40    1.30
   2   3  12    1.20    1.20
   2   3  12    1.80    1.30
   2   3  12    0.70    1.20
   3   3  12    7.80    2.40
   3   3  12    5.20    1.50
   3   3  12    7.70    2.40
   3   3  12    7.10    2.50
   3   3  12    5.70    1.60
   3   3  12    3.90    1.60
   3   3  12    5.20    1.50
   3   3  12    4.30    1.70
   4   3  12   62.79    3.90
   4   3  12   70.29    4.00
   4   3  12   64.59    4.60
   4   3  12   67.59    3.80
   4   3  12   67.29    4.20
   4   3  12   71.59    4.20
   4   3  12   59.39    4.00
   4   3  12   67.69    3.90
   5   3  12   15.20    3.40
   5   3  12   15.60    3.20
   5   3  12   18.40    3.30
   5   3  12   20.30    6.10
   5   3  12   14.40    3.10
   5   3  12   19.70    4.70
   5   3  12   20.00    3.70
   6   3  12   12.40    2.50
   6   3  12   13.90    2.70
   6   3  12   19.50    3.70
   6   3  12   18.10    3.70
   6   3  12   16.20    4.30
   6   3  12   12.20    3.70
   7   3  12   -2.40    2.50
   7   3  12   -3.90    1.90
   7   3  12   -2.90    2.30
   7   3  12    1.50    2.60
   5  -4 -12    3.20    2.10
  -5   4  12    1.00    2.10
   4  -4 -12   35.40    3.50
   4  -4 -12   43.30    4.50
  -4   4  12   39.50    4.00
  -4   4  12   37.30    4.10
  -4   4  12   37.50    3.00
   3  -4 -12   11.50    2.60
   3  -4 -12   16.80    3.50
   3  -4 -12   10.70    2.50
  -3   4  12    7.80    2.00
  -3   4  12    7.20    2.10
  -3   4  12    9.60    3.10
   2  -4 -12   77.39    3.40
   2  -4 -12   88.19    4.80
   2  -4 -12   75.49    3.10
  -2   4  12   85.49    4.30
  -2   4  12   79.39    3.60
  -2   4  12   76.99    4.60
  -2   4  12   76.69    3.00
   1  -4 -12   44.70    2.30
   1  -4 -12   45.60    2.50
   1  -4 -12   49.20    3.60
  -1   4  12   46.10    2.40
  -1   4  12   50.69    3.40
  -1   4  12   52.09    3.00
  -1   4  12   46.90    2.80
  -1   4  12   47.70    3.60
   0  -4 -12    1.30    1.00
   0  -4 -12    0.50    1.10
   0   4  12    0.90    1.20
   0   4  12    0.90    1.20
   0   4  12    0.20    1.20
   0   4  12   -0.40    1.10
  -1  -4 -12    9.70    2.00
  -1  -4 -12    9.60    2.60
   1   4  12   10.30    2.20
   1   4  12   11.00    2.40
   1   4  12   13.30    2.40
   1   4  12    9.70    2.20
   1   4  12    7.40    1.60
   1   4  12   12.10    2.70
  -2  -4 -12   -0.20    1.10
   2   4  12    3.10    1.30
   2   4  12    0.50    1.20
   2   4  12    1.60    1.20
   2   4  12    0.00    1.00
   2   4  12    1.90    1.30
   2   4  12    1.50    1.30
   2   4  12    2.30    1.30
  -3  -4 -12   12.80    2.90
   3   4  12   14.10    2.70
   3   4  12   13.00    2.30
   3   4  12   12.30    2.50
   3   4  12   15.10    2.90
   3   4  12   12.70    2.60
   3   4  12   11.70    2.80
   3   4  12   10.90    2.60
   4   4  12   37.30    3.30
   4   4  12   36.00    3.40
   4   4  12   30.20    3.70
   4   4  12   30.80    3.30
   4   4  12   33.80    3.50
   4   4  12   32.30    3.30
   4   4  12   34.70    3.70
   4   4  12   35.90    3.10
   5   4  12    2.30    1.90
   5   4  12   -0.70    2.00
   5   4  12    2.50    2.40
   5   4  12    2.10    1.50
   5   4  12    0.10    1.60
   5   4  12    4.90    2.00
   5   4  12    3.60    1.70
   6   4  12   67.69    4.80
   6   4  12   75.29    5.00
   6   4  12   71.49    4.80
   6   4  12   61.59    4.60
   6   4  12   64.29    5.10
   6   4  12   71.49    4.50
   7   4  12   -0.40    2.30
   7   4  12    0.00    2.50
   7   4  12    0.70    2.20
   7   4  12    0.40    2.20
   5  -5 -12   24.00    5.90
  -5   5  12   10.20    2.90
   4  -5 -12   24.50    3.40
  -4   5  12   24.40    4.60
  -4   5  12   26.50    3.90
   3  -5 -12   17.20    2.60
   3  -5 -12   17.90    3.70
  -3   5  12   17.20    3.00
  -3   5  12   19.10    3.50
  -3   5  12   24.00    3.70
   2  -5 -12   67.89    4.80
   2  -5 -12   65.39    2.80
   2  -5 -12   58.29    3.60
  -2   5  12   69.39    4.40
  -2   5  12   66.09    3.50
  -2   5  12   63.09    2.90
   1  -5 -12   20.50    3.40
   1  -5 -12   17.50    2.60
  -1   5  12   13.60    2.30
  -1   5  12   20.10    3.10
   0  -5 -12    1.20    1.30
   0  -5 -12    1.10    1.30
   0   5  12    1.30    1.40
   0   5  12   -0.50    1.20
  -1  -5 -12    0.60    1.30
  -1  -5 -12    0.20    1.80
   1   5  12    1.30    1.00
   1   5  12    0.60    1.50
   1   5  12    2.60    1.50
   1   5  12    1.00    0.80
   1   5  12    0.20    1.10
  -2  -5 -12    3.20    1.40
   2   5  12    4.10    1.20
   2   5  12    5.10    1.70
   2   5  12    8.90    2.60
   2   5  12    4.90    1.70
  -3  -5 -12    0.80    1.40
   3   5  12    0.00    1.10
   3   5  12   -0.40    1.50
   3   5  12    1.90    1.70
   3   5  12    1.50    1.40
   3   5  12    0.00    1.30
   4   5  12    4.10    2.00
   4   5  12    5.40    1.90
   4   5  12    9.20    2.80
   4   5  12    8.20    2.90
   4   5  12    5.50    2.10
   4   5  12    4.90    1.50
   5   5  12    8.70    2.20
   5   5  12    6.20    1.80
   5   5  12   11.10    3.20
   5   5  12   11.10    3.40
   5   5  12    3.60    1.70
   5   5  12    5.10    2.40
   6   5  12   57.79    4.60
   6   5  12   67.69    4.90
   6   5  12   59.49    5.00
   6   5  12   65.89    4.30
   6   5  12   58.79    6.00
   6   5  12   59.79    4.60
   7   5  12    4.10    2.70
   7   5  12    4.70    2.70
   7   5  12    3.30    2.00
   7   5  12    3.40    2.30
  -4   6  12   20.80    5.10
  -4   6  12   23.10    5.10
  -3   6  12    7.20    2.40
  -3   6  12    8.90    2.50
   2  -6 -12   30.90    4.30
  -2   6  12   35.50    4.10
  -2   6  12   35.00    3.70
   1  -6 -12   16.40    3.90
   1  -6 -12    9.30    2.30
  -1   6  12    9.60    2.80
  -1   6  12   12.40    3.40
   0  -6 -12   53.79    4.50
   0  -6 -12   44.60    3.70
   0   6  12   50.69    3.80
  -1  -6 -12    2.80    1.50
  -1  -6 -12    3.50    1.70
  -1  -6 -12    1.40    1.70
   1   6  12   10.90    3.40
   1   6  12    4.00    1.80
  -2  -6 -12   98.69    5.00
  -2  -6 -12   87.99    4.40
  -2  -6 -12   83.99    5.60
   2   6  12   96.99    4.80
   2   6  12   95.59    5.00
  -3  -6 -12   11.00    3.30
  -3  -6 -12   13.80    3.20
  -3  -6 -12   12.00    3.10
   3   6  12    7.90    2.10
   3   6  12   10.70    3.20
   3   6  12   13.20    3.40
   3   6  12   11.60    2.10
  -4  -6 -12   17.80    3.80
  -4  -6 -12   14.10    3.40
   4   6  12   10.30    2.70
   4   6  12   15.30    3.30
   4   6  12   11.20    3.50
   4   6  12   11.30    3.70
   4   6  12   14.80    3.10
  -5  -6 -12   -1.10    1.90
   5   6  12   -0.20    1.60
   5   6  12   -1.00    1.80
   5   6  12    0.10    2.20
   5   6  12   -3.20    1.90
   5   6  12    0.80    1.50
   6   6  12   14.50    4.20
   6   6  12   15.60    3.20
   6   6  12   13.90    3.30
   6   6  12   20.40    3.40
   7   6  12   -0.20    2.60
   7   6  12   -1.60    2.70
   7   6  12   -0.10    2.40
  -3   7  12    9.80    3.00
  -3   7  12    7.50    3.20
   2  -7 -12    1.40    2.50
  -2   7  12    2.80    2.50
  -2   7  12    1.30    2.20
   1  -7 -12   24.10    4.80
   1  -7 -12   11.10    3.00
   0  -7 -12   44.10    4.60
   0  -7 -12   53.09    4.90
   0  -7 -12   61.79    5.20
   0   7  12   55.59    4.50
  -1  -7 -12   -0.20    2.30
  -1  -7 -12    0.10    1.70
  -1  -7 -12    2.90    1.80
   1   7  12    0.90    2.10
  -2  -7 -12   26.10    3.60
  -2  -7 -12   17.80    3.70
  -2  -7 -12   24.10    3.70
   2   7  12   20.20    4.30
   2   7  12   28.00    4.20
  -3  -7 -12    2.90    1.90
  -3  -7 -12    4.30    2.30
  -3  -7 -12    6.20    2.20
   3   7  12    5.10    2.20
   3   7  12    5.90    2.30
  -4  -7 -12   17.50    3.90
  -4  -7 -12   22.70    3.70
   4   7  12   18.30    4.40
   4   7  12   12.70    3.80
   4   7  12   17.10    2.70
   4   7  12   16.80    2.70
  -5  -7 -12    0.80    2.10
   5   7  12    1.00    1.90
   5   7  12    5.00    2.30
   5   7  12    0.20    2.20
  -6  -7 -12   31.30    4.90
   6   7  12   16.30    4.60
   6   7  12   21.90    3.40
   6   7  12   22.30    4.40
  -7  -7 -12    0.30    2.80
   7   7  12   -3.70    2.90
   7   7  12    1.40    2.80
   1  -8 -12   -0.50    2.70
   1  -8 -12    2.60    2.70
  -1   8  12    0.80    2.80
   0  -8 -12   35.40    4.80
   0  -8 -12   30.50    5.50
   0   8  12   34.50    5.00
  -1  -8 -12   -0.80    2.10
  -1  -8 -12    3.00    2.30
   1   8  12    5.20    2.50
  -2  -8 -12    4.70    2.10
  -2  -8 -12    1.40    1.90
   2   8  12    1.90    2.60
  -3  -8 -12    3.20    2.20
  -3  -8 -12    3.50    2.00
   3   8  12    5.00    2.80
   3   8  12    4.30    2.90
  -4  -8 -12    1.50    2.20
  -4  -8 -12    2.20    1.90
   4   8  12    0.60    2.70
   4   8  12   -0.40    2.50
  -5  -8 -12    3.20    2.50
  -5  -8 -12    2.40    2.00
   5   8  12    0.70    2.50
  -6  -8 -12    4.50    2.80
   6   8  12    1.60    2.90
  -1  -9 -12    2.10    2.80
  -1  -9 -12    1.40    2.80
   1   9  12    2.40    3.10
  -2  -9 -12   21.10    5.10
  -2  -9 -12   18.30    5.50
   2   9  12   24.70    5.80
  -3  -9 -12   -0.20    2.20
  -3  -9 -12    0.90    2.30
   3   9  12    3.50    3.20
  -4  -9 -12   20.90    4.90
  -4  -9 -12   12.30    2.70
   4   9  12   18.30    5.90
  -5  -9 -12    3.00    2.80
   5   9  12    0.80    3.20
   5   5 -13    9.30    4.20
  -5  -5  13    3.30    2.80
  -5  -5  13    6.60    2.40
   4   5 -13    3.70    2.90
  -4  -5  13   -2.20    2.20
  -4  -5  13   -2.70    1.90
   3   5 -13  106.19    7.40
  -3  -5  13  102.09    6.20
  -3  -5  13   92.29    5.70
   2   5 -13    3.10    2.40
   2   5 -13    3.90    2.80
  -2  -5  13    3.70    2.50
  -2  -5  13    1.70    2.30
   1   5 -13   30.60    6.10
   1   5 -13   20.90    4.50
  -1  -5  13   23.80    4.80
  -1  -5  13   22.50    4.90
   0   5 -13   10.30    4.20
   0   5 -13   10.00    3.20
   0  -5  13    9.70    3.10
   0  -5  13    4.80    2.50
   6   4 -13   26.90    7.10
  -6  -4  13    3.40    2.30
  -5  -4  13    1.90    2.10
  -5  -4  13   -1.20    2.00
   4   4 -13   42.90    5.80
  -4  -4  13   26.40    3.70
  -4  -4  13   25.50    4.30
   3   4 -13   15.10    2.70
  -3  -4  13   15.00    3.20
  -3  -4  13   26.10    4.10
   2   4 -13   10.30    2.90
   2   4 -13    9.90    2.50
  -2  -4  13   10.70    3.80
  -2  -4  13    6.00    2.00
   1   4 -13    5.80    2.40
   1   4 -13    4.60    2.10
  -1  -4  13    5.90    2.10
  -1  -4  13    3.90    2.80
  -1  -4  13    3.90    1.90
   0   4 -13   11.30    3.20
   0  -4  13   18.50    4.20
   0  -4  13   11.20    3.90
   0  -4  13   10.60    3.30
  -1   4 -13   20.40    6.10
  -1   4 -13   15.10    3.10
   1  -4  13   12.70    2.90
   1  -4  13   12.40    2.50
  -2   4 -13    8.10    4.10
  -2   4 -13   -2.60    2.90
   2  -4  13    2.40    2.90
   2  -4  13    1.90    3.70
  -5  -3  13   71.09    4.90
  -5  -3  13   75.59    5.00
   4   3 -13   23.30    5.50
   3   3 -13   27.20    4.40
  -3  -3  13   28.20    3.80
  -3  -3  13   25.10    3.10
   2   3 -13   12.80    2.70
   2   3 -13    7.80    2.20
  -2  -3  13    9.90    3.20
  -2  -3  13   10.00    2.70
  -2  -3  13   10.40    2.50
   1   3 -13   23.20    4.20
   1   3 -13   21.20    2.60
  -1  -3  13   17.30    3.30
  -1  -3  13   15.80    3.40
  -1  -3  13   18.60    3.30
   0   3 -13    8.60    2.00
   0   3 -13   20.70    4.60
   0  -3  13    6.70    2.10
   0  -3  13    9.90    3.30
   0  -3  13   12.10    3.50
  -1   3 -13  152.88    6.50
  -1   3 -13  167.48    8.10
   1  -3  13  156.88    6.90
   1  -3  13  147.99    6.60
   1  -3  13  156.08    6.50
  -2   3 -13   13.70    4.10
  -2   3 -13    8.90    3.00
   2  -3  13   14.40    4.40
   2  -3  13    6.20    2.30
  -3   3 -13    0.40    2.90
   3  -3  13    6.30    2.20
   3  -3  13    1.20    2.80
   7   2 -13    3.30    2.60
  -7  -2  13    6.60    2.80
   5   2 -13   33.70    4.80
  -5  -2  13   23.40    3.70
   4   2 -13    4.50    1.90
  -4  -2  13    2.70    1.60
   3   2 -13  100.09    5.80
  -3  -2  13   88.29    5.00
  -3  -2  13   88.79    4.50
   2   2 -13   29.40    4.20
  -2  -2  13   26.00    2.80
  -2  -2  13   31.10    3.40
   1   2 -13   52.79    4.50
   1   2 -13   46.90    2.60
  -1  -2  13   51.49    3.00
  -1  -2  13   58.69    3.70
  -1  -2  13   51.09    4.00
   0   2 -13    0.30    1.70
   0   2 -13   -2.00    1.30
   0  -2  13    0.00    1.70
   0  -2  13   -2.20    1.30
   0  -2  13    0.40    1.40
  -1   2 -13   69.79    5.40
  -1   2 -13   53.29    3.70
   1  -2  13   54.69    4.00
   1  -2  13   57.69    4.30
   1  -2  13   60.69    4.10
  -2   2 -13   38.20    5.20
  -2   2 -13   29.30    6.40
   2  -2  13   29.10    3.70
   2  -2  13   28.80    4.30
   2  -2  13   30.10    3.90
  -3   2 -13    5.80    3.00
  -3   2 -13    9.30    2.60
   3  -2  13    6.60    2.30
   3  -2  13    5.70    2.20
  -4   2 -13    0.10    2.80
   4  -2  13   -0.40    2.40
   4  -2  13   -0.10    2.40
   4  -2  13    1.60    2.10
   7   1 -13  125.19    7.60
   7   1 -13   88.29    6.60
  -7  -1  13  104.89    6.50
   6   1 -13    2.60    2.00
   6   1 -13    5.40    2.50
  -6  -1  13    1.90    2.00
   5   1 -13   32.80    4.40
  -5  -1  13   29.60    3.70
   4   1 -13    1.10    2.10
   4   1 -13    2.50    1.70
  -4  -1  13    0.30    1.40
   3   1 -13    6.90    2.20
   3   1 -13    6.30    1.80
  -3  -1  13    5.30    1.60
   2   1 -13    0.90    1.60
  -2  -1  13   10.00    3.10
   1   1 -13  115.69    5.50
  -1  -1  13  121.09    5.30
  -1  -1  13  113.19    4.90
  -1  -1  13  112.89    5.30
   0   1 -13   -0.10    1.00
   0   1 -13   -0.50    1.40
   0  -1  13    0.90    1.20
   0  -1  13   -0.80    1.30
   0  -1  13    1.20    1.30
  -1   1 -13    1.40    1.30
  -1   1 -13    1.60    1.90
  -1   1 -13    0.80    1.80
   1  -1  13   -1.60    1.30
   1  -1  13    0.90    1.30
   1  -1  13    0.40    1.60
  -2   1 -13  177.58    6.50
  -2   1 -13  201.98    8.00
  -2   1 -13  187.48    6.30
   2  -1  13  193.38    6.50
   2  -1  13  186.78    7.20
   2  -1  13  171.88    6.10
  -3   1 -13   12.30    3.60
  -3   1 -13   10.40    2.80
   3  -1  13    8.30    2.00
   3  -1  13    8.20    2.50
   3  -1  13    7.50    2.00
  -4   1 -13    3.50    2.40
   4  -1  13    1.10    2.60
   4  -1  13    1.00    2.00
   4  -1  13   -1.00    2.00
   4  -1  13    0.20    2.10
  -5   1 -13   32.00    5.70
   5  -1  13   37.30    5.50
   7   0 -13   47.50    5.70
   7   0 -13   59.49    6.50
  -7   0  13   43.80    5.30
   6   0 -13    2.30    2.20
   6   0 -13    0.60    2.00
  -6   0  13   -1.40    1.90
   5   0 -13    5.00    2.10
   5   0 -13    3.60    1.90
  -5   0  13    0.00    1.70
   4   0 -13    1.40    1.50
   4   0 -13    0.20    1.70
   3   0 -13   89.99    5.00
   3   0 -13   96.19    5.20
  -3   0  13   82.19    5.00
  -3   0  13   83.99    4.30
   2   0 -13  170.78    6.70
   2   0 -13  156.48    6.50
  -2   0  13  180.68    7.90
  -2   0  13  160.48    6.20
  -2   0  13  167.98    5.90
   1   0 -13   11.90    3.00
   1   0 -13   17.50    3.00
   1   0 -13   16.30    2.30
  -1   0  13   13.30    2.40
  -1   0  13   18.40    2.60
  -1   0  13   21.50    3.10
   0   0 -13    5.30    2.00
   0   0 -13    4.50    1.40
   0   0  13    6.60    2.40
   0   0  13    3.20    1.40
   0   0  13    4.50    1.40
   0   0  13    8.70    2.90
   0   0  13   13.80    3.40
   0   0  13    4.30    1.10
  -1   0 -13    0.80    1.30
  -1   0 -13   -0.30    1.60
   1   0  13    0.70    1.60
   1   0  13   -1.70    1.20
   1   0  13   -0.50    1.10
   1   0  13    0.00    1.40
  -2   0 -13    8.60    2.20
  -2   0 -13    7.60    2.40
   2   0  13    6.30    2.10
   2   0  13    6.00    1.50
   2   0  13    5.70    1.60
   2   0  13    8.00    2.50
  -3   0 -13   74.99    4.40
   3   0  13   70.39    4.70
   3   0  13   71.89    4.30
   3   0  13   67.99    4.30
   3   0  13   77.99    4.80
  -4   0 -13   12.10    2.50
   4   0  13   10.10    2.60
   4   0  13   14.50    3.90
   4   0  13   11.60    3.80
  -5   0 -13   18.30    4.60
   5   0  13   18.00    3.70
   5   0  13   17.40    4.40
   5   0  13   23.50    5.20
   6  -1 -13    2.60    2.40
   6  -1 -13    1.30    2.10
  -6   1  13   -2.50    2.10
   5  -1 -13   22.50    4.00
   5  -1 -13   21.80    4.10
  -5   1  13   18.40    3.70
   4  -1 -13    2.40    1.80
   4  -1 -13    2.30    1.50
  -4   1  13   -1.60    1.50
  -4   1  13   -2.20    2.20
   3  -1 -13  116.19    5.30
   3  -1 -13  121.59    5.60
  -3   1  13  107.89    5.40
  -3   1  13  125.29    5.10
   2  -1 -13   13.80    2.80
   2  -1 -13   11.20    2.80
  -2   1  13   16.30    3.30
  -2   1  13    7.40    2.30
   1  -1 -13    4.90    1.60
   1  -1 -13    8.30    2.70
  -1   1  13    9.10    2.30
  -1   1  13    8.90    2.80
  -1   1  13    3.50    1.50
  -1   1  13    6.80    2.10
   0  -1 -13  120.29    5.50
   0  -1 -13  119.99    5.10
   0   1  13  115.89    4.90
   0   1  13  122.89    4.80
   0   1  13  112.49    4.90
   0   1  13  112.39    4.90
  -1  -1 -13    1.70    1.50
   1   1  13    2.40    1.60
   1   1  13    0.80    1.50
   1   1  13    1.30    1.30
   1   1  13    1.10    1.10
   1   1  13   -0.20    1.20
   1   1  13    1.90    1.00
   2   1  13    0.80    1.80
   2   1  13    0.10    1.20
   2   1  13   -0.60    1.20
   2   1  13   -0.20    1.50
   2   1  13    1.00    2.10
   2   1  13    1.70    1.70
   2   1  13   -0.20    1.20
   3   1  13  141.39    5.90
   3   1  13  152.98    6.30
   3   1  13  153.28    5.30
   3   1  13  149.59    6.50
   3   1  13  149.99    5.70
   4   1  13   33.80    4.00
   4   1  13   35.50    4.10
   4   1  13   35.20    4.00
   4   1  13   26.40    4.20
   5   1  13   -2.20    2.20
   5   1  13   -1.10    1.80
   5   1  13    0.20    2.20
   5   1  13   -0.10    1.80
   6   1  13   14.80    5.00
   6   1  13   18.40    5.00
   6   1  13   11.80    3.90
   6  -2 -13    3.00    2.60
   6  -2 -13    2.70    2.60
  -6   2  13   -1.90    2.20
   5  -2 -13  120.39    6.30
   5  -2 -13  119.59    6.00
  -5   2  13  130.19    8.10
  -5   2  13  120.29    5.70
   4  -2 -13   25.40    3.70
  -4   2  13   14.60    3.20
  -4   2  13   14.80    4.30
   3  -2 -13  124.09    5.60
   3  -2 -13  116.19    5.10
  -3   2  13  118.29    5.10
  -3   2  13  111.29    5.30
   2  -2 -13    1.90    1.30
   2  -2 -13    2.80    1.40
  -2   2  13    2.50    1.80
  -2   2  13    0.50    2.50
  -2   2  13    0.30    1.30
   1  -2 -13   10.20    2.50
   1  -2 -13   12.80    2.60
  -1   2  13   10.70    2.70
  -1   2  13    9.10    2.40
  -1   2  13   13.60    2.30
  -1   2  13   13.00    2.90
   0  -2 -13    2.60    1.30
   0  -2 -13    3.20    1.40
   0   2  13    3.60    1.40
   0   2  13    7.80    2.00
   0   2  13    4.20    1.30
  -1  -2 -13   89.79    4.90
  -1  -2 -13   88.99    4.40
   1   2  13   90.09    4.30
   1   2  13   85.69    3.20
   1   2  13   83.69    3.20
   1   2  13   88.79    4.30
   1   2  13   81.99    4.10
   1   2  13   83.59    4.30
  -2  -2 -13   38.50    3.60
   2   2  13   37.50    3.50
   2   2  13   42.40    3.50
   2   2  13   39.60    3.50
   2   2  13   35.50    3.60
   2   2  13   38.70    2.60
   2   2  13   37.90    3.30
   2   2  13   33.50    2.80
   3   2  13  115.19    5.30
   3   2  13  108.69    5.00
   3   2  13  112.09    5.10
   3   2  13  110.19    5.40
   3   2  13  106.39    5.30
   3   2  13  107.59    4.40
   3   2  13  102.39    4.60
   3   2  13  110.09    6.20
   4   2  13   58.09    4.60
   4   2  13   58.39    4.30
   4   2  13   51.09    4.20
   4   2  13   70.59    4.40
   4   2  13   62.69    4.60
   4   2  13   50.59    4.20
   5   2  13   14.20    3.90
   5   2  13   15.90    4.30
   5   2  13   10.20    2.30
   5   2  13   15.10    3.90
   6   2  13    3.90    2.30
   6   2  13    5.20    2.50
   6   2  13    1.90    2.30
   6   2  13    2.60    2.40
   6  -3 -13    1.20    2.70
   6  -3 -13    3.50    2.80
  -6   3  13   -5.10    2.50
   5  -3 -13   79.09    6.30
   5  -3 -13   72.59    5.10
  -5   3  13   68.99    5.00
  -5   3  13   61.49    6.10
   4  -3 -13    3.20    1.70
   4  -3 -13   12.70    4.30
  -4   3  13    0.10    2.30
  -4   3  13    1.50    1.80
   3  -3 -13   29.90    3.70
   3  -3 -13   28.80    3.30
  -3   3  13   24.60    3.40
  -3   3  13   29.20    3.90
   2  -3 -13   90.19    4.10
   2  -3 -13   94.69    4.90
  -2   3  13   77.59    4.30
  -2   3  13   90.39    4.50
   1  -3 -13   48.10    3.60
   1  -3 -13   46.30    3.10
  -1   3  13   53.49    3.50
  -1   3  13   50.69    3.50
  -1   3  13   61.69    4.60
   0  -3 -13    1.60    1.20
   0  -3 -13   -0.80    1.10
   0   3  13   -0.10    1.40
   0   3  13    1.00    1.00
   0   3  13    1.70    1.30
   0   3  13    1.20    0.90
   0   3  13    1.80    1.60
  -1  -3 -13   65.99    3.70
  -1  -3 -13   70.29    4.40
   1   3  13   68.49    3.90
   1   3  13   64.39    2.90
   1   3  13   62.49    3.50
   1   3  13   72.39    4.00
   1   3  13   61.59    3.00
   1   3  13   70.39    3.80
  -2  -3 -13   11.00    3.80
   2   3  13   12.70    2.90
   2   3  13    5.30    1.50
   2   3  13    7.80    2.70
   2   3  13   12.10    2.70
   2   3  13    6.30    1.60
   2   3  13    7.90    2.30
   3   3  13    0.20    1.50
   3   3  13    0.20    1.20
   3   3  13    1.90    1.60
   3   3  13    0.80    1.70
   3   3  13    1.60    1.70
   3   3  13   -1.50    1.30
   3   3  13    0.70    1.40
   3   3  13    1.50    1.50
   4   3  13   68.49    4.40
   4   3  13   70.09    4.10
   4   3  13   76.89    6.20
   4   3  13   55.79    4.20
   4   3  13   76.29    4.30
   4   3  13   75.39    5.20
   4   3  13   66.49    4.50
   4   3  13   73.39    4.60
   5   3  13   26.80    3.70
   5   3  13   21.90    3.80
   5   3  13   26.20    3.80
   5   3  13   32.90    3.60
   5   3  13   24.20    3.80
   6   3  13   18.60    4.30
   6   3  13   19.00    3.90
   6   3  13   18.70    4.10
   6   3  13   16.80    4.60
   6   3  13   19.60    4.40
   7   3  13   22.20    5.90
   7   3  13   24.60    5.60
   7   3  13   25.00    5.60
   7   3  13   17.00    4.90
  -5   4  13   28.10    4.50
   4  -4 -13    2.70    1.80
  -4   4  13   -0.70    2.00
  -4   4  13   -0.20    2.70
  -4   4  13   -0.10    1.40
   3  -4 -13   25.90    2.40
   3  -4 -13   30.00    3.10
   3  -4 -13   36.90    4.20
  -3   4  13   30.50    3.80
  -3   4  13   30.80    3.70
  -3   4  13   29.70    2.30
   2  -4 -13    0.90    1.10
   2  -4 -13    1.30    1.30
   2  -4 -13    1.60    1.70
  -2   4  13    1.70    1.60
  -2   4  13    0.80    1.10
  -2   4  13    1.30    1.60
   1  -4 -13  114.19    3.60
   1  -4 -13  118.39    4.20
   1  -4 -13  133.39    5.80
  -1   4  13  133.69    5.30
  -1   4  13  122.49    3.70
  -1   4  13  122.29    4.50
   0  -4 -13  105.39    5.10
   0  -4 -13   97.69    3.80
   0   4  13   98.29    4.50
   0   4  13  101.99    4.70
   0   4  13   96.19    3.50
   0   4  13   93.99    3.40
   0   4  13   94.59    4.00
  -1  -4 -13   21.00    2.60
  -1  -4 -13   21.90    3.20
   1   4  13   29.90    3.20
   1   4  13   24.90    2.80
   1   4  13   22.50    2.70
   1   4  13   22.10    2.50
   1   4  13   20.30    2.30
  -2  -4 -13   66.69    6.10
   2   4  13   65.29    3.20
   2   4  13   70.39    4.10
   2   4  13   59.39    3.50
   2   4  13   63.89    3.40
   2   4  13   67.49    4.00
   2   4  13   65.39    3.50
   3   4  13    2.60    1.60
   3   4  13    5.90    1.80
   3   4  13    3.80    1.70
   3   4  13    5.10    1.60
   3   4  13    5.60    1.80
   3   4  13    8.70    2.90
   4   4  13    9.40    3.00
   4   4  13   12.00    3.30
   4   4  13   16.00    3.80
   4   4  13    8.40    2.00
   4   4  13   10.70    2.30
   4   4  13   11.30    3.40
   4   4  13    7.30    2.10
   5   4  13   44.40    4.00
   5   4  13   46.10    4.30
   5   4  13   50.19    4.30
   5   4  13   43.80    4.30
   5   4  13   47.00    5.20
   5   4  13   43.50    3.90
   6   4  13   -0.70    2.00
   6   4  13    0.10    2.80
   6   4  13    0.20    2.00
   6   4  13   -0.40    2.20
   6   4  13   -0.40    2.10
   7   4  13    1.10    2.60
   7   4  13    4.10    2.40
   7   4  13    2.30    2.50
   7   4  13    1.90    2.90
  -4   5  13    3.10    2.60
   3  -5 -13   30.20    3.00
  -3   5  13   28.90    3.10
  -3   5  13   30.20    4.40
   2  -5 -13    5.80    1.80
   2  -5 -13    4.70    1.90
   2  -5 -13    2.70    1.30
  -2   5  13    4.60    1.90
  -2   5  13    5.60    1.60
  -2   5  13    5.20    1.50
   1  -5 -13  146.09    4.90
   1  -5 -13  147.69    4.40
   1  -5 -13  178.98    7.10
  -1   5  13  154.18    4.40
  -1   5  13  162.68    6.30
  -1   5  13  153.48    4.90
   0  -5 -13    2.10    1.60
   0  -5 -13    3.20    1.50
   0   5  13    3.80    1.50
   0   5  13    8.70    2.80
  -1  -5 -13   36.80    2.90
  -1  -5 -13   37.80    3.70
   1   5  13   33.30    2.70
   1   5  13   37.60    2.10
   1   5  13   35.70    3.30
   1   5  13   41.40    3.70
   1   5  13   39.00    3.30
  -2  -5 -13   10.90    3.00
   2   5  13    4.20    1.20
   2   5  13    4.20    1.50
   2   5  13    7.10    1.80
   2   5  13    7.40    2.40
   2   5  13    6.30    1.90
   3   5  13   17.80    3.10
   3   5  13   15.20    2.50
   3   5  13   10.20    2.10
   3   5  13    8.90    2.70
   3   5  13   13.70    3.00
   4   5  13   17.10    3.70
   4   5  13   14.70    3.60
   4   5  13   14.90    3.90
   4   5  13   20.30    3.10
   4   5  13   22.10    3.70
   4   5  13   16.00    3.40
   4   5  13   18.60    3.60
   5   5  13  110.79    5.30
   5   5  13  111.59    6.10
   5   5  13  116.89    5.80
   5   5  13  101.69    6.50
   5   5  13  104.49    5.60
   5   5  13  110.79    5.60
   6   5  13    5.20    2.50
   6   5  13    4.50    2.40
   6   5  13    4.20    2.20
   6   5  13    4.70    2.60
   6   5  13    6.00    2.50
   7   5  13    1.40    2.40
   7   5  13    4.40    2.50
   7   5  13   -0.60    2.80
   7   5  13   -0.60    2.80
  -3   6  13   13.50    3.90
  -3   6  13   13.70    4.40
   2  -6 -13   15.90    4.70
  -2   6  13    4.40    2.00
  -2   6  13    4.30    2.40
   1  -6 -13   30.30    4.50
   1  -6 -13   25.90    3.70
  -1   6  13   36.00    4.00
  -1   6  13   24.60    3.30
   0  -6 -13   33.50    3.50
   0  -6 -13   37.30    4.20
   0   6  13   39.80    3.50
   0   6  13   43.60    3.80
  -1  -6 -13    3.30    1.80
  -1  -6 -13    2.10    1.90
   1   6  13    0.40    1.50
   1   6  13    1.10    1.80
  -2  -6 -13   -0.20    1.50
  -2  -6 -13    0.10    1.80
   2   6  13    1.10    1.90
   2   6  13    1.30    1.90
  -3  -6 -13   89.49    5.40
   3   6  13   89.29    5.40
   3   6  13   93.59    3.50
   3   6  13   84.09    5.00
   3   6  13   83.09    3.60
   3   6  13   95.09    5.20
  -4  -6 -13   -0.40    2.10
   4   6  13    0.30    2.00
   4   6  13   -0.40    1.70
   4   6  13    0.40    1.50
   4   6  13    2.50    2.10
   5   6  13   18.50    3.10
   5   6  13   21.70    3.70
   5   6  13   15.30    4.50
   5   6  13   17.30    3.80
   5   6  13   22.10    4.50
   6   6  13    9.70    2.70
   6   6  13   16.40    4.50
   6   6  13   10.90    3.70
   6   6  13    9.10    2.60
   7   6  13   -2.50    2.80
   7   6  13   -1.80    2.90
   2  -7 -13    5.50    2.70
  -2   7  13   -1.40    2.50
  -2   7  13    2.30    2.60
  -1   7  13   13.30    4.00
  -1   7  13   13.80    3.10
   0  -7 -13   29.80    4.80
   0  -7 -13   16.40    4.40
   0   7  13   27.80    4.20
  -1  -7 -13   24.60    4.10
  -1  -7 -13   33.10    4.30
  -1  -7 -13   33.50    4.80
   1   7  13   31.60    5.10
  -2  -7 -13   -0.90    1.80
  -2  -7 -13   -0.70    1.90
  -2  -7 -13    0.90    2.40
   2   7  13   -0.20    2.30
  -3  -7 -13  129.79    6.30
  -3  -7 -13  145.69    6.60
   3   7  13  134.49    6.50
   3   7  13  123.39    6.80
  -4  -7 -13    4.70    2.30
   4   7  13    2.70    1.60
   4   7  13    7.00    2.70
   4   7  13    3.90    2.60
  -5  -7 -13    7.30    2.50
   5   7  13    5.00    1.90
   5   7  13    4.30    2.10
   5   7  13    3.20    2.60
  -6  -7 -13    7.30    2.90
   6   7  13    6.40    2.70
   6   7  13   11.60    3.70
   6   7  13    8.80    3.00
   1  -8 -13    0.70    2.80
  -1   8  13    1.70    3.10
  -1   8  13   -1.20    2.60
   0  -8 -13    4.60    2.80
   0  -8 -13    3.40    2.60
   0   8  13    0.20    2.80
  -1  -8 -13   33.80    5.10
  -1  -8 -13   29.30    5.40
   1   8  13   33.60    5.20
  -2  -8 -13    0.60    2.10
  -2  -8 -13    4.30    2.30
   2   8  13    0.40    2.70
  -3  -8 -13    4.80    2.20
  -3  -8 -13    6.30    2.20
   3   8  13    4.60    3.00
  -4  -8 -13    6.80    2.40
  -4  -8 -13    8.70    2.80
   4   8  13    4.10    3.10
  -5  -8 -13    2.10    2.60
   5   8  13   -2.40    3.00
  -2  -9 -13   -0.90    2.50
  -3  -9 -13    1.90    2.60
   3   9  13    3.40    3.60
   5   4 -14   25.00    7.40
  -5  -4  14    3.40    2.20
   4   4 -14    5.70    2.90
  -4  -4  14    3.80    2.20
  -4  -4  14   -0.40    1.80
   3   4 -14   -1.10    2.60
  -3  -4  14   -3.30    1.70
  -3  -4  14    1.50    2.10
   2   4 -14   16.40    5.10
  -2  -4  14    9.30    2.40
  -2  -4  14    9.50    2.50
   1   4 -14    3.30    2.20
   1   4 -14   -2.90    2.80
  -1  -4  14    1.70    2.10
  -1  -4  14    0.50    2.10
   0   4 -14   20.90    6.50
   0   4 -14   16.30    4.40
   0  -4  14   22.40    4.50
   0  -4  14   27.80    5.00
   1  -4  14   -1.10    2.90
   6   3 -14   59.89    7.90
  -6  -3  14   37.10    5.20
   5   3 -14   29.00    6.90
  -5  -3  14   12.90    4.30
   4   3 -14    4.60    2.70
  -4  -3  14    1.50    1.90
  -4  -3  14   -1.00    1.80
   3   3 -14    2.30    2.40
  -3  -3  14    0.00    1.50
  -3  -3  14    0.60    1.90
   2   3 -14    6.00    1.60
   2   3 -14    3.80    2.30
  -2  -3  14    4.90    1.90
  -2  -3  14    5.60    1.90
   1   3 -14    2.40    1.80
   1   3 -14    3.50    2.40
  -1  -3  14    3.00    1.80
  -1  -3  14    1.10    1.80
   0   3 -14    2.90    1.90
   0   3 -14    3.70    2.60
   0  -3  14    0.50    1.70
   0  -3  14   -0.20    2.00
  -1   3 -14   11.30    3.20
  -1   3 -14    8.10    2.50
   1  -3  14    8.40    2.50
   1  -3  14    6.40    2.20
  -2   3 -14   21.90    6.60
  -2   3 -14   16.50    4.90
   2  -3  14   16.00    5.00
   6   2 -14   44.10    5.80
  -6  -2  14   44.60    5.40
   5   2 -14   18.30    5.90
   4   2 -14   17.50    5.30
  -4  -2  14    7.40    2.00
   3   2 -14    2.40    2.10
  -3  -2  14    1.80    1.60
  -3  -2  14    0.60    1.40
   2   2 -14   80.39    5.80
  -2  -2  14   89.99    5.20
  -2  -2  14   79.39    4.40
   1   2 -14   -0.70    2.00
   1   2 -14    1.00    1.20
  -1  -2  14    0.10    1.50
  -1  -2  14   -1.40    1.50
  -1  -2  14    0.00    1.50
   0   2 -14   91.79    4.00
   0   2 -14  108.09    6.40
   0  -2  14   93.99    5.00
   0  -2  14   90.69    4.40
   0  -2  14   96.19    5.30
  -1   2 -14   17.70    3.20
  -1   2 -14   12.30    3.00
   1  -2  14   14.30    4.00
   1  -2  14    9.50    2.10
   1  -2  14   15.50    3.60
  -2   2 -14   63.49    4.80
  -2   2 -14   61.19    6.40
   2  -2  14   54.09    5.40
   2  -2  14   61.19    5.00
   2  -2  14   54.89    4.60
  -3   2 -14    3.20    2.80
   3  -2  14    0.00    2.20
   3  -2  14    1.40    2.50
   6   1 -14    7.90    2.70
  -6  -1  14    9.20    2.60
   5   1 -14   18.10    5.60
   5   1 -14   17.90    4.50
  -5  -1  14   12.00    2.40
   4   1 -14   37.20    5.40
   4   1 -14   32.20    4.90
  -4  -1  14   23.40    3.50
   3   1 -14    3.30    2.10
   3   1 -14   -1.00    1.80
  -3  -1  14   -1.40    1.30
   2   1 -14   32.70    4.40
  -2  -1  14   19.80    2.90
   1   1 -14    3.60    1.90
  -1  -1  14    1.10    1.40
  -1  -1  14    8.60    2.80
   0   1 -14   36.70    4.30
   0   1 -14   27.50    2.30
   0  -1  14   33.40    3.70
   0  -1  14   26.70    3.40
   0  -1  14   30.80    2.80
  -1   1 -14   14.10    2.70
  -1   1 -14   17.50    4.30
   1  -1  14   11.40    3.10
   1  -1  14    9.30    3.10
   1  -1  14   11.90    3.20
  -2   1 -14    4.60    2.00
  -2   1 -14    4.90    2.40
   2  -1  14    5.00    2.30
   2  -1  14    3.20    1.80
   2  -1  14    2.90    1.70
  -3   1 -14   26.80    5.60
  -3   1 -14   23.70    4.20
   3  -1  14   19.90    3.80
   3  -1  14   12.80    3.80
  -4   1 -14    2.10    2.80
   4  -1  14    2.10    2.50
   4  -1  14   -1.10    2.40
   4  -1  14    4.20    2.50
   6   0 -14   13.60    2.90
  -6   0  14   16.90    4.30
   5   0 -14   16.10    5.10
   5   0 -14    2.40    2.10
  -5   0  14    1.10    2.00
   4   0 -14  182.28    7.60
   4   0 -14  190.18    7.70
  -4   0  14  176.68    6.80
   3   0 -14   38.50    4.50
   3   0 -14   40.10    4.20
  -3   0  14   39.40    3.70
   2   0 -14  110.19    5.80
   2   0 -14  112.99    5.60
  -2   0  14  115.19    5.00
  -2   0  14  107.09    5.50
   1   0 -14    3.10    1.70
  -1   0  14    3.80    1.90
  -1   0  14    2.00    1.30
   0   0 -14   67.19    4.60
   0   0  14   58.09    2.60
   0   0  14   62.89    4.00
   0   0  14   64.39    4.10
   0   0  14   59.49    2.50
   0   0  14   65.59    4.50
  -1   0 -14   11.20    3.80
   1   0  14    5.10    1.40
   1   0  14    5.80    1.60
   1   0  14    7.70    2.30
   1   0  14    4.90    1.70
  -2   0 -14   24.70    4.50
   2   0  14   21.00    3.10
   2   0  14   21.70    3.40
   2   0  14   26.20    3.40
  -3   0 -14   12.50    3.40
   3   0  14   11.20    2.20
   3   0  14    9.80    2.20
   3   0  14    8.70    2.50
  -4   0 -14    2.30    2.20
   4   0  14    0.60    2.10
   4   0  14   -0.70    1.90
   4   0  14   -2.30    1.80
  -5   0 -14    5.20    2.90
   5   0  14    0.20    2.40
   5   0  14    3.70    3.00
   5   0  14    1.40    2.40
   6  -1 -14    8.80    2.80
   6  -1 -14   18.80    5.10
  -6   1  14    1.80    2.50
   5  -1 -14    4.30    2.10
   5  -1 -14    6.20    2.50
  -5   1  14   -0.10    2.00
   4  -1 -14   80.09    5.20
   4  -1 -14   72.99    5.40
  -4   1  14   75.49    4.70
   3  -1 -14    2.70    1.70
   3  -1 -14    2.70    1.90
  -3   1  14    0.70    1.60
  -3   1  14    0.70    2.30
   2  -1 -14   52.09    4.00
   2  -1 -14   52.59    4.30
  -2   1  14   51.99    3.50
  -2   1  14   51.09    4.40
   1  -1 -14    0.00    1.40
   1  -1 -14    1.60    1.50
  -1   1  14   -0.60    1.30
  -1   1  14    0.40    1.70
   0  -1 -14   61.39    4.30
   0  -1 -14   62.39    4.20
   0   1  14   59.99    3.70
   0   1  14   60.69    4.10
  -1  -1 -14    2.20    2.10
   1   1  14    1.60    1.10
   1   1  14    3.40    1.80
   1   1  14    1.30    1.20
   1   1  14    0.30    1.30
   1   1  14    0.60    1.30
  -2  -1 -14  100.29    5.70
   2   1  14   95.39    3.90
   2   1  14   99.69    5.20
   2   1  14   97.29    6.40
   2   1  14   96.79    4.70
   2   1  14   88.79    4.20
   3   1  14    0.70    2.10
   3   1  14    2.60    1.60
   3   1  14    1.40    1.60
   3   1  14    2.70    1.70
   4   1  14   35.10    4.50
   4   1  14   31.10    3.90
   4   1  14   38.60    4.40
   4   1  14   38.20    3.70
   5   1  14    2.20    2.10
   5   1  14   -0.40    2.50
   5   1  14    1.90    2.10
   5   1  14    3.00    2.30
   6  -2 -14   34.60    5.90
   6  -2 -14   31.60    5.50
   5  -2 -14   23.40    4.80
   5  -2 -14   26.00    4.90
  -5   2  14   13.10    4.10
   4  -2 -14   55.19    4.80
   4  -2 -14   54.49    4.80
  -4   2  14   50.19    4.20
  -4   2  14   41.20    5.40
   3  -2 -14    2.20    1.80
   3  -2 -14    3.20    1.70
  -3   2  14   -1.30    2.30
  -3   2  14    0.20    1.50
   2  -2 -14   30.70    3.40
   2  -2 -14   29.10    3.70
  -2   2  14   23.10    3.90
  -2   2  14   31.10    3.20
   1  -2 -14    0.80    1.30
   1  -2 -14    1.00    1.50
  -1   2  14    3.70    1.80
  -1   2  14   -1.30    1.10
   0  -2 -14   88.69    5.10
   0  -2 -14   89.69    4.50
   0   2  14   89.19    4.50
   0   2  14   84.59    4.20
  -1  -2 -14   22.30    3.30
  -1  -2 -14   20.20    3.50
   1   2  14   24.30    2.20
   1   2  14   19.10    3.00
   1   2  14   23.30    2.20
   1   2  14   23.10    3.30
  -2  -2 -14   45.20    4.00
   2   2  14   48.50    4.20
   2   2  14   42.50    3.80
   2   2  14   44.10    3.60
   2   2  14   45.10    3.10
   2   2  14   48.80    3.00
   3   2  14    2.70    1.80
   3   2  14    3.40    2.00
   3   2  14    2.80    2.20
   3   2  14    2.70    1.90
   3   2  14    8.40    2.70
   3   2  14    0.70    1.50
   4   2  14   18.20    4.10
   4   2  14   21.30    4.00
   4   2  14   21.00    3.40
   4   2  14   16.70    3.80
   4   2  14   17.20    3.40
   5   2  14    6.70    2.50
   5   2  14    6.60    2.50
   5   2  14    7.00    2.30
   5   2  14    4.70    2.10
   6   2  14    0.50    2.30
   6   2  14   -2.30    2.50
   6   2  14   -1.80    2.50
   6   2  14   -2.50    2.60
   5  -3 -14    4.40    2.60
   5  -3 -14    3.40    2.40
  -5   3  14   -1.90    2.10
   4  -3 -14   28.90    4.30
   4  -3 -14   32.40    4.30
  -4   3  14   20.40    5.10
  -4   3  14   25.30    3.90
   3  -3 -14   12.90    3.50
   3  -3 -14   10.90    3.60
  -3   3  14    7.10    2.00
  -3   3  14    4.50    2.30
   2  -3 -14  201.68    7.70
   2  -3 -14  199.48    6.60
  -2   3  14  192.08    6.80
  -2   3  14  210.98    7.20
   1  -3 -14    0.50    1.40
   1  -3 -14    1.20    1.30
  -1   3  14    0.20    1.80
  -1   3  14    1.50    1.40
   0  -3 -14  263.67    8.70
   0  -3 -14  258.17    7.70
   0   3  14  247.98    7.50
   0   3  14  263.57    8.00
  -1  -3 -14   -0.10    1.40
  -1  -3 -14    2.80    1.70
   1   3  14   -1.10    1.20
   1   3  14   -0.20    1.30
   1   3  14    0.60    1.60
   1   3  14   -0.10    1.30
   2   3  14   73.79    4.30
   2   3  14   73.79    4.30
   2   3  14   72.99    3.60
   2   3  14   67.19    3.50
   3   3  14    0.60    1.80
   3   3  14    2.70    1.90
   3   3  14    0.20    1.50
   3   3  14    0.80    1.50
   3   3  14   -0.30    1.50
   3   3  14    0.00    1.60
   4   3  14   23.80    4.00
   4   3  14   29.30    5.70
   4   3  14   24.60    3.80
   4   3  14   23.90    3.90
   4   3  14   25.80    4.10
   5   3  14    1.60    2.00
   5   3  14    0.90    2.00
   5   3  14    0.00    1.90
   5   3  14    3.50    2.20
   6   3  14    2.40    2.60
   6   3  14   -2.50    2.10
   6   3  14    1.20    2.40
   6   3  14    0.00    2.30
   5  -4 -14    4.10    4.80
  -5   4  14    5.20    2.80
   4  -4 -14   19.20    4.80
   4  -4 -14    0.80    2.00
   3  -4 -14    2.50    1.80
   3  -4 -14   13.40    4.10
  -3   4  14    3.40    2.00
  -3   4  14    2.50    2.20
   2  -4 -14   65.99    4.60
   2  -4 -14   55.09    3.60
  -2   4  14   56.89    4.10
  -2   4  14   61.79    4.50
   1  -4 -14    4.50    1.40
   1  -4 -14    9.90    3.40
  -1   4  14    5.50    1.90
  -1   4  14    6.00    1.90
  -1   4  14    7.20    1.70
   0  -4 -14   63.99    3.60
   0  -4 -14   70.69    4.70
   0   4  14   67.39    4.00
   0   4  14   60.29    2.90
   0   4  14   62.19    3.80
   0   4  14   56.49    2.80
  -1  -4 -14    2.70    1.50
  -1  -4 -14    4.10    1.70
   1   4  14    3.70    1.40
   1   4  14    2.50    1.40
   1   4  14    3.30    1.60
   1   4  14    2.70    1.60
  -2  -4 -14   73.59    5.10
   2   4  14   70.69    4.20
   2   4  14   66.29    3.80
   2   4  14   61.69    3.90
   2   4  14   67.79    3.60
   2   4  14   70.99    3.80
   3   4  14    8.80    2.00
   3   4  14    9.00    2.10
   3   4  14   12.50    3.20
   3   4  14   12.90    3.10
   3   4  14   10.80    3.10
   4   4  14   14.10    4.30
   4   4  14   18.10    3.70
   4   4  14   17.10    3.50
   4   4  14   12.70    4.20
   4   4  14   11.30    3.80
   4   4  14   11.70    3.50
   5   4  14    0.60    2.20
   5   4  14    3.10    2.10
   5   4  14    3.20    2.00
   5   4  14    3.90    2.10
   6   4  14    1.20    2.30
   6   4  14    0.10    2.60
   6   4  14    0.30    2.40
   6   4  14    1.00    2.50
  -4   5  14   16.90    5.00
  -3   5  14   12.10    2.70
   2  -5 -14   41.60    5.00
   2  -5 -14   24.90    2.70
  -2   5  14   29.90    2.80
  -2   5  14   39.20    4.10
   1  -5 -14    1.10    2.40
   1  -5 -14    1.00    1.30
   1  -5 -14    1.80    1.70
  -1   5  14    1.60    1.40
  -1   5  14    0.50    1.50
  -1   5  14    0.40    1.60
   0  -5 -14   50.49    4.70
   0   5  14   47.30    3.20
   0   5  14   37.60    3.70
   0   5  14   42.60    3.10
  -1  -5 -14    0.30    1.60
   1   5  14    2.30    1.80
   1   5  14    1.40    1.60
   1   5  14   -0.10    1.10
   1   5  14   -0.70    1.40
   1   5  14    0.60    1.50
  -2  -5 -14   79.49    5.20
   2   5  14   77.69    4.70
   2   5  14   70.69    3.80
   2   5  14   78.49    4.30
   2   5  14   65.59    3.90
   2   5  14   70.49    3.40
  -3  -5 -14   -1.10    1.80
   3   5  14    0.50    1.70
   3   5  14   -1.90    1.90
   3   5  14   -0.50    1.80
   3   5  14    0.60    1.50
   3   5  14   -0.20    1.80
   4   5  14   33.80    4.20
   4   5  14   34.90    3.80
   4   5  14   30.10    4.40
   4   5  14   35.40    4.20
   4   5  14   32.10    4.30
   4   5  14   39.80    5.60
   4   5  14   37.60    4.30
   5   5  14   -1.80    1.80
   5   5  14   -3.50    2.20
   5   5  14    1.20    2.90
   5   5  14   -3.90    1.90
   5   5  14   -0.40    2.10
   6   5  14   23.50    4.70
   6   5  14   27.50    4.60
   6   5  14   25.00    5.10
   6   5  14   30.70    5.10
   3  -6 -14   34.00    5.70
  -2   6  14    6.50    2.40
  -2   6  14    8.10    2.20
  -1   6  14   10.20    2.50
  -1   6  14   17.40    3.30
   0  -6 -14   12.50    3.30
   0  -6 -14   14.20    4.00
   0   6  14   13.20    3.40
   0   6  14   15.90    3.60
  -1  -6 -14    3.70    1.90
  -1  -6 -14    2.20    2.00
   1   6  14    3.10    2.10
   1   6  14    1.40    1.70
  -2  -6 -14   80.39    5.40
   2   6  14   83.29    5.00
   2   6  14   85.49    4.60
  -3  -6 -14    6.90    2.20
   3   6  14    7.30    2.10
   3   6  14    7.30    2.50
   3   6  14    4.40    2.00
   3   6  14    3.90    1.40
   4   6  14   64.89    6.70
   4   6  14   62.19    4.80
   4   6  14   53.79    4.00
   4   6  14   51.59    4.80
   5   6  14    0.30    2.10
   5   6  14   -0.50    2.50
   5   6  14   -1.60    2.20
   5   6  14   -1.40    2.50
   5   6  14    1.70    1.90
   6   6  14   26.40    5.30
   6   6  14   29.30    5.40
   6   6  14   25.40    4.50
   6   6  14   17.90    5.20
   2  -7 -14   19.50    6.40
   1  -7 -14    5.40    2.60
  -1   7  14    3.00    2.50
  -1   7  14    1.60    2.40
   0  -7 -14   17.40    5.00
   0   7  14   15.10    4.00
   0   7  14   12.20    4.10
  -1  -7 -14    3.90    2.60
  -1  -7 -14    3.10    2.10
   1   7  14    4.00    2.90
   1   7  14    5.50    2.00
  -2  -7 -14   28.90    4.70
  -2  -7 -14   15.90    4.20
   2   7  14   25.20    4.90
  -3  -7 -14   18.50    4.50
  -4  -7 -14   23.40    5.00
   4   7  14   18.30    4.80
   5   7  14    2.90    2.90
   5   7  14    5.60    2.30
   0  -8 -14   25.10    5.90
   0   8  14   17.20    5.20
   0   8  14   10.40    3.00
  -1  -8 -14   -0.50    2.30
   1   8  14    8.40    3.30
  -2  -8 -14    4.30    2.50
  -2  -8 -14    2.90    2.70
   2   8  14    9.80    3.40
  -3  -8 -14   -3.60    2.40
  -3  -8 -14    1.80    2.50
   3   8  14   -0.10    3.10
  -4  -8 -14   21.30    5.70
  -4  -8 -14   18.80    5.50
   4   8  14   12.40    3.70
   3   4 -15   68.09    8.90
  -3  -4  15   80.19    8.40
  -3  -4  15   72.79    6.10
   2   4 -15   -0.70    3.10
  -2  -4  15   -0.20    2.50
  -1  -4  15    4.50    2.40
  -1  -4  15    1.50    2.70
   5   3 -15   36.80    7.80
  -5  -3  15   13.30    2.90
  -5  -3  15   16.10    5.10
   4   3 -15    6.40    3.10
  -4  -3  15   -2.50    1.90
  -4  -3  15    1.70    2.20
   3   3 -15    8.10    3.20
  -3  -3  15    8.70    2.20
  -3  -3  15   13.30    4.60
   2   3 -15   31.00    5.30
  -2  -3  15   22.70    3.90
  -2  -3  15   32.30    4.40
   1   3 -15    1.50    2.60
  -1  -3  15    1.50    2.00
  -1  -3  15    0.00    2.20
   0   3 -15   -1.10    3.20
   0   3 -15   -1.40    3.00
   0  -3  15    0.40    2.00
   0  -3  15    0.60    2.30
  -1   3 -15   38.60    6.90
  -1   3 -15   30.50    4.70
   1  -3  15   27.70    5.00
   1  -3  15   31.30    4.60
   5   2 -15  136.79    8.80
   5   2 -15  116.59    7.50
  -5  -2  15  113.99    6.40
   4   2 -15    9.00    3.00
  -4  -2  15    3.30    1.90
  -4  -2  15    3.90    2.10
   3   2 -15   10.00    2.90
  -3  -2  15    5.50    2.00
  -3  -2  15    3.50    1.90
   2   2 -15    7.50    2.50
  -2  -2  15    6.70    1.90
   1   2 -15   57.19    5.60
  -1  -2  15   55.49    4.80
  -1  -2  15   52.79    4.30
   0   2 -15   10.40    2.80
   0   2 -15    8.70    3.00
   0  -2  15    5.30    1.80
   0  -2  15    6.20    2.10
  -1   2 -15   35.80    3.90
  -1   2 -15   37.50    6.10
   1  -2  15   32.60    4.40
   1  -2  15   26.00    4.20
  -2   2 -15    5.10    2.60
  -2   2 -15    2.30    3.30
   2  -2  15    0.00    2.00
   2  -2  15    1.00    2.40
   5   1 -15   34.30    6.30
   5   1 -15   41.40    5.80
  -5  -1  15   27.90    4.30
   4   1 -15   18.80    5.50
   4   1 -15   20.20    4.70
  -4  -1  15   11.00    3.50
   3   1 -15    6.30    2.40
   3   1 -15   13.50    4.30
  -3  -1  15    3.40    1.80
   2   1 -15    0.20    2.40
  -2  -1  15    0.90    1.70
  -2  -1  15   -0.60    1.60
   1   1 -15  271.47    9.70
  -1  -1  15  285.57    9.50
  -1  -1  15  278.57    8.80
   0   1 -15   29.50    5.00
   0  -1  15   23.90    3.60
   0  -1  15   27.10    3.00
   0  -1  15   26.20    3.80
  -1   1 -15   25.00    3.10
  -1   1 -15   31.10    5.20
   1  -1  15   26.70    3.70
   1  -1  15   26.70    3.90
   1  -1  15   32.90    3.80
  -2   1 -15   10.70    2.40
  -2   1 -15   11.50    3.10
   2  -1  15   11.40    3.80
   2  -1  15   11.40    3.70
   2  -1  15   12.10    3.10
  -3   1 -15   15.30    3.00
   3  -1  15   12.60    4.20
   3  -1  15   20.70    4.50
   5   0 -15   -1.90    2.50
   5   0 -15    2.00    2.30
  -5   0  15   -3.80    2.00
   4   0 -15   42.00    5.50
   4   0 -15   30.00    4.70
  -4   0  15   30.90    4.00
   3   0 -15   89.29    5.90
   3   0 -15   85.19    5.80
  -3   0  15   85.79    4.80
   2   0 -15    0.20    1.80
   2   0 -15   -0.90    2.00
  -2   0  15    2.70    1.50
   1   0 -15  102.69    5.80
  -1   0  15  109.49    5.20
   0   0 -15    1.10    2.00
   0   0  15    0.20    1.50
   0   0  15    1.40    1.70
  -1   0 -15    0.10    2.10
   1   0  15    2.70    1.80
   1   0  15   -0.10    1.60
   1   0  15   -0.20    1.30
   1   0  15   -0.10    1.50
  -2   0 -15    5.00    2.70
   2   0  15    3.40    2.10
   2   0  15    4.00    1.80
   2   0  15    3.00    1.90
   3   0  15   13.40    4.30
   3   0  15   10.10    2.50
   3   0  15   11.40    3.90
   4   0  15    6.60    2.60
   4   0  15    9.00    2.60
   4   0  15    6.30    2.70
   5  -1 -15   -0.10    2.60
   5  -1 -15    3.10    2.20
  -5   1  15   -2.70    2.10
   4  -1 -15    1.30    2.30
   4  -1 -15    2.30    2.00
  -4   1  15    4.40    2.00
   3  -1 -15  181.58    7.70
   3  -1 -15  172.38    7.20
  -3   1  15  175.28    6.80
   2  -1 -15   41.60    4.40
   2  -1 -15   30.80    4.40
  -2   1  15   30.20    4.70
  -2   1  15   31.30    3.40
   1  -1 -15   85.39    5.00
   1  -1 -15   86.09    5.40
  -1   1  15   90.39    4.60
  -1   1  15   86.19    5.20
   0  -1 -15   29.10    4.00
   0   1  15   28.20    4.20
   0   1  15   24.90    3.20
  -1  -1 -15   48.80    4.60
   1   1  15   45.20    2.80
   1   1  15   49.50    3.90
   1   1  15   49.60    2.70
   1   1  15   44.70    4.20
  -2  -1 -15   41.10    4.90
   2   1  15   39.40    3.80
   2   1  15   42.90    3.30
   2   1  15   32.50    3.30
   2   1  15   39.30    4.40
   3   1  15   71.59    4.70
   3   1  15   76.89    4.90
   3   1  15   82.99    5.30
   3   1  15   76.89    4.50
   4   1  15    9.70    2.50
   4   1  15    6.30    2.30
   4   1  15   18.10    3.90
   4   1  15    9.60    2.40
   5   1  15    9.70    3.30
   5   1  15    6.30    2.70
   5   1  15    5.00    2.60
   5   1  15    5.80    2.70
   5  -2 -15    7.70    2.80
   5  -2 -15   11.30    3.00
  -5   2  15    6.40    2.60
   4  -2 -15    4.00    2.40
   4  -2 -15    3.60    2.10
  -4   2  15    2.70    2.00
   3  -2 -15   62.09    5.10
   3  -2 -15   60.59    4.80
  -3   2  15   56.39    4.30
  -3   2  15   46.50    5.70
   2  -2 -15    3.10    1.90
   2  -2 -15    4.30    1.80
  -2   2  15    6.10    1.70
  -2   2  15    2.40    2.50
   1  -2 -15    8.40    2.10
   1  -2 -15   11.70    3.50
  -1   2  15    8.30    2.40
  -1   2  15    8.10    1.80
   0  -2 -15   31.80    3.80
   0  -2 -15   32.00    4.10
   0   2  15   26.30    3.20
   0   2  15   31.60    3.90
  -1  -2 -15   97.49    8.30
   1   2  15  109.09    3.80
   1   2  15  102.79    3.70
   1   2  15  105.29    5.10
   1   2  15  106.39    5.30
  -2  -2 -15   34.00    4.50
   2   2  15   31.90    3.10
   2   2  15   30.40    4.30
   2   2  15   26.50    4.00
   2   2  15   27.70    3.60
   2   2  15   27.60    3.20
   3   2  15   78.99    4.70
   3   2  15   79.59    5.30
   3   2  15   81.29    4.40
   3   2  15   77.19    4.90
   3   2  15   72.49    4.60
   4   2  15    4.40    3.30
   4   2  15    4.10    2.20
   4   2  15    2.90    2.00
   4   2  15    4.60    2.20
   4   2  15    0.80    1.90
   5   2  15    4.50    2.50
   5   2  15    1.90    2.60
   5   2  15    3.60    2.60
   5   2  15    3.00    2.50
   5  -3 -15   52.59    5.90
   5  -3 -15   48.20    6.00
  -5   3  15   49.99    5.30
   4  -3 -15   16.10    4.40
   4  -3 -15   22.10    5.20
   3  -3 -15    7.40    2.20
   3  -3 -15   12.80    4.10
  -3   3  15    6.10    2.10
  -3   3  15    4.50    2.80
   2  -3 -15   20.40    3.60
   2  -3 -15   10.50    3.50
  -2   3  15   10.30    2.60
  -2   3  15   15.60    3.40
   1  -3 -15   34.80    4.10
   1  -3 -15   32.50    3.50
  -1   3  15   37.80    3.70
  -1   3  15   38.60    4.40
   0  -3 -15    2.30    1.70
   0  -3 -15    0.90    1.70
   0   3  15    3.50    2.00
   0   3  15    3.20    1.60
  -1  -3 -15  228.78    8.50
  -1  -3 -15  207.28    7.20
   1   3  15  219.18    7.50
   1   3  15  204.68    5.80
   1   3  15  211.18    5.80
   1   3  15  197.48    7.00
   2   3  15   12.20    3.50
   2   3  15    9.10    2.30
   2   3  15    9.40    2.00
   2   3  15   13.50    2.80
   3   3  15   16.80    3.80
   3   3  15   15.30    3.80
   3   3  15   13.80    2.50
   3   3  15   10.00    3.30
   3   3  15   11.90    2.30
   3   3  15    9.50    2.70
   4   3  15    4.60    2.70
   4   3  15    7.40    2.10
   4   3  15    9.90    2.40
   4   3  15    7.20    2.40
   4   3  15   10.60    2.50
   5   3  15    0.70    2.30
   5   3  15    1.40    2.20
   5   3  15    3.50    2.50
   5   3  15    1.50    2.20
   4  -4 -15    1.70    2.20
  -4   4  15   -2.50    2.30
   3  -4 -15    1.00    1.90
   3  -4 -15    2.40    1.90
  -3   4  15   -1.80    2.00
   2  -4 -15   17.30    3.90
   2  -4 -15   13.50    3.20
  -2   4  15   12.80    2.60
  -2   4  15   18.20    3.80
   1  -4 -15   73.89    5.20
   1  -4 -15   69.09    3.90
  -1   4  15   64.09    4.60
  -1   4  15   79.19    4.80
   0  -4 -15   23.80    4.00
   0  -4 -15   29.30    3.30
   0   4  15   33.80    3.40
   0   4  15   29.70    3.90
   0   4  15   29.30    2.30
   0   4  15   29.30    2.30
  -1  -4 -15  136.79    5.50
  -1  -4 -15  149.99    6.90
   1   4  15  126.99    5.40
   1   4  15  148.69    6.00
   1   4  15  134.49    4.70
  -2  -4 -15    3.00    2.00
   2   4  15    3.60    2.00
   2   4  15    1.60    1.80
   2   4  15    3.60    1.50
   2   4  15    3.10    1.90
   2   4  15    3.40    1.80
   3   4  15   17.00    3.70
   3   4  15   19.10    3.60
   3   4  15   23.90    3.60
   3   4  15   20.90    4.00
   3   4  15   16.60    4.10
   3   4  15   22.10    3.70
   4   4  15    6.50    2.60
   4   4  15   11.60    3.90
   4   4  15    5.00    2.30
   4   4  15    4.20    2.00
   4   4  15    5.00    2.60
   4   4  15    4.80    2.20
   5   4  15   31.00    5.00
   5   4  15   31.70    5.00
   5   4  15   34.60    4.80
   5   4  15   37.70    4.70
   6   4  15   26.80    5.70
   3  -5 -15    4.90    2.60
  -3   5  15    0.70    2.50
   2  -5 -15    5.60    2.10
  -2   5  15    3.00    2.30
   1  -5 -15   17.90    2.90
   1  -5 -15   25.30    4.30
  -1   5  15   22.70    3.80
  -1   5  15   16.80    2.50
   0  -5 -15    5.60    2.10
   0  -5 -15    5.20    1.50
   0   5  15    5.80    1.70
   0   5  15    6.10    1.90
   0   5  15    7.20    2.20
   0   5  15    5.20    2.20
  -1  -5 -15    5.50    2.00
   1   5  15    4.90    1.40
   1   5  15    4.60    2.00
   1   5  15    6.00    1.80
   1   5  15    4.70    1.80
  -2  -5 -15   39.20    4.70
   2   5  15   32.70    3.20
   2   5  15   30.70    3.50
   2   5  15   34.40    3.80
   2   5  15   31.30    3.80
   2   5  15   29.80    3.70
  -3  -5 -15    3.80    2.10
   3   5  15    3.10    2.30
   3   5  15    3.30    2.10
   3   5  15    3.60    2.10
   3   5  15    2.60    2.40
   3   5  15    3.00    1.70
   4   5  15   10.80    2.50
   4   5  15   11.60    2.90
   4   5  15   13.20    3.80
   4   5  15   11.60    2.80
   4   5  15   16.10    3.90
   5   5  15   63.19    5.30
   5   5  15   54.59    5.30
   5   5  15   49.20    5.50
   5   5  15   60.79    5.20
   2  -6 -15   17.40    5.80
  -2   6  15    9.50    2.80
   1  -6 -15   31.10    5.00
  -1   6  15   27.30    4.50
  -1   6  15   27.80    3.90
   0  -6 -15    4.80    2.20
   0   6  15    0.60    2.00
   0   6  15    4.60    2.00
  -1  -6 -15    1.60    2.00
   1   6  15   -0.10    1.90
   1   6  15    1.60    2.10
  -2  -6 -15    1.90    2.00
   2   6  15    0.40    2.30
   2   6  15    2.90    2.30
   2   6  15    1.60    1.90
  -3  -6 -15   44.80    5.40
   3   6  15   39.20    4.90
   3   6  15   35.20    3.30
   3   6  15   34.60    4.70
   3   6  15   36.00    4.80
   4   6  15    5.20    2.80
   4   6  15    8.80    2.10
   4   6  15   20.40    4.80
   5   6  15   25.90    5.50
   5   6  15   30.10    4.60
   5   6  15   35.10    5.50
   5   6  15   34.00    5.00
   1  -7 -15    5.10    3.00
  -1   7  15   -1.30    2.60
   0  -7 -15   16.00    5.10
   0   7  15   14.80    4.30
   0   7  15   10.90    2.80
  -1  -7 -15   -0.50    2.40
   1   7  15    1.00    2.10
   1   7  15   -0.90    2.80
  -2  -7 -15   -1.90    2.30
   2   7  15   -0.70    2.70
   2   7  15   -0.40    2.00
  -3  -7 -15   57.79    6.00
   3   7  15   53.19    5.70
   3   7  15   56.69    5.00
  -4  -7 -15   -0.10    2.60
   4   7  15    2.80    2.40
   4   7  15    1.60    3.10
  -2  -8 -15    3.00    2.90
   2   8  15    5.60    3.50
  -3  -8 -15   20.50    5.80
   3   3 -16    1.70    3.30
  -3  -3  16   -1.00    2.30
   2   3 -16    7.80    3.40
  -2  -3  16    9.60    2.70
  -2  -3  16    6.10    2.50
   1   3 -16    3.40    3.40
  -1  -3  16    3.50    2.40
  -1  -3  16    0.20    2.50
   4   2 -16    8.90    3.30
  -4  -2  16    4.00    2.30
  -4  -2  16    3.00    2.40
   3   2 -16   13.60    3.60
  -3  -2  16   16.00    4.70
  -3  -2  16    9.60    2.20
   2   2 -16   10.70    3.00
  -2  -2  16   16.00    4.30
  -2  -2  16   11.00    2.40
   1   2 -16    8.00    3.10
  -1  -2  16    2.00    2.00
  -1  -2  16    4.00    2.20
   0   2 -16    5.90    3.40
   0  -2  16    4.50    2.10
   0  -2  16    5.70    2.40
  -1   2 -16    1.80    3.30
   1  -2  16    0.60    2.50
   1  -2  16    0.00    2.10
   5   1 -16    1.90    3.30
   5   1 -16    2.70    2.80
  -5  -1  16    1.50    2.40
   4   1 -16   16.90    3.40
   4   1 -16   24.90    6.00
  -4  -1  16   12.40    4.00
   3   1 -16    2.80    2.70
  -3  -1  16    1.50    1.80
   2   1 -16   49.70    5.50
  -2  -1  16   60.39    4.90
  -2  -1  16   48.30    4.20
   1   1 -16    1.00    2.40
  -1  -1  16   -2.80    1.70
  -1  -1  16    0.60    1.90
   0   1 -16   49.30    6.10
   0  -1  16   48.30    4.50
   0  -1  16   42.80    4.40
  -1   1 -16    5.40    2.90
   1  -1  16    4.30    2.20
   1  -1  16   11.10    3.80
  -2   1 -16   24.90    6.50
  -2   1 -16   19.70    4.80
   2  -1  16   23.90    4.40
   2  -1  16   19.20    4.70
   5   0 -16    6.20    2.90
   5   0 -16   10.80    3.50
  -5   0  16    5.30    2.60
   4   0 -16   31.70    5.90
   4   0 -16   39.60    5.80
   3   0 -16    2.30    2.50
   3   0 -16    2.70    2.40
  -3   0  16   -1.40    1.70
   2   0 -16   22.50    4.70
   2   0 -16   14.40    4.50
  -2   0  16   10.80    3.30
   1   0 -16    0.30    2.20
  -1   0  16   -2.50    1.60
  -1   0  16   -0.20    1.60
   0   0 -16   35.00    5.20
   0   0  16   38.50    4.20
   0   0  16   29.60    3.90
  -1   0 -16   12.80    3.20
   1   0  16   12.20    3.70
   1   0  16    8.60    2.30
   1   0  16   15.50    2.70
  -2   0 -16    8.60    3.30
   2   0  16   13.20    3.30
   2   0  16   10.90    2.50
   2   0  16   16.40    3.90
   3   0  16   -4.00    2.30
   3   0  16   -1.20    2.30
   3   0  16    0.10    2.30
   5  -1 -16    2.50    2.90
   5  -1 -16   -2.90    2.40
  -5   1  16   -2.00    2.40
   4  -1 -16   18.60    5.30
   4  -1 -16   25.60    5.00
  -4   1  16   12.00    2.70
   3  -1 -16    2.70    2.30
   3  -1 -16    1.80    2.00
  -3   1  16   -1.40    1.90
   2  -1 -16   13.50    4.40
   2  -1 -16   24.60    4.70
  -2   1  16   11.40    2.20
   1  -1 -16    4.40    2.00
   1  -1 -16    4.60    2.20
  -1   1  16    3.60    1.70
   0  -1 -16   19.60    4.50
   0   1  16   17.10    3.40
  -1  -1 -16    0.30    2.30
   1   1  16   -1.00    1.30
   1   1  16    0.40    1.70
   1   1  16    3.20    1.90
  -2  -1 -16    3.70    2.70
   2   1  16    0.90    1.90
   2   1  16    3.30    2.10
   2   1  16    4.90    1.90
   3   1  16    1.10    2.40
   3   1  16   -3.10    2.00
   3   1  16    0.60    2.00
   4   1  16   26.00    5.00
   4   1  16    9.20    2.80
   4   1  16   24.90    5.10
   4   1  16   14.40    3.10
   4  -2 -16   16.80    5.00
   4  -2 -16    7.70    2.80
  -4   2  16    4.50    2.60
   3  -2 -16    0.80    2.00
   3  -2 -16    1.10    2.20
  -3   2  16    0.80    2.00
   2  -2 -16   14.60    4.40
   2  -2 -16    7.90    2.40
  -2   2  16    2.80    3.00
  -2   2  16    8.20    2.10
   1  -2 -16    1.40    1.90
   1  -2 -16    4.00    1.90
  -1   2  16   -0.20    2.60
  -1   2  16    1.00    1.60
   0  -2 -16   27.50    4.40
   0  -2 -16   30.10    4.50
   0   2  16   27.80    4.60
   0   2  16   37.70    3.60
  -1  -2 -16   -1.00    2.10
   1   2  16    0.90    3.70
   1   2  16    0.00    1.60
   1   2  16   -1.00    1.60
   1   2  16   -0.40    1.30
   1   2  16   -0.70    1.70
  -2  -2 -16   68.89    5.60
   2   2  16   65.79    4.60
   2   2  16   71.09    5.20
   2   2  16   69.09    4.90
   2   2  16   59.69    3.80
   3   2  16    6.00    2.30
   3   2  16    4.50    2.00
   3   2  16    4.60    2.40
   3   2  16    7.70    2.30
   4   2  16   66.49    5.80
   4   2  16   62.89    5.10
   4   2  16   68.89    5.80
   4   2  16   68.19    5.10
   4  -3 -16    5.10    2.50
   4  -3 -16    4.80    2.70
  -4   3  16    0.60    2.50
   3  -3 -16    5.20    2.10
  -3   3  16    6.70    2.20
   2  -3 -16    3.60    2.00
   2  -3 -16    3.80    2.10
  -2   3  16   -0.80    2.90
  -2   3  16    3.20    2.00
   1  -3 -16    4.00    2.10
   1  -3 -16   11.10    4.00
  -1   3  16    4.70    2.70
  -1   3  16    2.70    1.70
   0  -3 -16   19.40    4.40
   0  -3 -16   18.10    3.90
   0   3  16   11.80    3.20
   0   3  16   12.40    2.70
  -1  -3 -16    1.30    2.10
  -1  -3 -16    2.70    2.00
   1   3  16    2.50    1.80
   1   3  16    1.00    2.30
   1   3  16   -1.90    1.60
   1   3  16    1.70    1.50
   2   3  16   10.50    2.40
   2   3  16   11.50    2.40
   2   3  16   12.90    3.20
   2   3  16   10.20    2.30
   2   3  16    7.40    2.60
   3   3  16   18.50    4.40
   3   3  16   11.40    3.80
   3   3  16   14.60    3.70
   3   3  16   11.40    2.90
   3   3  16   11.50    2.50
   4   3  16   13.20    2.70
   4   3  16   24.00    5.40
   4   3  16   18.50    4.50
   4   3  16   22.90    4.60
   5   3  16    4.40    2.80
   5   3  16    0.40    2.60
   5   3  16   -1.00    2.80
   5   3  16   -2.60    2.50
   3  -4 -16    4.10    2.20
  -3   4  16    0.40    2.30
   2  -4 -16   26.70    3.80
   2  -4 -16   38.50    4.80
  -2   4  16   28.90    4.60
   1  -4 -16    1.30    1.80
   1  -4 -16    0.50    2.00
  -1   4  16    0.50    1.90
   0  -4 -16   21.50    3.60
   0  -4 -16   29.00    4.50
   0   4  16   22.10    3.50
   0   4  16   19.70    4.50
  -1  -4 -16    1.60    2.20
  -1  -4 -16    2.30    1.90
   1   4  16   -1.70    1.70
   1   4  16   -0.30    1.80
   1   4  16    2.00    2.30
  -2  -4 -16   32.80    5.10
   2   4  16   26.90    4.40
   2   4  16   30.10    4.60
   2   4  16   25.90    3.60
   2   4  16   25.00    3.60
   2   4  16   23.10    4.10
   3   4  16    2.00    2.60
   3   4  16   -1.20    2.00
   3   4  16    0.10    2.70
   3   4  16   -1.70    2.20
   3   4  16    2.20    2.00
   3   4  16    3.80    2.10
   4   4  16   12.80    2.80
   4   4  16   17.40    4.60
   4   4  16   12.80    2.90
   4   4  16   18.10    4.80
   5   4  16   -1.20    2.70
   5   4  16    0.90    2.60
   5   4  16   -1.30    3.00
   5   4  16    0.10    2.40
   2  -5 -16    4.20    2.40
  -2   5  16    3.60    2.60
   1  -5 -16    5.40    2.20
  -1   5  16    6.10    2.40
   0  -5 -16   -0.40    2.10
   0   5  16    2.10    2.40
   0   5  16    4.50    2.00
  -1  -5 -16    1.80    2.20
   1   5  16    0.80    2.00
   1   5  16    3.10    1.80
   1   5  16    0.60    1.50
  -2  -5 -16   17.50    4.90
   2   5  16    5.40    2.00
   2   5  16    6.70    2.40
   2   5  16    6.10    1.90
   3   5  16    2.40    2.00
   3   5  16   -3.50    2.20
   3   5  16   -0.80    1.80
   4   5  16    1.20    2.70
   4   5  16    4.00    2.50
   4   5  16    6.80    2.50
   4   5  16    2.40    2.70
   5   5  16    1.10    3.00
   5   5  16    2.60    2.40
   5   5  16    0.20    2.80
   5   5  16    3.40    2.90
   1  -6 -16    7.80    2.80
  -1   6  16    6.00    2.40
   0  -6 -16    4.20    2.50
   0   6  16    5.00    2.20
  -1  -6 -16   -2.90    2.20
   1   6  16    0.70    2.10
   1   6  16   -0.10    2.20
  -2  -6 -16    2.20    2.50
   2   6  16   -1.10    2.10
   2   6  16    3.80    2.70
  -3  -6 -16    2.70    2.70
   3   6  16   -0.30    2.40
   3   6  16    1.20    2.80
   4   6  16    2.70    3.00
   4   6  16    2.70    2.60
   4   6  16    1.40    2.50
  -1  -7 -16   -2.80    2.60
   1   7  16    1.40    3.30
   1   7  16    1.50    2.50
  -2  -7 -16   25.40    5.50
   2   7  16   27.00    4.60
   2   7  16   19.70    5.50
  -3  -7 -16    2.80    2.80
   3   7  16    2.60    3.30
   3   7  16   -0.70    2.60
   2   2 -17    4.90    3.30
  -2  -2  17    8.40    2.90
   1   2 -17    6.20    3.40
  -1  -2  17    6.60    3.30
  -1  -2  17    5.70    2.60
   3   1 -17   -1.10    3.00
  -3  -1  17    3.70    2.40
  -3  -1  17    1.50    2.10
   2   1 -17    1.10    2.90
  -2  -1  17    0.90    2.20
  -2  -1  17    1.80    1.90
   1   1 -17   36.00    6.00
  -1  -1  17   40.60    4.80
  -1  -1  17   38.80    4.50
   0   1 -17    3.30    3.20
   0  -1  17   -0.20    2.00
   0  -1  17    0.80    2.20
  -1   1 -17    2.70    3.40
   1  -1  17   -3.20    2.70
   1  -1  17    0.40    2.40
   4   0 -17    4.40    3.00
   4   0 -17    5.60    3.30
   3   0 -17   18.10    6.20
   3   0 -17   16.10    5.70
  -3   0  17   12.80    2.70
   2   0 -17    6.30    2.80
  -2   0  17    0.00    2.00
   1   0 -17   81.89    6.40
  -1   0  17   80.09    5.40
  -1   0  17   77.69    5.20
   0   0 -17    4.50    3.00
   0   0  17    1.00    2.10
   0   0  17    4.50    2.10
  -1   0 -17    2.90    3.10
   1   0  17   -1.40    2.20
   1   0  17    0.70    1.90
  -2   0 -17    8.30    3.70
   2   0  17    5.00    2.80
   2   0  17    7.70    2.40
   4  -1 -17    1.30    3.00
   4  -1 -17   -0.60    2.70
  -4   1  17   -3.60    2.30
   3  -1 -17   27.10    5.70
   3  -1 -17   30.50    5.80
  -3   1  17   33.10    4.50
   2  -1 -17    7.40    2.80
   2  -1 -17    6.50    2.40
  -2   1  17    4.30    1.90
   1  -1 -17    2.50    2.30
   1  -1 -17    2.20    2.40
   0  -1 -17   10.00    3.00
   0   1  17    7.00    2.10
   0   1  17    5.70    2.20
  -1  -1 -17   -3.30    2.40
   1   1  17    1.60    2.00
   1   1  17   -1.40    1.90
  -2  -1 -17    0.80    3.00
   2   1  17    0.30    2.10
   2   1  17   -2.50    2.10
   3   1  17   14.50    5.10
   3   1  17    8.70    2.80
   3   1  17   11.20    2.90
   3  -2 -17   53.59    6.00
   3  -2 -17   63.19    6.00
  -3   2  17   51.19    5.20
   2  -2 -17    1.40    2.30
   2  -2 -17    2.30    2.30
  -2   2  17   -3.60    1.90
   1  -2 -17    0.20    2.30
   1  -2 -17    2.50    2.30
  -1   2  17    0.80    1.80
   0  -2 -17   35.60    5.10
   0  -2 -17   37.10    4.90
   0   2  17   26.70    3.90
  -1  -2 -17   14.70    4.70
   1   2  17   11.80    3.80
   1   2  17   19.10    4.30
  -2  -2 -17    7.10    3.00
   2   2  17    7.10    2.20
   2   2  17    3.30    2.20
   2   2  17   13.50    4.70
   3   2  17   33.70    5.20
   3   2  17   28.20    4.70
   3   2  17   36.10    5.20
   3   2  17   39.70    4.50
   3  -3 -17    3.60    2.90
   3  -3 -17    7.30    2.70
  -3   3  17    4.90    2.60
   2  -3 -17   20.50    4.60
   2  -3 -17    2.90    2.40
   1  -3 -17    1.90    2.10
   1  -3 -17    1.00    2.60
  -1   3  17    3.10    3.20
  -1   3  17    1.40    1.80
   0  -3 -17    0.40    2.20
   0  -3 -17    0.90    2.30
   0   3  17   -3.40    1.60
   0   3  17    2.40    3.00
  -1  -3 -17   45.40    5.70
  -1  -3 -17   38.80    5.00
   1   3  17   43.40    5.70
   1   3  17   28.60    4.10
   2   3  17   11.20    3.40
   2   3  17    9.00    2.50
   2   3  17   10.10    2.60
   3   3  17   17.40    4.30
   3   3  17   11.40    2.70
   3   3  17   19.00    4.90
   3   3  17   14.70    4.50
   4   3  17    1.40    2.70
   4   3  17    2.70    2.80
   4   3  17    4.10    2.70
   4   3  17    8.20    3.10
  -2   4  17   24.10    4.70
   1  -4 -17   16.30    4.60
   1  -4 -17   20.40    4.30
  -1   4  17   17.50    4.30
   0  -4 -17    4.70    2.50
   0  -4 -17    0.40    2.10
   0   4  17    3.40    2.00
  -1  -4 -17   30.90    4.60
  -1  -4 -17   33.10    5.50
   1   4  17   27.90    4.50
   2   4  17    4.30    2.30
   2   4  17    3.30    2.30
   3   4  17   -2.60    2.40
   3   4  17   13.90    4.50
   3   4  17   -1.10    2.30
   3   4  17   -0.70    2.30
   4   4  17    5.30    3.00
   4   4  17    3.80    2.80
   4   4  17    3.00    3.00
   4   4  17    9.20    3.00
   1  -5 -17   31.80    5.60
  -1   5  17   18.00    4.70
   0  -5 -17   23.80    5.10
   0   5  17   27.80    4.50
  -1  -5 -17    7.30    2.80
   1   5  17    4.70    2.30
  -2  -5 -17    8.60    2.90
   2   5  17    6.10    2.50
   2   5  17    6.50    3.60
   2   5  17   11.30    3.90
   3   5  17   -2.20    2.40
   3   5  17   -0.10    2.20
   3   5  17    0.10    3.10
   0  -6 -17    3.30    2.70
   0   6  17    5.10    3.30
  -1  -6 -17   17.00    5.90
  -2  -6 -17    7.70    3.10
   2   6  17    6.70    2.30
  -3  -6 -17    0.80    3.00
   3   6  17    5.90    2.80
   3   6  17    3.70    3.20
   2   0 -18    3.20    3.20
  -2   0  18    9.10    4.10
   1   0 -18    2.90    3.10
  -1   0  18    0.00    2.50
  -1   0  18    0.80    2.50
   0   0 -18   15.30    3.90
   0   0  18   16.10    4.90
   2  -1 -18    6.60    3.10
   2  -1 -18    3.20    2.90
  -2   1  18    8.50    2.40
   1  -1 -18    0.80    2.90
  -1   1  18    0.80    2.10
   0  -1 -18   19.80    6.20
   0   1  18   16.60    4.50
   0   1  18   10.40    2.70
  -1  -1 -18   -0.30    2.90
   1   1  18    2.80    2.30
   1   1  18    0.20    2.20
   2  -2 -18   23.70    6.10
   2  -2 -18    9.80    3.10
  -2   2  18   16.60    4.20
   1  -2 -18    1.60    2.70
   1  -2 -18    0.00    2.70
  -1   2  18   -0.80    2.00
   0  -2 -18    3.90    3.10
   0   2  18   -1.00    2.10
  -1  -2 -18    8.10    3.20
   1   2  18    1.50    2.40
   1   2  18    2.40    2.30
  -2  -2 -18    5.30    3.40
   2   2  18    5.50    2.70
   2   2  18    7.60    2.70
   2  -3 -18    9.50    3.10
  -2   3  18   11.10    3.30
   1  -3 -18    4.60    2.80
   1  -3 -18    2.90    2.60
  -1   3  18    1.40    2.10
   0  -3 -18    3.60    2.90
   0  -3 -18    8.70    2.90
   0   3  18    2.80    2.30
  -1  -3 -18   -1.50    2.70
   1   3  18   -4.00    2.20
   2   3  18    9.50    2.80
   2   3  18   11.30    2.90
   1  -4 -18    3.00    3.00
  -1   4  18    4.00    3.30
   0  -4 -18   17.10    5.80
  -1  -4 -18    1.70    2.70
  -1  -4 -18   -0.40    2.80
   1   4  18   -2.90    2.30
   2   4  18    7.00    2.50
   2   4  18    2.60    2.80
  -1  -5 -18    0.80    3.00

_computing_structure_solution     'SHELXT 2014/4 (Sheldrick, 2014)'
;
_shelx_hkl_checksum              43358
_olex2_submission_special_instructions 'No special instructions were received'
loop_
_space_group_symop_operation_xyz
'x, y, z'
'-x, -y, -z'
loop_
_atom_site_label
_atom_site_type_symbol
_atom_site_fract_x
_atom_site_fract_y
_atom_site_fract_z
_atom_site_U_iso_or_equiv
_atom_site_adp_type
_atom_site_occupancy
_atom_site_site_symmetry_order
_atom_site_calc_flag
_atom_site_refinement_flags_posn
_atom_site_refinement_flags_adp
_atom_site_refinement_flags_occupancy
_atom_site_disorder_assembly
_atom_site_disorder_group
Cr1 Cr 0.500000 0.000000 0.500000 0.03381(16) Uani 1 2 d S T P . .
Cl1 Cl 0.19519(9) 0.16386(9) 0.48665(5) 0.04813(19) Uani 1 1 d . . . . .
N1 N 0.3844(3) 0.1282(3) 0.67285(16) 0.0458(5) Uani 1 1 d . . . . .
H1 H 0.284529 0.202872 0.642977 0.055 Uiso 1 1 d R . . . .
N2 N 0.5143(3) 0.0140(3) 0.63582(14) 0.0397(5) Uani 1 1 d . . . . .
N3 N 0.4263(3) 0.3823(3) 0.40510(16) 0.0474(6) Uani 1 1 d . . . . .
H3 H 0.316222 0.400763 0.390585 0.057 Uiso 1 1 d R . . . .
N4 N 0.5471(3) 0.2290(3) 0.45622(14) 0.0398(5) Uani 1 1 d . . . . .
C1 C 0.4300(4) 0.1112(5) 0.7610(2) 0.0583(8) Uani 1 1 d . . . . .
H1A H 0.361562 0.176692 0.799710 0.070 Uiso 1 1 calc R . . . .
C2 C 0.5937(5) -0.0187(5) 0.7839(2) 0.0686(10) Uani 1 1 d . . . . .
H2 H 0.660454 -0.060546 0.841086 0.082 Uiso 1 1 calc R . . . .
C3 C 0.6417(4) -0.0767(5) 0.7048(2) 0.0585(8) Uani 1 1 d . . . . .
H3A H 0.748720 -0.167055 0.700552 0.070 Uiso 1 1 calc R . . . .
C4 C 0.5009(5) 0.5017(4) 0.3801(2) 0.0568(8) Uani 1 1 d . . . . .
H4 H 0.443136 0.616718 0.345164 0.068 Uiso 1 1 calc R . . . .
C5 C 0.6750(5) 0.4260(4) 0.4146(2) 0.0592(8) Uani 1 1 d . . . . .
H5 H 0.760567 0.476880 0.407883 0.071 Uiso 1 1 calc R . . . .
C6 C 0.6989(4) 0.2567(4) 0.4620(2) 0.0508(7) Uani 1 1 d . . . . .
H6 H 0.806345 0.173445 0.493704 0.061 Uiso 1 1 calc R . . . .
Cr2 Cr 0.000000 1.000000 0.000000 0.03778(16) Uani 1 2 d S T P . .
Cl3 Cl 0.15468(10) 1.18138(10) -0.04759(5) 0.0519(2) Uani 1 1 d . . . . .
N5 N 0.2544(3) 0.6488(4) 0.12241(18) 0.0622(7) Uani 1 1 d . . . . .
H5A H 0.166322 0.629765 0.148955 0.075 Uiso 1 1 d R . . . .
N6 N 0.2372(3) 0.7935(3) 0.05751(15) 0.0443(5) Uani 1 1 d . . . . .
N7 N -0.0508(3) 0.9879(3) 0.20517(16) 0.0535(6) Uani 1 1 d . . . . .
H7 H -0.038921 0.879317 0.217052 0.064 Uiso 1 1 d R . . . .
N8 N -0.0378(3) 1.0824(3) 0.12145(15) 0.0421(5) Uani 1 1 d . . . . .
C7 C 0.4255(5) 0.5376(5) 0.1409(2) 0.0679(9) Uani 1 1 d . . . . .
H7A H 0.468947 0.428779 0.183506 0.082 Uiso 1 1 calc R . . . .
C8 C 0.5230(4) 0.6124(5) 0.0866(3) 0.0680(9) Uani 1 1 d . . . . .
H8 H 0.646718 0.566560 0.083822 0.082 Uiso 1 1 calc R . . . .
C9 C 0.4022(4) 0.7703(4) 0.0361(2) 0.0555(8) Uani 1 1 d . . . . .
H9 H 0.432577 0.850700 -0.007651 0.067 Uiso 1 1 calc R . . . .
C10 C -0.0845(5) 1.0839(5) 0.2671(2) 0.0622(9) Uani 1 1 d . . . . .
H10 H -0.098894 1.045538 0.329121 0.075 Uiso 1 1 calc R . . . .
C11 C -0.0943(4) 1.2477(5) 0.2239(2) 0.0588(8) Uani 1 1 d . . . . .
H11 H -0.117355 1.343674 0.249354 0.071 Uiso 1 1 calc R . . . .
C12 C -0.0625(4) 1.2405(4) 0.1340(2) 0.0527(7) Uani 1 1 d . . . . .
H12 H -0.058705 1.334059 0.088002 0.063 Uiso 1 1 calc R . . . .
Cl2 Cl 0.02721(11) 0.59343(11) 0.29800(6) 0.0672(2) Uani 1 1 d . . . . .
loop_
_atom_site_aniso_label
_atom_site_aniso_U_11
_atom_site_aniso_U_22
_atom_site_aniso_U_33
_atom_site_aniso_U_23
_atom_site_aniso_U_13
_atom_site_aniso_U_12
Cr1 0.0359(3) 0.0345(3) 0.0306(3) -0.0048(2) 0.0027(2) -0.0147(3)
Cl1 0.0398(4) 0.0497(4) 0.0481(4) -0.0057(3) 0.0029(3) -0.0131(3)
N1 0.0465(13) 0.0470(13) 0.0434(13) -0.0108(11) 0.0058(10) -0.0172(11)
N2 0.0411(12) 0.0435(12) 0.0358(11) -0.0096(10) 0.0040(9) -0.0176(10)
N3 0.0537(14) 0.0411(13) 0.0449(13) -0.0060(10) 0.0002(11) -0.0180(11)
N4 0.0467(13) 0.0354(12) 0.0385(12) -0.0063(9) 0.0044(10) -0.0187(10)
C1 0.061(2) 0.082(2) 0.0453(17) -0.0287(16) 0.0162(15) -0.0350(19)
C2 0.060(2) 0.104(3) 0.0410(17) -0.0225(18) -0.0026(15) -0.029(2)
C3 0.0450(17) 0.078(2) 0.0446(17) -0.0171(15) -0.0036(13) -0.0136(16)
C4 0.086(2) 0.0403(16) 0.0480(17) -0.0061(13) 0.0129(16) -0.0312(17)
C5 0.069(2) 0.0567(19) 0.069(2) -0.0220(16) 0.0236(17) -0.0391(18)
C6 0.0461(17) 0.0510(17) 0.0584(18) -0.0155(14) 0.0096(13) -0.0207(14)
Cr2 0.0322(3) 0.0456(4) 0.0333(3) -0.0083(3) 0.0049(2) -0.0131(3)
Cl3 0.0493(4) 0.0625(5) 0.0486(4) -0.0111(3) 0.0111(3) -0.0281(4)
N5 0.0491(16) 0.0632(17) 0.0569(16) 0.0009(13) 0.0077(12) -0.0110(13)
N6 0.0408(13) 0.0467(13) 0.0389(12) -0.0081(10) 0.0031(10) -0.0105(11)
N7 0.0692(17) 0.0588(16) 0.0404(13) -0.0120(12) 0.0114(12) -0.0334(14)
N8 0.0400(12) 0.0474(14) 0.0365(12) -0.0087(10) 0.0056(9) -0.0148(10)
C7 0.059(2) 0.059(2) 0.063(2) -0.0050(17) -0.0052(17) -0.0029(18)
C8 0.0388(17) 0.060(2) 0.090(3) -0.0190(19) 0.0032(17) -0.0016(16)
C9 0.0424(17) 0.0559(19) 0.067(2) -0.0174(16) 0.0134(14) -0.0158(15)
C10 0.072(2) 0.084(3) 0.0414(17) -0.0239(17) 0.0142(15) -0.0370(19)
C11 0.0578(19) 0.064(2) 0.0554(19) -0.0274(16) 0.0096(15) -0.0166(16)
C12 0.0495(17) 0.0453(17) 0.0533(18) -0.0091(14) 0.0059(13) -0.0085(14)
Cl2 0.0611(5) 0.0574(5) 0.0691(5) 0.0059(4) 0.0036(4) -0.0193(4)
loop_
_atom_type_symbol
_atom_type_description
_atom_type_scat_dispersion_real
_atom_type_scat_dispersion_imag
_atom_type_scat_source
C C 0.0033 0.0016 'International Tables Vol C Tables 4.2.6.8 and 6.1.1.4'
H H 0.0000 0.0000 'International Tables Vol C Tables 4.2.6.8 and 6.1.1.4'
Cl Cl 0.1484 0.1585 'International Tables Vol C Tables 4.2.6.8 and 6.1.1.4'
Cr Cr 0.3209 0.6236 'International Tables Vol C Tables 4.2.6.8 and 6.1.1.4'
N N 0.0061 0.0033 'International Tables Vol C Tables 4.2.6.8 and 6.1.1.4'
loop_
_geom_angle_atom_site_label_1
_geom_angle_atom_site_label_2
_geom_angle_atom_site_label_3
_geom_angle
_geom_angle_site_symmetry_1
_geom_angle_site_symmetry_3
Cl1 Cr1 Cl1 180.0 2_656 .
N2 Cr1 Cl1 89.25(6) . .
N2 Cr1 Cl1 89.25(6) 2_656 2_656
N2 Cr1 Cl1 90.75(6) 2_656 .
N2 Cr1 Cl1 90.74(6) . 2_656
N2 Cr1 N2 180.00(13) 2_656 .
N4 Cr1 Cl1 90.30(6) 2_656 .
N4 Cr1 Cl1 89.70(6) 2_656 2_656
N4 Cr1 Cl1 89.70(6) . .
N4 Cr1 Cl1 90.30(6) . 2_656
N4 Cr1 N2 89.02(8) . 2_656
N4 Cr1 N2 89.02(8) 2_656 .
N4 Cr1 N2 90.98(8) . .
N4 Cr1 N2 90.98(8) 2_656 2_656
N4 Cr1 N4 180.0 . 2_656
N2 N1 H1 124.1 . .
C1 N1 H1 124.1 . .
C1 N1 N2 111.7(2) . .
N1 N2 Cr1 124.31(17) . .
C3 N2 Cr1 131.2(2) . .
C3 N2 N1 104.5(2) . .
N4 N3 H3 124.6 . .
C4 N3 H3 124.5 . .
C4 N3 N4 110.9(2) . .
N3 N4 Cr1 124.70(17) . .
C6 N4 Cr1 129.86(19) . .
C6 N4 N3 105.1(2) . .
N1 C1 H1A 126.3 . .
N1 C1 C2 107.3(3) . .
C2 C1 H1A 126.3 . .
C1 C2 H2 127.2 . .
C1 C2 C3 105.7(3) . .
C3 C2 H2 127.2 . .
N2 C3 C2 110.8(3) . .
N2 C3 H3A 124.6 . .
C2 C3 H3A 124.6 . .
N3 C4 H4 126.0 . .
N3 C4 C5 108.0(3) . .
C5 C4 H4 126.0 . .
C4 C5 H5 127.4 . .
C4 C5 C6 105.2(3) . .
C6 C5 H5 127.4 . .
N4 C6 C5 110.8(3) . .
N4 C6 H6 124.6 . .
C5 C6 H6 124.6 . .
Cl3 Cr2 Cl3 180.0 . 2_575
N6 Cr2 Cl3 89.53(7) . 2_575
N6 Cr2 Cl3 89.53(7) 2_575 .
N6 Cr2 Cl3 90.47(7) . .
N6 Cr2 Cl3 90.47(7) 2_575 2_575
N6 Cr2 N6 180.0 2_575 .
N6 Cr2 N8 91.78(9) 2_575 2_575
N6 Cr2 N8 88.22(9) 2_575 .
N6 Cr2 N8 88.22(9) . 2_575
N6 Cr2 N8 91.78(9) . .
N8 Cr2 Cl3 90.85(6) . 2_575
N8 Cr2 Cl3 89.15(6) . .
N8 Cr2 Cl3 90.85(6) 2_575 .
N8 Cr2 Cl3 89.15(6) 2_575 2_575
N8 Cr2 N8 180.00(4) . 2_575
N6 N5 H5A 124.2 . .
C7 N5 H5A 124.3 . .
C7 N5 N6 111.5(3) . .
N5 N6 Cr2 126.69(18) . .
C9 N6 Cr2 128.5(2) . .
C9 N6 N5 104.7(2) . .
N8 N7 H7 124.3 . .
C10 N7 H7 124.3 . .
C10 N7 N8 111.3(3) . .
N7 N8 Cr2 126.93(18) . .
C12 N8 Cr2 128.41(19) . .
C12 N8 N7 104.6(2) . .
N5 C7 H7A 126.5 . .
N5 C7 C8 107.1(3) . .
C8 C7 H7A 126.5 . .
C7 C8 H8 127.2 . .
C7 C8 C9 105.6(3) . .
C9 C8 H8 127.2 . .
N6 C9 C8 111.2(3) . .
N6 C9 H9 124.4 . .
C8 C9 H9 124.4 . .
N7 C10 H10 126.0 . .
N7 C10 C11 107.9(3) . .
C11 C10 H10 126.0 . .
C10 C11 H11 127.6 . .
C10 C11 C12 104.8(3) . .
C12 C11 H11 127.6 . .
N8 C12 C11 111.4(3) . .
N8 C12 H12 124.3 . .
C11 C12 H12 124.3 . .
loop_
_geom_bond_atom_site_label_1
_geom_bond_atom_site_label_2
_geom_bond_distance
_geom_bond_site_symmetry_2
Cr1 Cl1 2.3102(7) 2_656
Cr1 Cl1 2.3102(7) .
Cr1 N2 2.066(2) .
Cr1 N2 2.066(2) 2_656
Cr1 N4 2.065(2) 2_656
Cr1 N4 2.065(2) .
N1 H1 0.8601 .
N1 N2 1.352(3) .
N1 C1 1.329(4) .
N2 C3 1.326(4) .
N3 H3 0.8596 .
N3 N4 1.349(3) .
N3 C4 1.336(4) .
N4 C6 1.331(4) .
C1 H1A 0.9300 .
C1 C2 1.348(5) .
C2 H2 0.9300 .
C2 C3 1.383(4) .
C3 H3A 0.9300 .
C4 H4 0.9300 .
C4 C5 1.351(5) .
C5 H5 0.9300 .
C5 C6 1.383(4) .
C6 H6 0.9300 .
Cr2 Cl3 2.3013(7) .
Cr2 Cl3 2.3013(7) 2_575
Cr2 N6 2.068(2) 2_575
Cr2 N6 2.068(2) .
Cr2 N8 2.072(2) 2_575
Cr2 N8 2.072(2) .
N5 H5A 0.8597 .
N5 N6 1.334(3) .
N5 C7 1.334(4) .
N6 C9 1.318(4) .
N7 H7 0.8602 .
N7 N8 1.347(3) .
N7 C10 1.330(4) .
N8 C12 1.332(4) .
C7 H7A 0.9300 .
C7 C8 1.342(5) .
C8 H8 0.9300 .
C8 C9 1.369(4) .
C9 H9 0.9300 .
C10 H10 0.9300 .
C10 C11 1.358(5) .
C11 H11 0.9300 .
C11 C12 1.378(4) .
C12 H12 0.9300 .
loop_
_geom_torsion_atom_site_label_1
_geom_torsion_atom_site_label_2
_geom_torsion_atom_site_label_3
_geom_torsion_atom_site_label_4
_geom_torsion
_geom_torsion_site_symmetry_1
_geom_torsion_site_symmetry_2
_geom_torsion_site_symmetry_3
_geom_torsion_site_symmetry_4
Cr1 N2 C3 C2 178.7(2) . . . .
Cr1 N4 C6 C5 173.18(19) . . . .
N1 N2 C3 C2 -0.8(4) . . . .
N1 C1 C2 C3 0.0(4) . . . .
N2 N1 C1 C2 -0.5(4) . . . .
N3 N4 C6 C5 -0.3(3) . . . .
N3 C4 C5 C6 -0.7(3) . . . .
N4 N3 C4 C5 0.5(3) . . . .
C1 N1 N2 Cr1 -178.72(19) . . . .
C1 N1 N2 C3 0.8(3) . . . .
C1 C2 C3 N2 0.5(4) . . . .
C4 N3 N4 Cr1 -174.05(19) . . . .
C4 N3 N4 C6 -0.1(3) . . . .
C4 C5 C6 N4 0.6(4) . . . .
Cr2 N6 C9 C8 -176.9(2) . . . .
Cr2 N8 C12 C11 176.1(2) . . . .
N5 N6 C9 C8 0.2(4) . . . .
N5 C7 C8 C9 -0.1(4) . . . .
N6 N5 C7 C8 0.2(4) . . . .
N7 N8 C12 C11 -1.2(3) . . . .
N7 C10 C11 C12 -0.6(4) . . . .
N8 N7 C10 C11 -0.1(4) . . . .
C7 N5 N6 Cr2 176.9(2) . . . .
C7 N5 N6 C9 -0.2(4) . . . .
C7 C8 C9 N6 -0.1(4) . . . .
C10 N7 N8 Cr2 -176.6(2) . . . .
C10 N7 N8 C12 0.8(3) . . . .
C10 C11 C12 N8 1.2(4) . . . .
