#------------------------------------------------------------------------------
#$Date: 2022-01-01 07:13:54 +0200 (Sat, 01 Jan 2022) $
#$Revision: 271676 $
#$URL: file:///home/coder/svn-repositories/cod/cif/1/56/58/1565879.cif $
#------------------------------------------------------------------------------
#
# This file is available in the Crystallography Open Database (COD),
# http://www.crystallography.net/. The original data for this entry
# were provided by IUCr Journals, http://journals.iucr.org/.
#
# The file may be used within the scientific community so long as
# proper attribution is given to the journal article from which the
# data were obtained.
#
data_1565879
loop_
_publ_author_name
'Olejniczak, Anna'
'Katrusiak, Anna'
'Podsiad\/lo, Marcin'
'Katrusiak, Andrzej'
_publ_section_title
;
 Stochastic hydration of a high-nitrogen-content molecular compound
 recrystallized under pressure
;
_journal_issue                   1
_journal_name_full               IUCrJ
_journal_page_first              49
_journal_page_last               54
_journal_paper_doi               10.1107/S2052252521010381
_journal_volume                  9
_journal_year                    2022
_chemical_formula_moiety         'C4 H2 Cl N5'
_chemical_formula_sum            'C4 H2 Cl N5'
_chemical_formula_weight         155.56
_chemical_name_systematic        6-chloro-1,2,3,4-tetrazolo[1,5-b]pyridazine
_space_group_crystal_system      orthorhombic
_space_group_IT_number           19
_space_group_name_Hall           'P 2ac 2ab'
_space_group_name_H-M_alt        'P 21 21 21'
_atom_sites_solution_hydrogens   geom
_atom_sites_solution_primary     direct
_audit_creation_date             2020-07-14
_audit_creation_method
;
Olex2 1.3
(compiled 2020.06.28 svn.raecde09e for OlexSys, GUI svn.r6132)
;
_cell_angle_alpha                90
_cell_angle_beta                 90
_cell_angle_gamma                90
_cell_formula_units_Z            4
_cell_length_a                   7.0733(6)
_cell_length_b                   8.7965(6)
_cell_length_c                   10.042(8)
_cell_measurement_reflns_used    1101
_cell_measurement_temperature    296(2)
_cell_measurement_theta_max      21.8620
_cell_measurement_theta_min      3.6830
_cell_volume                     624.8(5)
_computing_cell_refinement       'CrysAlisPro 1.171.40.67a (Rigaku OD, 2019)'
_computing_data_collection       'CrysAlisPro 1.171.40.67a (Rigaku OD, 2019)'
_computing_data_reduction        'CrysAlisPro 1.171.40.67a (Rigaku OD, 2019)'
_computing_molecular_graphics    'Olex2 1.3 (Dolomanov et al., 2009)'
_computing_publication_material  'Olex2 1.3 (Dolomanov et al., 2009)'
_computing_structure_refinement  'SHELXL 2018/3 (Sheldrick, 2015)'
_computing_structure_solution    'SHELXT 2018/2 (Sheldrick, 2018)'
_diffrn_ambient_environment      'diamond-anvil cell'
_diffrn_ambient_pressure         100000
_diffrn_ambient_temperature      296
_diffrn_detector                 'CCD plate'
_diffrn_detector_area_resol_mean 16.2413
_diffrn_detector_type            Eos
_diffrn_measured_fraction_theta_full 0.408
_diffrn_measured_fraction_theta_max 0.373
_diffrn_measurement_details
;
List of Runs (angles in degrees, time in seconds):

  # Type    Start    End  Width  t~exp~   \w     \q     \k     \f   Frames
--------------------------------------------------------------------------
  1  \f    -35.00  19.75   0.75   20.00   0.00 -30.00   0.00    --    73
  2  \f    140.00 200.00   0.75   20.00   0.00 -30.00   0.00    --    80
  3  \f    160.00 217.00   0.75   20.00   0.00  30.00   0.00    --    76
  4  \f    -20.00  34.75   0.75   20.00   0.00  30.00   0.00    --    73
  5  \w    -24.00  24.00   0.75   20.00    --   30.00  39.46 -12.90   64
  6  \w    -24.00  24.00   0.75   20.00    --   30.00  39.46 167.10   64
  7  \w    -50.00  10.00   0.75   20.00    --  -30.00  39.46 167.10   80
  8  \w    -50.00  10.00   0.75   20.00    --  -30.00  39.46 -12.90   80
  9  \w    -64.00  -8.50   0.75   20.00    --  -30.00  81.40 -28.90   74
 10  \w    -64.00  -8.50   0.75   20.00    --  -30.00  81.40 151.10   74
 11  \w    -19.00   8.00   0.75   20.00    --   30.00  81.40 151.10   36
 12  \w    -19.00   8.00   0.75   20.00    --   30.00  81.40 -28.90   36
 13  \w    -43.00 -21.25   0.75   20.00    --   30.00 134.60 -56.90   29
 14  \w    -43.00 -21.25   0.75   20.00    --   30.00 134.60 123.10   29
 15  \w    -90.00 -36.00   0.75   20.00    --  -30.00 134.60 123.10   72
 16  \w    -90.00 -36.00   0.75   20.00    --  -30.00 134.60 -56.90   72
;
_diffrn_measurement_device       'four-circle diffractometer'
_diffrn_measurement_device_type  'KM-4 CCD'
_diffrn_measurement_method
;
HP omega scans - for more details see:
A. Budzianowski, A. Katrusiak in High-Pressure Crystallography
(Eds.: A. Katrusiak, P. F. McMillan),
Dordrecht: Kluwer Acad. Publ., 2004 pp.157-168
;
_diffrn_orient_matrix_type
'CrysAlisPro convention (1999,Acta A55,543-557)'
_diffrn_orient_matrix_UB_11      -0.0061502000
_diffrn_orient_matrix_UB_12      -0.0088967000
_diffrn_orient_matrix_UB_13      0.0697270000
_diffrn_orient_matrix_UB_21      -0.0721162000
_diffrn_orient_matrix_UB_22      -0.0554523000
_diffrn_orient_matrix_UB_23      -0.0085866000
_diffrn_orient_matrix_UB_31      0.0698142000
_diffrn_orient_matrix_UB_32      -0.0580628000
_diffrn_orient_matrix_UB_33      -0.0026606000
_diffrn_radiation_monochromator  graphite
_diffrn_radiation_probe          x-ray
_diffrn_radiation_type           'Mo K\a'
_diffrn_radiation_wavelength     0.71073
_diffrn_reflns_av_R_equivalents  0.0493
_diffrn_reflns_av_unetI/netI     0.0312
_diffrn_reflns_Laue_measured_fraction_full 0.408
_diffrn_reflns_Laue_measured_fraction_max 0.373
_diffrn_reflns_limit_h_max       9
_diffrn_reflns_limit_h_min       -8
_diffrn_reflns_limit_k_max       10
_diffrn_reflns_limit_k_min       -11
_diffrn_reflns_limit_l_max       3
_diffrn_reflns_limit_l_min       -3
_diffrn_reflns_number            3715
_diffrn_reflns_point_group_measured_fraction_full 0.391
_diffrn_reflns_point_group_measured_fraction_max 0.352
_diffrn_reflns_theta_full        25.242
_diffrn_reflns_theta_max         27.176
_diffrn_reflns_theta_min         3.696
_diffrn_source                   'fine-focus sealed X-ray tube'
_diffrn_source_type              'Enhance (Mo) X-ray Source'
_exptl_absorpt_coefficient_mu    0.527
_exptl_absorpt_correction_T_max  1.00000
_exptl_absorpt_correction_T_min  0.06117
_exptl_absorpt_correction_type   multi-scan
_exptl_absorpt_process_details
;
CrysAlisPro 1.171.39.46 (Rigaku Oxford Diffraction, 2018)
Empirical absorption correction using spherical harmonics,
 implemented in SCALE3 ABSPACK scaling algorithm.
;
_exptl_crystal_colour            colorless
_exptl_crystal_density_diffrn    1.654
_exptl_crystal_description       plate
_exptl_crystal_F_000             312
_exptl_crystal_size_max          0.38
_exptl_crystal_size_mid          0.29
_exptl_crystal_size_min          0.21
_refine_diff_density_max         0.095
_refine_diff_density_min         -0.078
_refine_diff_density_rms         0.024
_refine_ls_abs_structure_details
;
 Flack x determined using 112 quotients [(I+)-(I-)]/[(I+)+(I-)]
 (Parsons, Flack and Wagner, Acta Cryst. B69 (2013) 249-259).
;
_refine_ls_abs_structure_Flack   -0.06(6)
_refine_ls_extinction_method     none
_refine_ls_goodness_of_fit_ref   1.110
_refine_ls_hydrogen_treatment    constr
_refine_ls_matrix_type           full
_refine_ls_number_parameters     91
_refine_ls_number_reflns         491
_refine_ls_number_restraints     6
_refine_ls_restrained_S_all      1.106
_refine_ls_R_factor_all          0.0613
_refine_ls_R_factor_gt           0.0339
_refine_ls_shift/su_max          0.000
_refine_ls_shift/su_mean         0.000
_refine_ls_structure_factor_coef Fsqd
_refine_ls_weighting_details
'w=1/[\s^2^(Fo^2^)+(0.0252P)^2^] where P=(Fo^2^+2Fc^2^)/3'
_refine_ls_weighting_scheme      calc
_refine_ls_wR_factor_gt          0.0493
_refine_ls_wR_factor_ref         0.0555
_reflns_Friedel_coverage         0.579
_reflns_Friedel_fraction_full    0.366
_reflns_Friedel_fraction_max     0.320
_reflns_number_gt                361
_reflns_number_total             491
_reflns_threshold_expression     'I > 2\s(I)'
_cod_data_source_file            lt5042.cif
_cod_data_source_block           C4H2N5Cl1@0_10GPa_phase_alpha_xH2O
_cod_database_code               1565879
_shelx_shelxl_version_number     2018/3
_chemical_oxdiff_formula         C4H2N5Cl1
_shelx_space_group_comment
;
The symmetry employed for this shelxl refinement is uniquely defined
by the following loop, which should always be used as a source of
symmetry information in preference to the above space-group names.
They are only intended as comments.
;
_reflns_odcompleteness_completeness 37.41
_reflns_odcompleteness_iscentric 1
_reflns_odcompleteness_theta     27.12
_olex2_refinement_description
;
1. Fixed Uiso
 At 1.2 times of:
  All C(H) groups
2. Uiso/Uaniso restraints and constraints
Uanis(C8) \\sim Ueq: with sigma of 0.02 and sigma for terminal atoms of 0.02
3.a Aromatic/amide H refined with riding coordinates:
 C7(H7), C8(H8)
;
_shelx_res_file
;
TITL 1a_a.res in P2(1)2(1)2(1)
    1a.res
    created by SHELXL-2018/3 at 13:39:42 on 14-Jul-2020
REM Old TITL 1a in P212121 #19
REM SHELXT solution in P2(1)2(1)2(1)
REM R1 0.156, Rweak 0.226, Alpha 0.015, Orientation as input
REM Flack x = -0.084 ( 0.059 ) from Parsons' quotients
REM Formula found by SHELXT: H7 N Cl
CELL 0.71073 7.0733 8.7965 10.0425 90 90 90
ZERR 4 0.0006 0.0006 0.0082 0 0 0
LATT -1
SYMM 0.5-X,-Y,0.5+Z
SYMM -X,0.5+Y,0.5-Z
SYMM 0.5+X,0.5-Y,-Z
SFAC C H Cl N
UNIT 16 8 4 20
ISOR 0.02 0.02 C8

L.S. 44
PLAN  5
CONF
BOND $H
list 4
MORE -1
fmap 2 53
acta
REM <olex2.extras>
REM <HklSrc "%.\\1a.hkl">
REM </olex2.extras>

WGHT    0.025200
FVAR       0.87885
CL1   3    0.290540    0.334884    0.321286    11.00000    0.08085    0.04093 =
         0.12029   -0.00262    0.02093   -0.00135
N4    4    0.355495    0.750216    0.411917    11.00000    0.04917    0.04608 =
         0.03244   -0.00796   -0.00704   -0.00137
N5    4    0.367175    0.594753    0.419530    11.00000    0.05183    0.04642 =
         0.09058    0.00430   -0.00605    0.00335
N3    4    0.427241    0.839268    0.508075    11.00000    0.07725    0.06880 =
         0.04941   -0.01216   -0.01418   -0.01015
N2    4    0.388233    0.977316    0.461706    11.00000    0.07830    0.05508 =
         0.10229   -0.01613    0.00416   -0.01447
N1    4    0.294930    0.980321    0.349793    11.00000    0.06725    0.04864 =
         0.08693   -0.00772    0.01171   -0.00129
C9    1    0.276228    0.834352    0.316021    11.00000    0.04840    0.04359 =
         0.07065   -0.00053    0.00080    0.00815
C7    1    0.201508    0.603383    0.207594    11.00000    0.05887    0.06746 =
         0.03473   -0.00799    0.00624   -0.01045
AFIX  43
H7    2    0.149998    0.547159    0.138065    11.00000   -1.20000
AFIX   0
C6    1    0.287299    0.531445    0.318774    11.00000    0.04303    0.04999 =
         0.04617    0.00482    0.00793   -0.00042
C8    1    0.197782    0.758574    0.207012    11.00000    0.05625    0.06907 =
         0.02658    0.01366   -0.00437    0.00703
AFIX  43
H8    2    0.144775    0.812038    0.136379    11.00000   -1.20000
AFIX   0
HKLF 4




REM  1a_a.res in P2(1)2(1)2(1)
REM wR2 = 0.0555, GooF = S = 1.110, Restrained GooF = 1.106 for all data
REM R1 = 0.0339 for 361 Fo > 4sig(Fo) and 0.0613 for all 491 data
REM 91 parameters refined using 6 restraints

END

WGHT      0.0252      0.0000

REM Highest difference peak  0.095,  deepest hole -0.078,  1-sigma level  0.024
Q1    1   0.2807  0.4363  0.3094  11.00000  0.05    0.10
Q2    1   0.2836  1.1218  0.3065  11.00000  0.05    0.07
Q3    1   0.3259  0.6776  0.5177  11.00000  0.05    0.07
Q4    1   0.2338  0.5383  0.3180  11.00000  0.05    0.07
Q5    1   0.2985  0.8814  0.5031  11.00000  0.05    0.07
;
_shelx_res_checksum              89368
_shelx_hkl_file
;
   0   2   0  111.15    4.10
   0   2   1  780.38   11.23
   0  -2  -1  756.68   10.53
   0   2   1  750.62   11.21
   0  -2  -1  751.97   10.84
   0  -2   1  768.75   13.62
   0   2   1  766.52   11.06
   0  -3   0    1.50    1.34
   0  -3   0    0.02    1.21
   0  -3   0    0.16    0.87
   0   3   0    0.10    1.33
   0  -3   0    1.15    0.95
   0  -3   0    0.32    1.12
   0   3   0   -0.49    1.55
   0   3   0    1.28    1.38
   0   3   0    1.64    1.32
   0  -3   1  166.59    7.39
   0  -3  -1  185.48    6.51
   0  -3   1  176.12    6.76
   0  -3  -1  176.80    5.50
   0   3   1  181.90    6.19
   0   3   1  181.44    6.05
   0  -3  -1  174.81    5.96
   0   3   1  172.18    6.34
   0  -3  -1  177.93    6.31
   0   3  -1  193.99   14.35
   0  -3  -1  176.34    5.77
   0   3   1  186.26    6.73
   0  -3   1  190.45    7.94
   0  -3  -1  188.36    7.08
   0   3   1  178.64    5.76
   0   3   2 1210.10   17.77
   0  -3  -2 1191.69   18.01
   0   3   2 1204.16   18.66
   0  -3  -2 1211.96   17.99
   0  -4   0    5.41    1.99
   0   4   0   -2.46    2.51
   0  -4   0    3.71    1.77
   0  -4   0    1.17    1.41
   0   4   0   -0.86    3.09
   0   4   0   -0.15    2.34
   0  -4   0    3.34    1.43
   0   4   0    0.04    2.18
   0  -4   0    0.14    1.79
   0  -4   0    4.48    1.77
   0  -4  -1 1903.08   21.18
   0  -4  -1 1826.39   23.66
   0  -4  -1 1852.31   24.60
   0  -4   1 1909.59   23.83
   0   4  -1 1941.64   36.70
   0   4  -1 1910.80   34.18
   0   4   1 1924.77   21.38
   0  -4   1 1952.44   27.02
   0  -4  -1 1872.64   23.60
   0   4   1 1881.44   23.79
   0  -4  -1 1886.09   20.56
   0   4   1 1849.14   22.97
   0  -4   1 1905.07   24.41
   0   4   1 1919.90   24.74
   0  -4   1 1860.08   23.92
   0  -4  -1 1889.28   21.79
   0   4   1 1918.50   22.27
   0  -4  -2   54.44    4.58
   0  -4  -2   51.61    4.02
   0   4   2   48.89    4.11
   0   4   2   51.30    4.63
   0  -4  -2   52.32    4.07
   0  -4  -2   53.31    4.59
   0   4   2   47.00    4.44
   0   5   0    9.95    5.48
   0   5   0    5.13    3.59
   0   5   0    8.36    4.66
   0   5   0    5.37    4.06
   0  -5   1  330.75   10.53
   0  -5   1  340.39   11.32
   0  -5  -1  309.81   11.29
   0   5   1  336.78   11.57
   0  -5  -1  326.85   10.19
   0   5   1  313.93   11.08
   0   5   1  343.55   12.19
   0  -5  -1  343.69   11.34
   0  -5   1  336.50   12.30
   0  -5  -1  334.76    9.76
   0  -5  -1  327.69   11.15
   0  -5  -1  326.33   10.22
   0   5   1  337.93   10.65
   0   5  -1  323.25   15.12
   0   5   1  333.48   10.59
   0   5  -1  327.45   15.96
   0  -5   1  340.83   11.63
   0   5   2    1.60    2.86
   0   5   2    2.38    2.96
   0  -5  -2    5.33    2.76
   0  -5  -2    4.21    2.53
   0   5   2    2.11    2.06
   0  -5  -2    4.70    2.23
   0  -5  -2    0.36    2.09
   0  -5  -3  475.15   14.83
   0  -5  -3  437.83   13.37
   0  -5  -3  461.61   12.88
   0  -5  -3  442.05   14.32
   0   5   3  446.09   13.50
   0  -6   0  535.56   13.86
   0  -6   0  532.52   16.01
   0   6   0  514.50   17.35
   0   6   0  466.69   22.21
   0  -6   0  481.15   15.37
   0  -6   0  572.74   15.77
   0   6   0  539.75   17.65
   0   6   0  547.34   18.73
   0  -6   0  513.62   15.69
   0  -6   0  537.88   14.17
   0  -6  -1   14.72    3.81
   0  -6   1   18.23    4.13
   0  -6  -1   15.52    3.83
   0  -6  -1   17.40    2.90
   0  -6  -1   18.48    3.33
   0   6   1   18.29    4.82
   0   6   1   12.55    3.87
   0   6   1   12.24    3.95
   0   6  -1   33.98    8.83
   0  -6   1   20.71    4.16
   0   6   1   10.01    3.63
   0  -6  -1   15.22    3.67
   0  -6   1   16.00    3.28
   0   6   1   17.13    3.89
   0  -6   1   13.74    3.27
   0   6  -1   19.83    5.97
   0  -6  -2  107.78    7.67
   0   6   2   97.40    7.75
   0   6   2   97.24    7.69
   0  -6  -2  100.21    7.62
   0   6   2   95.12    6.57
   0  -6  -2  116.71    6.82
   0   6   3   11.60    4.33
   0  -6  -3   13.28    3.85
   0   6   3   16.07    4.32
   0   6   3   17.00    3.63
   0  -6  -3   15.56    3.57
   0  -6  -3   18.94    4.28
   0  -7   0   -1.11    3.60
   0   7   0    7.65    5.94
   0  -7   0   -0.54    3.29
   0   7   0   -2.43    5.43
   0   7   1   -1.05    5.20
   0  -7   1    2.50    3.46
   0  -7  -1    0.90    3.18
   0  -7  -1    1.28    3.11
   0   7   1    0.70    4.37
   0  -7   1    1.45    2.98
   0   7   2   -2.26    4.49
   0   7   2   -7.57    5.05
   0  -7  -2    0.80    3.33
   0  -7  -2    0.79    3.34
   0  -7  -3   16.98    4.85
   0   7   3    7.25    4.85
   0  -7  -3   14.69    4.76
   0   7   3   14.78    4.97
   0   8   0   -1.04    6.57
   0  -8   0    5.62    4.43
   0  -8   0    1.88    3.82
   0   8   0    3.70    8.04
   0  -8  -1  264.81   13.70
   0  -8  -1  271.56   13.94
   0   8  -1  247.11   22.09
   0   8   1  294.63   16.02
   0  -8   1  262.29   14.23
   0   8   1  240.85   16.06
   0  -8   1  278.72   14.23
   0   8   2    8.57    6.20
   0  -8  -2   11.55    4.43
   0   8   2   12.51    5.97
   0  -8  -2    8.04    4.39
   0   8   3    8.90    5.99
   0  -8  -3    9.66    5.22
   0   8   3    7.92    5.23
   0  -8  -3    5.74    4.20
   0  -9   0    3.01    4.02
   0   9   0    4.07   11.52
   0   9   0    5.77    8.80
   0  -9   0   -2.95    4.82
   0   9   1   24.23    9.32
   0  -9   1   17.02    5.24
   0  -9  -1   24.19    5.89
   0  -9  -1   21.93    6.03
   0   9   1   37.85    9.47
   0   9  -1  -15.59   16.23
   0   9  -1   -0.82   19.43
   0  -9   1   28.68    6.28
   0   9   2   55.36    9.30
   0   9   2   58.65   11.31
   0  -9  -2   62.59    8.45
   0  -9  -2   63.26    8.51
   0  -9  -3    6.96    5.06
   0   9   3   -1.25    5.97
   0   9   3   -8.06    5.66
   0  -9  -3    0.70    4.86
   0  10   0   65.08   19.93
   0 -10   0   52.75    8.32
   0  10   0   65.50   14.40
   0 -10   0   55.25    8.70
   0  10  -1   92.82   28.58
   0 -10  -1   38.31    7.63
   0  10   1   28.05   10.49
   0 -10   1   49.80    8.04
   0  10  -1   55.56   41.34
   0 -10  -1   46.18    8.01
   0  10   1   65.45   14.96
   0  10   2   -3.52    9.30
   0 -10  -2    8.99    5.81
   0  10   2    9.74    7.31
   0 -10  -2    5.50    5.27
   0 -10  -3   20.44    7.04
   0 -10  -3   15.10    5.89
   0 -11   0    2.33    5.68
   0 -11   0   -0.79    5.86
   0 -11  -1   12.24    6.68
   0 -11  -1   12.91    6.45
   0 -11  -2    6.97    7.02
  -1  -1  -1  541.86    9.32
  -1   1   1  536.36    9.26
  -1  -1  -1  542.22    9.48
   1   1   0  487.80    8.39
   1   1   1  545.55    8.53
   1   1   1  561.47    9.59
   1   2  -1  549.06   20.43
  -1   2   1  587.04   10.28
  -1  -2  -1  550.68    9.89
  -1  -2  -1  564.78   10.98
  -1  -2  -1  553.12   10.75
  -1   2   1  552.97    9.27
   1  -2   1  563.78   10.66
   1  -2   1  533.38   11.55
  -1  -2  -1  547.83   10.31
  -1   2   1  557.53   10.42
   1  -2   1  552.92   11.95
  -1  -2   0  525.56    9.97
  -1  -2   0  507.36    9.32
  -1  -2   0  509.71    8.70
   1  -2   0  533.15   10.54
   1   2   0  489.39   10.34
   1   2   0  491.98    9.80
   1   2   0  535.93   10.73
   1  -2   0  530.56    9.28
   1  -2   0  499.09    9.17
  -1  -2   0  500.81    9.79
  -1   2   0  510.38    9.19
  -1  -2   1  573.58   14.51
   1   2   1  560.06    9.13
   1   2   1  549.31   10.66
   1   2   1  568.25   10.19
   1  -2  -1  583.03   10.38
  -1  -2   1  537.15   12.97
  -1   2  -1  563.00   13.88
   1  -2  -1  588.54   12.46
   1   2   1  560.91   10.70
   1  -2  -1  563.45   10.84
  -1  -3  -2  123.37    6.20
  -1   3   2  120.89    5.99
  -1  -3  -2  122.04    6.10
  -1  -3  -2  126.03    5.63
  -1  -3  -2  127.64    6.37
  -1  -3  -1   80.08    4.01
  -1  -3  -1   80.11    4.08
  -1  -3  -1   74.28    4.47
   1  -3   1   72.41    4.92
  -1   3   1   72.96    4.41
   1  -3   1   74.43    4.34
  -1  -3  -1   69.46    4.43
  -1   3   1   74.95    4.57
   1  -3   1   80.22    4.27
   1  -3   1   70.90    5.48
  -1  -3  -1   81.07    4.73
   1   3  -1   78.83    8.58
   1  -3   1   76.47    4.70
   1   3  -1   69.62    8.53
  -1   3   1   80.00    4.20
   1   3   0 1192.14   18.43
   1  -3   0 1232.41   18.36
   1   3   0 1223.93   19.49
  -1   3   0 1238.62   15.58
  -1  -3   0 1193.68   15.21
  -1  -3   0 1221.78   17.22
   1  -3   0 1213.04   17.25
  -1  -3   0 1217.81   14.36
  -1  -3   0 1199.48   17.05
  -1   3   0 1271.11   19.19
  -1  -3   0 1252.70   17.75
   1  -3   0 1209.96   15.86
   1  -3   0 1220.74   16.31
  -1   3   0 1244.23   15.17
   1   3   0 1217.35   18.75
  -1  -3   1   73.27    4.92
  -1  -3   1   79.38    5.42
  -1   3  -1   95.25    6.66
   1   3   1   72.27    4.47
  -1  -3   1   80.15    4.75
  -1  -3   1   75.76    5.51
   1  -3  -1   81.77    5.30
   1   3   1   84.21    4.43
   1   3   1   73.56    4.49
   1   3   1   76.58    3.80
   1  -3  -1   80.84    4.55
   1   3   1   74.69    4.59
   1  -3  -1   77.60    3.97
   1  -3  -1   78.12    4.50
   1   3   2  128.64    6.31
   1  -3  -2  123.70    6.30
   1  -3  -2  109.50    6.42
   1   3   2  124.18    6.39
   1  -3  -2  132.68    5.81
   1   3   2  126.36    6.48
   1   3   2  128.12    5.66
  -1  -4  -2    8.50    2.49
  -1   4   2   12.24    3.05
  -1   4   2    9.92    1.95
  -1  -4  -2   11.26    2.97
  -1  -4  -2   10.83    1.83
  -1  -4  -2   13.33    2.67
  -1  -4  -2   14.27    2.81
  -1   4   2   10.81    2.85
  -1   4   2    6.54    2.43
   1   4  -1  250.67   15.59
  -1  -4  -1  246.10    8.98
  -1  -4  -1  271.58    9.51
   1   4  -1  235.99   14.31
   1   4  -1  248.98   17.12
  -1   4   1  244.48    6.42
  -1  -4  -1  244.43    9.35
  -1  -4  -1  282.32    8.17
  -1   4   1  269.67    9.70
  -1  -4  -1  245.56    8.61
   1  -4   1  249.21    9.83
  -1   4   1  257.81    9.14
   1  -4   1  278.01    9.75
  -1   4   1  247.22    8.52
   1  -4   1  262.84   10.70
   1  -4   1  269.36    8.06
   1  -4   1  252.95    8.89
  -1  -4  -1  250.73    6.43
   1  -4   1  236.83    7.32
  -1  -4   0  173.24    7.38
  -1  -4   0  166.75    6.85
   1  -4   0  175.90    7.34
  -1   4   0  173.18    8.63
  -1   4   0  179.86    6.85
   1   4   0  185.41    8.97
  -1  -4   0  174.92    7.74
  -1  -4   0  180.59    7.77
  -1   4   0  181.46    7.38
   1  -4   0  182.24    5.27
  -1  -4   0  173.83    5.65
   1  -4   0  189.41    7.92
  -1   4   0  181.12    5.49
   1   4   0  203.20   10.08
   1  -4   0  177.79    8.12
  -1  -4   0  173.09    5.88
   1   4   0  198.65    9.12
   1  -4   0  171.14    7.35
   1   4   0  193.64    9.42
   1  -4   0  171.33    6.23
   1  -4  -1  245.72    8.72
  -1   4  -1  250.79   10.88
  -1   4  -1  238.00   10.80
  -1   4  -1  263.91   12.13
  -1  -4   1  248.60    9.06
   1  -4  -1  209.42    9.32
   1  -4  -1  238.22    8.93
   1   4   1  263.97    9.35
   1  -4  -1  255.06   10.22
  -1  -4   1  250.78    9.90
   1   4   1  245.11    9.26
   1   4   1  229.36    7.11
   1   4   1  250.11    9.30
   1   4   1  230.64    8.83
   1   4   1  254.91    8.56
   1  -4  -1  255.82    8.53
  -1  -4   1  268.29   10.16
  -1  -4   1  248.40    7.72
  -1  -4   1  265.74   11.03
   1  -4  -2   10.69    3.56
   1   4   2   11.49    2.85
   1   4   2   12.23    2.77
   1   4   2    8.12    2.37
   1  -4  -2   10.28    2.73
   1  -4  -2    8.75    2.46
   1  -4  -2    9.50    1.77
   1   4   2   13.49    3.09
   1  -4  -2   15.14    2.76
   1   4   2   10.69    2.18
  -1  -5  -3   26.80    4.22
  -1  -5  -3   24.70    3.88
  -1  -5  -3   21.18    3.46
  -1  -5  -2  201.79    9.71
  -1  -5  -2  214.69    9.78
  -1  -5  -2  197.08    8.96
  -1   5   2  209.37    9.80
  -1   5   2  210.52   10.30
  -1   5   2  202.65    9.50
  -1  -5  -2  215.08    9.49
   1   5  -1 1106.40   32.79
   1  -5   1 1216.34   22.36
  -1  -5  -1 1243.51   21.87
  -1  -5  -1 1197.79   20.76
  -1   5   1 1197.77   22.15
   1   5  -1 1102.35   38.35
  -1   5   1 1236.54   22.60
  -1   5   1 1189.50   20.74
   1  -5   1 1149.02   23.41
   1   5  -1 1166.46   33.25
  -1  -5  -1 1163.47   21.86
  -1  -5  -1 1189.33   21.34
   1  -5   1 1176.66   20.92
   1  -5   1 1180.35   23.04
  -1  -5   0  179.59    8.66
   1  -5   0  169.63    8.28
  -1  -5   0  194.07    6.98
  -1  -5   0  189.76    9.02
   1   5   0  204.24   11.50
   1   5   0  178.40   10.12
  -1  -5   0  181.90    8.28
  -1   5   0  178.54    9.96
  -1   5   0  197.22    8.93
   1  -5   0  177.28    9.03
  -1  -5   0  190.49    7.24
   1  -5   0  194.12    9.11
  -1  -5   0  184.39    8.42
   1   5   0  183.81    9.73
   1  -5   0  186.71    8.35
   1  -5  -1 1207.68   20.78
   1   5   1 1120.22   22.12
   1   5   1 1079.17   21.29
  -1  -5   1 1156.75   22.68
   1  -5  -1 1152.83   23.80
  -1  -5   1 1142.70   20.95
  -1   5  -1 1163.45   28.42
   1   5   1 1195.58   21.95
  -1   5  -1 1114.07   24.98
   1  -5  -1 1123.17   21.34
   1   5   1 1186.61   22.96
  -1  -5   1 1225.57   22.35
  -1  -5   1 1166.68   18.07
  -1  -5   1 1085.95   23.86
   1  -5  -1 1134.70   19.83
   1   5   2  222.29    9.80
   1   5   2  203.12    9.69
   1   5   2  199.39    9.93
   1  -5  -2  224.88    9.61
   1   5   2  198.64    9.54
   1  -5  -2  194.50   11.69
   1  -5  -2  208.65    9.41
   1  -5  -2  208.77    9.82
   1   5   3   21.79    4.38
   1  -5  -3   27.49    3.97
   1   5   3   25.65    4.46
   1  -5  -3   26.78    4.42
   1  -5  -3   27.66    4.59
  -1  -6  -3   66.41    6.66
  -1  -6  -3   72.50    6.52
  -1  -6  -3   72.80    6.48
  -1   6   3   62.83    6.80
  -1   6   2  344.36   13.76
  -1   6   2  363.03   13.74
  -1  -6  -2  366.72   13.30
  -1   6   2  370.09   15.27
  -1  -6  -2  376.18   13.46
  -1  -6  -2  385.77   13.97
  -1  -6  -2  364.98   14.22
  -1   6   1   35.37    5.59
   1   6  -1   35.04   10.66
   1  -6   1   37.69    4.57
  -1  -6  -1   41.86    4.96
   1  -6   1   29.04    4.33
   1   6  -1   14.24    9.94
   1   6  -1   32.81    9.32
  -1  -6  -1   39.53    4.91
  -1  -6  -1   27.13    4.30
  -1   6   1   33.58    5.61
   1  -6   1   32.99    4.86
  -1   6   1   29.14    5.29
  -1   6   1   36.47    5.05
  -1  -6  -1   34.18    4.63
   1  -6   1   39.44    5.13
   1   6   0    6.49    5.50
  -1  -6   0    8.25    3.06
  -1   6   0   10.26    4.78
  -1   6   0   12.81    4.92
   1  -6   0    8.22    3.13
   1   6   0    6.22    4.98
  -1  -6   0    7.76    3.38
  -1   6   0   12.77    4.38
  -1  -6   0    7.71    2.98
   1  -6   0    5.38    3.27
   1   6   0   12.99    5.79
  -1  -6   0    6.97    3.20
   1  -6   0    8.44    3.17
   1  -6   0    9.83    3.27
   1   6   0    5.20    4.04
   1  -6  -1   29.61    4.92
  -1  -6   1   31.05    5.05
  -1  -6   1   32.72    4.65
  -1  -6   1   30.67    4.70
   1   6   1   34.08    5.13
   1   6   1   30.80    5.58
  -1   6  -1   30.33    6.54
   1   6   1   28.83    4.92
  -1  -6   1   28.37    4.30
   1  -6  -1   29.78    4.66
   1  -6  -1   32.92    4.61
   1  -6  -1   35.38    4.38
   1   6   1   34.75    5.80
  -1   6  -1   37.26    7.01
   1   6   2  363.74   13.67
   1  -6  -2  350.42   13.85
   1  -6  -2  375.89   13.08
   1  -6  -2  378.15   13.79
   1   6   2  377.48   14.69
   1  -6  -2  359.20   16.80
   1   6   2  364.60   14.07
   1   6   2  368.22   14.62
   1   6   3   69.60    7.24
   1  -6  -3   70.92    6.67
   1   6   3   64.50    6.72
   1  -6  -3   66.82    6.62
   1  -6  -3   67.43    6.90
  -1  -7  -3    9.86    3.95
  -1  -7  -3   14.10    4.76
  -1  -7  -3   16.92    4.67
  -1   7   3   18.33    5.53
  -1  -7  -2   84.31    7.62
  -1  -7  -2   83.00    7.57
  -1   7   2   82.28    7.89
  -1   7   2   75.62    8.92
  -1   7   2   85.11    8.53
  -1  -7  -2   81.84    7.88
  -1  -7  -2   77.45    7.29
   1   7  -1   87.16   11.43
   1   7  -1   72.82   14.41
  -1  -7  -1  131.34    8.89
  -1  -7  -1  135.51    9.52
  -1   7   1  122.19   10.11
   1  -7   1  130.66    9.79
  -1   7   1  122.27    9.97
  -1  -7  -1  132.77    8.89
   1  -7   1  134.00    8.75
  -1   7   1  135.98    9.48
   1  -7   1  137.09    9.42
  -1   7   1  133.10   10.24
  -1  -7  -1  128.69    8.81
   1  -7   1  125.68    9.21
  -1  -7   0    1.39    3.02
  -1   7   0   -6.54    6.28
   1  -7   0   -6.75    3.48
   1   7   0    7.80    6.88
  -1  -7   0    2.95    3.36
   1   7   0   -1.84    5.28
  -1  -7   0    3.36    3.70
   1  -7   0    3.70    3.58
   1   7   0    9.99    6.98
   1   7   0    2.68    7.10
  -1   7   0    5.24    5.65
   1  -7   0    1.94    3.10
  -1   7   0    6.86    4.46
  -1  -7   0   -0.16    3.10
   1  -7   0    1.05    3.43
  -1   7   0   12.03    5.70
   1   7   1  149.49   10.40
  -1  -7   1  129.90    8.85
   1  -7  -1  133.86   10.11
   1   7   1  115.09   10.09
  -1   7  -1  138.13   12.51
   1  -7  -1  141.90    9.27
   1   7   1  136.94   10.61
  -1  -7   1  179.29   11.00
  -1  -7   1  152.59   10.47
   1  -7  -1  143.65    8.62
   1  -7  -1  149.02    9.71
   1   7   1  126.28   11.05
   1   7   2   69.27    7.35
   1  -7  -2   74.97    6.77
   1   7   2   72.65    8.32
   1   7   2   70.97    7.76
   1  -7  -2   80.35    9.69
   1  -7  -2   85.53    7.98
   1   7   2   79.47    8.51
   1  -7  -2   83.55    7.82
   1   7   3   19.05    5.61
   1  -7  -3   18.02    4.67
   1  -7  -3    8.98    3.76
   1   7   3   19.36    5.51
   1  -7  -3   17.00    5.03
  -1  -8  -3   87.80    9.20
  -1  -8  -3   83.70    8.18
  -1   8   3   89.91    9.58
  -1  -8  -2   11.68    4.38
  -1  -8  -2   12.86    4.84
  -1   8   2   16.19    6.50
  -1   8   2   15.65    5.91
  -1   8   1  112.78   11.15
  -1  -8  -1  123.74   10.06
   1  -8   1  114.45   10.02
   1  -8   1  116.47    9.58
   1   8  -1  102.43   20.93
  -1   8   1  115.70   10.57
  -1  -8  -1  128.19    9.61
   1   8   0   62.69   11.14
  -1  -8   0  100.31    9.29
  -1   8   0   94.26   10.36
  -1   8   0   87.50   11.64
   1   8   0   89.58   13.42
  -1  -8   0  107.08    8.97
   1  -8   0  101.53    9.31
   1  -8   0   95.48    8.99
   1   8   1  128.99   12.31
   1  -8  -1  119.66    9.46
  -1  -8   1  118.53    9.92
   1   8   1  121.62   12.36
  -1  -8   1  126.00    9.77
   1  -8  -1  126.44   10.07
  -1   8  -1  100.65   13.55
   1  -8  -2   17.04    5.28
   1   8   2    5.43    5.60
   1   8   2   14.11    5.71
   1  -8  -2   19.29    5.54
   1  -8  -3   79.63    9.04
   1   8   3   96.68   10.55
   1  -8  -3   85.98    9.27
   1   8   3   65.19    8.93
  -1  -9  -3   -0.07    4.68
  -1   9   3   15.44    6.63
  -1  -9  -3   16.63    5.43
  -1  -9  -2   38.28    6.83
  -1  -9  -2   36.38    7.10
  -1   9   2   31.14    7.71
  -1   9   2   41.19    8.88
  -1   9   1   23.26    8.36
  -1  -9  -1   15.96    5.35
  -1  -9  -1   14.67    4.67
   1   9  -1   30.11   28.51
   1   9  -1   53.52   26.93
   1  -9   1    6.62    4.67
  -1   9   1   26.15    7.64
  -1  -9   0   60.01    7.73
   1  -9   0   58.48    7.76
  -1   9   0   60.66   10.34
  -1  -9   0   59.55    8.23
   1  -9   0   85.17    9.68
   1   9   0   47.33   14.07
   1   9   0   51.43   14.59
  -1   9   0   43.04   11.12
   1  -9  -1   20.28    5.71
  -1   9  -1    9.92   10.85
  -1   9  -1    9.38   15.71
  -1  -9   1   19.26    5.54
   1   9   1   15.33    8.29
   1   9   1   21.60   10.17
   1  -9  -1   30.12    6.35
  -1  -9   1   16.08    5.46
   1   9   2   38.07    9.09
   1  -9  -2   41.12    7.22
   1   9   2   45.25    9.61
   1  -9  -2   40.56    7.55
   1   9   3    8.35    6.04
   1  -9  -3   30.23    7.29
   1  -9  -3   18.36    6.67
  -1 -10  -3   45.59    7.88
  -1  10   3   48.03   10.17
  -1 -10  -3   41.99    8.11
  -1 -10  -2   14.40    5.59
  -1  10   2   17.34    7.35
  -1 -10  -2   20.36    6.33
  -1  10   2   -1.23    7.95
  -1  10   1   32.59   11.96
  -1  10   1    4.96    8.35
  -1 -10  -1    8.78    6.14
  -1 -10  -1   10.18    5.22
   1  10  -1   37.89   48.91
   1 -10   1   13.08    5.18
   1  10   0    0.30   19.25
  -1 -10   0   -1.80    4.65
  -1  10   0   -9.92   10.58
  -1  10   0   21.22   13.69
  -1 -10   0    3.36    4.90
   1 -10   0   -1.02    4.85
   1  10   0   -1.80   15.51
  -1  10  -1  -10.37   19.72
   1  10   1   23.46   12.16
  -1  10  -1    8.43   25.26
   1 -10  -1    2.13    5.11
   1 -10  -1   14.13    6.11
   1  10   1  -11.88   12.94
   1 -10  -2   11.93    6.00
   1 -10  -2   15.62    5.71
   1  10   2    5.45    9.07
   1  10   2   24.92    9.79
   1 -10  -3   60.28    9.36
   1  10   3   57.06   10.96
  -1 -11  -2   10.02    6.11
  -1 -11  -1   29.65    7.12
  -1 -11   0   10.22    5.70
  -1 -11   0   -0.16    5.56
   2   0   0 9999.00   39.43
   2   0   1 7438.92   36.73
  -2   0  -1 7587.42   44.54
  -2   0  -1 7415.39   42.69
   2   0   1 7496.20   42.20
  -2   0  -1 7736.75   47.97
   2   0   1 7499.87   40.46
  -2   0  -1 7606.95   37.59
  -2  -1  -1  264.25    7.83
   2  -1   1  259.11    8.40
   2  -1   1  259.39    7.33
   2   1  -1  271.00   14.24
   2  -1   1  265.13    7.47
  -2  -1  -1  255.13    7.72
   2   1  -1  277.36   11.19
  -2  -1  -1  268.05    8.29
   2   1  -1  239.44   11.70
   2  -1   1  252.62    8.01
  -2   1   1  271.30    7.36
  -2  -1  -1  257.02    7.67
   2   1  -1  276.24   11.83
   2   1   0  158.31    6.22
   2   1   0  150.80    6.12
   2   1   0  159.31    4.84
   2  -1   0  171.82    6.55
  -2   1   0  152.39    5.30
   2   1   0  160.14    5.91
  -2  -1   0  161.40    6.15
   2  -1   0  162.47    5.62
   2  -1   0  145.00    5.42
   2  -1   0  148.68    6.03
  -2  -1   0  160.28    5.80
  -2  -1   0  150.80    5.71
   2   1   0  162.28    6.79
   2   1   1  246.69    7.34
   2  -1  -1  230.10   10.82
  -2  -1   1  292.06   10.02
   2   1   1  246.67    7.73
  -2   1  -1  256.70    8.61
   2   1   1  248.27    7.23
   2  -1  -1  260.74    8.11
   2   1   1  243.75    7.48
  -2   1  -1  259.15    9.04
   2  -1  -1  259.57    8.77
  -2   1  -1  261.21    7.72
   2  -1  -1  262.10    9.98
  -2  -1   1  245.45    8.78
   2   1   1  257.95    6.41
   2   1   2 1508.09   22.69
  -2  -2  -2   69.94    4.94
  -2  -2  -2   65.94    4.86
  -2  -2  -2   59.92    4.05
  -2  -2  -2   68.23    4.80
  -2  -2  -1  596.49   13.03
   2   2  -1  628.22   20.45
  -2  -2  -1  585.30   11.19
   2  -2   1  606.22   13.29
  -2   2   1  607.07   11.19
   2   2  -1  661.75   21.36
   2  -2   1  590.35   12.21
   2  -2   1  604.88   13.69
  -2   2   1  610.06   12.14
  -2  -2  -1  595.38   12.96
  -2   2   1  584.80   10.64
  -2  -2  -1  614.36   11.59
   2  -2   1  595.72   13.73
  -2  -2  -1  598.59   12.99
   2   2  -1  592.20   19.44
   2  -2   1  585.97   10.58
  -2  -2   0   44.02    3.11
  -2  -2   0   46.90    3.69
  -2  -2   0   55.52    3.94
   2  -2   0   47.76    3.59
   2   2   0   50.86    3.68
   2  -2   0   46.63    3.10
  -2   2   0   46.98    3.85
   2   2   0   47.49    4.16
  -2  -2   0   49.73    3.75
   2   2   0   48.31    4.12
   2   2   0   45.48    4.09
  -2   2   0   44.00    2.80
   2  -2   0   49.08    3.87
   2  -2   0   51.52    4.13
   2   2   1  596.66   12.49
  -2  -2   1  614.93   14.56
   2   2   1  626.81   13.13
  -2  -2   1  611.26   14.16
   2  -2  -1  590.36   11.31
   2  -2  -1  568.23   12.77
  -2  -2   1  612.46   14.70
  -2   2  -1  625.07   14.39
   2  -2  -1  567.24   14.45
   2   2   1  551.80   12.40
   2   2   1  593.02   11.36
   2  -2  -1  601.93   15.14
  -2   2  -1  590.32   15.36
   2   2   2   71.75    4.98
   2   2   2   64.19    4.77
   2   2   2   68.31    4.92
  -2  -3  -2  211.51    6.94
  -2  -3  -2  231.65    9.84
  -2  -3  -2  218.30    8.75
  -2  -3  -2  216.88    8.99
  -2   3   2  211.51    8.92
  -2   3   2  208.53    8.18
  -2  -3  -2  235.77    9.60
   2   3  -1  286.88   15.05
  -2  -3  -1  283.54    9.85
  -2  -3  -1  266.26    7.14
  -2   3   1  284.81    9.03
   2  -3   1  261.53    9.28
  -2   3   1  274.47    7.57
   2   3  -1  285.21   15.37
  -2   3   1  270.83    9.20
   2  -3   1  263.02   10.15
  -2  -3  -1  267.18    9.02
  -2  -3  -1  263.33    9.54
   2   3  -1  290.42   15.38
   2  -3   1  265.65    9.03
   2  -3   1  278.02    9.59
  -2  -3  -1  250.57    8.62
   2   3  -1  269.63   14.36
  -2  -3   0  115.32    4.81
   2   3   0  119.64    7.35
  -2  -3   0  129.23    6.61
   2  -3   0  121.80    6.07
   2   3   0  112.66    6.43
   2   3   0  117.19    7.43
  -2  -3   0  116.72    5.84
   2  -3   0  125.39    6.01
  -2   3   0  113.11    6.20
   2  -3   0  118.43    6.27
   2   3   0  114.97    6.81
  -2   3   0  120.08    4.43
  -2  -3   0  120.78    6.46
   2  -3   0  120.56    7.11
  -2  -3   0  123.92    6.11
   2   3   1  264.69    9.02
   2   3   1  266.34    9.66
   2  -3  -1  263.67   10.69
  -2  -3   1  280.45    9.72
   2  -3  -1  282.49    9.09
   2   3   1  271.82    9.03
   2  -3  -1  283.49    9.74
  -2  -3   1  263.51    9.78
  -2   3  -1  265.33   11.46
  -2  -3   1  270.07   10.25
  -2   3  -1  271.24   10.21
   2   3   1  258.60    7.54
  -2   3  -1  260.18    7.92
  -2  -3   1  274.67   10.66
   2  -3  -1  280.17    7.19
   2   3   1  261.05    9.60
   2  -3  -1  273.57   11.10
   2  -3  -2  213.69    8.96
   2   3   2  208.61    8.64
   2   3   2  222.59    9.23
   2   3   2  221.28    8.73
   2   3   2  213.32    7.00
   2  -3  -2  249.55   12.09
   2  -3  -2  211.85    9.89
   2   3   2  218.05    9.31
   2  -3  -2  221.00    7.45
  -2  -4  -3   62.60    4.58
  -2  -4  -3   67.86    5.86
  -2  -4  -3   64.31    5.42
   2  -4   2  251.09   11.65
  -2  -4  -2  266.39   10.57
  -2   4   2  262.38   10.58
  -2   4   2  249.61   10.05
  -2  -4  -2  272.69   11.12
  -2  -4  -2  257.38    8.71
  -2  -4  -2  258.45   10.03
  -2  -4  -2  262.04   10.89
  -2  -4  -1  984.28   19.85
   2  -4   1  911.33   17.68
   2   4  -1  816.67   28.20
  -2   4   1  931.01   16.16
   2   4  -1  888.91   28.42
   2   4  -1  834.48   28.74
  -2   4   1  952.41   18.54
  -2  -4  -1  915.73   18.41
  -2  -4  -1  893.47   18.97
   2  -4   1  916.74   20.80
  -2  -4  -1  935.52   15.74
  -2  -4  -1  905.44   17.22
   2  -4   1  937.61   19.10
   2  -4   1  906.05   18.09
  -2   4   1  921.57   18.68
   2  -4   0    0.50    1.89
   2  -4   0   -1.78    2.23
  -2   4   0   -7.54    3.90
   2  -4   0   -4.23    2.86
  -2   4   0   -2.85    1.94
   2  -4   0   -5.01    2.53
  -2  -4   0   -0.48    1.88
  -2   4   0   -1.22    2.49
  -2  -4   0   -2.02    2.23
  -2  -4   0   -1.44    2.33
   2  -4   0   -2.03    2.03
   2   4   0   -2.72    3.16
   2   4   0    0.31    3.02
  -2  -4   0    2.67    1.75
  -2  -4   0   -1.65    1.69
   2   4   0   -4.72    3.58
   2   4   0    0.87    2.68
   2   4   1  884.32   17.55
   2  -4  -1  966.07   18.99
  -2  -4   1  903.64   20.23
  -2  -4   1  935.82   18.30
  -2   4  -1  922.90   20.05
   2  -4  -1  901.30   15.65
   2   4   1  894.88   18.90
   2   4   1  947.91   20.06
  -2   4  -1  952.38   17.35
   2  -4  -1  989.16   21.89
  -2   4  -1  927.30   23.54
   2   4   1  914.37   17.30
   2  -4  -1  931.85   18.48
   2   4   1  924.64   19.88
   2  -4  -1  940.05   21.14
  -2  -4   1  964.78   20.31
  -2  -4   1  901.78   18.89
   2  -4  -2  266.39   13.08
   2  -4  -2  247.80   11.02
   2  -4  -2  267.95    9.07
   2   4   2  259.38    9.62
   2   4   2  267.75   10.62
   2  -4  -2  261.76   10.79
   2   4   2  266.44   11.09
   2   4   2  251.51   10.63
   2   4   3   80.70    6.70
   2   4   3   67.27    5.59
  -2  -5  -3  235.80    9.76
  -2  -5  -3  226.23   10.85
  -2  -5  -3  240.35   11.30
  -2  -5  -2   15.30    3.60
  -2  -5  -2   20.30    3.56
   2  -5   2   19.94    3.93
  -2   5   2   17.30    3.98
  -2  -5  -2   21.63    4.16
  -2   5   2   12.37    3.58
   2  -5   2   16.76    4.43
  -2  -5  -2   16.25    3.89
  -2  -5  -1  141.07    8.38
  -2  -5  -1  138.82    8.28
  -2  -5  -1  144.17    8.31
  -2   5   1  150.86    7.67
  -2   5   1  145.55    7.69
  -2   5   1  149.33    8.65
   2   5  -1  141.78   14.45
   2  -5   1  131.61    8.78
   2   5  -1  126.31   13.56
  -2  -5  -1  148.98    7.40
   2  -5   1  157.86    8.67
  -2  -5  -1  145.74    7.35
   2  -5   1  140.60    7.44
  -2   5   1  158.55    8.73
   2  -5   1  155.85    8.39
   2   5  -1  124.12   14.05
   2   5   0  256.38   13.45
  -2  -5   0  301.63   11.87
   2  -5   0  302.44   12.79
  -2  -5   0  288.06   10.19
  -2   5   0  345.01   12.81
   2   5   0  287.49   13.67
  -2   5   0  308.12   11.56
  -2   5   0  303.70   13.44
   2   5   0  315.37   14.75
  -2  -5   0  313.74   12.14
   2  -5   0  291.45   11.16
  -2  -5   0  310.25   10.26
   2   5   0  309.33   12.90
   2  -5   0  308.57   11.37
   2  -5   0  307.20   11.64
  -2   5   0  316.80   10.47
   2   5   0  280.43   14.31
   2  -5   0  313.11   11.24
  -2  -5   0  312.18   11.87
  -2  -5   1  150.46    8.83
   2   5   1  139.50    8.36
   2  -5  -1  149.86    8.26
   2   5   1  139.15    9.14
  -2  -5   1  149.95    8.69
  -2   5  -1  161.88    8.51
   2   5   1  150.90    9.19
   2   5   1  140.64    7.99
   2  -5  -1  154.37    8.53
   2   5   1  141.73    8.97
   2  -5  -1  141.54    7.41
  -2  -5   1  149.36    7.69
  -2  -5   1  137.74    8.71
   2  -5  -1  136.11    9.09
   2  -5  -1  131.85    9.17
  -2   5  -1  140.41   10.79
   2  -5  -2   11.10    2.75
   2  -5  -2   12.14    3.45
   2   5   2   15.01    3.42
   2  -5  -2   19.08    5.13
   2   5   2   15.28    4.09
   2  -5  -2   14.55    3.85
   2   5   2   13.52    3.94
   2   5   2   11.84    3.17
  -2   5  -2    2.59    7.75
   2   5   2   15.24    4.08
   2   5   3  236.05   11.96
   2   5   3  218.69   10.00
   2  -5  -3  232.35   12.43
   2  -5  -3  223.46   11.95
   2  -5  -3  242.69   10.85
   2   5   3  236.65   11.71
   2   5   3  234.97   11.67
  -2  -6  -3   12.61    4.36
  -2   6   3   13.45    4.19
  -2  -6  -3   10.57    4.12
  -2  -6  -3   13.97    3.71
  -2  -6  -2  202.58   11.17
  -2  -6  -2  206.27   11.19
  -2   6   2  195.84   10.33
  -2   6   2  190.56   11.13
   2  -6   2  193.61   11.79
  -2  -6  -2  196.26    9.76
  -2   6   2  182.24   10.64
  -2  -6  -2  194.81   10.84
  -2   6   1    7.66    4.46
  -2  -6  -1   11.32    4.36
  -2   6   1    9.04    3.97
   2  -6   1    9.61    3.40
  -2  -6  -1   10.24    3.83
  -2   6   1    6.80    3.46
  -2  -6  -1   10.10    3.82
   2   6  -1    1.54   10.37
  -2  -6  -1    4.98    3.02
   2   6  -1    7.52    9.66
   2   6  -1   16.11   10.75
   2  -6   1    3.29    3.55
  -2   6   1    7.50    4.13
   2  -6   1    6.77    3.34
  -2  -6   0  230.26   11.50
  -2  -6   0  229.31   11.54
   2  -6   0  224.56   12.13
   2   6   0  233.96   15.37
   2  -6   0  229.38   10.79
   2   6   0  226.60   14.55
  -2   6   0  233.93   13.41
   2   6   0  245.96   14.98
  -2   6   0  249.35   10.81
  -2   6   0  238.71   12.44
   2   6   0  259.56   14.19
  -2  -6   0  224.37   11.46
   2  -6   0  229.50   11.17
  -2  -6   0  237.52   10.47
   2  -6   0  208.10   10.92
   2  -6  -1   11.71    3.62
   2   6   1    4.21    4.50
   2   6   1    9.11    5.41
  -2   6  -1   11.39    6.36
   2  -6  -1    5.92    2.93
  -2  -6   1    9.53    3.44
  -2   6  -1    6.39    4.53
   2   6   1    3.93    4.76
  -2  -6   1   10.88    3.88
   2   6   1    7.65    4.85
   2  -6  -1    8.67    3.79
  -2  -6   1    9.73    3.14
   2  -6  -1   10.07    4.63
  -2  -6   1   11.91    4.06
   2   6   2  187.26   11.09
   2  -6  -2  190.77   10.68
   2  -6  -2  199.10   10.10
   2   6   2  182.31   11.05
   2  -6  -2  181.45   13.07
   2   6   2  190.37   10.87
  -2   6  -2  189.24   16.32
   2  -6  -2  188.71   10.91
   2   6   2  205.46   11.68
   2   6   3   12.37    4.52
   2   6   3   13.22    4.52
   2   6   3   16.07    4.61
   2  -6  -3   14.95    4.90
   2  -6  -3   15.35    4.08
   2  -6  -3    9.07    4.64
  -2  -7  -3   11.71    4.28
  -2  -7  -3   23.55    5.64
  -2   7   3    7.06    4.65
  -2  -7  -3   22.55    5.00
  -2  -7  -2    4.59    4.07
   2  -7   2   20.11    6.25
  -2  -7  -2    4.05    3.88
  -2   7   2    8.19    5.08
  -2  -7  -2   11.06    4.03
  -2   7   2    5.45    3.83
  -2  -7  -2    6.83    3.73
  -2   7   2    2.14    4.46
  -2   7   1   12.95    6.00
   2  -7   1   12.28    4.21
  -2  -7  -1   17.25    4.63
  -2  -7  -1    7.07    3.98
  -2  -7  -1    8.51    4.42
  -2  -7  -1   14.13    4.26
  -2   7   1   11.97    5.36
  -2   7   1   19.75    6.28
   2  -7   1    9.09    4.22
   2   7  -1    2.65   14.46
   2  -7   1    7.80    4.70
   2   7  -1    2.21   14.67
   2   7  -1   -4.94   12.25
  -2   7   0    3.12    5.46
   2   7   0   13.67    7.96
   2  -7   0    9.64    4.43
   2   7   0   20.17    8.77
  -2  -7   0    6.24    3.98
  -2   7   0    9.02    6.19
  -2  -7   0    4.68    3.37
   2  -7   0    6.16    3.61
   2   7   0    7.00    7.28
  -2  -7   0    1.86    3.16
  -2  -7   0    5.04    3.80
   2  -7   0    3.17    3.67
   2   7   0    1.20    7.99
  -2   7   0    3.08    5.91
  -2   7  -1   20.00    8.49
   2   7   1    1.79    6.02
   2   7   1   10.09    5.82
   2  -7  -1    5.29    3.43
  -2  -7   1   11.40    4.36
  -2  -7   1    5.43    4.06
   2   7   1    4.75    5.72
   2   7   1   10.98    5.91
   2  -7  -1   12.67    4.50
   2  -7  -1    5.84    5.07
  -2  -7   1    9.00    4.14
   2  -7  -2    2.26    3.67
   2  -7  -2    8.94    5.63
   2   7   2    3.94    4.69
   2   7   2    0.77    5.23
   2   7   2    2.22    4.68
   2  -7  -2    5.97    4.43
   2   7   2   10.16    5.47
   2  -7  -3   20.01    5.46
   2   7   3   18.72    5.61
   2   7   3   19.79    6.20
   2  -7  -3   21.09    5.48
  -2  -8  -3    5.93    4.34
  -2   8   3    2.62    4.84
  -2  -8  -3    0.68    3.64
  -2  -8  -3    0.71    4.43
  -2  -8  -2   84.67    8.76
  -2  -8  -2   71.67    8.53
  -2  -8  -2   63.64    7.80
  -2   8   2   91.65   11.15
  -2   8   2   91.76   10.26
  -2   8   2   87.75   10.10
  -2  -8  -2   74.45    7.59
  -2  -8  -1  121.14   10.17
  -2   8   1  113.53   12.11
   2  -8   1  124.91    9.89
  -2  -8  -1  121.73   10.40
  -2  -8  -1  137.58   10.09
  -2   8   1  137.69   12.12
  -2  -8  -1  138.28   10.95
  -2   8   1  107.35   11.90
   2   8  -1  172.89   27.05
   2  -8   1  138.13   10.72
   2   8  -1  113.58   26.82
   2  -8   0   -2.33    4.61
   2   8   0   22.04   11.39
  -2  -8   0    6.77    4.62
  -2   8   0   -3.43    8.09
   2   8   0   -8.50    9.36
   2   8   0   23.86   12.63
  -2   8   0    4.20    6.80
   2   8   0    8.26    9.55
   2  -8   0    2.47    4.03
   2  -8   0    8.68    4.75
  -2   8   0    8.45    7.27
  -2  -8   0    6.93    4.09
  -2  -8   0   -1.66    3.83
  -2  -8   0   -3.06    4.06
   2   8   1  117.97   13.47
  -2  -8   1  119.22   10.34
  -2  -8   1  115.96    9.95
   2   8   1  135.28   13.27
   2   8   1  122.53   12.81
  -2   8  -1  127.11   16.00
   2  -8  -1  132.05   10.62
   2   8   1  117.61   13.67
   2  -8  -1  120.88    9.62
   2   8   2   64.40    9.76
   2   8   2   67.99    9.93
   2   8   2   66.72   10.18
   2   8   2   77.26   10.02
   2  -8  -2   70.51    8.44
   2  -8  -2   72.72    8.07
   2  -8  -3    5.57    5.29
   2   8   3    0.26    5.80
   2   8   3    2.02    5.49
   2  -8  -3    7.85    4.55
  -2   9   3    6.55    5.76
  -2  -9  -3    2.23    4.98
  -2  -9  -2   33.05    7.40
  -2   9   2   35.75    7.98
  -2   9   1   18.05    8.23
  -2  -9  -1   27.16    5.97
   2  -9   1   25.36    6.10
  -2  -9  -1   16.92    5.92
  -2   9   1   21.68   10.11
  -2   9   0   39.97   13.88
  -2  -9   0   20.07    6.41
  -2  -9   0   13.11    5.18
   2   9   0    0.64   14.25
  -2   9   0   15.44    9.82
   2  -9   0   15.75    5.34
   2  -9   0   17.80    5.50
   2   9   0   22.98   15.68
   2  -9  -1   15.25    5.39
  -2   9  -1   18.78   16.59
   2   9   1   19.53    9.54
   2   9   1   15.86   10.41
   2  -9  -1   15.27    5.30
  -2   9  -1   13.65   12.77
  -2  -9   1   17.57    5.20
   2   9   2   40.30    9.57
   2  -9  -2   42.24    8.03
   2   9   3   -4.15    7.41
   2  -9  -3    9.98    5.83
  -2 -10  -3   12.17    6.13
  -2 -10  -2   20.12    6.03
  -2  10   1   52.60   12.35
   2 -10   1   36.15    7.17
  -2 -10  -1   38.35    8.04
  -2 -10   0   25.93    7.03
  -2  10   0    6.55   12.39
   2 -10   0   18.21    6.58
  -2  10  -1   13.49   17.31
   2 -10  -1   38.43    8.08
   2 -10  -2   20.77    7.69
   2  10   2   16.10   11.88
   2 -10  -3   11.07    6.63
   3   0   0    0.23    1.68
   3   0   0   -0.54    1.79
   3   0   0   -0.93    2.04
  -3   0   0   -1.12    1.36
  -3   0   0   -1.04    1.31
  -3   0   0    1.77    1.48
   3   0   0    1.81    1.75
   3   0   0   -1.10    1.36
   3   0   0    0.41    1.41
  -3   0   0   -0.02    1.81
   3   0   1  947.22   17.50
  -3   0  -1  915.44   15.25
   3   0  -1 1053.83   24.25
   3   0   1  972.99   15.07
   3   0  -1  962.90   19.08
   3   0  -1  978.79   30.98
  -3   0   1  978.80   21.77
   3   0   1  959.56   16.15
   3   0  -1  999.71   22.74
  -3   0  -1  938.58   18.08
   3   0   1  952.76   15.45
  -3   0  -1  925.08   18.70
   3   0  -1  946.83   20.26
   3   0   1  920.98   15.42
  -3   0  -1  991.25   18.39
  -3   0   1 1022.50   18.90
   3   0  -1  987.73   17.27
   3   0   1  948.55   18.15
  -3   0   1  969.97   16.27
  -3   0  -1  938.97   15.20
  -3   0  -2  211.29    9.84
  -3   0  -2  219.88    9.55
   3   0   2  225.13    9.75
  -3   0  -2  224.95    8.37
   3   0   2  224.96    8.40
   3   0   2  210.97    9.14
   3  -1   2  135.32    7.43
  -3  -1  -2  131.31    5.46
  -3  -1  -2  142.08    8.01
  -3  -1  -2  140.63    7.88
   3  -1   2  148.48    8.16
  -3  -1  -2  146.25    7.48
   3  -1   2  147.01    7.65
  -3  -1  -1   54.80    4.32
   3   1  -1   66.78    7.14
  -3  -1  -1   61.92    4.55
   3  -1   1   62.92    3.47
   3   1  -1   64.43    8.04
  -3   1   1   57.55    3.57
  -3  -1  -1   62.17    4.79
   3   1  -1   59.57    4.15
  -3  -1  -1   61.97    3.49
   3  -1   1   64.63    4.44
  -3   1   1   63.89    4.32
   3  -1   1   60.16    4.65
   3  -1   1   61.41    5.02
  -3  -1  -1   64.07    5.22
  -3   1   1   65.34    4.95
   3  -1   1   59.18    4.41
   3   1  -1   60.64    5.95
   3   1  -1   58.85    6.23
   3  -1   0  400.21   11.67
  -3   1   0  375.85    7.77
   3  -1   0  413.95   10.71
   3  -1   0  404.57   11.56
   3  -1   0  406.30    8.25
   3  -1   0  405.53   12.62
  -3  -1   0  407.48   10.78
   3   1   0  405.12   11.75
  -3  -1   0  399.25    7.54
   3   1   0  403.87    8.49
  -3   1   0  401.83   10.78
  -3  -1   0  404.37   11.87
  -3  -1   0  393.87   10.75
   3   1   0  413.61   12.17
   3   1   0  388.89   12.63
  -3   1   0  426.99    7.64
   3   1   0  393.72   12.08
   3   1   1   55.39    4.72
   3  -1  -1   56.29    6.17
   3   1   1   51.42    4.04
  -3  -1   1   64.99    4.80
   3  -1  -1   52.08    5.04
   3   1   1   62.15    3.59
  -3  -1   1   55.43    4.98
   3  -1  -1   55.21    4.65
  -3  -1   1   62.28    5.34
  -3   1  -1   56.00    3.43
  -3   1  -1   53.35    4.97
   3   1   1   55.16    4.25
  -3   1  -1   53.09    4.96
  -3   1  -1   54.52    4.56
   3  -1  -1   50.24    3.98
   3   1   1   56.98    4.53
   3  -1  -1   53.78    5.69
   3   1   2  135.65    7.08
  -3   1  -2  131.08    8.29
   3   1   2  132.86    7.32
   3  -1  -2  142.01   10.89
   3   1   2  132.31    6.98
   3   1   2  139.36    7.63
  -3  -2  -2  366.50   12.21
   3  -2   2  340.87   12.39
  -3  -2  -2  361.14   10.19
  -3  -2  -2  353.93   12.39
   3  -2   2  367.52   12.90
  -3  -2  -2  353.12   12.11
   3  -2   2  357.94   11.19
   3  -2   1   32.39    3.44
  -3  -2  -1   31.25    3.86
  -3   2   1   32.23    3.42
  -3  -2  -1   27.01    3.58
  -3  -2  -1   28.25    2.97
  -3  -2  -1   29.15    3.55
  -3  -2  -1   27.62    3.88
   3   2  -1   30.80    6.23
   3   2  -1   31.97    5.31
  -3   2   1   29.79    3.57
   3  -2   1   42.40    5.07
   3  -2   1   29.99    3.99
   3  -2   1   33.03    4.13
   3   2  -1   31.44    5.91
   3  -2   1   31.59    3.54
   3   2  -1   36.63    5.97
   3   2  -1   36.74    6.17
  -3   2   1   29.32    3.35
   3  -2   0  296.51    9.92
   3   2   0  302.85   12.07
  -3  -2   0  305.82   10.52
  -3  -2   0  278.62   10.13
   3  -2   0  299.28    8.83
   3  -2   0  308.44   10.25
  -3   2   0  302.72   11.44
   3   2   0  304.08   11.91
  -3   2   0  301.96    8.36
   3   2   0  286.59    9.22
  -3   2   0  290.96    9.20
  -3  -2   0  295.66   10.65
   3  -2   0  293.07   11.25
   3   2   0  272.80   10.07
   3   2   0  302.29   12.01
   3  -2   0  319.52   11.60
  -3  -2   0  284.84    8.63
   3   2   1   31.17    4.15
  -3  -2   1   40.55    4.42
   3  -2  -1   33.10    3.95
  -3  -2   1   39.82    4.56
  -3   2  -1   29.52    4.37
  -3   2  -1   31.35    4.89
   3   2   1   32.20    3.28
  -3   2  -1   40.11    4.21
   3  -2  -1   33.80    4.64
   3   2   1   28.33    3.67
   3   2   1   31.94    3.89
   3  -2  -1   31.22    3.13
   3  -2  -1   42.48    5.98
   3   2   1   34.02    3.77
   3  -2  -1   33.96    4.88
  -3  -2   1   36.75    4.50
   3   2   2  314.73   11.26
   3  -2  -2  390.15   14.22
  -3   2  -2  354.18   13.74
   3  -2  -2  371.24   17.00
   3  -2  -2  347.71   11.22
   3  -2  -2  370.17   15.30
   3   2   2  331.93   10.80
   3   2   2  357.60   12.03
   3   2   2  341.29   11.88
  -3  -3  -3   65.09    5.18
  -3  -3  -3   72.13    6.43
   3  -3   2   25.96    3.17
  -3  -3  -2   29.30    4.43
  -3  -3  -2   25.49    4.04
  -3  -3  -2   29.36    3.64
   3  -3   2   27.88    4.81
   3  -3   2   24.60    3.68
  -3  -3  -2   26.76    4.22
  -3   3   2   26.40    3.96
   3  -3   2   29.46    4.40
  -3   3   2   23.19    3.50
   3  -3   1  205.79    7.46
  -3  -3  -1  230.69   10.03
   3   3  -1  242.42   14.34
  -3  -3  -1  231.03   10.11
   3  -3   1  213.14   10.30
   3  -3   1  232.60    9.51
  -3  -3  -1  216.84    8.67
  -3  -3  -1  219.92    8.38
   3   3  -1  224.40   14.98
   3   3  -1  224.81   15.37
   3   3  -1  210.02   12.74
  -3   3   1  227.40    8.78
   3  -3   1  218.06    9.79
  -3  -3  -1  219.38    9.70
  -3   3   1  201.75    6.97
   3  -3   1  216.92    9.84
  -3   3   1  218.94    9.08
  -3  -3   0  162.20    8.36
  -3  -3   0  157.39    8.34
   3   3   0  171.43    9.77
   3   3   0  179.30   10.33
  -3   3   0  163.35    9.51
  -3   3   0  153.39    8.58
  -3  -3   0  163.72    6.90
   3  -3   0  172.59    9.27
   3   3   0  166.31    8.58
  -3   3   0  187.02    7.61
   3  -3   0  183.67    9.16
   3  -3   0  174.54    7.81
  -3   3   0  168.08    6.71
  -3  -3   0  165.54    8.44
   3   3   0  177.05   10.19
   3   3   0  147.64    7.80
   3  -3   0  177.85    8.49
  -3  -3   0  162.69    7.35
   3  -3   0  157.58    7.01
   3   3   1  222.29   10.09
   3  -3  -1  211.89   12.92
  -3  -3   1  215.32    9.92
   3  -3  -1  227.79   11.06
  -3   3  -1  216.91   11.48
  -3  -3   1  218.75    9.44
   3  -3  -1  221.33    9.87
  -3   3  -1  219.85   10.70
   3   3   1  242.70   10.76
   3   3   1  225.09   10.28
   3   3   1  224.77    9.14
   3  -3  -1  213.07    8.65
  -3  -3   1  227.68   10.02
   3   3   1  219.92    8.05
   3  -3  -1  219.89   11.53
  -3  -3   1  230.87   10.46
   3   3   2   25.59    4.04
   3  -3  -2   26.82    5.19
   3   3   2   24.92    3.70
   3   3   2   28.62    3.55
   3   3   2   26.13    3.95
   3  -3  -2   27.30    3.86
   3   3   2   28.80    4.42
   3  -3  -2   24.95    4.62
   3  -3  -2   24.49    5.64
   3   3   3   68.72    6.22
   3   3   3   75.70    6.81
  -3  -4  -3  251.94   10.77
  -3  -4  -3  261.68   12.25
  -3  -4  -2   66.88    6.56
   3  -4   2   54.94    6.37
   3  -4   2   59.99    5.80
  -3  -4  -2   53.77    5.47
  -3   4   2   54.09    5.35
  -3  -4  -2   60.80    5.85
  -3   4   2   54.11    5.80
   3  -4   2   59.92    6.07
  -3  -4  -2   67.62    6.75
   3  -4   1    9.45    3.68
  -3  -4  -1    9.43    3.71
   3  -4   1    7.83    2.94
  -3  -4  -1    7.50    2.96
  -3  -4  -1    9.57    3.28
   3   4  -1    6.21    6.16
  -3   4   1   12.79    3.49
   3   4  -1    3.74    5.71
   3  -4   1    4.09    2.54
   3   4  -1    4.83    5.24
   3  -4   1    9.97    3.27
  -3   4   1    9.47    3.58
  -3  -4  -1    7.66    3.10
   3   4  -1   22.42    8.48
  -3  -4   0  140.07    8.55
  -3  -4   0  158.57    8.97
  -3  -4   0  142.48    7.88
   3  -4   0  161.53    8.61
  -3   4   0  142.39    9.69
   3   4   0  163.62   11.00
  -3   4   0  143.92    8.64
   3   4   0  144.96    9.56
   3  -4   0  161.62    9.64
  -3   4   0  172.33    8.42
   3  -4   0  147.26    8.10
  -3  -4   0  142.53    8.06
   3   4   0  156.24   10.15
   3  -4   0  153.34    9.06
   3   4   0  149.80   10.78
   3  -4  -1    7.99    3.21
   3   4   1    4.50    3.12
  -3  -4   1    7.71    2.78
   3  -4  -1    2.80    3.33
  -3   4  -1    7.90    3.65
   3  -4  -1   10.25    2.94
   3   4   1    4.80    3.72
   3   4   1    5.06    3.76
  -3  -4   1   13.44    3.97
  -3  -4   1    6.12    3.13
  -3   4  -1    7.01    4.97
   3   4   1    8.18    3.63
   3  -4  -1    2.80    2.95
  -3  -4   1    5.02    2.55
   3   4   2   58.26    5.78
   3  -4  -2   60.38    6.58
   3  -4  -2   66.10    7.69
   3  -4  -2   52.41    5.57
   3   4   2   58.90    5.78
   3   4   2   57.42    6.43
   3   4   2   54.50    6.17
   3  -4  -2   41.14    7.72
   3   4   3  249.94   12.33
   3   4   3  250.87   11.58
   3   4   3  246.12   12.19
  -3  -5  -3   61.11    7.06
  -3  -5  -3   67.12    6.68
  -3  -5  -3   67.74    7.28
  -3  -5  -2  369.40   15.23
  -3  -5  -2  362.56   15.08
  -3  -5  -2  359.88   14.11
   3  -5   2  355.60   14.07
  -3   5   2  352.03   13.53
   3  -5   2  343.26   15.79
  -3   5   2  369.96   14.38
  -3  -5  -2  371.49   14.02
   3  -5   2  364.39   14.47
  -3  -5  -1  157.36    9.82
  -3  -5  -1  165.25   10.07
  -3  -5  -1  146.62    8.88
   3  -5   1  143.01    8.69
  -3   5   1  147.47    9.24
   3  -5   1  144.80    9.17
  -3   5   1  132.98    8.38
  -3   5   1  158.20    9.25
   3  -5   1  138.34    9.88
   3   5  -1  138.09   14.71
  -3  -5  -1  157.34    9.08
   3  -5   1  142.03    8.89
   3   5  -1  126.78   14.07
   3   5  -1  142.50   16.42
   3   5   0   51.96    7.17
   3   5   0   62.75    9.12
   3  -5   0   53.79    5.84
  -3  -5   0   61.25    6.64
  -3   5   0   43.76    6.87
  -3  -5   0   59.37    6.43
  -3   5   0   55.98    6.33
  -3  -5   0   53.16    5.67
   3   5   0   59.32    8.40
  -3   5   0   57.09    6.07
   3   5   0   51.69    7.80
  -3  -5   0   65.87    6.14
   3  -5   0   52.50    5.53
   3  -5   0   53.55    6.06
   3  -5   0   49.45    6.44
   3   5   1  134.66    9.31
  -3  -5   1  142.39    9.47
  -3  -5   1  135.20    9.29
   3  -5  -1  148.28   10.70
   3  -5  -1  142.53    9.21
  -3  -5   1  133.74    8.65
   3   5   1  140.39   10.35
  -3   5  -1  159.46   12.33
   3   5   1  150.04   10.09
   3   5   1  148.79   10.60
   3  -5  -1  150.01    9.13
  -3   5  -1  134.09    9.48
  -3  -5   1  143.69    8.68
   3  -5  -1  132.23    9.97
   3   5   2  370.12   14.28
   3   5   2  344.70   15.17
   3  -5  -2  361.02   15.28
   3   5   2  362.38   14.92
   3  -5  -2  335.40   14.24
   3  -5  -2  327.20   17.28
   3   5   2  338.17   14.79
   3   5   3   61.74    7.25
   3   5   3   62.16    6.52
   3  -5  -3   46.64    7.57
   3   5   3   63.01    6.97
   3   5   3   52.63    6.57
   3  -5  -3   60.27    7.23
  -3  -6  -3   94.30    8.80
  -3  -6  -3   79.01    8.11
  -3  -6  -3   91.09    8.28
  -3  -6  -2  294.67   14.59
  -3  -6  -2  296.04   14.47
   3  -6   2  268.89   14.86
  -3  -6  -2  289.97   13.85
   3  -6   2  290.14   13.28
  -3   6   2  279.99   13.84
  -3   6   2  259.33   13.22
  -3  -6  -1  201.72   11.93
  -3   6   1  186.58   12.55
  -3  -6  -1  201.32   11.67
   3  -6   1  201.12   11.14
  -3  -6  -1  204.75   11.51
  -3   6   1  177.21   11.27
   3  -6   1  188.97   12.35
   3   6  -1  144.35   17.75
  -3   6   1  207.95   11.60
   3   6  -1  168.60   19.45
   3  -6   1  183.06   11.17
   3   6  -1  177.85   21.77
  -3  -6   0    0.18    3.23
  -3  -6   0    4.44    4.44
   3  -6   0   -4.27    3.44
  -3  -6   0    6.43    3.93
  -3   6   0    1.36    5.35
  -3   6   0    2.44    4.68
  -3   6   0   -6.90    4.93
   3   6   0    9.47    7.90
   3  -6   0   -0.41    3.50
   3   6   0    5.23    7.35
   3  -6   0    1.60    4.10
   3   6   0   18.42    7.14
  -3  -6   1  203.17   12.03
  -3  -6   1  196.71   11.66
   3  -6  -1  196.00   12.90
  -3  -6   1  187.69   11.21
   3  -6  -1  214.79   11.60
   3   6   1  189.50   13.43
  -3   6  -1  189.09   14.37
   3   6   1  198.55   13.64
   3   6   1  200.85   13.34
   3  -6  -1  192.26   11.20
   3  -6  -2  302.24   17.38
   3   6   2  304.93   15.81
   3  -6  -2  299.25   14.69
   3   6   2  302.60   15.33
   3   6   2  290.60   14.91
   3  -6  -2  264.50   13.75
   3   6   3   97.17    9.46
   3  -6  -3   79.80    9.07
   3   6   3   91.85    9.27
   3  -6  -3   78.18    8.87
   3   6   3   90.73    9.18
  -3  -7  -3   24.18    5.73
  -3  -7  -3   29.42    6.29
  -3   7   2   48.32    7.73
  -3  -7  -2   59.82    7.71
  -3  -7  -2   54.75    7.59
  -3   7   2   48.52    7.39
  -3  -7  -2   66.44    8.17
  -3   7   1    1.15    5.94
  -3  -7  -1   -0.21    4.21
   3  -7   1    8.29    4.09
  -3   7   1   15.51    5.65
   3  -7   1    3.66    4.71
  -3   7   1   -1.24    5.30
   3   7  -1   13.64   16.34
   3   7  -1    7.52   13.22
   3  -7   1    5.41    4.38
   3   7  -1    4.04   18.17
  -3  -7  -1    3.16    4.20
  -3  -7  -1    3.54    3.78
  -3  -7   0   41.52    6.91
   3   7   0   33.54    9.63
   3  -7   0   45.01    6.29
  -3  -7   0   44.07    6.74
  -3   7   0   43.41    7.79
  -3   7   0   41.06    7.50
   3   7   0   25.87    9.53
  -3   7   0   50.19    7.75
   3  -7   0   13.84    7.06
  -3  -7   0   44.06    6.72
   3  -7   0   54.59    7.17
   3   7   0   45.34   12.28
   3  -7  -1    5.66    4.69
   3  -7  -1   17.44    5.27
  -3  -7   1    5.04    4.16
  -3  -7   1    9.37    4.46
  -3   7  -1    7.70    7.59
   3   7   1   13.29    7.35
   3   7   1   11.66    7.28
  -3   7  -1    6.24    7.21
   3   7   1   22.67    8.10
   3  -7  -1   10.55    4.77
  -3  -7   1    8.34    4.27
   3   7   2   48.84    8.58
   3  -7  -2   55.41    7.64
   3   7   2   55.44    9.11
   3   7   2   69.86    9.13
   3  -7  -2   52.53    7.69
   3   7   3   31.66    6.91
   3   7   3   32.73    7.11
   3  -7  -3   20.58    6.05
   3   7   3   33.76    7.53
   3  -7  -3   19.90    6.40
  -3  -8  -3   76.01    9.10
  -3  -8  -3   87.73    9.52
  -3  -8  -2   21.25    6.31
  -3   8   2   26.88    7.60
  -3  -8  -2   15.13    5.71
  -3   8   2   16.99    7.00
  -3   8   2   18.73    6.77
  -3  -8  -2   28.27    6.57
   3  -8   1    3.74    6.02
  -3  -8  -1    4.78    4.39
  -3   8   1    8.90    6.89
   3  -8   1    7.11    4.05
  -3  -8  -1   10.62    4.97
  -3   8   1   10.20    6.05
  -3  -8  -1    6.89    4.69
   3  -8   1   11.13    4.69
   3   8  -1   -4.11   30.09
  -3   8   1   12.78    6.81
  -3  -8   0  101.83   10.08
   3  -8   0   87.58    8.82
  -3  -8   0   98.89    9.77
  -3   8   0   95.70   12.30
   3   8   0   77.61   15.84
  -3   8   0   86.57   11.62
   3  -8   0   92.25    9.52
   3   8   0  116.56   18.99
   3   8   0   73.06   14.48
  -3   8   0   73.80   11.54
  -3  -8   0   88.36    9.32
  -3  -8   1    3.23    4.87
  -3   8  -1    4.65    8.49
   3  -8  -1    2.42    5.54
   3   8   1    7.45    8.65
  -3   8  -1  -11.34    9.74
   3   8   1   -0.44    7.86
   3  -8  -1    3.35    4.78
   3   8   1    5.60    7.75
   3  -8  -1    4.16    4.16
  -3  -8   1    7.47    4.80
  -3   8  -1   15.90   10.41
   3   8   2   19.34    7.99
   3  -8  -2   20.39    5.96
   3  -8  -2    5.35    7.12
   3   8   2   30.61    8.64
   3   8   2   15.91    7.36
   3  -8  -2   23.30    6.68
   3  -8  -3   94.10   10.18
   3   8   3   92.05   11.34
   3   8   3   87.93   10.74
   3  -8  -3   93.98   11.13
   3   8   3  103.36   12.00
  -3  -9  -3    7.91    5.60
  -3   9   3    3.59    7.61
  -3  -9  -3    8.83    5.72
  -3  -9  -2   10.51    5.39
  -3  -9  -2   14.54    6.01
  -3   9   2    8.09    7.78
  -3   9   2    0.18    7.21
  -3   9   2   15.11    7.38
  -3  -9  -2   16.07    5.97
  -3  -9  -1   -2.15    5.40
   3  -9   1    3.16    4.11
  -3   9   1   18.02    9.42
  -3  -9  -1    8.33    5.45
  -3   9   1   -0.84    8.03
   3  -9   1   -2.51    7.31
  -3   9   1   19.97    9.11
   3   9  -1  -34.46   49.23
  -3  -9  -1   10.39    5.45
   3   9  -1  -10.76   85.48
   3  -9   1   11.46    5.67
   3   9   0   18.80   13.38
  -3  -9   0   42.60    7.82
  -3  -9   0   50.65    8.93
   3   9   0   51.30   22.23
  -3  -9   0   38.02    7.17
   3  -9  -1    7.81    4.91
   3   9   1   10.21   10.99
  -3   9  -1   30.89   16.58
   3  -9  -1    1.33    7.02
  -3  -9   1   17.77    6.60
   3   9   1    4.32   10.90
  -3   9  -1    7.12   12.07
   3   9   1    0.89   10.83
   3  -9  -1   12.49    5.66
  -3  -9   1    9.09    4.97
   3  -9  -2   -0.67    7.17
   3  -9  -2   11.64    6.04
   3   9   2    6.72    8.53
   3   9   2    5.56    8.19
   3   9   2   22.50    9.94
   3  -9  -2    4.29    5.59
   3   9   3   27.18    9.34
   3  -9  -3   11.49    6.39
   3  -9  -3   20.11    7.71
   3   9   3   17.26    8.55
  -3 -10  -2   20.99    6.69
  -3  10   1    7.87   12.30
  -3 -10  -1   34.91    8.91
   3 -10   1    6.33    5.54
  -3 -10  -1   23.26    9.31
  -3 -10   0    5.12    5.93
  -3 -10   0   -0.86    6.08
  -3  10   0  -15.75   19.40
   3 -10   0    4.53    5.15
   3 -10   0   -2.50    6.16
   3 -10  -1   16.78    6.29
   3 -10  -1   25.69    8.06
   3 -10  -2   34.43    7.85
   3 -10  -2   24.50    8.19
   3 -10  -3   25.39    7.68
   4   0   0    6.18    3.43
   4   0   0    6.62    2.73
  -4   0   0    0.20    2.10
  -4   0   0    0.66    2.00
  -4   0   0    0.34    2.46
  -4   0   0    0.79    2.66
   4   0   0    2.17    2.42
  -4   0   0    0.84    2.22
   4   0   0    3.04    2.31
   4   0   0    5.35    2.92
   4   0   0    9.24    3.50
  -4   0   0    1.70    2.89
   4   0   1  260.52   11.16
  -4   0  -1  235.62    8.90
  -4   0  -1  229.17    8.89
   4   0  -1  232.10   13.57
  -4   0   1  251.22    9.03
   4   0   1  248.61    9.48
   4   0  -1  252.04   10.50
  -4   0   1  248.44   11.51
   4   0   1  241.94   10.01
   4   0   1  257.95    9.43
  -4   0  -1  230.01   10.67
   4   0   1  240.39    9.04
  -4   0  -1  239.45   11.33
   4   0  -1  256.23   11.69
   4   0  -1  237.26   10.93
   4   0  -1  259.21   18.16
  -4   0  -1  245.07   10.79
  -4   0   1  237.10   10.74
   4   0   1  243.79   10.95
   4   0  -1  267.81   13.56
   4   0   2 1010.90   21.94
   4   0   2  975.38   18.73
   4   0   2  981.17   19.40
   4   0  -2  938.54   23.58
  -4   0  -2  997.74   22.62
  -4   0   2  982.32   22.02
   4   0   2 1014.52   22.76
   4   0  -2 1010.25   31.26
  -4   0  -2 1022.21   24.22
  -4   0  -2  985.18   19.44
   4  -1   2   89.81    6.70
  -4  -1  -2   96.44    6.65
   4  -1   2   98.50    5.70
   4  -1   2   83.63    6.45
  -4   1   2   87.21    5.63
  -4  -1  -2   85.75    7.11
  -4  -1  -2   99.10    7.77
  -4   1   2   84.50    6.96
   4  -1   2   94.44    7.62
  -4  -1  -2   89.21    6.53
   4  -1   1  196.43    9.49
   4   1  -1  200.00   13.00
  -4  -1  -1  183.46    8.66
  -4  -1  -1  187.95    8.78
  -4   1   1  194.15    7.17
   4   1  -1  185.75    8.37
   4  -1   1  196.65    9.03
  -4   1   1  207.28    8.44
   4  -1   1  190.22    7.35
   4  -1   1  195.22    7.60
  -4  -1  -1  189.84    9.62
   4   1  -1  207.08   15.14
   4   1  -1  188.83   11.38
  -4  -1  -1  202.34   10.17
  -4   1   1  191.30    9.21
   4  -1   1  202.63   10.32
   4   1  -1  205.27   12.09
   4  -1   1  190.86    9.02
   4  -1   0  461.61   15.34
   4   1   0  449.96   16.15
  -4   1   0  451.80   10.46
  -4  -1   0  461.38   13.24
  -4  -1   0  449.06   13.10
  -4   1   0  456.18   12.21
   4  -1   0  482.47   13.80
   4   1   0  463.31   11.88
  -4  -1   0  473.34    9.92
  -4  -1   0  446.25   11.47
  -4   1   0  438.67   14.25
   4   1   0  463.89   16.05
   4  -1   0  480.52   11.21
  -4   1   0  476.06   12.40
   4   1   0  471.88   14.66
  -4  -1   0  466.80   14.74
  -4   1   0  472.11   15.57
  -4   1   0  480.99   14.00
  -4  -1   0  480.41   15.07
   4  -1   0  483.57   16.12
   4   1   0  477.84   15.84
   4   1   0  449.79   12.65
   4  -1   0  449.78   14.23
   4  -1   0  479.31   14.47
   4   1   1  192.05   10.08
  -4   1  -1  186.57    7.34
   4  -1  -1  167.94   11.18
   4   1   1  185.89    7.20
   4  -1  -1  194.39   10.48
   4  -1  -1  191.02    9.70
  -4  -1   1  181.82    9.36
   4   1   1  192.63    9.06
  -4   1  -1  183.55   10.26
  -4   1  -1  192.54   10.50
   4  -1  -1  178.09    7.97
   4   1   1  183.33    8.84
  -4   1  -1  170.40    9.10
  -4  -1   1  191.99    9.97
   4   1   1  180.55    9.39
   4  -1  -1  191.02   11.32
  -4  -1   1  190.61    8.65
   4   1   2   91.81    7.22
   4   1   2   87.01    6.38
   4   1   2   95.24    6.80
   4  -1  -2   73.99    7.19
   4  -1  -2   74.18    8.03
  -4   1  -2   92.18    8.38
  -4   1  -2   90.15    7.21
   4   1   2   83.12    6.78
  -4   1  -2   88.88    5.61
   4  -1  -2   78.09    8.82
   4   1   3    9.93    3.93
  -4  -2  -3   19.73    4.14
  -4  -2  -3   16.85    3.26
   4  -2   2   86.13    6.33
  -4  -2  -2   92.65    7.22
  -4  -2  -2   97.33    7.19
  -4  -2  -2   93.73    5.71
   4  -2   2   90.23    6.99
  -4  -2  -2   82.25    6.84
  -4  -2  -2   88.03    7.35
  -4   2   2   84.69    6.49
   4  -2   2   84.91    7.47
   4  -2   2   88.02    7.29
   4  -2   1  179.32    8.74
   4   2  -1  161.54   12.31
  -4  -2  -1  166.35    8.99
  -4  -2  -1  183.87    9.42
   4  -2   1  169.40    9.56
  -4  -2  -1  170.87    7.16
   4   2  -1  169.63   13.88
  -4  -2  -1  173.34    9.06
   4   2  -1  171.70   12.51
   4   2  -1  160.69    9.62
  -4  -2  -1  187.11   10.02
   4  -2   1  168.45    9.75
   4   2  -1  167.00   11.31
   4  -2   1  184.83    9.00
   4  -2   0    7.67    3.10
   4   2   0    1.69    3.60
   4  -2   0    8.16    3.31
   4  -2   0    5.89    2.54
  -4  -2   0    7.26    2.70
  -4  -2   0    7.47    2.27
   4   2   0   11.55    3.99
  -4   2   0    9.36    3.85
  -4  -2   0    7.10    2.86
  -4   2   0    8.74    3.87
  -4  -2   0    6.93    2.65
   4   2   0    6.42    2.50
   4   2   0    7.60    4.24
   4  -2   0   10.47    3.98
  -4   2   0    9.98    2.82
   4   2   0   14.12    3.65
  -4   2   0    7.15    3.08
  -4  -2   0   13.89    4.11
   4   2   1  168.75    9.94
  -4  -2   1  184.25    9.43
  -4  -2   1  169.25    9.21
   4   2   1  161.38    9.09
  -4   2  -1  175.96   10.82
   4   2   1  177.88    9.60
   4   2   1  175.39    7.71
  -4   2  -1  157.85    9.92
  -4   2  -1  165.56    8.47
  -4  -2   1  184.05   10.02
   4   2   1  170.06    9.05
   4   2   2   90.59    7.38
   4   2   2   92.97    6.91
   4  -2  -2   94.32    9.06
   4  -2  -2   80.27    7.86
   4   2   2   83.49    6.79
  -4   2  -2   76.96    8.88
   4  -2  -2   94.03    6.52
   4   2   2   86.09    6.69
   4  -2  -2   93.55   10.16
   4   2   3   12.30    4.06
   4   2   3   18.36    4.40
   4   2   3   20.35    4.52
  -4  -3  -3   25.56    4.06
  -4  -3  -3   17.43    4.59
   4  -3   2   19.35    3.45
   4  -3   2   24.37    4.92
  -4   3   2   25.38    4.68
  -4  -3  -2   20.61    4.49
   4  -3   2   23.06    4.44
  -4  -3  -2   31.10    4.42
  -4  -3  -2   18.47    4.20
  -4  -3  -2   18.36    4.49
   4  -3   2   22.95    4.72
  -4   3   2   28.77    4.20
   4  -3   1   78.58    6.09
  -4  -3  -1  102.20    7.75
  -4  -3  -1   95.61    7.38
   4  -3   1   90.97    7.70
   4  -3   1   96.51    7.15
  -4  -3  -1   91.36    6.53
   4   3  -1   87.79   10.37
   4   3  -1   98.28    9.45
  -4   3   1   95.82    5.95
   4   3  -1  100.94   11.86
   4  -3   1   97.92    8.48
  -4  -3  -1   88.57    7.41
  -4   3   1   87.91    6.04
   4  -3   1   84.64    7.46
  -4  -3  -1   91.07    6.19
   4   3  -1   78.47   10.43
  -4   3   1   81.58    6.50
   4  -3   0    0.25    2.70
  -4  -3   0    1.03    2.99
  -4   3   0    1.56    3.28
  -4   3   0    5.24    4.10
   4   3   0    4.85    4.09
  -4   3   0   -3.40    3.82
  -4  -3   0    3.06    2.65
   4   3   0    9.99    4.76
  -4  -3   0    1.57    2.68
   4  -3   0    7.18    3.90
  -4   3   0   -0.01    2.46
   4   3   0    0.44    3.12
   4  -3   0    3.59    2.86
   4   3   0    1.16    4.77
  -4   3   0    2.81    2.50
   4  -3   0    2.21    3.52
   4  -3   0    2.84    2.63
   4   3   0   -2.66    3.51
  -4  -3   0    1.03    3.08
  -4  -3   0    1.50    2.39
   4   3   1   80.83    7.58
   4  -3  -1   89.33    9.21
  -4  -3   1   89.11    7.36
   4  -3  -1  100.83    7.88
   4   3   1  101.79    8.33
  -4   3  -1   99.58    9.44
   4   3   1   86.75    7.90
   4   3   1   90.74    6.74
  -4   3  -1   96.30    8.38
   4  -3  -1   82.15    6.14
  -4   3  -1   96.46    6.67
  -4  -3   1   98.21    7.83
   4   3   1   94.21    7.07
   4  -3  -1   94.16    8.48
   4  -3  -1   95.43    8.62
  -4  -3   1   98.01    7.56
   4   3   2   20.09    4.51
   4  -3  -2   16.56    5.21
   4  -3  -2   15.67    4.69
  -4   3  -2   19.25    7.29
  -4   3  -2   18.61    5.36
   4   3   2   19.54    3.67
   4   3   2   29.08    5.01
   4   3   2   18.48    4.29
   4  -3  -2   15.71    3.96
   4   3   2   22.82    3.96
   4  -3  -2   13.82    5.61
   4   3   3   14.58    4.23
   4   3   3   16.98    4.31
   4   3   3   17.01    4.55
   4   3   3   17.14    4.19
  -4  -4  -3   52.15    6.52
  -4  -4  -3   50.78    6.97
  -4  -4  -3   52.75    5.90
  -4  -4  -2  152.80   10.32
  -4  -4  -2  167.12   10.76
   4  -4   2  152.52   10.98
  -4  -4  -2  174.80    9.54
   4  -4   2  159.97   10.05
  -4   4   2  162.83    9.81
  -4  -4  -2  175.50   10.87
   4  -4   2  162.55   10.70
  -4  -4  -1  108.65    8.62
  -4  -4  -1  101.22    8.41
   4  -4   1  101.85    8.60
   4  -4   1  104.75    7.93
  -4  -4  -1   98.36    6.99
   4   4  -1   93.21   11.69
  -4   4   1  100.23    7.92
  -4   4   1   89.91    8.06
  -4   4   1  113.69    7.41
   4   4  -1   95.30   10.95
   4  -4   1  105.27    8.74
  -4  -4  -1  109.89    8.55
   4   4  -1   96.97   13.03
   4  -4   1   93.38    8.37
   4   4  -1   98.70   14.00
  -4  -4   0   46.93    5.28
   4  -4   0   33.68    5.78
   4  -4   0   35.85    5.14
  -4  -4   0   48.19    6.37
  -4   4   0   39.61    5.53
  -4   4   0   35.82    6.30
  -4   4   0   30.04    5.58
  -4  -4   0   33.12    5.15
   4   4   0   37.60    7.36
  -4   4   0   41.64    5.18
   4   4   0   48.48    7.04
   4  -4   0   32.73    4.79
   4   4   0   24.57    6.94
   4   4   0   41.14    7.04
   4  -4   0   36.63    5.81
  -4  -4   0   37.79    5.58
   4   4   1  113.57    9.61
  -4  -4   1  106.65    8.54
   4  -4  -1   96.47    9.06
   4  -4  -1  109.79    8.52
   4   4   1  108.86    9.62
  -4  -4   1  104.20    7.70
   4   4   1   97.37    9.28
   4   4   1  114.90    8.57
  -4   4  -1   95.24    8.78
   4  -4  -1  103.54    7.78
  -4  -4   1  102.05    8.08
  -4  -4   1  108.99    8.48
   4  -4  -1  104.28    9.59
  -4   4  -1   93.45   10.09
   4   4   2  168.54   10.91
   4  -4  -2  178.26   13.03
   4  -4  -2  164.41   11.49
   4   4   2  173.55   11.22
  -4   4  -2  185.15   15.40
   4   4   2  175.39   11.23
  -4   4  -2  150.79   11.21
   4  -4  -2  151.43    9.93
   4  -4  -2  145.66   12.94
   4   4   2  176.36   10.33
   4   4   3   56.44    7.11
   4   4   3   51.10    6.82
   4   4   3   54.63    7.13
  -4  -5  -3   50.08    6.45
  -4  -5  -3   42.11    6.79
  -4  -5  -3   38.97    6.26
   4  -5   2   29.78    6.51
  -4  -5  -2   37.42    6.38
  -4  -5  -2   38.33    6.09
  -4  -5  -2   36.87    5.45
   4  -5   2   36.09    5.84
  -4   5   2   37.91    6.19
  -4   5   2   33.68    5.12
  -4  -5  -2   34.65    5.56
   4  -5   2   28.29    5.81
   4   5  -1   43.89   12.76
   4   5  -1   47.49   10.52
   4  -5   1   45.39    6.04
  -4  -5  -1   47.87    5.99
  -4   5   1   55.12    6.88
  -4  -5  -1   56.47    7.27
   4  -5   1   41.98    6.93
  -4  -5  -1   48.03    6.60
  -4   5   1   48.04    6.50
  -4   5   1   52.02    5.94
   4   5  -1   53.54   11.19
   4  -5   1   49.90    6.70
   4  -5   1   51.06    6.58
   4   5  -1   50.34   12.95
  -4  -5  -1   50.64    6.50
   4   5   0  166.63   13.24
  -4  -5   0  198.95   12.03
  -4  -5   0  196.29   11.74
   4  -5   0  200.16   11.40
  -4   5   0  209.82   12.04
   4   5   0  211.20   15.91
  -4   5   0  179.07   12.78
   4   5   0  206.46   16.20
  -4   5   0  195.24   12.00
   4   5   0  179.55   13.30
   4  -5   0  210.12   13.15
  -4   5   0  222.90   11.33
   4  -5   0  188.93   11.00
  -4  -5   0  216.20   11.76
   4  -5   0  194.58   12.14
  -4  -5   0  207.62   11.19
   4   5   1   55.40    8.15
   4   5   1   52.68    7.98
   4  -5  -1   44.32    7.48
   4  -5  -1   47.91    6.39
  -4  -5   1   47.65    6.55
  -4  -5   1   42.93    5.88
  -4   5  -1   46.02    8.62
  -4   5  -1   48.23    7.23
   4   5   1   43.78    7.00
  -4   5  -1   46.34    6.44
   4   5   1   45.61    8.31
   4  -5  -1   42.71    6.12
  -4  -5   1   51.43    6.72
   4  -5  -1   39.20    7.51
  -4  -5   1   52.22    6.56
   4   5   2   25.64    5.88
   4  -5  -2   29.92    6.35
   4  -5  -2   30.69    7.02
   4   5   2   36.56    6.21
   4   5   2   21.98    5.98
   4  -5  -2   30.49    5.70
   4   5   2   32.94    6.71
   4  -5  -2   24.76    6.68
   4   5   3   46.25    7.18
   4  -5  -3   44.37    8.13
   4   5   3   47.10    7.29
   4   5   3   41.32    7.32
   4  -5  -3   32.84    6.68
  -4  -6  -3  150.49   11.33
  -4  -6  -3  141.91   11.25
  -4  -6  -3  138.06   10.45
  -4  -6  -2   24.98    6.30
   4  -6   2   16.66    4.62
  -4  -6  -2   20.58    5.00
  -4   6   2   25.91    6.52
  -4  -6  -2   24.32    6.34
   4  -6   2   16.87    6.40
  -4   6   2   24.38    5.32
   4  -6   2   27.87    6.27
  -4  -6  -1   -1.73    5.08
   4  -6   1    3.82    3.65
  -4   6   1    8.73    4.80
  -4   6   1   13.85    6.49
   4  -6   1    1.15    5.11
  -4  -6  -1    4.61    4.10
  -4   6   1    5.69    4.73
   4   6  -1   -7.34   13.46
   4   6  -1    9.91   12.14
   4  -6   1    1.49    3.84
   4   6  -1    7.94   14.85
   4  -6   1   -2.71    4.90
  -4  -6  -1    7.64    4.51
  -4  -6   0  173.96   12.17
  -4  -6   0  166.33   11.71
   4  -6   0  168.07   12.71
   4  -6   0  165.00   11.18
  -4   6   0  160.17   11.71
  -4   6   0  147.69   12.97
   4   6   0  182.51   17.38
   4   6   0  154.30   14.90
  -4   6   0  181.39   11.32
   4  -6   0  153.78   10.71
  -4  -6   0  165.95   11.10
   4   6   0  181.26   17.86
  -4  -6   0  152.07   10.41
   4   6   0  121.54   13.36
   4  -6  -1    2.54    3.95
  -4  -6   1    8.85    4.94
   4   6   1   12.10    7.20
  -4  -6   1    3.73    3.64
  -4   6  -1  -10.07    7.00
  -4   6  -1   -5.74    5.32
   4  -6  -1    6.61    5.24
   4   6   1    7.70    6.00
   4   6   1    6.36    6.18
  -4   6  -1    1.57    5.68
   4   6   1   -6.56    6.53
   4  -6  -1    2.03    4.20
  -4  -6   1    2.17    3.86
  -4  -6   1    7.88    4.68
   4  -6  -2   28.03    7.47
   4  -6  -2   13.99    5.78
   4   6   2   33.67    7.55
   4   6   2   30.61    7.59
   4  -6  -2   21.96    6.28
   4   6   2   18.04    7.09
   4   6   3  145.67   12.62
   4  -6  -3  131.78   13.01
   4   6   3  149.95   12.38
   4   6   3  146.74   12.39
   4  -6  -3  131.97   12.01
  -4  -7  -3   13.84    5.70
  -4  -7  -3    3.49    5.24
  -4  -7  -3   12.13    5.17
  -4  -7  -2   21.48    6.42
  -4  -7  -2   20.90    5.96
  -4   7   2   19.35    6.42
  -4  -7  -2   25.96    6.87
  -4   7   2   17.36    6.61
   4  -7   2   24.12    7.34
  -4   7   2   14.46    5.94
  -4  -7  -1   18.56    5.95
   4  -7   1    5.91    4.52
  -4  -7  -1   17.87    5.64
  -4   7   1    6.45    5.64
  -4   7   1    1.25    5.85
   4  -7   1    9.14    5.75
  -4  -7  -1   11.99    5.23
  -4   7   1   15.23    6.27
   4   7  -1    9.55   17.27
   4  -7   1    6.27    4.42
   4   7  -1    8.87   12.52
  -4   7   0    7.25    6.26
   4  -7   0   10.58    6.01
   4  -7   0   11.14    5.30
   4   7   0   17.96    9.59
  -4  -7   0   10.73    4.96
  -4   7   0   22.39    8.91
   4   7   0   17.29   10.10
  -4   7   0   -1.56    5.87
  -4  -7   0    5.52    4.75
   4  -7   0    7.34    5.30
   4   7   0   -8.01   12.95
  -4  -7   0    3.88    4.56
  -4   7  -1   38.33   11.15
   4  -7  -1   10.01    6.10
   4  -7  -1   10.40    4.69
  -4  -7   1   23.16    6.56
  -4  -7   1   20.96    5.28
   4   7   1    6.78    7.14
  -4   7  -1   22.80    8.16
   4   7   1   16.06    9.06
   4   7   1    9.49    8.30
   4  -7  -1   10.32    5.42
  -4  -7   1   10.59    4.73
   4   7   2   14.65    7.29
   4  -7  -2    7.70    7.55
   4  -7  -2   23.61    6.73
   4   7   2   29.72    8.41
   4   7   2   21.31    7.88
   4  -7  -2   28.49    7.51
   4  -7  -3    4.96    6.06
   4   7   3   -8.12    7.31
   4   7   3    9.64    6.50
   4  -7  -3    3.54    5.61
   4   7   3   10.42    7.34
  -4  -8  -3   28.28    6.98
  -4  -8  -3   12.48    5.89
  -4  -8  -2   36.29    7.96
  -4   8   2   30.57    7.79
  -4   8   2   13.45    7.67
  -4  -8  -2   33.23    7.22
  -4  -8  -2   37.20    7.68
  -4   8   2   28.40    7.21
   4  -8   1    4.21    6.10
  -4  -8  -1   20.50    6.89
  -4   8   1    9.00    6.68
  -4  -8  -1    8.38    5.33
  -4   8   1   12.23    7.86
  -4   8   1    0.37    6.52
   4   8  -1   -7.99   23.94
  -4  -8  -1    5.89    5.26
   4  -8   1   24.57    7.15
   4   8  -1   11.63   36.51
   4  -8   1    6.13    5.17
   4  -8   0   10.79    8.24
  -4  -8   0   23.62    7.18
   4  -8   0   17.42    5.76
  -4   8   0   29.01    8.40
  -4  -8   0   36.99    7.36
  -4   8   0   41.26   10.58
   4   8   0   31.13   13.80
  -4   8   0   21.32    8.23
   4   8   0   26.62   17.93
   4  -8   0   29.79    7.03
  -4  -8   0   21.64    6.00
   4   8   0   48.23   15.93
   4  -8  -1   11.92    4.94
  -4  -8   1   19.45    6.42
  -4   8  -1   15.54   10.94
  -4   8  -1    1.19   10.03
   4  -8  -1    3.86    7.56
  -4  -8   1    9.82    4.70
   4   8   1    1.64   10.61
  -4   8  -1   -2.43    8.15
   4   8   1    3.38   10.66
   4  -8  -1   17.35    6.40
   4   8   1   34.18   12.58
   4  -8  -2   25.99    7.06
   4   8   2   14.07    8.36
   4   8   2   33.60   10.09
   4   8   2   26.04    9.45
   4  -8  -2   25.52    6.95
   4  -8  -2    2.02    8.30
   4   8   3   20.70    9.29
   4  -8  -3   27.20    8.12
   4   8   3    9.25    6.67
   4   8   3   11.67    7.50
   4  -8  -3   21.97    7.14
  -4  -9  -3   10.83    6.09
  -4   9   3    1.64    7.42
  -4  -9  -3   11.79    6.45
  -4   9   2    9.81    7.87
  -4  -9  -2   -4.55    6.05
  -4  -9  -2    9.43    6.77
  -4   9   2    5.59    8.29
  -4   9   2    3.08    6.36
  -4  -9  -2   -1.09    5.63
  -4  -9  -1   12.95    6.08
   4  -9   1    9.38    8.34
   4  -9   1   30.56    6.91
  -4   9   1   17.84    8.78
  -4  -9  -1   33.92    7.78
  -4   9   1   25.62    9.52
  -4   9   1   20.63    8.06
  -4  -9  -1   32.66    7.52
   4  -9   1   33.79    8.24
   4  -9   0   -0.45    7.26
   4   9   0  -22.88   17.23
  -4  -9   0    6.31    6.90
   4  -9   0    5.65    5.06
  -4   9   0   -2.03    9.41
  -4  -9   0    3.42    5.12
  -4   9   0    1.34    9.11
   4   9   0   12.92   20.98
  -4   9   0   14.93    9.23
   4  -9   0    2.33    5.76
  -4  -9   0   10.66    6.07
   4  -9  -1    3.49    8.33
   4  -9  -1   36.27    7.91
  -4   9  -1   15.98   13.36
   4   9   1   29.02   15.03
   4   9   1   35.11   15.98
  -4   9  -1   11.86   11.66
   4   9   1   22.01   16.61
   4  -9  -1   24.19    7.29
   4  -9  -2    0.56    7.58
   4  -9  -2   26.69    8.05
   4   9   2   22.45   12.05
   4   9   2   14.51   11.92
   4  -9  -2   18.04    7.85
   4   9   2   30.82   13.77
   4  -9  -3   11.51    7.05
   4   9   3  -10.45   10.66
   4   9   3   10.56    9.53
  -4 -10  -2   23.41    8.26
  -4 -10  -1   15.93    7.39
   4 -10   0    5.98    9.75
   4 -10  -1   -8.84    9.09
   4  10   1   17.37   19.40
   4 -10  -2    5.16    9.76
   5   0   0   11.88    4.91
   5   0   0    1.25    3.78
  -5   0   0    2.06    3.69
  -5   0   0   -4.91    2.91
   5   0   0   -1.12    3.23
   5   0   0    6.26    4.18
  -5   0   0   -3.28    3.69
   5   0   1  137.99   10.02
  -5   0  -1  140.11    7.90
   5   0  -1  148.75   13.00
  -5   0  -1  145.29    8.22
   5   0   1  149.48    9.00
   5   0   1  150.69    8.56
  -5   0  -1  141.61   10.18
   5   0  -1  135.11    9.41
  -5   0  -1  139.45    9.70
  -5   0   1  140.12    9.40
   5   0   1  141.76    9.95
   5   0  -1  139.83   11.88
   5   0   2    6.40    4.13
   5   0  -2    0.79    7.11
   5   0  -2    5.15    4.52
  -5   0  -2    5.05    3.03
  -5   0  -2    8.02    4.47
   5   0   2    9.46    3.58
  -5   0  -2    5.67    4.29
   5   0   2   10.41    4.46
   5   0  -2   14.10    6.84
   5   0  -2   -0.40    5.24
  -5   0   2    3.41    3.45
   5   0   3    8.55    4.52
  -5   0  -3   -2.15    3.28
   5   0   3    3.52    3.45
   5   0   3    2.97    4.25
   5  -1   3   39.79    6.09
  -5  -1  -3   35.48    5.60
  -5  -1  -3   42.71    6.74
   5  -1   3   31.73    5.96
   5  -1   2   32.91    5.41
   5  -1   2   31.86    5.32
  -5  -1  -2   30.92    4.54
  -5  -1  -2   32.97    4.87
  -5  -1  -2   38.58    6.11
   5   1  -2   19.63    8.58
  -5  -1  -2   34.94    5.84
   5  -1   2   36.77    6.19
   5   1  -2   26.42    9.10
  -5   1   2   36.83    5.69
  -5  -1  -1   56.12    6.04
   5  -1   1   61.51    7.00
  -5  -1  -1   62.47    6.13
   5   1  -1   48.23    8.65
   5  -1   1   47.88    5.98
   5  -1   1   56.71    6.33
  -5   1   1   58.53    5.69
  -5  -1  -1   71.65    7.50
   5   1  -1   53.04    7.66
   5  -1   1   66.26    7.67
  -5  -1  -1   64.84    7.20
   5   1  -1   51.23   11.33
   5   1  -1   56.30    8.34
  -5   1   1   55.67    6.48
   5  -1   0   11.60    5.12
   5   1   0    7.00    4.21
   5  -1   0   10.16    3.99
   5  -1   0    7.52    3.64
  -5  -1   0    5.14    3.08
  -5   1   0    5.12    3.40
  -5   1   0    6.53    3.76
  -5   1   0    7.80    4.26
  -5  -1   0    7.72    3.98
  -5  -1   0    9.36    3.40
   5   1   0    3.26    4.41
   5   1   0    9.85    4.62
   5  -1   0   16.78    5.54
   5   1   0    3.52    3.89
  -5   1   0    0.01    3.40
  -5  -1   0    4.68    3.89
   5   1   1   59.03    7.26
  -5  -1   1   60.40    5.70
   5  -1  -1   54.57    8.33
   5  -1  -1   60.14    7.58
  -5  -1   1   60.86    6.42
   5  -1  -1   58.76    6.87
  -5   1  -1   61.88    7.56
  -5   1  -1   63.00    7.76
   5   1   1   53.70    6.07
  -5   1  -1   64.43    7.01
   5   1   1   54.64    6.72
   5  -1  -1   54.11    7.85
  -5  -1   1   56.58    6.58
   5   1   1   55.26    6.24
   5   1   2   33.56    5.71
   5  -1  -2   46.47    6.89
  -5  -1   2   35.80    5.12
  -5   1  -2   31.11    6.40
   5   1   2   28.09    3.83
   5   1   2   39.19    5.28
  -5   1  -2   30.87    5.60
   5   1   2   27.04    5.22
   5  -1  -2   27.38    7.78
  -5  -1   2   34.47    5.70
   5   1   3   36.75    6.75
   5   1   3   36.30    5.62
   5   1   3   33.33    6.18
  -5  -2  -3    9.76    4.55
  -5  -2  -3    7.76    4.82
   5  -2   2  154.78    9.73
  -5  -2  -2  140.34    9.50
  -5  -2  -2  147.47   10.00
   5  -2   2  139.67   10.17
   5  -2   2  146.96   10.22
  -5  -2  -2  145.43   10.38
   5   2  -2  120.81   16.15
  -5  -2  -2  146.78   10.53
  -5   2   2  151.23    9.53
   5  -2   2  144.57   10.54
   5  -2   1   57.64    6.75
   5   2  -1   41.42    8.76
   5  -2   1   59.09    6.69
  -5  -2  -1   62.44    6.62
   5  -2   1   53.54    6.34
  -5   2   1   60.59    6.19
   5   2  -1   41.79    9.29
  -5  -2  -1   58.11    6.35
  -5  -2  -1   66.32    6.81
   5  -2   1   67.67    7.60
   5   2  -1   58.93    9.40
  -5  -2  -1   61.75    7.35
  -5   2   1   66.50    6.49
   5   2  -1   52.19    8.36
   5  -2   0  237.71   13.15
   5   2   0  242.82   15.21
  -5  -2   0  226.48   11.36
   5  -2   0  238.70   12.73
  -5  -2   0  232.13   11.49
   5  -2   0  255.91   12.42
   5   2   0  274.77   15.96
  -5   2   0  238.18   13.20
  -5   2   0  245.29   10.91
   5   2   0  236.18   13.58
  -5   2   0  227.43   13.37
  -5  -2   0  237.52   12.22
  -5   2   0  252.64   11.79
  -5  -2   0  243.20   12.72
   5  -2   0  237.42   14.01
   5   2   0  252.30   14.26
   5   2   1   73.19    7.69
   5   2   1   73.59    8.49
  -5  -2   1   64.21    6.74
   5  -2  -1   63.57    7.82
   5  -2  -1   59.01    7.40
  -5   2  -1   62.80    8.20
  -5   2  -1   69.80    8.22
   5   2   1   60.11    7.28
  -5   2  -1   69.66    6.90
   5  -2  -1   60.76    8.74
  -5  -2   1   55.46    6.17
   5   2   1   66.85    7.62
   5  -2  -1   74.88    8.98
  -5  -2   1   63.43    7.06
   5   2   2  149.82   11.03
   5  -2  -2  149.75   12.78
   5   2   2  135.03    9.65
   5  -2  -2  141.35   11.07
   5   2   2  134.93    9.43
  -5   2  -2  141.82   11.54
  -5   2  -2  135.82    9.53
  -5  -2   2  150.90   10.33
   5   2   2  143.67    9.95
   5  -2  -2  131.39   13.32
   5   2   3    7.34    4.71
   5   2   3    4.99    4.15
   5   2   3   -1.08    3.97
  -5  -3  -3   60.77    7.62
  -5  -3  -3   57.64    7.64
   5  -3   2   31.72    5.52
   5  -3   2   22.52    5.82
  -5  -3  -2   26.79    5.45
   5  -3   2   23.39    5.36
  -5  -3  -2   21.76    5.05
  -5   3   2   13.92    4.47
  -5  -3  -2   23.23    5.45
   5  -3   2   22.05    6.03
   5  -3   1   10.68    4.62
   5   3  -1   18.40    8.30
   5   3  -1   14.84    8.49
  -5  -3  -1   20.70    4.87
   5  -3   1   15.17    4.67
  -5   3   1   20.23    4.77
  -5  -3  -1   14.69    4.61
  -5   3   1   16.95    6.09
   5   3  -1    7.89    7.81
   5  -3   1   11.08    4.66
  -5  -3  -1   23.95    5.37
   5   3   0   22.55    6.28
   5  -3   0   25.78    5.85
   5  -3   0   19.72    5.12
  -5  -3   0   27.13    5.31
  -5   3   0   13.63    4.50
  -5   3   0   25.63    6.79
  -5   3   0   18.80    5.79
  -5  -3   0   16.00    4.25
  -5  -3   0   20.84    4.56
   5   3   0   22.46    7.38
   5   3   0   22.58    7.19
   5  -3   0    6.22    5.25
  -5  -3   0   28.11    6.12
   5   3   0   24.24    5.79
   5   3   1   26.58    6.14
   5   3   1   12.92    5.53
   5  -3  -1   18.99    5.37
   5  -3  -1   23.96    5.87
  -5  -3   1   14.89    4.42
  -5   3  -1   14.15    6.43
  -5   3  -1   12.27    5.75
   5   3   1   22.59    5.67
  -5  -3   1   18.66    4.67
   5  -3  -1   12.99    5.60
  -5  -3   1   15.48    4.92
   5   3   2   23.97    5.91
   5  -3  -2   24.42    6.55
   5  -3  -2   13.31    5.98
  -5   3  -2   18.72    5.97
   5   3   2   15.13    5.12
   5   3   2   20.26    5.20
   5  -3  -2    8.97    5.95
   5   3   3   58.86    7.80
   5   3   3   55.66    7.30
   5   3   3   69.37    8.35
  -5  -4  -3    9.92    5.00
  -5  -4  -3   18.22    5.82
   5  -4   2   27.20    6.28
  -5  -4  -2   41.13    6.88
   5  -4   2   48.29    7.03
  -5   4   2   38.34    6.48
  -5  -4  -2   33.09    6.29
  -5  -4  -2   35.00    6.77
   5  -4   2   37.55    6.74
   5  -4   1   13.18    5.61
  -5  -4  -1   13.54    5.15
   5   4  -1    2.70   10.74
   5  -4   1    4.75    3.95
  -5   4   1    9.44    4.69
   5   4  -1    3.46    7.68
  -5  -4  -1    9.45    4.54
  -5   4   1    8.75    5.41
   5   4  -1   -1.47    9.97
   5  -4   1   -7.29    5.27
  -5  -4  -1   11.06    5.45
  -5  -4   0   84.85    8.79
   5  -4   0   77.97    9.17
   5   4   0   87.44   10.88
   5  -4   0   86.54    8.78
  -5   4   0   82.97    8.52
  -5   4   0   83.22    9.62
  -5   4   0   74.46    8.53
  -5  -4   0   71.29    7.92
  -5  -4   0   82.51    8.64
   5   4   0   97.37   12.27
   5   4   0   67.06   10.52
   5  -4   0   75.38    9.16
   5   4   1   10.58    5.87
   5  -4  -1    5.62    4.65
   5   4   1    9.89    5.38
   5  -4  -1    6.76    4.42
  -5  -4   1    9.58    4.71
  -5   4  -1   19.21    7.51
  -5   4  -1   13.92    5.98
   5   4   1    2.25    6.28
  -5  -4   1   10.56    4.40
   5  -4  -1   17.16    6.57
  -5  -4   1    4.53    4.33
   5   4   2   38.84    7.67
   5  -4  -2   38.12    8.16
   5  -4  -2   37.79    7.41
  -5   4  -2   33.51    9.62
  -5   4  -2   39.20    7.97
   5   4   2   40.26    7.64
   5   4   2   47.04    7.89
   5  -4  -2   40.89    8.81
   5   4   3    8.61    5.26
   5   4   3    7.77    4.79
   5   4   3   -0.31    4.87
  -5  -5  -3   24.60    5.79
  -5  -5  -3   33.48    6.08
  -5  -5  -3   26.16    6.90
   5  -5   2   48.67    8.11
  -5  -5  -2   44.60    7.36
   5  -5   2   49.49    7.11
  -5  -5  -2   50.38    6.72
  -5   5   2   47.93    7.36
  -5  -5  -2   55.98    8.04
  -5   5   2   49.90    7.96
  -5  -5  -2   57.20    7.84
   5  -5   2   47.00    7.50
   5  -5   1   15.33    6.40
   5   5  -1   10.53    9.55
  -5  -5  -1   11.70    5.54
   5  -5   1   15.72    5.03
  -5  -5  -1   14.31    4.96
  -5   5   1   13.66    5.01
  -5   5   1   14.39    6.16
  -5  -5  -1    7.06    4.59
  -5   5   1   18.69    5.89
   5   5  -1   27.77   14.60
   5   5  -1    6.11    9.56
   5   5  -1    0.52   12.71
  -5  -5  -1   15.95    5.85
   5  -5   1   21.14    6.87
   5   5   0    9.83    8.43
   5   5   0   12.58    7.52
   5  -5   0   12.36    6.51
   5  -5   0    7.35    4.82
  -5  -5   0    6.18    5.17
  -5   5   0   18.03    6.24
  -5  -5   0   14.95    4.57
  -5   5   0   21.92    8.22
  -5   5   0    3.70    5.46
   5   5   0    2.37    7.00
  -5  -5   0    8.48    4.78
   5   5   0   15.00   10.09
   5  -5   0    8.90    5.53
  -5  -5   0    5.56    4.69
   5   5   1   19.05    7.49
   5  -5  -1    5.28    5.90
   5  -5  -1   22.84    6.51
  -5  -5   1   21.96    6.16
   5   5   1   20.48    8.08
  -5   5  -1   10.86    6.84
  -5   5  -1    8.77    5.84
   5   5   1   15.59    6.59
   5   5   1   13.99    7.31
  -5  -5   1    7.63    4.45
   5  -5  -1   10.39    6.48
  -5  -5   1    4.33    4.76
   5   5   2   58.72    9.28
   5  -5  -2   47.31    8.94
   5  -5  -2   56.82    8.86
   5   5   2   50.70    8.17
   5   5   2   51.18    8.89
   5   5   2   46.84    8.20
   5  -5  -2   49.40   10.24
   5   5   3   27.30    7.50
   5   5   3   23.90    7.15
   5   5   3   30.79    7.48
  -5  -6  -3    5.31    5.33
  -5  -6  -3    1.99    4.35
  -5  -6  -3    8.68    5.69
   5  -6   2   39.00    8.47
  -5  -6  -2   41.71    7.73
   5  -6   2   45.44    7.31
  -5  -6  -2   41.93    7.02
  -5   6   2   42.01    7.51
  -5  -6  -2   41.00    7.44
  -5   6   2   31.38    6.89
  -5  -6  -2   38.01    6.86
   5  -6   2   38.14    8.12
  -5  -6  -1  222.00   14.68
  -5  -6  -1  201.48   14.27
   5  -6   1  202.61   15.21
   5   6  -1  191.09   25.34
   5  -6   1  207.40   13.50
  -5  -6  -1  220.13   13.46
  -5   6   1  210.70   13.74
  -5   6   1  211.71   16.50
  -5   6   1  182.68   13.45
   5   6  -1  195.31   21.73
  -5  -6  -1  216.76   14.13
   5  -6   1  199.23   14.55
   5   6  -1  196.99   27.19
   5   6   0   36.77   11.20
  -5  -6   0   17.20    6.52
   5   6   0   43.10   12.94
   5  -6   0    8.65    4.70
  -5   6   0    9.44    5.93
  -5  -6   0    8.22    4.46
   5  -6   0   21.64    7.30
  -5   6   0   11.57    7.10
  -5   6   0    8.33    5.60
   5   6   0   13.03    8.74
  -5  -6   0   11.30    5.50
   5   6   0   22.52   12.84
  -5  -6   0   20.92    6.54
   5  -6   0   35.32    8.46
   5   6   1  197.05   17.38
  -5  -6   1  216.95   14.57
  -5  -6   1  221.87   14.50
   5  -6  -1  223.08   14.78
  -5   6  -1  205.79   15.52
   5   6   1  201.66   18.02
  -5   6  -1  207.86   18.21
   5   6   1  216.21   18.78
   5   6   1  218.03   16.79
  -5   6  -1  190.20   14.54
   5  -6  -1  202.11   15.89
  -5  -6   1  231.35   14.61
   5  -6  -1  185.06   16.18
   5   6   2   45.09    9.78
   5   6   2   43.55   10.13
   5  -6  -2   41.04    9.41
   5  -6  -2   47.26    9.16
   5   6   2   46.22    8.84
   5   6   2   41.83    9.18
   5  -6  -2   31.43    9.85
   5   6   3    4.88    5.85
   5   6   3   10.43    6.84
   5   6   3    4.39    5.93
  -5  -7  -3    4.34    5.64
  -5  -7  -3    5.12    5.11
  -5  -7  -3   16.17    6.45
   5  -7   2    9.45    7.20
  -5  -7  -2   -0.46    5.49
  -5   7   2  -10.21    6.28
  -5  -7  -2    1.17    5.18
  -5   7   2    5.86    7.94
  -5  -7  -2    0.89    5.34
  -5  -7  -1   13.87    6.18
   5  -7   1   14.68    5.71
  -5   7   1    5.07    5.98
  -5  -7  -1    9.59    4.80
  -5   7   1   -2.26    7.35
   5  -7   1    7.69    6.76
  -5  -7  -1   13.43    6.58
   5   7  -1   -9.04   15.92
   5   7  -1   23.95   23.65
   5   7  -1    9.79   18.34
  -5  -7   0    2.66    5.42
   5  -7   0    4.30    5.20
  -5   7   0   -5.65    6.66
  -5  -7   0   11.48    5.49
  -5   7   0    0.11    7.61
   5   7   0    7.90   12.05
   5   7   0   27.48   13.12
   5  -7   0   -3.33    5.84
   5   7   0   18.50   15.39
  -5  -7   0   -3.57    4.59
   5  -7  -1    3.35    6.71
   5  -7  -1   10.39    5.59
  -5  -7   1   12.89    6.57
  -5   7  -1   23.40    8.93
  -5   7  -1    6.08    8.87
   5   7   1    5.79    8.91
   5   7   1    5.71   10.64
   5   7   1   11.05   10.23
  -5  -7   1   17.79    6.00
   5  -7  -2    1.30    7.43
   5  -7  -2    5.89    6.47
   5   7   2    0.21    8.39
   5   7   2    8.75    8.00
   5   7   2   -6.16    8.45
   5   7   3   -7.92    8.75
   5   7   3   13.12    7.75
  -5  -8  -3   -0.35    5.59
  -5  -8  -3    2.01    5.58
  -5  -8  -2   29.43    7.90
  -5   8   2   20.57    7.75
  -5  -8  -2   34.33    7.77
  -5   8   2    8.87    8.28
  -5  -8  -2   31.41    8.05
   5  -8   1    2.16    8.21
  -5  -8  -1   17.72    7.11
   5  -8   1   15.93    6.37
  -5   8   1   13.80    8.27
  -5  -8  -1    8.92    5.25
  -5   8   1   11.86    8.19
  -5   8   1   13.41    6.95
  -5  -8  -1   15.02    6.88
   5  -8   0    4.72    8.42
  -5  -8   0   10.69    7.04
   5  -8   0    7.83    5.79
  -5   8   0   12.47    8.18
  -5  -8   0    7.39    5.48
  -5   8   0   22.85   11.04
   5   8   0    7.30   14.64
   5   8   0   -9.17   14.48
   5   8   0   34.97   23.36
  -5  -8   0    4.00    5.89
   5  -8  -1   -1.51    6.81
   5   8   1   13.91   14.24
   5  -8  -1   19.71    6.38
  -5   8  -1   28.68   11.93
  -5   8  -1    4.92   10.58
   5   8   1   23.41   12.39
   5   8   1   15.82   13.73
   5  -8  -2   -1.60    8.20
   5  -8  -2   22.88    8.11
   5   8   2   14.60    9.92
   5   8   2   32.90   12.47
   5   8   2   14.27   11.19
   5   8   3   -3.43    9.29
   5   8   3    2.96    8.19
  -5  -9  -2    3.47    6.14
  -5  -9  -2    3.52    6.03
  -5  -9  -1   17.45    8.19
  -5   9   1   -4.52    8.21
  -5  -9  -1   21.78    8.83
   5  -9   1    2.34    8.14
   5  -9   0   -5.30    9.72
   5  -9   0    5.86    6.05
  -5  -9   0   -7.64    6.49
  -5   9   0   -2.84    9.40
  -5  -9   0    8.73    7.06
   5  -9  -1    2.75    9.07
  -5   9  -1   27.53   12.73
   5   9   1   13.99   18.88
   5  -9  -2   18.62    9.09
   6   0   0    1.97    6.49
  -6   0   0    3.74    4.71
  -6   0   0    4.59    4.88
   6   0   0    5.32    5.54
   6   0   1    5.53    5.15
   6   0  -1   17.20    7.23
  -6   0  -1   14.29    5.74
  -6   0   1    4.46    4.73
  -6   0  -1    1.95    4.50
   6   0   1   10.20    5.40
   6   0  -1    3.83    6.67
  -6   0   1   14.69    5.57
   6   0   2   -1.82    4.34
  -6   0  -2    5.17    4.90
  -6   0  -2    4.14    4.60
   6   0   2    6.71    5.42
   6   0  -2   11.09    7.39
  -6   0   2    1.51    4.45
   6   0   3  324.35   17.62
   6   0   3  320.07   18.03
   6  -1   3   -3.65    5.39
  -6  -1  -3    8.23    4.67
  -6  -1  -3    1.29    5.11
   6  -1   3    6.39    5.64
   6  -1   2   17.79    5.52
   6   1  -2    3.02    9.29
  -6  -1  -2   22.25    5.28
  -6  -1  -2   28.56    6.86
  -6  -1  -2   17.44    6.08
   6  -1   2   16.69    5.69
   6   1  -2    9.74    8.83
  -6   1   2   20.47    5.52
   6  -1   1   -4.99    5.19
   6   1  -1    9.74    6.83
  -6  -1  -1   -0.11    3.72
  -6  -1  -1   12.85    5.65
  -6   1   1    5.07    4.91
   6   1  -1    4.42    6.69
  -6  -1  -1    9.92    5.58
   6  -1   1   -0.89    4.91
  -6   1   1    2.74    4.77
   6   1  -1   -0.11    6.18
   6  -1   0  151.55   13.23
   6   1   0  158.95   14.00
  -6  -1   0  172.36   10.77
   6   1   0  166.43   11.95
  -6   1   0  172.68   13.03
  -6  -1   0  167.44   12.08
  -6   1   0  177.04   12.26
  -6  -1   0  168.93   12.03
   6  -1   0  161.48   13.26
   6   1   0  154.14   13.40
   6   1   1    2.06    5.41
   6  -1  -1    1.97    6.37
  -6   1  -1   11.46    5.96
   6   1   1    2.84    4.04
  -6   1  -1   -2.35    4.50
   6   1   1    2.25    4.96
   6  -1  -1   -1.72    5.96
  -6  -1   1   -0.13    3.59
  -6  -1   1    0.55    4.53
   6   1   2   21.49    6.14
  -6   1  -2   21.49    7.11
   6   1   2   17.89    4.44
  -6   1  -2   18.65    5.40
   6   1   2   17.17    5.92
   6  -1  -2   25.10    8.57
  -6  -1   2   25.03    7.00
   6   1   3    7.92    5.35
   6   1   3    4.22    5.41
   6  -2   3    4.73    4.94
  -6  -2  -3    4.38    4.29
  -6  -2  -3    9.52    5.52
   6  -2   3    1.15    5.13
   6  -2   2   60.78    8.16
   6  -2   2   63.31    7.65
  -6  -2  -2   58.22    7.51
  -6  -2  -2   58.02    8.00
  -6  -2  -2   64.82    8.71
   6  -2   2   62.71    8.70
  -6   2   2   66.08    8.06
   6  -2   1    4.75    4.92
   6  -2   1    6.53    4.79
   6   2  -1    2.11    8.11
   6   2  -1    8.42   10.29
  -6  -2  -1   13.95    4.99
   6  -2   1   13.78    5.98
  -6   2   1    5.18    3.77
  -6   2   1    4.89    4.73
  -6  -2  -1   12.83    5.25
  -6  -2  -1   16.32    4.92
  -6   2   1   11.20    5.68
   6   2  -1    8.53    7.44
  -6  -2  -1    6.15    5.47
   6  -2   1    8.92    5.81
  -6   2   1    6.81    4.62
   6   2  -1    2.61    6.42
   6   2   0    9.64    6.73
   6  -2   0    0.74    5.38
   6  -2   0    3.37    4.86
  -6  -2   0   -6.30    4.98
   6  -2   0   -1.73    4.98
  -6   2   0    6.41    4.39
  -6   2   0   -0.92    4.96
  -6   2   0    0.21    5.54
  -6  -2   0    4.53    4.59
   6   2   0   11.46    7.37
  -6  -2   0    5.97    3.73
   6   2   0    5.93    6.75
  -6   2   0   -1.58    4.89
   6  -2   0    4.35    5.39
  -6  -2   0    8.16    5.53
   6   2   0    3.36    5.63
   6   2   1   18.21    6.63
   6  -2  -1    1.84    6.35
   6  -2  -1    7.30    5.55
   6  -2  -1    5.58    5.26
  -6  -2   1   13.93    4.75
   6   2   1   19.31    6.80
  -6   2  -1   16.15    4.86
  -6   2  -1    1.98    6.25
  -6   2  -1    3.64    5.28
  -6  -2   1    4.06    4.60
   6   2   1    0.60    5.24
  -6   2  -1    7.64    4.38
  -6  -2   1    9.52    4.21
   6   2   1    7.11    4.98
   6  -2  -1   13.32    6.84
  -6  -2   1   10.71    5.13
   6   2   2   69.64    9.20
   6  -2  -2   58.79    9.31
  -6   2  -2   81.07   10.54
   6   2   2   59.58    8.33
  -6   2  -2   58.37    7.78
   6   2   2   58.30    7.96
   6   2   2   62.09    8.30
   6  -2  -2   60.01   11.04
   6   2   3    2.89    5.60
   6   2   3    0.95    5.14
   6   2   3   -1.53    5.15
  -6  -3  -3    8.90    5.47
  -6  -3  -3    9.77    5.61
   6  -3   2    5.89    5.16
  -6  -3  -2   -1.00    4.61
  -6  -3  -2    0.13    4.43
  -6  -3  -2   11.80    6.02
   6  -3   2   13.65    6.31
   6  -3   1   17.88    5.96
   6   3  -1   33.63   11.56
  -6  -3  -1   -0.75    5.81
   6  -3   1    6.83    4.72
   6   3  -1   10.20   12.02
  -6   3   1   26.94    6.01
  -6   3   1   29.13    7.89
  -6  -3  -1   13.12    5.35
  -6   3   1   18.39    6.92
   6   3  -1    6.59   10.58
  -6  -3  -1   14.33    5.75
   6  -3   1   19.86    7.09
   6   3   0   16.01    8.74
   6   3   0    7.24    7.62
   6  -3   0   -1.22    5.21
  -6  -3   0    1.38    4.48
   6  -3   0    9.89    5.27
  -6   3   0    4.51    4.87
  -6   3   0   -1.03    5.75
  -6   3   0    1.30    6.29
  -6  -3   0   13.26    5.47
   6   3   0    4.77    7.44
   6  -3   0    7.58    6.46
  -6  -3   0    4.17    4.85
   6   3   1   10.72    6.92
   6  -3  -1   13.54    6.03
   6  -3  -1    3.29    5.24
  -6  -3   1    1.53    5.24
  -6   3  -1   21.60    6.20
  -6   3  -1   32.20    9.11
   6   3   1    3.16    6.27
  -6   3  -1   15.17    5.79
   6   3   1    2.26    6.34
  -6  -3   1   21.57    5.64
   6  -3  -1   11.35    6.56
  -6  -3   1   13.24    5.83
   6   3   2    2.13    5.76
   6  -3  -2   21.80    7.95
   6  -3  -2    0.51    6.12
  -6   3  -2    1.16    6.20
   6   3   2   -0.75    5.69
   6  -3  -2    3.87    6.71
   6   3   2    7.13    5.54
   6   3   3   -1.82    6.18
   6   3   3   -5.16    5.72
  -6  -4  -3    3.35    5.51
  -6  -4  -3    8.11    5.26
   6  -4   2   27.85    7.04
   6  -4   2   40.22    7.51
  -6  -4  -2   26.43    6.40
  -6   4   2   30.92    7.88
  -6  -4  -2   40.40    8.10
   6  -4   2   35.43    7.65
   6  -4   1   -3.91    5.14
   6   4  -1    4.25    9.15
  -6  -4  -1    1.25    6.18
   6  -4   1    9.17    5.67
  -6   4   1    6.97    5.66
   6   4  -1   15.25   12.94
  -6   4   1    5.00    6.41
  -6   4   1   13.54    6.67
  -6  -4  -1    4.32    4.89
   6   4  -1   14.97   11.91
  -6  -4  -1   -0.15    5.35
   6  -4   1    2.53    6.00
   6   4   0    6.94    8.47
   6  -4   0   15.15    6.37
   6   4   0   -0.57    8.62
  -6  -4   0   -0.80    5.44
   6  -4   0    7.35    5.78
  -6   4   0   12.74    5.43
  -6   4   0    2.99    7.15
  -6   4   0   13.57    6.56
  -6  -4   0    6.75    5.03
   6   4   0    0.24    8.96
   6  -4   0   13.84    6.90
  -6  -4   0   21.53    6.82
   6   4   1   -5.38    6.99
   6  -4  -1   11.38    6.57
   6  -4  -1    2.61    5.57
  -6  -4   1   -1.81    5.11
  -6   4  -1    7.64    5.69
  -6   4  -1   10.41    7.88
  -6   4  -1    3.39    6.31
   6   4   1    5.38    6.82
   6   4   1    0.72    7.01
  -6  -4   1    0.10    4.25
   6  -4  -1   -2.43    7.15
  -6  -4   1    7.61    5.56
   6   4   2   34.79    9.00
   6   4   2   11.19    6.68
   6  -4  -2   29.07    7.93
   6  -4  -2   21.87    8.28
  -6   4  -2   36.31    8.62
   6   4   2   13.90    8.76
   6  -4  -2   27.35    9.35
   6   4   3   -1.82    5.68
   6   4   3    0.92    5.76
   6   4   3   15.15    6.81
  -6  -5  -3   -5.40    5.42
  -6  -5  -3    9.87    6.42
   6  -5   2   42.02    9.02
  -6  -5  -2    1.18    6.55
   6  -5   2   20.17    6.25
  -6   5   2   20.72    6.24
  -6  -5  -2   26.03    7.21
  -6   5   2   34.06    8.33
  -6  -5  -2   22.95    6.64
   6  -5   2   19.15    7.08
   6  -5   1   30.81    8.69
   6   5  -1   15.31   11.34
  -6  -5  -1    1.68    7.48
   6  -5   1   39.93    8.08
  -6   5   1   34.99    7.10
  -6   5   1   48.38    9.85
  -6   5   1   48.91    9.19
  -6  -5  -1   33.32    7.19
   6   5  -1    1.09   15.47
   6   5  -1    4.42   14.14
  -6  -5  -1   41.10    8.13
   6  -5   1   36.34    8.66
   6   5   0   10.96    8.32
   6  -5   0   10.48    6.82
  -6  -5   0    0.11    5.99
   6  -5   0    7.23    5.78
  -6   5   0  -11.32    6.55
   6   5   0   11.39   10.62
  -6   5   0    2.57    8.06
  -6   5   0    3.76    5.60
  -6  -5   0    7.14    5.07
   6   5   0    2.93   11.73
  -6  -5   0   -1.37    5.29
   6  -5   0   11.09    7.09
   6   5   1   42.90   10.88
   6  -5  -1   18.45    7.43
   6  -5  -1   32.01    7.60
  -6  -5   1    1.34    7.42
  -6   5  -1   26.69    7.37
  -6   5  -1   42.69   10.78
  -6   5  -1   27.27    7.89
   6   5   1   18.38   10.15
   6   5   1   36.58   11.09
  -6  -5   1   26.86    6.29
  -6  -5   1   40.90    7.69
   6  -5  -1   25.17    7.99
   6   5   2    5.95    7.12
   6   5   2    4.57    7.46
   6  -5  -2   20.79    9.30
   6  -5  -2   13.77    7.53
   6   5   2   30.54    9.23
   6  -5  -2   20.29    8.93
   6   5   3   -7.14    6.84
   6   5   3    3.01    6.77
   6   5   3   -1.34    6.91
  -6  -6  -3   40.85    8.41
   6  -6   2   -6.35    7.24
  -6  -6  -2   -0.29    6.42
  -6   6   2   -0.18    5.36
  -6   6   2    6.22    8.53
  -6  -6  -2    0.20    5.91
  -6   6   2  -13.37    7.31
  -6  -6  -2    0.16    5.48
   6  -6   2    2.39    6.21
   6   6  -1   25.83   20.52
   6  -6   1   34.91    8.64
  -6  -6  -1    0.03    7.53
   6  -6   1   35.91    7.44
  -6   6   1   31.85    7.65
  -6   6   1   15.10    8.86
  -6   6   1   27.76    7.60
  -6  -6  -1   39.77    8.43
   6   6  -1   10.89   17.77
  -6  -6  -1   38.59    8.19
   6  -6   1   37.14    8.37
   6   6   0   26.83   10.02
   6  -6   0   28.35    8.49
  -6  -6   0    1.86    7.37
   6  -6   0   25.87    7.37
  -6   6   0   17.26    7.50
  -6   6   0   21.40    9.24
  -6   6   0   27.00    8.29
   6   6   0   11.29   13.49
   6   6   0   46.83   16.49
  -6  -6   0   28.63    7.25
  -6  -6   0   19.61    7.29
   6  -6   0   27.93    9.09
   6   6   1   36.03   12.68
   6  -6  -1   36.80    9.50
   6  -6  -1   35.35    8.71
  -6  -6   1    1.05    7.46
  -6   6  -1   36.88    9.45
  -6   6  -1   37.65   12.94
  -6   6  -1   32.39    8.53
   6   6   1   59.35   14.99
   6   6   1   28.72   12.05
  -6  -6   1   23.37    7.02
  -6  -6   1   44.84    8.29
   6  -6  -1   40.13   10.67
   6   6   2   -2.73    8.06
   6  -6  -2    1.38    7.19
   6  -6  -2   -5.70    7.02
   6   6   2   -2.61    8.73
   6   6   2    0.67    8.17
   6  -6  -2    5.60    8.96
   6   6   3   28.70    9.17
   6   6   3    7.50    9.71
  -6  -7  -3    8.03    7.01
  -6  -7  -2    0.26    6.09
  -6   7   2    5.06    6.47
  -6   7   2  -11.41    8.24
  -6  -7  -2   -1.72    5.87
   6  -7   1   14.08    8.20
  -6  -7  -1    0.47    7.91
   6  -7   1    8.39    5.55
  -6   7   1   15.07    7.28
  -6   7   1    9.67    9.23
  -6  -7  -1   11.62    6.53
   6  -7   0   24.17    8.79
  -6  -7   0    2.10    7.63
   6  -7   0    3.42    6.24
   6   7   0    8.94   15.97
  -6   7   0    4.16    7.73
  -6   7   0    7.07    9.19
   6   7   0   -5.35   17.11
  -6  -7   0   25.56    7.63
   6   7   1   -3.37   11.75
   6  -7  -1   -2.44    8.06
   6  -7  -1   10.93    7.13
  -6   7  -1   14.20    9.10
  -6   7  -1   -8.11   10.79
   6   7   1   11.76   16.97
   6  -7  -2   -4.95    8.52
   6  -7  -2  -19.26    9.59
   6   7   2    4.09   10.81
   6   7   2    3.29   10.10
   6   7   3    1.42    9.46
  -6  -8   0    5.26    6.57
   7   0   0    3.50    7.22
  -7   0   0   -1.98    5.79
  -7   0   0    6.13    5.71
   7   0   0   10.19    7.39
   7   0   1   21.91    7.60
   7   0  -1   18.29    9.16
  -7   0  -1   21.43    7.46
  -7   0   1   31.48    7.65
  -7   0  -1   27.42    7.35
   7   0   1   25.51    7.14
  -7   0   1   18.96    5.93
   7   0  -1   14.32    8.32
   7   0   2    6.86    6.75
  -7   0  -2    2.62    6.01
  -7   0  -2    4.28    5.20
   7   0   2    4.91    6.07
  -7   0   2    4.32    5.15
   7   0   3   23.76    7.52
   7   0   3   33.86    8.89
   7  -1   3   16.46    7.19
   7  -1   3   27.08    8.92
   7  -1   2    9.95    6.25
  -7  -1  -2   16.90    6.77
  -7  -1  -2   21.28    6.96
   7  -1   2   11.42    6.67
  -7   1   2    9.73    5.55
   7  -1   1    3.60    6.12
   7   1  -1    2.40    9.72
  -7  -1  -1   -5.69    6.10
  -7   1   1   10.01    6.59
  -7  -1  -1    5.45    6.04
   7  -1   1   -0.06    5.82
  -7   1   1   -8.02    5.81
   7   1  -1    8.34    7.91
   7   1   0    6.65    6.90
   7  -1   0   -2.83    6.72
  -7   1   0   -6.06    5.67
  -7  -1   0   21.25    7.16
  -7   1   0   -2.72    5.37
  -7  -1   0   -4.59    5.79
   7  -1   0   -1.00    6.33
   7   1   0   -2.86    6.79
   7   1   1    5.88    7.53
   7  -1  -1    3.04    8.75
  -7   1  -1   -3.15    6.58
  -7  -1   1    7.98    5.82
  -7   1  -1    2.19    5.07
   7   1   1   -5.36    6.51
  -7  -1   1   -8.79    6.12
   7  -1  -1   -5.32    7.60
   7   1   2   21.46    8.22
  -7   1  -2   24.22    8.46
  -7   1  -2   13.22    6.01
   7   1   2   19.43    7.03
   7  -1  -2    4.40    8.52
   7   1   3   36.76    9.16
   7   1   3   20.86    8.03
  -7  -2  -3   -0.83    4.92
  -7  -2  -3    7.56    5.77
   7  -2   2   -9.13    6.51
  -7  -2  -2    1.54    4.85
  -7  -2  -2    4.40    6.07
  -7   2   2    2.82    5.88
  -7  -2  -2    2.98    6.24
   7  -2   2    2.90    6.28
  -7   2   2    8.66    5.59
   7  -2   1   -0.51    6.44
   7   2  -1   15.30   11.78
  -7  -2  -1   -2.32    5.68
  -7   2   1    5.59    6.28
  -7  -2  -1    4.89    4.95
   7   2  -1    8.95   10.17
  -7  -2  -1   13.35    7.05
   7  -2   1  -15.08    7.75
  -7   2   1   14.26    6.39
   7   2  -1    4.32    8.39
   7   2   0  104.19   14.66
   7  -2   0   86.75   13.13
  -7  -2   0  127.02   11.11
  -7  -2   0  112.30   11.42
  -7   2   0  107.89   12.21
   7   2   0   85.50   12.72
  -7   2   0  109.55   10.87
  -7  -2   0  112.04   11.99
   7  -2   0   99.76   12.79
   7   2   0  117.27   14.32
   7   2   1    1.30    7.39
   7  -2  -1   -3.57    8.32
  -7   2  -1   11.60    7.34
  -7  -2   1   -2.04    5.79
   7   2   1    5.33    6.80
  -7   2  -1    4.10    4.85
   7   2   1    7.30    6.77
  -7  -2   1    0.84    5.25
   7  -2  -1   12.64    8.54
   7   2   2   14.10    7.16
  -7   2  -2   -0.21    6.69
   7   2   2    0.52    5.34
   7   2   2    7.79    6.69
   7  -2  -2    7.04    8.45
   7   2   3    8.47    7.41
   7   2   3    2.29    6.06
  -7  -3  -3   13.06    6.08
  -7  -3  -3    7.19    5.88
  -7  -3  -2   -1.09    4.87
   7  -3   2    9.66    5.91
  -7   3   2    1.71    6.15
  -7  -3  -2    4.10    5.43
  -7   3   2   -0.71    6.63
  -7  -3  -2   11.16    6.65
   7  -3   2    6.33    6.66
   7  -3   1   -4.17    5.69
   7   3  -1  -18.41   12.34
  -7  -3  -1    2.41    5.21
  -7   3   1  -12.47    5.76
  -7   3   1    4.08    6.57
  -7   3   1   11.32    7.42
  -7  -3  -1  -12.63    6.21
   7   3  -1    3.34   11.30
  -7  -3  -1    3.80    6.01
   7  -3   1    0.79    6.74
   7   3   0    1.04   10.15
   7  -3   0   10.35    6.84
  -7  -3   0   -1.68    5.44
  -7   3   0   -2.57    5.15
  -7   3   0   -3.15    7.41
  -7   3   0   -1.04    6.61
   7   3   0    3.63    9.47
  -7  -3   0    4.06    5.57
   7   3   0   -0.83   11.17
  -7  -3   0   -3.14    6.03
   7  -3   0    7.06    7.72
   7   3   1    0.67    8.15
   7  -3  -1    0.18    6.05
   7  -3  -1   -7.22    7.08
  -7  -3   1   -0.95    5.02
  -7   3  -1   -1.62    5.03
  -7   3  -1  -19.98    9.69
  -7   3  -1    0.86    7.29
   7   3   1    8.88    8.07
   7   3   1    4.27    8.71
  -7  -3   1    0.98    5.70
   7  -3  -1    5.31    8.00
   7   3   2   -0.57    6.78
   7  -3  -2    7.85    9.05
   7   3   2    0.45    7.51
  -7   3  -2   -1.37    7.55
   7   3   2    2.03    6.15
   7  -3  -2   11.78    8.80
   7   3   3   15.17    9.01
   7   3   3   20.46    8.14
  -7  -4  -3    4.08    5.50
  -7  -4  -3    1.12    6.28
   7  -4   2   11.84    6.39
  -7  -4  -2    0.01    5.42
  -7   4   2   25.12    9.08
  -7  -4  -2   10.13    5.97
  -7   4   2    2.01    7.31
  -7  -4  -2    6.25    6.07
   7  -4   2    6.73    6.92
   7  -4   1   -5.13    6.59
   7   4  -1   -2.01   11.05
   7  -4   1   -2.46    6.68
  -7   4   1    6.37    6.20
  -7   4   1    6.94    8.24
  -7   4   1    1.41    6.81
  -7  -4  -1  -22.65   10.88
   7   4  -1    3.44   16.10
   7  -4   1    7.13    7.60
   7   4   0   13.53   10.27
   7  -4   0   24.60    7.92
  -7  -4   0    0.77    6.37
   7  -4   0   30.86    8.65
  -7   4   0   25.21    6.73
  -7   4   0   27.34    9.45
  -7   4   0   27.26    8.70
   7   4   0    8.48   13.15
  -7  -4   0   32.26    7.76
  -7  -4   0   31.32    8.48
   7  -4   0   23.21    9.26
   7   4   0  -13.93   15.16
   7   4   1   -2.30   18.39
   7  -4  -1    6.58    6.95
   7  -4  -1    4.88    7.71
  -7  -4   1   -0.07    5.41
  -7   4  -1    1.49    6.05
  -7   4  -1   16.63    9.67
  -7   4  -1   -3.08    7.54
  -7  -4   1    6.68    6.64
   7  -4  -1  -20.02   10.14
   7   4   1    3.24   13.24
   7   4   2   13.56    9.51
   7  -4  -2    6.65    7.99
  -7   4  -2    8.40    6.38
   7   4   2    8.10    8.46
  -7   4  -2    1.52    6.99
   7   4   2   -0.38    7.78
   7  -4  -2   18.00   11.24
   7   4   3   -8.41    8.55
   7   4   3   -3.63    8.24
  -7  -5  -3   -8.41    6.72
   7  -5   2    7.37    6.37
  -7  -5  -2   -2.16    5.90
  -7   5   2   -4.00    8.04
  -7   5   2    2.49    7.04
  -7  -5  -2   10.03    6.52
  -7  -5  -2    5.88    6.14
   7  -5   2    8.61    7.61
   7  -5   1    6.73    7.37
  -7  -5  -1   -0.18    6.10
   7  -5   1   -1.75    6.31
  -7   5   1    0.16    6.12
  -7   5   1    6.67    9.01
  -7   5   1   -0.75    6.93
  -7  -5  -1   -1.91    5.43
   7   5  -1    4.86   19.60
  -7  -5  -1   10.94    7.43
   7  -5   1    9.11    7.34
   7   5   0  -15.72   13.81
   7  -5   0   -4.55    6.69
  -7  -5   0    1.49    5.47
   7  -5   0   -0.88    6.95
  -7   5   0    7.18    6.74
  -7   5   0    8.33    8.76
  -7   5   0   -3.75    7.10
   7   5   0  -15.76   13.58
  -7  -5   0   11.90    6.42
  -7  -5   0    0.68    6.50
   7  -5   0   -0.85    7.97
   7   5   1  -33.76   14.48
   7   5   1    9.65   10.40
   7  -5  -1    3.53    7.25
   7  -5  -1  -12.06    9.13
  -7  -5   1   -0.28    5.59
  -7   5  -1   -2.85    6.89
  -7   5  -1    6.41   10.40
  -7   5  -1   10.83    7.55
   7   5   1    0.73   10.39
  -7  -5   1    4.66    6.23
   7  -5  -1    9.57   10.20
   7   5   2  -20.22   10.49
   7  -5  -2    0.73    7.94
   7  -5  -2    8.48    8.73
  -7   5  -2    3.84    7.06
   7   5   2   -8.01    9.87
   7   5   2   14.36   10.70
   7  -5  -2  -17.15   10.82
   7   5   3  -11.53    9.00
   7   5   3  -10.32    9.99
   7   5   3    7.53    7.54
  -7  -6  -3   -1.00    6.54
   7  -6   2   12.19    7.63
  -7   6   2   -0.64    7.37
  -7  -6  -2   -7.09    7.03
  -7  -6  -2    0.45    6.58
   7  -6   1   54.82   11.48
   7  -6   1   56.15   10.03
  -7   6   1   64.79   11.37
  -7  -6  -1   69.39   11.37
  -7  -6  -1   52.06   10.25
   7  -6   1   60.24   12.60
   7   6   0    6.52   13.60
   7  -6   0   -2.54    7.11
  -7  -6   0   -2.95    7.33
   7  -6   0   13.51    7.86
  -7   6   0    0.21    7.17
  -7   6   0   -7.67    7.68
   7   6   0   21.38   16.80
  -7  -6   0   10.50    6.40
  -7  -6   0   -7.40    7.19
   7  -6   0   -2.03    9.40
   7   6   1   28.34   14.12
   7  -6  -1   54.75   12.03
   7  -6  -1   46.15   11.10
   7   6   1   63.01   17.21
  -7   6  -1   59.23   11.54
  -7   6  -1   61.53   11.59
   7  -6  -1   40.74   11.79
   7   6   2  -12.59   12.09
   7  -6  -2  -16.87   10.94
   7  -6  -2   -3.79    8.20
   7   6   2    7.56   12.41
   7   6   3  -33.46   10.99
   7   6   3  -26.43   12.24
   8   0   0   11.01    9.37
  -8   0   0    7.59    7.21
  -8   0   0    0.62    6.54
   8   0   0    1.06    8.47
   8   0   1   -5.08    8.81
   8   0  -1   -0.87   12.23
  -8   0  -1   -6.00    8.08
  -8   0   1   -7.28    7.85
  -8   0  -1    6.13    6.82
  -8   0   1   17.22    7.49
   8   0   1    4.01    8.08
   8   0  -1   25.02   11.56
   8   0   2    4.22    7.79
  -8   0  -2    5.34    7.02
  -8   0  -2    2.53    6.20
   8   0   2   11.03    8.45
   8   0   3   38.48   10.57
   8   0   3   33.90   10.45
   8  -1   2   10.54    8.62
  -8  -1  -2   -7.17    6.67
  -8  -1  -2    5.32    6.29
   8  -1   2    7.03    7.74
   8  -1   1   -3.78    9.06
   8   1  -1   28.92   14.33
  -8  -1  -1    8.20    6.92
  -8   1   1   -4.07    7.66
  -8  -1  -1    3.08    6.47
  -8   1   1   -1.15    6.20
   8  -1   1    9.51    8.61
   8   1  -1   -9.71   10.51
   8   1   0    9.85   10.76
   8  -1   0   -0.19   10.02
  -8  -1   0   21.73    8.26
  -8   1   0    5.64    7.16
  -8   1   0   10.28    6.91
  -8  -1   0    5.58    6.48
   8  -1   0   24.06   10.40
   8   1   0    7.93    8.38
   8   1   1   -1.75    9.55
   8  -1  -1    6.11   11.24
  -8   1  -1   -4.79    7.09
  -8  -1   1    7.50    6.52
  -8   1  -1   -7.98    7.29
  -8  -1   1   13.09    6.93
   8   1   1    3.19    7.62
   8  -1  -1   -7.05   10.38
   8   1   2   -4.72    8.99
  -8   1  -2   19.70    8.77
  -8   1  -2    1.92    5.92
   8   1   2   13.14    8.55
   8   1   3   24.01   10.64
   8   1   3   11.72    9.02
  -8  -2  -2   -3.87    6.91
   8  -2   2   -0.47    7.73
   8   2  -1   10.17   13.36
  -8   2   1  -13.49    8.66
  -8  -2  -1    2.37    6.66
   8  -2   1    7.61    8.20
   8   2   0   -6.91   11.12
  -8  -2   0   -1.84    7.30
  -8   2   0    0.39    8.15
  -8  -2   0    2.91    6.98
   8  -2   0    5.27    9.21
   8   2   1    4.63   10.42
  -8   2  -1   11.86    8.75
  -8  -2   1    3.84    6.73
  -8  -2   1   -2.18    6.62
   8  -2  -1   -4.88    9.67
   8   2   2    9.52   10.44
  -8   2  -2   12.41    8.53
   8   2   3    3.35    9.27
   8  -3   2   12.95    7.56
   8   3  -1   16.17   15.07
  -8   3   1    3.83    8.06
  -8  -3  -1    7.19    6.57
   8  -3   1   10.03    9.14
   8   3   0   17.79   13.08
  -8   3   0   13.05    9.35
  -8  -3   0   14.69    7.83
   8  -3   0    7.99    8.75
   8   3   1    4.78    9.87
  -8   3  -1   -3.45    8.34
  -8  -3   1   14.84    7.66
   8  -3  -1    2.34    9.61
   8   3   2   -4.09    9.20
   8   3   3   29.18   11.91
  -8  -4  -3   -8.19    7.23
  -8  -4  -2   -6.89    7.01
   8  -4   2  -11.17   10.17
  -8  -4  -1   -0.27    7.56
  -8   4   1   -3.37    8.79
  -8  -4  -1    7.35    6.84
   8  -4   1   12.92    9.96
   8   4   0  -13.78   12.94
   8  -4   0  -30.03   10.91
  -8  -4   0   -0.39    6.68
  -8   4   0    2.51    9.56
   8   4   0   -4.68   16.24
  -8  -4   0   17.13    7.18
   8  -4   0  -13.92   11.09
   8   4   1  -12.95   10.74
   8  -4  -1   -0.42    8.09
   8   4   1   -0.29   11.62
   8  -4  -1   -0.06    9.55
   8   4   2   21.25   12.14
   8  -5   1    6.85    8.00
   8  -5   1    0.33    8.20
   8  -5   0   -8.20    8.95
   8  -5   0    3.72    8.46
  -8  -5   0    7.42    5.71
   8  -5  -1   -0.46    8.37
   8  -5  -1   -0.36    9.71
   8   5   1   -7.36   16.34
   8   5   2   11.65   15.37
   9  -1   1    7.76   12.82
   9  -1   0   16.86   16.31
   9   1   0  -13.81   13.09
   9   1   1    9.14   10.97
   0   0   0    0.00    0.00


TITL 1a in P2(1)2(1)2(1)
REM P2(1)2(1)2(1) (#19 in standard setting)
CELL 0.71073   7.073336   8.796481  10.042506  90.0000  90.0000  90.0000
ZERR    4.00   0.000642   0.000608   0.008232   0.0000   0.0000   0.0000
LATT -1
SYMM -x+1/2,-y, z+1/2
SYMM -x, y+1/2,-z+1/2
SYMM  x+1/2,-y+1/2,-z
SFAC C H N Cl
UNIT 16.00 8.00 20.00 4.00
TREF
HKLF 4
END
_computing_structure_solution     'SHELXT 2014/5 (Sheldrick, 2014)'
;
_shelx_hkl_checksum              72220
_olex2_submission_special_instructions 'No special instructions were received'
_oxdiff_exptl_absorpt_empirical_details
;
Empirical correction (ABSPACK) includes:
- Absorption correction using spherical harmonics
- Frame scaling
;
_oxdiff_exptl_absorpt_empirical_full_max 11.929
_oxdiff_exptl_absorpt_empirical_full_min 0.655
loop_
_space_group_symop_operation_xyz
'x, y, z'
'-x+1/2, -y, z+1/2'
'-x, y+1/2, -z+1/2'
'x+1/2, -y+1/2, -z'
loop_
_atom_site_label
_atom_site_type_symbol
_atom_site_fract_x
_atom_site_fract_y
_atom_site_fract_z
_atom_site_U_iso_or_equiv
_atom_site_adp_type
_atom_site_occupancy
_atom_site_site_symmetry_order
_atom_site_calc_flag
_atom_site_refinement_flags_posn
_atom_site_refinement_flags_adp
_atom_site_refinement_flags_occupancy
_atom_site_disorder_assembly
_atom_site_disorder_group
Cl1 Cl 0.29054(18) 0.33488(12) 0.3213(4) 0.081(2) Uani 1 1 d . . . . .
N4 N 0.3555(7) 0.7502(5) 0.4119(14) 0.043(8) Uani 1 1 d . . . . .
N5 N 0.3672(7) 0.5948(5) 0.4195(14) 0.063(8) Uani 1 1 d . . . . .
N3 N 0.4272(6) 0.8393(7) 0.5081(12) 0.065(8) Uani 1 1 d . . . . .
N2 N 0.3882(9) 0.9773(6) 0.462(2) 0.079(10) Uani 1 1 d . . . . .
N1 N 0.2949(9) 0.9803(6) 0.3498(19) 0.068(10) Uani 1 1 d . . . . .
C9 C 0.2762(7) 0.8344(6) 0.3160(15) 0.054(8) Uani 1 1 d . . . . .
C7 C 0.2015(9) 0.6034(7) 0.2076(17) 0.054(11) Uani 1 1 d . . . . .
H7 H 0.149998 0.547159 0.138065 0.064 Uiso 1 1 calc R U . . .
C6 C 0.2873(8) 0.5314(6) 0.3188(15) 0.046(9) Uani 1 1 d . . . . .
C8 C 0.1978(7) 0.7586(6) 0.2070(17) 0.051(8) Uani 1 1 d . U . . .
H8 H 0.144775 0.812038 0.136379 0.061 Uiso 1 1 calc R U . . .
loop_
_atom_site_aniso_label
_atom_site_aniso_U_11
_atom_site_aniso_U_22
_atom_site_aniso_U_33
_atom_site_aniso_U_23
_atom_site_aniso_U_13
_atom_site_aniso_U_12
Cl1 0.0809(9) 0.0409(7) 0.120(7) -0.0026(13) 0.0209(17) -0.0014(7)
N4 0.049(3) 0.046(2) 0.03(2) -0.008(5) -0.007(5) -0.001(2)
N5 0.052(3) 0.046(2) 0.09(3) 0.004(5) -0.006(6) 0.003(2)
N3 0.077(3) 0.069(3) 0.05(2) -0.012(6) -0.014(5) -0.010(3)
N2 0.078(5) 0.055(3) 0.10(3) -0.016(6) 0.004(9) -0.014(3)
N1 0.067(5) 0.049(3) 0.09(3) -0.008(5) 0.012(8) -0.001(3)
C9 0.048(3) 0.044(3) 0.07(3) -0.001(7) 0.001(6) 0.008(3)
C7 0.059(4) 0.067(3) 0.03(4) -0.008(6) 0.006(8) -0.010(3)
C6 0.043(3) 0.050(3) 0.05(3) 0.005(6) 0.008(9) 0.000(3)
C8 0.056(4) 0.069(4) 0.03(2) 0.014(6) -0.004(7) 0.007(3)
loop_
_atom_type_symbol
_atom_type_description
_atom_type_scat_dispersion_real
_atom_type_scat_dispersion_imag
_atom_type_scat_source
C C 0.0033 0.0016 'International Tables Vol C Tables 4.2.6.8 and 6.1.1.4'
H H 0.0000 0.0000 'International Tables Vol C Tables 4.2.6.8 and 6.1.1.4'
Cl Cl 0.1484 0.1585 'International Tables Vol C Tables 4.2.6.8 and 6.1.1.4'
N N 0.0061 0.0033 'International Tables Vol C Tables 4.2.6.8 and 6.1.1.4'
loop_
_geom_angle_atom_site_label_1
_geom_angle_atom_site_label_2
_geom_angle_atom_site_label_3
_geom_angle
_geom_angle_site_symmetry_1
_geom_angle_site_symmetry_3
_geom_angle_publ_flag
N3 N4 N5 121.2(12) . . ?
C9 N4 N5 128.1(12) . . ?
C9 N4 N3 110.7(6) . . ?
C6 N5 N4 111.2(12) . . ?
N2 N3 N4 101.7(11) . . ?
N1 N2 N3 115.2(10) . . ?
N2 N1 C9 104.5(9) . . ?
N4 C9 C8 117.8(7) . . ?
N1 C9 N4 107.9(11) . . ?
N1 C9 C8 134.2(11) . . ?
C6 C7 H7 121.4 . . ?
C8 C7 H7 121.4 . . ?
C8 C7 C6 117.2(13) . . ?
N5 C6 Cl1 114.6(9) . . ?
N5 C6 C7 127.9(8) . . ?
C7 C6 Cl1 117.6(9) . . ?
C9 C8 H8 121.1 . . ?
C7 C8 C9 117.8(12) . . ?
C7 C8 H8 121.1 . . ?
loop_
_geom_bond_atom_site_label_1
_geom_bond_atom_site_label_2
_geom_bond_distance
_geom_bond_site_symmetry_2
_geom_bond_publ_flag
Cl1 C6 1.729(6) . ?
N4 N5 1.372(6) . ?
N4 N3 1.343(14) . ?
N4 C9 1.338(15) . ?
N5 C6 1.286(18) . ?
N3 N2 1.330(11) . ?
N2 N1 1.30(3) . ?
N1 C9 1.335(9) . ?
C9 C8 1.397(17) . ?
C7 H7 0.9300 . ?
C7 C6 1.420(17) . ?
C7 C8 1.365(7) . ?
C8 H8 0.9300 . ?
loop_
_geom_torsion_atom_site_label_1
_geom_torsion_atom_site_label_2
_geom_torsion_atom_site_label_3
_geom_torsion_atom_site_label_4
_geom_torsion
_geom_torsion_site_symmetry_1
_geom_torsion_site_symmetry_2
_geom_torsion_site_symmetry_3
_geom_torsion_site_symmetry_4
_geom_torsion_publ_flag
N4 N5 C6 Cl1 -178.7(6) . . . . ?
N4 N5 C6 C7 2.3(16) . . . . ?
N4 N3 N2 N1 2.2(16) . . . . ?
N4 C9 C8 C7 2.1(13) . . . . ?
N5 N4 N3 N2 179.4(9) . . . . ?
N5 N4 C9 N1 179.2(9) . . . . ?
N5 N4 C9 C8 -1.6(15) . . . . ?
N3 N4 N5 C6 178.9(8) . . . . ?
N3 N4 C9 N1 -0.4(11) . . . . ?
N3 N4 C9 C8 178.8(8) . . . . ?
N3 N2 N1 C9 -2.5(18) . . . . ?
N2 N1 C9 N4 1.6(14) . . . . ?
N2 N1 C9 C8 -177.4(13) . . . . ?
N1 C9 C8 C7 -178.9(9) . . . . ?
C9 N4 N5 C6 -0.6(16) . . . . ?
C9 N4 N3 N2 -1.0(11) . . . . ?
C6 C7 C8 C9 -0.7(14) . . . . ?
C8 C7 C6 Cl1 179.3(7) . . . . ?
C8 C7 C6 N5 -1.7(17) . . . . ?
