#------------------------------------------------------------------------------
#$Date: 2021-12-13 11:51:15 +0200 (Mon, 13 Dec 2021) $
#$Revision: 271358 $
#$URL: file:///home/coder/svn-repositories/cod/cif/1/56/56/1565687.cif $
#------------------------------------------------------------------------------
#
# This file is available in the Crystallography Open Database (COD),
# http://www.crystallography.net/
#
# All data on this site have been placed in the public domain by the
# contributors.
#
data_1565687
loop_
_publ_author_name
'Jiang, Shengshi'
'Ni, Honghui'
'Liu, Fen'
'Gu, Shanshan'
'Yu, Ping'
'Gou, Yi'
_publ_section_title
;
 Binuclear Schiff base copper(II) complexes: Syntheses, crystal
 structures, HSA interaction and anti-cancer properties
;
_journal_name_full               'Inorganica Chimica Acta'
_journal_page_first              119186
_journal_paper_doi               10.1016/j.ica.2019.119186
_journal_volume                  499
_journal_year                    2020
_chemical_formula_moiety         'C29 H24 Cu2 F2 N5 O8, N O3'
_chemical_formula_sum            'C29 H24 Cu2 F2 N6 O11'
_chemical_formula_weight         797.62
_space_group_crystal_system      triclinic
_space_group_IT_number           2
_space_group_name_Hall           '-P 1'
_space_group_name_H-M_alt        'P -1'
_atom_sites_solution_hydrogens   geom
_atom_sites_solution_primary     direct
_atom_sites_solution_secondary   difmap
_cell_angle_alpha                66.540(10)
_cell_angle_beta                 66.118(10)
_cell_angle_gamma                66.799(9)
_cell_formula_units_Z            1
_cell_length_a                   9.253(7)
_cell_length_b                   9.338(7)
_cell_length_c                   11.101(9)
_cell_measurement_reflns_used    4986
_cell_measurement_temperature    296.15
_cell_measurement_theta_max      26.35
_cell_measurement_theta_min      2.47
_cell_volume                     773.0(10)
_computing_cell_refinement       'SAINT v8.27A (Bruker, 2012)'
_computing_data_reduction        'SAINT v8.27A (Bruker, 2012)'
_computing_molecular_graphics    'Olex2 (Dolomanov et al., 2009)'
_computing_publication_material  'Olex2 (Dolomanov et al., 2009)'
_computing_structure_refinement  'XL (Sheldrick, 2008)'
_computing_structure_solution    'XS (Sheldrick, 2008)'
_diffrn_ambient_temperature      296.15
_diffrn_measured_fraction_theta_full 0.996
_diffrn_measured_fraction_theta_max 0.996
_diffrn_measurement_device_type  'Bruker APEX-II CCD'
_diffrn_measurement_method       '\f and \w scans'
_diffrn_radiation_monochromator  graphite
_diffrn_radiation_type           MoK\a
_diffrn_radiation_wavelength     0.71073
_diffrn_reflns_av_R_equivalents  0.0242
_diffrn_reflns_av_unetI/netI     0.0287
_diffrn_reflns_limit_h_max       11
_diffrn_reflns_limit_h_min       -11
_diffrn_reflns_limit_k_max       11
_diffrn_reflns_limit_k_min       -11
_diffrn_reflns_limit_l_max       13
_diffrn_reflns_limit_l_min       -13
_diffrn_reflns_number            7939
_diffrn_reflns_theta_full        25.35
_diffrn_reflns_theta_max         25.35
_diffrn_reflns_theta_min         2.09
_diffrn_source                   'fine-focus sealed tube'
_diffrn_standards_number         0
_exptl_absorpt_coefficient_mu    1.460
_exptl_absorpt_correction_T_max  0.9047
_exptl_absorpt_correction_T_min  0.6366
_exptl_absorpt_correction_type   none
_exptl_crystal_colour            'dark blue'
_exptl_crystal_colour_modifier   dark
_exptl_crystal_colour_primary    blue
_exptl_crystal_density_diffrn    1.713
_exptl_crystal_density_meas      .
_exptl_crystal_density_method    'not measured'
_exptl_crystal_description       block
_exptl_crystal_F_000             404
_exptl_crystal_size_max          0.34
_exptl_crystal_size_mid          0.18
_exptl_crystal_size_min          0.07
_refine_diff_density_max         1.103
_refine_diff_density_min         -0.577
_refine_diff_density_rms         0.118
_refine_ls_extinction_method     none
_refine_ls_goodness_of_fit_ref   1.065
_refine_ls_hydrogen_treatment    mixed
_refine_ls_matrix_type           full
_refine_ls_number_parameters     275
_refine_ls_number_reflns         2823
_refine_ls_number_restraints     36
_refine_ls_restrained_S_all      1.096
_refine_ls_R_factor_all          0.0525
_refine_ls_R_factor_gt           0.0480
_refine_ls_shift/su_max          0.001
_refine_ls_shift/su_mean         0.000
_refine_ls_structure_factor_coef Fsqd
_refine_ls_weighting_details
'calc w=1/[\s^2^(Fo^2^)+(0.1152P)^2^+0.7821P] where P=(Fo^2^+2Fc^2^)/3'
_refine_ls_weighting_scheme      calc
_refine_ls_wR_factor_gt          0.1537
_refine_ls_wR_factor_ref         0.1598
_reflns_number_gt                2554
_reflns_number_total             2823
_reflns_threshold_expression     >2sigma(I)
_iucr_refine_instructions_details
;
TITL 732B in P-1 #2
REM reset to P-1 #2
CELL 0.71073 9.2532 9.3379 11.1012 66.54 66.118 66.799
ZERR 1 0.0071 0.0073 0.0085 0.01 0.01 0.009
LATT 1
SFAC C H Cu F N O
UNIT 29 24 2 2 6 11
DFIX 1.25 O8 N4
DFIX 1.25 O3 N3
DFIX 1.25 O6 N4
DFIX 0.85 0.01 O9 H9
DANG 1.930174 0.02 C15 H9
DANG 2.821844 0.02 Cu1 H9
ISOR 0.01 0.02 N4 O6 O7 O8 O9
 
L.S. 14
PLAN  5
SIZE 0.34 0.18 0.07
TEMP 23
BOND $H
HTAB 2
CONF
fmap 2
acta
SHEL 999 0.83
REM <olex2.extras>
REM <HklSrc "%.\\732B.hkl">
REM </olex2.extras>
 
WGHT    0.115200    0.782100
FVAR       0.14778
CU1   3    0.424308    0.460938    0.924883    11.00000    0.03762    0.03837 =
         0.04141   -0.02488   -0.02001    0.00216
F1    4   -0.243007    0.988393    1.239027    11.00000    0.04470    0.07029 =
         0.06675   -0.04868   -0.00770    0.00731
O1    6    0.473508    0.371041    0.774915    11.00000    0.04336    0.05028 =
         0.05422   -0.03475   -0.02791    0.00896
O2    6    0.360182    0.586379    1.050617    11.00000    0.03334    0.04664 =
         0.04896   -0.03221   -0.01944    0.00473
PART 1
O3    6   -0.067885    0.181021    1.428220    10.50000    0.02699    0.05583 =
         0.07584   -0.03270   -0.02106    0.01504
O4    6    0.079780    0.304579    1.281388    10.50000    0.03973    0.06797 =
         0.05329   -0.02630   -0.02232   -0.00223
O5    6    0.181470    0.055274    1.367844    10.50000    0.06146    0.06664 =
         0.13062   -0.02832   -0.04593    0.01262
PART 0
PART 2
O6    6    0.265628    0.067807    1.229331    10.50000    0.12605    0.09412 =
         0.13681    0.03357   -0.01703   -0.06249
O7    6    0.186975    0.324951    1.137797    10.50000    0.15584    0.12801 =
         0.21447    0.02235   -0.10625   -0.06054
O8    6    0.431031    0.216985    1.079173    10.50000    0.10585    0.11217 =
         0.09865   -0.02092   -0.02288   -0.04035
PART 0
PART 1
O9    6    0.355281    0.239211    1.065274    10.50000    0.07992    0.05064 =
         0.07311    0.00721   -0.01696   -0.03238
H9    2    0.259671    0.232304    1.120595    10.50000   -1.50000
PART 0
N1    5    0.225291    0.533675    0.767093    11.00000    0.04507    0.05151 =
         0.04507   -0.03096   -0.02491    0.00642
AFIX  43
H1    2    0.143458    0.574113    0.734072    11.00000   -1.20000
AFIX   0
N2    5    0.225105    0.576162    0.872255    11.00000    0.03916    0.03932 =
         0.03438   -0.02053   -0.01658   -0.00102
PART 1
N3    5    0.053469    0.181210    1.367422    10.50000    0.07042    0.04348 =
         0.03257   -0.01401   -0.03057   -0.01409
PART 0
PART 2
N4    5    0.297881    0.203639    1.149006    10.50000    0.09703    0.12835 =
         0.09714   -0.01226   -0.04957   -0.04937
PART 0
C1    1    0.519329    0.253319    0.566397    11.00000    0.04706    0.04539 =
         0.04465   -0.02431   -0.01662   -0.00425
AFIX  43
H1A   2    0.602060    0.214701    0.607955    11.00000   -1.20000
AFIX   0
C2    1    0.539273    0.195245    0.462103    11.00000    0.06523    0.05400 =
         0.05424   -0.03513   -0.01669   -0.00644
AFIX  43
H2    2    0.635784    0.117550    0.434082    11.00000   -1.20000
AFIX   0
C3    1    0.419447    0.250330    0.399888    11.00000    0.07973    0.05747 =
         0.04559   -0.03012   -0.01849   -0.02073
AFIX  43
H3    2    0.434452    0.210460    0.329843    11.00000   -1.20000
AFIX   0
C4    1    0.275231    0.365896    0.441315    11.00000    0.06913    0.06996 =
         0.05451   -0.02679   -0.03227   -0.01680
AFIX  43
H4    2    0.192852    0.403676    0.399524    11.00000   -1.20000
AFIX   0
C5    1    0.254540    0.425080    0.546027    11.00000    0.04940    0.05306 =
         0.05177   -0.02885   -0.02355   -0.00380
AFIX  43
H5    2    0.158125    0.502975    0.573856    11.00000   -1.20000
AFIX   0
C6    1    0.376124    0.368897    0.608697    11.00000    0.04505    0.03011 =
         0.03114   -0.01144   -0.01212   -0.01175
C7    1    0.361998    0.424965    0.720086    11.00000    0.03523    0.03046 =
         0.03349   -0.01207   -0.01207   -0.00820
C8    1    0.096943    0.674884    0.926884    11.00000    0.04017    0.04797 =
         0.04810   -0.02655   -0.02217    0.00486
AFIX  43
H8    2    0.007056    0.715441    0.893283    11.00000   -1.20000
AFIX   0
C9    1    0.083539    0.727287    1.038098    11.00000    0.03736    0.03293 =
         0.03420   -0.01543   -0.01126   -0.00399
C10   1   -0.071394    0.830324    1.089246    11.00000    0.03666    0.04287 =
         0.04273   -0.02148   -0.01237   -0.00150
AFIX  43
H10   2   -0.156604    0.858706    1.052726    11.00000   -1.20000
AFIX   0
C11   1   -0.094195    0.887099    1.191879    11.00000    0.03686    0.03929 =
         0.04107   -0.02112   -0.00551   -0.00122
C12   1    0.027667    0.849882    1.247674    11.00000    0.05376    0.05277 =
         0.04668   -0.03299   -0.01434   -0.00109
AFIX  43
H12   2    0.009343    0.891781    1.317470    11.00000   -1.20000
AFIX   0
C13   1    0.177665    0.749273    1.198329    11.00000    0.04486    0.05391 =
         0.05177   -0.03281   -0.02128    0.00226
AFIX  43
H13   2    0.260635    0.722742    1.236823    11.00000   -1.20000
AFIX   0
C14   1    0.210972    0.685826    1.094506    11.00000    0.03727    0.03123 =
         0.03389   -0.01447   -0.01139   -0.00408
PART 1
C15   1    0.463701    0.082157    1.058517    10.50000    0.13461    0.03043 =
         0.11167    0.00321   -0.06022   -0.02363
AFIX 137
H15A  2    0.548849    0.091610    0.972297    10.50000   -1.50000
H15B  2    0.403161    0.014162    1.066321    10.50000   -1.50000
H15C  2    0.512138    0.034885    1.132381    10.50000   -1.50000
HKLF 4
 
REM  732B in P-1 #2
REM R1 =  0.0480 for   2554 Fo > 4sig(Fo)  and  0.0525 for all   2823 data
REM    275 parameters refined using     36 restraints
 
END  
     
WGHT      0.1152      0.7816 
REM Highest difference peak  1.103,  deepest hole -0.577,  1-sigma level  0.118
Q1    1  -0.0344  0.1916  1.3813  11.00000  0.05    1.10
Q2    1  -0.0055  0.1406  1.4311  11.00000  0.05    0.98
Q3    1   0.3652  0.1170  1.1127  11.00000  0.05    0.82
Q4    1   0.3437  0.5188  0.8775  11.00000  0.05    0.50
Q5    1   0.0493  0.3251  1.2628  11.00000  0.05    0.41

  REM The information below was added by Olex2.
  REM
  REM R1 = 0.0480 for 2554 Fo > 4sig(Fo) and 0.0525 for all 8678 data
  REM n/a parameters refined using n/a restraints
  REM Highest difference peak 1.10, deepest hole -0.58
  REM Mean Shift 0, Max Shift 0.001.
  
  REM +++ Tabular Listing of Refinement Information +++
  REM R1_all = 0.0525
  REM R1_gt = 0.0480
  REM wR_ref = 0.1598
  REM GOOF = 1.065
  REM Shift_max = 0.001
  REM Shift_mean = 0
  REM Reflections_all = 8678
  REM Reflections_gt = 2554
  REM Parameters = n/a
  REM Hole = -0.58
  REM Peak = 1.10
  REM Flack = n/a
  
  
;
_cod_data_source_file            ICA-2020-499-119186.cif
_cod_data_source_block           732b
_cod_database_code               1565687
_olex2_refinement_description
;
1. Fixed Uiso
 At 1.2 times of:
  All C(H) groups, All N(H) groups
 At 1.5 times of:
  All C(H,H,H) groups, All O(H) groups
2. Restrained distances
 O8-N4
 1.25 with sigma of 0.02
 O3-N3
 1.25 with sigma of 0.02
 O6-N4
 1.25 with sigma of 0.02
 O9-H9
 0.85 with sigma of 0.01
 C15-H9
 1.930174 with sigma of 0.02
 Cu1-H9
 2.821844 with sigma of 0.02
3. Uiso/Uaniso restraints and constraints
Uanis(N4) \\sim Ueq, Uanis(O6) \\sim Ueq, Uanis(O7) \\sim Ueq, Uanis(O8) \\sim
Ueq, Uanis(O9) \\sim Ueq: with sigma of 0.01 and sigma for terminal atoms of
0.02
4. Others
 Fixed Sof: O3(0.5) O4(0.5) O5(0.5) O6(0.5) O7(0.5) O8(0.5) O9(0.5) H9(0.5)
 N3(0.5) N4(0.5) C15(0.5) H15A(0.5) H15B(0.5) H15C(0.5)
5.a Aromatic/amide H refined with riding coordinates:
 N1(H1), C1(H1A), C2(H2), C3(H3), C4(H4), C5(H5), C8(H8), C10(H10), C12(H12),
 C13(H13)
5.b Idealised Me refined as rotating group:
 C15(H15A,H15B,H15C)
;
loop_
_space_group_symop_id
_space_group_symop_operation_xyz
1 'x, y, z'
2 '-x, -y, -z'
loop_
_atom_site_label
_atom_site_type_symbol
_atom_site_fract_x
_atom_site_fract_y
_atom_site_fract_z
_atom_site_U_iso_or_equiv
_atom_site_adp_type
_atom_site_occupancy
_atom_site_calc_flag
_atom_site_disorder_assembly
_atom_site_disorder_group
_atom_site_refinement_flags_posn
_atom_site_refinement_flags_adp
Cu1 Cu 0.42431(5) 0.46094(5) 0.92488(4) 0.0358(2) Uani 1 d . . D .
F1 F -0.2430(3) 0.9884(4) 1.2390(3) 0.0615(8) Uani 1 d . . . .
O1 O 0.4735(4) 0.3710(4) 0.7749(3) 0.0451(7) Uani 1 d B . . .
O2 O 0.3602(3) 0.5864(4) 1.0506(3) 0.0394(6) Uani 1 d . . . .
O3 O -0.0679(8) 0.1810(8) 1.4282(8) 0.0550(17) Uani 0.50 d A 1 D .
O4 O 0.0798(8) 0.3046(9) 1.2814(7) 0.0518(16) Uani 0.50 d A 1 . .
O5 O 0.1815(11) 0.0553(11) 1.3678(12) 0.090(3) Uani 0.50 d A 1 . .
O6 O 0.2656(18) 0.0678(15) 1.2293(15) 0.139(5) Uani 0.50 d B 2 D U
O7 O 0.187(2) 0.325(2) 1.138(2) 0.165(7) Uani 0.50 d B 2 . U
O8 O 0.4310(18) 0.217(2) 1.0792(15) 0.108(5) Uani 0.50 d B 2 D U
O9 O 0.3553(15) 0.2392(13) 1.0653(12) 0.074(3) Uani 0.50 d B 1 D U
H9 H 0.260(8) 0.232(3) 1.121(17) 0.110 Uiso 0.50 d C 1 DR .
N1 N 0.2253(5) 0.5337(5) 0.7671(4) 0.0439(8) Uani 1 d . . . .
H1 H 0.1435 0.5741 0.7341 0.053 Uiso 1 calc B . R .
N2 N 0.2251(4) 0.5762(4) 0.8723(3) 0.0355(7) Uani 1 d B . . .
N3 N 0.0535(11) 0.1812(9) 1.3674(7) 0.0429(17) Uani 0.50 d A 1 D .
N4 N 0.2979(18) 0.2036(19) 1.1490(17) 0.101(5) Uani 0.50 d B 2 D U
C1 C 0.5193(6) 0.2533(5) 0.5664(4) 0.0435(9) Uani 1 d B . . .
H1A H 0.6021 0.2147 0.6080 0.052 Uiso 1 calc . . R .
C2 C 0.5393(7) 0.1952(6) 0.4621(5) 0.0548(12) Uani 1 d . . . .
H2 H 0.6358 0.1176 0.4341 0.066 Uiso 1 calc . . R .
C3 C 0.4194(7) 0.2503(6) 0.3999(5) 0.0550(12) Uani 1 d . . . .
H3 H 0.4345 0.2105 0.3298 0.066 Uiso 1 calc . . R .
C4 C 0.2752(7) 0.3659(7) 0.4413(5) 0.0573(13) Uani 1 d . . . .
H4 H 0.1929 0.4037 0.3995 0.069 Uiso 1 calc . . R .
C5 C 0.2545(6) 0.4251(6) 0.5460(5) 0.0471(10) Uani 1 d B . . .
H5 H 0.1581 0.5030 0.5739 0.057 Uiso 1 calc . . R .
C6 C 0.3761(5) 0.3689(4) 0.6087(4) 0.0337(8) Uani 1 d . . . .
C7 C 0.3620(5) 0.4250(4) 0.7201(4) 0.0317(8) Uani 1 d B . . .
C8 C 0.0969(5) 0.6749(6) 0.9269(5) 0.0436(10) Uani 1 d . . . .
H8 H 0.0071 0.7154 0.8933 0.052 Uiso 1 calc B . R .
C9 C 0.0835(5) 0.7273(5) 1.0381(4) 0.0345(8) Uani 1 d B . . .
C10 C -0.0714(5) 0.8303(5) 1.0892(4) 0.0405(9) Uani 1 d . . . .
H10 H -0.1566 0.8587 1.0527 0.049 Uiso 1 calc B . R .
C11 C -0.0942(5) 0.8871(5) 1.1919(4) 0.0410(9) Uani 1 d B . . .
C12 C 0.0277(6) 0.8499(6) 1.2477(5) 0.0494(11) Uani 1 d . . . .
H12 H 0.0093 0.8918 1.3175 0.059 Uiso 1 calc B . R .
C13 C 0.1777(6) 0.7493(6) 1.1983(5) 0.0470(10) Uani 1 d B . . .
H13 H 0.2606 0.7227 1.2368 0.056 Uiso 1 calc . . R .
C14 C 0.2110(5) 0.6858(5) 1.0945(4) 0.0339(8) Uani 1 d . . . .
C15 C 0.464(2) 0.0822(13) 1.0585(16) 0.092(5) Uani 0.50 d B 1 D .
H15A H 0.5488 0.0916 0.9723 0.137 Uiso 0.50 calc B 1 GR .
H15B H 0.4032 0.0142 1.0663 0.137 Uiso 0.50 calc B 1 GR .
H15C H 0.5121 0.0349 1.1324 0.137 Uiso 0.50 calc B 1 GR .
loop_
_atom_site_aniso_label
_atom_site_aniso_U_11
_atom_site_aniso_U_22
_atom_site_aniso_U_33
_atom_site_aniso_U_23
_atom_site_aniso_U_13
_atom_site_aniso_U_12
Cu1 0.0376(3) 0.0384(3) 0.0414(3) -0.0249(2) -0.0200(2) 0.0022(2)
F1 0.0447(14) 0.0703(19) 0.0667(17) -0.0487(15) -0.0077(13) 0.0073(13)
O1 0.0434(16) 0.0503(17) 0.0542(17) -0.0347(14) -0.0279(14) 0.0090(13)
O2 0.0333(14) 0.0466(16) 0.0490(16) -0.0322(13) -0.0194(12) 0.0047(12)
O3 0.027(3) 0.056(4) 0.076(4) -0.033(3) -0.021(3) 0.015(3)
O4 0.040(3) 0.068(4) 0.053(4) -0.026(4) -0.022(3) -0.002(3)
O5 0.061(5) 0.067(5) 0.131(8) -0.028(6) -0.046(6) 0.013(4)
O6 0.126(9) 0.094(8) 0.137(9) 0.034(7) -0.017(8) -0.062(7)
O7 0.156(12) 0.128(11) 0.214(15) 0.022(11) -0.106(12) -0.061(10)
O8 0.106(8) 0.112(8) 0.099(7) -0.021(6) -0.023(6) -0.040(7)
O9 0.080(6) 0.051(4) 0.073(6) 0.007(4) -0.017(5) -0.032(5)
N1 0.0451(19) 0.052(2) 0.0451(19) -0.0310(16) -0.0249(16) 0.0064(16)
N2 0.0392(17) 0.0393(17) 0.0344(16) -0.0205(14) -0.0166(14) -0.0010(14)
N3 0.070(6) 0.043(4) 0.033(3) -0.014(3) -0.031(4) -0.014(4)
N4 0.097(8) 0.128(9) 0.097(8) -0.012(7) -0.050(6) -0.049(7)
C1 0.047(2) 0.045(2) 0.045(2) -0.0243(18) -0.0166(18) -0.0042(18)
C2 0.065(3) 0.054(3) 0.054(3) -0.035(2) -0.017(2) -0.006(2)
C3 0.080(3) 0.057(3) 0.046(2) -0.030(2) -0.018(2) -0.021(3)
C4 0.069(3) 0.070(3) 0.055(3) -0.027(2) -0.032(2) -0.017(3)
C5 0.049(2) 0.053(3) 0.052(2) -0.029(2) -0.024(2) -0.004(2)
C6 0.045(2) 0.0301(18) 0.0311(18) -0.0114(15) -0.0121(16) -0.0117(16)
C7 0.0352(18) 0.0305(18) 0.0335(18) -0.0121(15) -0.0121(15) -0.0082(15)
C8 0.040(2) 0.048(2) 0.048(2) -0.0266(19) -0.0222(18) 0.0049(18)
C9 0.037(2) 0.0329(19) 0.0342(18) -0.0154(15) -0.0113(15) -0.0040(16)
C10 0.037(2) 0.043(2) 0.043(2) -0.0215(18) -0.0124(17) -0.0015(17)
C11 0.037(2) 0.039(2) 0.041(2) -0.0211(17) -0.0055(17) -0.0012(16)
C12 0.054(3) 0.053(3) 0.047(2) -0.033(2) -0.014(2) -0.001(2)
C13 0.045(2) 0.054(3) 0.052(2) -0.033(2) -0.0213(19) 0.0023(19)
C14 0.0373(19) 0.0312(18) 0.0339(18) -0.0145(15) -0.0114(15) -0.0041(15)
C15 0.135(13) 0.030(5) 0.112(11) 0.003(6) -0.060(10) -0.024(7)
loop_
_atom_type_symbol
_atom_type_description
_atom_type_scat_dispersion_real
_atom_type_scat_dispersion_imag
_atom_type_scat_source
C C 0.0033 0.0016 'International Tables Vol C Tables 4.2.6.8 and 6.1.1.4'
H H 0.0000 0.0000 'International Tables Vol C Tables 4.2.6.8 and 6.1.1.4'
Cu Cu 0.3201 1.2651 'International Tables Vol C Tables 4.2.6.8 and 6.1.1.4'
F F 0.0171 0.0103 'International Tables Vol C Tables 4.2.6.8 and 6.1.1.4'
N N 0.0061 0.0033 'International Tables Vol C Tables 4.2.6.8 and 6.1.1.4'
O O 0.0106 0.0060 'International Tables Vol C Tables 4.2.6.8 and 6.1.1.4'
loop_
_geom_angle_atom_site_label_1
_geom_angle_atom_site_label_2
_geom_angle_atom_site_label_3
_geom_angle
_geom_angle_site_symmetry_1
_geom_angle_site_symmetry_3
O1 Cu1 Cu1 143.92(10) . 2_667
O1 Cu1 O2 104.98(12) . 2_667
O1 Cu1 O8 91.7(5) . .
O1 Cu1 O9 86.5(4) . .
O2 Cu1 Cu1 39.70(8) 2_667 2_667
O2 Cu1 Cu1 40.58(9) . 2_667
O2 Cu1 O1 169.68(12) . .
O2 Cu1 O2 80.29(12) . 2_667
O2 Cu1 O8 81.7(4) 2_667 .
O2 Cu1 O8 97.9(4) . .
O2 Cu1 O9 101.4(4) . .
O2 Cu1 O9 100.1(3) 2_667 .
O8 Cu1 Cu1 89.6(4) . 2_667
O9 Cu1 Cu1 104.2(3) . 2_667
O9 Cu1 O8 18.5(4) . .
N2 Cu1 Cu1 130.51(11) . 2_667
N2 Cu1 O1 80.14(13) . .
N2 Cu1 O2 92.14(13) . .
N2 Cu1 O2 161.34(15) . 2_667
N2 Cu1 O8 116.4(4) . .
N2 Cu1 O9 98.1(3) . .
C7 O1 Cu1 114.2(3) . .
Cu1 O2 Cu1 99.71(12) . 2_667
C14 O2 Cu1 132.8(2) . 2_667
C14 O2 Cu1 127.3(2) . .
N4 O7 H9 22(10) . .
Cu1 O8 H9 97(3) . .
N4 O8 Cu1 112.5(14) . .
N4 O8 H9 19(7) . .
Cu1 O9 H9 127(2) . .
C15 O9 Cu1 121.6(9) . .
C15 O9 H9 111(2) . .
N2 N1 H1 122.5 . .
C7 N1 H1 122.5 . .
C7 N1 N2 114.9(3) . .
N1 N2 Cu1 112.3(2) . .
C8 N2 Cu1 128.4(3) . .
C8 N2 N1 119.2(3) . .
O3 N3 O4 119.2(9) . .
O3 N3 O5 125.9(9) . .
O4 N3 O5 114.7(9) . .
O6 N4 H9 109(7) . .
O7 N4 O6 119.1(16) . .
O7 N4 H9 43(10) . .
O8 N4 O6 124.7(18) . .
O8 N4 O7 116.1(17) . .
O8 N4 H9 109(6) . .
C2 C1 H1A 120.1 . .
C6 C1 H1A 120.1 . .
C6 C1 C2 119.9(4) . .
C1 C2 H2 119.5 . .
C3 C2 C1 120.9(5) . .
C3 C2 H2 119.5 . .
C2 C3 H3 120.1 . .
C2 C3 C4 119.8(4) . .
C4 C3 H3 120.1 . .
C3 C4 H4 120.2 . .
C3 C4 C5 119.5(5) . .
C5 C4 H4 120.2 . .
C4 C5 H5 119.8 . .
C6 C5 C4 120.4(4) . .
C6 C5 H5 119.8 . .
C1 C6 C7 117.3(4) . .
C5 C6 C1 119.4(4) . .
C5 C6 C7 123.3(4) . .
O1 C7 N1 118.4(3) . .
O1 C7 C6 121.7(3) . .
N1 C7 C6 120.0(3) . .
N2 C8 H8 118.2 . .
N2 C8 C9 123.7(4) . .
C9 C8 H8 118.2 . .
C10 C9 C8 115.1(4) . .
C14 C9 C8 125.3(4) . .
C14 C9 C10 119.6(4) . .
C9 C10 H10 120.5 . .
C11 C10 C9 119.1(4) . .
C11 C10 H10 120.5 . .
F1 C11 C12 118.8(4) . .
C10 C11 F1 118.7(4) . .
C10 C11 C12 122.5(4) . .
C11 C12 H12 120.8 . .
C11 C12 C13 118.3(4) . .
C13 C12 H12 120.8 . .
C12 C13 H13 118.5 . .
C12 C13 C14 122.9(4) . .
C14 C13 H13 118.5 . .
O2 C14 C9 121.9(3) . .
O2 C14 C13 120.5(4) . .
C13 C14 C9 117.5(4) . .
loop_
_geom_bond_atom_site_label_1
_geom_bond_atom_site_label_2
_geom_bond_distance
_geom_bond_site_symmetry_2
Cu1 Cu1 2.9902(16) 2_667
Cu1 O1 1.970(3) .
Cu1 O2 1.974(3) 2_667
Cu1 O2 1.938(3) .
Cu1 O8 2.235(17) .
Cu1 O9 2.189(10) .
Cu1 N2 1.925(3) .
F1 C11 1.360(5) .
O1 C7 1.243(5) .
O2 Cu1 1.974(3) 2_667
O2 C14 1.346(5) .
O3 N3 1.050(9) .
O4 N3 1.206(10) .
O5 N3 1.299(11) .
O6 N4 1.294(15) .
O7 H9 0.90(5) .
O7 N4 1.19(2) .
O8 H9 1.42(9) .
O8 N4 1.185(15) .
O9 H9 0.859(10) .
O9 C15 1.425(18) .
N1 H1 0.8600 .
N1 N2 1.374(5) .
N1 C7 1.334(5) .
N2 C8 1.275(6) .
N4 H9 0.49(19) .
C1 H1A 0.9300 .
C1 C2 1.384(6) .
C1 C6 1.383(6) .
C2 H2 0.9300 .
C2 C3 1.363(7) .
C3 H3 0.9300 .
C3 C4 1.386(8) .
C4 H4 0.9300 .
C4 C5 1.393(7) .
C5 H5 0.9300 .
C5 C6 1.380(6) .
C6 C7 1.467(5) .
C8 H8 0.9300 .
C8 C9 1.445(6) .
C9 C10 1.412(5) .
C9 C14 1.406(6) .
C10 H10 0.9300 .
C10 C11 1.350(6) .
C11 C12 1.364(7) .
C12 H12 0.9300 .
C12 C13 1.370(6) .
C13 H13 0.9300 .
C13 C14 1.374(6) .
C15 H15A 0.9600 .
C15 H15B 0.9600 .
C15 H15C 0.9600 .
loop_
_geom_torsion_atom_site_label_1
_geom_torsion_atom_site_label_2
_geom_torsion_atom_site_label_3
_geom_torsion_atom_site_label_4
_geom_torsion
_geom_torsion_site_symmetry_1
_geom_torsion_site_symmetry_2
_geom_torsion_site_symmetry_3
_geom_torsion_site_symmetry_4
Cu1 Cu1 O1 C7 -152.1(2) 2_667 . . .
Cu1 Cu1 O2 C14 175.0(4) 2_667 . . .
Cu1 Cu1 O8 N4 111.6(14) 2_667 . . .
Cu1 Cu1 O9 C15 -92.0(11) 2_667 . . .
Cu1 Cu1 N2 N1 159.3(2) 2_667 . . .
Cu1 Cu1 N2 C8 -24.9(5) 2_667 . . .
Cu1 O1 C7 N1 -0.2(5) . . . .
Cu1 O1 C7 C6 -178.7(3) . . . .
Cu1 O2 C14 C9 -8.3(5) . . . .
Cu1 O2 C14 C9 165.0(3) 2_667 . . .
Cu1 O2 C14 C13 170.9(3) . . . .
Cu1 O2 C14 C13 -15.8(6) 2_667 . . .
Cu1 O8 N4 O6 167.6(15) . . . .
Cu1 O8 N4 O7 -9(2) . . . .
Cu1 N2 C8 C9 4.3(7) . . . .
F1 C11 C12 C13 -179.2(4) . . . .
O1 Cu1 O2 Cu1 -121.6(6) . . . 2_667
O1 Cu1 O2 C14 53.5(8) . . . .
O1 Cu1 O8 N4 -104.5(14) . . . .
O1 Cu1 O9 C15 53.0(11) . . . .
O1 Cu1 N2 N1 0.8(3) . . . .
O1 Cu1 N2 C8 176.6(4) . . . .
O2 Cu1 O1 C7 -162.0(3) 2_667 . . .
O2 Cu1 O1 C7 -42.3(8) . . . .
O2 Cu1 O2 Cu1 0.0 2_667 . . 2_667
O2 Cu1 O2 C14 175.0(4) 2_667 . . .
O2 Cu1 O8 N4 150.6(15) 2_667 . . .
O2 Cu1 O8 N4 71.7(14) . . . .
O2 Cu1 O9 C15 -133.6(11) . . . .
O2 Cu1 O9 C15 -51.6(12) 2_667 . . .
O2 Cu1 N2 N1 108.6(4) 2_667 . . .
O2 Cu1 N2 N1 173.9(3) . . . .
O2 Cu1 N2 C8 -75.6(6) 2_667 . . .
O2 Cu1 N2 C8 -10.3(4) . . . .
O8 Cu1 O1 C7 116.2(5) . . . .
O8 Cu1 O2 Cu1 80.1(4) . . . 2_667
O8 Cu1 O2 C14 -104.9(5) . . . .
O8 Cu1 O9 C15 -52.9(19) . . . .
O8 Cu1 N2 N1 -86.1(6) . . . .
O8 Cu1 N2 C8 89.7(6) . . . .
O9 Cu1 O1 C7 98.5(4) . . . .
O9 Cu1 O2 Cu1 98.5(3) . . . 2_667
O9 Cu1 O2 C14 -86.5(5) . . . .
O9 Cu1 O8 N4 -30.7(16) . . . .
O9 Cu1 N2 N1 -84.2(5) . . . .
O9 Cu1 N2 C8 91.6(5) . . . .
N1 N2 C8 C9 179.9(4) . . . .
N2 Cu1 O1 C7 -0.3(3) . . . .
N2 Cu1 O2 Cu1 -162.83(15) . . . 2_667
N2 Cu1 O2 C14 12.2(3) . . . .
N2 Cu1 O8 N4 -24.7(16) . . . .
N2 Cu1 O9 C15 132.5(11) . . . .
N2 N1 C7 O1 1.0(6) . . . .
N2 N1 C7 C6 179.4(3) . . . .
N2 C8 C9 C10 -176.8(4) . . . .
N2 C8 C9 C14 4.3(7) . . . .
C1 C2 C3 C4 -0.1(8) . . . .
C1 C6 C7 O1 -0.2(6) . . . .
C1 C6 C7 N1 -178.6(4) . . . .
C2 C1 C6 C5 0.0(6) . . . .
C2 C1 C6 C7 179.7(4) . . . .
C2 C3 C4 C5 0.2(8) . . . .
C3 C4 C5 C6 -0.3(8) . . . .
C4 C5 C6 C1 0.2(7) . . . .
C4 C5 C6 C7 -179.5(4) . . . .
C5 C6 C7 O1 179.5(4) . . . .
C5 C6 C7 N1 1.1(6) . . . .
C6 C1 C2 C3 0.0(7) . . . .
C7 N1 N2 Cu1 -1.2(5) . . . .
C7 N1 N2 C8 -177.4(4) . . . .
C8 C9 C10 C11 -179.0(4) . . . .
C8 C9 C14 O2 -2.0(6) . . . .
C8 C9 C14 C13 178.7(4) . . . .
C9 C10 C11 F1 179.0(4) . . . .
C9 C10 C11 C12 0.6(7) . . . .
C10 C9 C14 O2 179.1(4) . . . .
C10 C9 C14 C13 -0.2(6) . . . .
C10 C11 C12 C13 -0.9(7) . . . .
C11 C12 C13 C14 0.7(8) . . . .
C12 C13 C14 O2 -179.4(4) . . . .
C12 C13 C14 C9 -0.2(7) . . . .
C14 C9 C10 C11 -0.1(6) . . . .
loop_
_refln_index_h
_refln_index_k
_refln_index_l
_refln_F_squared_meas
_refln_F_squared_sigma
-1 0 0 56.48 2.02
1 0 0 57.48 1.92
-2 0 0 15.24 0.54
2 0 0 15.09 0.52
-4 0 0 0.06 0.02
4 0 0 0.07 0.02
4 0 0 0.1 0.02
-5 0 0 10.92 0.4
5 0 0 10.69 0.38
5 0 0 10.9 0.39
-6 0 0 32.37 1.15
6 0 0 31.8 1.06
6 0 0 31.68 1.1
-7 0 0 0.39 0.08
7 0 0 0.46 0.07
7 0 0 0.44 0.05
-8 0 0 1.48 0.14
8 0 0 1.07 0.1
-9 0 0 0.54 0.12
9 0 0 0.6 0.1
-10 0 0 -0.08 0.1
10 0 0 -0.1 0.09
9 -1 0 0.86 0.11
-9 1 0 0.78 0.12
8 -1 0 2.83 0.17
-8 1 0 2.88 0.19
7 -1 0 4.33 0.19
7 -1 0 4.43 0.2
-7 1 0 4.58 0.23
6 -1 0 2.91 0.13
6 -1 0 2.79 0.14
-6 1 0 2.64 0.13
-6 1 0 2.81 0.16
5 -1 0 10.02 0.36
5 -1 0 10.08 0.37
-5 1 0 10.2 0.39
-5 1 0 10.48 0.38
4 -1 0 5.7 0.21
4 -1 0 5.69 0.21
-4 1 0 5.6 0.22
-4 1 0 5.64 0.23
3 -1 0 8.89 0.32
3 -1 0 9.7 0.33
-3 1 0 8.87 0.35
-3 1 0 10.24 0.35
2 -1 0 38.84 1.24
2 -1 0 38.61 1.3
-2 1 0 38.49 1.34
-2 1 0 37.54 1.37
1 -1 0 204.41 6.86
1 -1 0 213.07 6.56
-1 1 0 203.97 7.07
-1 1 0 196.84 7.26
0 -1 0 139.51 4.8
0 1 0 140.79 4.48
0 1 0 136.48 4.94
-1 -1 0 84.09 2.75
-1 -1 0 79.21 2.83
1 1 0 80.95 2.91
1 1 0 81.94 2.63
-2 -1 0 63.03 2.06
-2 -1 0 60.79 2.12
2 1 0 59.79 1.97
-3 -1 0 4.85 0.18
-3 -1 0 4.46 0.18
3 1 0 4.57 0.17
3 1 0 4.55 0.16
-4 -1 0 8.96 0.34
-4 -1 0 9.52 0.35
4 1 0 9.27 0.33
4 1 0 9.42 0.32
-5 -1 0 24.82 0.87
-5 -1 0 24.79 0.88
5 1 0 24.93 0.84
5 1 0 22.85 0.81
-6 -1 0 13.51 0.5
6 1 0 13.21 0.47
-7 -1 0 0.43 0.07
-7 -1 0 0.61 0.06
7 1 0 0.59 0.06
7 1 0 0.59 0.07
-8 -1 0 0.05 0.07
8 1 0 0.05 0.06
-9 -1 0 0.33 0.09
9 1 0 0.48 0.09
-10 -1 0 -0.08 0.1
10 1 0 -0.17 0.08
9 -2 0 0.54 0.1
-9 2 0 0.41 0.12
8 -2 0 2.3 0.16
-8 2 0 2.06 0.19
7 -2 0 2.36 0.15
7 -2 0 2.47 0.14
-7 2 0 2.44 0.17
6 -2 0 2.45 0.13
6 -2 0 2.36 0.13
-6 2 0 2.15 0.12
-6 2 0 2.18 0.15
5 -2 0 5.01 0.2
5 -2 0 4.89 0.19
-5 2 0 4.74 0.22
-5 2 0 4.72 0.2
4 -2 0 6.95 0.25
4 -2 0 7 0.26
-4 2 0 6.91 0.28
-4 2 0 6.62 0.27
3 -2 0 12.81 0.42
3 -2 0 12.32 0.43
-3 2 0 12.73 0.46
-3 2 0 11.59 0.46
2 -2 0 2.19 0.1
2 -2 0 2.39 0.09
-2 2 0 2.36 0.1
1 -2 0 39.17 1.23
1 -2 0 38.7 1.29
-1 2 0 36.66 1.33
-1 2 0 37.73 1.36
0 -2 0 1.01 0.05
0 2 0 1.18 0.06
0 2 0 1.18 0.04
-1 -2 0 80.05 2.63
-1 -2 0 78.29 2.7
1 2 0 78.12 2.5
1 2 0 75.93 2.78
-2 -2 0 163.46 5.65
-2 -2 0 168.5 5.48
2 2 0 160.72 5.81
2 2 0 160.67 5.25
-3 -2 0 11.37 0.41
-3 -2 0 11.24 0.39
3 2 0 11.38 0.38
3 2 0 11.3 0.42
-4 -2 0 3.03 0.12
-4 -2 0 3.08 0.13
4 2 0 3.01 0.12
4 2 0 2.55 0.12
-5 -2 0 38.4 1.35
5 2 0 38.21 1.25
-6 -2 0 17.23 0.63
-6 -2 0 16.89 0.6
6 2 0 17.63 0.64
6 2 0 17.29 0.59
-7 -2 0 8.23 0.34
-7 -2 0 8.02 0.31
7 2 0 8.22 0.31
7 2 0 8.33 0.32
-8 -2 0 2.44 0.17
8 2 0 2.65 0.15
-9 -2 0 1.76 0.16
9 2 0 1.25 0.12
-10 -2 0 0.24 0.11
10 2 0 0.02 0.08
8 -3 0 3.68 0.2
-8 3 0 3.67 0.24
7 -3 0 2.55 0.16
7 -3 0 3 0.17
-7 3 0 2.79 0.19
6 -3 0 0.13 0.06
6 -3 0 0.22 0.05
-6 3 0 0.15 0.07
5 -3 0 0.07 0.04
5 -3 0 0.06 0.04
-5 3 0 0.13 0.06
-5 3 0 0.1 0.05
4 -3 0 2.69 0.13
4 -3 0 3.1 0.13
-4 3 0 2.72 0.15
-4 3 0 2.74 0.14
3 -3 0 7 0.27
3 -3 0 7.57 0.25
-3 3 0 7.27 0.28
-3 3 0 6.64 0.28
2 -3 0 46.71 1.58
-2 3 0 46.28 1.67
-2 3 0 46.09 1.62
1 -3 0 35.47 1.18
1 -3 0 35.49 1.12
-1 3 0 33.17 1.21
-1 3 0 34.38 1.25
0 -3 0 16.82 0.59
0 3 0 16.62 0.61
-1 -3 0 5.97 0.22
1 3 0 6.05 0.2
-2 -3 0 38.44 1.34
2 3 0 38.55 1.24
-3 -3 0 29.63 1.05
3 3 0 30.44 0.98
-4 -3 0 21.72 0.8
4 3 0 23.1 0.82
4 3 0 22.87 0.75
-5 -3 0 24.85 0.88
-5 -3 0 24.77 0.85
5 3 0 24.65 0.9
5 3 0 24.53 0.82
-6 -3 0 16.44 0.58
-6 -3 0 16.86 0.61
6 3 0 16.58 0.62
6 3 0 16.09 0.57
-7 -3 0 2.9 0.17
-7 -3 0 3.05 0.14
7 3 0 3.13 0.15
7 3 0 3.09 0.15
-8 -3 0 1.73 0.15
8 3 0 1.85 0.13
-9 -3 0 0.11 0.09
9 3 0 0.06 0.07
-10 -3 0 0.19 0.1
10 3 0 0 0.09
8 -4 0 3.26 0.2
-8 4 0 3.41 0.24
7 -4 0 3.83 0.22
7 -4 0 3.77 0.2
-7 4 0 3.96 0.24
6 -4 0 0.39 0.07
6 -4 0 0.48 0.07
-6 4 0 0.59 0.1
5 -4 0 0.12 0.05
5 -4 0 0.16 0.05
-5 4 0 0.2 0.06
-5 4 0 0.15 0.07
4 -4 0 4.28 0.18
4 -4 0 4.4 0.19
-4 4 0 4.37 0.2
-4 4 0 4.44 0.21
3 -4 0 34.79 1.21
3 -4 0 35.72 1.15
-3 4 0 34.84 1.28
-3 4 0 35.12 1.25
2 -4 0 8.4 0.31
-2 4 0 8.26 0.33
-2 4 0 7.83 0.31
1 -4 0 12.32 0.41
1 -4 0 12.51 0.44
-1 4 0 12.41 0.47
-1 4 0 11.91 0.45
0 -4 0 5.37 0.21
0 4 0 5.83 0.23
-1 -4 0 7.12 0.26
-1 -4 0 7.22 0.27
-2 -4 0 11.81 0.43
-2 -4 0 12.29 0.43
2 4 0 12.09 0.4
2 4 0 11.82 0.46
-3 -4 0 8.07 0.31
-3 -4 0 8.41 0.31
3 4 0 8.33 0.29
3 4 0 8.51 0.33
-4 -4 0 2.97 0.15
-4 -4 0 3.12 0.15
4 4 0 3.59 0.14
4 4 0 3.59 0.16
-5 -4 0 12.29 0.46
-5 -4 0 12.58 0.45
5 4 0 12.37 0.44
5 4 0 12.82 0.48
-6 -4 0 6.67 0.28
-6 -4 0 6.74 0.26
6 4 0 7 0.28
6 4 0 6.69 0.26
-7 -4 0 0.89 0.09
-7 -4 0 0.98 0.09
7 4 0 0.94 0.08
7 4 0 1.04 0.1
-8 -4 0 0.1 0.07
8 4 0 0.07 0.06
8 4 0 0.08 0.05
-9 -4 0 0.71 0.11
9 4 0 0.64 0.09
-10 -4 0 0.4 0.11
10 4 0 0.38 0.1
7 -5 0 1.6 0.15
-7 5 0 1.4 0.15
6 -5 0 -0.04 0.06
6 -5 0 0.01 0.06
-6 5 0 0.02 0.08
5 -5 0 1.45 0.12
5 -5 0 1.43 0.11
-5 5 0 1.55 0.12
-5 5 0 1.41 0.13
4 -5 0 2.47 0.14
4 -5 0 2.61 0.13
-4 5 0 2.19 0.16
-4 5 0 2.58 0.16
3 -5 0 18.95 0.63
3 -5 0 18.81 0.67
-3 5 0 18.47 0.69
-3 5 0 18.65 0.71
2 -5 0 25.87 0.83
2 -5 0 25.77 0.89
-2 5 0 24.81 0.91
-2 5 0 24.79 0.94
1 -5 0 0.07 0.02
1 -5 0 0.02 0.03
-1 5 0 0.06 0.04
-1 5 0 0.07 0.04
0 -5 0 1.61 0.08
0 -5 0 1.1 0.08
0 -5 0 1.62 0.07
0 5 0 1.45 0.1
-1 -5 0 8.03 0.3
-1 -5 0 8.47 0.31
1 5 0 8.08 0.33
-2 -5 0 10.8 0.39
-2 -5 0 10.67 0.39
2 5 0 10.55 0.42
2 5 0 10.66 0.35
-3 -5 0 2.42 0.13
-3 -5 0 2.48 0.12
3 5 0 2.62 0.14
3 5 0 2.89 0.11
-4 -5 0 14.51 0.51
-4 -5 0 14.1 0.52
4 5 0 14.08 0.48
4 5 0 14.38 0.55
-5 -5 0 3.23 0.16
-5 -5 0 3.28 0.16
5 5 0 3.47 0.17
5 5 0 3.41 0.15
-6 -5 0 2.67 0.15
-6 -5 0 2.85 0.15
6 5 0 3.28 0.16
6 5 0 2.84 0.14
-7 -5 0 0.06 0.06
-7 -5 0 0.09 0.05
7 5 0 0.11 0.06
7 5 0 0.15 0.06
-8 -5 0 0.14 0.08
8 5 0 0.09 0.06
8 5 0 0.05 0.06
-9 -5 0 0.04 0.08
9 5 0 0.04 0.07
-10 -5 0 4.78 0.26
10 5 0 4.03 0.24
6 -6 0 -0.17 0.07
-6 6 0 -0.06 0.09
5 -6 0 0.93 0.1
-5 6 0 1 0.12
4 -6 0 4.84 0.23
4 -6 0 5.08 0.2
-4 6 0 4.64 0.24
-4 6 0 4.57 0.24
3 -6 0 11.94 0.41
3 -6 0 12.26 0.45
-3 6 0 11.26 0.48
-3 6 0 11.27 0.46
2 -6 0 10.55 0.36
2 -6 0 10.32 0.4
-2 6 0 10.61 0.43
-2 6 0 10.39 0.41
1 -6 0 4.25 0.19
-1 6 0 4.32 0.21
-1 6 0 4.18 0.19
0 -6 0 0.66 0.06
0 6 0 0.59 0.07
-1 -6 0 3.66 0.15
1 6 0 2.76 0.16
-2 -6 0 2.8 0.14
-2 -6 0 2.75 0.13
-3 -6 0 13.15 0.5
-3 -6 0 14.2 0.5
3 6 0 14.04 0.46
3 6 0 13.33 0.53
-4 -6 0 2.38 0.13
-4 -6 0 2.33 0.12
4 6 0 2.32 0.15
4 6 0 2.44 0.11
-5 -6 0 0.48 0.07
-5 -6 0 0.61 0.07
5 6 0 0.78 0.09
5 6 0 0.57 0.06
-6 -6 0 3.45 0.18
-6 -6 0 3.28 0.17
6 6 0 3.51 0.16
6 6 0 3.63 0.19
-7 -6 0 0 0.06
-7 -6 0 -0.07 0.06
7 6 0 0 0.05
7 6 0 0.04 0.06
-8 -6 0 0.01 0.07
8 6 0 0.02 0.06
8 6 0 0.07 0.07
-9 -6 0 1 0.12
9 6 0 0.78 0.1
-10 -6 0 1 0.13
10 6 0 0.67 0.11
5 -7 0 1.22 0.13
-5 7 0 1.2 0.14
4 -7 0 2.58 0.18
-4 7 0 2.49 0.19
-4 7 0 2.54 0.19
3 -7 0 7.53 0.32
-3 7 0 7.31 0.34
-3 7 0 7.21 0.33
2 -7 0 5.12 0.24
-2 7 0 4.8 0.24
-2 7 0 5.17 0.26
1 -7 0 2.29 0.15
-1 7 0 2.43 0.14
-1 7 0 2.41 0.17
0 -7 0 1.75 0.13
0 -7 0 1.56 0.11
0 7 0 1.78 0.14
-1 -7 0 0.05 0.05
-1 -7 0 0.11 0.04
1 7 0 0.09 0.06
-2 -7 0 0.98 0.09
-2 -7 0 1 0.08
2 7 0 0.94 0.1
-3 -7 0 2.54 0.13
-3 -7 0 2.58 0.15
3 7 0 2.55 0.17
-4 -7 0 1.95 0.12
-4 -7 0 2.15 0.14
4 7 0 2.37 0.16
-5 -7 0 0.43 0.07
-5 -7 0 0.48 0.08
5 7 0 0.44 0.08
5 7 0 0.4 0.05
-6 -7 0 -0.03 0.05
-6 -7 0 -0.11 0.06
6 7 0 -0.01 0.04
6 7 0 -0.04 0.06
-7 -7 0 0.55 0.08
-7 -7 0 0.64 0.08
7 7 0 0.42 0.09
7 7 0 0.48 0.07
-8 -7 0 0.53 0.09
8 7 0 0.49 0.09
8 7 0 0.52 0.08
-9 -7 0 0.92 0.12
9 7 0 0.92 0.11
4 -8 0 2.17 0.18
-4 8 0 2.03 0.19
-4 8 0 1.73 0.18
3 -8 0 3.92 0.23
-3 8 0 4.09 0.25
-3 8 0 4.08 0.23
2 -8 0 3 0.19
-2 8 0 3.03 0.22
-2 8 0 2.85 0.18
1 -8 0 0.8 0.1
-1 8 0 0.89 0.1
-1 8 0 0.93 0.12
0 -8 0 0.77 0.1
0 8 0 0.76 0.11
-1 -8 0 1.04 0.1
-1 -8 0 0.86 0.1
1 8 0 1.08 0.12
-2 -8 0 2.85 0.17
-2 -8 0 2.85 0.15
2 8 0 2.69 0.19
-3 -8 0 5.62 0.24
-3 -8 0 5.91 0.26
3 8 0 5.6 0.28
-4 -8 0 2.09 0.16
-4 -8 0 1.98 0.13
4 8 0 2.06 0.18
-5 -8 0 -0.02 0.07
-5 -8 0 -0.02 0.05
5 8 0 -0.03 0.07
-6 -8 0 0.11 0.07
-6 -8 0 0.12 0.07
6 8 0 0.09 0.08
-7 -8 0 -0.08 0.07
-7 -8 0 -0.01 0.07
7 8 0 0.13 0.09
-8 -8 0 0.8 0.11
8 8 0 0.83 0.12
3 -9 0 0.57 0.11
-3 9 0 0.56 0.13
2 -9 0 1.6 0.15
-2 9 0 2.2 0.21
1 -9 0 0.02 0.08
-1 9 0 -0.05 0.09
0 -9 0 1 0.11
0 9 0 1.03 0.14
-1 -9 0 3.87 0.22
1 9 0 3.45 0.24
-2 -9 0 2.1 0.17
2 9 0 2.05 0.19
-3 -9 0 2.35 0.17
3 9 0 2.1 0.19
-4 -9 0 0.92 0.11
4 9 0 1.16 0.14
-5 -9 0 -0.04 0.07
5 9 0 -0.01 0.08
-6 -9 0 0.21 0.09
6 9 0 0.34 0.11
-7 -9 0 0.57 0.1
7 9 0 0.38 0.11
8 9 0 0.05 0.09
0 -10 0 0.99 0.13
0 10 0 1.09 0.15
-1 -10 0 1.89 0.18
1 10 0 1.53 0.17
-2 -10 0 1.48 0.14
2 10 0 1.12 0.15
-3 -10 0 0.21 0.09
3 10 0 0.59 0.12
-4 -10 0 0.46 0.1
4 10 0 0.29 0.11
-5 -10 0 -0.06 0.08
5 10 0 0.07 0.1
-6 -10 0 0.09 0.09
6 10 0 0.07 0.1
-5 -10 1 0.07 0.09
4 10 -1 0.39 0.12
-4 -10 1 0.31 0.1
3 10 -1 0.26 0.11
-3 -10 1 0.12 0.09
2 10 -1 0.41 0.12
-2 -10 1 0.51 0.11
1 10 -1 0.23 0.12
-1 -10 1 0.37 0.11
0 10 -1 0.01 0.1
0 -10 1 -0.02 0.1
7 9 -1 0.05 0.1
6 9 -1 0.01 0.09
-6 -9 1 -0.08 0.08
5 9 -1 -0.01 0.09
-5 -9 1 -0.02 0.07
-5 -9 1 0.01 0.08
4 9 -1 0.06 0.09
-4 -9 1 0.06 0.07
-4 -9 1 0.1 0.08
3 9 -1 0.5 0.11
-3 -9 1 0.35 0.09
2 9 -1 0.17 0.1
-2 -9 1 0.14 0.08
1 9 -1 2.45 0.22
-1 -9 1 2.39 0.18
0 9 -1 -0.06 0.09
0 -9 1 0 0.08
-1 9 -1 0.33 0.11
1 -9 1 0.39 0.1
-2 9 -1 1.36 0.16
2 -9 1 1.33 0.14
8 8 -1 0.07 0.09
-8 -8 1 0.03 0.09
7 8 -1 0.06 0.09
-7 -8 1 0 0.08
6 8 -1 0.04 0.08
-6 -8 1 -0.06 0.07
-6 -8 1 0 0.07
5 8 -1 0.16 0.09
-5 -8 1 0.17 0.07
-5 -8 1 0.07 0.07
4 8 -1 3.01 0.21
-4 -8 1 2.92 0.17
-4 -8 1 2.73 0.18
3 8 -1 3.01 0.21
-3 -8 1 3.24 0.19
-3 -8 1 3.09 0.17
2 8 -1 2.28 0.18
-2 -8 1 2.14 0.16
-2 -8 1 2.31 0.14
1 8 -1 2.19 0.18
-1 -8 1 2.07 0.14
-1 -8 1 2.29 0.16
0 8 -1 0.73 0.11
0 -8 1 0.79 0.1
0 -8 1 0.89 0.1
-1 8 -1 1.25 0.11
-1 8 -1 1.26 0.14
1 -8 1 1.01 0.11
-2 8 -1 3.87 0.22
-2 8 -1 3.89 0.25
2 -8 1 3.75 0.22
-3 8 -1 3.84 0.24
-3 8 -1 3.58 0.23
3 -8 1 3.58 0.23
-4 8 -1 1.11 0.14
4 -8 1 0.89 0.12
-9 -7 1 0.12 0.09
8 7 -1 0.12 0.09
-8 -7 1 0.14 0.09
7 7 -1 0.19 0.09
-7 -7 1 0.36 0.09
6 7 -1 0.42 0.09
-6 -7 1 0.32 0.08
-6 -7 1 0.37 0.08
5 7 -1 3.57 0.21
-5 -7 1 3.44 0.19
-5 -7 1 3.57 0.19
4 7 -1 1.8 0.15
-4 -7 1 1.47 0.12
-4 -7 1 1.57 0.13
3 7 -1 2.6 0.18
-3 -7 1 2.84 0.15
-3 -7 1 2.69 0.16
2 7 -1 3.72 0.21
-2 -7 1 3.75 0.19
-2 -7 1 3.76 0.17
1 7 -1 0.43 0.08
-1 -7 1 0.44 0.07
-1 -7 1 0.69 0.07
0 7 -1 1.24 0.12
0 -7 1 1.17 0.1
0 -7 1 1.26 0.12
-1 7 -1 9.72 0.41
1 -7 1 9.26 0.38
-2 7 -1 5.44 0.26
-2 7 -1 5.69 0.28
2 -7 1 5.43 0.25
-3 7 -1 1.67 0.16
-3 7 -1 1.7 0.17
3 -7 1 1.76 0.15
-4 7 -1 3.27 0.21
-4 7 -1 2.79 0.2
4 -7 1 3.34 0.2
-5 7 -1 0.17 0.11
5 -7 1 0.06 0.08
9 6 -1 0.01 0.07
-9 -6 1 -0.03 0.08
8 6 -1 -0.09 0.07
8 6 -1 0 0.06
-8 -6 1 -0.01 0.08
7 6 -1 0.67 0.08
7 6 -1 0.64 0.1
-7 -6 1 0.69 0.09
6 6 -1 0.7 0.07
6 6 -1 0.87 0.1
-6 -6 1 0.74 0.09
-6 -6 1 0.56 0.08
5 6 -1 0.74 0.09
5 6 -1 0.85 0.07
-5 -6 1 0.57 0.08
-5 -6 1 0.42 0.08
4 6 -1 2.61 0.11
4 6 -1 2.26 0.15
-4 -6 1 2.42 0.14
-4 -6 1 2.45 0.14
3 6 -1 2.14 0.14
-3 -6 1 2.26 0.13
-3 -6 1 2.14 0.12
-2 -6 1 1.72 0.11
-2 -6 1 1.76 0.1
1 6 -1 0.02 0.05
-1 -6 1 -0.01 0.03
-1 -6 1 0.01 0.04
0 6 -1 1.53 0.12
0 -6 1 1.19 0.09
0 -6 1 1.46 0.1
-1 6 -1 0.79 0.09
1 -6 1 0.87 0.08
-2 6 -1 11.2 0.43
-2 6 -1 11.02 0.45
2 -6 1 10.81 0.42
-3 6 -1 5.41 0.26
-3 6 -1 5.21 0.25
3 -6 1 5.61 0.25
-4 6 -1 1.07 0.11
-4 6 -1 1.03 0.12
4 -6 1 0.89 0.1
-5 6 -1 -0.02 0.08
5 -6 1 -0.01 0.07
-6 6 -1 0.5 0.11
6 -6 1 0.51 0.1
9 5 -1 -0.03 0.07
-9 -5 1 -0.06 0.08
8 5 -1 0.2 0.07
8 5 -1 0.26 0.08
-8 -5 1 0.3 0.09
7 5 -1 0.63 0.08
7 5 -1 0.75 0.09
-7 -5 1 0.61 0.09
6 5 -1 3.76 0.19
6 5 -1 3.27 0.16
-6 -5 1 2.92 0.16
-6 -5 1 3.29 0.18
5 5 -1 3.74 0.18
5 5 -1 3.55 0.15
-5 -5 1 3.1 0.16
-5 -5 1 3.06 0.17
4 5 -1 11.3 0.39
4 5 -1 11.39 0.45
-4 -5 1 11.21 0.43
-4 -5 1 11.68 0.42
3 5 -1 0.17 0.05
3 5 -1 0.17 0.03
-3 -5 1 0.09 0.04
-3 -5 1 0.07 0.04
2 5 -1 1.83 0.12
-2 -5 1 2.2 0.12
-2 -5 1 2.48 0.11
1 5 -1 0.67 0.07
-1 -5 1 0.7 0.06
-1 -5 1 0.61 0.06
0 5 -1 9.34 0.36
0 -5 1 9.41 0.34
0 -5 1 8.05 0.33
-1 5 -1 11.93 0.47
1 -5 1 11.97 0.45
-2 5 -1 23.18 0.84
-2 5 -1 22.61 0.87
2 -5 1 23.79 0.82
-3 5 -1 4.55 0.23
-3 5 -1 4.7 0.22
3 -5 1 4.91 0.21
3 -5 1 4.87 0.18
-4 5 -1 1.48 0.14
-4 5 -1 1.43 0.13
4 -5 1 1.62 0.09
4 -5 1 1.38 0.12
-5 5 -1 1.29 0.13
-5 5 -1 1.28 0.12
5 -5 1 1.23 0.11
5 -5 1 1.38 0.1
-6 5 -1 1.89 0.18
6 -5 1 1.92 0.13
6 -5 1 1.84 0.16
-7 5 -1 2.03 0.2
7 -5 1 2.26 0.17
10 4 -1 -0.06 0.09
-10 -4 1 0.17 0.1
9 4 -1 1.81 0.17
-9 -4 1 2.17 0.18
8 4 -1 0.7 0.09
8 4 -1 0.98 0.1
-8 -4 1 1.03 0.11
7 4 -1 4.14 0.2
7 4 -1 3.92 0.19
-7 -4 1 3.94 0.21
6 4 -1 8.65 0.33
6 4 -1 8.88 0.36
-6 -4 1 8.8 0.35
-6 -4 1 8.81 0.33
5 4 -1 6.33 0.27
5 4 -1 6.09 0.24
-5 -4 1 6.24 0.26
-5 -4 1 6.53 0.25
4 4 -1 18.75 0.62
4 4 -1 18.87 0.7
-4 -4 1 18.86 0.65
-4 -4 1 17.85 0.67
3 4 -1 83.76 2.66
3 4 -1 82.88 2.96
-3 -4 1 83.81 2.79
-3 -4 1 79.7 2.87
2 4 -1 0.9 0.08
2 4 -1 0.93 0.05
-2 -4 1 0.88 0.07
-2 -4 1 0.92 0.07
1 4 -1 1.17 0.08
-1 -4 1 1.29 0.08
-1 -4 1 1.03 0.07
0 4 -1 19.31 0.74
0 -4 1 19.67 0.71
0 -4 1 20.6 0.69
-1 4 -1 18.64 0.69
1 -4 1 19.23 0.67
1 -4 1 17.93 0.65
-2 4 -1 4.16 0.19
-2 4 -1 4.37 0.19
2 -4 1 4.31 0.16
2 -4 1 4.41 0.18
-3 4 -1 18.41 0.69
-3 4 -1 18.81 0.7
3 -4 1 18.98 0.62
3 -4 1 18.97 0.67
-4 4 -1 0.54 0.08
-4 4 -1 0.49 0.07
4 -4 1 0.39 0.06
4 -4 1 0.39 0.05
-5 4 -1 0.28 0.08
-5 4 -1 0.38 0.06
5 -4 1 0.28 0.05
5 -4 1 0.33 0.06
-6 4 -1 0.69 0.1
6 -4 1 0.37 0.07
6 -4 1 0.42 0.07
-7 4 -1 2.92 0.21
7 -4 1 2.96 0.19
7 -4 1 2.96 0.17
-8 4 -1 0.95 0.14
8 -4 1 0.83 0.11
10 3 -1 -0.03 0.09
-10 -3 1 0.05 0.1
9 3 -1 0.02 0.08
-9 -3 1 0.09 0.09
8 3 -1 0.09 0.06
-8 -3 1 0.07 0.07
7 3 -1 4.53 0.21
7 3 -1 5.14 0.22
-7 -3 1 4.76 0.23
6 3 -1 12.11 0.44
6 3 -1 12.59 0.48
-6 -3 1 12.34 0.47
-6 -3 1 12.44 0.44
5 3 -1 10.84 0.42
5 3 -1 10.41 0.38
-5 -3 1 10.88 0.41
4 3 -1 22.42 0.74
4 3 -1 22.59 0.82
-4 -3 1 21.54 0.79
3 3 -1 39.64 1.25
3 3 -1 38.4 1.39
-3 -3 1 37.75 1.35
2 3 -1 25.99 0.85
2 3 -1 26.58 0.95
-2 -3 1 25.3 0.91
-1 -3 1 131.26 4.54
0 3 -1 32.33 1.18
0 -3 1 32.71 1.14
-1 3 -1 20.53 0.75
1 -3 1 19.11 0.7
1 -3 1 21.51 0.73
-2 3 -1 27.82 1.01
-2 3 -1 27.48 1.03
2 -3 1 28.73 0.92
2 -3 1 29.68 0.98
-3 3 -1 0.07 0.04
-3 3 -1 0.05 0.04
3 -3 1 0.07 0.03
3 -3 1 0.07 0.02
-4 3 -1 4.05 0.18
-4 3 -1 4.47 0.2
4 -3 1 4.31 0.16
4 -3 1 4.05 0.18
-5 3 -1 0.3 0.05
-5 3 -1 0.28 0.07
5 -3 1 0.22 0.05
5 -3 1 0.31 0.05
-6 3 -1 2.2 0.16
6 -3 1 2.08 0.13
6 -3 1 2.19 0.14
-7 3 -1 5.55 0.28
7 -3 1 5.52 0.24
7 -3 1 5.5 0.25
-8 3 -1 2.11 0.2
8 -3 1 2.15 0.16
-9 3 -1 0.25 0.12
9 -3 1 0.31 0.09
10 2 -1 -0.13 0.08
-10 -2 1 -0.03 0.1
9 2 -1 -0.12 0.07
-9 -2 1 -0.03 0.09
8 2 -1 0.09 0.06
-8 -2 1 0.14 0.08
7 2 -1 10.83 0.4
7 2 -1 11.16 0.43
-7 -2 1 10.77 0.43
6 2 -1 10.22 0.38
-6 -2 1 10.98 0.41
5 2 -1 0.72 0.07
-5 -2 1 0.83 0.08
-5 -2 1 0.73 0.05
4 2 -1 0.98 0.06
4 2 -1 1.06 0.07
-4 -2 1 1.03 0.07
-4 -2 1 1.08 0.06
3 2 -1 0.7 0.04
-3 -2 1 0.65 0.05
-3 -2 1 0.65 0.05
2 2 -1 66.05 2
-2 -2 1 61.33 2.09
-2 -2 1 59.17 2.16
-1 -2 1 992.66 34.73
-1 -2 1 1000 33.74
0 2 -1 67.03 2.53
0 -2 1 74.86 2.39
0 -2 1 71.14 2.46
-1 2 -1 7.36 0.28
1 -2 1 7.32 0.27
-2 2 -1 50.32 1.84
2 -2 1 51.65 1.66
2 -2 1 52.41 1.74
-3 2 -1 1.53 0.08
-3 2 -1 1.62 0.09
3 -2 1 1.55 0.08
-4 2 -1 0.56 0.05
-4 2 -1 0.45 0.06
4 -2 1 0.44 0.04
4 -2 1 0.51 0.05
-5 2 -1 24.81 0.93
-5 2 -1 25.68 0.93
5 -2 1 25.65 0.89
5 -2 1 25.99 0.85
-6 2 -1 0.12 0.06
6 -2 1 0.08 0.04
6 -2 1 0.03 0.04
-7 2 -1 0.77 0.11
7 -2 1 0.55 0.08
7 -2 1 0.93 0.09
-8 2 -1 5.64 0.3
8 -2 1 6.07 0.27
8 -2 1 5.91 0.26
-9 2 -1 0.17 0.11
9 -2 1 0.28 0.09
10 1 -1 -0.05 0.09
-10 -1 1 -0.14 0.1
9 1 -1 0.54 0.1
-9 -1 1 0.68 0.11
8 1 -1 1.74 0.13
-8 -1 1 1.63 0.15
7 1 -1 2.71 0.14
-7 -1 1 2.49 0.16
-7 -1 1 2.55 0.14
6 1 -1 7.7 0.29
-6 -1 1 8.04 0.31
5 1 -1 14.74 0.51
-5 -1 1 15.12 0.55
4 1 -1 0.05 0.02
-4 -1 1 0.07 0.03
-4 -1 1 0.04 0.03
-4 -1 1 0.06 0.02
3 1 -1 3.66 0.13
-3 -1 1 3.14 0.14
-3 -1 1 3.57 0.13
-3 -1 1 3.58 0.15
2 1 -1 55.03 1.8
-2 -1 1 57.05 1.95
-2 -1 1 53.83 2
-2 -1 1 58.48 1.88
1 1 -1 159.54 5.07
-1 -1 1 163.49 5.3
-1 -1 1 156 5.46
-1 -1 1 152.95 5.62
0 1 -1 81.95 3.15
0 -1 1 92.93 2.98
0 -1 1 90.84 3.06
-1 1 -1 0.63 0.04
1 -1 1 0.66 0.04
-2 1 -1 14.81 0.51
-2 1 -1 13.14 0.51
2 -1 1 14.64 0.49
2 -1 1 14.18 0.47
-3 1 -1 5.7 0.22
3 -1 1 6.26 0.22
-4 1 -1 23.07 0.79
-4 1 -1 20.55 0.79
4 -1 1 21.72 0.76
4 -1 1 22.42 0.72
-5 1 -1 17.49 0.65
-5 1 -1 17.06 0.64
5 -1 1 17.98 0.59
5 -1 1 18.06 0.62
-6 1 -1 0.28 0.06
-6 1 -1 0.38 0.04
6 -1 1 0.41 0.05
6 -1 1 0.35 0.06
-7 1 -1 0.75 0.09
7 -1 1 0.69 0.07
7 -1 1 0.73 0.08
-8 1 -1 2.67 0.19
8 -1 1 2.48 0.16
8 -1 1 2.33 0.15
-9 1 -1 0.56 0.12
9 -1 1 0.36 0.09
-10 1 -1 0.36 0.12
10 -1 1 0.21 0.1
9 0 -1 1.14 0.12
-9 0 1 1.16 0.14
8 0 -1 0.45 0.08
-8 0 1 0.35 0.09
7 0 -1 6.57 0.26
-7 0 1 6.46 0.29
-7 0 1 6.27 0.27
6 0 -1 6.15 0.22
-6 0 1 6.16 0.24
-6 0 1 5.13 0.25
5 0 -1 0 0.01
5 0 -1 0.1 0.02
-5 0 1 -0.03 0.03
-5 0 1 0.03 0.04
4 0 -1 1.45 0.07
-4 0 1 1.37 0.09
-4 0 1 1.43 0.08
3 0 -1 4.83 0.17
-3 0 1 4.69 0.19
2 0 -1 18.47 0.58
2 0 -1 18.96 0.6
-2 0 1 18.63 0.64
-2 0 1 15.06 0.63
1 0 -1 38.54 1.2
-1 0 1 34.03 1.29
-1 0 1 39.11 1.33
0 0 1 98.17 2.99
0 0 1 73.46 3.07
0 0 1 98.14 2.77
0 0 1 76.95 2.99
-1 0 -1 0.16 0.01
1 0 1 0.11 0.01
-2 0 -1 1.06 0.06
2 0 1 1.22 0.05
2 0 1 1.24 0.06
-3 0 -1 0.95 0.04
3 0 1 0.85 0.05
-4 0 -1 51.21 1.78
4 0 1 49.41 1.69
4 0 1 49.04 1.62
-5 0 -1 41.23 1.46
5 0 1 40.25 1.34
5 0 1 41.37 1.4
-6 0 -1 15.02 0.55
6 0 1 15.11 0.52
6 0 1 15.13 0.54
-7 0 -1 0.68 0.08
7 0 1 0.65 0.06
7 0 1 0.5 0.07
-8 0 -1 7.42 0.32
8 0 1 6.89 0.29
8 0 1 7.37 0.3
-9 0 -1 1.79 0.17
9 0 1 1.67 0.16
-10 0 -1 1.01 0.14
10 0 1 0.91 0.12
9 -1 -1 0.93 0.12
-9 1 1 1.05 0.14
8 -1 -1 4.97 0.24
-8 1 1 5.13 0.27
7 -1 -1 0.08 0.06
-7 1 1 0.14 0.08
6 -1 -1 3.07 0.15
6 -1 -1 2.81 0.13
-6 1 1 3.09 0.16
-6 1 1 3.03 0.15
5 -1 -1 0.16 0.03
5 -1 -1 0.18 0.04
-5 1 1 0.26 0.04
-5 1 1 0.22 0.05
4 -1 -1 5.83 0.21
4 -1 -1 5.66 0.22
-4 1 1 5.84 0.24
-4 1 1 5.95 0.23
3 -1 -1 31.51 1.01
3 -1 -1 30.72 1.04
-3 1 1 30.72 1.08
-3 1 1 30.23 1.11
2 -1 -1 80.44 2.73
-2 1 1 81.59 2.89
-2 1 1 81.55 2.81
1 -1 -1 18.75 0.6
1 -1 -1 17.94 0.62
-1 1 1 18.41 0.64
-1 1 1 18.39 0.66
0 -1 -1 38.64 1.3
0 1 1 38.78 1.24
-1 -1 -1 5.71 0.2
1 1 1 5.47 0.2
-2 -1 -1 30.89 1.08
2 1 1 30.8 1.05
2 1 1 31.22 1.11
-3 -1 -1 42.48 1.48
3 1 1 42.35 1.44
3 1 1 42.55 1.51
-4 -1 -1 63.94 2.28
-4 -1 -1 66.71 2.33
4 1 1 66.16 2.21
-5 -1 -1 33.95 1.24
-5 -1 -1 35.35 1.22
5 1 1 35.78 1.18
5 1 1 33.29 1.13
-6 -1 -1 23.32 0.83
-6 -1 -1 22.09 0.83
6 1 1 23.07 0.79
-7 -1 -1 11.76 0.46
7 1 1 11.73 0.43
7 1 1 11.74 0.42
-8 -1 -1 1.54 0.14
8 1 1 0.99 0.1
8 1 1 1.39 0.1
-9 -1 -1 0.51 0.1
9 1 1 0.54 0.09
-10 -1 -1 0.88 0.14
10 1 1 0.62 0.11
9 -2 -1 2.12 0.18
-9 2 1 2.1 0.21
8 -2 -1 4.09 0.21
-8 2 1 3.73 0.23
7 -2 -1 2.59 0.15
-7 2 1 2.54 0.17
6 -2 -1 3.33 0.16
6 -2 -1 3.38 0.15
-6 2 1 3.3 0.16
-6 2 1 3.22 0.18
5 -2 -1 1.89 0.11
5 -2 -1 1.76 0.1
-5 2 1 1.82 0.11
-5 2 1 1.84 0.12
4 -2 -1 42.86 1.38
4 -2 -1 41.8 1.43
-4 2 1 41.97 1.52
-4 2 1 41.93 1.49
3 -2 -1 2.76 0.11
3 -2 -1 2.67 0.11
-3 2 1 2.75 0.13
-3 2 1 2.93 0.13
2 -2 -1 50.75 1.66
-2 2 1 47.52 1.76
1 -2 -1 11.04 0.36
1 -2 -1 10.65 0.38
-1 2 1 10.59 0.4
-1 2 1 11.13 0.39
0 -2 -1 11.32 0.39
0 2 1 11.14 0.37
0 2 1 11.71 0.42
0 2 1 11.14 0.4
1 2 1 1.2 0.05
1 2 1 1.23 0.06
-2 -2 -1 5.46 0.19
-2 -2 -1 5.32 0.19
2 2 1 5.16 0.2
2 2 1 5.04 0.18
-3 -2 -1 0.08 0.02
-3 -2 -1 0.05 0.02
3 2 1 0.11 0.02
3 2 1 0.13 0.02
-4 -2 -1 45.35 1.61
4 2 1 46.37 1.65
4 2 1 47.01 1.5
-5 -2 -1 26.76 0.97
5 2 1 27.23 0.94
5 2 1 27.88 0.91
5 2 1 27.78 0.99
-6 -2 -1 12.56 0.46
6 2 1 12.72 0.44
6 2 1 11.67 0.45
-7 -2 -1 4.74 0.22
7 2 1 4.95 0.2
7 2 1 4.6 0.2
-8 -2 -1 0.29 0.07
8 2 1 0.3 0.06
-9 -2 -1 0.15 0.08
9 2 1 0.1 0.08
-10 -2 -1 3.06 0.22
10 2 1 2.73 0.2
8 -3 -1 2.4 0.17
-8 3 1 2.17 0.2
7 -3 -1 2.07 0.15
-7 3 1 2.17 0.17
6 -3 -1 0.13 0.06
6 -3 -1 0.29 0.05
-6 3 1 0.18 0.06
-6 3 1 0.21 0.08
5 -3 -1 0.01 0.04
5 -3 -1 0.06 0.03
-5 3 1 0 0.04
-5 3 1 -0.07 0.05
4 -3 -1 14.53 0.49
4 -3 -1 14.01 0.51
-4 3 1 14.25 0.54
-4 3 1 14.39 0.53
3 -3 -1 58.15 1.97
3 -3 -1 59.45 1.88
-3 3 1 57.45 2.08
-3 3 1 57.27 2.03
2 -3 -1 19.15 0.67
2 -3 -1 19.66 0.64
-2 3 1 19.37 0.71
1 -3 -1 2.56 0.1
1 -3 -1 2.68 0.11
-1 3 1 2.7 0.12
-1 3 1 2.7 0.11
0 -3 -1 2.87 0.12
0 3 1 2.93 0.11
0 3 1 2.93 0.13
-2 -3 -1 11.42 0.41
2 3 1 11.72 0.39
2 3 1 12.19 0.44
-3 -3 -1 24.65 0.87
3 3 1 25.2 0.9
3 3 1 24.71 0.81
-4 -3 -1 9.05 0.34
-4 -3 -1 10.63 0.35
4 3 1 10.33 0.33
4 3 1 8.02 0.35
-5 -3 -1 25.36 0.91
-5 -3 -1 25 0.88
5 3 1 26.1 0.85
-6 -3 -1 4.21 0.17
-6 -3 -1 4.24 0.19
6 3 1 4.86 0.18
6 3 1 3.76 0.18
-7 -3 -1 0.96 0.08
-7 -3 -1 1.07 0.11
7 3 1 1.12 0.08
7 3 1 1.24 0.1
-8 -3 -1 0.06 0.04
-8 -3 -1 -0.05 0.06
8 3 1 0.13 0.06
-9 -3 -1 10.79 0.44
9 3 1 10.68 0.41
-10 -3 -1 1.86 0.19
10 3 1 1.99 0.17
8 -4 -1 1.22 0.12
-8 4 1 1.5 0.16
7 -4 -1 0.34 0.08
-7 4 1 0.58 0.11
6 -4 -1 0.51 0.07
6 -4 -1 0.38 0.07
-6 4 1 0.5 0.09
5 -4 -1 5.21 0.22
5 -4 -1 5.35 0.22
-5 4 1 4.96 0.25
-5 4 1 5.33 0.24
4 -4 -1 14.41 0.52
4 -4 -1 14.71 0.5
-4 4 1 14.17 0.54
-4 4 1 14.07 0.55
3 -4 -1 11.66 0.4
3 -4 -1 11.64 0.42
-3 4 1 11.19 0.43
-3 4 1 11.52 0.45
2 -4 -1 0.77 0.07
2 -4 -1 0.81 0.06
-2 4 1 0.83 0.07
-2 4 1 0.78 0.07
1 -4 -1 2.94 0.13
-1 4 1 2.98 0.14
0 -4 -1 0.62 0.05
0 4 1 0.58 0.06
-1 -4 -1 3.32 0.13
-2 -4 -1 22.75 0.81
-2 -4 -1 23.86 0.8
2 4 1 22.95 0.85
2 4 1 23.41 0.76
-3 -4 -1 21.43 0.71
-3 -4 -1 19.65 0.72
3 4 1 20.47 0.75
3 4 1 19.82 0.67
-4 -4 -1 3.29 0.14
-4 -4 -1 3.32 0.14
4 4 1 3.35 0.15
4 4 1 3.23 0.14
-5 -4 -1 30.86 1.04
-5 -4 -1 29.66 1.07
5 4 1 30.94 1.1
5 4 1 29.5 1
-6 -4 -1 4.96 0.21
-6 -4 -1 4.66 0.2
6 4 1 5.38 0.22
6 4 1 5.02 0.21
-7 -4 -1 -0.02 0.05
-7 -4 -1 -0.01 0.04
7 4 1 0.01 0.05
7 4 1 0 0.04
-8 -4 -1 1.34 0.13
-8 -4 -1 1.33 0.11
8 4 1 1.1 0.1
-9 -4 -1 2.59 0.18
9 4 1 2.44 0.17
-10 -4 -1 2.9 0.22
10 4 1 2.91 0.2
7 -5 -1 -0.02 0.07
-7 5 1 0.03 0.09
6 -5 -1 0.56 0.08
6 -5 -1 0.46 0.08
-6 5 1 0.64 0.11
5 -5 -1 1.02 0.09
5 -5 -1 1.33 0.11
-5 5 1 1.27 0.12
-5 5 1 1.13 0.11
4 -5 -1 13.16 0.49
4 -5 -1 13.74 0.47
-4 5 1 13.12 0.51
-4 5 1 13.16 0.53
3 -5 -1 23.89 0.82
3 -5 -1 23.27 0.77
-3 5 1 23.12 0.84
-3 5 1 22.46 0.87
2 -5 -1 24.93 0.86
2 -5 -1 24.43 0.81
-2 5 1 24.36 0.91
-2 5 1 24.29 0.88
1 -5 -1 2.27 0.1
1 -5 -1 2.04 0.11
-1 5 1 2.23 0.11
-1 5 1 2.45 0.13
0 -5 -1 9.19 0.34
0 5 1 8.88 0.36
-1 -5 -1 0.56 0.04
1 5 1 0.54 0.04
1 5 1 0.32 0.05
-2 -5 -1 17.97 0.63
-2 -5 -1 17.75 0.63
2 5 1 17.84 0.58
2 5 1 17.55 0.66
-3 -5 -1 14.37 0.51
-3 -5 -1 14.11 0.51
3 5 1 14.45 0.47
3 5 1 13.66 0.54
-4 -5 -1 0.64 0.06
-4 -5 -1 0.63 0.06
4 5 1 0.7 0.06
4 5 1 0.7 0.07
-5 -5 -1 0.35 0.05
-5 -5 -1 0.29 0.05
5 5 1 0.43 0.06
5 5 1 0.4 0.05
-6 -5 -1 7.58 0.3
-6 -5 -1 7.51 0.29
6 5 1 7.49 0.31
6 5 1 7.47 0.29
-7 -5 -1 0.3 0.06
-7 -5 -1 0.28 0.06
7 5 1 0.35 0.06
7 5 1 0.43 0.07
-8 -5 -1 2.92 0.17
-8 -5 -1 2.76 0.15
8 5 1 2.91 0.16
8 5 1 2.7 0.16
-9 -5 -1 0.93 0.11
9 5 1 0.9 0.1
-10 -5 -1 2.43 0.2
10 5 1 2.51 0.18
6 -6 -1 0.71 0.09
-6 6 1 0.67 0.12
5 -6 -1 2.65 0.16
5 -6 -1 2.77 0.17
-5 6 1 2.75 0.19
-5 6 1 2.3 0.18
4 -6 -1 14.1 0.49
4 -6 -1 14.81 0.53
-4 6 1 13.09 0.56
-4 6 1 13.94 0.54
3 -6 -1 10.87 0.42
3 -6 -1 11.14 0.39
-3 6 1 11.27 0.46
-3 6 1 11.09 0.44
2 -6 -1 4.46 0.18
2 -6 -1 4.5 0.2
-2 6 1 4.42 0.22
-2 6 1 4.5 0.21
1 -6 -1 2.28 0.13
1 -6 -1 2.29 0.11
-1 6 1 2.43 0.15
-1 6 1 2.21 0.13
0 -6 -1 2.64 0.13
0 -6 -1 2.05 0.1
0 6 1 2.55 0.14
-2 -6 -1 21.85 0.79
2 6 1 22.58 0.73
-3 -6 -1 1.59 0.09
-3 -6 -1 1.81 0.11
3 6 1 1.77 0.12
3 6 1 1.61 0.08
-4 -6 -1 3.18 0.14
-4 -6 -1 2.92 0.15
4 6 1 3.1 0.13
4 6 1 3.16 0.16
-5 -6 -1 0.48 0.06
-5 -6 -1 0.51 0.06
5 6 1 0.61 0.06
5 6 1 0.54 0.07
-6 -6 -1 0.33 0.06
-6 -6 -1 0.3 0.06
6 6 1 0.38 0.05
6 6 1 0.29 0.06
-7 -6 -1 2 0.13
-7 -6 -1 1.91 0.13
7 6 1 1.97 0.14
7 6 1 1.87 0.13
-8 -6 -1 4.79 0.22
-8 -6 -1 4.52 0.23
8 6 1 4.86 0.23
8 6 1 4.68 0.22
-9 -6 -1 1.36 0.12
9 6 1 1.12 0.11
-10 -6 -1 0.34 0.1
10 6 1 0.31 0.09
5 -7 -1 4.65 0.24
-5 7 1 4.29 0.25
4 -7 -1 2.63 0.17
-4 7 1 2.3 0.17
-4 7 1 2.57 0.19
3 -7 -1 12.76 0.5
-3 7 1 13.76 0.54
-3 7 1 13.09 0.52
2 -7 -1 3.26 0.18
-2 7 1 3.34 0.18
-2 7 1 3.63 0.21
1 -7 -1 1.18 0.08
1 -7 -1 1.08 0.1
-1 7 1 1.07 0.1
-1 7 1 1.57 0.13
0 -7 -1 2.66 0.15
0 -7 -1 2.57 0.11
0 7 1 2.51 0.17
0 7 1 2.58 0.14
-1 -7 -1 3.27 0.15
-1 -7 -1 3.4 0.17
1 7 1 3.71 0.19
-2 -7 -1 7.77 0.3
-2 -7 -1 7.52 0.29
2 7 1 7.51 0.26
-3 -7 -1 11.31 0.42
-3 -7 -1 11.7 0.43
3 7 1 11.28 0.46
3 7 1 11.13 0.39
-4 -7 -1 1.21 0.11
-4 -7 -1 1.03 0.08
4 7 1 1.32 0.12
4 7 1 1.07 0.07
-5 -7 -1 0.15 0.06
-5 -7 -1 0.11 0.05
5 7 1 0.11 0.04
5 7 1 0.15 0.06
-6 -7 -1 1.04 0.1
-6 -7 -1 0.89 0.09
6 7 1 1.08 0.1
6 7 1 0.95 0.08
-7 -7 -1 0.52 0.08
-7 -7 -1 0.49 0.07
7 7 1 0.43 0.07
7 7 1 0.44 0.08
-8 -7 -1 2.6 0.16
-8 -7 -1 2.56 0.16
8 7 1 2.6 0.17
8 7 1 2.24 0.15
-9 -7 -1 1.17 0.12
9 7 1 1.03 0.11
-10 -7 -1 0.1 0.09
10 7 1 0.28 0.08
4 -8 -1 2.4 0.19
-4 8 1 2.59 0.2
3 -8 -1 0.4 0.09
-3 8 1 0.53 0.11
2 -8 -1 0.02 0.07
-2 8 1 0.33 0.1
1 -8 -1 0.37 0.08
-1 8 1 0.55 0.1
0 -8 -1 2.37 0.16
0 8 1 2.18 0.18
0 8 1 2.24 0.14
-1 -8 -1 10.79 0.41
1 8 1 9.97 0.44
-2 -8 -1 5.67 0.25
-2 -8 -1 5.24 0.23
2 8 1 5.37 0.27
-3 -8 -1 5.82 0.26
-3 -8 -1 5.4 0.23
3 8 1 5.83 0.28
-4 -8 -1 0.5 0.08
-4 -8 -1 0.47 0.06
4 8 1 0.43 0.08
-5 -8 -1 -0.06 0.05
-5 -8 -1 0.01 0.06
5 8 1 -0.03 0.06
-6 -8 -1 0.9 0.1
-6 -8 -1 0.93 0.09
6 8 1 0.72 0.1
-7 -8 -1 1.43 0.13
-7 -8 -1 1.3 0.12
7 8 1 1.26 0.13
7 8 1 1.03 0.1
-8 -8 -1 0.49 0.09
-8 -8 -1 0.4 0.08
8 8 1 0.32 0.09
8 8 1 0.38 0.07
-9 -8 -1 0.5 0.1
9 8 1 0.44 0.08
3 -9 -1 0.09 0.09
-3 9 1 0.14 0.1
2 -9 -1 0.02 0.08
-2 9 1 0.02 0.1
1 -9 -1 0.85 0.11
-1 9 1 0.94 0.14
0 -9 -1 4.99 0.25
0 9 1 5 0.28
-1 -9 -1 3.01 0.19
1 9 1 2.8 0.21
-2 -9 -1 4.05 0.22
2 9 1 3.93 0.24
-3 -9 -1 1.07 0.11
3 9 1 1.31 0.13
-4 -9 -1 0.64 0.1
4 9 1 0.59 0.1
-5 -9 -1 0.55 0.09
5 9 1 0.53 0.11
-6 -9 -1 1.17 0.12
6 9 1 0.9 0.12
-7 -9 -1 0.71 0.1
7 9 1 0.66 0.11
-8 -9 -1 0.21 0.09
8 9 1 0.19 0.09
1 -10 -1 0.06 0.09
-1 10 1 0.04 0.11
0 -10 -1 0.72 0.11
0 10 1 0.76 0.14
-1 -10 -1 2.3 0.19
1 10 1 1.91 0.18
-2 -10 -1 0.99 0.12
2 10 1 1.01 0.13
-3 -10 -1 0.08 0.08
3 10 1 0.05 0.09
-4 -10 -1 -0.11 0.08
4 10 1 -0.01 0.08
-5 -10 -1 0 0.08
5 10 1 0.01 0.09
-6 -10 -1 0.41 0.1
6 10 1 0.49 0.11
-7 -10 -1 0.38 0.1
7 10 1 0.43 0.11
-3 -11 -1 0.03 0.09
3 11 1 0.02 0.11
4 11 1 0.08 0.1
6 9 -2 0.15 0.11
-6 -9 2 0.04 0.09
5 9 -2 0 0.1
-5 -9 2 0.11 0.08
-5 -9 2 -0.03 0.08
4 9 -2 0.34 0.11
-4 -9 2 0.35 0.1
-4 -9 2 0.47 0.09
3 9 -2 1 0.14
-3 -9 2 0.96 0.11
-3 -9 2 0.79 0.11
2 9 -2 0.95 0.14
-2 -9 2 0.73 0.11
-2 -9 2 0.73 0.1
1 9 -2 0.39 0.12
-1 -9 2 0.7 0.11
-1 -9 2 0.69 0.1
0 9 -2 0.47 0.12
0 -9 2 0.2 0.09
0 -9 2 0.27 0.09
-1 9 -2 0.74 0.12
-1 9 -2 0.65 0.13
1 -9 2 0.57 0.11
-2 9 -2 0.75 0.14
2 -9 2 0.68 0.12
7 8 -2 0.11 0.09
-7 -8 2 -0.09 0.09
6 8 -2 0 0.09
-6 -8 2 -0.05 0.08
5 8 -2 0.28 0.1
-5 -8 2 0.27 0.08
-5 -8 2 0.34 0.08
4 8 -2 0.62 0.11
-4 -8 2 0.7 0.1
-4 -8 2 0.62 0.09
3 8 -2 2.77 0.22
-3 -8 2 2.8 0.18
-3 -8 2 2.83 0.17
2 8 -2 1.35 0.14
-2 -8 2 1.15 0.12
-2 -8 2 1.25 0.12
1 8 -2 -0.07 0.08
-1 -8 2 0.05 0.06
-1 -8 2 -0.03 0.07
0 8 -2 -0.05 0.08
0 -8 2 0.02 0.06
0 -8 2 0.01 0.07
-1 8 -2 4.1 0.26
1 -8 2 3.89 0.22
-2 8 -2 1.83 0.17
-2 8 -2 1.66 0.16
2 -8 2 1.46 0.14
-3 8 -2 1.33 0.15
-3 8 -2 1.26 0.14
3 -8 2 1.37 0.14
-4 8 -2 0.58 0.13
4 -8 2 0.45 0.11
8 7 -2 -0.01 0.09
-8 -7 2 0.04 0.09
7 7 -2 -0.06 0.08
-7 -7 2 -0.05 0.08
6 7 -2 0.44 0.1
-6 -7 2 0.24 0.09
-6 -7 2 0.28 0.08
5 7 -2 4.38 0.25
-5 -7 2 4.34 0.22
-5 -7 2 3.8 0.21
4 7 -2 1.88 0.16
-4 -7 2 1.57 0.14
-4 -7 2 1.71 0.13
3 7 -2 2.8 0.19
-3 -7 2 3.08 0.16
-3 -7 2 3 0.17
2 7 -2 0.11 0.07
-2 -7 2 0.05 0.05
-2 -7 2 -0.04 0.06
1 7 -2 0.72 0.1
-1 -7 2 0.54 0.08
-1 -7 2 0.67 0.08
0 7 -2 4.97 0.25
0 -7 2 4.59 0.22
0 -7 2 4.95 0.23
-1 7 -2 4.83 0.26
1 -7 2 4.61 0.23
1 -7 2 4.61 0.23
-2 7 -2 4.3 0.25
-2 7 -2 4.46 0.23
2 -7 2 4.16 0.22
-3 7 -2 2.11 0.17
-3 7 -2 1.9 0.18
3 -7 2 1.81 0.16
-4 7 -2 0.99 0.13
-4 7 -2 0.94 0.13
4 -7 2 1.03 0.12
-5 7 -2 0.05 0.1
5 -7 2 -0.13 0.08
8 6 -2 0.03 0.06
8 6 -2 0 0.08
-8 -6 2 0.04 0.09
7 6 -2 1.09 0.12
7 6 -2 0.96 0.09
-7 -6 2 1.03 0.12
6 6 -2 2.46 0.17
-6 -6 2 2.4 0.17
-6 -6 2 2.4 0.15
5 6 -2 5.94 0.29
-5 -6 2 5.77 0.25
-5 -6 2 5.78 0.26
4 6 -2 19.68 0.76
-4 -6 2 19.63 0.73
-4 -6 2 19.99 0.71
3 6 -2 0.3 0.07
-3 -6 2 0.12 0.05
-3 -6 2 0.09 0.05
2 6 -2 0.1 0.06
-2 -6 2 0.1 0.05
-2 -6 2 0.08 0.05
1 6 -2 1.31 0.12
-1 -6 2 1.1 0.11
-1 -6 2 1.28 0.1
0 6 -2 3 0.18
0 -6 2 3.33 0.17
0 -6 2 3.16 0.16
-1 6 -2 4.94 0.24
1 -6 2 4.66 0.22
1 -6 2 4.87 0.22
-2 6 -2 6.15 0.29
2 -6 2 6.25 0.27
-3 6 -2 0.02 0.07
-3 6 -2 0.11 0.07
3 -6 2 0.07 0.06
-4 6 -2 0.78 0.11
-4 6 -2 0.69 0.1
4 -6 2 0.7 0.1
-5 6 -2 0.03 0.09
5 -6 2 -0.15 0.07
-6 6 -2 1.18 0.15
6 -6 2 1.25 0.13
9 5 -2 0.04 0.08
-9 -5 2 0.14 0.09
8 5 -2 0.41 0.09
8 5 -2 0.39 0.08
-8 -5 2 0.3 0.09
7 5 -2 2.93 0.17
7 5 -2 3.31 0.2
-7 -5 2 3.15 0.19
6 5 -2 1.21 0.1
6 5 -2 1.36 0.13
-6 -5 2 1.3 0.13
5 5 -2 9.89 0.37
5 5 -2 10.42 0.42
-5 -5 2 10.11 0.4
-5 -5 2 10.36 0.38
4 5 -2 14.9 0.52
4 5 -2 14.69 0.59
-4 -5 2 15.31 0.54
-4 -5 2 15.69 0.56
3 5 -2 1.83 0.13
-3 -5 2 1.92 0.11
-3 -5 2 1.98 0.12
-2 -5 2 6.52 0.25
-2 -5 2 6.17 0.25
1 5 -2 6.67 0.29
-1 -5 2 7.07 0.28
-1 -5 2 7.12 0.27
0 5 -2 4.02 0.2
0 -5 2 3.84 0.18
0 -5 2 4.22 0.18
-1 5 -2 15.25 0.58
1 -5 2 14.81 0.56
-2 5 -2 1.44 0.12
2 -5 2 1.09 0.09
-3 5 -2 0.29 0.07
-3 5 -2 0.29 0.07
3 -5 2 0.15 0.06
-4 5 -2 0.45 0.08
-4 5 -2 0.5 0.09
4 -5 2 0.35 0.07
-5 5 -2 0.74 0.11
5 -5 2 0.59 0.09
-6 5 -2 1.17 0.14
6 -5 2 0.92 0.11
-7 5 -2 2.93 0.23
7 -5 2 2.65 0.2
9 4 -2 0.16 0.08
-9 -4 2 0.3 0.1
8 4 -2 2.01 0.16
8 4 -2 1.74 0.15
-8 -4 2 2.13 0.17
7 4 -2 1.5 0.14
7 4 -2 1.48 0.12
-7 -4 2 1.23 0.12
6 4 -2 3.47 0.19
6 4 -2 3.46 0.17
-6 -4 2 3.81 0.19
5 4 -2 3.67 0.18
5 4 -2 3.43 0.16
-5 -4 2 3.69 0.16
-5 -4 2 3.69 0.18
4 4 -2 1.51 0.08
4 4 -2 1.45 0.11
-4 -4 2 1.36 0.09
-4 -4 2 1.32 0.1
3 4 -2 0.97 0.09
3 4 -2 1.05 0.06
-3 -4 2 0.87 0.08
-3 -4 2 0.99 0.08
2 4 -2 145.38 5.38
-2 -4 2 154.22 5.08
-2 -4 2 153.2 5.23
1 4 -2 3.69 0.18
-1 -4 2 3.7 0.16
-1 -4 2 3.73 0.16
0 4 -2 18.46 0.73
0 -4 2 20.56 0.69
0 -4 2 19.76 0.7
-1 4 -2 30.18 1.13
1 -4 2 31.92 1.07
1 -4 2 30.79 1.1
2 -4 2 8.67 0.33
-3 4 -2 0.58 0.07
-3 4 -2 0.82 0.08
3 -4 2 0.63 0.07
-4 4 -2 8.11 0.33
-4 4 -2 7.86 0.33
4 -4 2 8 0.32
4 -4 2 7.85 0.28
-5 4 -2 2.31 0.17
-5 4 -2 2.27 0.14
5 -4 2 2.4 0.12
5 -4 2 2.26 0.15
-6 4 -2 2.14 0.18
6 -4 2 1.87 0.13
6 -4 2 1.97 0.15
-7 4 -2 5.83 0.3
7 -4 2 5.59 0.25
7 -4 2 5.83 0.27
-8 4 -2 1.42 0.16
8 -4 2 1.72 0.16
8 -4 2 1.38 0.13
9 3 -2 -0.07 0.07
-9 -3 2 0.03 0.09
8 3 -2 0.82 0.1
8 3 -2 0.88 0.1
-8 -3 2 0.93 0.11
7 3 -2 4.3 0.21
7 3 -2 3.97 0.19
-7 -3 2 4.48 0.22
6 3 -2 8.05 0.34
6 3 -2 8.08 0.31
-6 -3 2 8.65 0.34
5 3 -2 2.85 0.15
5 3 -2 2.91 0.13
-5 -3 2 2.9 0.15
4 3 -2 -0.02 0.03
4 3 -2 -0.01 0.03
-4 -3 2 0 0.01
-4 -3 2 -0.01 0.03
3 3 -2 7.46 0.31
3 3 -2 8.14 0.27
-3 -3 2 7.69 0.3
2 3 -2 45.61 1.43
2 3 -2 43.05 1.59
-2 -3 2 43.72 1.54
1 3 -2 76.27 2.74
-1 -3 2 75.69 2.59
-1 -3 2 78.03 2.66
0 3 -2 25.51 0.98
0 -3 2 27.63 0.92
0 -3 2 27.24 0.95
-1 3 -2 24.28 0.93
1 -3 2 25.97 0.88
1 -3 2 26.1 0.9
-2 3 -2 2.72 0.13
2 -3 2 2.95 0.13
2 -3 2 2.9 0.13
-3 3 -2 0.19 0.04
-3 3 -2 0.12 0.04
3 -3 2 0.04 0.03
3 -3 2 0.09 0.02
-4 3 -2 5.32 0.22
-4 3 -2 5.21 0.24
4 -3 2 5.33 0.2
4 -3 2 5.32 0.22
-5 3 -2 0.33 0.07
-5 3 -2 0.25 0.05
5 -3 2 0.21 0.05
5 -3 2 0.18 0.05
-6 3 -2 0.74 0.1
6 -3 2 0.63 0.07
6 -3 2 0.6 0.08
-7 3 -2 6.05 0.3
7 -3 2 6.17 0.28
7 -3 2 6.2 0.26
-8 3 -2 2.01 0.2
8 -3 2 2.1 0.16
8 -3 2 1.88 0.16
-9 3 -2 0.03 0.11
9 -3 2 -0.12 0.08
9 2 -2 0.2 0.09
-9 -2 2 0.33 0.1
8 2 -2 1.68 0.14
-8 -2 2 1.82 0.16
7 2 -2 6.24 0.25
-7 -2 2 5.97 0.28
6 2 -2 0.92 0.09
-6 -2 2 1.19 0.11
-6 -2 2 1.05 0.1
5 2 -2 5.58 0.23
-5 -2 2 6.4 0.22
-5 -2 2 6.05 0.26
4 2 -2 1.23 0.07
-4 -2 2 1.08 0.09
-4 -2 2 1.21 0.06
-4 -2 2 1.16 0.09
3 2 -2 8.58 0.29
-3 -2 2 8.47 0.32
-3 -2 2 8.72 0.3
2 2 -2 18.86 0.62
2 2 -2 19.16 0.7
-2 -2 2 18.93 0.68
-2 -2 2 19.13 0.65
1 2 -2 110.61 3.54
-1 -2 2 109.86 3.82
-1 -2 2 110.32 3.7
0 2 -2 10.53 0.41
0 -2 2 11.07 0.38
0 -2 2 11.09 0.39
-1 2 -2 21.97 0.83
1 -2 2 23.87 0.81
-2 2 -2 2.63 0.12
2 -2 2 2.93 0.13
2 -2 2 2.8 0.12
2 -2 2 3.02 0.1
-3 2 -2 10.15 0.37
-3 2 -2 10.21 0.37
3 -2 2 8.34 0.33
3 -2 2 10.38 0.36
-4 2 -2 24.27 0.88
-4 2 -2 23.96 0.88
4 -2 2 24.64 0.8
4 -2 2 24.75 0.85
-5 2 -2 10.12 0.38
-5 2 -2 10.04 0.4
5 -2 2 9.83 0.38
5 -2 2 10.29 0.36
-6 2 -2 0.18 0.07
6 -2 2 0.23 0.05
6 -2 2 0.3 0.06
-7 2 -2 22.39 0.84
7 -2 2 22.89 0.8
7 -2 2 21.71 0.76
-8 2 -2 2.86 0.21
8 -2 2 3.15 0.18
8 -2 2 2.95 0.18
-9 2 -2 -0.08 0.1
9 -2 2 0.04 0.08
9 1 -2 1.12 0.12
-9 -1 2 1.25 0.15
8 1 -2 0.56 0.09
-8 -1 2 0.59 0.1
7 1 -2 2.92 0.16
-7 -1 2 3.02 0.18
-7 -1 2 3.36 0.17
6 1 -2 3.07 0.15
-6 -1 2 3.14 0.16
-6 -1 2 2.94 0.16
5 1 -2 2.27 0.11
-5 -1 2 2.23 0.12
4 1 -2 2.85 0.12
-4 -1 2 2.77 0.13
3 1 -2 20.62 0.66
-3 -1 2 19.31 0.73
2 1 -2 9.01 0.3
-2 -1 2 8.94 0.34
-2 -1 2 8.98 0.31
1 1 -2 0.28 0.02
-1 -1 2 0.38 0.02
0 1 -2 116.06 4.22
0 -1 2 120.8 3.98
-1 1 -2 11.52 0.44
1 -1 2 12.48 0.42
-2 1 -2 2.36 0.1
2 -1 2 2.54 0.09
-3 1 -2 53.12 1.94
3 -1 2 54.92 1.76
3 -1 2 55.34 1.85
-4 1 -2 11.89 0.45
4 -1 2 12.8 0.42
4 -1 2 12.56 0.44
5 -1 2 44.39 1.43
5 -1 2 43.13 1.5
6 -1 2 44.24 1.45
6 -1 2 44.3 1.52
-7 1 -2 3.22 0.18
7 -1 2 2.78 0.15
7 -1 2 2.64 0.15
-8 1 -2 7.14 0.33
8 -1 2 7.11 0.3
8 -1 2 6.81 0.29
-9 1 -2 0.59 0.11
9 -1 2 0.39 0.09
-10 1 -2 0.56 0.13
10 -1 2 0.38 0.1
9 0 -2 1.92 0.17
-9 0 2 1.8 0.17
8 0 -2 2.57 0.17
-8 0 2 2.66 0.19
7 0 -2 3.1 0.16
-7 0 2 2.99 0.16
-7 0 2 3.1 0.18
6 0 -2 0.03 0.05
-6 0 2 -0.04 0.05
-6 0 2 0.01 0.04
5 0 -2 11.93 0.42
-5 0 2 12.42 0.47
-5 0 2 12.59 0.47
4 0 -2 0.09 0.03
-4 0 2 0.13 0.03
-4 0 2 0.1 0.04
3 0 -2 17.1 0.57
-3 0 2 17.36 0.63
-3 0 2 17.13 0.62
2 0 -2 24.49 0.8
-2 0 2 24.75 0.89
1 0 -2 71.86 2.34
-1 0 2 76.53 2.6
-1 0 2 70.57 2.53
0 0 2 21.83 0.77
0 0 2 21.37 0.71
0 0 2 22.88 0.75
0 0 2 22.35 0.79
1 0 2 38.86 1.29
1 0 2 37.4 1.36
1 0 2 39.01 1.23
1 0 2 37.47 1.33
-2 0 -2 38.87 1.3
-2 0 -2 36.92 1.32
2 0 2 33.69 1.26
2 0 2 39.35 1.2
-3 0 -2 46.96 1.67
3 0 2 46.93 1.55
3 0 2 49.84 1.62
-4 0 -2 77.71 2.73
4 0 2 78.88 2.65
4 0 2 79 2.53
-5 0 -2 39.32 1.39
5 0 2 38.64 1.28
5 0 2 39.61 1.34
6 0 2 19.89 0.68
6 0 2 20.04 0.7
-7 0 -2 1.21 0.12
7 0 2 1.23 0.1
7 0 2 1.35 0.1
-8 0 -2 0.33 0.08
8 0 2 0.31 0.07
8 0 2 0.2 0.06
-9 0 -2 3.14 0.21
9 0 2 2.79 0.18
9 0 2 2.48 0.17
-10 0 -2 2.27 0.21
10 0 2 1.96 0.18
9 -1 -2 1.87 0.17
-9 1 2 1.68 0.17
8 -1 -2 1.21 0.11
-8 1 2 1.09 0.13
7 -1 -2 2.09 0.14
-7 1 2 2.14 0.14
-7 1 2 2.33 0.16
6 -1 -2 0.14 0.05
-6 1 2 0.19 0.05
-6 1 2 0.12 0.06
5 -1 -2 2.46 0.1
-5 1 2 2.49 0.14
-5 1 2 2.46 0.13
4 -1 -2 28.23 0.97
-4 1 2 29.12 1.02
-4 1 2 28.62 1.04
3 -1 -2 3.74 0.14
-3 1 2 4.02 0.16
-3 1 2 3.89 0.16
-2 1 2 2.21 0.1
-1 1 2 29.54 1.04
-1 1 2 30.24 1.07
0 -1 -2 2.52 0.09
0 1 2 2.44 0.09
0 1 2 2.13 0.08
1 1 2 13.33 0.43
1 1 2 13.11 0.45
1 1 2 12.89 0.48
1 1 2 13.46 0.46
-2 -1 -2 143.98 4.99
2 1 2 145.1 4.64
-3 -1 -2 11.21 0.39
3 1 2 9.67 0.36
3 1 2 11.75 0.38
-4 -1 -2 45.73 1.63
4 1 2 46.53 1.51
4 1 2 47.25 1.58
-5 -1 -2 29.1 1.05
5 1 2 29.24 1.02
5 1 2 30.27 0.97
-6 -1 -2 7.84 0.32
6 1 2 8.22 0.3
6 1 2 8.34 0.31
-7 -1 -2 3.18 0.17
7 1 2 3.38 0.16
7 1 2 3.21 0.15
-8 -1 -2 18.38 0.68
8 1 2 17.95 0.65
8 1 2 17.94 0.63
-9 -1 -2 1.66 0.16
9 1 2 1.23 0.12
9 1 2 1.25 0.12
-10 -1 -2 5.29 0.29
10 1 2 5.21 0.26
8 -2 -2 2.56 0.18
-8 2 2 2.91 0.21
7 -2 -2 1.93 0.14
-7 2 2 1.52 0.15
6 -2 -2 0.37 0.07
-6 2 2 0.37 0.06
-6 2 2 0.34 0.08
5 -2 -2 7.1 0.26
5 -2 -2 7.12 0.27
-5 2 2 6.87 0.29
-5 2 2 7.24 0.29
4 -2 -2 9.33 0.34
4 -2 -2 9.85 0.34
-4 2 2 9.91 0.38
-4 2 2 9.67 0.37
3 -2 -2 0.48 0.04
3 -2 -2 0.46 0.05
-3 2 2 0.53 0.05
-3 2 2 0.51 0.05
2 -2 -2 15.62 0.52
2 -2 -2 15.67 0.54
-2 2 2 15.84 0.58
1 -2 -2 5.02 0.19
-1 2 2 5.35 0.19
-1 2 2 5.22 0.21
0 -2 -2 1.42 0.06
0 2 2 1.44 0.06
-1 -2 -2 178.1 5.99
1 2 2 179.23 5.72
1 2 2 176.51 6.34
-2 -2 -2 0.23 0.02
2 2 2 0.18 0.02
2 2 2 0.19 0.02
-3 -2 -2 2.51 0.1
3 2 2 2.51 0.1
3 2 2 2.3 0.1
-4 -2 -2 108.9 3.83
4 2 2 112.26 3.72
4 2 2 110.47 3.92
-5 -2 -2 29.67 1.07
5 2 2 30.66 1.08
5 2 2 30.55 1.04
-6 -2 -2 1.86 0.11
6 2 2 1.74 0.08
6 2 2 1.81 0.1
-7 -2 -2 0.53 0.07
7 2 2 0.64 0.06
7 2 2 0.38 0.05
-8 -2 -2 1.6 0.13
8 2 2 1.35 0.11
8 2 2 1.17 0.11
-9 -2 -2 8.42 0.37
9 2 2 8.78 0.35
9 2 2 8.44 0.34
-10 -2 -2 3.86 0.24
10 2 2 3.47 0.21
-11 -2 -2 0.59 0.13
11 2 2 0.68 0.12
8 -3 -2 0.74 0.11
7 -3 -2 0.01 0.07
-7 3 2 -0.05 0.08
6 -3 -2 0.02 0.06
-6 3 2 0.12 0.06
-6 3 2 0.06 0.07
5 -3 -2 10.42 0.38
5 -3 -2 10.72 0.38
-5 3 2 10.33 0.41
-5 3 2 10.39 0.41
4 -3 -2 24.98 0.87
4 -3 -2 25.55 0.85
-4 3 2 25.41 0.91
-4 3 2 25.5 0.94
3 -3 -2 28.69 0.96
3 -3 -2 29.1 0.99
-3 3 2 29.49 1.06
-3 3 2 28.81 1.03
2 -3 -2 1.07 0.06
2 -3 -2 1.06 0.06
-2 3 2 1.07 0.08
-2 3 2 0.73 0.06
1 -3 -2 9.33 0.34
-1 3 2 9.81 0.37
-1 3 2 9.9 0.35
0 -3 -2 5.39 0.2
0 3 2 5.38 0.19
0 3 2 5.68 0.22
-1 -3 -2 2.08 0.09
1 3 2 1.84 0.09
1 3 2 2.11 0.08
2 3 2 2.5 0.11
2 3 2 2.49 0.1
-3 -3 -2 6.15 0.22
3 3 2 6.14 0.24
3 3 2 6.07 0.22
-4 -3 -2 8.79 0.32
-4 -3 -2 8.97 0.32
4 3 2 8.81 0.33
4 3 2 8.79 0.31
-5 -3 -2 40.29 1.46
-5 -3 -2 42.5 1.43
5 3 2 42.64 1.37
5 3 2 41.59 1.49
-6 -3 -2 2 0.11
6 3 2 1.94 0.1
6 3 2 2.18 0.11
-7 -3 -2 2.93 0.15
7 3 2 2.96 0.15
7 3 2 2.58 0.12
-8 -3 -2 2.03 0.14
8 3 2 2.06 0.13
-9 -3 -2 6.17 0.26
-9 -3 -2 6.04 0.29
9 3 2 6.29 0.27
-10 -3 -2 1.08 0.13
10 3 2 0.99 0.11
-11 -3 -2 0.85 0.14
11 3 2 0.84 0.13
7 -4 -2 -0.04 0.07
-7 4 2 0.01 0.08
6 -4 -2 1.91 0.14
-6 4 2 1.84 0.14
-6 4 2 1.81 0.16
5 -4 -2 10.83 0.4
5 -4 -2 10.6 0.39
-5 4 2 10.74 0.43
-5 4 2 10.26 0.42
4 -4 -2 19.41 0.65
4 -4 -2 18.76 0.67
-4 4 2 19.44 0.71
-4 4 2 19.13 0.73
3 -4 -2 19.06 0.64
3 -4 -2 19.65 0.67
-3 4 2 17.9 0.71
-3 4 2 19.31 0.69
2 -4 -2 11.43 0.43
2 -4 -2 11.83 0.41
-2 4 2 12.48 0.46
-2 4 2 12.25 0.44
1 -4 -2 11.75 0.4
1 -4 -2 11.61 0.42
-1 4 2 11.65 0.42
-1 4 2 11.89 0.45
0 -4 -2 5.1 0.2
0 4 2 5.09 0.18
0 4 2 5.38 0.22
-1 -4 -2 18.35 0.64
1 4 2 18.48 0.6
2 4 2 11.64 0.44
2 4 2 11.6 0.39
-3 -4 -2 8.31 0.31
-3 -4 -2 8.57 0.31
3 4 2 9.02 0.3
-4 -4 -2 16.83 0.58
-4 -4 -2 16.8 0.59
4 4 2 16.38 0.56
-5 -4 -2 11.66 0.42
-5 -4 -2 12.21 0.41
5 4 2 11.33 0.4
5 4 2 10.45 0.43
-6 -4 -2 3.51 0.16
-6 -4 -2 3.65 0.16
6 4 2 3.62 0.16
6 4 2 3.72 0.16
-7 -4 -2 7.11 0.29
-7 -4 -2 7.3 0.28
7 4 2 6.89 0.28
7 4 2 7.29 0.28
-8 -4 -2 4.03 0.19
-8 -4 -2 4.02 0.2
8 4 2 4.04 0.19
-9 -4 -2 1.21 0.12
-9 -4 -2 1.17 0.11
9 4 2 1.02 0.1
-10 -4 -2 4 0.23
10 4 2 3.66 0.22
-11 -4 -2 0.39 0.12
11 4 2 0.45 0.1
7 -5 -2 0.46 0.09
-7 5 2 0.49 0.11
6 -5 -2 2.57 0.17
-6 5 2 2.55 0.19
5 -5 -2 5.95 0.25
5 -5 -2 6.19 0.25
-5 5 2 5.54 0.27
-5 5 2 5.83 0.27
4 -5 -2 27.21 0.91
4 -5 -2 27.47 0.95
-4 5 2 27.18 0.98
-4 5 2 26.12 1.01
3 -5 -2 19.36 0.65
3 -5 -2 19.51 0.68
-3 5 2 18.66 0.73
-3 5 2 19.3 0.7
2 -5 -2 2.33 0.12
2 -5 -2 2.33 0.11
-2 5 2 2.23 0.12
-2 5 2 2.4 0.14
1 -5 -2 0.02 0.03
1 -5 -2 -0.02 0.03
-1 5 2 0 0.03
-1 5 2 -0.01 0.04
0 -5 -2 3.55 0.15
0 5 2 3.72 0.17
0 5 2 3.4 0.14
-1 -5 -2 23.33 0.82
1 5 2 23.98 0.78
2 5 2 38.32 1.24
2 5 2 37.86 1.38
-3 -5 -2 26.66 0.93
3 5 2 26.89 0.99
3 5 2 27.46 0.89
-4 -5 -2 0.05 0.03
-4 -5 -2 0.15 0.03
4 5 2 0.03 0.03
4 5 2 0.08 0.03
-5 -5 -2 2.29 0.12
-5 -5 -2 2.22 0.11
5 5 2 2.35 0.12
5 5 2 2.1 0.11
-6 -5 -2 -0.01 0.03
-6 -5 -2 0 0.04
6 5 2 0.02 0.04
6 5 2 -0.01 0.03
-7 -5 -2 7.66 0.3
-7 -5 -2 7.47 0.3
7 5 2 7.57 0.29
7 5 2 7.57 0.31
-8 -5 -2 3.02 0.17
-8 -5 -2 3.3 0.16
8 5 2 3.16 0.17
-9 -5 -2 2.04 0.14
-9 -5 -2 2.1 0.16
9 5 2 1.82 0.14
-10 -5 -2 0.8 0.11
10 5 2 0.58 0.1
-11 -5 -2 0.32 0.11
11 5 2 0.35 0.1
6 -6 -2 3.04 0.19
-6 6 2 2.91 0.21
5 -6 -2 7.07 0.29
5 -6 -2 6.99 0.3
-5 6 2 7.28 0.33
-5 6 2 6.69 0.32
4 -6 -2 3.38 0.17
4 -6 -2 3.04 0.16
-4 6 2 3.17 0.2
-4 6 2 3.18 0.18
3 -6 -2 4.98 0.21
3 -6 -2 4.93 0.22
-3 6 2 5.04 0.23
-3 6 2 5.14 0.25
2 -6 -2 0.88 0.07
2 -6 -2 0.73 0.08
-2 6 2 0.98 0.1
-2 6 2 1.07 0.09
1 -6 -2 2.85 0.13
1 -6 -2 3.01 0.15
-1 6 2 3 0.17
-1 6 2 2.86 0.14
0 -6 -2 17.08 0.61
0 -6 -2 17.1 0.57
0 6 2 16.91 0.65
-1 -6 -2 32.65 1.14
1 6 2 33.37 1.08
2 6 2 24.49 0.8
2 6 2 23.92 0.9
-3 -6 -2 3.46 0.16
3 6 2 3.57 0.14
3 6 2 3.63 0.17
-4 -6 -2 0.2 0.03
-4 -6 -2 0.18 0.04
4 6 2 0.22 0.05
4 6 2 0.2 0.04
-5 -6 -2 0.04 0.03
-5 -6 -2 0.04 0.04
5 6 2 0.01 0.03
5 6 2 -0.03 0.04
-6 -6 -2 2.96 0.15
-6 -6 -2 3.04 0.14
6 6 2 2.88 0.14
6 6 2 3.01 0.16
-7 -6 -2 1.31 0.1
-7 -6 -2 1.27 0.11
7 6 2 1.16 0.11
7 6 2 0.92 0.09
-8 -6 -2 1.73 0.13
-8 -6 -2 1.61 0.13
8 6 2 1.83 0.13
8 6 2 1.68 0.13
-9 -6 -2 0.43 0.09
-9 -6 -2 0.47 0.08
9 6 2 0.45 0.08
-10 -6 -2 0.19 0.09
10 6 2 0.14 0.08
5 -7 -2 1.64 0.14
-5 7 2 1.48 0.14
4 -7 -2 0.45 0.08
4 -7 -2 0.42 0.08
-4 7 2 0.71 0.1
-4 7 2 0.69 0.11
3 -7 -2 0.34 0.07
3 -7 -2 0.27 0.08
-3 7 2 0.47 0.1
-3 7 2 0.37 0.08
2 -7 -2 0.16 0.06
2 -7 -2 0.16 0.05
-2 7 2 0.16 0.08
-2 7 2 0.16 0.06
1 -7 -2 4.43 0.21
1 -7 -2 4.41 0.18
-1 7 2 4.3 0.2
-1 7 2 4.57 0.23
0 -7 -2 9.04 0.34
0 -7 -2 8.59 0.31
0 7 2 8.53 0.34
0 7 2 9.05 0.38
-1 -7 -2 9.56 0.36
1 7 2 10.07 0.33
1 7 2 8.18 0.38
-3 -7 -2 5.94 0.25
3 7 2 6.16 0.27
3 7 2 6.11 0.22
-4 -7 -2 0.26 0.04
-4 -7 -2 0.16 0.05
4 7 2 0.11 0.03
4 7 2 0.26 0.06
-5 -7 -2 0.55 0.06
-5 -7 -2 0.54 0.07
5 7 2 0.57 0.06
5 7 2 0.61 0.08
-6 -7 -2 1.93 0.13
-6 -7 -2 1.94 0.11
6 7 2 1.68 0.11
6 7 2 2.05 0.14
-7 -7 -2 0.63 0.08
-7 -7 -2 0.69 0.07
7 7 2 0.54 0.07
7 7 2 0.51 0.08
-8 -7 -2 1.58 0.14
-8 -7 -2 1.79 0.13
8 7 2 1.61 0.14
8 7 2 1.55 0.13
-9 -7 -2 0.26 0.07
-9 -7 -2 0.22 0.08
9 7 2 0.23 0.07
-10 -7 -2 0.01 0.08
10 7 2 0.06 0.07
4 -8 -2 -0.04 0.08
-4 8 2 0.1 0.1
3 -8 -2 0.57 0.1
-3 8 2 0.81 0.12
2 -8 -2 -0.02 0.07
-2 8 2 0.02 0.09
1 -8 -2 1.45 0.14
-1 8 2 1.58 0.15
0 -8 -2 7.99 0.32
0 8 2 7.45 0.35
-1 -8 -2 9.18 0.37
1 8 2 9.41 0.4
-2 -8 -2 7.18 0.3
2 8 2 7.13 0.32
2 8 2 7.15 0.26
-3 -8 -2 3.03 0.17
3 8 2 2.81 0.18
3 8 2 3.02 0.13
-4 -8 -2 3.04 0.17
4 8 2 2.94 0.18
4 8 2 2.85 0.13
-5 -8 -2 0.91 0.09
5 8 2 0.85 0.08
5 8 2 0.95 0.1
-6 -8 -2 1.77 0.14
6 8 2 1.92 0.15
6 8 2 1.63 0.11
-7 -8 -2 3.33 0.19
7 8 2 3.22 0.2
7 8 2 2.84 0.16
-8 -8 -2 0.41 0.09
8 8 2 0.4 0.07
8 8 2 0.49 0.09
-9 -8 -2 0.66 0.1
9 8 2 0.55 0.09
3 -9 -2 0.13 0.09
-3 9 2 0.17 0.11
2 -9 -2 0.47 0.1
-2 9 2 0.56 0.12
1 -9 -2 1.11 0.12
-1 9 2 1.02 0.14
0 -9 -2 1.74 0.16
0 9 2 1.73 0.16
-1 -9 -2 7.7 0.33
1 9 2 7.41 0.36
-2 -9 -2 1.58 0.14
2 9 2 1.73 0.16
-3 -9 -2 0.39 0.08
3 9 2 0.63 0.1
-4 -9 -2 0.03 0.07
4 9 2 0 0.07
-5 -9 -2 3.06 0.19
5 9 2 3.09 0.21
-6 -9 -2 5.21 0.26
6 9 2 4.95 0.27
-7 -9 -2 2.83 0.19
7 9 2 3.01 0.21
-8 -9 -2 0.89 0.11
8 9 2 0.64 0.11
-9 -9 -2 0.19 0.09
1 -10 -2 0.33 0.1
-1 10 2 0.32 0.12
0 -10 -2 2.62 0.2
0 10 2 2.56 0.22
-1 -10 -2 1.14 0.13
1 10 2 1.01 0.14
-2 -10 -2 0.08 0.08
2 10 2 0.18 0.1
-3 -10 -2 -0.03 0.08
3 10 2 0.07 0.09
-4 -10 -2 1.05 0.12
4 10 2 0.96 0.13
-5 -10 -2 1.02 0.12
5 10 2 1.07 0.13
-6 -10 -2 5.08 0.27
6 10 2 5.2 0.29
-7 -10 -2 1.07 0.12
7 10 2 0.86 0.12
-8 -10 -2 0.22 0.1
8 10 2 0.21 0.1
-2 -11 -2 0.44 0.11
2 11 2 0.45 0.13
-3 -11 -2 -0.02 0.09
3 11 2 0.03 0.1
-4 -11 -2 0.25 0.1
4 11 2 0.26 0.11
-5 -11 -2 0.64 0.12
5 11 2 0.78 0.13
4 9 -3 0.61 0.13
-4 -9 3 0.61 0.11
-4 -9 3 0.4 0.1
3 9 -3 0.03 0.1
-3 -9 3 0.03 0.08
-3 -9 3 0.09 0.09
2 9 -3 -0.01 0.1
-2 -9 3 -0.09 0.08
-2 -9 3 -0.03 0.08
1 9 -3 0.12 0.11
-1 -9 3 0.1 0.09
-1 -9 3 0.09 0.09
0 9 -3 1.04 0.15
0 -9 3 0.83 0.12
0 -9 3 0.98 0.13
-1 9 -3 0.47 0.13
1 -9 3 0.39 0.11
6 8 -3 0.91 0.14
-6 -8 3 0.97 0.13
5 8 -3 3.95 0.26
-5 -8 3 3.67 0.22
-5 -8 3 3.61 0.21
4 8 -3 0.02 0.09
-4 -8 3 0.05 0.07
-4 -8 3 -0.11 0.07
3 8 -3 0.52 0.11
-3 -8 3 0.51 0.09
-3 -8 3 0.75 0.1
2 8 -3 0 0.09
-2 -8 3 0.06 0.08
-2 -8 3 0.16 0.08
1 8 -3 0.24 0.1
-1 -8 3 0.36 0.09
-1 -8 3 0.3 0.08
0 8 -3 0.51 0.11
0 -8 3 0.53 0.09
0 -8 3 0.53 0.1
-1 8 -3 2.4 0.22
1 -8 3 2.11 0.19
1 -8 3 2.47 0.18
-2 8 -3 0.37 0.1
-2 8 -3 0.24 0.11
2 -8 3 0.08 0.09
-3 8 -3 1.25 0.14
-3 8 -3 0.94 0.14
3 -8 3 1 0.13
7 7 -3 0.16 0.1
-7 -7 3 0.34 0.1
6 7 -3 2.19 0.21
-6 -7 3 1.89 0.18
5 7 -3 5.26 0.28
-5 -7 3 4.82 0.25
-5 -7 3 4.56 0.23
4 7 -3 0.21 0.09
-4 -7 3 0.16 0.07
-4 -7 3 0.08 0.07
3 7 -3 0.02 0.07
-3 -7 3 -0.04 0.06
-3 -7 3 -0.03 0.06
2 7 -3 0.39 0.09
-2 -7 3 0.16 0.07
-2 -7 3 0.21 0.07
1 7 -3 1.71 0.17
-1 -7 3 1.94 0.14
-1 -7 3 1.45 0.13
0 7 -3 4.23 0.24
0 -7 3 3.89 0.21
0 -7 3 4 0.21
-1 7 -3 2.45 0.19
1 -7 3 2.22 0.16
1 -7 3 2.27 0.17
-2 7 -3 -0.06 0.08
2 -7 3 -0.02 0.07
-3 7 -3 1.18 0.13
-3 7 -3 1.16 0.13
3 -7 3 0.94 0.11
-4 7 -3 0.2 0.1
4 -7 3 0.26 0.1
-5 7 -3 0.39 0.12
5 -7 3 0.14 0.1
8 6 -3 0.14 0.1
-8 -6 3 0.21 0.1
7 6 -3 0.63 0.11
-7 -6 3 0.84 0.12
6 6 -3 2.46 0.2
-6 -6 3 2.45 0.18
5 6 -3 1.03 0.12
-5 -6 3 1.43 0.12
-5 -6 3 1.46 0.14
4 6 -3 0.12 0.07
-4 -6 3 0.09 0.05
-4 -6 3 0.1 0.07
3 6 -3 16.54 0.67
-3 -6 3 17.29 0.63
-3 -6 3 16.93 0.62
2 6 -3 1.33 0.13
-2 -6 3 1.19 0.11
-2 -6 3 1.28 0.12
1 6 -3 2.78 0.18
-1 -6 3 2.77 0.16
-1 -6 3 2.55 0.15
0 6 -3 9.89 0.41
0 -6 3 8.96 0.37
0 -6 3 9.36 0.37
-1 6 -3 2.74 0.18
1 -6 3 2.57 0.16
1 -6 3 2.56 0.16
-2 6 -3 0.37 0.09
2 -6 3 0.63 0.08
2 -6 3 0.68 0.09
-3 6 -3 1.27 0.12
-3 6 -3 1.41 0.13
3 -6 3 0.99 0.11
-4 6 -3 3.39 0.21
-4 6 -3 3.21 0.2
4 -6 3 2.84 0.19
-5 6 -3 0.3 0.11
5 -6 3 0.18 0.09
-6 6 -3 3.28 0.25
6 -6 3 3.37 0.23
8 5 -3 0.92 0.12
8 5 -3 0.75 0.1
-8 -5 3 1.2 0.14
7 5 -3 2.47 0.16
7 5 -3 2.52 0.19
-7 -5 3 2.83 0.19
6 5 -3 1.27 0.11
6 5 -3 1.14 0.12
-6 -5 3 1.19 0.11
5 5 -3 -0.04 0.06
5 5 -3 -0.06 0.04
-5 -5 3 0.03 0.04
-5 -5 3 -0.02 0.06
4 5 -3 0.33 0.05
4 5 -3 0.19 0.07
-4 -5 3 0.33 0.05
-4 -5 3 0.42 0.07
3 5 -3 3.66 0.2
-3 -5 3 3.72 0.19
-3 -5 3 3.78 0.17
-2 -5 3 12.91 0.48
-2 -5 3 12.65 0.47
1 5 -3 3.74 0.19
-1 -5 3 3.61 0.17
-1 -5 3 3.45 0.17
0 5 -3 12.38 0.48
0 -5 3 12.1 0.46
0 -5 3 11.91 0.45
-1 5 -3 6.31 0.29
1 -5 3 6.3 0.27
1 -5 3 6.66 0.27
-2 5 -3 0.73 0.09
2 -5 3 0.61 0.08
2 -5 3 0.68 0.07
-3 5 -3 0.17 0.07
-3 5 -3 0.09 0.07
3 -5 3 0.01 0.05
-4 5 -3 3.2 0.19
-4 5 -3 3.45 0.18
4 -5 3 2.92 0.18
-5 5 -3 0.4 0.1
5 -5 3 0.04 0.07
-6 5 -3 6.5 0.33
6 -5 3 6.88 0.31
-7 5 -3 1.44 0.17
7 -5 3 1.47 0.14
9 4 -3 0.28 0.09
-9 -4 3 0.25 0.1
8 4 -3 1.61 0.16
8 4 -3 1.26 0.12
-8 -4 3 1.35 0.14
7 4 -3 0.8 0.09
7 4 -3 0.89 0.1
-7 -4 3 0.89 0.11
6 4 -3 1.54 0.11
6 4 -3 1.64 0.14
-6 -4 3 1.4 0.14
5 4 -3 0.47 0.08
5 4 -3 0.57 0.06
-5 -4 3 0.6 0.08
4 4 -3 -0.02 0.05
4 4 -3 0 0.03
-4 -4 3 0.01 0.03
-4 -4 3 -0.01 0.05
3 4 -3 1.72 0.12
3 4 -3 1.63 0.08
-3 -4 3 1.66 0.11
-3 -4 3 1.76 0.1
-2 -4 3 10.05 0.36
-2 -4 3 9.69 0.38
1 4 -3 1.57 0.11
-1 -4 3 1.73 0.1
-1 -4 3 1.7 0.1
0 4 -3 9.45 0.39
0 -4 3 9.9 0.36
0 -4 3 9.8 0.37
-1 4 -3 12.76 0.52
1 -4 3 13.59 0.5
1 -4 3 13.99 0.49
-2 4 -3 0.05 0.05
2 -4 3 0.1 0.04
-3 4 -3 0.01 0.05
-3 4 -3 0.11 0.05
3 -4 3 0 0.03
-4 4 -3 6.09 0.26
-4 4 -3 5.97 0.25
4 -4 3 5.67 0.25
4 -4 3 5.31 0.21
-5 4 -3 0.16 0.08
5 -4 3 0.01 0.06
-6 4 -3 13.39 0.54
6 -4 3 13.06 0.51
-7 4 -3 6.39 0.33
7 -4 3 6.27 0.3
-8 4 -3 0.06 0.11
8 -4 3 0.04 0.08
9 3 -3 -0.07 0.08
-9 -3 3 0.1 0.1
8 3 -3 0.94 0.11
8 3 -3 0.93 0.1
-8 -3 3 1 0.12
7 3 -3 1.91 0.15
7 3 -3 1.84 0.14
-7 -3 3 2.11 0.16
6 3 -3 0.28 0.07
6 3 -3 0.2 0.05
-6 -3 3 0.32 0.07
5 3 -3 -0.03 0.03
5 3 -3 -0.07 0.04
-5 -3 3 0.01 0.05
4 3 -3 0.89 0.06
4 3 -3 0.65 0.07
-4 -3 3 0.67 0.07
3 3 -3 0.82 0.05
3 3 -3 0.8 0.08
-3 -3 3 0.79 0.08
2 3 -3 2.2 0.13
2 3 -3 2.66 0.1
-2 -3 3 2.46 0.11
-2 -3 3 2.45 0.12
1 3 -3 49.77 1.81
-1 -3 3 49.35 1.75
-1 -3 3 51.16 1.7
0 3 -3 9.65 0.4
0 -3 3 10.65 0.37
0 -3 3 10.52 0.38
-1 3 -3 1.4 0.09
1 -3 3 1.6 0.09
1 -3 3 1.42 0.09
-2 3 -3 2.48 0.12
2 -3 3 1.99 0.11
2 -3 3 2.2 0.11
-3 3 -3 12.44 0.46
3 -3 3 11.76 0.4
-4 3 -3 15.26 0.58
-4 3 -3 15.5 0.58
4 -3 3 15.1 0.52
4 -3 3 16.16 0.56
-5 3 -3 37.08 1.29
-5 3 -3 34.62 1.29
5 -3 3 35.41 1.17
5 -3 3 35.65 1.24
-6 3 -3 7.79 0.34
6 -3 3 7.48 0.32
6 -3 3 7.74 0.29
-7 3 -3 9.77 0.42
7 -3 3 9.59 0.39
7 -3 3 9.27 0.36
-8 3 -3 0.06 0.1
8 -3 3 0.03 0.08
8 -3 3 -0.02 0.07
-9 3 -3 0.16 0.12
9 -3 3 0.03 0.08
9 -3 3 -0.08 0.08
9 2 -3 0.55 0.1
-9 -2 3 0.77 0.13
8 2 -3 2.52 0.18
8 2 -3 2.4 0.17
-8 -2 3 2.18 0.18
7 2 -3 0.23 0.06
-7 -2 3 0.24 0.08
6 2 -3 1.21 0.1
-6 -2 3 1.35 0.12
-6 -2 3 1.07 0.12
5 2 -3 0.4 0.05
-5 -2 3 0.39 0.08
4 2 -3 4.05 0.16
-4 -2 3 4.21 0.2
3 2 -3 12.35 0.42
-3 -2 3 12.53 0.44
-3 -2 3 12.25 0.46
-3 -2 3 13.33 0.49
2 2 -3 56.78 1.83
-2 -2 3 55.25 1.98
-2 -2 3 58.6 1.92
1 2 -3 19.22 0.62
1 2 -3 18.07 0.7
-1 -2 3 19.2 0.65
-1 -2 3 19.61 0.68
0 2 -3 30.68 1.14
0 -2 3 32.29 1.11
-1 2 -3 7.56 0.3
1 -2 3 7.69 0.29
1 -2 3 7.76 0.28
-2 2 -3 11.47 0.43
2 -2 3 11.87 0.42
2 -2 3 11.09 0.41
-3 2 -3 23.07 0.83
3 -2 3 22.97 0.79
3 -2 3 22.25 0.74
-4 2 -3 39.15 1.39
-4 2 -3 39.87 1.41
4 -2 3 39.11 1.35
4 -2 3 38.51 1.27
-5 2 -3 30.98 1.14
5 -2 3 31.72 1.04
5 -2 3 32.3 1.1
-6 2 -3 5.58 0.27
6 -2 3 6.03 0.25
6 -2 3 6.02 0.23
-7 2 -3 3.02 0.21
7 -2 3 3.25 0.16
7 -2 3 3.37 0.18
-8 2 -3 0.16 0.1
8 -2 3 0.05 0.07
8 -2 3 0.1 0.07
-9 2 -3 1.07 0.14
9 -2 3 0.64 0.1
9 1 -3 0.79 0.11
-9 -1 3 1.05 0.14
8 1 -3 0.93 0.1
-8 -1 3 0.96 0.11
-8 -1 3 1.08 0.12
7 1 -3 1.27 0.12
-7 -1 3 1.21 0.12
-7 -1 3 1.35 0.13
6 1 -3 0.16 0.05
-6 -1 3 0.19 0.07
-6 -1 3 0.26 0.07
5 1 -3 4.29 0.18
-5 -1 3 4.35 0.2
4 1 -3 0.13 0.03
-4 -1 3 0.09 0.04
-4 -1 3 0.05 0.04
3 1 -3 2.85 0.12
-3 -1 3 2.88 0.13
-3 -1 3 3.05 0.14
2 1 -3 9.93 0.33
-2 -1 3 9.88 0.34
-2 -1 3 9.81 0.38
0 1 -3 3.29 0.11
0 -1 3 3.32 0.12
-1 1 -3 0.06 0.02
1 -1 3 0.05 0.02
-2 1 -3 5.07 0.19
2 -1 3 4.48 0.16
-3 1 -3 25.05 0.93
3 -1 3 25.84 0.89
3 -1 3 26.63 0.84
-4 1 -3 51.59 1.85
4 -1 3 52.45 1.69
4 -1 3 52.03 1.77
-5 1 -3 12.07 0.46
5 -1 3 13.33 0.44
5 -1 3 13.22 0.47
6 -1 3 14.22 0.5
6 -1 3 14.53 0.53
-7 1 -3 5.49 0.27
7 -1 3 5.8 0.23
7 -1 3 5.57 0.24
-8 1 -3 1.19 0.13
8 -1 3 1.17 0.11
8 -1 3 1.19 0.1
-9 1 -3 3.05 0.23
9 -1 3 2.97 0.19
9 -1 3 2.96 0.19
-10 1 -3 2.26 0.22
10 -1 3 2.11 0.19
9 0 -3 1.07 0.12
-9 0 3 0.94 0.14
8 0 -3 2.86 0.18
-8 0 3 2.82 0.21
7 0 -3 0.1 0.06
-7 0 3 0.07 0.06
-7 0 3 0.04 0.08
6 0 -3 0.33 0.06
-6 0 3 0.42 0.07
-6 0 3 0.32 0.08
5 0 -3 2.25 0.12
-5 0 3 2.14 0.14
-5 0 3 2.24 0.13
4 0 -3 2.49 0.12
-4 0 3 2.31 0.13
-4 0 3 2.45 0.13
3 0 -3 12.19 0.41
-3 0 3 12.25 0.45
-3 0 3 12.1 0.46
2 0 -3 9.7 0.33
-2 0 3 9.94 0.37
-2 0 3 9.66 0.36
-1 0 3 0.23 0.03
0 0 3 2.77 0.11
0 0 3 2.84 0.12
0 0 3 3.04 0.13
0 0 3 3.05 0.11
1 0 3 5.67 0.21
1 0 3 5.51 0.2
1 0 3 5.61 0.19
1 0 3 5.6 0.21
2 0 3 22.72 0.77
2 0 3 23 0.83
2 0 3 25.24 0.85
-3 0 -3 145.84 4.86
3 0 3 128.12 4.72
3 0 3 146.91 4.5
-4 0 -3 41.03 1.46
4 0 3 42.89 1.42
4 0 3 40.88 1.35
-5 0 -3 21.28 0.78
5 0 3 22.26 0.76
5 0 3 21.48 0.72
-6 0 -3 1.2 0.11
6 0 3 1.73 0.1
6 0 3 1.84 0.1
-7 0 -3 0.51 0.08
7 0 3 0.39 0.06
7 0 3 0.48 0.06
-8 0 -3 5.53 0.27
8 0 3 5.15 0.23
8 0 3 5.42 0.24
-9 0 -3 7.57 0.35
9 0 3 7.28 0.31
9 0 3 7.46 0.31
-10 0 -3 1.8 0.18
10 0 3 1.89 0.17
8 -1 -3 0.69 0.1
-8 1 3 0.82 0.12
7 -1 -3 0.63 0.09
-7 1 3 0.77 0.09
-7 1 3 0.65 0.1
6 -1 -3 0.39 0.07
-6 1 3 0.43 0.08
-6 1 3 0.59 0.08
5 -1 -3 8.85 0.36
-5 1 3 10.58 0.4
-5 1 3 10.99 0.4
-4 1 3 16.82 0.64
-4 1 3 17.09 0.62
3 -1 -3 2.89 0.12
-3 1 3 2.73 0.13
-3 1 3 2.74 0.13
2 -1 -3 39.01 1.27
-2 1 3 39.7 1.41
-2 1 3 38.78 1.37
1 -1 -3 16.32 0.55
-1 1 3 16.49 0.59
-1 1 3 17.48 0.62
0 1 3 18.66 0.63
0 1 3 18.39 0.68
0 1 3 18.4 0.66
0 1 3 19.26 0.61
1 1 3 10.14 0.35
1 1 3 10.42 0.39
1 1 3 10.91 0.36
1 1 3 10.49 0.37
2 1 3 0.37 0.03
2 1 3 0.38 0.03
2 1 3 0.33 0.03
2 1 3 0.47 0.03
-3 -1 -3 75.89 2.55
3 1 3 71.17 2.37
-4 -1 -3 128 4.54
4 1 3 134.03 4.42
4 1 3 131.62 4.22
-5 -1 -3 9.49 0.37
5 1 3 9.62 0.35
5 1 3 9.8 0.34
-6 -1 -3 0.02 0.04
6 1 3 -0.02 0.03
6 1 3 0.1 0.04
-7 -1 -3 0.46 0.07
7 1 3 0.47 0.06
7 1 3 0.55 0.06
-8 -1 -3 4.87 0.25
8 1 3 5.18 0.23
8 1 3 4.95 0.22
-9 -1 -3 4.5 0.24
9 1 3 4.36 0.21
9 1 3 4.27 0.22
-10 -1 -3 3.25 0.23
10 1 3 3.27 0.21
8 -2 -3 0.47 0.09
-8 2 3 0.34 0.11
7 -2 -3 0.14 0.08
-7 2 3 0.07 0.08
-7 2 3 0.25 0.07
6 -2 -3 6.93 0.28
-6 2 3 6.8 0.3
-6 2 3 6.94 0.3
5 -2 -3 9.49 0.35
-5 2 3 9.47 0.38
-5 2 3 9.67 0.38
4 -2 -3 20.16 0.71
-4 2 3 20.98 0.77
-4 2 3 20.78 0.75
3 -2 -3 38.7 1.39
3 -2 -3 42.06 1.35
-3 2 3 41.59 1.49
-3 2 3 42.68 1.45
2 -2 -3 17.8 0.68
2 -2 -3 22.19 0.7
-2 2 3 22.53 0.76
-2 2 3 20.23 0.73
1 -2 -3 2.44 0.1
-1 2 3 2.57 0.12
-1 2 3 2.74 0.11
0 -2 -3 40.91 1.37
0 2 3 40.26 1.41
-1 -2 -3 0.86 0.04
1 2 3 0.86 0.05
2 2 3 111.08 4.15
2 2 3 122.73 3.93
-3 -2 -3 7.83 0.28
3 2 3 7.53 0.28
-4 -2 -3 20.6 0.71
4 2 3 18 0.66
4 2 3 19.97 0.72
4 2 3 21.48 0.7
-5 -2 -3 0.42 0.05
5 2 3 0.44 0.05
5 2 3 0.47 0.05
-6 -2 -3 5.58 0.24
6 2 3 5.94 0.22
6 2 3 5.74 0.23
-7 -2 -3 1.3 0.1
7 2 3 1.03 0.09
7 2 3 1.16 0.09
-8 -2 -3 4.39 0.21
8 2 3 4.09 0.19
8 2 3 4.14 0.2
-9 -2 -3 9.32 0.4
9 2 3 9.5 0.38
9 2 3 9.73 0.38
-10 -2 -3 4.35 0.25
10 2 3 4.34 0.23
10 2 3 4.35 0.23
-11 -2 -3 -0.09 0.11
11 2 3 -0.04 0.09
8 -3 -3 0 0.08
-8 3 3 0 0.1
7 -3 -3 0.8 0.1
-7 3 3 0.92 0.12
6 -3 -3 2.49 0.16
-6 3 3 2.22 0.17
-6 3 3 2.72 0.16
5 -3 -3 24.34 0.82
-5 3 3 24.28 0.9
-5 3 3 24.03 0.88
4 -3 -3 30.07 0.99
4 -3 -3 29.58 1.02
-4 3 3 29.71 1.06
-4 3 3 29.56 1.09
3 -3 -3 9.27 0.33
3 -3 -3 9.38 0.33
-3 3 3 9.34 0.35
-3 3 3 9.35 0.37
2 -3 -3 2.69 0.11
2 -3 -3 2.64 0.12
-2 3 3 2.55 0.12
-2 3 3 2.93 0.14
1 -3 -3 0.27 0.03
1 -3 -3 0.28 0.03
-1 3 3 0.35 0.05
-1 3 3 0.29 0.03
0 -3 -3 21.42 0.75
0 3 3 22.27 0.72
-1 -3 -3 72.32 2.47
1 3 3 74.4 2.36
-2 -3 -3 8.04 0.29
2 3 3 7.85 0.27
2 3 3 7.86 0.3
3 3 3 0.12 0.03
3 3 3 0.12 0.03
-4 -3 -3 0.31 0.03
4 3 3 0.13 0.03
4 3 3 0.16 0.02
-5 -3 -3 4.59 0.18
5 3 3 4.55 0.18
5 3 3 4.51 0.18
5 3 3 4.52 0.18
-6 -3 -3 9.48 0.36
6 3 3 9.51 0.35
6 3 3 9.64 0.35
-7 -3 -3 3.42 0.17
7 3 3 3.54 0.16
-8 -3 -3 6.01 0.26
8 3 3 5.89 0.25
8 3 3 6.18 0.25
-9 -3 -3 4.09 0.21
9 3 3 3.85 0.2
9 3 3 3.99 0.2
-10 -3 -3 2.24 0.19
10 3 3 2.66 0.18
-11 -3 -3 0.33 0.12
11 3 3 0.45 0.1
7 -4 -3 2.32 0.18
-7 4 3 2.43 0.19
6 -4 -3 4.83 0.23
-6 4 3 4.9 0.25
-6 4 3 4.83 0.25
5 -4 -3 5.57 0.24
-5 4 3 5.47 0.25
-5 4 3 5.33 0.26
4 -4 -3 9.92 0.38
4 -4 -3 10.58 0.38
-4 4 3 10.39 0.42
-4 4 3 10.53 0.4
3 -4 -3 8.78 0.33
3 -4 -3 9.07 0.33
-3 4 3 9.07 0.35
-3 4 3 9.47 0.37
2 -4 -3 4.37 0.18
2 -4 -3 4.49 0.18
-2 4 3 4.45 0.18
-2 4 3 4.41 0.2
1 -4 -3 20.8 0.7
1 -4 -3 21.06 0.72
-1 4 3 21.35 0.78
-1 4 3 20.78 0.74
0 -4 -3 12.99 0.46
0 4 3 13.41 0.5
0 4 3 13.29 0.44
-1 -4 -3 29.74 0.99
1 4 3 29.83 0.94
1 4 3 27.09 1.05
-2 -4 -3 3.88 0.15
2 4 3 3.88 0.14
2 4 3 3.72 0.16
3 4 3 30.63 1
-4 -4 -3 3.81 0.15
-4 -4 -3 3.9 0.16
4 4 3 3.7 0.15
-5 -4 -3 2.59 0.11
-5 -4 -3 2.52 0.12
5 4 3 2.56 0.12
-6 -4 -3 0.14 0.04
-6 -4 -3 0.18 0.04
6 4 3 0.08 0.02
6 4 3 0.25 0.05
-7 -4 -3 3.37 0.16
-7 -4 -3 3.23 0.16
7 4 3 3.5 0.16
-8 -4 -3 1.55 0.12
-8 -4 -3 1.73 0.13
8 4 3 1.88 0.12
-9 -4 -3 2.03 0.16
-9 -4 -3 2.18 0.14
9 4 3 2.48 0.15
-10 -4 -3 0.78 0.11
-10 -4 -3 0.62 0.09
10 4 3 0.78 0.1
-11 -4 -3 0.03 0.1
11 4 3 0.01 0.08
7 -5 -3 0.97 0.12
-7 5 3 0.9 0.13
6 -5 -3 2.73 0.18
-6 5 3 2.79 0.19
5 -5 -3 0.72 0.09
-5 5 3 0.81 0.1
-5 5 3 1.01 0.11
4 -5 -3 7.59 0.3
4 -5 -3 7.62 0.3
-4 5 3 7.95 0.32
-4 5 3 7.7 0.34
3 -5 -3 2.68 0.14
3 -5 -3 2.75 0.14
-3 5 3 2.91 0.17
-3 5 3 2.76 0.14
2 -5 -3 0.7 0.07
2 -5 -3 0.8 0.08
-2 5 3 0.8 0.08
-2 5 3 1 0.09
1 -5 -3 0.19 0.04
1 -5 -3 0.15 0.04
-1 5 3 0.15 0.05
0 -5 -3 23.23 0.82
0 5 3 23.95 0.88
-1 -5 -3 39.36 1.29
1 5 3 33.83 1.37
1 5 3 39.77 1.23
-2 -5 -3 71.3 2.4
2 5 3 69.71 2.29
2 5 3 71.85 2.54
3 5 3 3.63 0.14
3 5 3 3.76 0.17
-4 -5 -3 4.27 0.18
4 5 3 4.29 0.17
4 5 3 4.34 0.19
-5 -5 -3 0.91 0.07
-5 -5 -3 0.96 0.06
5 5 3 0.83 0.07
5 5 3 0.74 0.07
-6 -5 -3 1.43 0.1
-6 -5 -3 1.51 0.09
6 5 3 1.42 0.09
6 5 3 1.4 0.1
-7 -5 -3 3.9 0.18
-7 -5 -3 3.93 0.18
7 5 3 3.78 0.17
7 5 3 3.73 0.17
-8 -5 -3 2.34 0.15
-8 -5 -3 2.54 0.15
8 5 3 2.58 0.15
-9 -5 -3 0.72 0.09
-9 -5 -3 0.58 0.08
9 5 3 0.58 0.08
-10 -5 -3 0.06 0.06
-10 -5 -3 0.12 0.08
10 5 3 0.15 0.08
-11 -5 -3 0.02 0.09
11 5 3 0.06 0.08
6 -6 -3 3.13 0.19
-6 6 3 2.76 0.2
5 -6 -3 1.3 0.12
-5 6 3 1.64 0.15
-5 6 3 1.62 0.16
4 -6 -3 -0.02 0.06
4 -6 -3 -0.03 0.05
-4 6 3 0.06 0.06
-4 6 3 0.08 0.08
3 -6 -3 3.66 0.18
3 -6 -3 3.68 0.18
-3 6 3 3.89 0.22
-3 6 3 3.88 0.18
2 -6 -3 -0.01 0.04
2 -6 -3 0.06 0.05
-2 6 3 0.02 0.05
-2 6 3 0.12 0.07
1 -6 -3 18.14 0.63
1 -6 -3 18.3 0.66
-1 6 3 19.7 0.72
-1 6 3 18.37 0.67
0 -6 -3 41.08 1.44
0 -6 -3 42.26 1.37
0 6 3 42.97 1.54
-1 -6 -3 35.75 1.23
1 6 3 35.77 1.17
-2 -6 -3 27.37 0.96
2 6 3 28.12 1.02
2 6 3 27.2 0.9
3 6 3 48.37 1.77
3 6 3 49.17 1.58
-4 -6 -3 0.53 0.06
4 6 3 0.56 0.06
4 6 3 0.55 0.05
-5 -6 -3 5.29 0.2
-5 -6 -3 5.3 0.22
5 6 3 4.94 0.2
5 6 3 5.11 0.22
-6 -6 -3 7.26 0.28
-6 -6 -3 7.02 0.28
6 6 3 7.05 0.27
6 6 3 7.11 0.29
-7 -6 -3 2.31 0.14
-7 -6 -3 2.36 0.13
7 6 3 2.26 0.13
7 6 3 2.44 0.14
-8 -6 -3 3.88 0.19
-8 -6 -3 4.03 0.19
8 6 3 3.85 0.19
-9 -6 -3 0.98 0.1
-9 -6 -3 0.92 0.09
9 6 3 0.91 0.09
-10 -6 -3 -0.04 0.07
-10 -6 -3 0 0.06
10 6 3 0.02 0.07
-11 -6 -3 -0.05 0.08
11 6 3 -0.01 0.08
5 -7 -3 0.87 0.11
-5 7 3 0.87 0.13
4 -7 -3 0.06 0.07
4 -7 -3 -0.1 0.06
-4 7 3 0.21 0.1
3 -7 -3 -0.01 0.05
3 -7 -3 -0.03 0.06
-3 7 3 0.06 0.08
2 -7 -3 1.71 0.12
2 -7 -3 1.68 0.13
-2 7 3 1.88 0.16
-2 7 3 1.77 0.12
1 -7 -3 5.37 0.23
1 -7 -3 5.47 0.21
-1 7 3 5.32 0.26
-1 7 3 5.2 0.22
0 -7 -3 16.46 0.59
0 -7 -3 16.01 0.55
0 7 3 15.97 0.63
-1 -7 -3 17.96 0.66
1 7 3 18.75 0.62
-2 -7 -3 5.74 0.23
2 7 3 5.66 0.2
2 7 3 4.5 0.24
3 7 3 3.75 0.19
3 7 3 3.82 0.15
-4 -7 -3 5.96 0.25
4 7 3 6.07 0.23
4 7 3 6.18 0.27
-5 -7 -3 8.35 0.33
5 7 3 8.18 0.35
5 7 3 8.62 0.31
-6 -7 -3 9.4 0.36
-6 -7 -3 9.73 0.37
6 7 3 9.17 0.35
6 7 3 9.37 0.38
-7 -7 -3 6.99 0.28
-7 -7 -3 6.95 0.29
7 7 3 6.75 0.28
7 7 3 7.06 0.3
-8 -7 -3 1.09 0.1
-8 -7 -3 1.33 0.11
8 7 3 1.33 0.12
8 7 3 1.25 0.12
-9 -7 -3 0.3 0.07
-9 -7 -3 0.14 0.07
9 7 3 0.21 0.07
-10 -7 -3 0.09 0.08
-10 -7 -3 0.14 0.07
10 7 3 0.14 0.07
-4 8 3 0 0.1
3 -8 -3 1.38 0.13
3 -8 -3 1.49 0.13
-3 8 3 1.46 0.15
2 -8 -3 0.26 0.08
2 -8 -3 0.36 0.07
-2 8 3 0.25 0.1
1 -8 -3 5.78 0.26
1 -8 -3 5.91 0.24
-1 8 3 5.99 0.3
0 -8 -3 7.31 0.31
0 -8 -3 7.75 0.29
0 8 3 7.91 0.35
-1 -8 -3 1.61 0.13
1 8 3 1.63 0.15
-2 -8 -3 1.51 0.12
2 8 3 1.49 0.14
2 8 3 1.48 0.09
-3 -8 -3 0.14 0.06
3 8 3 0.28 0.04
3 8 3 0.25 0.06
-4 -8 -3 0.37 0.07
4 8 3 0.38 0.05
4 8 3 0.43 0.08
-5 -8 -3 19.97 0.72
5 8 3 19.93 0.76
5 8 3 19.73 0.67
-6 -8 -3 7.92 0.33
6 8 3 7.85 0.34
6 8 3 7.62 0.3
-7 -8 -3 1.61 0.14
7 8 3 1.41 0.11
7 8 3 1.52 0.14
-8 -8 -3 0.68 0.09
8 8 3 0.68 0.08
8 8 3 0.72 0.09
-9 -8 -3 0.01 0.07
9 8 3 -0.04 0.06
-10 -8 -3 0.06 0.08
10 8 3 -0.02 0.07
3 -9 -3 0.87 0.12
-3 9 3 1.08 0.15
2 -9 -3 3.19 0.2
-2 9 3 2.92 0.23
1 -9 -3 4.62 0.24
-1 9 3 4.8 0.28
0 -9 -3 0.91 0.11
0 9 3 0.98 0.13
-1 -9 -3 5.47 0.26
1 9 3 5.43 0.29
-2 -9 -3 1.43 0.12
2 9 3 1.54 0.15
-3 -9 -3 0.39 0.08
3 9 3 0.46 0.09
-4 -9 -3 2.47 0.17
4 9 3 2.64 0.13
4 9 3 2.47 0.18
-5 -9 -3 5.36 0.25
5 9 3 5.33 0.27
5 9 3 5.04 0.21
-6 -9 -3 3.25 0.19
6 9 3 3.01 0.15
6 9 3 3.12 0.19
-7 -9 -3 1.08 0.12
7 9 3 1.22 0.12
7 9 3 1.33 0.12
-8 -9 -3 0.25 0.09
8 9 3 0.29 0.07
8 9 3 0.36 0.09
-9 -9 -3 0 0.08
9 9 3 0 0.06
1 -10 -3 1.84 0.18
-1 10 3 1.36 0.16
0 -10 -3 3.1 0.21
0 10 3 3.35 0.25
-1 -10 -3 -0.07 0.07
1 10 3 -0.08 0.09
-2 -10 -3 0.04 0.08
2 10 3 0.06 0.09
-3 -10 -3 0.77 0.11
3 10 3 1.05 0.13
-4 -10 -3 3.9 0.22
4 10 3 3.82 0.24
-5 -10 -3 1.43 0.13
5 10 3 1.77 0.18
-6 -10 -3 1.47 0.13
6 10 3 1.39 0.14
-7 -10 -3 0.04 0.08
7 10 3 0.05 0.08
-8 -10 -3 0.01 0.09
8 10 3 -0.04 0.08
-1 -11 -3 0.09 0.1
1 11 3 0.12 0.11
-2 -11 -3 1.3 0.14
2 11 3 1.14 0.16
-3 -11 -3 1.64 0.15
3 11 3 1.6 0.17
-4 -11 -3 2.68 0.2
4 11 3 2.25 0.22
-5 -11 -3 1.13 0.13
5 11 3 1.2 0.15
-6 -11 -3 0.02 0.09
6 11 3 0.1 0.09
5 8 -4 0.11 0.11
-5 -8 4 0.01 0.09
4 8 -4 1.1 0.14
-4 -8 4 1.29 0.14
-4 -8 4 1.05 0.11
3 8 -4 0.05 0.1
-3 -8 4 0 0.07
-3 -8 4 -0.03 0.08
2 8 -4 0.03 0.1
-2 -8 4 0.16 0.09
-2 -8 4 0.03 0.08
1 8 -4 0.45 0.12
-1 -8 4 0.37 0.1
-1 -8 4 0.23 0.09
0 8 -4 0.53 0.12
0 -8 4 0.43 0.1
0 -8 4 0.36 0.1
-1 8 -4 0.19 0.11
1 -8 4 0.06 0.09
1 -8 4 0.15 0.09
-2 8 -4 0.15 0.11
2 -8 4 -0.11 0.08
6 7 -4 0.1 0.1
-6 -7 4 0.08 0.09
5 7 -4 0 0.09
-5 -7 4 -0.19 0.08
4 7 -4 0.1 0.09
-4 -7 4 -0.05 0.08
-4 -7 4 0 0.07
3 7 -4 0.46 0.11
-3 -7 4 0.37 0.09
-3 -7 4 0.49 0.08
2 7 -4 0.08 0.09
-2 -7 4 0.11 0.07
-2 -7 4 0.06 0.07
1 7 -4 3.36 0.22
-1 -7 4 2.96 0.19
-1 -7 4 2.68 0.18
0 7 -4 3.02 0.22
0 -7 4 2.9 0.19
0 -7 4 2.98 0.19
-1 7 -4 1.23 0.14
1 -7 4 1.6 0.16
1 -7 4 1.38 0.13
-2 7 -4 1.38 0.14
2 -7 4 1.31 0.14
2 -7 4 1.24 0.12
-3 7 -4 2.07 0.19
-3 7 -4 2.17 0.2
3 -7 4 2 0.18
-4 7 -4 0.14 0.11
4 -7 4 0.15 0.09
7 6 -4 0.64 0.12
-7 -6 4 0.81 0.12
6 6 -4 0 0.09
-6 -6 4 0.07 0.09
5 6 -4 0.44 0.1
-5 -6 4 0.53 0.1
4 6 -4 0.01 0.08
-4 -6 4 0.05 0.07
-4 -6 4 -0.01 0.05
3 6 -4 1.68 0.16
-3 -6 4 1.12 0.11
-3 -6 4 1.52 0.12
2 6 -4 1.05 0.11
-2 -6 4 0.96 0.1
-2 -6 4 0.9 0.09
1 6 -4 5.71 0.28
-1 -6 4 5.34 0.25
-1 -6 4 5.45 0.25
0 6 -4 2.68 0.18
0 -6 4 2.36 0.16
0 -6 4 2.37 0.16
-1 6 -4 2.99 0.2
1 -6 4 3.2 0.19
1 -6 4 3.12 0.18
-2 6 -4 0.36 0.09
2 -6 4 0.33 0.08
2 -6 4 0.55 0.1
-3 6 -4 0.15 0.08
3 -6 4 0.2 0.08
-4 6 -4 0.15 0.09
4 -6 4 0.22 0.08
-5 6 -4 6.43 0.33
5 -6 4 6.39 0.32
-6 6 -4 2.36 0.22
6 -6 4 1.59 0.16
8 5 -4 0.42 0.11
-8 -5 4 0.59 0.12
7 5 -4 0.14 0.09
-7 -5 4 0.11 0.09
6 5 -4 0.4 0.1
-6 -5 4 0.58 0.1
5 5 -4 -0.06 0.07
-5 -5 4 0.02 0.07
4 5 -4 0.3 0.08
-4 -5 4 0.18 0.07
-4 -5 4 0.26 0.05
3 5 -4 0.57 0.09
-3 -5 4 0.49 0.08
-3 -5 4 0.6 0.07
2 5 -4 9.69 0.41
-2 -5 4 9.73 0.37
-2 -5 4 9.88 0.39
1 5 -4 1.66 0.14
-1 -5 4 2.05 0.13
-1 -5 4 1.65 0.12
0 5 -4 3.28 0.19
0 -5 4 3.56 0.18
0 -5 4 3.47 0.17
-1 5 -4 0.26 0.07
1 -5 4 0.17 0.05
1 -5 4 0.24 0.06
-2 5 -4 0.05 0.07
2 -5 4 0.03 0.05
2 -5 4 0.05 0.06
-3 5 -4 3.87 0.21
3 -5 4 4.2 0.21
-4 5 -4 12.96 0.51
-4 5 -4 12.73 0.51
4 -5 4 12.26 0.49
-5 5 -4 3.18 0.22
5 -5 4 3.46 0.21
-6 5 -4 7.92 0.37
6 -5 4 7.37 0.34
-7 5 -4 1.03 0.15
7 -5 4 0.51 0.11
8 4 -4 0.16 0.08
8 4 -4 0.18 0.09
-8 -4 4 0.33 0.11
7 4 -4 0.03 0.08
7 4 -4 0.1 0.07
-7 -4 4 0.08 0.09
6 4 -4 0.26 0.06
6 4 -4 0.27 0.08
-6 -4 4 0.4 0.09
5 4 -4 0.74 0.07
5 4 -4 0.63 0.09
-5 -4 4 0.82 0.1
4 4 -4 0.16 0.07
4 4 -4 0.21 0.04
-4 -4 4 0.18 0.06
-4 -4 4 0.3 0.04
3 4 -4 6.3 0.23
3 4 -4 6.51 0.29
-3 -4 4 6.59 0.27
-3 -4 4 6.28 0.25
-2 -4 4 5.49 0.22
-2 -4 4 5.72 0.24
1 4 -4 5.41 0.25
-1 -4 4 5.43 0.22
-1 -4 4 5.46 0.23
0 4 -4 13.62 0.54
0 -4 4 13.92 0.51
0 -4 4 14.51 0.52
-1 4 -4 0.18 0.05
1 -4 4 0.11 0.05
1 -4 4 0.06 0.04
-2 4 -4 1.31 0.11
2 -4 4 1.18 0.1
2 -4 4 1.24 0.1
-3 4 -4 11.42 0.45
3 -4 4 11.28 0.43
-4 4 -4 16.59 0.62
-4 4 -4 15.99 0.62
4 -4 4 16.12 0.6
-5 4 -4 7.27 0.33
5 -4 4 7.5 0.32
-6 4 -4 7.55 0.36
6 -4 4 7.56 0.33
-7 4 -4 -0.02 0.1
7 -4 4 -0.11 0.07
-8 4 -4 0.19 0.12
8 -4 4 0.12 0.09
8 3 -4 0.17 0.08
8 3 -4 0.27 0.09
-8 -3 4 0.33 0.11
7 3 -4 0.02 0.07
7 3 -4 0.06 0.06
-7 -3 4 0.15 0.08
6 3 -4 0.14 0.05
6 3 -4 0.19 0.07
-6 -3 4 0.24 0.08
5 3 -4 1.83 0.11
5 3 -4 2.04 0.14
-5 -3 4 1.92 0.14
4 3 -4 0.89 0.09
4 3 -4 0.95 0.07
-4 -3 4 0.87 0.09
3 3 -4 3.72 0.18
3 3 -4 3.82 0.14
-3 -3 4 3.37 0.17
-3 -3 4 3.03 0.14
2 3 -4 3.69 0.14
-2 -3 4 3.82 0.17
-2 -3 4 3.63 0.15
1 3 -4 7.52 0.31
-1 -3 4 7.38 0.29
-1 -3 4 7.47 0.28
0 3 -4 4.37 0.2
0 -3 4 4.43 0.18
0 -3 4 4.46 0.19
-1 3 -4 5.68 0.25
1 -3 4 5.94 0.23
1 -3 4 6.04 0.24
-2 3 -4 11.55 0.44
2 -3 4 11.42 0.43
2 -3 4 11.32 0.42
-3 3 -4 14.86 0.56
3 -3 4 14.5 0.55
-4 3 -4 21.29 0.77
-4 3 -4 20.7 0.77
4 -3 4 20.54 0.75
-5 3 -4 14.07 0.54
5 -3 4 13.88 0.52
5 -3 4 13.87 0.48
-6 3 -4 0.83 0.11
6 -3 4 0.87 0.1
6 -3 4 1.02 0.09
-7 3 -4 0.53 0.11
7 -3 4 0.43 0.07
7 -3 4 0.49 0.09
-8 3 -4 0.98 0.14
8 -3 4 1.06 0.12
9 -3 4 0.61 0.11
8 2 -4 0.16 0.08
8 2 -4 0.18 0.08
-8 -2 4 0.26 0.1
7 2 -4 0.21 0.07
-7 -2 4 0.21 0.09
6 2 -4 0.04 0.05
-6 -2 4 -0.15 0.09
-6 -2 4 -0.1 0.07
5 2 -4 0.3 0.05
-5 -2 4 0.33 0.09
-5 -2 4 0.3 0.07
4 2 -4 2.83 0.13
-4 -2 4 2.93 0.17
3 2 -4 7.61 0.27
-3 -2 4 7.25 0.27
-3 -2 4 7.91 0.32
2 2 -4 4.58 0.16
-2 -2 4 4.25 0.17
1 2 -4 6.21 0.21
1 2 -4 6.07 0.25
0 2 -4 14.34 0.53
0 -2 4 13.86 0.49
-1 2 -4 4.32 0.19
1 -2 4 4.65 0.18
-2 2 -4 62.3 2.14
2 -2 4 64.94 2.03
2 -2 4 52.01 2.09
-3 2 -4 41.92 1.39
3 -2 4 34.95 1.36
3 -2 4 38.94 1.33
-4 2 -4 9.91 0.37
4 -2 4 9.45 0.33
-5 2 -4 8.02 0.32
5 -2 4 8.6 0.3
5 -2 4 8.34 0.33
-6 2 -4 2.25 0.16
6 -2 4 2.24 0.14
6 -2 4 2.02 0.12
-7 2 -4 1.33 0.13
7 -2 4 1.31 0.11
7 -2 4 1.26 0.11
-8 2 -4 4.83 0.27
8 -2 4 4.42 0.22
8 -2 4 4.39 0.23
-9 2 -4 1.67 0.17
9 -2 4 1.49 0.13
9 -2 4 1.45 0.14
8 1 -4 2.05 0.17
-8 -1 4 2.18 0.18
-8 -1 4 1.97 0.19
7 1 -4 0.03 0.06
-7 -1 4 -0.03 0.08
-7 -1 4 0.03 0.08
6 1 -4 0.95 0.08
-6 -1 4 1.17 0.11
-6 -1 4 0.74 0.1
5 1 -4 4.43 0.19
-5 -1 4 4.48 0.21
-5 -1 4 4.32 0.21
4 1 -4 1.94 0.1
-4 -1 4 1.99 0.12
-4 -1 4 1.68 0.12
3 1 -4 22.72 0.75
-3 -1 4 22.73 0.83
-3 -1 4 22.05 0.81
2 1 -4 13.87 0.46
-2 -1 4 13.55 0.5
-2 -1 4 14.06 0.52
1 1 -4 3.5 0.13
-1 -1 4 3.35 0.15
-1 -1 4 3.36 0.16
-1 -1 4 3.45 0.13
0 1 -4 0.51 0.03
0 -1 4 0.36 0.04
0 -1 4 0.66 0.06
0 -1 4 0.54 0.04
1 -1 4 11.37 0.44
1 -1 4 13.08 0.4
-2 1 -4 16.29 0.58
2 -1 4 14.34 0.57
2 -1 4 16.05 0.55
2 -1 4 16.49 0.52
-3 1 -4 96.39 3.52
3 -1 4 98.98 3.18
3 -1 4 104.97 3.44
3 -1 4 95.6 3.34
-4 1 -4 18.86 0.7
-4 1 -4 18.77 0.7
4 -1 4 20 0.64
4 -1 4 19.03 0.68
-5 1 -4 5.71 0.22
5 -1 4 5.73 0.23
5 -1 4 5.72 0.21
-6 1 -4 0.62 0.08
6 -1 4 0.77 0.07
6 -1 4 0.62 0.07
-7 1 -4 1.22 0.12
7 -1 4 1.38 0.12
7 -1 4 1.36 0.11
-8 1 -4 2.9 0.2
8 -1 4 2.79 0.16
8 -1 4 2.73 0.17
-9 1 -4 6.46 0.33
9 -1 4 6.85 0.3
9 -1 4 6.47 0.29
-10 1 -4 0.66 0.14
10 -1 4 0.62 0.1
10 -1 4 0.68 0.1
8 0 -4 0.33 0.09
-8 0 4 0.25 0.1
7 0 -4 0.43 0.08
-7 0 4 0.38 0.08
-7 0 4 0.25 0.09
6 0 -4 2.82 0.15
-6 0 4 2.56 0.18
-6 0 4 2.73 0.17
5 0 -4 5.55 0.23
-5 0 4 5.62 0.25
-5 0 4 5.52 0.25
4 0 -4 25.54 0.84
-4 0 4 24.42 0.93
-4 0 4 25.19 0.9
3 0 -4 6.87 0.25
-3 0 4 6.9 0.27
-3 0 4 6.96 0.28
2 0 -4 4.41 0.17
-2 0 4 4.41 0.18
-2 0 4 4.54 0.19
1 0 -4 0.94 0.05
-1 0 4 0.95 0.06
-1 0 4 0.98 0.04
0 0 4 0.03 0.02
0 0 4 0.16 0.02
0 0 4 0.09 0.02
1 0 4 1.18 0.06
1 0 4 0.93 0.06
1 0 4 1 0.05
2 0 4 14.33 0.51
2 0 4 14.8 0.52
-3 0 -4 11.9 0.41
3 0 4 11.82 0.41
3 0 4 9.33 0.4
3 0 4 11.46 0.38
-4 0 -4 4.49 0.19
-4 0 -4 4.1 0.17
4 0 4 4.79 0.19
4 0 4 4.81 0.17
-5 0 -4 1.14 0.09
5 0 4 1.21 0.07
5 0 4 1.27 0.08
-6 0 -4 1.28 0.11
6 0 4 1.25 0.09
6 0 4 1.25 0.09
-7 0 -4 1.34 0.13
7 0 4 1.32 0.1
7 0 4 1.24 0.11
-8 0 -4 20.25 0.77
8 0 4 20.29 0.73
8 0 4 20.08 0.7
-9 0 -4 4.46 0.26
9 0 4 4.66 0.23
9 0 4 4.79 0.23
-10 0 -4 0.69 0.13
10 0 4 0.65 0.11
10 0 4 0.83 0.11
8 -1 -4 -0.1 0.07
-8 1 4 0.03 0.09
7 -1 -4 -0.03 0.07
-7 1 4 0.01 0.08
-7 1 4 0.13 0.07
6 -1 -4 9.55 0.37
-6 1 4 9.93 0.4
-6 1 4 9.41 0.4
5 -1 -4 12.62 0.46
-5 1 4 13.07 0.51
-5 1 4 13.44 0.5
4 -1 -4 6.31 0.24
-4 1 4 6.53 0.26
-4 1 4 6.05 0.27
3 -1 -4 12.53 0.43
-3 1 4 12.43 0.46
-3 1 4 12.36 0.48
2 -1 -4 8.81 0.31
-2 1 4 8.94 0.35
-2 1 4 8.81 0.33
-1 1 4 0.03 0.02
-1 1 4 0.11 0.03
0 1 4 11.05 0.4
0 1 4 11.32 0.38
1 1 4 3.61 0.14
1 1 4 3.66 0.13
1 1 4 3.79 0.15
1 1 4 3.73 0.14
2 1 4 1.71 0.08
2 1 4 1.37 0.08
2 1 4 1.65 0.08
2 1 4 1.69 0.07
-4 -1 -4 25.3 0.9
4 1 4 25.27 0.88
4 1 4 25.28 0.83
-5 -1 -4 0.17 0.04
5 1 4 0.27 0.04
5 1 4 0.21 0.04
-6 -1 -4 1.55 0.11
6 1 4 1.52 0.1
6 1 4 1.65 0.09
-7 -1 -4 10.06 0.38
7 1 4 9.35 0.36
7 1 4 9.08 0.35
-8 -1 -4 4.08 0.22
8 1 4 4.16 0.2
8 1 4 4.28 0.2
-9 -1 -4 6.95 0.33
9 1 4 7.1 0.31
9 1 4 7.25 0.3
-10 -1 -4 3.12 0.23
10 1 4 3.4 0.2
10 1 4 3.29 0.19
8 -2 -4 0.26 0.09
-8 2 4 0.24 0.11
7 -2 -4 2.24 0.17
-7 2 4 2.19 0.18
-7 2 4 2.26 0.17
6 -2 -4 0.45 0.08
-6 2 4 0.53 0.09
-6 2 4 0.48 0.09
5 -2 -4 14.43 0.51
-5 2 4 14.2 0.56
-5 2 4 14.89 0.55
-4 2 4 16.07 0.59
-4 2 4 15.39 0.6
-3 2 4 18.2 0.72
-3 2 4 20.13 0.7
2 -2 -4 -0.01 0.03
-2 2 4 -0.02 0.03
-2 2 4 0 0.03
1 -2 -4 3.79 0.14
1 -2 -4 3.94 0.15
-1 2 4 4.01 0.17
0 2 4 0.33 0.03
2 2 4 23.44 0.85
2 2 4 23.08 0.81
2 2 4 24.24 0.83
-3 -2 -4 62.31 2.09
3 2 4 65.58 2.14
3 2 4 52.61 1.94
-4 -2 -4 4.37 0.17
4 2 4 4.14 0.16
4 2 4 3.83 0.17
4 2 4 4.18 0.16
-5 -2 -4 4.22 0.19
5 2 4 4.62 0.19
5 2 4 4.66 0.18
-6 -2 -4 0.29 0.05
6 2 4 0.14 0.04
6 2 4 0.28 0.04
-7 -2 -4 3.3 0.17
7 2 4 3.28 0.16
7 2 4 3.45 0.16
-8 -2 -4 4.94 0.24
8 2 4 5.03 0.22
8 2 4 4.97 0.22
-9 -2 -4 5 0.26
9 2 4 5.3 0.24
9 2 4 5.28 0.24
-10 -2 -4 0.85 0.13
10 2 4 0.81 0.11
10 2 4 0.85 0.1
-11 -2 -4 0.29 0.12
11 2 4 0.39 0.1
7 -3 -4 0.31 0.09
-7 3 4 0.37 0.1
6 -3 -4 2.34 0.16
-6 3 4 1.83 0.16
-6 3 4 2.15 0.16
5 -3 -4 8.73 0.34
-5 3 4 8.68 0.37
-5 3 4 8.99 0.36
4 -3 -4 10.04 0.36
-4 3 4 9.73 0.38
-4 3 4 9.51 0.4
3 -3 -4 2.19 0.12
3 -3 -4 2.27 0.1
-3 3 4 2.49 0.14
-3 3 4 2.4 0.12
2 -3 -4 1.26 0.09
2 -3 -4 1.38 0.07
-2 3 4 1.31 0.1
-2 3 4 1.36 0.08
1 -3 -4 10.98 0.37
1 -3 -4 10.72 0.38
-1 3 4 10.84 0.42
0 -3 -4 61.4 2.06
0 3 4 60.76 2.11
0 3 4 60.75 1.97
1 3 4 70.79 2.53
2 3 4 26.76 0.97
-4 -3 -4 2 0.08
4 3 4 1.84 0.08
4 3 4 1.41 0.08
-5 -3 -4 2.1 0.1
5 3 4 1.76 0.09
5 3 4 1.83 0.08
5 3 4 2.1 0.1
-6 -3 -4 3.99 0.18
6 3 4 4.2 0.18
-7 -3 -4 4.62 0.2
7 3 4 4.64 0.2
7 3 4 4.01 0.18
-8 -3 -4 4.03 0.2
8 3 4 4.38 0.19
8 3 4 4.03 0.19
-9 -3 -4 0.89 0.1
9 3 4 0.86 0.1
9 3 4 0.98 0.1
-10 -3 -4 1.25 0.13
10 3 4 1.14 0.11
10 3 4 1.48 0.12
-11 -3 -4 0.16 0.1
11 3 4 0.14 0.09
7 -4 -4 2.07 0.18
-7 4 4 2.04 0.18
6 -4 -4 2.06 0.16
-6 4 4 1.9 0.16
-6 4 4 1.95 0.16
5 -4 -4 0.08 0.06
-5 4 4 0.09 0.07
-5 4 4 0.05 0.07
4 -4 -4 12.84 0.47
-4 4 4 13.1 0.52
-4 4 4 13.38 0.5
3 -4 -4 2 0.1
3 -4 -4 1.95 0.12
-3 4 4 2.03 0.12
-3 4 4 1.94 0.13
2 -4 -4 17 0.59
2 -4 -4 17.08 0.58
-2 4 4 16.71 0.64
-2 4 4 16.61 0.61
1 -4 -4 29.3 0.98
1 -4 -4 29.48 1.02
-1 4 4 30.67 1.1
0 -4 -4 61.29 2.1
0 4 4 63.18 2.01
-1 -4 -4 50.61 1.7
1 4 4 49.31 1.81
1 4 4 50.72 1.63
-2 -4 -4 186.27 6.24
2 4 4 182.85 6.58
2 4 4 186.6 5.94
-3 -4 -4 3.74 0.15
3 4 4 3.57 0.14
-4 -4 -4 0.07 0.02
4 4 4 0.04 0.02
4 4 4 0.13 0.03
-5 -4 -4 7.93 0.29
-5 -4 -4 7.94 0.29
5 4 4 7.4 0.29
5 4 4 7.41 0.28
-6 -4 -4 3.84 0.17
-6 -4 -4 3.89 0.17
6 4 4 3.89 0.16
7 4 4 4.34 0.18
-8 -4 -4 6.54 0.28
8 4 4 6.97 0.27
-9 -4 -4 0.66 0.09
9 4 4 0.63 0.08
-10 -4 -4 -0.04 0.07
-10 -4 -4 0.08 0.06
10 4 4 0.01 0.07
-11 -4 -4 0.01 0.07
-11 -4 -4 -0.03 0.09
11 4 4 -0.07 0.08
6 -5 -4 1.18 0.13
-6 5 4 1.23 0.13
-6 5 4 1.61 0.16
5 -5 -4 2.45 0.17
-5 5 4 2.63 0.17
-5 5 4 2.64 0.18
4 -5 -4 0.68 0.08
-4 5 4 0.76 0.08
-4 5 4 0.74 0.1
3 -5 -4 -0.03 0.05
3 -5 -4 0.05 0.04
-3 5 4 0.02 0.07
-3 5 4 -0.02 0.05
2 -5 -4 0.43 0.06
2 -5 -4 0.46 0.05
-2 5 4 0.49 0.08
-2 5 4 0.55 0.06
1 -5 -4 27.89 0.96
1 -5 -4 28.19 0.93
-1 5 4 27.75 1.03
0 -5 -4 23.21 0.82
0 5 4 24.09 0.88
-1 -5 -4 52.09 1.76
1 5 4 50.69 1.87
1 5 4 52.61 1.68
-2 -5 -4 43.11 1.46
2 5 4 42.13 1.39
2 5 4 43 1.55
-3 -5 -4 1.06 0.08
3 5 4 1.25 0.08
3 5 4 1.1 0.07
4 5 4 13.62 0.51
4 5 4 13.61 0.47
-5 -5 -4 10.63 0.38
-5 -5 -4 10.65 0.39
5 5 4 10.24 0.37
5 5 4 10.64 0.4
-6 -5 -4 18.97 0.66
-6 -5 -4 18.04 0.65
6 5 4 18.56 0.68
6 5 4 17.86 0.63
-7 -5 -4 8.24 0.32
-7 -5 -4 8.28 0.32
7 5 4 8.33 0.31
7 5 4 8.15 0.32
-8 -5 -4 1.55 0.12
-8 -5 -4 1.54 0.11
8 5 4 1.73 0.12
-9 -5 -4 0 0.06
-9 -5 -4 -0.05 0.06
9 5 4 -0.01 0.05
-10 -5 -4 0.01 0.06
-10 -5 -4 -0.08 0.07
10 5 4 -0.04 0.06
-11 -5 -4 -0.03 0.07
-11 -5 -4 -0.03 0.08
11 5 4 -0.09 0.07
6 -6 -4 0.51 0.1
-6 6 4 0.66 0.12
5 -6 -4 0.15 0.08
-5 6 4 0.22 0.09
-5 6 4 0.24 0.08
4 -6 -4 -0.02 0.06
-4 6 4 -0.01 0.06
-4 6 4 0.04 0.08
3 -6 -4 0 0.06
3 -6 -4 -0.01 0.05
-3 6 4 0.04 0.08
-3 6 4 0.03 0.05
2 -6 -4 7.08 0.27
2 -6 -4 7.05 0.28
-2 6 4 6.82 0.28
-2 6 4 7.41 0.32
1 -6 -4 13.5 0.48
1 -6 -4 13.07 0.46
-1 6 4 13.47 0.53
-1 6 4 12.92 0.48
0 -6 -4 13.41 0.44
0 6 4 10.29 0.47
-1 -6 -4 19.79 0.7
1 6 4 20.02 0.67
-2 -6 -4 7.39 0.29
2 6 4 7.73 0.31
2 6 4 7.36 0.27
-3 -6 -4 0.52 0.05
3 6 4 0.59 0.05
3 6 4 0.59 0.06
4 6 4 46.03 1.54
4 6 4 48.18 1.71
-5 -6 -4 26.36 0.93
5 6 4 26.73 0.89
5 6 4 26.67 0.98
-6 -6 -4 6.63 0.25
-6 -6 -4 6.27 0.26
6 6 4 6.56 0.27
6 6 4 6.38 0.25
-7 -6 -4 5.29 0.22
-7 -6 -4 4.74 0.22
7 6 4 5.3 0.23
7 6 4 5.27 0.22
-8 -6 -4 1.69 0.13
-8 -6 -4 1.8 0.12
8 6 4 1.9 0.13
-9 -6 -4 0.12 0.06
-9 -6 -4 0.11 0.06
9 6 4 0.15 0.06
-10 -6 -4 0.19 0.07
-10 -6 -4 0.4 0.09
10 6 4 0.26 0.07
-11 -6 -4 0.18 0.09
-11 -6 -4 0.04 0.07
11 6 4 -0.04 0.07
5 -7 -4 0.21 0.09
-5 7 4 0.28 0.11
4 -7 -4 0.5 0.09
-4 7 4 0.67 0.12
3 -7 -4 3.83 0.19
3 -7 -4 3.63 0.19
-3 7 4 3.72 0.23
2 -7 -4 7.14 0.29
2 -7 -4 6.96 0.28
-2 7 4 7.32 0.34
1 -7 -4 3.37 0.16
1 -7 -4 3.35 0.17
-1 7 4 3.4 0.21
0 -7 -4 28.74 1.01
0 -7 -4 28.71 0.96
0 7 4 29.42 1.09
-1 -7 -4 8.34 0.33
1 7 4 8.42 0.3
-2 -7 -4 0.19 0.05
2 7 4 0.31 0.06
2 7 4 0.24 0.04
-3 -7 -4 4.81 0.21
3 7 4 4.76 0.22
3 7 4 4.74 0.19
4 7 4 12.99 0.45
4 7 4 13.04 0.51
-5 -7 -4 14 0.52
5 7 4 13.66 0.49
5 7 4 14.31 0.54
-6 -7 -4 5.99 0.26
6 7 4 6.19 0.27
6 7 4 6.22 0.25
-7 -7 -4 6.67 0.27
-7 -7 -4 6.75 0.28
7 7 4 6.69 0.27
7 7 4 6.74 0.29
-8 -7 -4 0.69 0.08
-8 -7 -4 0.67 0.09
8 7 4 0.8 0.09
8 7 4 0.73 0.08
-9 -7 -4 -0.04 0.05
-9 -7 -4 0.02 0.06
9 7 4 -0.08 0.06
-10 -7 -4 0.24 0.08
-10 -7 -4 0.34 0.08
10 7 4 0.28 0.08
-11 -7 -4 0.17 0.08
11 7 4 0.09 0.08
4 -8 -4 0.25 0.08
-4 8 4 0.33 0.12
3 -8 -4 0.97 0.11
3 -8 -4 1 0.1
-3 8 4 1.11 0.14
2 -8 -4 4.96 0.21
2 -8 -4 4.58 0.23
-2 8 4 4.49 0.27
1 -8 -4 13.06 0.46
1 -8 -4 12.85 0.49
-1 8 4 12.82 0.54
0 -8 -4 0.16 0.06
0 -8 -4 0.18 0.05
0 8 4 0.19 0.08
-1 -8 -4 4.71 0.22
1 8 4 5 0.25
-2 -8 -4 0.89 0.09
2 8 4 0.83 0.07
2 8 4 0.78 0.1
-3 -8 -4 3.17 0.17
3 8 4 3.23 0.19
3 8 4 3.49 0.15
-4 -8 -4 4.52 0.21
4 8 4 4.39 0.22
4 8 4 4.41 0.18
-5 -8 -4 5.45 0.24
5 8 4 5.31 0.25
5 8 4 5.27 0.21
-6 -8 -4 1.81 0.14
6 8 4 2.15 0.13
6 8 4 2.31 0.15
-7 -8 -4 1.95 0.15
7 8 4 1.94 0.14
7 8 4 2.05 0.13
-8 -8 -4 0.17 0.07
8 8 4 0.2 0.06
8 8 4 0.15 0.06
-9 -8 -4 0.17 0.08
9 8 4 0.17 0.07
-10 -8 -4 0.22 0.08
10 8 4 0.27 0.08
-3 9 4 1.23 0.16
2 -9 -4 1.29 0.13
-2 9 4 1.54 0.17
1 -9 -4 2.91 0.19
1 -9 -4 3.26 0.18
-1 9 4 2.71 0.23
0 -9 -4 0.24 0.06
0 -9 -4 0.24 0.08
0 9 4 0.35 0.1
-1 -9 -4 1.56 0.14
-1 -9 -4 1.56 0.11
1 9 4 1.63 0.15
-2 -9 -4 2.13 0.15
2 9 4 2.16 0.12
2 9 4 2.18 0.17
-3 -9 -4 5.22 0.25
3 9 4 5.27 0.21
3 9 4 5.24 0.27
-4 -9 -4 4.48 0.22
4 9 4 4.03 0.23
4 9 4 4.31 0.18
-5 -9 -4 1.92 0.15
5 9 4 1.81 0.15
5 9 4 1.8 0.11
-6 -9 -4 2.59 0.17
6 9 4 2.55 0.17
6 9 4 2.62 0.14
-7 -9 -4 0.96 0.11
7 9 4 0.95 0.09
7 9 4 0.94 0.11
-8 -9 -4 0.08 0.07
8 9 4 0.02 0.06
8 9 4 0.03 0.07
-9 -9 -4 0.25 0.09
9 9 4 0.45 0.08
1 -10 -4 1.81 0.17
-1 10 4 1.95 0.19
0 -10 -4 0.6 0.1
0 10 4 0.62 0.12
-1 -10 -4 9.04 0.38
1 10 4 8.81 0.42
-2 -10 -4 0.37 0.09
2 10 4 0.53 0.11
-3 -10 -4 3.28 0.2
3 10 4 3.05 0.22
-4 -10 -4 2.13 0.17
4 10 4 2.38 0.18
-5 -10 -4 1.81 0.17
5 10 4 2.08 0.18
-6 -10 -4 0.65 0.1
6 10 4 0.8 0.11
-7 -10 -4 -0.12 0.07
7 10 4 0.02 0.07
-8 -10 -4 0.37 0.1
8 10 4 0.44 0.09
-1 -11 -4 0.12 0.1
1 11 4 0.21 0.12
-2 -11 -4 3.76 0.24
2 11 4 3.95 0.27
-3 -11 -4 0.27 0.09
3 11 4 0.05 0.1
-4 -11 -4 0.1 0.09
4 11 4 0.06 0.09
-5 -11 -4 0.35 0.1
5 11 4 0.31 0.1
-6 -11 -4 -0.05 0.08
6 11 4 -0.06 0.08
-7 -11 -4 -0.09 0.09
7 11 4 -0.02 0.09
3 8 -5 0.12 0.11
-3 -8 5 -0.09 0.08
-3 -8 5 -0.03 0.09
2 8 -5 0.37 0.12
-2 -8 5 0.24 0.09
-2 -8 5 0.47 0.11
1 8 -5 0.39 0.13
-1 -8 5 0.46 0.1
-1 -8 5 0.46 0.11
0 8 -5 0.79 0.14
0 -8 5 0.75 0.12
0 -8 5 0.62 0.11
-1 8 -5 1.05 0.15
1 -8 5 0.91 0.13
1 -8 5 0.74 0.12
5 7 -5 0.07 0.11
-5 -7 5 -0.15 0.08
4 7 -5 -0.1 0.09
-4 -7 5 -0.05 0.09
3 7 -5 0.65 0.12
-3 -7 5 0.52 0.1
-3 -7 5 0.47 0.08
2 7 -5 0 0.09
-2 -7 5 0.08 0.07
-2 -7 5 0.05 0.08
1 7 -5 1.16 0.14
-1 -7 5 0.89 0.11
-1 -7 5 0.95 0.12
0 7 -5 1.66 0.17
0 -7 5 1.7 0.16
0 -7 5 1.83 0.17
-1 7 -5 0.63 0.12
1 -7 5 0.18 0.09
1 -7 5 0.36 0.1
-2 7 -5 -0.05 0.1
2 -7 5 0.02 0.08
2 -7 5 0.12 0.09
-3 7 -5 2.07 0.21
3 -7 5 2.26 0.2
-4 7 -5 0.56 0.13
4 -7 5 0.61 0.13
6 6 -5 -0.04 0.09
-6 -6 5 -0.04 0.09
5 6 -5 -0.1 0.08
-5 -6 5 0.03 0.09
4 6 -5 0.1 0.09
-4 -6 5 0.03 0.08
3 6 -5 0.36 0.1
-3 -6 5 0.32 0.09
-3 -6 5 0.38 0.07
2 6 -5 2.21 0.19
-2 -6 5 2.17 0.17
-2 -6 5 2.05 0.15
1 6 -5 7.15 0.34
-1 -6 5 6.81 0.3
-1 -6 5 6.74 0.31
0 6 -5 0.8 0.11
0 -6 5 0.74 0.09
0 -6 5 0.84 0.1
-1 6 -5 0 0.08
1 -6 5 0.06 0.08
1 -6 5 0.01 0.06
-2 6 -5 0.93 0.12
2 -6 5 0.66 0.1
2 -6 5 0.9 0.12
-3 6 -5 6.38 0.31
3 -6 5 5.76 0.29
-4 6 -5 2.03 0.18
4 -6 5 2.31 0.2
-5 6 -5 3.08 0.24
5 -6 5 3.27 0.23
7 5 -5 -0.01 0.09
-7 -5 5 0.03 0.1
6 5 -5 0.51 0.11
-6 -5 5 0.69 0.12
5 5 -5 0 0.08
-5 -5 5 0.01 0.08
4 5 -5 0.79 0.11
-4 -5 5 0.77 0.11
3 5 -5 1.98 0.16
-3 -5 5 1.95 0.12
-3 -5 5 1.94 0.15
2 5 -5 4.45 0.24
-2 -5 5 4.17 0.2
-2 -5 5 4.57 0.22
1 5 -5 4.17 0.23
-1 -5 5 3.95 0.19
-1 -5 5 4 0.21
0 5 -5 1.75 0.15
0 -5 5 1.5 0.12
0 -5 5 1.72 0.13
-1 5 -5 0.19 0.07
1 -5 5 0.21 0.07
1 -5 5 0.15 0.06
-2 5 -5 3.51 0.21
2 -5 5 3.32 0.19
2 -5 5 3.41 0.2
-3 5 -5 2.95 0.19
3 -5 5 2.87 0.2
3 -5 5 3.08 0.18
-4 5 -5 7.22 0.34
-4 5 -5 7.68 0.34
4 -5 5 7.69 0.34
-5 5 -5 0.06 0.1
5 -5 5 0.14 0.08
-6 5 -5 1.07 0.15
6 -5 5 0.85 0.13
7 4 -5 0.04 0.09
-7 -4 5 0.04 0.1
6 4 -5 0.13 0.09
-6 -4 5 0.11 0.09
5 4 -5 0.29 0.08
-5 -4 5 0.3 0.09
4 4 -5 2.46 0.18
-4 -4 5 2.7 0.17
3 4 -5 0.63 0.09
-3 -4 5 0.58 0.06
-3 -4 5 0.66 0.08
2 4 -5 2.21 0.15
-2 -4 5 2.25 0.12
-2 -4 5 1.92 0.14
1 4 -5 5.76 0.27
-1 -4 5 5.95 0.25
-1 -4 5 5.75 0.24
0 4 -5 3.19 0.17
0 -4 5 3.02 0.15
0 -4 5 2.92 0.16
-1 4 -5 8 0.33
1 -4 5 7.77 0.32
1 -4 5 7.61 0.31
-2 4 -5 6.81 0.3
2 -4 5 6.75 0.29
2 -4 5 6.49 0.28
-3 4 -5 5.43 0.25
3 -4 5 5.05 0.25
3 -4 5 5.38 0.24
-4 4 -5 4.99 0.25
-4 4 -5 5.3 0.26
4 -4 5 5.66 0.25
-5 4 -5 4.2 0.24
5 -4 5 4.22 0.22
-6 4 -5 0.08 0.1
6 -4 5 -0.03 0.07
-7 4 -5 0.7 0.13
7 -4 5 0.38 0.1
-8 -3 5 -0.03 0.1
7 3 -5 0.1 0.09
7 3 -5 0 0.06
-7 -3 5 0.05 0.09
6 3 -5 0.18 0.06
6 3 -5 0.12 0.08
-6 -3 5 0.1 0.08
5 3 -5 0.36 0.06
5 3 -5 0.21 0.08
-5 -3 5 0.33 0.08
4 3 -5 2.31 0.16
4 3 -5 2.2 0.11
-4 -3 5 2.15 0.15
3 3 -5 4.22 0.22
3 3 -5 4.42 0.17
-3 -3 5 4.51 0.18
-3 -3 5 4.58 0.21
2 3 -5 4.05 0.15
-2 -3 5 4.18 0.17
1 3 -5 0.04 0.04
-1 -3 5 0.02 0.03
-1 -3 5 0 0.02
0 3 -5 0.44 0.06
0 -3 5 0.32 0.04
-1 3 -5 3.88 0.19
1 -3 5 3.74 0.17
-2 3 -5 22.83 0.84
2 -3 5 22.56 0.8
-3 3 -5 13.45 0.5
3 -3 5 12.49 0.48
3 -3 5 12.56 0.49
-4 3 -5 7.35 0.3
4 -3 5 6.83 0.29
-5 3 -5 7.07 0.31
5 -3 5 7.05 0.3
-6 3 -5 0.19 0.09
6 -3 5 0.18 0.06
-7 3 -5 1.94 0.19
7 -3 5 1.63 0.16
-8 3 -5 1.89 0.18
8 -3 5 1.99 0.18
8 2 -5 0.03 0.07
8 2 -5 -0.01 0.09
-8 -2 5 0 0.1
7 2 -5 0.13 0.07
-7 -2 5 0.08 0.09
6 2 -5 0.53 0.07
-6 -2 5 0.44 0.1
-6 -2 5 0.67 0.12
5 2 -5 3.31 0.15
-5 -2 5 3.17 0.21
-5 -2 5 3.21 0.19
4 2 -5 4.31 0.18
-4 -2 5 4.62 0.22
-4 -2 5 4.44 0.23
3 2 -5 5.72 0.2
-3 -2 5 4.8 0.25
-2 -2 5 0.34 0.03
1 2 -5 5.27 0.18
-1 -2 5 5.21 0.2
0 2 -5 0.08 0.04
0 -2 5 0.03 0.03
0 -2 5 0.05 0.03
-1 2 -5 3.97 0.18
1 -2 5 4.04 0.17
-2 2 -5 17.17 0.65
2 -2 5 17.48 0.62
-3 2 -5 4.18 0.19
3 -2 5 4.34 0.19
-5 2 -5 1.85 0.14
5 -2 5 2.21 0.1
5 -2 5 1.88 0.12
-6 2 -5 0.1 0.07
6 -2 5 -0.02 0.04
6 -2 5 0.13 0.04
-7 2 -5 6.93 0.32
7 -2 5 6.41 0.29
7 -2 5 6.19 0.26
-8 2 -5 4.37 0.27
8 -2 5 4.24 0.21
8 -2 5 4.57 0.24
-9 2 -5 0.84 0.14
9 -2 5 0.69 0.11
9 -2 5 0.77 0.11
8 1 -5 0.11 0.08
-8 -1 5 0.08 0.1
-8 -1 5 0.01 0.11
7 1 -5 0.96 0.1
-7 -1 5 1.04 0.12
-7 -1 5 0.91 0.13
6 1 -5 3.29 0.18
-6 -1 5 3.75 0.21
-6 -1 5 3.66 0.21
5 1 -5 2.83 0.15
-5 -1 5 2.81 0.17
-5 -1 5 2.9 0.18
4 1 -5 6.46 0.25
-4 -1 5 6.89 0.29
-4 -1 5 6.44 0.28
3 1 -5 8.15 0.29
-3 -1 5 8.32 0.34
-3 -1 5 8.16 0.33
2 1 -5 3.64 0.14
-2 -1 5 3.59 0.16
1 1 -5 0.57 0.05
-1 -1 5 0.59 0.06
-1 -1 5 0.52 0.04
-1 -1 5 0.79 0.07
0 1 -5 3.78 0.13
0 -1 5 3.6 0.17
0 -1 5 3.55 0.16
1 -1 5 2.64 0.14
1 -1 5 2.56 0.12
1 -1 5 2.55 0.11
1 -1 5 2.46 0.1
-2 1 -5 3.93 0.18
2 -1 5 4.31 0.18
2 -1 5 4.29 0.15
2 -1 5 4.25 0.17
-3 1 -5 23.2 0.82
3 -1 5 22.5 0.81
3 -1 5 22.56 0.74
3 -1 5 21.76 0.79
-4 1 -5 0.64 0.06
4 -1 5 0.64 0.05
-5 1 -5 0.66 0.08
-5 1 -5 0.92 0.07
5 -1 5 1.03 0.07
-6 1 -5 2.45 0.16
6 -1 5 2.64 0.13
6 -1 5 2.5 0.15
-7 1 -5 2.67 0.18
7 -1 5 2.68 0.16
7 -1 5 2.55 0.14
-8 1 -5 7.76 0.35
8 -1 5 7.51 0.33
8 -1 5 7.31 0.3
-9 1 -5 5.82 0.31
9 -1 5 5.26 0.26
9 -1 5 5.93 0.28
-10 1 -5 0.46 0.13
10 -1 5 0.31 0.09
10 -1 5 0.38 0.09
8 0 -5 0.1 0.08
-8 0 5 0.07 0.1
-8 0 5 -0.02 0.1
7 0 -5 0.22 0.08
-7 0 5 0.02 0.09
-7 0 5 0.13 0.08
6 0 -5 3.7 0.19
-6 0 5 3.97 0.22
-6 0 5 3.86 0.22
5 0 -5 9.31 0.35
-5 0 5 9.17 0.39
-5 0 5 9.22 0.38
4 0 -5 9.67 0.36
-4 0 5 9.81 0.39
-4 0 5 10.09 0.4
3 0 -5 3.21 0.14
-3 0 5 3.23 0.16
-3 0 5 3.19 0.16
2 0 -5 0.01 0.03
-2 0 5 -0.03 0.04
-2 0 5 0 0.04
1 0 -5 -0.01 0.02
-1 0 5 0.03 0.03
-1 0 5 0.02 0.02
-1 0 5 -0.01 0.03
0 0 -5 4 0.15
0 0 5 3.94 0.17
0 0 5 3.94 0.17
0 0 5 4.08 0.15
1 0 5 27.27 1
1 0 5 26.98 0.89
1 0 5 27.99 0.97
2 0 5 7.71 0.27
2 0 5 7.87 0.3
2 0 5 8.16 0.29
3 0 5 2.48 0.12
3 0 5 2.64 0.12
-4 0 -5 10.62 0.4
4 0 5 11.09 0.37
4 0 5 10.66 0.4
-5 0 -5 2.37 0.13
5 0 5 2.17 0.11
-6 0 -5 2.42 0.15
6 0 5 2.37 0.12
6 0 5 2.24 0.13
-7 0 -5 4.45 0.23
7 0 5 4.75 0.22
7 0 5 4.77 0.2
-8 0 -5 5.37 0.28
8 0 5 6.11 0.26
8 0 5 5.44 0.24
-9 0 -5 6.01 0.31
9 0 5 6.1 0.27
9 0 5 5.96 0.28
-10 0 -5 1.27 0.16
10 0 5 1.25 0.12
10 0 5 1.3 0.13
7 -1 -5 -0.01 0.08
-7 1 5 0.13 0.08
-7 1 5 0.06 0.09
6 -1 -5 4.47 0.21
-6 1 5 4.55 0.24
-6 1 5 4.13 0.23
5 -1 -5 6.06 0.25
-5 1 5 6.02 0.28
-5 1 5 6.21 0.28
4 -1 -5 6.25 0.25
-4 1 5 6.41 0.27
-4 1 5 6.54 0.28
3 -1 -5 2.67 0.13
-3 1 5 2.79 0.14
-3 1 5 2.69 0.15
2 -1 -5 0.53 0.05
-2 1 5 0.61 0.07
-2 1 5 0.53 0.06
1 -1 -5 3.57 0.14
-1 1 5 3.27 0.15
0 1 5 63.77 2.13
0 1 5 64.75 2.26
0 1 5 60.91 2.19
1 1 5 5.39 0.23
1 1 5 6.16 0.22
2 1 5 18.67 0.74
2 1 5 21.99 0.71
3 1 5 12.42 0.43
3 1 5 12.45 0.43
3 1 5 10.19 0.4
3 1 5 12.32 0.44
-4 -1 -5 20.52 0.75
4 1 5 20.47 0.7
4 1 5 22.47 0.76
4 1 5 20.73 0.74
-5 -1 -5 0.87 0.08
5 1 5 0.76 0.07
5 1 5 0.73 0.06
-6 -1 -5 1.14 0.1
6 1 5 1.14 0.09
6 1 5 1.02 0.08
-7 -1 -5 4.9 0.23
7 1 5 4.61 0.21
7 1 5 4.76 0.2
-8 -1 -5 5.01 0.24
8 1 5 4.76 0.22
8 1 5 4.91 0.21
-9 -1 -5 2.37 0.19
9 1 5 2.54 0.17
9 1 5 2.51 0.16
-10 -1 -5 2.48 0.22
10 1 5 2.55 0.18
10 1 5 2.73 0.18
7 -2 -5 0.45 0.1
-7 2 5 0.41 0.1
-7 2 5 0.51 0.11
6 -2 -5 0.37 0.08
-6 2 5 0.43 0.09
-6 2 5 0.42 0.09
5 -2 -5 9.97 0.38
-5 2 5 9.59 0.42
-5 2 5 10.6 0.41
4 -2 -5 9.3 0.34
-4 2 5 8.85 0.37
-4 2 5 8.88 0.36
3 -2 -5 0.54 0.06
-3 2 5 0.64 0.08
-3 2 5 0.81 0.07
2 -2 -5 4.69 0.18
-2 2 5 4.4 0.2
-2 2 5 4.35 0.19
1 -2 -5 19.77 0.61
-1 2 5 18.9 0.64
-1 2 5 15.39 0.67
0 -2 -5 53.05 1.81
0 2 5 53.75 1.74
0 2 5 53.88 1.93
1 2 5 238.72 8.45
1 2 5 239.21 7.63
1 2 5 231.12 8.21
1 2 5 242.41 7.99
2 2 5 42.64 1.49
2 2 5 42.79 1.39
3 2 5 3.1 0.13
3 2 5 3.29 0.13
3 2 5 3.29 0.14
3 2 5 3.2 0.13
-4 -2 -5 0.26 0.04
4 2 5 0.35 0.04
4 2 5 0.29 0.04
4 2 5 0.31 0.03
-5 -2 -5 1.31 0.08
5 2 5 1.17 0.08
5 2 5 1.21 0.08
-6 -2 -5 9.74 0.38
6 2 5 10.15 0.38
6 2 5 10.04 0.36
-7 -2 -5 11.03 0.44
7 2 5 11.14 0.43
7 2 5 11.71 0.41
-8 -2 -5 2.13 0.15
8 2 5 2.16 0.14
8 2 5 2.18 0.13
-9 -2 -5 0.7 0.1
9 2 5 0.76 0.09
9 2 5 0.68 0.08
-10 -2 -5 0.69 0.12
10 2 5 0.87 0.1
10 2 5 0.63 0.09
-11 -2 -5 0.05 0.11
11 2 5 -0.08 0.08
11 2 5 0 0.08
7 -3 -5 1.36 0.14
-7 3 5 1.45 0.14
-7 3 5 1.38 0.14
6 -3 -5 1.49 0.13
-6 3 5 1.64 0.16
-6 3 5 1.56 0.16
5 -3 -5 5.58 0.25
-5 3 5 6.11 0.27
-5 3 5 5.62 0.27
4 -3 -5 0.67 0.08
-4 3 5 0.69 0.09
-4 3 5 0.85 0.09
-3 3 5 1.9 0.13
-3 3 5 1.82 0.12
-2 3 5 10.31 0.41
-2 3 5 10.42 0.39
1 -3 -5 35.5 1.19
-1 3 5 36.77 1.28
-1 3 5 32.88 1.23
0 -3 -5 67.78 2.22
0 3 5 66.73 2.36
0 3 5 65.11 2.28
0 3 5 63.78 2.13
-1 -3 -5 181.22 5.92
1 3 5 170.49 5.65
1 3 5 176.55 6.27
-2 -3 -5 1.79 0.08
2 3 5 1.38 0.08
2 3 5 1.68 0.08
3 3 5 0.55 0.05
3 3 5 0.84 0.06
3 3 5 0.85 0.06
-4 -3 -5 12.25 0.44
4 3 5 12.81 0.44
4 3 5 12.7 0.42
4 3 5 11.23 0.45
-5 -3 -5 17.85 0.61
5 3 5 16.41 0.61
5 3 5 16.98 0.57
5 3 5 15.86 0.59
-6 -3 -5 7.83 0.31
6 3 5 7.84 0.29
6 3 5 8.16 0.31
-7 -3 -5 5.99 0.26
7 3 5 6.27 0.24
7 3 5 6.34 0.26
-8 -3 -5 0.48 0.08
8 3 5 0.66 0.07
8 3 5 0.59 0.08
-9 -3 -5 2.23 0.16
9 3 5 2.15 0.14
9 3 5 1.85 0.15
-10 -3 -5 -0.03 0.08
10 3 5 0.03 0.07
10 3 5 -0.07 0.07
-11 -3 -5 0 0.09
11 3 5 -0.02 0.08
11 3 5 -0.07 0.08
6 -4 -5 1.29 0.13
-6 4 5 1.4 0.13
-6 4 5 1.54 0.14
5 -4 -5 0.85 0.1
-5 4 5 0.85 0.1
-5 4 5 0.89 0.11
4 -4 -5 1.71 0.13
-4 4 5 1.66 0.15
-4 4 5 1.75 0.13
3 -4 -5 1.61 0.12
-3 4 5 1.62 0.14
-3 4 5 1.73 0.11
2 -4 -5 9.98 0.37
2 -4 -5 10.36 0.37
-2 4 5 10.43 0.42
-2 4 5 10.39 0.39
1 -4 -5 18.95 0.63
1 -4 -5 18.61 0.64
-1 4 5 18.19 0.7
0 -4 -5 40.64 1.39
0 4 5 41.06 1.34
-1 -4 -5 25.09 0.87
1 4 5 24.95 0.93
1 4 5 25.91 0.84
-2 -4 -5 18.99 0.66
2 4 5 18.52 0.7
2 4 5 19.05 0.63
-3 -4 -5 79.2 2.6
3 4 5 75.06 2.48
3 4 5 75.99 2.74
4 4 5 7.85 0.28
-5 -4 -5 2.72 0.12
5 4 5 2.57 0.12
-6 -4 -5 19.46 0.69
6 4 5 18.81 0.7
6 4 5 19.78 0.69
-7 -4 -5 9.92 0.38
7 4 5 10.24 0.39
-8 -4 -5 2.9 0.16
8 4 5 2.9 0.16
8 4 5 2.96 0.15
-9 -4 -5 0.06 0.06
9 4 5 -0.04 0.06
9 4 5 -0.02 0.05
-10 -4 -5 0.31 0.08
10 4 5 0.12 0.07
-11 -4 -5 0.16 0.09
11 4 5 0 0.08
6 -5 -5 1.05 0.12
-6 5 5 1.12 0.13
-6 5 5 0.89 0.13
5 -5 -5 0.06 0.08
-5 5 5 0.1 0.07
-5 5 5 0.06 0.08
4 -5 -5 0.41 0.08
-4 5 5 0.43 0.07
-4 5 5 0.46 0.1
3 -5 -5 4.02 0.19
-3 5 5 4.27 0.22
-3 5 5 3.95 0.19
2 -5 -5 2.58 0.14
2 -5 -5 2.39 0.12
-2 5 5 2.63 0.13
-2 5 5 2.74 0.17
1 -5 -5 36.03 1.21
1 -5 -5 36.37 1.17
-1 5 5 30 1.24
-1 5 5 39.1 1.31
0 -5 -5 36.95 1.26
-1 -5 -5 1.83 0.1
1 5 5 1.81 0.11
1 5 5 1.79 0.09
-2 -5 -5 0.09 0.03
2 5 5 0.13 0.04
2 5 5 0.03 0.03
-3 -5 -5 7.22 0.28
3 5 5 7.56 0.3
3 5 5 7.39 0.27
-4 -5 -5 10.29 0.38
4 5 5 10.63 0.37
4 5 5 10.33 0.4
5 5 5 27.7 0.94
5 5 5 29.07 1.03
-6 -5 -5 31.79 1.08
-6 -5 -5 31.61 1.07
6 5 5 30.04 1.11
6 5 5 29.43 1.02
-7 -5 -5 6.67 0.26
-7 -5 -5 6.63 0.27
7 5 5 6.31 0.26
-8 -5 -5 1.81 0.13
-8 -5 -5 1.89 0.12
8 5 5 1.95 0.12
-9 -5 -5 -0.04 0.05
-9 -5 -5 -0.01 0.05
9 5 5 -0.03 0.05
-10 -5 -5 0.02 0.06
-10 -5 -5 0.08 0.07
10 5 5 -0.01 0.06
-11 -5 -5 0.18 0.09
-11 -5 -5 0.16 0.08
11 5 5 0.17 0.08
5 -6 -5 -0.11 0.07
-5 6 5 0.05 0.09
4 -6 -5 0.11 0.07
-4 6 5 0.22 0.09
3 -6 -5 3.18 0.17
-3 6 5 3.39 0.21
-3 6 5 3.09 0.16
2 -6 -5 25.49 0.89
2 -6 -5 25.42 0.87
-2 6 5 24.84 0.91
-2 6 5 26.76 0.98
1 -6 -5 3.62 0.16
1 -6 -5 3.42 0.16
-1 6 5 3.4 0.2
0 6 5 6.33 0.28
-1 -6 -5 5.97 0.24
1 6 5 6.19 0.23
-2 -6 -5 0 0.03
2 6 5 0.04 0.04
2 6 5 0.03 0.03
-3 -6 -5 0.7 0.07
3 6 5 0.68 0.06
3 6 5 0.73 0.07
4 6 5 23.16 0.77
4 6 5 23.08 0.86
5 6 5 8.51 0.34
5 6 5 8.36 0.31
-6 -6 -5 15.14 0.56
6 6 5 15.68 0.58
6 6 5 15.37 0.54
-7 -6 -5 6.48 0.26
-7 -6 -5 6.37 0.27
7 6 5 6.83 0.27
7 6 5 6.22 0.26
-8 -6 -5 -0.06 0.04
-8 -6 -5 -0.06 0.05
8 6 5 0.12 0.06
-9 -6 -5 0 0.05
-9 -6 -5 0.08 0.06
9 6 5 0.05 0.06
-10 -6 -5 1.35 0.12
-10 -6 -5 1.27 0.12
10 6 5 1.16 0.12
-11 -6 -5 0.2 0.08
-11 -6 -5 0.3 0.09
11 6 5 0.21 0.08
4 -7 -5 0.31 0.08
-4 7 5 0.27 0.1
3 -7 -5 2.19 0.15
-3 7 5 2.11 0.19
2 -7 -5 7.93 0.32
2 -7 -5 7.85 0.32
-2 7 5 8.21 0.37
1 -7 -5 3.15 0.16
1 -7 -5 3.13 0.16
-1 7 5 3.52 0.21
0 -7 -5 0.1 0.05
0 -7 -5 0.06 0.05
0 7 5 0.12 0.07
-1 -7 -5 0.42 0.06
1 7 5 0.56 0.08
1 7 5 0.47 0.06
-2 -7 -5 6.4 0.26
2 7 5 6.31 0.24
2 7 5 6.55 0.29
-3 -7 -5 8.93 0.35
3 7 5 9.15 0.38
3 7 5 9.02 0.33
-4 -7 -5 7.23 0.29
4 7 5 7.1 0.27
4 7 5 6.96 0.3
-5 -7 -5 16.19 0.61
5 7 5 17.21 0.64
5 7 5 16.68 0.58
-6 -7 -5 8.8 0.35
6 7 5 8.74 0.36
6 7 5 8.87 0.33
-7 -7 -5 0.98 0.09
7 7 5 1.06 0.1
7 7 5 1.22 0.1
-8 -7 -5 -0.03 0.05
8 7 5 0.18 0.06
-9 -7 -5 0.49 0.08
9 7 5 0.64 0.09
-10 -7 -5 0.97 0.11
10 7 5 1.1 0.12
-11 -7 -5 2.72 0.2
11 7 5 2.98 0.19
3 -8 -5 2.69 0.17
-3 8 5 2.26 0.22
2 -8 -5 5.97 0.26
2 -8 -5 6.1 0.27
-2 8 5 6.23 0.33
1 -8 -5 3.55 0.18
1 -8 -5 3.69 0.19
-1 8 5 3.88 0.24
0 -8 -5 16.36 0.58
0 -8 -5 16.29 0.6
0 8 5 16.89 0.66
-1 -8 -5 0.28 0.06
1 8 5 0.4 0.08
-2 -8 -5 2.2 0.14
2 8 5 2.46 0.12
2 8 5 2.22 0.16
-3 -8 -5 8.2 0.32
3 8 5 8.04 0.3
3 8 5 7.99 0.35
-4 -8 -5 9.63 0.38
4 8 5 9.55 0.35
4 8 5 9.9 0.4
-5 -8 -5 5.91 0.26
5 8 5 5.98 0.24
-6 -8 -5 0.2 0.06
6 8 5 0.36 0.06
6 8 5 0.24 0.07
-7 -8 -5 6.02 0.27
7 8 5 6.27 0.28
7 8 5 6.4 0.26
-8 -8 -5 0.11 0.06
8 8 5 0.16 0.06
8 8 5 0.04 0.06
-9 -8 -5 1.31 0.12
9 8 5 1.01 0.11
-10 -8 -5 0.97 0.12
10 8 5 1.15 0.12
2 -9 -5 4 0.22
2 -9 -5 4.15 0.21
-2 9 5 4.32 0.27
1 -9 -5 1.94 0.15
1 -9 -5 2.08 0.16
-1 9 5 1.91 0.2
0 -9 -5 -0.01 0.07
0 -9 -5 0.04 0.06
0 9 5 0.08 0.09
-1 -9 -5 3.99 0.19
-1 -9 -5 4.06 0.21
1 9 5 4.21 0.24
-2 -9 -5 1.02 0.1
2 9 5 0.9 0.12
2 9 5 1.09 0.09
-3 -9 -5 0.16 0.07
3 9 5 0.15 0.05
3 9 5 0.1 0.08
-4 -9 -5 3.31 0.19
4 9 5 3.47 0.16
4 9 5 3.44 0.2
-5 -9 -5 1.03 0.1
5 9 5 1 0.09
-6 -9 -5 0.48 0.08
6 9 5 0.42 0.06
6 9 5 0.48 0.08
-7 -9 -5 0.31 0.08
7 9 5 0.38 0.07
7 9 5 0.41 0.08
-8 -9 -5 0.04 0.07
8 9 5 0.07 0.07
8 9 5 0.09 0.06
-9 -9 -5 1.11 0.12
9 9 5 1.36 0.12
-10 -9 -5 1.93 0.18
10 9 5 1.97 0.16
1 -10 -5 0.62 0.11
-1 10 5 0.68 0.14
0 -10 -5 -0.1 0.08
0 10 5 -0.01 0.1
-1 -10 -5 1.88 0.17
1 10 5 1.92 0.2
-2 -10 -5 0.39 0.09
2 10 5 0.48 0.11
-3 -10 -5 0.73 0.1
3 10 5 0.67 0.07
3 10 5 0.56 0.11
-4 -10 -5 4.11 0.22
4 10 5 3.97 0.23
4 10 5 3.78 0.18
-5 -10 -5 1.04 0.11
5 10 5 0.9 0.11
5 10 5 0.83 0.08
-6 -10 -5 -0.15 0.07
6 10 5 0.02 0.07
6 10 5 0.01 0.05
-7 -10 -5 0.36 0.09
7 10 5 0.55 0.1
7 10 5 0.45 0.07
-8 -10 -5 0.16 0.09
8 10 5 0.09 0.06
8 10 5 0.07 0.08
-9 -10 -5 3.6 0.23
9 10 5 3.16 0.19
-1 -11 -5 0.88 0.12
1 11 5 0.55 0.13
-2 -11 -5 3.73 0.23
2 11 5 3.61 0.26
-3 -11 -5 1.12 0.13
3 11 5 1.02 0.15
-4 -11 -5 3.45 0.22
4 11 5 3.4 0.24
-5 -11 -5 0.93 0.12
5 11 5 0.93 0.13
-6 -11 -5 0.04 0.08
6 11 5 0 0.08
-7 -11 -5 0.21 0.09
7 11 5 0.33 0.1
3 7 -6 0.7 0.13
-3 -7 6 0.68 0.12
2 7 -6 0.68 0.13
-2 -7 6 0.7 0.12
-2 -7 6 0.6 0.09
1 7 -6 0.9 0.14
-1 -7 6 0.79 0.12
0 7 -6 0.03 0.1
0 -7 6 -0.05 0.07
0 -7 6 0.04 0.09
-1 7 -6 0.07 0.1
1 -7 6 -0.05 0.09
1 -7 6 0.04 0.08
-2 7 -6 0.17 0.11
2 -7 6 0.21 0.11
2 -7 6 0.24 0.1
5 6 -6 0.08 0.1
-5 -6 6 0.18 0.1
4 6 -6 0.01 0.09
-4 -6 6 0.25 0.1
3 6 -6 0.39 0.11
-3 -6 6 0.47 0.1
2 6 -6 1.89 0.19
-2 -6 6 1.65 0.14
-2 -6 6 1.9 0.17
1 6 -6 2.19 0.2
-1 -6 6 2.06 0.17
-1 -6 6 1.73 0.14
0 6 -6 -0.04 0.09
0 -6 6 -0.01 0.06
0 -6 6 0.03 0.08
-1 6 -6 0.53 0.11
1 -6 6 0.54 0.09
1 -6 6 0.49 0.11
-2 6 -6 0.64 0.12
2 -6 6 0.5 0.11
2 -6 6 0.54 0.1
-3 6 -6 1.23 0.14
3 -6 6 1.54 0.15
3 -6 6 1.35 0.14
-4 6 -6 2.32 0.22
4 -6 6 2.44 0.21
6 5 -6 0.03 0.1
-6 -5 6 -0.04 0.1
5 5 -6 0.37 0.1
-5 -5 6 0.51 0.11
4 5 -6 0.61 0.11
-4 -5 6 0.6 0.11
3 5 -6 1.79 0.18
-3 -5 6 1.63 0.16
2 5 -6 1.24 0.13
-2 -5 6 1.19 0.12
-2 -5 6 1.06 0.1
1 5 -6 0.59 0.1
-1 -5 6 0.43 0.06
-1 -5 6 0.62 0.1
0 5 -6 0.18 0.08
0 -5 6 0.09 0.07
0 -5 6 0.14 0.06
-1 5 -6 5.92 0.29
1 -5 6 5.87 0.27
1 -5 6 5.92 0.28
-2 5 -6 1.44 0.13
2 -5 6 1.22 0.12
2 -5 6 1.12 0.11
-3 5 -6 5.06 0.26
3 -5 6 4.97 0.25
3 -5 6 4.69 0.26
4 -5 6 3.39 0.21
-5 5 -6 0.85 0.13
5 -5 6 0.65 0.11
-6 5 -6 0.11 0.11
6 -5 6 -0.03 0.09
6 4 -6 0.21 0.1
-6 -4 6 0.32 0.11
5 4 -6 0.49 0.1
-5 -4 6 0.43 0.11
4 4 -6 2.55 0.2
-4 -4 6 2.85 0.19
3 4 -6 0.92 0.11
-3 -4 6 0.8 0.1
2 4 -6 0.78 0.1
-2 -4 6 0.81 0.09
-2 -4 6 0.69 0.06
1 4 -6 0.05 0.06
-1 -4 6 0.19 0.07
-1 -4 6 0.02 0.04
0 4 -6 0.57 0.08
0 -4 6 0.44 0.06
0 -4 6 0.38 0.07
-1 4 -6 1.39 0.13
1 -4 6 1 0.1
1 -4 6 1.26 0.11
-2 4 -6 3.45 0.2
2 -4 6 3.6 0.2
2 -4 6 3.56 0.18
-3 4 -6 2.58 0.17
3 -4 6 2.46 0.17
3 -4 6 2.48 0.16
-4 4 -6 3.53 0.2
4 -4 6 3.68 0.2
-5 4 -6 1.27 0.14
5 -4 6 0.8 0.11
-6 4 -6 0.89 0.13
6 -4 6 0.54 0.1
-7 4 -6 0.63 0.14
7 -4 6 0.41 0.11
7 3 -6 0.24 0.08
7 3 -6 0.28 0.1
-7 -3 6 0.14 0.11
6 3 -6 0.46 0.07
6 3 -6 0.55 0.11
-6 -3 6 0.59 0.11
5 3 -6 0.75 0.08
5 3 -6 0.81 0.11
-5 -3 6 0.87 0.11
4 3 -6 2.13 0.12
4 3 -6 2.36 0.17
-4 -3 6 2.09 0.16
3 3 -6 0.64 0.09
-3 -3 6 0.82 0.09
2 3 -6 0.11 0.06
-2 -3 6 0.16 0.06
-2 -3 6 0.15 0.04
1 3 -6 0.07 0.05
-1 -3 6 0.13 0.04
-1 -3 6 0.18 0.06
0 3 -6 0.18 0.06
0 -3 6 0.1 0.05
0 -3 6 0.09 0.04
-1 3 -6 0.11 0.05
1 -3 6 0.08 0.04
1 -3 6 0.09 0.06
-2 3 -6 10.04 0.4
2 -3 6 10.13 0.39
2 -3 6 9.82 0.4
-3 3 -6 2.27 0.14
3 -3 6 2.36 0.14
3 -3 6 2.43 0.15
-4 3 -6 2.78 0.16
4 -3 6 2.55 0.15
-5 3 -6 -0.08 0.07
5 -3 6 -0.03 0.05
-6 3 -6 0.1 0.09
6 -3 6 0.09 0.07
-7 3 -6 1.9 0.18
7 -3 6 2.38 0.19
-8 3 -6 5.73 0.32
8 -3 6 5.1 0.29
7 2 -6 0.55 0.09
-7 -2 6 0.5 0.12
6 2 -6 1.32 0.12
-6 -2 6 1.26 0.15
-6 -2 6 1.22 0.13
5 2 -6 2.42 0.14
-5 -2 6 2.07 0.19
-5 -2 6 2.37 0.18
4 2 -6 1.05 0.09
-4 -2 6 1.21 0.13
-4 -2 6 0.86 0.1
3 2 -6 3.93 0.16
-3 -2 6 3.59 0.22
-3 -2 6 4.2 0.2
2 2 -6 2.43 0.11
-2 -2 6 2.45 0.17
-2 -2 6 2.41 0.14
1 2 -6 0.3 0.03
-1 -2 6 0.33 0.04
0 2 -6 0.34 0.06
0 -2 6 0.37 0.05
-1 2 -6 5.56 0.24
1 -2 6 5.59 0.22
-2 2 -6 2.17 0.13
2 -2 6 2.24 0.12
-3 2 -6 16.43 0.62
3 -2 6 16.31 0.59
-4 2 -6 1.99 0.12
4 -2 6 1.95 0.14
4 -2 6 2.34 0.13
-5 2 -6 0.19 0.07
5 -2 6 0.14 0.05
-6 2 -6 1.33 0.13
6 -2 6 1.39 0.12
-7 2 -6 4.25 0.25
7 -2 6 4.55 0.24
-8 2 -6 4.1 0.26
8 -2 6 4.04 0.23
-9 2 -6 3.62 0.27
9 -2 6 4.08 0.25
7 1 -6 0.77 0.1
-7 -1 6 0.71 0.13
-7 -1 6 0.72 0.12
6 1 -6 1.64 0.14
-6 -1 6 1.3 0.14
-6 -1 6 1.79 0.18
5 1 -6 3.81 0.19
-5 -1 6 4.27 0.22
-5 -1 6 3.67 0.23
4 1 -6 4.77 0.2
-4 -1 6 4.76 0.24
-4 -1 6 4.72 0.23
3 1 -6 3.35 0.15
-3 -1 6 3.22 0.17
-3 -1 6 3.22 0.19
2 1 -6 0.73 0.06
-2 -1 6 0.54 0.07
1 1 -6 10.06 0.35
-1 -1 6 10.26 0.41
-1 -1 6 10.06 0.39
0 1 -6 4.59 0.17
0 -1 6 4.55 0.18
0 -1 6 4.84 0.21
0 -1 6 4.55 0.2
1 -1 6 17.38 0.64
1 -1 6 17.08 0.61
1 -1 6 17.95 0.66
-2 1 -6 21.27 0.79
2 -1 6 21.84 0.78
2 -1 6 21.69 0.75
2 -1 6 21.06 0.7
-3 1 -6 14.01 0.52
3 -1 6 13.47 0.5
3 -1 6 13.88 0.52
-4 1 -6 2.58 0.12
4 -1 6 2.53 0.13
4 -1 6 2.48 0.15
4 -1 6 2.65 0.11
-5 1 -6 0.48 0.07
5 -1 6 0.53 0.05
5 -1 6 0.45 0.06
-6 1 -6 0.63 0.09
6 -1 6 0.72 0.06
6 -1 6 0.53 0.07
-7 1 -6 2.12 0.18
7 -1 6 2.14 0.15
7 -1 6 2.35 0.13
-8 1 -6 5.53 0.29
8 -1 6 5.43 0.24
8 -1 6 5.99 0.28
-9 1 -6 5.66 0.31
9 -1 6 5.29 0.25
9 -1 6 5.37 0.28
7 0 -6 0.02 0.07
-7 0 6 0.02 0.09
-7 0 6 0.01 0.1
6 0 -6 5.28 0.25
-6 0 6 5.45 0.28
-6 0 6 5.61 0.28
5 0 -6 4.28 0.2
-5 0 6 4.39 0.23
-5 0 6 4.12 0.23
4 0 -6 0.43 0.06
-4 0 6 0.51 0.08
-4 0 6 0.49 0.08
3 0 -6 0.08 0.04
-3 0 6 0.1 0.06
-3 0 6 -0.05 0.05
2 0 -6 2.1 0.1
-2 0 6 1.9 0.12
1 0 -6 20.96 0.68
-1 0 6 20.22 0.73
-1 0 6 18.67 0.76
-1 0 6 21.34 0.7
0 0 -6 115.1 3.55
0 0 6 111.8 3.83
0 0 6 100.09 3.71
0 0 6 114.18 3.94
1 0 6 14.52 0.51
1 0 6 14.55 0.53
1 0 6 14.49 0.55
2 0 6 10.79 0.43
2 0 6 11.38 0.42
2 0 6 11.49 0.41
3 0 6 1.06 0.08
3 0 6 1.17 0.08
3 0 6 0.82 0.06
3 0 6 0.65 0.06
-4 0 -6 1.25 0.07
4 0 6 1.28 0.1
4 0 6 1.18 0.09
4 0 6 1.24 0.07
-5 0 -6 1.9 0.09
-5 0 -6 2.04 0.13
5 0 6 1.98 0.1
-6 0 -6 5.74 0.26
6 0 6 5.9 0.23
6 0 6 5.74 0.25
-7 0 -6 3.37 0.19
7 0 6 3.02 0.15
7 0 6 2.98 0.17
-8 0 -6 2.56 0.2
8 0 6 2.76 0.15
8 0 6 2.82 0.17
-9 0 -6 2.29 0.21
9 0 6 2.6 0.18
9 0 6 2.62 0.16
-10 0 -6 0.41 0.12
10 0 6 0.26 0.09
10 0 6 0.37 0.09
7 -1 -6 0.86 0.12
-7 1 6 0.96 0.12
-7 1 6 1.22 0.14
6 -1 -6 2.45 0.17
-6 1 6 2.28 0.18
-6 1 6 2.55 0.19
5 -1 -6 1.73 0.14
-5 1 6 1.9 0.16
-5 1 6 1.79 0.16
4 -1 -6 3.68 0.18
-4 1 6 3.64 0.2
-4 1 6 3.68 0.19
3 -1 -6 0.42 0.06
-3 1 6 0.29 0.06
-3 1 6 0.5 0.07
2 -1 -6 13.88 0.47
-2 1 6 13.25 0.5
1 -1 -6 27.8 0.92
-1 1 6 27.78 0.99
0 -1 -6 70.41 2.28
0 1 6 70.61 2.38
0 1 6 68.95 2.45
0 1 6 72.07 2.53
1 1 6 15.76 0.57
1 1 6 16.01 0.59
1 1 6 15.57 0.53
2 1 6 0.35 0.04
2 1 6 0.32 0.04
2 1 6 0.26 0.03
2 1 6 0.28 0.04
3 1 6 6.21 0.24
3 1 6 6.47 0.23
3 1 6 6.21 0.25
4 1 6 7.12 0.28
4 1 6 7.02 0.27
4 1 6 7.05 0.25
-5 -1 -6 0.85 0.08
-5 -1 -6 0.85 0.05
5 1 6 0.75 0.07
-6 -1 -6 7.31 0.3
6 1 6 7.5 0.28
-7 -1 -6 1.63 0.13
7 1 6 1.24 0.11
7 1 6 1.44 0.1
-8 -1 -6 4.93 0.25
8 1 6 4.58 0.21
8 1 6 4.85 0.23
-9 -1 -6 2.8 0.2
9 1 6 2.43 0.17
9 1 6 2.7 0.16
-10 -1 -6 0.01 0.1
10 1 6 -0.09 0.07
10 1 6 -0.03 0.07
7 -2 -6 0.61 0.11
-7 2 6 0.76 0.12
-7 2 6 0.81 0.12
6 -2 -6 1.17 0.12
-6 2 6 1.65 0.16
-6 2 6 1.32 0.14
5 -2 -6 3.5 0.2
-5 2 6 3.95 0.21
-5 2 6 3.93 0.23
4 -2 -6 0.06 0.06
-4 2 6 0.11 0.07
-4 2 6 0.12 0.06
3 -2 -6 0.39 0.07
-3 2 6 0.5 0.08
-3 2 6 0.37 0.07
2 -2 -6 3.99 0.17
-2 2 6 3.6 0.17
-2 2 6 4.05 0.19
1 -2 -6 22.03 0.73
-1 2 6 21.6 0.78
0 -2 -6 35.86 1.21
0 2 6 35.21 1.25
0 2 6 35.65 1.3
1 2 6 28.5 0.94
1 2 6 28.87 1.05
2 2 6 8.04 0.3
2 2 6 8.31 0.32
2 2 6 8.1 0.29
3 2 6 0.03 0.03
3 2 6 -0.02 0.02
3 2 6 -0.01 0.01
3 2 6 0.04 0.03
4 2 6 0.17 0.03
4 2 6 0.19 0.03
4 2 6 0.11 0.04
-5 -2 -6 17.41 0.65
5 2 6 17.52 0.6
5 2 6 18.5 0.64
-6 -2 -6 12.72 0.49
6 2 6 13.3 0.46
-7 -2 -6 8.28 0.34
7 2 6 8.23 0.34
7 2 6 8.79 0.32
-8 -2 -6 1.34 0.13
8 2 6 1.27 0.12
8 2 6 1.22 0.1
-9 -2 -6 1.83 0.16
9 2 6 1.58 0.13
9 2 6 1.67 0.14
-10 -2 -6 0.21 0.09
10 2 6 0.05 0.07
10 2 6 0.23 0.08
-11 -2 -6 0.25 0.11
11 2 6 0.04 0.08
11 2 6 0.05 0.08
6 -3 -6 0.49 0.09
-6 3 6 0.46 0.1
-6 3 6 0.44 0.1
5 -3 -6 0.03 0.07
-5 3 6 -0.04 0.08
-5 3 6 -0.01 0.07
4 -3 -6 -0.15 0.06
-4 3 6 -0.06 0.06
-4 3 6 -0.03 0.07
3 -3 -6 0.26 0.06
-3 3 6 0.23 0.07
-3 3 6 0.29 0.06
2 -3 -6 23.86 0.91
-2 3 6 28.66 1.01
-2 3 6 28.86 0.97
1 -3 -6 27.9 1.09
1 -3 -6 35.68 1.12
-1 3 6 35.44 1.17
0 -3 -6 16.84 0.57
0 3 6 15.89 0.62
-1 -3 -6 5.94 0.21
1 3 6 5.59 0.24
1 3 6 5.68 0.21
1 3 6 5.64 0.21
2 3 6 6.18 0.26
2 3 6 6.48 0.23
2 3 6 6.42 0.24
3 3 6 12.26 0.41
3 3 6 11.56 0.43
3 3 6 11.39 0.45
3 3 6 12.19 0.43
-4 -3 -6 16.55 0.61
4 3 6 17.4 0.58
4 3 6 17.68 0.61
-5 -3 -6 63.12 2.16
5 3 6 59.58 2.11
5 3 6 62.3 2.02
5 3 6 63.06 2.21
-6 -3 -6 15.76 0.58
6 3 6 15.65 0.54
-7 -3 -6 7.39 0.3
7 3 6 7.37 0.3
7 3 6 7.61 0.29
-8 -3 -6 2.8 0.16
8 3 6 3.05 0.15
8 3 6 2.69 0.16
-9 -3 -6 0.79 0.1
9 3 6 0.7 0.08
9 3 6 0.77 0.09
-10 -3 -6 0.16 0.09
10 3 6 0.05 0.06
10 3 6 0.06 0.07
-11 -3 -6 2.23 0.19
11 3 6 1.83 0.18
11 3 6 1.85 0.17
6 -4 -6 0.18 0.09
-6 4 6 0.33 0.1
-6 4 6 0.29 0.09
5 -4 -6 0.74 0.1
-5 4 6 0.66 0.1
-5 4 6 0.71 0.11
4 -4 -6 2.05 0.15
-4 4 6 2.17 0.17
-4 4 6 2.12 0.15
3 -4 -6 23.05 0.81
-3 4 6 24.44 0.91
-3 4 6 24.21 0.87
2 -4 -6 2.71 0.14
-2 4 6 2.81 0.14
-2 4 6 2.57 0.16
1 -4 -6 33.72 1.15
-1 4 6 33.78 1.19
0 4 6 8.46 0.27
0 4 6 6.15 0.3
-1 -4 -6 12.91 0.45
1 4 6 12.54 0.49
-2 -4 -6 0.54 0.05
2 4 6 0.49 0.06
-3 -4 -6 11.25 0.39
3 4 6 10.78 0.37
3 4 6 9.85 0.41
4 4 6 21.01 0.66
4 4 6 18.44 0.72
-5 -4 -6 27.33 0.91
5 4 6 24.08 0.86
-6 -4 -6 22.82 0.74
6 4 6 20.33 0.74
6 4 6 18.12 0.69
-7 -4 -6 6.03 0.25
7 4 6 5.91 0.25
7 4 6 6 0.24
-8 -4 -6 0.76 0.08
8 4 6 0.7 0.08
8 4 6 0.75 0.09
-9 -4 -6 0.27 0.07
9 4 6 0.13 0.06
9 4 6 0.15 0.07
-10 -4 -6 0.27 0.08
10 4 6 0.28 0.09
10 4 6 0.17 0.07
-11 -4 -6 2.69 0.2
11 4 6 2.61 0.19
11 4 6 2.43 0.18
5 -5 -6 0.02 0.08
-5 5 6 -0.02 0.09
-5 5 6 -0.03 0.07
4 -5 -6 1 0.1
-4 5 6 1.15 0.11
-4 5 6 1.13 0.13
3 -5 -6 6.6 0.28
-3 5 6 6.63 0.28
-3 5 6 6.65 0.31
2 -5 -6 5.26 0.23
-2 5 6 5.27 0.22
-2 5 6 5.6 0.27
1 -5 -6 0.26 0.05
1 -5 -6 0.3 0.06
-1 5 6 0.31 0.05
-1 5 6 0.32 0.07
0 -5 -6 0.07 0.04
-1 -5 -6 0.23 0.04
1 5 6 0.18 0.06
1 5 6 0.22 0.04
-2 -5 -6 3.92 0.17
2 5 6 4.16 0.16
2 5 6 3.97 0.19
-3 -5 -6 6.81 0.26
3 5 6 6.57 0.25
3 5 6 6.61 0.27
-4 -5 -6 26.52 0.87
4 5 6 26.49 0.91
4 5 6 21.45 0.82
-6 -5 -6 13.84 0.48
6 5 6 12.82 0.5
-7 -5 -6 2.54 0.13
-7 -5 -6 2.48 0.14
7 5 6 2.53 0.13
-8 -5 -6 0.1 0.05
-8 -5 -6 0.07 0.05
8 5 6 0.05 0.05
-9 -5 -6 1.02 0.1
-9 -5 -6 0.94 0.09
9 5 6 1.07 0.1
-10 -5 -6 6.72 0.3
-10 -5 -6 6.23 0.3
10 5 6 6.72 0.29
-11 -5 -6 2.77 0.2
-11 -5 -6 2.93 0.2
11 5 6 2.53 0.18
5 -6 -6 0.29 0.09
-5 6 6 0.27 0.11
4 -6 -6 0.77 0.1
-4 6 6 0.71 0.12
3 -6 -6 7.56 0.32
-3 6 6 8.09 0.37
2 -6 -6 5.27 0.23
-2 6 6 5.18 0.27
1 -6 -6 21.89 0.76
1 -6 -6 22.23 0.78
-1 6 6 22.65 0.86
0 -6 -6 3.81 0.17
0 -6 -6 3.64 0.17
0 6 6 3.71 0.2
-1 -6 -6 0.1 0.04
1 6 6 0.17 0.04
1 6 6 0.06 0.05
-2 -6 -6 3.63 0.16
2 6 6 3.66 0.18
2 6 6 3.64 0.16
-3 -6 -6 26.29 0.91
3 6 6 26.37 0.87
3 6 6 25.49 0.97
-4 -6 -6 9.96 0.38
4 6 6 10.11 0.4
4 6 6 9.97 0.36
5 6 6 6.83 0.26
5 6 6 6.76 0.28
-6 -6 -6 31.56 1.09
6 6 6 31 1.14
6 6 6 31.21 1.05
-7 -6 -6 1.1 0.08
-7 -6 -6 1.02 0.1
7 6 6 0.96 0.09
7 6 6 1.07 0.09
-8 -6 -6 0.78 0.07
-8 -6 -6 0.67 0.08
8 6 6 0.66 0.08
-9 -6 -6 2.69 0.18
-9 -6 -6 3.12 0.17
9 6 6 3.29 0.18
-10 -6 -6 4.82 0.23
-10 -6 -6 4.45 0.24
10 6 6 4.86 0.23
-11 -6 -6 1.54 0.14
-11 -6 -6 1.95 0.17
11 6 6 1.69 0.16
4 -7 -6 1.95 0.17
-4 7 6 1.76 0.17
3 -7 -6 5.31 0.25
-3 7 6 5.33 0.3
2 -7 -6 7.08 0.3
-2 7 6 7.26 0.36
1 -7 -6 1.68 0.13
1 -7 -6 1.7 0.12
-1 7 6 1.85 0.17
0 -7 -6 3.04 0.16
0 -7 -6 2.89 0.16
0 7 6 3.32 0.2
-1 -7 -6 8.89 0.34
1 7 6 8.97 0.33
1 7 6 8.82 0.38
-2 -7 -6 0.34 0.06
2 7 6 0.45 0.07
2 7 6 0.33 0.05
-3 -7 -6 10.95 0.42
3 7 6 11.04 0.39
3 7 6 11.3 0.45
-4 -7 -6 10.37 0.4
4 7 6 10.57 0.42
4 7 6 10.26 0.37
-5 -7 -6 3.7 0.18
5 7 6 3.85 0.17
5 7 6 3.76 0.19
-6 -7 -6 7.66 0.31
6 7 6 7.87 0.3
6 7 6 7.33 0.32
-7 -7 -6 3.21 0.17
7 7 6 3.29 0.17
7 7 6 3.62 0.17
-8 -7 -6 2.07 0.14
8 7 6 2.04 0.14
-9 -7 -6 3.79 0.21
9 7 6 3.82 0.2
-10 -7 -6 2.28 0.18
10 7 6 2.45 0.17
-11 -7 -6 2.49 0.19
11 7 6 2.2 0.17
3 -8 -6 3.99 0.21
-3 8 6 3.46 0.25
2 -8 -6 4.09 0.21
-2 8 6 3.7 0.26
1 -8 -6 0.81 0.09
1 -8 -6 0.94 0.1
-1 8 6 1.09 0.14
0 -8 -6 0.17 0.07
0 -8 -6 0.24 0.07
0 8 6 0.29 0.09
-1 -8 -6 3.29 0.18
1 8 6 3.36 0.21
-2 -8 -6 2.76 0.16
2 8 6 2.69 0.18
2 8 6 2.8 0.14
-3 -8 -6 11.32 0.42
3 8 6 10.4 0.39
3 8 6 11.44 0.46
-4 -8 -6 3.69 0.18
4 8 6 3.72 0.2
4 8 6 3.46 0.16
-5 -8 -6 0.21 0.06
5 8 6 0.23 0.05
5 8 6 0.26 0.06
-6 -8 -6 -0.01 0.05
6 8 6 0.01 0.05
6 8 6 0.01 0.04
-7 -8 -6 1.7 0.14
7 8 6 1.87 0.13
7 8 6 1.88 0.13
-8 -8 -6 9.15 0.37
8 8 6 8.37 0.35
-9 -8 -6 8.72 0.37
9 8 6 8.86 0.36
-10 -8 -6 2.29 0.19
10 8 6 2.33 0.17
2 -9 -6 0.59 0.1
-2 9 6 0.55 0.14
1 -9 -6 0.26 0.08
1 -9 -6 0.35 0.09
-1 9 6 0.34 0.12
0 -9 -6 0.26 0.08
0 -9 -6 0.24 0.08
0 9 6 0.32 0.11
-1 -9 -6 8 0.34
-1 -9 -6 8.17 0.32
1 9 6 8.23 0.38
-2 -9 -6 1.43 0.14
2 9 6 1.67 0.15
2 9 6 1.5 0.11
-3 -9 -6 12.55 0.47
3 9 6 12.21 0.44
3 9 6 12.1 0.51
-4 -9 -6 3.2 0.18
4 9 6 3.24 0.2
4 9 6 2.85 0.15
-5 -9 -6 0.3 0.07
5 9 6 0.35 0.06
5 9 6 0.34 0.08
-6 -9 -6 0.16 0.06
6 9 6 0.21 0.07
6 9 6 0.26 0.06
-7 -9 -6 1.48 0.14
7 9 6 1.19 0.11
7 9 6 1.21 0.11
-8 -9 -6 2.06 0.17
8 9 6 1.82 0.14
8 9 6 1.66 0.14
-9 -9 -6 8.58 0.38
9 9 6 8.67 0.36
-10 -9 -6 0.52 0.1
10 9 6 0.7 0.1
0 -10 -6 0.89 0.1
0 -10 -6 0.87 0.11
0 10 6 0.76 0.14
-1 -10 -6 2.38 0.18
-1 -10 -6 2.25 0.16
1 10 6 2.37 0.21
-2 -10 -6 7.99 0.34
2 10 6 7.92 0.39
-3 -10 -6 6.45 0.29
3 10 6 6.1 0.25
3 10 6 6.17 0.32
-4 -10 -6 1.64 0.16
4 10 6 1.92 0.17
4 10 6 1.52 0.12
-5 -10 -6 0.08 0.07
5 10 6 0.23 0.08
5 10 6 0.13 0.05
-6 -10 -6 0.01 0.07
6 10 6 0.03 0.05
6 10 6 0.09 0.07
-7 -10 -6 0.97 0.11
7 10 6 0.96 0.1
7 10 6 0.88 0.11
-8 -10 -6 1.1 0.12
8 10 6 0.92 0.1
8 10 6 0.97 0.12
-9 -10 -6 0.97 0.12
9 10 6 0.67 0.1
-2 -11 -6 3.05 0.21
2 11 6 2.83 0.24
-3 -11 -6 0.86 0.12
3 11 6 1.04 0.14
-4 -11 -6 1.59 0.15
4 11 6 1.67 0.17
-5 -11 -6 0.44 0.1
5 11 6 0.39 0.11
-6 -11 -6 0.38 0.1
6 11 6 0.43 0.07
6 11 6 0.33 0.1
-7 -11 -6 1.28 0.14
7 11 6 1.42 0.14
7 11 6 1.38 0.13
3 6 -7 0.09 0.1
-3 -6 7 0.18 0.1
2 6 -7 0.18 0.1
-2 -6 7 0.21 0.1
1 6 -7 0.03 0.1
-1 -6 7 0.09 0.07
-1 -6 7 -0.01 0.09
0 6 -7 0.07 0.1
0 -6 7 -0.01 0.09
0 -6 7 0.01 0.07
-1 6 -7 0.17 0.11
1 -6 7 0.15 0.08
1 -6 7 0.26 0.11
-2 6 -7 0.89 0.14
2 -6 7 0.83 0.13
2 -6 7 0.78 0.12
-3 6 -7 0.95 0.14
3 -6 7 0.92 0.14
3 -6 7 0.77 0.12
5 5 -7 0.22 0.11
-5 -5 7 0.17 0.11
4 5 -7 0.43 0.11
-4 -5 7 0.49 0.11
3 5 -7 0.11 0.09
-3 -5 7 0.07 0.09
2 5 -7 0.51 0.11
-2 -5 7 0.71 0.11
1 5 -7 0.24 0.09
-1 -5 7 0.24 0.06
-1 -5 7 0.25 0.09
0 5 -7 0.01 0.08
0 -5 7 -0.06 0.06
0 -5 7 0.08 0.08
-1 5 -7 3.01 0.21
1 -5 7 2.71 0.18
1 -5 7 3.04 0.2
-2 5 -7 1.29 0.13
2 -5 7 1.3 0.12
2 -5 7 1.19 0.14
-3 5 -7 1.05 0.13
3 -5 7 1.01 0.12
3 -5 7 1.09 0.14
4 -5 7 0.49 0.1
-5 5 -7 0.49 0.13
5 -5 7 0.04 0.09
5 4 -7 0.41 0.11
-5 -4 7 0.69 0.12
4 4 -7 1.97 0.19
-4 -4 7 1.45 0.15
3 4 -7 1.83 0.18
-3 -4 7 1.79 0.16
2 4 -7 0.13 0.08
-2 -4 7 0.08 0.07
1 4 -7 0.06 0.07
-1 -4 7 -0.01 0.04
-1 -4 7 0.02 0.07
0 4 -7 0.84 0.11
0 -4 7 0.97 0.11
0 -4 7 0.76 0.08
-1 4 -7 1.61 0.15
1 -4 7 1.57 0.13
1 -4 7 1.56 0.15
-2 4 -7 2.93 0.2
2 -4 7 3.19 0.2
2 -4 7 3.06 0.18
-3 4 -7 2.81 0.18
3 -4 7 2.85 0.18
3 -4 7 2.56 0.19
4 -4 7 0.25 0.08
4 -4 7 0.26 0.1
-5 4 -7 0.09 0.1
5 -4 7 -0.05 0.07
-6 4 -7 0.54 0.12
6 -4 7 0.52 0.11
-7 4 -7 2.56 0.24
7 -4 7 2.73 0.22
6 3 -7 0.86 0.13
-6 -3 7 0.97 0.14
5 3 -7 1.18 0.13
-5 -3 7 1.1 0.13
4 3 -7 1.87 0.18
-4 -3 7 1.72 0.17
3 3 -7 0.92 0.11
-3 -3 7 0.84 0.11
2 3 -7 2.17 0.16
-2 -3 7 2.07 0.15
1 3 -7 0.37 0.08
-1 -3 7 0.31 0.07
-1 -3 7 0.31 0.05
0 3 -7 3.2 0.18
0 -3 7 2.72 0.17
0 -3 7 2.78 0.15
-1 3 -7 4.32 0.22
1 -3 7 4.2 0.2
1 -3 7 4.74 0.22
-2 3 -7 6.87 0.31
2 -3 7 7.18 0.3
2 -3 7 6.88 0.29
-3 3 -7 2.16 0.15
3 -3 7 2.4 0.15
3 -3 7 2.34 0.16
-4 3 -7 0.16 0.07
4 -3 7 0.2 0.08
4 -3 7 0.19 0.06
-5 3 -7 0.05 0.08
5 -3 7 0.01 0.06
-6 3 -7 0.52 0.11
6 -3 7 0.45 0.09
-7 3 -7 3.08 0.24
7 -3 7 3.45 0.23
-8 3 -7 4.67 0.31
8 -3 7 4.79 0.28
6 2 -7 1.5 0.13
-6 -2 7 1.16 0.14
5 2 -7 0.35 0.07
-5 -2 7 0.34 0.1
4 2 -7 0.6 0.07
-4 -2 7 0.66 0.13
-4 -2 7 0.56 0.1
3 2 -7 0.08 0.04
-3 -2 7 -0.03 0.1
-3 -2 7 -0.03 0.07
2 2 -7 0.91 0.07
-2 -2 7 0.76 0.1
1 2 -7 15.27 0.51
-1 -2 7 14.76 0.56
-1 -2 7 14.97 0.54
0 2 -7 4.41 0.21
0 -2 7 4.27 0.18
0 -2 7 4.24 0.2
-1 2 -7 2.93 0.16
1 -2 7 3.02 0.16
1 -2 7 2.95 0.15
-2 2 -7 4.38 0.21
2 -2 7 4.84 0.22
2 -2 7 4.45 0.2
-3 2 -7 2.32 0.14
3 -2 7 2.39 0.14
3 -2 7 2.38 0.15
-4 2 -7 0.05 0.05
4 -2 7 0.1 0.07
4 -2 7 0.1 0.05
5 -2 7 1.02 0.1
-6 2 -7 0.5 0.1
6 -2 7 0.49 0.08
-7 2 -7 2.28 0.2
7 -2 7 2.39 0.18
-8 2 -7 4.13 0.28
8 -2 7 4.24 0.25
6 1 -7 0.59 0.09
-6 -1 7 0.59 0.12
-6 -1 7 0.67 0.12
5 1 -7 3.26 0.18
-5 -1 7 3.77 0.22
-5 -1 7 2.89 0.22
4 1 -7 0.13 0.06
-4 -1 7 0.16 0.08
-4 -1 7 0.1 0.09
3 1 -7 0.19 0.05
-3 -1 7 0.4 0.09
-3 -1 7 0.2 0.07
2 1 -7 4.37 0.18
-2 -1 7 4.24 0.21
-2 -1 7 4.47 0.23
1 1 -7 18.24 0.61
-1 -1 7 18.14 0.7
-1 -1 7 18.45 0.67
0 1 -7 3.87 0.15
0 -1 7 4.12 0.17
0 -1 7 3.87 0.19
0 -1 7 4.18 0.21
-1 1 -7 6.98 0.25
1 -1 7 7.32 0.29
1 -1 7 6.92 0.27
1 -1 7 7.22 0.31
-2 1 -7 8.21 0.35
2 -1 7 9.02 0.33
2 -1 7 8.6 0.34
-3 1 -7 0.63 0.07
3 -1 7 0.4 0.06
3 -1 7 0.59 0.08
-4 1 -7 -0.01 0.04
4 -1 7 -0.02 0.05
4 -1 7 -0.01 0.03
4 -1 7 0 0.03
5 -1 7 0.37 0.05
5 -1 7 0.44 0.07
-6 1 -7 0.91 0.1
6 -1 7 0.78 0.09
6 -1 7 0.89 0.07
-7 1 -7 4.62 0.24
7 -1 7 4.24 0.19
7 -1 7 4.13 0.22
-8 1 -7 3.23 0.23
8 -1 7 2.86 0.2
-9 1 -7 0.54 0.13
9 -1 7 0.77 0.12
6 0 -7 2.34 0.17
-6 0 7 2.45 0.2
-6 0 7 2.3 0.2
5 0 -7 1.03 0.1
-5 0 7 1.18 0.13
-5 0 7 1.27 0.13
4 0 -7 0.49 0.07
-4 0 7 0.63 0.1
-4 0 7 0.75 0.11
3 0 -7 0.45 0.06
-3 0 7 0.61 0.08
-3 0 7 0.6 0.09
2 0 -7 5.85 0.23
-2 0 7 5.71 0.25
-2 0 7 5.99 0.27
1 0 -7 12.36 0.42
-1 0 7 11.99 0.46
-1 0 7 11.98 0.48
0 0 -7 23.17 0.76
0 0 7 22.3 0.82
0 0 7 22.99 0.85
1 0 7 0.89 0.07
1 0 7 0.94 0.08
1 0 7 0.86 0.08
1 0 7 0.88 0.06
2 0 7 3.31 0.13
2 0 7 3.28 0.16
2 0 7 3.39 0.16
2 0 7 3.41 0.15
3 0 7 1.69 0.1
3 0 7 1.41 0.12
3 0 7 1.73 0.11
3 0 7 1.68 0.09
-4 0 -7 3.27 0.15
4 0 7 3.06 0.16
4 0 7 3.05 0.13
4 0 7 3.19 0.16
-5 0 -7 6.86 0.28
5 0 7 7.16 0.29
5 0 7 6.84 0.26
-6 0 -7 5.43 0.25
6 0 7 5.34 0.24
6 0 7 5.31 0.21
-7 0 -7 2.27 0.17
7 0 7 2.09 0.15
7 0 7 2.16 0.12
-8 0 -7 7.27 0.34
8 0 7 6.78 0.31
8 0 7 7.23 0.28
-9 0 -7 1.32 0.15
9 0 7 1.56 0.13
9 0 7 1.36 0.13
-10 0 -7 0.04 0.11
10 0 7 -0.08 0.08
10 0 7 -0.04 0.07
6 -1 -7 0.79 0.11
-6 1 7 0.81 0.12
-6 1 7 0.92 0.13
5 -1 -7 -0.03 0.07
-5 1 7 0.04 0.09
-5 1 7 0 0.08
4 -1 -7 0.08 0.06
-4 1 7 0.27 0.08
-4 1 7 0.22 0.09
3 -1 -7 9.25 0.35
-3 1 7 9.35 0.38
-3 1 7 9.54 0.4
2 -1 -7 11.79 0.41
-2 1 7 11.92 0.44
-2 1 7 10.83 0.46
1 -1 -7 11.66 0.41
-1 1 7 11.78 0.44
0 -1 -7 8.32 0.3
0 1 7 8.36 0.34
0 1 7 8.31 0.32
0 1 7 8.38 0.3
1 1 7 6.13 0.24
1 1 7 6.17 0.23
1 1 7 6.18 0.26
1 1 7 6.2 0.23
2 1 7 0.55 0.06
2 1 7 0.61 0.06
2 1 7 0.54 0.05
2 1 7 0.54 0.06
3 1 7 9.52 0.36
3 1 7 9.19 0.36
3 1 7 9.15 0.35
3 1 7 9.37 0.33
4 1 7 18.46 0.62
4 1 7 19.06 0.68
4 1 7 18.12 0.66
-5 -1 -7 14.81 0.54
-5 -1 -7 14.54 0.55
5 1 7 14.7 0.54
5 1 7 14.89 0.51
-6 -1 -7 9.09 0.36
6 1 7 8.95 0.36
6 1 7 9.01 0.33
-7 -1 -7 10.66 0.42
7 1 7 10.35 0.41
7 1 7 10.65 0.38
-8 -1 -7 5.15 0.26
8 1 7 4.94 0.21
8 1 7 4.76 0.24
-9 -1 -7 1.1 0.13
9 1 7 1.06 0.1
9 1 7 1.07 0.11
-10 -1 -7 0.5 0.11
10 1 7 0.6 0.11
10 1 7 0.48 0.09
6 -2 -7 0.61 0.1
-6 2 7 0.59 0.11
-6 2 7 0.69 0.12
5 -2 -7 0.05 0.08
-5 2 7 0.05 0.08
-5 2 7 0.14 0.09
4 -2 -7 10.42 0.4
-4 2 7 10.6 0.45
-4 2 7 10.73 0.43
3 -2 -7 0 0.05
-3 2 7 0.02 0.07
-3 2 7 0.04 0.06
2 -2 -7 20.23 0.68
-2 2 7 19.86 0.72
-2 2 7 19.34 0.76
1 -2 -7 10.55 0.37
-1 2 7 10.19 0.39
0 -2 -7 15.51 0.53
0 -2 -7 15.75 0.53
0 2 7 15.04 0.56
0 2 7 14.92 0.59
1 2 7 8.28 0.3
1 2 7 8.24 0.28
1 2 7 8.39 0.32
1 2 7 6.57 0.28
2 2 7 4.57 0.2
2 2 7 4.62 0.19
2 2 7 4.65 0.19
2 2 7 4.68 0.18
3 2 7 0.03 0.03
3 2 7 0.06 0.03
3 2 7 0.1 0.03
3 2 7 0.05 0.03
4 2 7 29.54 0.98
4 2 7 29.29 1.05
4 2 7 29.78 1.03
-5 -2 -7 25.48 0.94
5 2 7 26.68 0.95
5 2 7 26.67 0.92
5 2 7 26.18 0.88
-6 -2 -7 18.24 0.66
6 2 7 17.76 0.61
-7 -2 -7 5.38 0.25
7 2 7 5.86 0.23
7 2 7 5.78 0.25
-8 -2 -7 0.47 0.08
8 2 7 0.46 0.08
8 2 7 0.47 0.07
-9 -2 -7 0.56 0.1
9 2 7 0.36 0.08
9 2 7 0.47 0.08
-10 -2 -7 3.84 0.23
10 2 7 3.22 0.21
10 2 7 3.4 0.19
-11 -2 -7 1.47 0.16
11 2 7 1.19 0.13
11 2 7 1.07 0.12
6 -3 -7 0.31 0.1
-6 3 7 0.38 0.11
-6 3 7 0.29 0.1
5 -3 -7 -0.02 0.07
-5 3 7 -0.1 0.08
-5 3 7 -0.11 0.07
4 -3 -7 2.6 0.17
-4 3 7 3.1 0.18
-4 3 7 3.09 0.2
3 -3 -7 1.45 0.12
-3 3 7 1.51 0.13
-3 3 7 1.8 0.15
2 -3 -7 0.2 0.06
-2 3 7 0.24 0.06
-2 3 7 0.18 0.07
1 -3 -7 4.15 0.18
-1 3 7 4.3 0.18
0 -3 -7 5.91 0.22
0 3 7 5.75 0.26
0 3 7 5.81 0.23
-1 -3 -7 0.43 0.04
1 3 7 0.41 0.04
1 3 7 0.44 0.06
1 3 7 0.49 0.05
2 3 7 0.05 0.03
2 3 7 0 0.02
2 3 7 0.04 0.03
2 3 7 0.06 0.04
3 3 7 9.26 0.32
3 3 7 9.01 0.35
3 3 7 9.03 0.34
4 3 7 34.14 1.1
4 3 7 31.63 1.2
4 3 7 33.81 1.15
-5 -3 -7 23.13 0.83
5 3 7 23.16 0.82
5 3 7 23.49 0.78
-6 -3 -7 14.33 0.53
6 3 7 14.06 0.5
-7 -3 -7 1.82 0.12
7 3 7 2.09 0.12
7 3 7 1.88 0.13
-8 -3 -7 -0.01 0.05
8 3 7 0.03 0.05
8 3 7 0.03 0.05
-9 -3 -7 6.06 0.29
9 3 7 6.19 0.29
9 3 7 6.68 0.27
-10 -3 -7 3.06 0.2
10 3 7 2.5 0.19
10 3 7 2.81 0.18
-11 -3 -7 2.57 0.21
11 3 7 2.75 0.18
11 3 7 2.6 0.2
5 -4 -7 0.04 0.08
-5 4 7 0.12 0.09
-5 4 7 -0.04 0.08
4 -4 -7 2.18 0.16
-4 4 7 2.31 0.19
-4 4 7 2.12 0.16
3 -4 -7 4.75 0.22
-3 4 7 4.71 0.22
-3 4 7 4.66 0.25
2 -4 -7 14.81 0.53
-2 4 7 14.94 0.55
-2 4 7 14.58 0.59
1 -4 -7 11.23 0.4
-1 4 7 9.9 0.44
-1 4 7 11.26 0.4
0 -4 -7 4.82 0.19
0 4 7 4.95 0.19
-1 -4 -7 2.04 0.1
1 4 7 1.83 0.1
1 4 7 1.9 0.12
-2 -4 -7 12.16 0.43
2 4 7 11.91 0.46
2 4 7 11.67 0.41
-3 -4 -7 21.17 0.74
3 4 7 20.93 0.71
3 4 7 21.21 0.78
4 4 7 3.37 0.15
4 4 7 3.35 0.15
-5 -4 -7 93.58 3.27
5 4 7 91.61 3.36
5 4 7 95.93 3.2
5 4 7 95.82 3.05
-6 -4 -7 9.04 0.32
6 4 7 8.49 0.31
6 4 7 7.63 0.32
-7 -4 -7 0.14 0.05
7 4 7 0.08 0.05
7 4 7 0.06 0.04
-8 -4 -7 0.85 0.08
8 4 7 0.82 0.08
8 4 7 0.94 0.09
-9 -4 -7 6.2 0.27
9 4 7 6.2 0.26
9 4 7 5.51 0.27
-10 -4 -7 2.74 0.19
10 4 7 2.79 0.17
10 4 7 2.71 0.19
-11 -4 -7 4.65 0.26
11 4 7 4.56 0.26
11 4 7 4.73 0.24
5 -5 -7 0.18 0.09
-5 5 7 0.29 0.11
4 -5 -7 4.3 0.22
-4 5 7 3.85 0.22
-4 5 7 4.02 0.25
3 -5 -7 6.27 0.27
-3 5 7 5.78 0.26
-3 5 7 6.27 0.31
2 -5 -7 3.09 0.17
-2 5 7 3.15 0.15
-2 5 7 2.9 0.19
1 -5 -7 0.1 0.06
-1 5 7 0.12 0.04
-1 5 7 0.35 0.08
0 -5 -7 16.87 0.56
0 -5 -7 16.76 0.56
0 5 7 14.1 0.62
-1 -5 -7 0.02 0.03
1 5 7 0 0.01
1 5 7 0.06 0.05
-2 -5 -7 16.19 0.57
2 5 7 15.9 0.61
-3 -5 -7 10.59 0.4
3 5 7 11.38 0.43
-4 -5 -7 14.7 0.53
4 5 7 14.26 0.55
-5 -5 -7 28.91 0.95
5 5 7 24.92 0.98
-6 -5 -7 21.29 0.76
-6 -5 -7 21.56 0.75
6 5 7 20.26 0.77
6 5 7 21.02 0.72
-7 -5 -7 0.15 0.04
7 5 7 0.1 0.05
-8 -5 -7 4.62 0.21
8 5 7 4.62 0.21
-9 -5 -7 3.97 0.2
9 5 7 3.81 0.19
-10 -5 -7 7.07 0.31
10 5 7 7.12 0.3
-11 -5 -7 1.55 0.15
11 5 7 1.76 0.15
4 -6 -7 3.64 0.21
-4 6 7 3.38 0.25
3 -6 -7 4.52 0.23
-3 6 7 4.12 0.26
2 -6 -7 4.32 0.21
-2 6 7 4.15 0.25
1 -6 -7 1.43 0.12
-1 6 7 1.2 0.12
0 -6 -7 10.25 0.38
0 -6 -7 10.69 0.39
0 6 7 10.3 0.44
-1 -6 -7 0.33 0.05
1 6 7 0.33 0.06
1 6 7 0.64 0.09
-2 -6 -7 15.03 0.54
2 6 7 15.13 0.58
2 6 7 14.64 0.52
-3 -6 -7 2.71 0.14
3 6 7 2.83 0.15
3 6 7 2.65 0.13
-4 -6 -7 2.74 0.14
4 6 7 2.89 0.14
4 6 7 2.89 0.15
-5 -6 -7 2.91 0.15
5 6 7 3.07 0.15
5 6 7 2.89 0.14
-6 -6 -7 18.97 0.69
6 6 7 18.31 0.65
6 6 7 19.54 0.71
-7 -6 -7 14.33 0.52
7 6 7 13.56 0.5
-8 -6 -7 18.41 0.67
8 6 7 17.89 0.64
-9 -6 -7 3.98 0.22
9 6 7 4.36 0.21
-10 -6 -7 3.39 0.21
10 6 7 3.83 0.2
-11 -6 -7 1.71 0.15
11 6 7 2.18 0.16
3 -7 -7 2.98 0.19
-3 7 7 2.95 0.23
2 -7 -7 3.02 0.19
-2 7 7 3.13 0.23
1 -7 -7 0.54 0.08
-1 7 7 0.54 0.11
0 -7 -7 4.19 0.2
0 -7 -7 4.07 0.19
0 7 7 4.28 0.24
-1 -7 -7 0.97 0.1
1 7 7 1.37 0.14
1 7 7 1.26 0.1
-2 -7 -7 13.59 0.5
2 7 7 13.8 0.48
2 7 7 13.41 0.54
-3 -7 -7 10.96 0.41
3 7 7 10.55 0.39
3 7 7 11.19 0.45
-4 -7 -7 3.54 0.17
4 7 7 3.32 0.18
4 7 7 3.23 0.16
-5 -7 -7 1.67 0.11
5 7 7 1.69 0.11
5 7 7 1.6 0.12
-6 -7 -7 1.28 0.1
6 7 7 1.16 0.1
6 7 7 1.32 0.11
-7 -7 -7 1.97 0.13
7 7 7 1.98 0.13
7 7 7 2.11 0.13
-8 -7 -7 19.57 0.73
8 7 7 20.2 0.7
-9 -7 -7 2.01 0.16
9 7 7 2.46 0.15
-10 -7 -7 0.76 0.11
10 7 7 0.77 0.1
-11 -7 -7 1.33 0.14
11 7 7 1.81 0.15
3 -8 -7 1.86 0.17
-3 8 7 1.34 0.17
2 -8 -7 1.54 0.13
-2 8 7 1.39 0.16
1 -8 -7 0.04 0.07
-1 8 7 0.05 0.1
0 -8 -7 1.37 0.12
0 -8 -7 1.32 0.12
0 8 7 1.75 0.16
-1 -8 -7 12.83 0.48
1 8 7 12.97 0.54
-2 -8 -7 16.31 0.62
2 8 7 18.04 0.68
2 8 7 16.62 0.59
-3 -8 -7 7.59 0.31
3 8 7 7.4 0.34
3 8 7 7.23 0.29
-4 -8 -7 3.15 0.17
4 8 7 3.03 0.15
4 8 7 3.39 0.19
-5 -8 -7 0.58 0.07
5 8 7 0.58 0.07
5 8 7 0.83 0.09
-6 -8 -7 0.55 0.07
6 8 7 0.66 0.08
6 8 7 0.58 0.07
-7 -8 -7 1.67 0.13
7 8 7 1.82 0.13
7 8 7 1.73 0.13
-8 -8 -7 3.3 0.18
8 8 7 2.78 0.17
-9 -8 -7 0.22 0.07
9 8 7 0.31 0.08
-10 -8 -7 0.02 0.07
10 8 7 0.11 0.07
1 -9 -7 -0.05 0.08
-1 9 7 0.07 0.11
0 -9 -7 3.18 0.18
0 -9 -7 3.07 0.19
0 9 7 3.09 0.24
-1 -9 -7 4.68 0.22
-1 -9 -7 4.56 0.22
1 9 7 4.48 0.27
-2 -9 -7 5.26 0.25
2 9 7 5.23 0.23
2 9 7 5.46 0.29
-3 -9 -7 7.64 0.32
3 9 7 7.88 0.36
3 9 7 7.34 0.3
-4 -9 -7 0.16 0.07
4 9 7 0.18 0.08
4 9 7 0.16 0.05
-5 -9 -7 0.19 0.06
5 9 7 0.15 0.07
5 9 7 0.16 0.06
-6 -9 -7 1.36 0.12
6 9 7 1.24 0.11
6 9 7 1.26 0.12
-7 -9 -7 3.68 0.2
7 9 7 3.53 0.2
7 9 7 3.76 0.19
-8 -9 -7 0.15 0.07
8 9 7 0.14 0.06
-9 -9 -7 1.04 0.12
9 9 7 1.07 0.11
-10 -9 -7 0.06 0.08
10 9 7 0.02 0.07
0 -10 -7 2.85 0.2
0 -10 -7 3.12 0.19
0 10 7 2.59 0.24
-1 -10 -7 3.89 0.22
-1 -10 -7 4.01 0.21
1 10 7 4.25 0.27
-2 -10 -7 6.12 0.29
2 10 7 6.48 0.34
-3 -10 -7 4.03 0.22
3 10 7 3.96 0.24
3 10 7 3.76 0.19
-4 -10 -7 0.2 0.07
4 10 7 0.26 0.06
4 10 7 0.25 0.09
-5 -10 -7 0.77 0.1
5 10 7 0.61 0.08
5 10 7 0.61 0.1
-6 -10 -7 2.27 0.17
6 10 7 2.05 0.14
6 10 7 2.19 0.17
-7 -10 -7 1.96 0.16
7 10 7 1.79 0.14
7 10 7 1.77 0.17
-8 -10 -7 1.72 0.15
8 10 7 1.47 0.14
8 10 7 1.69 0.16
-9 -10 -7 0.15 0.09
9 10 7 0.1 0.07
-2 -11 -7 2.46 0.17
-2 -11 -7 2.4 0.19
2 11 7 2.41 0.22
-3 -11 -7 1.98 0.18
3 11 7 2.1 0.21
3 11 7 1.82 0.14
-4 -11 -7 0.21 0.09
4 11 7 0.11 0.09
4 11 7 0.19 0.06
-5 -11 -7 3.36 0.22
5 11 7 3.38 0.23
5 11 7 3.22 0.18
-6 -11 -7 1.58 0.14
6 11 7 1.38 0.15
6 11 7 1.38 0.13
-7 -11 -7 1.2 0.13
7 11 7 0.98 0.12
7 11 7 1.04 0.11
8 11 7 1.17 0.13
-1 -6 8 0.01 0.1
0 6 -8 0.21 0.11
0 -6 8 -0.02 0.07
0 -6 8 -0.02 0.1
-1 6 -8 0.72 0.13
1 -6 8 0.57 0.11
1 -6 8 0.59 0.13
3 5 -8 -0.01 0.1
-3 -5 8 0.06 0.1
2 5 -8 -0.07 0.09
-2 -5 8 0.02 0.1
1 5 -8 0.06 0.09
-1 -5 8 0.03 0.09
0 5 -8 0.31 0.1
0 -5 8 0.5 0.11
0 -5 8 0.32 0.08
-1 5 -8 1.45 0.15
1 -5 8 1.23 0.12
1 -5 8 1.42 0.15
-2 5 -8 1.5 0.15
2 -5 8 1.27 0.13
2 -5 8 1.56 0.16
-3 5 -8 0.03 0.1
3 -5 8 0.16 0.11
3 -5 8 -0.02 0.08
4 -5 8 0.4 0.11
4 4 -8 0.03 0.1
-4 -4 8 0.07 0.1
3 4 -8 -0.03 0.09
-3 -4 8 -0.01 0.09
2 4 -8 1.06 0.13
-2 -4 8 1.02 0.13
1 4 -8 0.33 0.1
-1 -4 8 0.34 0.1
0 4 -8 1.11 0.12
0 -4 8 0.92 0.09
0 -4 8 1.25 0.13
-1 4 -8 1.89 0.17
1 -4 8 2.02 0.17
1 -4 8 1.93 0.14
-2 4 -8 1.68 0.16
2 -4 8 1.83 0.17
2 -4 8 1.42 0.14
-3 4 -8 -0.05 0.08
3 -4 8 0.13 0.09
3 -4 8 0.06 0.07
4 -4 8 -0.02 0.07
4 -4 8 0.07 0.1
-5 4 -8 0.02 0.11
5 -4 8 -0.08 0.08
-6 4 -8 0.56 0.14
6 -4 8 0.48 0.12
5 3 -8 0.28 0.11
-5 -3 8 0.16 0.11
4 3 -8 0.05 0.09
-4 -3 8 -0.11 0.09
3 3 -8 0.19 0.09
-3 -3 8 0.04 0.09
2 3 -8 3.01 0.2
-2 -3 8 2.76 0.19
1 3 -8 1.67 0.16
-1 -3 8 1.25 0.12
0 3 -8 1.87 0.16
0 -3 8 1.54 0.12
0 -3 8 1.86 0.15
-1 3 -8 3.73 0.21
1 -3 8 3.57 0.18
1 -3 8 3.69 0.2
-2 3 -8 0.44 0.08
2 -3 8 0.46 0.09
2 -3 8 0.31 0.07
-3 3 -8 1.56 0.14
3 -3 8 1.51 0.13
3 -3 8 1.58 0.16
4 -3 8 -0.06 0.06
4 -3 8 -0.07 0.08
5 -3 8 0.15 0.08
-6 3 -8 1.51 0.15
6 -3 8 1.09 0.13
-7 3 -8 3.13 0.25
7 -3 8 2.67 0.22
-5 -2 8 0.54 0.12
-4 -2 8 -0.04 0.09
-3 -2 8 0.41 0.09
-2 -2 8 1.71 0.15
1 2 -8 3.55 0.2
-1 -2 8 3.38 0.19
0 2 -8 0.67 0.09
0 -2 8 0.63 0.07
0 -2 8 0.63 0.09
-1 2 -8 3.67 0.2
1 -2 8 3.66 0.17
1 -2 8 3.7 0.19
-2 2 -8 2.36 0.16
2 -2 8 2.5 0.14
2 -2 8 2.52 0.16
-3 2 -8 0.09 0.06
3 -2 8 0.02 0.05
3 -2 8 0.02 0.07
-4 2 -8 0.31 0.07
4 -2 8 0.35 0.08
4 -2 8 0.35 0.07
5 -2 8 0.88 0.1
-6 2 -8 1.39 0.14
6 -2 8 1.15 0.12
-7 2 -8 6.53 0.33
7 -2 8 6.3 0.31
-8 2 -8 1.81 0.18
8 -2 8 1.74 0.16
5 1 -8 0.1 0.07
-5 -1 8 0.28 0.12
-5 -1 8 0.25 0.11
4 1 -8 0.6 0.08
-4 -1 8 0.7 0.13
-4 -1 8 0.6 0.11
3 1 -8 1.3 0.1
-3 -1 8 1.44 0.14
-3 -1 8 1.32 0.12
2 1 -8 1.04 0.09
-2 -1 8 0.88 0.1
-2 -1 8 1.24 0.13
1 1 -8 2.81 0.13
-1 -1 8 3.02 0.19
-1 -1 8 2.61 0.16
0 1 -8 6.13 0.23
0 -1 8 6.35 0.27
0 -1 8 6.72 0.3
0 -1 8 6.28 0.25
-1 1 -8 1.4 0.08
1 -1 8 1.81 0.11
1 -1 8 1.5 0.12
1 -1 8 1.51 0.13
-2 1 -8 0.18 0.05
2 -1 8 0.26 0.04
2 -1 8 0.17 0.05
2 -1 8 0.26 0.06
-3 1 -8 2.5 0.14
3 -1 8 2.62 0.16
3 -1 8 2.19 0.14
-4 1 -8 1.99 0.12
4 -1 8 1.77 0.13
4 -1 8 1.92 0.14
5 -1 8 5.89 0.27
-6 1 -8 6.24 0.31
6 -1 8 6.96 0.3
-7 1 -8 7.05 0.33
7 -1 8 6.81 0.32
-8 1 -8 3.43 0.24
8 -1 8 3.28 0.22
-9 1 -8 0.2 0.12
9 -1 8 0.02 0.09
5 0 -8 1.91 0.15
-5 0 8 1.89 0.17
-5 0 8 2.15 0.19
4 0 -8 0.25 0.07
-4 0 8 0.34 0.1
-4 0 8 0.3 0.09
3 0 -8 4.01 0.19
-3 0 8 4.5 0.23
-3 0 8 4.43 0.24
2 0 -8 4.18 0.18
-2 0 8 4.17 0.21
-2 0 8 4.35 0.23
1 0 -8 9.66 0.34
-1 0 8 9.46 0.4
-1 0 8 9.07 0.37
0 0 -8 6.65 0.25
0 0 8 6.59 0.3
0 0 8 6.48 0.28
0 0 8 7.07 0.26
1 0 8 1.01 0.1
1 0 8 1.14 0.08
1 0 8 0.99 0.09
2 0 8 1.87 0.12
2 0 8 1.89 0.09
2 0 8 1.7 0.11
2 0 8 1.69 0.12
3 0 8 5.94 0.22
3 0 8 5.91 0.25
3 0 8 5.73 0.26
3 0 8 5.89 0.25
-4 0 -8 14.13 0.53
4 0 8 13.52 0.53
4 0 8 13.94 0.52
4 0 8 14.17 0.48
5 0 8 9.19 0.34
5 0 8 9.55 0.37
-6 0 -8 12.28 0.48
6 0 8 11.66 0.42
6 0 8 12.01 0.47
-7 0 -8 2.3 0.18
7 0 8 2.51 0.17
7 0 8 2.47 0.13
-8 0 -8 2.55 0.2
8 0 8 2.08 0.17
8 0 8 2.39 0.14
-9 0 -8 0.49 0.12
9 0 8 0.35 0.07
9 0 8 0.27 0.09
5 -1 -8 0.22 0.09
-5 1 8 0.41 0.11
-5 1 8 0.42 0.11
4 -1 -8 0.16 0.07
-4 1 8 0.26 0.09
-4 1 8 0.2 0.1
3 -1 -8 0 0.05
-3 1 8 -0.08 0.07
-3 1 8 -0.06 0.07
2 -1 -8 4.41 0.19
-2 1 8 4.5 0.21
-2 1 8 4.42 0.23
1 -1 -8 6.96 0.26
-1 1 8 6.75 0.28
-1 1 8 6.37 0.3
0 -1 -8 3.49 0.16
0 1 8 3.77 0.17
0 1 8 3.64 0.19
1 1 8 2.04 0.12
1 1 8 1.99 0.11
1 1 8 2.19 0.11
1 1 8 2.13 0.13
2 1 8 0.47 0.06
2 1 8 0.53 0.07
2 1 8 0.59 0.06
2 1 8 0.53 0.06
3 1 8 9.31 0.37
3 1 8 9.33 0.37
3 1 8 9.59 0.33
3 1 8 9.53 0.36
4 1 8 17.67 0.65
4 1 8 18.63 0.61
4 1 8 18.28 0.66
4 1 8 17.37 0.67
5 1 8 15.39 0.57
5 1 8 15.39 0.53
-6 -1 -8 7.17 0.3
6 1 8 7.25 0.3
6 1 8 7.17 0.28
-7 -1 -8 2.17 0.16
7 1 8 2.28 0.13
7 1 8 2.09 0.15
-8 -1 -8 0.88 0.12
8 1 8 0.89 0.09
8 1 8 0.83 0.1
-9 -1 -8 0.8 0.12
9 1 8 0.6 0.08
9 1 8 0.56 0.1
-10 -1 -8 2.71 0.22
10 1 8 2.37 0.17
10 1 8 2.4 0.2
5 -2 -8 0.49 0.1
-5 2 8 0.39 0.1
-5 2 8 0.43 0.11
4 -2 -8 0.52 0.09
-4 2 8 0.69 0.1
-4 2 8 0.74 0.12
3 -2 -8 6.34 0.27
-3 2 8 6.45 0.29
-3 2 8 6.57 0.31
2 -2 -8 7.4 0.29
-2 2 8 7.17 0.33
-2 2 8 7.21 0.3
1 -2 -8 6.56 0.26
-1 2 8 6.28 0.29
-1 2 8 6.61 0.27
0 -2 -8 -0.02 0.04
0 2 8 -0.02 0.04
0 2 8 0.03 0.05
1 2 8 2.58 0.12
1 2 8 2.6 0.12
1 2 8 2.47 0.15
1 2 8 2.48 0.13
2 2 8 0.46 0.05
2 2 8 0.49 0.06
2 2 8 0.5 0.05
2 2 8 0.41 0.06
3 2 8 3.8 0.16
3 2 8 3.87 0.17
3 2 8 3.63 0.17
3 2 8 3.53 0.17
4 2 8 73.61 2.33
4 2 8 70.26 2.57
4 2 8 71.4 2.45
4 2 8 71.68 2.51
5 2 8 24.66 0.88
5 2 8 24.65 0.83
-6 -2 -8 2.11 0.13
6 2 8 2.19 0.14
6 2 8 2.1 0.12
-7 -2 -8 0.59 0.08
7 2 8 0.62 0.07
7 2 8 0.56 0.08
-8 -2 -8 2.14 0.16
8 2 8 1.97 0.15
8 2 8 2.29 0.13
-9 -2 -8 2.51 0.19
9 2 8 2.04 0.17
9 2 8 2.3 0.15
-10 -2 -8 4.36 0.26
10 2 8 4.44 0.25
10 2 8 4.49 0.22
5 -3 -8 0.61 0.11
-5 3 8 0.57 0.11
-5 3 8 0.56 0.12
4 -3 -8 1.32 0.12
-4 3 8 1.45 0.13
-4 3 8 1.6 0.15
3 -3 -8 1.64 0.14
-3 3 8 1.58 0.14
-3 3 8 1.55 0.14
2 -3 -8 0.2 0.07
-2 3 8 0.21 0.06
-2 3 8 0.27 0.08
1 -3 -8 17.67 0.61
-1 3 8 17.65 0.64
-1 3 8 17.04 0.68
0 -3 -8 1.59 0.11
0 3 8 1.62 0.13
0 3 8 1.65 0.1
-1 -3 -8 1.25 0.07
1 3 8 1.21 0.08
1 3 8 1.19 0.11
1 3 8 1.24 0.09
2 3 8 6.67 0.26
2 3 8 6.82 0.26
2 3 8 6.88 0.29
2 3 8 7.02 0.26
3 3 8 8.47 0.33
3 3 8 7.79 0.3
3 3 8 7.96 0.31
3 3 8 8.2 0.31
4 3 8 54.14 1.96
4 3 8 55.15 1.78
4 3 8 54.74 1.87
4 3 8 53.93 1.91
-5 -3 -8 47.35 1.65
5 3 8 46.76 1.62
5 3 8 48.92 1.54
5 3 8 44.53 1.68
-6 -3 -8 1.27 0.1
6 3 8 1.3 0.1
6 3 8 1.31 0.11
-7 -3 -8 0.75 0.08
7 3 8 0.73 0.08
7 3 8 0.83 0.09
-8 -3 -8 1.88 0.14
8 3 8 1.93 0.13
8 3 8 1.64 0.14
-9 -3 -8 6.63 0.3
9 3 8 6.52 0.3
9 3 8 6.64 0.28
-10 -3 -8 4.77 0.25
10 3 8 4.37 0.25
10 3 8 4.49 0.22
-11 -3 -8 1.03 0.14
11 3 8 1.03 0.11
11 3 8 1.04 0.13
5 -4 -8 0.38 0.1
-5 4 8 0.56 0.11
-5 4 8 0.64 0.13
4 -4 -8 3.25 0.2
-4 4 8 3.4 0.2
-4 4 8 3.35 0.23
3 -4 -8 3.36 0.19
-3 4 8 3.3 0.22
-3 4 8 3.25 0.18
2 -4 -8 6.25 0.27
-2 4 8 6.23 0.26
-2 4 8 6.08 0.3
1 -4 -8 17 0.59
-1 4 8 17.03 0.61
-1 4 8 16.44 0.66
0 -4 -8 0.48 0.07
0 4 8 0.52 0.06
0 4 8 0.39 0.07
-1 -4 -8 3.86 0.16
1 4 8 4.11 0.2
1 4 8 3.87 0.16
1 4 8 4.18 0.17
-2 -4 -8 2.04 0.1
2 4 8 1.85 0.12
2 4 8 2 0.11
-3 -4 -8 3.38 0.15
3 4 8 3.28 0.16
3 4 8 3.2 0.15
4 4 8 22.73 0.82
4 4 8 23.44 0.86
4 4 8 23.33 0.78
-5 -4 -8 32.24 1.17
5 4 8 33.03 1.16
5 4 8 33.54 1.11
5 4 8 34.33 1.21
-6 -4 -8 7.1 0.27
6 4 8 6.8 0.28
6 4 8 6.4 0.26
-7 -4 -8 15.24 0.56
7 4 8 14.98 0.53
7 4 8 15.05 0.56
-8 -4 -8 2.11 0.14
8 4 8 2.33 0.15
8 4 8 2.32 0.14
-9 -4 -8 5.51 0.26
9 4 8 5.72 0.25
9 4 8 5.85 0.27
-10 -4 -8 6.67 0.32
10 4 8 6.75 0.32
10 4 8 7.18 0.3
-11 -4 -8 1.45 0.15
11 4 8 1.61 0.15
11 4 8 1.8 0.15
4 -5 -8 2.16 0.18
-4 5 8 1.99 0.2
3 -5 -8 7.11 0.3
-3 5 8 6.98 0.35
2 -5 -8 2.93 0.18
-2 5 8 3.08 0.21
1 -5 -8 0.71 0.09
-1 5 8 0.69 0.1
0 -5 -8 0.2 0.06
0 5 8 0.27 0.07
-1 -5 -8 10.2 0.37
1 5 8 10.19 0.42
1 5 8 10.19 0.37
-2 -5 -8 6.77 0.26
2 5 8 6.23 0.26
2 5 8 6.9 0.29
-3 -5 -8 15.96 0.57
3 5 8 15.45 0.55
3 5 8 16.57 0.61
-4 -5 -8 2.85 0.14
4 5 8 2.71 0.15
4 5 8 2.76 0.14
-5 -5 -8 0.2 0.05
5 5 8 0.22 0.05
5 5 8 0.18 0.05
-6 -5 -8 0.58 0.06
6 5 8 0.54 0.07
6 5 8 0.53 0.06
-7 -5 -8 22.51 0.81
7 5 8 22.89 0.78
-8 -5 -8 2.13 0.13
8 5 8 2.05 0.13
8 5 8 2.17 0.15
-9 -5 -8 4.48 0.22
9 5 8 4.8 0.22
9 5 8 4.23 0.23
-10 -5 -8 5.69 0.28
10 5 8 5.82 0.27
10 5 8 6.09 0.29
-11 -5 -8 1.85 0.18
11 5 8 1.96 0.16
4 -6 -8 2.51 0.19
-4 6 8 2.22 0.23
3 -6 -8 3.23 0.2
-3 6 8 3.42 0.25
2 -6 -8 0.19 0.08
-2 6 8 0.18 0.1
1 -6 -8 0.06 0.07
-1 6 8 0 0.08
0 -6 -8 7.76 0.32
0 6 8 8.15 0.36
-1 -6 -8 17.83 0.64
1 6 8 17.68 0.7
1 6 8 18.08 0.62
-2 -6 -8 8.76 0.33
2 6 8 8.39 0.32
2 6 8 8.64 0.36
-3 -6 -8 6.97 0.28
3 6 8 7 0.31
3 6 8 7.26 0.27
-4 -6 -8 5.91 0.25
4 6 8 5.52 0.24
4 6 8 6.38 0.27
-5 -6 -8 0.12 0.04
5 6 8 0.08 0.04
5 6 8 0.15 0.05
-6 -6 -8 0.81 0.08
6 6 8 0.86 0.08
6 6 8 0.75 0.07
-7 -6 -8 1.79 0.13
7 6 8 1.72 0.12
-8 -6 -8 1.25 0.11
8 6 8 1.02 0.1
-9 -6 -8 1.11 0.11
9 6 8 1.3 0.12
-10 -6 -8 3.11 0.2
10 6 8 3.37 0.19
-11 -6 -8 0.75 0.11
11 6 8 0.72 0.1
3 -7 -8 1.92 0.18
-3 7 8 1.82 0.19
2 -7 -8 1.12 0.12
-2 7 8 1.24 0.16
1 -7 -8 0.79 0.1
-1 7 8 1.08 0.13
0 -7 -8 2.08 0.15
0 7 8 2.07 0.18
-1 -7 -8 5.94 0.25
1 7 8 6.16 0.3
-2 -7 -8 23.1 0.81
2 7 8 23.61 0.89
2 7 8 22.27 0.78
-3 -7 -8 2.1 0.13
3 7 8 2.48 0.16
3 7 8 2.36 0.13
-4 -7 -8 2.03 0.12
4 7 8 1.94 0.12
4 7 8 1.85 0.13
-5 -7 -8 0.12 0.04
5 7 8 0.15 0.06
5 7 8 0.06 0.05
-6 -7 -8 1.16 0.1
6 7 8 1.26 0.11
6 7 8 1.3 0.11
-7 -7 -8 0.75 0.09
7 7 8 0.54 0.07
-8 -7 -8 3.31 0.18
8 7 8 3.1 0.17
-9 -7 -8 0.26 0.07
9 7 8 0.31 0.07
-10 -7 -8 0.97 0.11
10 7 8 1.11 0.11
-11 -7 -8 0.03 0.08
11 7 8 0.1 0.07
2 -8 -8 0.04 0.08
-2 8 8 0.05 0.11
1 -8 -8 0.73 0.1
-1 8 8 0.86 0.13
0 -8 -8 3.84 0.21
0 8 8 4.23 0.26
-1 -8 -8 15.02 0.57
1 8 8 15.85 0.64
-2 -8 -8 14.44 0.53
2 8 8 14.25 0.58
2 8 8 13.81 0.51
-3 -8 -8 0.72 0.08
3 8 8 0.74 0.1
3 8 8 0.74 0.08
-4 -8 -8 0 0.05
4 8 8 -0.01 0.04
-5 -8 -8 0.43 0.07
5 8 8 0.42 0.07
5 8 8 0.44 0.08
-6 -8 -8 2.93 0.17
6 8 8 2.9 0.17
6 8 8 2.87 0.16
-7 -8 -8 4.48 0.22
7 8 8 4.66 0.23
7 8 8 4.63 0.22
-8 -8 -8 0.86 0.09
8 8 8 0.73 0.09
-9 -8 -8 2.13 0.17
9 8 8 2.1 0.15
-10 -8 -8 1.06 0.12
10 8 8 1.04 0.11
1 -9 -8 3.74 0.22
-1 9 8 3.9 0.27
0 -9 -8 6.19 0.29
0 9 8 6.42 0.35
-1 -9 -8 6.98 0.3
-1 -9 -8 6.78 0.3
1 9 8 7.27 0.36
-2 -9 -8 11.11 0.44
2 9 8 11.16 0.5
2 9 8 11.67 0.42
-3 -9 -8 3.82 0.2
3 9 8 4 0.19
-4 -9 -8 4.04 0.21
4 9 8 4.54 0.24
4 9 8 4.22 0.2
-5 -9 -8 1.13 0.11
5 9 8 1.34 0.11
5 9 8 1.52 0.13
-6 -9 -8 2.67 0.17
6 9 8 2.28 0.17
6 9 8 2.48 0.15
-7 -9 -8 4.31 0.22
7 9 8 4.3 0.23
7 9 8 4.18 0.21
-8 -9 -8 2.23 0.16
8 9 8 2.05 0.15
-9 -9 -8 1.09 0.12
9 9 8 1.13 0.12
-10 -9 -8 0.06 0.08
10 9 8 0.02 0.07
-1 -10 -8 5.43 0.26
-1 -10 -8 5.26 0.26
1 10 8 5.21 0.32
-2 -10 -8 2.96 0.19
2 10 8 2.79 0.23
-3 -10 -8 0.37 0.08
3 10 8 0.46 0.11
3 10 8 0.29 0.07
-4 -10 -8 0.91 0.11
4 10 8 1.08 0.13
4 10 8 1.06 0.1
-5 -10 -8 1.87 0.16
5 10 8 1.82 0.14
5 10 8 1.88 0.17
-6 -10 -8 0.59 0.09
6 10 8 0.54 0.1
6 10 8 0.39 0.08
-7 -10 -8 2.6 0.19
7 10 8 2.49 0.16
7 10 8 2.75 0.19
-8 -10 -8 2.04 0.17
8 10 8 1.57 0.14
-9 -10 -8 0 0.08
9 10 8 0.04 0.07
-3 -11 -8 -0.01 0.08
3 11 8 0.04 0.1
3 11 8 0.02 0.07
-4 -11 -8 0.94 0.12
4 11 8 0.8 0.09
4 11 8 0.8 0.13
-5 -11 -8 3.1 0.21
5 11 8 3.05 0.22
5 11 8 2.92 0.17
-6 -11 -8 1.02 0.13
6 11 8 0.81 0.1
6 11 8 0.88 0.13
-7 -11 -8 2.18 0.19
7 11 8 2.04 0.18
7 11 8 2.09 0.16
0 5 -9 0.24 0.11
0 -5 9 0.35 0.11
-1 5 -9 0.3 0.11
1 -5 9 0.38 0.09
1 -5 9 0.11 0.11
-2 5 -9 0.53 0.12
2 -5 9 0.79 0.14
2 -5 9 0.47 0.1
2 4 -9 0.4 0.11
-2 -4 9 0.27 0.11
1 4 -9 0.04 0.09
-1 -4 9 0.12 0.1
0 4 -9 1.1 0.13
0 -4 9 1.13 0.13
-1 4 -9 0.98 0.13
1 -4 9 1.02 0.13
1 -4 9 0.79 0.1
-2 4 -9 0.67 0.11
2 -4 9 0.61 0.12
2 -4 9 0.63 0.1
-3 4 -9 0.09 0.09
3 -4 9 0.04 0.1
3 -4 9 0.01 0.07
4 -4 9 0.06 0.11
4 -4 9 0.07 0.08
5 -4 9 0.12 0.1
3 3 -9 0.11 0.09
-3 -3 9 0.05 0.1
2 3 -9 0.33 0.1
-2 -3 9 0.31 0.11
1 3 -9 1.8 0.18
-1 -3 9 1.25 0.14
0 3 -9 1.86 0.18
0 -3 9 1.85 0.17
-1 3 -9 0.66 0.1
1 -3 9 0.56 0.1
1 -3 9 0.34 0.07
-2 3 -9 -0.01 0.07
2 -3 9 0.05 0.08
2 -3 9 0.07 0.06
-3 3 -9 0.1 0.07
3 -3 9 0.07 0.07
3 -3 9 0.07 0.09
4 -3 9 0.36 0.09
4 -3 9 0.22 0.11
5 -3 9 2.97 0.21
-6 3 -9 3.43 0.25
6 -3 9 3.51 0.24
-4 -2 9 0.43 0.12
3 2 -9 0.57 0.11
-3 -2 9 0.54 0.11
2 2 -9 1.89 0.18
-2 -2 9 1.64 0.16
1 2 -9 2.53 0.19
-1 -2 9 2.48 0.18
0 2 -9 0.61 0.1
0 -2 9 0.5 0.09
-1 2 -9 2.94 0.19
1 -2 9 3.21 0.19
1 -2 9 2.65 0.16
-2 2 -9 0.37 0.08
2 -2 9 0.34 0.09
2 -2 9 0.27 0.07
-3 2 -9 0.72 0.09
3 -2 9 0.63 0.1
3 -2 9 0.56 0.08
-4 2 -9 3.08 0.19
4 -2 9 3.47 0.22
4 -2 9 3.57 0.2
5 -2 9 6.53 0.31
-6 2 -9 2.05 0.18
6 -2 9 2.4 0.19
-7 2 -9 3.35 0.25
7 -2 9 3.69 0.24
-4 -1 9 0.01 0.12
-4 -1 9 -0.02 0.11
-3 -1 9 0.69 0.11
-3 -1 9 0.48 0.12
-2 -1 9 2.11 0.16
-2 -1 9 1.89 0.19
-1 -1 9 0.91 0.1
-1 -1 9 1.08 0.14
0 -1 9 2.84 0.21
0 -1 9 3.14 0.18
1 -1 9 2.19 0.16
1 -1 9 2.34 0.13
-2 1 -9 0.61 0.08
2 -1 9 0.55 0.07
2 -1 9 0.66 0.09
-3 1 -9 3.57 0.18
3 -1 9 3.24 0.18
3 -1 9 3.02 0.19
-4 1 -9 6.93 0.3
4 -1 9 6.7 0.3
4 -1 9 7.06 0.31
5 -1 9 4.87 0.26
5 -1 9 4.69 0.24
-6 1 -9 4.05 0.24
6 -1 9 4.3 0.23
-7 1 -9 -0.03 0.09
7 -1 9 0.03 0.08
-8 1 -9 -0.01 0.11
8 -1 9 -0.04 0.08
-5 0 9 -0.09 0.1
4 0 -9 2.85 0.17
-4 0 9 2.68 0.22
-4 0 9 3.25 0.22
3 0 -9 2.17 0.14
-3 0 9 2.23 0.2
-3 0 9 2.39 0.19
2 0 -9 2.23 0.13
-2 0 9 2.43 0.19
-2 0 9 2.57 0.17
1 0 -9 1.05 0.09
-1 0 9 0.85 0.1
-1 0 9 1.21 0.13
0 0 -9 0.59 0.06
0 0 9 0.65 0.1
0 0 9 0.4 0.08
-1 0 -9 0.45 0.05
1 0 9 0.47 0.06
1 0 9 0.43 0.09
1 0 9 0.22 0.07
2 0 9 0.13 0.07
2 0 9 0.4 0.08
2 0 9 0.36 0.06
2 0 9 0.03 0.05
3 0 9 37.08 1.3
3 0 9 35.49 1.33
3 0 9 35.58 1.19
3 0 9 36.41 1.26
-4 0 -9 11.17 0.44
4 0 9 10.38 0.39
4 0 9 11.42 0.44
4 0 9 11.25 0.43
5 0 9 4.76 0.2
5 0 9 5.15 0.24
5 0 9 4.93 0.25
-6 0 -9 2.14 0.17
6 0 9 2.21 0.16
-7 0 -9 0.07 0.09
7 0 9 0.09 0.07
-8 0 -9 0.23 0.1
8 0 9 0.09 0.08
-9 0 -9 3.73 0.26
9 0 9 3.17 0.23
-5 1 9 0.1 0.11
4 -1 -9 0.32 0.08
-4 1 9 0.29 0.11
-4 1 9 0.24 0.1
3 -1 -9 0.27 0.07
-3 1 9 0.17 0.09
-3 1 9 0.37 0.1
2 -1 -9 9.73 0.37
-2 1 9 9.85 0.44
-2 1 9 10.41 0.41
1 -1 -9 2.42 0.14
-1 1 9 2.52 0.18
-1 1 9 2.51 0.16
0 -1 -9 0 0.04
0 1 9 0.03 0.05
0 1 9 -0.02 0.06
1 1 9 -0.02 0.06
1 1 9 0.05 0.06
1 1 9 0.12 0.04
2 1 9 3.61 0.19
2 1 9 4.19 0.2
2 1 9 4.18 0.18
2 1 9 3.79 0.17
3 1 9 34.29 1.21
3 1 9 34.06 1.18
3 1 9 32.97 1.24
3 1 9 33.7 1.11
4 1 9 40.97 1.34
4 1 9 39.83 1.48
4 1 9 41.37 1.42
4 1 9 41.34 1.46
5 1 9 2.16 0.12
5 1 9 2.32 0.15
5 1 9 2.06 0.15
-6 -1 -9 1.32 0.12
6 1 9 1.46 0.12
6 1 9 1.15 0.1
-7 -1 -9 0.03 0.07
7 1 9 0.06 0.05
7 1 9 0 0.06
-8 -1 -9 3.29 0.21
8 1 9 2.33 0.18
8 1 9 2.82 0.16
-9 -1 -9 2.63 0.21
9 1 9 2.44 0.16
9 1 9 2.41 0.19
10 1 9 1.38 0.15
4 -2 -9 1.82 0.16
-4 2 9 2 0.18
-4 2 9 2.15 0.21
3 -2 -9 3.06 0.18
-3 2 9 2.93 0.19
-3 2 9 3.03 0.22
2 -2 -9 10.31 0.39
-2 2 9 10.53 0.42
-2 2 9 10.62 0.45
1 -2 -9 0.93 0.09
-1 2 9 1.07 0.12
-1 2 9 1.06 0.1
0 -2 -9 -0.01 0.05
0 2 9 -0.06 0.05
0 2 9 -0.02 0.06
1 2 9 0.23 0.04
1 2 9 0.11 0.05
1 2 9 0.18 0.06
2 2 9 4 0.17
2 2 9 4.04 0.17
2 2 9 3.65 0.18
2 2 9 4.05 0.2
3 2 9 13.39 0.5
3 2 9 13.36 0.47
3 2 9 13.74 0.5
3 2 9 13.3 0.52
4 2 9 40.7 1.4
4 2 9 40.24 1.46
4 2 9 40.4 1.33
4 2 9 40.11 1.43
5 2 9 2.12 0.14
5 2 9 1.91 0.12
5 2 9 2.05 0.12
-6 -2 -9 1.8 0.13
6 2 9 1.75 0.13
6 2 9 1.56 0.11
-7 -2 -9 0.1 0.07
7 2 9 0.14 0.06
7 2 9 0.06 0.05
-8 -2 -9 2.83 0.19
8 2 9 2.58 0.18
8 2 9 2.8 0.15
-9 -2 -9 8.56 0.38
9 2 9 7.94 0.37
9 2 9 8.37 0.33
-10 -2 -9 3.91 0.25
10 2 9 3.58 0.23
10 2 9 3.69 0.2
4 -3 -9 3.04 0.2
-4 3 9 3.13 0.21
-4 3 9 3.28 0.24
3 -3 -9 2.91 0.18
-3 3 9 3.18 0.19
-3 3 9 2.87 0.22
2 -3 -9 -0.01 0.06
-2 3 9 0.01 0.06
-2 3 9 -0.03 0.08
1 -3 -9 2.45 0.15
-1 3 9 2.42 0.18
-1 3 9 2.59 0.15
0 -3 -9 1.05 0.09
0 3 9 1.2 0.1
0 3 9 1.36 0.13
-1 -3 -9 1.68 0.09
1 3 9 1.54 0.1
1 3 9 1.46 0.13
1 3 9 1.66 0.11
2 3 9 5.56 0.26
2 3 9 5.82 0.23
2 3 9 5.79 0.23
2 3 9 5.79 0.23
3 3 9 7.97 0.34
3 3 9 8.76 0.32
3 3 9 8.32 0.32
3 3 9 8.22 0.31
4 3 9 0.06 0.04
4 3 9 0.06 0.04
4 3 9 0.08 0.05
4 3 9 -0.06 0.04
5 3 9 2.67 0.14
5 3 9 2.61 0.15
5 3 9 2.53 0.14
-6 -3 -9 12.24 0.48
6 3 9 12.94 0.45
6 3 9 12.7 0.48
-7 -3 -9 0.21 0.06
7 3 9 0.19 0.06
7 3 9 0.15 0.05
-8 -3 -9 5.92 0.27
8 3 9 5.69 0.24
8 3 9 5.55 0.27
-9 -3 -9 10.64 0.44
9 3 9 10.12 0.43
9 3 9 10.8 0.4
-10 -3 -9 2.8 0.21
10 3 9 3.36 0.18
10 3 9 2.82 0.2
4 -4 -9 2.39 0.19
-4 4 9 2.05 0.19
3 -4 -9 0.96 0.11
-3 4 9 1.15 0.14
-3 4 9 1.13 0.11
2 -4 -9 2 0.15
-2 4 9 1.83 0.14
-2 4 9 1.67 0.17
1 -4 -9 0.37 0.07
-1 4 9 0.48 0.1
-1 4 9 0.46 0.07
0 -4 -9 5.82 0.25
0 4 9 5.83 0.24
0 4 9 5.92 0.28
-1 -4 -9 2.44 0.12
1 4 9 2.31 0.12
1 4 9 2.59 0.14
1 4 9 2.55 0.16
-2 -4 -9 9.02 0.34
2 4 9 9.07 0.38
2 4 9 8.87 0.33
2 4 9 9.12 0.34
3 4 9 7.81 0.33
3 4 9 7.9 0.3
3 4 9 7.87 0.3
4 4 9 2.49 0.14
4 4 9 2.61 0.12
4 4 9 2.68 0.13
4 4 9 2.14 0.14
-5 -4 -9 0.67 0.06
5 4 9 0.51 0.06
5 4 9 0.53 0.06
5 4 9 0.67 0.08
-6 -4 -9 0.32 0.06
6 4 9 0.33 0.07
6 4 9 0.33 0.06
-7 -4 -9 0.33 0.07
7 4 9 0.34 0.07
7 4 9 0.34 0.06
-8 -4 -9 3.1 0.18
8 4 9 3.56 0.18
8 4 9 3.45 0.19
-9 -4 -9 6.7 0.31
9 4 9 6.97 0.32
9 4 9 7.44 0.3
-10 -4 -9 3.55 0.22
10 4 9 3.78 0.2
10 4 9 3.61 0.23
11 4 9 0.39 0.11
3 -5 -9 2.05 0.18
-3 5 9 2.07 0.18
2 -5 -9 0.37 0.09
-2 5 9 0.35 0.11
1 -5 -9 -0.08 0.06
-1 5 9 0.18 0.09
0 -5 -9 3.36 0.18
0 5 9 3.51 0.21
-1 -5 -9 19.48 0.7
1 5 9 19.77 0.68
1 5 9 20.31 0.77
-2 -5 -9 7.24 0.28
2 5 9 7.09 0.28
2 5 9 7.08 0.31
-3 -5 -9 4.89 0.2
3 5 9 4.77 0.23
3 5 9 4.66 0.2
-4 -5 -9 4.95 0.22
4 5 9 5.15 0.21
4 5 9 5.07 0.23
-5 -5 -9 0.24 0.05
5 5 9 0.11 0.05
5 5 9 0.16 0.05
6 5 9 6.91 0.29
6 5 9 6.91 0.28
7 5 9 4.39 0.22
7 5 9 4.21 0.2
8 5 9 1.11 0.11
8 5 9 1.1 0.1
9 5 9 3.47 0.22
9 5 9 3.89 0.19
10 5 9 1.16 0.11
10 5 9 1.19 0.14
11 5 9 0.03 0.07
11 5 9 -0.19 0.09
3 -6 -9 0.83 0.12
-3 6 9 0.75 0.14
2 -6 -9 -0.06 0.08
-2 6 9 0.04 0.1
1 -6 -9 1.27 0.12
-1 6 9 1.34 0.14
0 -6 -9 10.73 0.41
0 6 9 10.92 0.47
1 6 9 21.08 0.82
-2 -6 -9 1.62 0.11
2 6 9 1.59 0.12
2 6 9 1.62 0.14
-3 -6 -9 3.94 0.18
3 6 9 3.9 0.18
3 6 9 3.93 0.21
-4 -6 -9 0.15 0.05
4 6 9 0.23 0.06
4 6 9 0.2 0.06
-5 -6 -9 0.15 0.05
5 6 9 0.07 0.05
5 6 9 0.1 0.05
-6 -6 -9 5.17 0.23
6 6 9 5.63 0.23
6 6 9 4.79 0.23
-7 -6 -9 1.54 0.12
7 6 9 1.23 0.11
-8 -6 -9 3.93 0.2
8 6 9 3.81 0.19
-9 -6 -9 5.06 0.25
9 6 9 4.89 0.23
-10 -6 -9 1.04 0.12
10 6 9 0.93 0.1
-11 -6 -9 -0.01 0.07
11 6 9 0.01 0.07
2 -7 -9 1.33 0.14
-2 7 9 1.18 0.16
1 -7 -9 2.82 0.19
-1 7 9 2.95 0.23
0 -7 -9 7.01 0.3
0 7 9 6.98 0.35
1 7 9 20.24 0.8
-2 -7 -9 10.18 0.39
2 7 9 9.82 0.43
2 7 9 10.14 0.38
-3 -7 -9 0.9 0.08
3 7 9 0.86 0.1
3 7 9 0.72 0.08
-4 -7 -9 -0.05 0.04
4 7 9 -0.06 0.04
4 7 9 0.03 0.06
-5 -7 -9 0.63 0.07
5 7 9 0.47 0.07
5 7 9 0.61 0.09
-6 -7 -9 7.12 0.3
6 7 9 6.98 0.31
6 7 9 7.27 0.29
-7 -7 -9 5.22 0.25
7 7 9 5.52 0.24
-8 -7 -9 4.57 0.23
8 7 9 4.32 0.21
-9 -7 -9 0.98 0.11
9 7 9 1.01 0.11
-10 -7 -9 1.14 0.12
10 7 9 1.23 0.12
1 -8 -9 1.45 0.14
-1 8 9 1.79 0.18
0 -8 -9 9.89 0.4
0 8 9 10.08 0.46
-1 -8 -9 8.05 0.33
1 8 9 7.97 0.38
-2 -8 -9 5.2 0.24
2 8 9 5.25 0.28
2 8 9 5.04 0.23
-3 -8 -9 -0.11 0.05
3 8 9 0.06 0.08
3 8 9 -0.08 0.05
-4 -8 -9 0.01 0.05
4 8 9 -0.1 0.05
4 8 9 0.08 0.08
-5 -8 -9 0.59 0.08
5 8 9 0.69 0.08
5 8 9 0.61 0.09
-6 -8 -9 4.9 0.23
6 8 9 4.76 0.22
6 8 9 4.23 0.23
-7 -8 -9 6.67 0.3
7 8 9 6.67 0.29
7 8 9 7.44 0.31
-8 -8 -9 0.21 0.07
8 8 9 0.23 0.07
-9 -8 -9 0.24 0.07
9 8 9 0.11 0.06
-10 -8 -9 0.33 0.09
10 8 9 0.37 0.08
0 -9 -9 1.72 0.15
0 9 9 1.85 0.19
-1 -9 -9 6.88 0.3
1 9 9 6.69 0.36
-2 -9 -9 2.01 0.16
2 9 9 2.41 0.16
2 9 9 2.53 0.22
-3 -9 -9 -0.04 0.06
3 9 9 0 0.05
3 9 9 0.02 0.08
-4 -9 -9 3.01 0.18
4 9 9 3.06 0.17
4 9 9 3.33 0.21
-5 -9 -9 1.25 0.11
5 9 9 1.3 0.12
5 9 9 1.14 0.12
-6 -9 -9 7.4 0.32
6 9 9 7.6 0.31
-7 -9 -9 5.72 0.27
7 9 9 5.58 0.28
7 9 9 5.42 0.26
-8 -9 -9 1.81 0.15
8 9 9 1.35 0.12
-9 -9 -9 -0.01 0.06
9 9 9 -0.02 0.06
-1 -10 -9 1.59 0.14
1 10 9 1.68 0.19
-2 -10 -9 0.29 0.09
2 10 9 0.48 0.13
-3 -10 -9 0.4 0.08
3 10 9 0.42 0.11
3 10 9 0.38 0.08
-4 -10 -9 1.76 0.15
4 10 9 1.84 0.14
4 10 9 2.03 0.19
-5 -10 -9 7.83 0.34
5 10 9 7.59 0.32
5 10 9 8.24 0.38
-6 -10 -9 6.1 0.29
6 10 9 5.85 0.27
6 10 9 6.04 0.3
-7 -10 -9 5.23 0.27
7 10 9 5.23 0.25
7 10 9 5.18 0.27
-8 -10 -9 0.79 0.11
8 10 9 0.84 0.1
-4 -11 -9 3.38 0.22
4 11 9 3.42 0.19
4 11 9 3.55 0.24
-5 -11 -9 4.24 0.24
5 11 9 4.24 0.26
5 11 9 3.79 0.21
-6 -11 -9 2.35 0.19
6 11 9 2.53 0.17
6 11 9 2.43 0.2
7 11 9 1.86 0.18
-1 4 -10 0.04 0.1
1 -4 10 0.08 0.11
-2 4 -10 0.11 0.1
2 -4 10 -0.04 0.11
2 -4 10 0.03 0.08
2 3 -10 0.23 0.1
-2 -3 10 0.18 0.11
1 3 -10 1.05 0.14
-1 -3 10 0.98 0.13
0 3 -10 2.49 0.21
0 -3 10 2.69 0.21
-1 3 -10 0.07 0.09
1 -3 10 0.11 0.1
-2 3 -10 0.45 0.1
2 -3 10 0.26 0.08
2 -3 10 0.25 0.11
-3 3 -10 1.08 0.12
3 -3 10 0.89 0.11
3 -3 10 0.97 0.14
4 -3 10 1.38 0.16
4 -3 10 1.42 0.14
5 -3 10 1.25 0.14
-3 -2 10 0.62 0.12
2 2 -10 0.59 0.12
-2 -2 10 0.52 0.12
1 2 -10 0.92 0.13
-1 -2 10 1.1 0.13
0 2 -10 1.21 0.13
0 -2 10 1.04 0.13
-1 2 -10 0.51 0.1
1 -2 10 0.44 0.11
-2 2 -10 7.65 0.35
2 -2 10 7.23 0.32
2 -2 10 8.06 0.35
-3 2 -10 2.81 0.19
3 -2 10 2.85 0.18
3 -2 10 3.09 0.22
4 -2 10 0.91 0.13
4 -2 10 1.14 0.12
5 -2 10 2.9 0.2
5 -2 10 3.06 0.24
-6 2 -10 0.65 0.13
6 -2 10 0.53 0.11
-3 -1 10 3.3 0.22
-3 -1 10 2.51 0.25
-2 -1 10 0.45 0.14
-2 -1 10 0.56 0.1
-1 -1 10 0.34 0.13
-1 -1 10 0.38 0.09
0 -1 10 -0.06 0.11
0 -1 10 -0.03 0.08
1 -1 10 0.2 0.09
-2 1 -10 8.95 0.39
2 -1 10 8.99 0.36
2 -1 10 9.26 0.39
-3 1 -10 13.04 0.53
3 -1 10 13.47 0.53
3 -1 10 13.71 0.52
-4 1 -10 1.59 0.13
4 -1 10 1.48 0.14
4 -1 10 1.5 0.14
5 -1 10 2.48 0.21
5 -1 10 2.71 0.18
-6 1 -10 1.44 0.14
6 -1 10 1.11 0.13
-7 1 -10 0.28 0.11
7 -1 10 0.09 0.09
3 0 -10 2.19 0.15
-3 0 10 2.3 0.22
-3 0 10 2.66 0.2
2 0 -10 0.99 0.09
-2 0 10 1.2 0.15
-2 0 10 1.01 0.12
1 0 -10 0.28 0.06
-1 0 10 0.17 0.08
-1 0 10 0.27 0.11
0 0 10 0.02 0.07
0 0 10 0.05 0.09
1 0 10 0.22 0.08
1 0 10 0.37 0.1
2 0 10 4.68 0.26
2 0 10 4.86 0.24
2 0 10 5.38 0.23
3 0 10 14.67 0.57
3 0 10 14.56 0.55
-4 0 -10 0.12 0.06
4 0 10 0.06 0.08
4 0 10 0.13 0.06
5 0 10 0.04 0.08
5 0 10 0.05 0.06
6 0 10 1.1 0.11
-7 0 -10 0.43 0.11
7 0 10 0.41 0.1
-8 0 -10 3.23 0.24
8 0 10 3.56 0.23
-4 1 10 1.1 0.15
3 -1 -10 0.28 0.08
-3 1 10 0.37 0.11
-3 1 10 0.54 0.13
2 -1 -10 2.77 0.16
-2 1 10 2.74 0.22
-2 1 10 2.9 0.19
1 -1 -10 0.11 0.06
-1 1 10 0.1 0.09
-1 1 10 0.15 0.08
0 -1 -10 0 0.05
0 1 10 -0.01 0.08
0 1 10 -0.04 0.06
-1 -1 -10 1.88 0.11
1 1 10 1.81 0.14
1 1 10 1.84 0.15
2 1 10 1.81 0.12
2 1 10 1.86 0.15
2 1 10 2.01 0.13
2 1 10 1.89 0.14
3 1 10 0.36 0.06
3 1 10 0.35 0.08
3 1 10 0.27 0.08
3 1 10 0.39 0.06
4 1 10 3.58 0.16
4 1 10 3.48 0.19
4 1 10 3.38 0.19
4 1 10 3.38 0.18
5 1 10 1.09 0.1
5 1 10 1.15 0.12
5 1 10 1.17 0.11
-6 -1 -10 0.32 0.08
6 1 10 0.3 0.06
6 1 10 0.23 0.07
-7 -1 -10 1.22 0.13
7 1 10 1.42 0.11
7 1 10 1.24 0.12
-8 -1 -10 6.87 0.32
8 1 10 5.78 0.3
-9 -1 -10 3.07 0.24
9 1 10 2.84 0.21
3 -2 -10 2.51 0.17
-3 2 10 2.22 0.21
-3 2 10 2.48 0.19
2 -2 -10 0.06 0.07
-2 2 10 0.05 0.08
-2 2 10 0.1 0.1
1 -2 -10 0.59 0.09
-1 2 10 0.52 0.09
-1 2 10 0.57 0.11
0 -2 -10 0.24 0.06
0 2 10 0.31 0.07
0 2 10 0.35 0.09
-1 -2 -10 3.2 0.16
1 2 10 3.34 0.19
1 2 10 3.09 0.17
2 2 10 4.46 0.22
2 2 10 4.54 0.19
2 2 10 4.46 0.21
2 2 10 4.58 0.2
3 2 10 3.17 0.17
3 2 10 3.2 0.15
3 2 10 3.28 0.16
3 2 10 2.97 0.17
4 2 10 2.55 0.15
4 2 10 2.47 0.15
4 2 10 2.28 0.14
4 2 10 2.4 0.13
5 2 10 0.75 0.08
5 2 10 0.88 0.1
5 2 10 0.83 0.1
-6 -2 -10 0.19 0.07
6 2 10 0.16 0.06
6 2 10 0.14 0.05
-7 -2 -10 1.71 0.15
7 2 10 1.6 0.12
7 2 10 1.8 0.15
-8 -2 -10 6.69 0.32
8 2 10 7.09 0.32
8 2 10 6.92 0.29
-9 -2 -10 4.16 0.25
9 2 10 4.18 0.25
9 2 10 4.14 0.21
3 -3 -10 0.57 0.1
-3 3 10 0.56 0.13
-3 3 10 0.6 0.11
2 -3 -10 0.42 0.09
-2 3 10 0.49 0.12
-2 3 10 0.57 0.1
1 -3 -10 0.7 0.09
-1 3 10 0.7 0.09
-1 3 10 0.62 0.11
0 -3 -10 7.07 0.29
0 3 10 7.15 0.29
0 3 10 7.31 0.33
1 3 10 2.93 0.15
1 3 10 3.06 0.19
2 3 10 5.78 0.24
2 3 10 5.71 0.27
2 3 10 5.81 0.24
2 3 10 5.6 0.23
3 3 10 5.36 0.23
3 3 10 5.23 0.22
3 3 10 5.19 0.23
3 3 10 5.37 0.25
4 3 10 3.16 0.16
4 3 10 2.91 0.16
4 3 10 3.04 0.15
4 3 10 3.02 0.16
5 3 10 8.71 0.33
5 3 10 8.33 0.34
5 3 10 8.51 0.34
-6 -3 -10 0.62 0.08
6 3 10 0.52 0.08
6 3 10 0.56 0.07
-7 -3 -10 1 0.1
7 3 10 1 0.1
7 3 10 1.05 0.1
-8 -3 -10 4.15 0.22
8 3 10 3.82 0.22
8 3 10 4.27 0.2
-9 -3 -10 3.16 0.21
9 3 10 3.39 0.19
9 3 10 3.28 0.21
-10 -3 -10 0.93 0.13
10 3 10 1.15 0.11
10 3 10 1.19 0.13
3 -4 -10 0.94 0.12
-3 4 10 0.95 0.15
2 -4 -10 -0.02 0.07
-2 4 10 0 0.1
1 -4 -10 2.99 0.18
-1 4 10 2.87 0.22
0 -4 -10 9.21 0.36
0 4 10 9.02 0.4
0 4 10 9.17 0.36
1 4 10 1.13 0.09
1 4 10 1.13 0.12
-2 -4 -10 3.82 0.17
2 4 10 3.98 0.17
2 4 10 3.9 0.21
2 4 10 3.82 0.18
3 4 10 5.7 0.23
3 4 10 5.51 0.26
3 4 10 5.73 0.23
4 4 10 0.55 0.08
4 4 10 0.5 0.07
4 4 10 0.49 0.06
4 4 10 0.48 0.07
5 4 10 0.58 0.07
5 4 10 0.57 0.07
5 4 10 0.66 0.08
-6 -4 -10 0.42 0.06
6 4 10 0.38 0.07
6 4 10 0.46 0.07
-7 -4 -10 3.28 0.17
7 4 10 3.12 0.17
7 4 10 3.04 0.18
-8 -4 -10 6.57 0.29
8 4 10 6.67 0.28
8 4 10 6.81 0.31
-9 -4 -10 3.59 0.21
9 4 10 4 0.2
9 4 10 3.59 0.23
-10 -4 -10 0.4 0.09
10 4 10 0.43 0.08
10 4 10 0.24 0.1
3 -5 -10 0.04 0.09
-3 5 10 -0.04 0.11
2 -5 -10 0.12 0.09
-2 5 10 0.29 0.11
1 -5 -10 1.95 0.16
-1 5 10 2.05 0.19
0 -5 -10 14.46 0.53
0 5 10 14.33 0.59
1 5 10 9.93 0.43
-2 -5 -10 0.13 0.04
2 5 10 0.15 0.07
2 5 10 0.2 0.06
-3 -5 -10 3 0.15
3 5 10 2.78 0.17
3 5 10 3.09 0.16
-4 -5 -10 0.31 0.06
4 5 10 0.24 0.06
4 5 10 0.27 0.06
-5 -5 -10 1.87 0.12
5 5 10 1.87 0.13
5 5 10 1.9 0.13
6 5 10 7.85 0.31
7 5 10 3.73 0.19
7 5 10 3.77 0.21
8 5 10 2.83 0.18
8 5 10 2.6 0.16
9 5 10 5.03 0.24
9 5 10 5 0.26
10 5 10 0.76 0.1
10 5 10 0.63 0.12
2 -6 -10 0.07 0.09
-2 6 10 0.12 0.11
1 -6 -10 8 0.34
-1 6 10 7.83 0.39
0 -6 -10 8.52 0.35
0 6 10 8.54 0.4
1 6 10 7.82 0.36
-2 -6 -10 3.72 0.18
2 6 10 3.69 0.19
2 6 10 3.98 0.22
-3 -6 -10 1.67 0.11
3 6 10 1.73 0.15
3 6 10 1.68 0.12
-4 -6 -10 0.75 0.08
4 6 10 0.79 0.1
4 6 10 0.83 0.09
-5 -6 -10 5.96 0.27
5 6 10 6.8 0.29
5 6 10 6.15 0.26
-6 -6 -10 5.65 0.26
6 6 10 5.56 0.25
6 6 10 6.32 0.27
-7 -6 -10 1.08 0.11
7 6 10 1.14 0.1
-8 -6 -10 1.35 0.13
8 6 10 1.27 0.11
-9 -6 -10 3.54 0.21
9 6 10 3.68 0.2
-10 -6 -10 0.66 0.1
10 6 10 0.79 0.1
1 -7 -10 2.24 0.18
-1 7 10 1.78 0.18
0 -7 -10 9.18 0.38
0 7 10 9.47 0.44
-1 -7 -10 7.78 0.33
1 7 10 7.91 0.38
-2 -7 -10 2.34 0.14
2 7 10 2.32 0.19
2 7 10 2.08 0.15
-3 -7 -10 0.16 0.05
3 7 10 0.23 0.08
3 7 10 0.14 0.06
-4 -7 -10 0.27 0.06
4 7 10 0.21 0.06
4 7 10 0.31 0.08
-5 -7 -10 8.12 0.34
5 7 10 8.63 0.36
5 7 10 8.14 0.33
-6 -7 -10 8.5 0.36
6 7 10 9.39 0.38
6 7 10 8.95 0.35
-7 -7 -10 6.22 0.28
7 7 10 6.44 0.28
-8 -7 -10 0.38 0.07
8 7 10 0.34 0.08
-9 -7 -10 0.46 0.09
9 7 10 0.64 0.09
-10 -7 -10 0.39 0.09
10 7 10 0.31 0.08
0 -8 -10 4.77 0.25
0 8 10 4.35 0.29
-1 -8 -10 2.96 0.19
1 8 10 3.27 0.24
2 8 10 0.09 0.09
2 8 10 0.05 0.07
-3 -8 -10 0.04 0.05
3 8 10 0.07 0.06
3 8 10 -0.01 0.08
-4 -8 -10 10.37 0.41
4 8 10 9.89 0.39
4 8 10 10.79 0.45
-5 -8 -10 9.76 0.39
5 8 10 9.57 0.42
5 8 10 9.52 0.37
-6 -8 -10 13.17 0.51
6 8 10 13.32 0.54
6 8 10 13.4 0.49
-7 -8 -10 3.73 0.2
7 8 10 3.79 0.2
-8 -8 -10 1.46 0.14
8 8 10 1.49 0.14
-9 -8 -10 0.05 0.06
9 8 10 0.02 0.06
-10 -8 -10 0.35 0.09
10 8 10 0.46 0.09
-1 -9 -10 1.14 0.13
1 9 10 1.17 0.16
2 9 10 0.25 0.11
-3 -9 -10 4.01 0.21
3 9 10 4.06 0.25
3 9 10 3.77 0.2
-4 -9 -10 4.58 0.23
4 9 10 4.45 0.22
4 9 10 5.02 0.27
-5 -9 -10 7.55 0.32
5 9 10 6.43 0.34
5 9 10 7.52 0.31
-6 -9 -10 6.63 0.3
6 9 10 6.65 0.29
6 9 10 6.32 0.32
-7 -9 -10 3.39 0.2
7 9 10 2.81 0.2
7 9 10 3.42 0.19
-8 -9 -10 0.2 0.07
8 9 10 0.21 0.07
-9 -9 -10 0.31 0.08
9 9 10 0.27 0.08
-2 -10 -10 0.02 0.08
2 10 10 0 0.11
-3 -10 -10 1.62 0.16
3 10 10 1.73 0.15
3 10 10 1.74 0.18
-4 -10 -10 2.18 0.17
4 10 10 2.42 0.16
4 10 10 2.43 0.22
-5 -10 -10 4.58 0.24
5 10 10 4.76 0.27
5 10 10 4.62 0.23
-6 -10 -10 1.93 0.16
6 10 10 1.86 0.18
6 10 10 2.08 0.16
-7 -10 -10 0.53 0.1
7 10 10 0.61 0.09
7 10 10 0.64 0.1
-8 -10 -10 -0.05 0.06
8 10 10 0.03 0.07
-1 -2 11 0.08 0.11
0 2 -11 0 0.09
0 -2 11 -0.11 0.1
-1 2 -11 0.43 0.11
1 -2 11 0.22 0.1
-2 2 -11 3.53 0.24
2 -2 11 3.82 0.24
-3 2 -11 0.06 0.08
3 -2 11 0.14 0.07
3 -2 11 -0.08 0.1
4 -2 11 0.38 0.09
4 -2 11 0.5 0.13
5 -2 11 0.78 0.15
5 -2 11 0.73 0.12
-1 -1 11 -0.01 0.09
0 -1 11 0.14 0.09
-1 1 -11 0.29 0.09
1 -1 11 0.33 0.1
-2 1 -11 -0.08 0.07
2 -1 11 -0.05 0.08
-3 1 -11 2.31 0.18
3 -1 11 2.63 0.2
3 -1 11 2.4 0.17
4 -1 11 0.14 0.1
4 -1 11 0.11 0.07
5 -1 11 1.52 0.17
5 -1 11 1.75 0.17
6 -1 11 -0.05 0.08
-2 0 11 -0.12 0.09
-2 0 11 -0.03 0.12
-1 0 11 -0.06 0.08
-1 0 11 0 0.11
0 0 11 0.61 0.12
0 0 11 0.63 0.11
1 0 11 0.39 0.09
1 0 11 0.42 0.11
2 0 11 0.81 0.11
2 0 11 0.89 0.14
3 0 11 2.13 0.15
3 0 11 2.39 0.18
-4 0 -11 1.41 0.13
4 0 11 1.66 0.17
4 0 11 1.68 0.14
5 0 11 0.92 0.11
5 0 11 0.92 0.13
6 0 11 0.2 0.08
-7 0 -11 1.9 0.17
7 0 11 1.54 0.15
2 -1 -11 0.05 0.07
-2 1 11 0.03 0.09
-2 1 11 -0.11 0.11
1 -1 -11 0.98 0.1
-1 1 11 1.08 0.14
-1 1 11 1.04 0.11
0 -1 -11 0.18 0.06
0 1 11 0.17 0.08
0 1 11 0.1 0.09
-1 -1 -11 1.63 0.12
1 1 11 1.41 0.14
1 1 11 1.76 0.16
2 1 11 4.13 0.24
2 1 11 4.31 0.22
3 1 11 1.94 0.14
3 1 11 1.95 0.17
3 1 11 2.07 0.16
4 1 11 8.69 0.35
4 1 11 7.69 0.37
4 1 11 9.14 0.37
5 1 11 -0.04 0.07
5 1 11 0.01 0.06
6 1 11 0.04 0.07
-7 -1 -11 1.91 0.18
7 1 11 2 0.17
-8 -1 -11 2.53 0.21
8 1 11 2.26 0.19
2 -2 -11 0.12 0.08
-2 2 11 0.14 0.12
-2 2 11 0.19 0.09
1 -2 -11 2.04 0.15
-1 2 11 1.99 0.2
-1 2 11 1.88 0.16
0 -2 -11 0.1 0.06
0 2 11 0.11 0.09
0 2 11 -0.01 0.07
-1 -2 -11 2.33 0.14
1 2 11 2.43 0.18
1 2 11 2.26 0.15
2 2 11 4.01 0.23
2 2 11 4.05 0.2
3 2 11 3.11 0.16
3 2 11 2.85 0.15
3 2 11 3.02 0.18
3 2 11 2.99 0.17
4 2 11 0 0.06
4 2 11 -0.01 0.05
4 2 11 -0.04 0.06
4 2 11 0.06 0.06
5 2 11 0.35 0.08
5 2 11 0.45 0.07
5 2 11 0.47 0.09
6 2 11 0.46 0.07
6 2 11 0.38 0.08
-7 -2 -11 3.29 0.2
7 2 11 3.2 0.17
7 2 11 3.07 0.2
-8 -2 -11 4.2 0.24
8 2 11 3.88 0.2
8 2 11 3.82 0.24
-9 -2 -11 1.63 0.16
9 2 11 1.48 0.15
2 -3 -11 0.21 0.08
-2 3 11 0.2 0.11
-2 3 11 0.17 0.09
1 -3 -11 3.42 0.2
-1 3 11 3.48 0.24
-1 3 11 3.29 0.2
0 -3 -11 4.44 0.21
0 3 11 3.81 0.2
0 3 11 4.24 0.25
-1 -3 -11 0.14 0.07
1 3 11 0.12 0.08
1 3 11 0.18 0.06
2 3 11 5.35 0.27
2 3 11 5.31 0.23
2 3 11 5.32 0.24
3 3 11 2.01 0.16
3 3 11 2.16 0.14
3 3 11 2.09 0.13
3 3 11 2.05 0.13
4 3 11 0.11 0.05
4 3 11 0.17 0.06
4 3 11 0.11 0.06
4 3 11 0.04 0.06
5 3 11 1.24 0.11
5 3 11 1.14 0.11
5 3 11 1.33 0.12
-6 -3 -11 1.35 0.13
6 3 11 1.09 0.1
6 3 11 1.27 0.12
-7 -3 -11 1.99 0.15
7 3 11 1.89 0.16
7 3 11 2.01 0.14
-8 -3 -11 9.17 0.38
8 3 11 9.05 0.39
8 3 11 8.63 0.35
-9 -3 -11 1.79 0.16
9 3 11 1.67 0.14
9 3 11 1.89 0.17
2 -4 -11 1.67 0.15
-2 4 11 2.03 0.19
1 -4 -11 3.4 0.2
-1 4 11 3.5 0.25
0 -4 -11 3.86 0.21
0 4 11 4.3 0.25
-1 -4 -11 4.7 0.23
1 4 11 5 0.26
2 4 11 5.35 0.23
2 4 11 5.07 0.27
-3 -4 -11 2.31 0.13
3 4 11 2.41 0.17
3 4 11 2.41 0.14
4 4 11 0.3 0.07
4 4 11 0.27 0.07
4 4 11 0.27 0.06
5 4 11 3.73 0.19
5 4 11 3.58 0.18
5 4 11 3.46 0.19
6 4 11 0.14 0.06
6 4 11 0.16 0.07
7 4 11 3.71 0.19
7 4 11 3.9 0.22
8 4 11 7.57 0.31
8 4 11 7.23 0.34
9 4 11 3.09 0.18
9 4 11 2.79 0.21
10 4 11 0.09 0.09
2 -5 -11 0.3 0.1
-2 5 11 0.35 0.13
1 -5 -11 6.17 0.29
-1 5 11 5.66 0.32
0 -5 -11 6.91 0.31
0 5 11 7.24 0.35
-1 -5 -11 6.2 0.28
1 5 11 6.24 0.31
2 5 11 0.9 0.1
2 5 11 0.92 0.12
-3 -5 -11 1.41 0.1
3 5 11 1.46 0.12
3 5 11 1.23 0.12
-4 -5 -11 2.89 0.16
4 5 11 3.38 0.19
4 5 11 3.33 0.17
-5 -5 -11 4.06 0.21
5 5 11 4.76 0.21
5 5 11 4.34 0.22
6 5 11 7.15 0.3
7 5 11 2.52 0.17
7 5 11 2.3 0.16
8 5 11 2.15 0.18
8 5 11 2.16 0.15
9 5 11 2.22 0.19
9 5 11 2.72 0.17
10 5 11 1.2 0.12
10 5 11 1.04 0.14
1 -6 -11 3.31 0.21
-1 6 11 3 0.25
0 -6 -11 5.8 0.28
0 6 11 6.2 0.33
-1 -6 -11 1.77 0.15
1 6 11 1.39 0.15
2 6 11 1.16 0.13
2 6 11 1.16 0.11
-3 -6 -11 3.24 0.16
3 6 11 3.16 0.18
3 6 11 3.2 0.2
-4 -6 -11 7.15 0.3
4 6 11 7.25 0.3
4 6 11 7.33 0.33
-5 -6 -11 9.65 0.4
5 6 11 10.66 0.4
5 6 11 10.57 0.43
-6 -6 -11 8.97 0.37
6 6 11 8.99 0.36
-7 -6 -11 4.47 0.23
7 6 11 4.77 0.23
-8 -6 -11 1.71 0.15
8 6 11 1.92 0.15
9 6 11 0.03 0.06
10 6 11 0.42 0.09
0 -7 -11 3.16 0.21
0 7 11 2.95 0.24
-1 -7 -11 0.05 0.08
1 7 11 0.08 0.1
2 7 11 0.45 0.11
2 7 11 0.39 0.08
-3 -7 -11 2.71 0.15
3 7 11 2.34 0.16
3 7 11 2.46 0.19
-4 -7 -11 5.73 0.26
4 7 11 6.08 0.29
4 7 11 5.92 0.26
-5 -7 -11 12.3 0.49
5 7 11 12.82 0.52
5 7 11 12.67 0.47
-6 -7 -11 7.7 0.33
6 7 11 8.16 0.35
6 7 11 7.68 0.32
-7 -7 -11 3.37 0.19
7 7 11 3.53 0.2
-8 -7 -11 0.12 0.06
8 7 11 0.07 0.06
-9 -7 -11 0.6 0.09
9 7 11 0.44 0.09
-1 -8 -11 0.61 0.11
1 8 11 0.7 0.14
2 8 11 0.4 0.11
-3 -8 -11 1.7 0.14
3 8 11 2.04 0.18
3 8 11 1.69 0.14
-4 -8 -11 6.33 0.28
4 8 11 6.75 0.33
4 8 11 6.62 0.29
-5 -8 -11 6.01 0.27
5 8 11 6.15 0.27
5 8 11 6.09 0.3
-6 -8 -11 3.15 0.19
6 8 11 3.5 0.19
6 8 11 3.51 0.21
-7 -8 -11 2.09 0.15
7 8 11 1.87 0.15
-8 -8 -11 0.04 0.06
8 8 11 0.03 0.06
-9 -8 -11 0.76 0.1
9 8 11 0.77 0.11
2 9 11 -0.04 0.1
3 9 11 1.65 0.14
3 9 11 1.44 0.16
-4 -9 -11 2.93 0.18
4 9 11 3.05 0.22
4 9 11 3 0.18
-5 -9 -11 5.15 0.26
5 9 11 5.39 0.25
5 9 11 5.39 0.29
-6 -9 -11 2.68 0.18
6 9 11 2.47 0.19
6 9 11 3 0.18
-7 -9 -11 1.12 0.12
7 9 11 1.18 0.12
-8 -9 -11 0.09 0.07
8 9 11 0.04 0.07
-4 -10 -11 4.03 0.22
4 10 11 3.83 0.27
4 10 11 3.95 0.22
-5 -10 -11 1.73 0.15
5 10 11 1.67 0.15
5 10 11 1.53 0.17
-6 -10 -11 0.97 0.12
6 10 11 0.93 0.11
6 10 11 0.7 0.12
-7 -10 -11 0.01 0.06
7 10 11 -0.08 0.06
-1 1 -12 1.05 0.14
1 -1 12 0.63 0.12
-2 1 -12 0.88 0.12
2 -1 12 0.82 0.13
-3 1 -12 2.88 0.21
3 -1 12 2.98 0.23
4 -1 12 0.42 0.09
4 -1 12 0.53 0.13
0 0 12 0.16 0.1
0 0 12 0.22 0.13
1 0 12 1.77 0.17
1 0 12 1.25 0.17
2 0 12 1.13 0.13
-3 0 -12 0.47 0.09
3 0 12 0.39 0.1
4 0 12 0.91 0.11
4 0 12 1.12 0.14
5 0 12 0.25 0.09
5 0 12 0.15 0.11
6 0 12 0.53 0.11
-1 1 12 0.26 0.1
0 1 12 0.08 0.11
0 1 12 -0.05 0.09
1 1 12 2.57 0.19
1 1 12 2.43 0.22
2 1 12 1.18 0.14
2 1 12 1.64 0.16
3 1 12 0.29 0.1
3 1 12 0.27 0.09
4 1 12 0.01 0.08
4 1 12 0.05 0.07
5 1 12 0 0.07
5 1 12 -0.02 0.09
6 1 12 0.91 0.11
-7 -1 -12 5.25 0.29
7 1 12 5.24 0.28
1 -2 -12 0.87 0.1
-1 2 12 0.7 0.11
-1 2 12 0.82 0.14
0 -2 -12 2.2 0.16
0 2 12 2.38 0.18
0 2 12 2.4 0.21
-1 -2 -12 2.99 0.17
1 2 12 3.04 0.19
1 2 12 3.22 0.22
-2 -2 -12 3.63 0.19
2 2 12 3.87 0.21
2 2 12 3.39 0.22
3 2 12 0.1 0.08
3 2 12 0.07 0.07
3 2 12 0.08 0.06
4 2 12 0.08 0.06
4 2 12 0.04 0.08
4 2 12 0.06 0.06
4 2 12 0.05 0.08
5 2 12 -0.02 0.07
5 2 12 -0.04 0.06
5 2 12 0.04 0.06
6 2 12 1.43 0.13
-7 -2 -12 6.75 0.32
7 2 12 6.94 0.33
-8 -2 -12 3.22 0.23
8 2 12 3.24 0.23
1 -3 -12 3.59 0.21
-1 3 12 3.28 0.26
0 -3 -12 3.64 0.2
0 3 12 3.76 0.25
-1 -3 -12 1.79 0.15
1 3 12 1.99 0.2
1 3 12 1.93 0.15
2 3 12 2.65 0.16
2 3 12 2.57 0.2
3 3 12 -0.01 0.06
3 3 12 0.04 0.06
3 3 12 0.08 0.08
4 3 12 0.53 0.08
4 3 12 0.4 0.08
4 3 12 0.56 0.09
4 3 12 0.4 0.09
5 3 12 2.53 0.17
5 3 12 2.54 0.16
5 3 12 2.49 0.17
6 3 12 2.09 0.16
6 3 12 2.12 0.15
-7 -3 -12 3 0.19
7 3 12 2.84 0.17
7 3 12 2.93 0.19
-8 -3 -12 4.1 0.24
8 3 12 4.07 0.24
8 3 12 4.27 0.21
1 -4 -12 3.26 0.21
-1 4 12 3.02 0.25
0 -4 -12 2.04 0.17
0 4 12 2.22 0.22
-1 -4 -12 2.22 0.16
1 4 12 2.37 0.21
2 4 12 0.16 0.09
3 4 12 0.84 0.1
3 4 12 0.93 0.12
4 4 12 4.6 0.23
4 4 12 4.11 0.21
5 4 12 4.78 0.24
5 4 12 4.55 0.22
6 4 12 7.46 0.33
6 4 12 7.06 0.3
7 4 12 2.91 0.18
7 4 12 2.99 0.2
8 4 12 0.46 0.1
8 4 12 0.52 0.09
9 4 12 -0.05 0.08
9 4 12 0.03 0.06
0 -5 -12 0.85 0.12
0 5 12 0.72 0.14
-1 -5 -12 0.01 0.08
1 5 12 0 0.1
2 5 12 0.05 0.08
3 5 12 1.99 0.15
3 5 12 2.08 0.18
-4 -5 -12 4.87 0.23
4 5 12 4.93 0.26
4 5 12 4.98 0.23
-5 -5 -12 9.37 0.4
5 5 12 10.22 0.42
5 5 12 10.33 0.39
6 5 12 4.99 0.24
7 5 12 2.21 0.16
7 5 12 2.29 0.18
8 5 12 -0.02 0.06
8 5 12 -0.12 0.08
9 5 12 0.19 0.08
9 5 12 0.05 0.09
0 -6 -12 1.87 0.17
0 6 12 1.76 0.18
-1 -6 -12 0.2 0.09
1 6 12 0.28 0.11
2 6 12 0.19 0.1
3 6 12 2.86 0.21
3 6 12 2.73 0.17
-4 -6 -12 5.32 0.25
4 6 12 5.58 0.28
4 6 12 5.73 0.26
-5 -6 -12 5.27 0.25
5 6 12 5.66 0.28
5 6 12 5.75 0.26
-6 -6 -12 5.63 0.27
6 6 12 5.99 0.27
-7 -6 -12 2.08 0.14
7 6 12 1.61 0.15
-8 -6 -12 0.05 0.06
8 6 12 0.05 0.06
9 6 12 0.47 0.09
-1 -7 -12 0.47 0.1
1 7 12 0.51 0.13
2 7 12 0.68 0.12
3 7 12 1.63 0.15
3 7 12 1.42 0.15
-4 -7 -12 8.18 0.35
4 7 12 8.56 0.39
4 7 12 8.95 0.35
-5 -7 -12 5.65 0.26
5 7 12 5.79 0.29
5 7 12 6 0.27
-6 -7 -12 7.46 0.33
6 7 12 7.73 0.32
-7 -7 -12 0.3 0.07
7 7 12 0.23 0.08
-8 -7 -12 0.29 0.08
8 7 12 0.29 0.08
-9 -7 -12 1.95 0.16
9 7 12 2.02 0.17
-2 -8 -12 0.35 0.09
2 8 12 0.41 0.12
3 8 12 5.44 0.26
3 8 12 5.78 0.31
-4 -8 -12 2.9 0.17
4 8 12 2.76 0.18
4 8 12 2.71 0.22
-5 -8 -12 4.27 0.23
5 8 12 4.69 0.27
5 8 12 4.67 0.23
-6 -8 -12 1.23 0.12
6 8 12 1.24 0.13
6 8 12 1.15 0.12
-7 -8 -12 0.24 0.07
7 8 12 0.32 0.08
-8 -8 -12 3.75 0.22
8 8 12 4.12 0.22
4 9 12 2.08 0.17
4 9 12 2.27 0.21
-5 -9 -12 1.42 0.14
5 9 12 1.25 0.13
5 9 12 1.21 0.15
-6 -9 -12 0.04 0.06
6 9 12 -0.04 0.06
6 9 12 -0.05 0.09
-7 -9 -12 0.31 0.08
7 9 12 0.4 0.09
2 1 13 0.21 0.1
3 1 13 0.09 0.09
3 1 13 -0.06 0.11
4 1 13 0.43 0.11
5 1 13 0.4 0.1
5 1 13 0.55 0.12
1 2 13 0.11 0.09
2 2 13 0.01 0.1
2 2 13 0.08 0.08
3 2 13 0.2 0.09
3 2 13 0.22 0.11
4 2 13 1.26 0.14
5 2 13 2.07 0.18
5 2 13 1.91 0.17
6 2 13 1.99 0.18
-1 -3 -13 0.27 0.09
1 3 13 0.38 0.12
-2 -3 -13 0.04 0.07
2 3 13 -0.14 0.09
3 3 13 0.88 0.13
4 3 13 3.31 0.19
4 3 13 3.13 0.21
5 3 13 3.68 0.2
5 3 13 3.47 0.21
6 3 13 1.88 0.15
6 3 13 2.33 0.18
7 3 13 0.76 0.11
-1 -4 -13 0.17 0.08
1 4 13 0.02 0.11
-2 -4 -13 0.28 0.08
2 4 13 0.17 0.1
3 4 13 1.22 0.14
3 4 13 1.32 0.13
4 4 13 3.21 0.19
4 4 13 3.45 0.22
5 4 13 7.26 0.32
5 4 13 6.98 0.3
6 4 13 3.32 0.2
6 4 13 3.53 0.21
7 4 13 0.86 0.12
7 4 13 0.78 0.1
-1 -5 -13 -0.07 0.08
1 5 13 0 0.11
-2 -5 -13 0.13 0.08
2 5 13 0.21 0.11
3 5 13 4.05 0.22
3 5 13 4.26 0.26
4 5 13 6.12 0.28
4 5 13 6.17 0.31
-5 -5 -13 7.89 0.35
5 5 13 8.73 0.35
6 5 13 3.09 0.19
7 5 13 -0.06 0.07
7 5 13 -0.12 0.08
8 5 13 0.05 0.1
8 5 13 0.13 0.07
-2 -6 -13 1.79 0.17
2 6 13 2.21 0.22
3 6 13 2.51 0.18
3 6 13 2.58 0.22
4 6 13 4.54 0.24
4 6 13 4.66 0.27
-5 -6 -13 4.05 0.22
5 6 13 4.5 0.23
5 6 13 4.65 0.26
-6 -6 -13 2.09 0.15
6 6 13 2.29 0.17
-7 -6 -13 1.64 0.14
7 6 13 1.45 0.13
-8 -6 -13 2.46 0.18
8 6 13 2.54 0.18
3 7 13 2.38 0.18
3 7 13 2.1 0.21
4 7 13 2.49 0.21
4 7 13 2.56 0.18
-5 -7 -13 1.11 0.11
5 7 13 1.24 0.13
5 7 13 0.99 0.13
-6 -7 -13 -0.01 0.05
6 7 13 0.06 0.07
-7 -7 -13 0.84 0.1
7 7 13 1.17 0.13
4 8 13 2.04 0.21
-5 -8 -13 0.75 0.1
5 8 13 0.67 0.12
5 8 13 0.86 0.11
-6 -8 -13 -0.01 0.05
6 8 13 -0.12 0.06
