#------------------------------------------------------------------------------
#$Date: 2022-01-04 04:07:53 +0200 (Tue, 04 Jan 2022) $
#$Revision: 271781 $
#$URL: file:///home/coder/svn-repositories/cod/cif/1/56/59/1565900.cif $
#------------------------------------------------------------------------------
#
# This file is available in the Crystallography Open Database (COD),
# http://www.crystallography.net/
#
# All data on this site have been placed in the public domain by the
# contributors.
#
data_1565900
loop_
_publ_author_name
'Xie, Ning'
'Yu, Hanbo'
'Wang, Jiaxuan'
'Li, Zhiqiang'
'Wei, Jinbei'
'Wang, Yue'
_publ_section_title
;
 Phase- and Halogen-Dependent Room-Temperature Phosphorescence Properties
 of Biphenylnitrile Derivatives
;
_journal_issue                   49
_journal_name_full               'The Journal of Physical Chemistry C'
_journal_page_first              27489
_journal_page_last               27496
_journal_paper_doi               10.1021/acs.jpcc.1c09305
_journal_volume                  125
_journal_year                    2021
_chemical_formula_sum            'C13 H8 Cl N'
_chemical_formula_weight         213.65
_space_group_crystal_system      monoclinic
_space_group_IT_number           4
_space_group_name_Hall           'P 2yb'
_space_group_name_H-M_alt        'P 1 21 1'
_atom_sites_solution_hydrogens   geom
_audit_creation_method           SHELXL-2018/3
_cell_angle_alpha                90
_cell_angle_beta                 94.841(2)
_cell_angle_gamma                90
_cell_formula_units_Z            2
_cell_length_a                   3.7723(2)
_cell_length_b                   11.1607(6)
_cell_length_c                   12.1361(7)
_cell_measurement_reflns_used    9973
_cell_measurement_temperature    100(2)
_cell_measurement_theta_max      27.48
_cell_measurement_theta_min      2.93
_cell_volume                     509.13(5)
_computing_structure_refinement  'SHELXL-2018/3 (Sheldrick, 2018)'
_computing_structure_solution    'SHELXT 2018/2 (Sheldrick, 2018)'
_diffrn_ambient_temperature      100(2)
_diffrn_measured_fraction_theta_full 0.993
_diffrn_measured_fraction_theta_max 0.995
_diffrn_measurement_device_type  'Bruker APEX-III CCD'
_diffrn_measurement_method       '\f and \w scans'
_diffrn_radiation_type           MoK\a
_diffrn_radiation_wavelength     0.71073
_diffrn_reflns_av_R_equivalents  0.0285
_diffrn_reflns_av_unetI/netI     0.0240
_diffrn_reflns_Laue_measured_fraction_full 0.993
_diffrn_reflns_Laue_measured_fraction_max 0.995
_diffrn_reflns_limit_h_max       5
_diffrn_reflns_limit_h_min       -5
_diffrn_reflns_limit_k_max       14
_diffrn_reflns_limit_k_min       -14
_diffrn_reflns_limit_l_max       16
_diffrn_reflns_limit_l_min       -16
_diffrn_reflns_number            10191
_diffrn_reflns_point_group_measured_fraction_full 0.995
_diffrn_reflns_point_group_measured_fraction_max 0.996
_diffrn_reflns_theta_full        25.242
_diffrn_reflns_theta_max         28.305
_diffrn_reflns_theta_min         2.483
_diffrn_source                   Mo
_exptl_absorpt_coefficient_mu    0.335
_exptl_absorpt_correction_type   none
_exptl_crystal_colour            transparent
_exptl_crystal_density_diffrn    1.394
_exptl_crystal_description       bulk
_exptl_crystal_F_000             220
_exptl_crystal_size_max          0.2
_exptl_crystal_size_mid          0.15
_exptl_crystal_size_min          0.1
_refine_diff_density_max         0.815
_refine_diff_density_min         -0.288
_refine_diff_density_rms         0.101
_refine_ls_abs_structure_details
;
 Refined as a perfect inversion twin.
;
_refine_ls_abs_structure_Flack   0.5
_refine_ls_extinction_method     none
_refine_ls_goodness_of_fit_ref   1.186
_refine_ls_hydrogen_treatment    constr
_refine_ls_matrix_type           full
_refine_ls_number_parameters     164
_refine_ls_number_reflns         2492
_refine_ls_number_restraints     268
_refine_ls_restrained_S_all      1.126
_refine_ls_R_factor_all          0.0678
_refine_ls_R_factor_gt           0.0664
_refine_ls_shift/su_max          0.000
_refine_ls_shift/su_mean         0.000
_refine_ls_structure_factor_coef Fsqd
_refine_ls_weighting_details
'w=1/[\s^2^(Fo^2^)+(0.1045P)^2^+0.2668P] where P=(Fo^2^+2Fc^2^)/3'
_refine_ls_weighting_scheme      calc
_refine_ls_wR_factor_gt          0.1740
_refine_ls_wR_factor_ref         0.1752
_reflns_Friedel_coverage         0.906
_reflns_Friedel_fraction_full    0.997
_reflns_Friedel_fraction_max     0.997
_reflns_number_gt                2425
_reflns_number_total             2492
_reflns_threshold_expression     'I > 2\s(I)'
_cod_data_source_file            jp1c09305_si_004.cif
_cod_data_source_block           mo_xn_DPh_C1_0m_a
_cod_original_sg_symbol_H-M      'P 21'
_cod_database_code               1565900
_shelx_shelxl_version_number     2018/3
_shelx_space_group_comment
;
The symmetry employed for this shelxl refinement is uniquely defined
by the following loop, which should always be used as a source of
symmetry information in preference to the above space-group names.
They are only intended as comments.
;
_shelx_res_file
;
TITL mo_xn_DPh_C1_0m_a.res in P2(1)
    mo_xn_DPh_C1_0m_a.res
    created by SHELXL-2018/3 at 21:38:40 on 26-Dec-2019
REM Old TITL mo_xn_DPh_C1_0m in P2(1)
REM SHELXT solution in P2(1): R1 0.176, Rweak 0.063, Alpha 0.001
REM <I/s>   1.657 for    6 systematic absences,  Orientation as input
REM Flack x =  0.308 ( 0.020 ) from   955 Parsons' quotients
REM Formula found by SHELXT:  C12 Cl2
CELL  0.71073   3.7723  11.1607  12.1361   90.000   94.841   90.000
ZERR    2.000   0.0002   0.0006   0.0007    0.000    0.002    0.000
LATT -1
SYMM -X, 1/2+Y, -Z
SFAC C H N CL
UNIT 26 16 2 2
ACTA
TEMP -173.150
L.S. 10
BOND
LIST 6
FMAP 2
PLAN 2
TWIN
simu
rigu
WGHT    0.104500    0.266800
FVAR       2.00629   0.51600
C1    1    0.229748    0.802613    0.659837    11.00000    0.02116    0.02560 =
         0.03289   -0.00661    0.00738   -0.00409
C2    1    0.253361    0.774933    0.771845    11.00000    0.03470    0.03115 =
         0.03284   -0.01414    0.01201   -0.00507
AFIX  43
H2    2    0.197237    0.833660    0.824305    11.00000   -1.20000
AFIX   0
C3    1    0.358782    0.661672    0.806470    11.00000    0.03750    0.03174 =
         0.02609   -0.00864    0.00947   -0.00417
AFIX  43
H3    2    0.377454    0.643054    0.883123    11.00000   -1.20000
AFIX   0
C4    1    0.438724    0.573679    0.729766    11.00000    0.01657    0.02889 =
         0.02669   -0.00890    0.00334   -0.00341
C5    1    0.416750    0.604771    0.617618    11.00000    0.02873    0.03088 =
         0.02622   -0.00918    0.00439   -0.00212
AFIX  43
H5    2    0.475091    0.546784    0.564767    11.00000   -1.20000
AFIX   0
C6    1    0.313391    0.716512    0.582647    11.00000    0.02846    0.03223 =
         0.03061   -0.00741    0.00692   -0.00282
AFIX  43
H6    2    0.298351    0.735701    0.506131    11.00000   -1.20000
AFIX   0
C7    1    0.531286    0.449709    0.765999    11.00000    0.01706    0.02896 =
         0.02452   -0.00793    0.00482   -0.00465
C8    1    0.713058    0.426877    0.868789    11.00000    0.02437    0.03148 =
         0.02235   -0.00993    0.00483   -0.00467
AFIX  43
H8    2    0.785312    0.492150    0.915669    11.00000   -1.20000
AFIX   0
C9    1    0.790443    0.310728    0.903928    11.00000    0.02392    0.04151 =
         0.01797   -0.00548    0.00207   -0.00501
AFIX  43
H9    2    0.915621    0.296423    0.973930    11.00000   -1.20000
AFIX   0
C10   1    0.682031    0.215648    0.835155    11.00000    0.02311    0.02745 =
         0.02662   -0.00301    0.00826   -0.00105
C11   1    0.498000    0.235399    0.732504    11.00000    0.02262    0.02841 =
         0.02618   -0.00739    0.00426   -0.00203
AFIX  43
H11   2    0.421695    0.169775    0.686606    11.00000   -1.20000
AFIX   0
C12   1    0.427253    0.352362    0.697985    11.00000    0.01940    0.03088 =
         0.02433   -0.00845    0.00155   -0.00147
AFIX  43
H12   2    0.306640    0.366462    0.627264    11.00000   -1.20000
AFIX   0
PART 1 21
CL1   4    0.068961    0.948357    0.605618    21.00000    0.02667    0.01669 =
         0.03292    0.00261    0.00126    0.00092
N1    3    0.806297    0.004206    0.901548    21.00000    0.04123    0.02536 =
         0.03076    0.00047    0.00248    0.00363
C13   1    0.749859    0.104878    0.867104    21.00000    0.02328    0.03425 =
         0.02311   -0.00185    0.00128    0.00416
PART 0
PART 2 -21
CL1'  4    0.777897    0.059931    0.883109   -21.00000    0.03734    0.02851 =
         0.03072    0.00133    0.00501    0.00478
N1'   3    0.032970    1.004106    0.604640   -21.00000    0.02939    0.03374 =
         0.02682   -0.00642    0.00170   -0.00287
C13'  1    0.129715    0.912670    0.632705   -21.00000    0.02968    0.03235 =
         0.03346   -0.00876    0.00808    0.00258
PART 0
HKLF 4




REM  mo_xn_DPh_C1_0m_a.res in P2(1)
REM wR2 = 0.1752, GooF = S = 1.186, Restrained GooF = 1.126 for all data
REM R1 = 0.0664 for 2425 Fo > 4sig(Fo) and 0.0678 for all 2492 data
REM 164 parameters refined using 268 restraints

END

WGHT      0.1045      0.2668

REM Highest difference peak  0.815,  deepest hole -0.288,  1-sigma level  0.101
Q1    1   0.4914  0.0560  0.8787  11.00000  0.05    0.82
Q2    1   0.4168  0.9519  0.6168  11.00000  0.05    0.80
;
_shelx_res_checksum              83587
_shelx_hkl_file
;
  -1   0   0 3096.69   83.99
   1   0   0 3080.69   84.39
   1   0   0 3208.48   84.49
   1   0   0 3152.18   83.99
  -1   0   0 3182.88   84.39
  -1   0   0 3211.88   84.49
   2   0   0  542.65   16.90
  -2   0   0  460.55   17.10
  -2   0   0  526.95   16.70
  -2   0   0  478.45   19.70
   2   0   0  504.15   17.60
   2   0   0  522.25   17.90
   3   0   0   76.49    8.20
  -3   0   0   77.49    7.70
  -3   0   0   84.09    7.00
  -3   0   0   87.79    8.70
  -4   0   0  262.57   14.10
   4   0   0  258.57   12.70
   4   0   0  270.77   15.10
   4   0   0  253.07   14.50
  -4   0   0  247.38   20.40
  -4   0   0  262.37   12.80
  -5   0   0    0.60    4.20
   5   0   0   -4.40    5.30
   2  -1   0 1192.58   34.70
  -2  -1   0 1130.89   32.80
  -2  -1   0 1121.49   34.10
  -2  -1   0 1110.39   34.30
   2  -1   0 1082.99   34.10
   2  -1   0 1136.39   33.80
  -2   1   0 1179.58   34.60
   2   1   0 1184.98   34.50
  -2   1   0 1173.98   34.00
  -2   1   0 1106.29   34.00
   2   1   0 1179.18   34.50
   2   1   0 1172.08   33.00
  -3  -1   0  271.67   11.50
   3  -1   0  274.27   13.60
   3  -1   0  273.17   12.30
  -3  -1   0  257.87   12.70
   3  -1   0  275.47   13.10
  -3  -1   0  257.17   13.30
   3   1   0  273.47   11.40
  -3   1   0  268.67   13.40
  -3   1   0  273.87   12.90
  -3   1   0  291.07   12.50
   3   1   0  261.47   13.20
   3   1   0  280.87   15.20
   4  -1   0  313.17   14.80
  -4  -1   0  327.47   16.60
   4  -1   0  298.97   21.50
  -4  -1   0  304.97   15.90
  -4  -1   0  345.97   14.40
   4  -1   0  324.37   17.20
   4   1   0  340.17   16.60
  -4   1   0  313.47   16.90
  -4   1   0  337.07   15.20
  -4   1   0  305.57   16.10
   4   1   0  321.37   14.00
   4   1   0  328.07   17.00
  -5  -1   0   17.30    6.70
   5  -1   0   31.10    8.40
  -5   1   0   36.20    7.60
   5   1   0   30.00    7.30
   0  -2   0   10.00    1.20
   0  -2   0    8.90    1.00
   0   2   0    8.80    1.30
   0   2   0    7.10    0.90
   0   2   0    7.50    1.40
   0   2   0    6.90    0.90
   1  -2   0 2880.21   77.59
   1  -2   0 2825.42   76.69
   1  -2   0 2969.00   76.89
  -1  -2   0 2806.42   76.29
   1  -2   0 2898.81   77.09
  -1  -2   0 2691.73   76.19
  -1   2   0 2974.30   76.79
   1   2   0 2713.23   76.19
  -1   2   0 2815.42   76.99
   1   2   0 2837.92   78.49
  -1   2   0 2947.91   76.89
  -2  -2   0  777.02   25.80
  -2  -2   0  869.61   24.40
  -2  -2   0  800.32   26.10
   2  -2   0  817.52   26.10
   2  -2   0  948.21   27.10
   2   2   0  779.22   24.20
   2   2   0  797.02   26.10
  -2   2   0  848.52   26.10
   2   2   0  799.42   26.00
  -2   2   0  886.71   26.40
  -2   2   0  892.21   26.80
  -3  -2   0  141.69    7.90
   3  -2   0  163.68    9.60
   3  -2   0  147.69   10.00
  -3  -2   0  157.58   10.40
   3  -2   0  149.69   10.60
  -3  -2   0  150.08    9.30
  -3   2   0  157.78   10.60
   3   2   0  129.99    7.60
  -3   2   0  166.88    9.70
  -3   2   0  159.38    9.90
   3   2   0  144.69   10.00
   3   2   0  154.18   10.00
   4  -2   0    7.80    4.40
  -4  -2   0   18.90    5.20
   4  -2   0   15.70    5.70
   4  -2   0    9.90    3.90
  -4  -2   0   18.80    4.00
  -4  -2   0   23.50    5.20
   4  -2   0   14.10    7.40
   4   2   0   13.20    5.00
  -4   2   0   12.20    4.60
  -4   2   0   23.80    5.40
   4   2   0   10.00    3.20
   4   2   0   15.50    5.00
  -4   2   0    9.00    4.80
   0  -3   0    2.00    1.00
   0   3   0    0.90    0.80
   0   3   0    1.10    1.00
   0   3   0    1.40    0.80
   0   3   0    2.00    1.70
   1  -3   0  243.18    8.80
   1  -3   0  238.28    9.80
  -1  -3   0  235.78    8.10
  -1  -3   0  233.28    8.20
   1  -3   0  237.28    8.70
   1   3   0  238.68    8.30
   1   3   0  236.28    8.20
  -1   3   0  250.67    8.80
  -1   3   0  259.47    9.00
  -1   3   0  243.78    9.50
  -2  -3   0  823.72   26.10
   2  -3   0  891.91   29.50
   2  -3   0  897.61   28.70
   2  -3   0  859.11   26.90
  -2  -3   0  854.21   26.50
   2  -3   0  848.72   27.10
   2   3   0  839.82   26.50
   2   3   0  840.42   26.40
  -2   3   0  856.41   27.10
  -2   3   0  834.32   27.00
  -2   3   0  829.92   26.70
   3  -3   0 1157.88   36.50
   3  -3   0 1167.28   37.30
   3  -3   0 1106.09   36.50
   3  -3   0 1228.18   39.90
  -3  -3   0 1123.49   35.90
  -3  -3   0 1152.88   36.40
  -3  -3   0 1171.18   33.30
  -3   3   0 1142.59   37.20
   3   3   0 1138.39   36.20
  -3   3   0 1091.09   36.10
   3   3   0 1114.99   36.40
   3   3   0 1050.49   33.00
  -3   3   0 1164.38   36.30
   4  -3   0  192.28   13.00
  -4  -3   0  220.08   13.40
   4  -3   0  214.88   14.00
  -4  -3   0  219.78   10.20
   4  -3   0  213.88   16.10
   4  -3   0  218.08   12.90
   4   3   0  205.98   12.60
  -4   3   0  229.18   12.90
  -4   3   0  217.28   14.20
   4   3   0  236.38   13.90
   4   3   0  201.68   11.30
  -4   3   0  205.08   13.20
   0  -4   0 1082.99   30.10
   0  -4   0 1065.09   29.30
   0  -4   0 1088.09   31.20
   0   4   0 1078.19   31.20
   0   4   0 1116.19   30.20
   0   4   0 1077.59   29.40
   0   4   0 1068.39   29.40
  -1  -4   0  328.27   10.80
  -1  -4   0  328.57   10.70
   1  -4   0  334.27   11.50
   1  -4   0  329.77   12.50
   1  -4   0  347.47   11.70
  -1   4   0  346.77   12.70
   1   4   0  336.17   10.90
   1   4   0  320.47   10.70
  -1   4   0  371.46   11.70
   1   4   0  329.87   12.40
  -1   4   0  361.86   11.80
  -1   4   0  363.16   12.80
  -2  -4   0  665.93   21.80
   2  -4   0  680.03   24.20
   2  -4   0  701.33   23.50
   2  -4   0  718.43   25.10
   2  -4   0  709.53   23.50
  -2  -4   0  708.83   22.20
  -2   4   0  683.43   22.90
   2   4   0  667.43   21.90
   2   4   0  682.13   22.10
  -2   4   0  681.23   22.70
  -2   4   0  690.73   23.30
   3  -4   0  462.05   18.80
   3  -4   0  447.86   18.30
  -3  -4   0  403.46   17.00
   3  -4   0  445.36   18.10
   3  -4   0  450.75   20.60
  -3  -4   0  438.36   17.80
  -3   4   0  417.06   17.60
  -3   4   0  461.55   18.30
  -3   4   0  455.65   18.80
   3   4   0  439.76   17.80
   3   4   0  440.26   17.40
   4  -4   0  223.88   13.60
  -4  -4   0  238.28   14.10
   4  -4   0  236.18   17.10
   4  -4   0  240.98   15.10
  -4   4   0  223.98   13.60
   4   4   0  226.28   13.90
   4   4   0  229.18   13.30
  -4   4   0  221.58   13.70
  -4   4   0  230.08   14.60
   0  -5   0    6.50    2.20
   0  -5   0    0.00    1.10
   0   5   0    0.90    0.90
   0   5   0    2.60    1.00
   0   5   0    0.30    1.20
   0   5   0    1.50    1.40
   1  -5   0 2373.76   65.69
  -1  -5   0 2268.97   62.69
   1  -5   0 2254.57   63.49
   1  -5   0 2406.66   64.99
   1  -5   0 2432.46   63.89
   1   5   0 2253.97   65.19
   1   5   0 2292.77   62.79
  -1   5   0 2375.86   63.79
  -1   5   0 2390.86   64.99
  -1   5   0 2383.16   63.79
   1   5   0 2282.17   62.69
  -1   5   0 2225.98   67.29
  -2  -5   0   43.40    4.80
   2  -5   0   40.40    5.30
   2  -5   0   38.70    5.90
   2  -5   0   40.80    5.30
  -2  -5   0   46.30    6.00
   2  -5   0   36.20    5.20
  -2   5   0   43.80    5.80
   2   5   0   38.00    4.30
  -2   5   0   39.60    5.50
  -2   5   0   35.20    4.90
   2   5   0   45.00    4.80
   3  -5   0   86.99    8.70
   3  -5   0   95.79    8.60
  -3  -5   0   98.69    7.40
   3  -5   0   82.09    9.50
   3   5   0   89.89    7.80
  -3   5   0  100.49    8.80
  -3   5   0  112.09    9.20
   3   5   0   97.79    7.60
  -3   5   0   97.79    8.30
   4  -5   0  278.17   18.30
   4  -5   0  260.27   15.70
  -4  -5   0  280.17   15.10
   4   5   0  265.17   14.70
  -4   5   0  275.97   15.80
   4   5   0  263.57   15.30
  -4   5   0  266.87   15.10
  -4   5   0  242.38   14.40
   0  -6   0 1737.63   47.70
   0  -6   0 1692.13   49.50
   0   6   0 1774.72   47.80
   0   6   0 1614.34   49.20
   0   6   0 1767.82   46.70
   1  -6   0  443.36   15.00
   1  -6   0  467.75   16.60
   1  -6   0  475.05   15.40
   1  -6   0  454.25   17.20
  -1   6   0  474.05   15.40
   1   6   0  426.76   16.60
  -1   6   0  475.25   15.40
   1   6   0  469.35   14.30
   1   6   0  460.95   14.30
  -1   6   0  494.45   16.70
  -1   6   0  471.95   16.90
   2  -6   0   55.29    6.00
  -2  -6   0   67.69    5.40
   2  -6   0   49.80    5.60
  -2  -6   0   62.39    4.90
   2  -6   0   47.30    5.90
   2  -6   0   58.09    7.00
   2   6   0   74.99    5.70
  -2   6   0   56.59    6.60
   2   6   0   67.09    5.00
  -2   6   0   46.10    5.60
  -2   6   0   53.99    6.40
   3  -6   0   33.70    6.20
   3  -6   0   34.90    6.30
   3  -6   0   49.99    8.50
  -3  -6   0   52.19    7.60
  -3  -6   0   26.50    4.90
  -3   6   0   39.50    7.10
  -3   6   0   37.30    6.50
   3   6   0   41.90    5.40
   3   6   0   41.00    6.20
  -3   6   0   45.40    6.50
   4  -6   0   71.39   11.10
   4  -6   0   48.20    8.90
  -4  -6   0   77.19    9.00
   4   6   0   46.30    8.20
  -4   6   0   56.79    8.80
   4   6   0   63.39    7.90
  -4   6   0   48.90    8.30
   0  -7   0    1.30    2.40
   0  -7   0   -0.10    1.50
   0   7   0    3.50    2.00
   0   7   0    4.40    1.90
   1  -7   0  258.27   12.10
   1  -7   0  274.77   10.10
   1  -7   0  251.97    9.60
   1  -7   0  269.77   11.40
   1   7   0  251.77    8.90
  -1   7   0  248.08   11.20
   1   7   0  245.98    8.80
  -1   7   0  244.38    9.90
  -1   7   0  250.17   10.00
   2  -7   0  236.18   12.20
  -2  -7   0  225.88    9.70
   2  -7   0  232.28   12.90
  -2  -7   0  249.97   10.20
   2  -7   0  232.48   11.10
   2  -7   0  243.48   11.30
  -2   7   0  250.07   12.50
   2   7   0  253.07   10.40
  -2   7   0  228.48   11.10
   2   7   0  239.68   10.10
  -2   7   0  234.18   11.60
   3  -7   0   39.10    6.80
   3  -7   0   28.20    5.50
  -3  -7   0   45.40    6.00
   3  -7   0   35.50    8.00
   3   7   0   35.40    5.70
  -3   7   0   26.10    5.00
   3   7   0   29.80    5.20
  -3   7   0   26.00    5.60
  -3   7   0   35.10    6.10
   4  -7   0    6.00    4.80
  -4  -7   0    3.10    4.50
   4  -7   0    7.30    5.30
  -4   7   0    5.10    4.60
  -4   7   0   -2.90    4.40
   4   7   0   11.70    4.70
   4   7   0   11.40    4.40
  -4   7   0    7.80    4.60
   0  -8   0 1862.01   52.59
   0  -8   0 1850.71   55.29
   0   8   0 1898.71   52.69
   1  -8   0  275.97   13.90
   1  -8   0  282.17   12.40
   1  -8   0  273.87   13.50
   1  -8   0  269.07   10.30
  -1   8   0  259.27   13.60
  -1   8   0  281.57   10.90
  -1   8   0  282.57   12.60
   2  -8   0  385.86   16.90
   2  -8   0  391.16   15.30
   2  -8   0  385.86   15.20
   2  -8   0  373.96   17.50
  -2  -8   0  373.76   13.60
  -2   8   0  383.66   15.40
  -2   8   0  378.86   15.50
  -2   8   0  375.16   16.40
   2   8   0  373.86   13.90
   3  -8   0   14.40    4.20
  -3  -8   0   30.10    5.60
   3  -8   0   21.40    6.30
   3  -8   0   10.30    4.60
   3  -8   0   21.20    4.80
  -3   8   0   18.80    4.60
   3   8   0   16.20    3.70
  -3   8   0   18.50    4.80
   3   8   0   17.60    3.90
  -3   8   0   16.10    4.10
   4  -8   0   31.90    8.50
   4  -8   0   22.30    6.60
  -4  -8   0   21.60    5.80
  -4   8   0   19.80    7.20
   4   8   0   25.80    5.90
  -4   8   0   32.90    7.60
   4   8   0   27.70    5.60
   0  -9   0    3.80    4.00
   0   9   0    3.70    2.40
   1  -9   0  428.96   18.60
   1  -9   0  429.46   17.20
   1  -9   0  450.45   15.20
   1  -9   0  416.76   14.70
  -1   9   0  439.86   17.40
  -1   9   0  458.95   16.20
  -1   9   0  431.66   15.20
  -2  -9   0   36.30    4.40
   2  -9   0   33.90    5.10
   2  -9   0   36.60    7.30
   2  -9   0   28.80    5.10
  -2   9   0   26.40    4.70
  -2   9   0   30.10    5.60
  -2   9   0   25.40    6.10
   2   9   0   28.60    4.40
   2   9   0   37.40    4.50
   3  -9   0   97.99    8.70
  -3  -9   0  105.59    7.90
   3  -9   0   92.79   10.90
  -3   9   0   84.79    8.70
  -3   9   0  121.19    9.80
  -3   9   0   98.09    9.30
   3   9   0   91.79    7.40
   3   9   0  104.99    7.80
   0 -10   0  195.98   11.70
   0  10   0  177.08    8.90
   1 -10   0    5.30    3.90
   1 -10   0    7.70    2.50
   1 -10   0    3.50    2.80
  -1  10   0    8.20    3.00
  -1  10   0   10.10    2.50
  -1  10   0    7.60    2.30
   2 -10   0  260.07   11.80
   2 -10   0  234.78   16.90
   2 -10   0  277.77   16.50
  -2  10   0  269.47   12.40
  -2  10   0  273.87   12.80
   2  10   0  261.87   10.80
  -2  10   0  280.67   14.20
  -3 -10   0   22.30    5.00
  -3 -10   0   19.10    3.90
   3 -10   0   24.80    7.00
   3 -10   0   25.30    5.10
   3  10   0   33.50    5.70
  -3  10   0   23.00    4.90
  -3  10   0   20.70    5.50
   0 -11   0    0.70    3.40
   0  11   0   -0.20    1.80
   1 -11   0   17.80    4.10
   1 -11   0   29.70    6.30
  -1  11   0   19.80    3.80
  -1  11   0   19.80    4.20
  -1  11   0   21.20    4.00
   2 -11   0   28.50    6.20
   2 -11   0   29.20    4.50
   2 -11   0   30.00    4.80
   2 -11   0   26.70    6.80
  -2  11   0   34.80    5.40
  -2  11   0   35.20    6.60
  -2  11   0   37.40    5.60
   3 -11   0  115.39    9.10
   3 -11   0  124.09   12.20
  -3  11   0   99.59    9.60
   3  11   0   92.89    9.40
  -3  11   0  109.89   11.40
   3  11   0  117.49    8.10
  -3  11   0   85.89    8.90
   0  12   0   46.30    5.30
   1 -12   0   31.80    6.30
   1 -12   0   35.90    7.30
  -1  12   0   27.90    4.40
  -1  12   0   44.40    8.90
  -1  12   0   37.30    4.20
   2 -12   0  121.19    8.10
   2 -12   0  103.29    7.10
   2 -12   0  119.09   11.60
  -2  12   0  107.69    9.80
  -2  12   0  111.59    7.90
  -2  12   0  110.29    8.00
   0 -13   0   -1.80    3.60
   1 -13   0  211.28   13.90
   1 -13   0  187.18   11.80
  -1  13   0  196.58   11.80
   2 -13   0   13.90    6.30
   2 -13   0   16.30    3.30
  -2  13   0    8.10    3.70
  -2  13   0   13.40    4.00
  -2  13   0   10.90    4.70
   0 -14   0  388.86   20.30
   0  14   0  377.66   15.70
   1 -14   0   10.30    5.50
  -1  14   0    0.70    3.40
   5   0  -1    1.40    5.70
  -5   0   1    2.80    4.50
  -5   0   1    3.00    5.70
   5   0  -1    5.00    5.40
   4   0  -1   89.79    9.50
  -4   0   1   87.69    7.80
   4   0  -1   82.79    9.00
  -4   0   1   74.89    9.30
  -4   0   1   83.29    8.80
   4   0  -1   78.99    7.40
  -3   0   1 1289.77   39.60
   3   0  -1 1199.18   38.90
  -3   0   1 1247.58   37.80
   3   0  -1 1263.27   39.80
   3   0  -1 1278.77   38.10
  -3   0   1 1216.18   38.70
   2   0  -1  866.51   26.70
  -2   0   1  874.91   27.30
   2   0  -1  869.11   26.80
   2   0  -1  831.02   25.80
  -2   0   1  847.52   25.90
  -2   0   1  842.62   26.30
  -1   0   1  551.24   16.60
   1   0  -1  548.15   16.60
  -1   0   1  570.44   16.90
   1   0  -1  572.74   17.00
   1   0  -1  555.84   17.00
  -1   0   1  574.94   17.10
   1   0   1  299.87   10.70
  -1   0  -1  323.57   10.70
  -1   0  -1  334.17   10.90
  -1   0  -1  322.67   10.10
   1   0   1  286.47   10.00
  -2   0  -1 3007.90   83.39
   2   0   1 3058.99   83.49
  -2   0  -1 2956.20   83.19
   2   0   1 3063.19   83.39
  -2   0  -1 2988.10   82.19
   2   0   1 3064.49   82.29
  -3   0  -1  489.95   19.10
   3   0   1  445.66   18.70
  -3   0  -1  475.05   17.10
   3   0   1  448.66   16.90
  -3   0  -1  461.55   18.30
   3   0   1  458.95   19.00
  -4   0  -1   53.09    7.70
   4   0   1   64.59    8.90
   4   0   1   74.79   10.30
  -4   0  -1   45.40    8.30
   4   0   1   54.19    6.50
  -4   0  -1   60.79    7.00
  -5  -1   1   10.50    4.50
   5  -1  -1   17.80    6.60
   5  -1  -1   26.50    8.40
  -5  -1   1   18.10    6.60
   5   1  -1   35.70    8.60
  -5   1   1   29.20    7.40
  -5   1   1   17.90    5.60
   5   1  -1   12.40    4.60
  -4  -1   1   84.19    8.90
   4  -1  -1   72.59    7.80
  -4  -1   1   92.29   10.20
   4  -1  -1   89.59   11.00
   4  -1  -1   93.59   10.00
  -4  -1   1   90.89    8.10
   4  -1  -1   87.49   10.60
   4   1  -1   91.69    9.20
  -4   1   1   84.99   10.00
  -4   1   1   84.29    8.40
  -4   1   1   84.09    9.00
   4   1  -1   88.29   10.30
   4   1  -1   82.69    7.10
  -3  -1   1   -1.50    2.60
  -3  -1   1   -2.10    3.40
   3  -1  -1    3.60    2.80
   3  -1  -1   -1.20    2.80
   3  -1  -1   -4.10    3.00
  -3  -1   1    2.30    3.10
   3   1  -1   -3.90    3.50
  -3   1   1    2.10    2.70
   3   1  -1   -1.80    3.10
  -3   1   1    2.10    3.20
  -3   1   1    2.30    3.00
   3   1  -1   -4.20    2.10
   2  -1  -1 2246.28   63.99
   2  -1  -1 2353.36   64.29
  -2  -1   1 2190.18   63.39
  -2  -1   1 2312.67   62.69
   2  -1  -1 2309.47   63.69
  -2  -1   1 2296.77   63.89
  -2   1   1 2290.57   63.49
   2   1  -1 2200.38   62.59
  -2   1   1 2301.67   63.99
  -2   1   1 2367.36   64.29
   2   1  -1 2203.18   63.59
   2   1  -1 2325.57   63.99
   1  -1  -1 4270.57  115.29
  -1  -1   1 4204.48  114.99
  -1  -1   1 4249.27  114.49
   1  -1  -1 4429.56  115.39
   1  -1  -1 4406.46  115.99
   1  -1  -1 4390.16  115.39
  -1  -1   1 4134.39  114.89
  -1   1   1 4269.47  115.19
   1   1  -1 4183.58  115.29
   1   1  -1 4315.37  115.09
  -1   1   1 4551.74  115.49
  -1   1   1 4531.15  115.39
   1   1  -1 4434.16  114.49
   0  -1  -1  439.46   13.70
   1  -1   1 8474.05  226.68
  -1  -1  -1 8400.16  225.68
   1  -1   1 8554.94  226.88
  -1  -1  -1 8957.90  226.88
  -1   1  -1 8553.34  226.68
   1   1   1 8628.64  226.78
  -1   1  -1 8714.03  226.88
   2  -1   1  249.18   10.40
  -2  -1  -1  256.57   10.90
  -2  -1  -1  270.47    9.80
   2  -1   1  238.38   11.50
   2  -1   1  234.18   11.30
   2   1   1  259.97    9.70
  -2   1  -1  235.78   11.10
  -2   1  -1  243.48   11.40
   2   1   1  306.17   11.80
  -2   1  -1  305.07   10.90
   3  -1   1  286.47   12.70
   3  -1   1  276.87   13.80
   3  -1   1  278.97   13.70
  -3  -1  -1  288.07   13.90
  -3  -1  -1  282.27   11.60
  -3  -1  -1  281.27   13.30
   3   1   1  265.47   13.40
  -3   1  -1  293.87   12.70
   3   1   1  282.27   11.60
   3   1   1  270.77   13.60
  -3   1  -1  282.37   13.90
  -3   1  -1  280.67   13.40
  -4  -1  -1   75.19    8.40
   4  -1   1   61.89    6.90
   4  -1   1   67.99    8.30
  -4  -1  -1   65.49    9.50
  -4  -1  -1   67.89    6.90
  -4   1  -1   84.29    7.90
   4   1   1   72.29    8.60
   4   1   1   54.49    6.30
  -4   1  -1   73.69    8.80
  -4   1  -1   60.29    8.80
   4   1   1   84.29    9.40
  -4  -2   1   11.30    3.80
   4  -2  -1   10.40    6.10
   4  -2  -1    6.40    3.80
  -4  -2   1   15.60    5.10
   4  -2  -1   16.00    5.80
  -4  -2   1    8.10    4.70
   4  -2  -1    6.80    4.00
  -4   2   1   21.00    4.70
   4   2  -1   10.20    4.90
  -4   2   1   20.70    4.90
  -4   2   1   14.50    5.00
   4   2  -1   12.70    5.10
   4   2  -1   10.90    3.40
  -3  -2   1  649.04   22.90
   3  -2  -1  702.33   26.20
   3  -2  -1  620.14   23.30
  -3  -2   1  631.94   23.30
  -3  -2   1  651.63   21.30
   3  -2  -1  663.03   24.00
   3  -2  -1  647.74   23.10
   3   2  -1  621.84   21.10
  -3   2   1  669.33   23.20
  -3   2   1  643.44   23.20
   3   2  -1  667.93   23.80
  -3   2   1  670.83   24.10
   3   2  -1  649.14   23.30
   2  -2  -1 1740.83   49.40
  -2  -2   1 1666.43   47.20
  -2  -2   1 1746.43   49.00
   2  -2  -1 1729.73   49.30
   2  -2  -1 1785.52   49.40
  -2  -2   1 1737.73   48.70
  -2   2   1 1730.23   49.50
   2   2  -1 1610.24   47.20
   2   2  -1 1748.72   49.00
  -2   2   1 1683.03   49.00
   2   2  -1 1656.03   48.70
   1  -2  -1 1067.09   29.70
   1  -2  -1 1040.20   29.60
  -1  -2   1 1033.90   28.90
   1  -2  -1 1040.80   30.40
   1  -2  -1 1063.79   29.90
  -1  -2   1 1068.19   29.10
  -1   2   1 1015.30   30.20
  -1   2   1 1040.40   29.70
  -1   2   1 1045.80   29.80
   1   2  -1  974.30   29.00
  -1   2   1 1035.30   29.70
   1   2  -1 1065.19   29.10
   0  -2  -1  342.97    9.80
   0  -2  -1  347.17   10.00
   0  -2   1  343.17    9.90
   0  -2  -1  338.77    9.90
   0  -2  -1  335.87   10.60
   0   2   1  326.77   10.60
   0   2  -1  331.37    9.90
   0   2  -1  335.57   10.00
   0   2   1  338.17    9.90
   0   2   1  339.17    9.80
   0   2   1  325.07    9.90
  -1  -2  -1 3163.88   83.89
   1  -2   1 3148.59   84.19
   1  -2   1 3141.69   84.69
   1  -2   1 3107.89   84.09
  -1  -2  -1 3243.88   83.99
   1  -2   1 3189.38   84.49
   1   2   1 3059.29   83.89
   1   2   1 3016.70   83.79
  -1   2  -1 3049.79   83.99
  -1   2  -1 3143.49   84.19
  -1   2  -1 3189.88   84.39
  -2  -2  -1  983.10   28.20
   2  -2   1 1012.10   30.40
   2  -2   1  968.00   30.60
  -2  -2  -1  983.70   30.20
   2  -2   1  986.20   30.70
  -2  -2  -1 1014.50   30.20
  -2   2  -1 1016.40   30.30
  -2   2  -1 1030.70   30.90
   2   2   1  994.30   30.30
  -2   2  -1  993.20   30.40
   2   2   1  952.00   28.20
   2   2   1  983.40   30.30
   3  -2   1  278.87   13.10
  -3  -2  -1  288.67   11.60
  -3  -2  -1  295.67   13.30
   3  -2   1  277.87   14.60
  -3  -2  -1  307.97   14.20
   3  -2   1  267.87   14.00
   3   2   1  270.37   11.30
   3   2   1  313.87   18.50
  -3   2  -1  313.37   13.50
  -3   2  -1  286.77   14.60
  -3   2  -1  279.17   13.90
   3   2   1  288.87   13.80
   4  -2   1  188.68   12.50
  -4  -2  -1  184.38    9.70
   4  -2   1  193.08   15.10
   4  -2   1  178.18   11.30
   4  -2   1  185.98   13.00
  -4  -2  -1  168.28   12.30
  -4  -2  -1  189.08   14.10
   4   2   1  175.78   12.30
  -4   2  -1  182.78   11.80
  -4   2  -1  177.28   11.30
  -4   2  -1  172.78   12.60
   4   2   1  157.98    9.30
   4   2   1  166.78   11.60
   4  -3  -1  236.68   14.20
  -4  -3   1  233.88   10.90
   4  -3  -1  265.67   17.30
   4  -3  -1  249.38   14.80
  -4  -3   1  237.18   14.30
   4  -3  -1  224.68   13.00
  -4   3   1  244.08   13.70
   4   3  -1  240.48   14.40
   4   3  -1  227.58   13.60
  -4   3   1  227.98   14.40
   4   3  -1  210.38   10.90
  -4   3   1  231.08   13.20
  -3  -3   1  512.35   19.30
   3  -3  -1  591.44   23.70
   3  -3  -1  573.54   21.60
   3  -3  -1  560.94   21.00
  -3  -3   1  542.35   20.30
   3  -3  -1  563.04   21.00
  -3  -3   1  531.05   20.80
  -3   3   1  581.34   21.50
   3   3  -1  535.25   20.90
  -3   3   1  555.54   20.70
  -3   3   1  544.55   20.70
   3   3  -1  504.35   17.90
   3   3  -1  530.35   20.60
   2  -3  -1  910.41   29.50
  -2  -3   1  861.71   26.80
  -2  -3   1  889.21   27.20
   2  -3  -1  893.11   27.80
   2  -3  -1  877.91   27.80
   2  -3  -1  895.21   28.00
  -2   3   1  883.51   27.80
   2   3  -1  882.01   27.20
  -2   3   1  848.22   27.40
   2   3  -1  882.21   27.10
  -2   3   1  879.71   27.80
   1  -3  -1  286.07   10.10
   1  -3  -1  265.37    9.50
  -1  -3   1  274.87    8.80
   1  -3  -1  251.57   11.60
  -1  -3   1  278.17    8.70
   1  -3  -1  260.47    9.50
  -1   3   1  267.77    9.50
  -1   3   1  256.67    9.50
   1   3  -1  257.27    8.70
  -1   3   1  257.17   10.20
   1   3  -1  257.27    8.70
  -1   3   1  276.67   10.00
   0  -3  -1  855.01   23.60
   0  -3  -1  843.32   24.80
   0  -3   1  841.02   24.10
   0  -3  -1  884.81   23.70
   0  -3  -1  838.32   23.60
   0   3  -1  828.72   24.00
   0   3  -1  853.71   23.90
   0   3   1  870.51   23.60
   0   3   1  847.12   23.70
   0   3   1  836.82   23.60
   0   3   1  849.32   24.80
   1  -3   1 1502.05   41.00
  -1  -3  -1 1534.85   40.70
   1  -3   1 1493.65   41.60
   1  -3   1 1456.05   41.80
  -1  -3  -1 1444.06   40.50
   1  -3   1 1437.96   40.80
   1   3   1 1437.66   40.70
  -1   3  -1 1456.65   41.50
  -1   3  -1 1489.05   40.90
   1   3   1 1446.16   40.60
  -1   3  -1 1478.85   41.00
   2  -3   1 2355.76   64.49
   2  -3   1 2354.66   65.89
   2  -3   1 2233.48   63.99
  -2  -3  -1 2261.57   63.59
  -2  -3  -1 2217.58   63.39
   2   3   1 2213.18   63.49
  -2   3  -1 2315.17   64.29
  -2   3  -1 2242.28   63.79
  -2   3  -1 2293.37   64.19
   2   3   1 2224.58   63.49
   3  -3   1  538.95   20.60
   3  -3   1  561.74   23.20
   3  -3   1  544.45   21.60
   3  -3   1  516.15   20.90
  -3  -3  -1  519.15   19.90
  -3  -3  -1  531.85   20.60
   3   3   1  553.54   20.70
   3   3   1  488.15   17.30
  -3   3  -1  584.44   20.70
  -3   3  -1  540.75   20.80
   3   3   1  526.95   20.20
  -3   3  -1  540.65   21.20
  -4  -3  -1  161.08   11.80
   4  -3   1  150.18   12.50
   4  -3   1  152.18   12.20
   4  -3   1  156.38   11.00
   4  -3   1  171.88   14.50
  -4  -3  -1  159.78    8.50
  -4   3  -1  140.69   12.30
   4   3   1  155.88   11.30
   4   3   1  140.99    8.40
  -4   3  -1  169.38   11.10
   4   3   1  164.18   11.70
  -4   3  -1  140.29   11.20
   4  -4  -1  255.97   15.30
   4  -4  -1  248.28   17.00
   4  -4  -1  226.58   13.50
  -4  -4   1  235.78   14.50
  -4   4   1  237.68   13.90
   4   4  -1  246.48   14.30
  -4   4   1  240.18   15.00
   4   4  -1  212.48   10.20
   4   4  -1  220.58   13.50
  -4   4   1  245.48   14.30
  -3  -4   1   86.59    8.10
   3  -4  -1  100.19    8.70
   3  -4  -1   89.59    8.00
  -3  -4   1   81.99    7.30
   3  -4  -1   89.39    8.10
   3  -4  -1   90.19    9.60
   3   4  -1   87.09    8.10
  -3   4   1   85.79    8.10
   3   4  -1   82.99    7.80
  -3   4   1   89.99    8.70
  -3   4   1   87.69    7.70
   2  -4  -1  638.14   21.90
   2  -4  -1  637.14   21.50
  -2  -4   1  637.54   20.40
  -2  -4   1  670.93   20.90
   2  -4  -1  631.34   22.90
   2  -4  -1  641.24   22.10
   2   4  -1  600.24   20.50
  -2   4   1  627.64   21.20
   2   4  -1  629.14   20.50
  -2   4   1  615.54   21.60
  -2   4   1  648.84   21.50
  -1  -4   1  801.62   23.50
   1  -4  -1  849.32   26.20
   1  -4  -1  869.61   25.70
   1  -4  -1  818.62   24.70
   1  -4  -1  876.01   25.00
  -1   4   1  832.32   25.90
  -1   4   1  875.81   26.60
   1   4  -1  810.72   23.60
   1   4  -1  845.12   23.70
  -1   4   1  825.12   26.00
  -1   4   1  865.31   24.90
   1   4  -1  829.22   25.40
   0  -4  -1 1055.59   29.30
   0  -4  -1 1089.39   31.20
   0  -4  -1 1092.19   29.60
   0  -4   1 1045.50   29.70
   0  -4  -1 1061.09   29.40
   0  -4   1 1039.70   30.20
   0   4   1 1056.19   29.40
   0   4   1 1052.99   31.10
   0   4   1 1086.59   29.60
   0   4   1 1045.20   29.40
   0   4  -1 1064.29   29.80
   0   4  -1 1042.20   30.20
  -1  -4  -1 1631.44   43.60
   1  -4   1 1597.24   43.80
   1  -4   1 1607.14   45.00
  -1  -4  -1 1582.34   43.50
   1  -4   1 1595.64   43.80
   1  -4   1 1585.04   45.20
  -1   4  -1 1622.54   43.90
  -1   4  -1 1567.24   44.00
   1   4   1 1444.46   45.00
  -1   4  -1 1661.93   48.50
   1   4   1 1500.75   43.50
  -1   4  -1 1551.34   44.90
   2  -4   1 1060.19   36.40
  -2  -4  -1  992.70   31.30
   2  -4   1 1066.39   33.70
  -2  -4  -1 1028.60   31.20
   2  -4   1 1060.59   32.20
   2  -4   1 1068.39   34.90
  -2   4  -1 1001.90   31.50
   2   4   1 1013.40   31.20
  -2   4  -1 1028.10   31.90
  -2   4  -1 1042.70   32.30
   2   4   1 1007.90   31.10
  -3  -4  -1  437.06   17.40
   3  -4   1  404.16   17.40
   3  -4   1  436.86   20.10
  -3  -4  -1  413.46   16.90
   3  -4   1  413.76   17.70
   3  -4   1  419.26   18.10
  -3   4  -1  406.76   17.30
   3   4   1  408.26   16.90
   3   4   1  408.36   17.10
  -3   4  -1  418.36   18.00
  -3   4  -1  420.76   17.40
   4  -4   1   65.79    8.60
   4  -4   1   75.59   11.40
  -4  -4  -1   82.09    9.50
   4  -4   1   58.79    9.90
   4   4   1   74.59    9.20
  -4   4  -1   79.59    9.10
  -4   4  -1   77.69    9.30
  -4   4  -1   82.99   10.20
   4   4   1  102.89    9.30
   4  -5  -1  209.28   13.70
  -4  -5   1  174.48   12.90
   4  -5  -1  232.28   16.40
   4   5  -1  175.08   12.00
  -4   5   1  197.68   13.50
  -4   5   1  170.48   12.40
  -4   5   1  182.88   12.70
   4   5  -1  190.08   13.20
   3  -5  -1  164.38   10.70
  -3  -5   1  153.58   13.80
   3  -5  -1  123.99    9.50
   3  -5  -1  164.78   12.20
  -3  -5   1  154.58    9.20
   3  -5  -1  157.38   10.40
   3   5  -1  148.09    9.30
  -3   5   1  146.89   10.40
  -3   5   1  158.58   10.90
   3   5  -1  151.08    9.80
  -3   5   1  152.58    9.70
   2  -5  -1  138.79    7.90
   2  -5  -1  124.29    8.10
   2  -5  -1  133.79    9.20
  -2  -5   1  126.09    7.10
   2  -5  -1  134.79    9.20
  -2  -5   1  120.59    6.70
  -2   5   1  128.59    7.70
  -2   5   1  129.39    8.20
   2   5  -1  124.99    6.90
   2   5  -1  129.59    7.10
  -2   5   1  132.19    8.30
   1  -5  -1  668.23   21.50
   1  -5  -1  675.83   19.90
   1  -5  -1  652.53   19.60
   1  -5  -1  672.93   20.80
  -1   5   1  631.14   19.60
   1   5  -1  608.14   20.40
  -1   5   1  587.64   20.90
   1   5  -1  576.14   18.00
  -1   5   1  630.64   19.70
  -1   5   1  614.34   20.40
   0  -5   1 2078.19   56.39
   0  -5   1 2050.49   57.19
   0  -5  -1 2076.29   58.09
   0  -5  -1 2113.19   55.79
   0  -5  -1 2045.70   55.69
   0  -5  -1 2117.19   56.19
   0   5   1 2093.39   55.89
   0   5  -1 2075.39   56.39
   0   5  -1 1930.41   56.89
   0   5   1 2115.79   56.19
   0   5   1 2015.20   57.99
   0   5   1 2037.00   55.79
   1  -5   1  697.73   22.30
  -1  -5  -1  700.03   20.30
   1  -5   1  688.33   20.60
   1  -5   1  691.53   20.70
  -1   5  -1  679.63   21.20
  -1   5  -1  677.03   20.80
   1   5   1  651.03   20.30
  -1   5  -1  697.03   22.00
   1   5   1  681.63   20.40
   1   5   1  681.23   22.50
  -1   5  -1  669.93   22.00
   2  -5   1  171.78    9.20
  -2  -5  -1  193.18    8.70
  -2  -5  -1  170.58    8.20
   2  -5   1  172.58    9.00
   2  -5   1  167.18    9.40
   2  -5   1  164.98   10.10
   2   5   1  156.78    7.90
  -2   5  -1  154.18    8.50
  -2   5  -1  155.68    9.10
  -2   5  -1  159.38    9.20
   2   5   1  158.18    8.30
   3  -5   1  417.76   19.50
  -3  -5  -1  381.96   15.90
  -3  -5  -1  405.66   16.60
   3  -5   1  389.16   17.50
   3  -5   1  400.46   17.60
  -3   5  -1  388.16   16.90
  -3   5  -1  399.76   17.70
  -3   5  -1  395.76   17.20
   3   5   1  390.56   16.20
   3   5   1  394.16   16.70
   4  -5   1   21.30    5.90
   4  -5   1   23.20    8.40
  -4  -5  -1   18.80    5.30
  -4   5  -1   16.40    6.10
  -4   5  -1   21.60    5.30
   4   5   1   21.00    5.30
  -4   5  -1   14.50    5.10
   4   5   1   23.70    5.40
   4  -6  -1  129.49   13.50
   4  -6  -1  119.29   11.30
  -4  -6   1  113.39   10.60
   4   6  -1  111.89   10.70
  -4   6   1  136.49   10.60
  -4   6   1  137.99   11.70
   4   6  -1  107.49    9.40
  -4   6   1  116.79   10.60
   3  -6  -1   70.39   13.60
   3  -6  -1   41.10    6.90
  -3  -6   1   58.69    6.80
   3  -6  -1   71.49    7.80
  -3  -6   1   44.60    5.50
  -3   6   1   57.09    6.60
   3   6  -1   50.89    6.50
   3   6  -1   55.99    6.00
  -3   6   1   64.09    8.30
  -3   6   1   54.59    8.80
   2  -6  -1  352.16   15.10
   2  -6  -1  367.26   16.30
  -2  -6   1  364.66   13.20
  -2  -6   1  360.16   16.10
   2  -6  -1  352.06   14.40
   2  -6  -1  384.76   18.80
   2   6  -1  339.77   12.90
  -2   6   1  357.86   15.10
  -2   6   1  357.26   14.40
   2   6  -1  380.96   13.40
  -2   6   1  355.66   14.60
   1  -6  -1 1119.69   34.50
   1  -6  -1 1117.29   33.40
   1  -6  -1 1082.59   31.90
   1  -6  -1 1138.29   32.30
  -1   6   1 1077.79   33.10
  -1   6   1 1065.29   32.00
  -1   6   1 1100.19   32.30
   0  -6   1  179.28    8.30
   0  -6  -1  181.38    6.70
   0  -6   1  165.68    7.20
   0  -6  -1  179.88    6.70
   0  -6  -1  169.08    8.80
   0  -6  -1  179.28    7.30
   0   6   1  167.58    7.20
   0   6   1  165.68    8.60
   0   6   1  164.38    6.70
   0   6   1  188.88    9.10
   0   6  -1  160.38    7.90
   0   6  -1  170.28    7.50
  -1  -6  -1   94.79    5.00
  -1  -6  -1   99.69    5.20
   1  -6   1   97.29    5.30
   1  -6   1   96.69    5.50
   1  -6   1  103.29    6.60
   1  -6   1  103.79    6.80
  -1   6  -1  100.49    5.80
   1   6   1  103.29    5.20
   1   6   1   95.79    6.60
   1   6   1  106.19    5.30
  -1   6  -1  103.49    6.80
  -1   6  -1   96.99    6.30
  -1   6  -1  102.29    6.50
  -2  -6  -1   57.89    5.30
   2  -6   1   48.50    6.30
   2  -6   1   49.10    5.50
   2  -6   1   61.89    6.10
  -2  -6  -1   55.79    4.90
   2  -6   1   42.10    5.50
  -2   6  -1   44.30    5.40
   2   6   1   61.99    5.10
   2   6   1   63.79    5.50
  -2   6  -1   45.30    6.10
  -2   6  -1   45.40    5.70
  -3  -6  -1  108.69    8.10
   3  -6   1   97.99    8.90
   3  -6   1  112.99   10.50
   3  -6   1  101.69    9.10
  -3   6  -1  102.99    9.20
  -3   6  -1  115.19    8.70
   3   6   1  104.79    7.70
   3   6   1  103.99   11.60
  -3   6  -1  117.79    9.20
   4  -6   1   65.59   11.10
   4  -6   1   58.29    9.30
  -4  -6  -1   59.29    9.00
  -4   6  -1   56.49    9.20
   4   6   1   53.99    8.50
   4   6   1   49.70    7.40
  -4   6  -1   72.09    8.90
  -4   6  -1   60.19    8.40
   4  -7  -1   67.99    9.60
   4  -7  -1   76.29   11.40
  -4  -7   1   63.59    8.70
  -4   7   1   60.49    9.50
   4   7  -1   72.89    8.90
   4   7  -1   57.19    7.80
  -4   7   1   54.39    9.00
  -4   7   1   49.70    9.00
   3  -7  -1   18.00    5.50
   3  -7  -1   11.00    4.30
  -3  -7   1    8.90    3.50
  -3  -7   1    6.50    2.70
  -3   7   1    6.40    3.70
   3   7  -1   11.60    3.30
   3   7  -1   17.90    6.00
   2  -7  -1  377.36   15.80
   2  -7  -1  349.67   15.00
  -2  -7   1  353.86   12.80
   2  -7  -1  364.16   14.70
  -2  -7   1  347.27   12.60
   2  -7  -1  337.17   16.40
   2   7  -1  343.27   12.70
   2   7  -1  368.16   13.20
  -2   7   1  361.06   14.70
  -2   7   1  354.76   15.50
  -2   7   1  354.56   14.90
   1  -7  -1  209.08    8.80
   1  -7  -1  225.88   11.50
   1  -7  -1  224.68   10.30
   1  -7  -1  229.98    9.30
  -1   7   1  217.58    9.30
  -1   7   1  205.98   10.10
  -1   7   1  204.98    9.10
   1   7  -1  193.78    9.70
   0  -7  -1  672.03   19.50
   0  -7  -1  686.53   20.40
   0  -7  -1  676.53   23.00
   0  -7  -1  579.14   19.40
   0  -7   1  682.73   22.20
   0   7   1  657.43   19.70
   0   7   1  679.13   19.90
   0   7   1  670.43   20.30
   0   7   1  638.24   23.00
   0   7  -1  618.04   21.90
  -1  -7  -1   36.10    3.50
  -1  -7  -1   38.10    3.40
   1  -7   1   35.80    3.60
   1  -7   1   31.30    3.70
   1  -7   1   38.50    5.20
   1  -7   1   34.00    4.50
  -1   7  -1   32.10    3.70
   1   7   1   36.70    3.50
  -1   7  -1   34.50    4.00
  -1   7  -1   32.90    5.00
   1   7   1   31.30    3.40
  -1   7  -1   29.20    4.10
   2  -7   1   91.99    8.30
  -2  -7  -1  109.59    6.70
   2  -7   1   84.79    6.70
   2  -7   1   90.79    7.30
   2  -7   1   98.99    7.90
   2   7   1  101.99    6.40
  -2   7  -1  108.49    8.20
   2   7   1  108.89    6.80
  -2   7  -1   89.19    7.60
  -2   7  -1   85.59    7.00
   3  -7   1   66.39    7.40
   3  -7   1   76.89    9.40
   3  -7   1   62.09    7.80
  -3   7  -1   48.90    6.80
   3   7   1   83.99    7.40
  -3   7  -1   77.99    8.30
  -3   7  -1   68.49    7.70
   3   7   1   57.69    6.30
   4  -7   1   49.00    8.30
  -4  -7  -1   42.70    7.00
   4  -7   1   62.69   10.80
   4   7   1   41.20    6.40
  -4   7  -1   47.80    8.50
  -4   7  -1   41.50    7.60
  -4   7  -1   43.20    7.30
   4   7   1   56.89    8.20
  -4  -8   1   17.00    5.40
   4  -8  -1   29.70    6.10
   4  -8  -1   42.20   10.00
  -4   8   1   22.00    6.30
   4   8  -1   23.70    5.30
  -4   8   1    6.50    8.00
  -4   8   1   15.60    6.30
   4   8  -1   29.00    6.10
   3  -8  -1  238.98   13.00
   3  -8  -1  233.28   12.90
   3  -8  -1  233.78   14.90
   3  -8  -1  251.47   15.90
  -3  -8   1  253.57   11.90
  -3   8   1  249.48   13.20
   3   8  -1  237.28   11.70
   3   8  -1  270.07   12.20
  -3   8   1  256.27   14.10
  -3   8   1  248.88   13.80
   2  -8  -1  260.17   12.00
   2  -8  -1  261.97   14.50
   2  -8  -1  259.67   12.10
   2  -8  -1  265.97   13.40
   2   8  -1  247.08   10.10
  -2   8   1  258.97   13.10
  -2   8   1  254.17   12.10
  -2   8   1  261.97   12.40
   2   8  -1  264.07   10.50
   1  -8  -1  129.19    7.10
   1  -8  -1  115.89    6.60
   1  -8  -1  123.89    8.10
   1  -8  -1  119.39    9.20
  -1   8   1  119.19    7.10
  -1   8   1  118.29    7.10
  -1   8   1  118.89    8.00
   0  -8  -1  384.36   13.90
   0  -8   1  401.06   15.90
   0  -8  -1  394.76   16.70
   0  -8  -1  397.26   12.90
   0   8   1  386.06   13.10
   0   8  -1  386.06   15.70
   0   8  -1  422.96   14.50
   0   8   1  403.86   14.10
   0   8   1  401.96   13.40
  -1  -8  -1  209.68    8.30
   1  -8   1  209.68   11.30
   1  -8   1  193.58    8.20
   1  -8   1  216.58    8.60
   1  -8   1  196.88   10.40
  -1   8  -1  207.88    8.90
   1   8   1  206.48    8.60
  -1   8  -1  220.38    9.00
  -1   8  -1  218.98   10.90
   1   8   1  211.68    8.50
   2  -8   1   28.40    4.90
   2  -8   1   17.50    4.00
   2  -8   1   21.50    5.00
   2  -8   1   13.00    3.50
  -2   8  -1   18.30    3.70
  -2   8  -1   18.70    4.00
   3  -8   1   75.39    7.90
  -3  -8  -1   77.39    6.90
   3  -8   1   82.29    9.10
  -3  -8  -1   92.39    7.70
   3  -8   1   83.69    8.60
   3  -8   1  100.49   10.30
  -3   8  -1   69.79    7.80
  -3   8  -1   71.99    8.60
   3   8   1   82.39    7.10
  -3   8  -1   89.99    8.90
   3   8   1  100.39    7.90
  -4  -8  -1   49.00    7.60
   4  -8   1   59.69   10.50
   4  -8   1   66.19   10.20
  -4   8  -1   45.10    7.70
   4   8   1   45.70    7.90
  -4   8  -1   74.99    9.40
  -4   8  -1   51.79    9.30
   4   8   1   57.19   10.50
  -4  -9   1   47.30    8.90
   4  -9  -1   80.99   10.10
  -4   9   1   53.79   10.20
  -4   9   1   69.79   10.00
  -4   9   1   69.39    9.80
   4   9  -1   74.39    8.20
   3  -9  -1  168.48   13.50
  -3  -9   1  149.09    8.90
   3  -9  -1  151.58   10.40
  -3   9   1  156.98   10.70
   3   9  -1  139.59    8.60
  -3   9   1  150.38   11.10
  -3   9   1  157.68   11.50
   3   9  -1  146.39    9.10
   2  -9  -1  186.38   10.20
   2  -9  -1  178.08   11.10
   2  -9  -1  203.98   10.20
   2  -9  -1  206.98   13.20
  -2   9   1  191.08   12.50
  -2   9   1  199.98   11.40
   2   9  -1  213.38    8.90
  -2   9   1  199.88   10.50
   1  -9  -1  218.58   12.50
   1  -9  -1  218.88    9.50
   1  -9  -1  195.48   10.70
   1  -9  -1  213.88    9.20
  -1   9   1  209.48    9.60
  -1   9   1  208.88    9.60
  -1   9   1  193.58   10.70
   0  -9  -1  402.46   17.40
   0  -9  -1  399.56   14.40
   0  -9   1  394.46   16.70
   0   9  -1  394.76   14.90
   0   9   1  377.36   13.30
   0   9   1  399.66   13.60
   0   9   1  390.76   14.20
   1  -9   1  961.80   31.30
   1  -9   1  979.90   28.20
   1  -9   1  949.60   32.40
   1   9   1  930.91   28.20
  -1   9  -1  988.30   28.70
  -1   9  -1  957.00   28.60
  -1   9  -1  954.80   31.10
   1   9   1  934.11   28.10
  -2  -9  -1   60.19    5.50
   2  -9   1   50.09    5.90
   2  -9   1   39.90    7.20
   2  -9   1   59.59    5.90
  -2  -9  -1   64.79    5.50
   2  -9   1   60.59    8.30
   2   9   1   63.59    5.50
  -2   9  -1   58.99    5.90
  -2   9  -1   67.59   10.70
   2   9   1   67.59    5.70
  -2   9  -1   58.89    6.40
   3  -9   1   72.49    9.80
   3  -9   1   66.59    7.70
  -3  -9  -1   56.49    7.00
   3   9   1   70.59    6.70
  -3   9  -1   73.19    8.40
  -3   9  -1   61.69    7.60
  -3   9  -1   65.09    8.30
   3   9   1   69.39    6.90
   3 -10  -1   38.60    6.70
   3 -10  -1   51.09   10.00
  -3  10   1   50.79    7.20
   3  10  -1   36.40    5.60
  -3  10   1   45.80    7.20
   3  10  -1   56.49    6.40
  -3  10   1   38.90    7.30
   2 -10  -1  149.09    8.80
   2 -10  -1  162.98   12.40
  -2  10   1  166.78   10.90
  -2  10   1  163.18    9.70
  -2  10   1  153.58    9.40
   1 -10  -1  127.69   10.30
   1 -10  -1  126.19    8.40
   1 -10  -1  122.89    6.80
   1 -10  -1  132.89    7.30
  -1  10   1  133.79    8.70
  -1  10   1  130.69    7.30
  -1  10   1  134.39    7.40
   0 -10   1   31.50    6.10
   0 -10  -1   21.40    3.40
   0 -10  -1   30.40    6.20
   0  10  -1   22.40    3.80
   0  10   1   22.80    4.10
   0  10   1   19.70    3.40
   1 -10   1  220.18   12.80
   1 -10   1  227.78   11.40
  -1  10  -1  225.08    9.20
   1  10   1  211.38    8.90
  -1  10  -1  215.78    9.10
  -1  10  -1  209.68   11.30
   2 -10   1   85.89    8.90
   2 -10   1   75.39    8.20
   2 -10   1   91.99    6.90
   2 -10   1  101.19   11.40
   2  10   1  106.09    6.70
  -2  10  -1  106.19    9.10
  -2  10  -1  110.19    7.80
  -2  10  -1   99.39    7.50
   2  10   1   97.89    6.80
  -3 -10  -1   50.89    6.70
  -3 -10  -1   51.19    7.90
   3 -10   1   63.19    9.50
   3 -10   1   54.29    7.30
   3  10   1   67.09    7.10
  -3  10  -1   69.29    8.10
  -3  10  -1   47.70    8.20
   3  10   1   54.59    6.50
  -3  10  -1   53.09    7.40
   3 -11  -1    6.70    5.60
   3 -11  -1    6.60    3.40
  -3  11   1   -3.50    3.50
  -3  11   1   -2.30    3.90
  -3  11   1    4.80    4.10
   3  11  -1    3.60    3.20
   2 -11  -1   38.20    7.70
   2 -11  -1   37.90    5.70
   2 -11  -1   39.60    5.30
   2 -11  -1   35.70    6.60
  -2  11   1   38.20    6.20
  -2  11   1   39.50    5.90
  -2  11   1   29.80    4.90
   1 -11  -1  127.69   15.00
   1 -11  -1  115.89    6.80
   1 -11  -1  113.89    8.30
   1 -11  -1  111.09    6.20
  -1  11   1  111.39    6.90
  -1  11   1  106.39    8.50
  -1  11   1  108.59    8.30
   0 -11  -1  160.98   11.60
   0 -11   1  166.08   10.90
   0  11  -1  166.78    9.10
   0  11   1  169.08    8.60
   1 -11   1   48.90    7.10
   1 -11   1   37.30    5.80
  -1  11  -1   56.69    6.70
   2 -11   1  111.19   10.70
   2 -11   1  111.39    7.20
   2 -11   1  123.09   11.00
  -2  11  -1  120.89   10.00
  -2  11  -1  109.19    7.80
   2  11   1  103.19    6.80
   2  11   1  114.69   10.00
  -2  11  -1  115.29    8.10
   3 -11   1   99.79   11.60
   3 -11   1   94.79    8.60
  -3 -11  -1  112.29    7.70
  -3  11  -1  112.99   15.20
  -3  11  -1   96.99    9.40
  -3  11  -1  102.59   11.20
   3  11   1   94.69    8.50
   3  11   1  100.59    8.00
   2 -12  -1   82.89    6.70
   2 -12  -1   84.99   10.30
  -2  12   1   82.89    7.50
  -2  12   1   79.69    8.90
  -2  12   1   69.99    6.90
   1 -12  -1  123.59   10.80
   1 -12  -1  105.69    8.50
  -1  12   1  114.69    7.20
  -1  12   1  125.29    8.70
  -1  12   1   95.49   10.30
   0 -12  -1  195.88   13.20
   0 -12   1  184.38   12.30
   0  12   1  192.48    9.60
   0  12  -1  178.98    9.80
   1 -12   1   10.50    4.40
  -1  12  -1    3.50    3.30
   2 -12   1   78.99    6.80
   2 -12   1   78.39    6.00
   2 -12   1   85.19    9.90
  -2  12  -1   81.59    6.80
  -2  12  -1   78.19    8.80
  -2  12  -1   82.89    7.00
   2 -13  -1    6.50    5.30
   2 -13  -1    4.60    2.80
  -2  13   1    5.40    4.00
  -2  13   1    5.70    3.30
  -2  13   1    4.90    3.70
   1 -13  -1   98.39   10.50
   1 -13  -1   81.39    8.30
  -1  13   1   91.29    8.50
  -1  13   1   83.49    6.30
  -1  13   1   92.29    6.60
   0 -13  -1   21.10    6.10
   0 -13   1   16.60    5.50
   0  13  -1   13.00    3.50
   0  13   1   12.90    3.40
   1 -13   1   58.09    8.50
  -1  13  -1   53.09    7.10
   2 -13   1   47.00    8.70
  -2  13  -1   40.20    6.60
  -2  13  -1   33.40    5.40
  -2  13  -1   25.80    4.70
   1 -14  -1   59.39   10.00
   1 -14  -1  103.09   11.10
  -1  14   1   84.59    8.20
   0 -14   1  121.19   11.30
   0 -14  -1  123.19   11.70
   0  14  -1  117.19    8.40
   0  14   1  103.59    7.90
   1 -14   1   -0.40    4.20
  -1  14  -1    0.30    3.10
  -5   0   2  220.98   13.30
   5   0  -2  257.37   19.00
  -5   0   2  235.68   16.30
   5   0  -2  247.98   16.20
  -4   0   2   49.60    7.00
  -4   0   2   54.99    8.40
   4   0  -2   36.60    6.10
   4   0  -2   50.49    8.20
  -4   0   2   59.69    8.10
   4   0  -2   45.30    7.70
  -3   0   2   68.99    7.30
  -3   0   2   45.10    6.70
   3   0  -2   68.39    7.50
   3   0  -2   58.79    7.60
  -2   0   2  128.69    7.30
  -1   0  -2 2809.22   73.69
  -1   0  -2 2769.32   73.59
   1   0   2 2685.13   73.59
  -1   0  -2 2645.04   72.99
   2   0   2  563.24   18.70
  -2   0  -2  567.54   19.50
   2   0   2  585.84   19.90
  -2   0  -2  600.44   18.80
   2   0   2  583.34   19.90
  -2   0  -2  594.64   19.90
   3   0   2  166.88    9.20
  -3   0  -2  188.48   10.50
  -3   0  -2  196.78    9.80
   3   0   2  166.68   10.80
   3   0   2  167.58   10.50
  -3   0  -2  185.48   11.10
  -4   0  -2   30.00    5.90
  -4   0  -2   57.09    7.10
   4   0   2   39.40    7.50
   4   0   2   36.70    5.90
  -4   0  -2   46.10    7.50
   4   0   2   44.20    7.40
  -5  -1   2   83.09    8.80
   5  -1  -2   75.49   12.30
   5  -1  -2   93.39   11.50
  -5  -1   2   73.69   10.90
   5   1  -2  109.09    8.40
  -5   1   2   84.09   12.10
   5   1  -2   95.99   11.50
  -5   1   2   78.39    9.50
   5   1  -2   76.19   12.40
  -4  -1   2   71.59    7.30
   4  -1  -2   72.59    8.90
  -4  -1   2   79.19    9.20
   4  -1  -2   73.09   10.40
   4  -1  -2   78.99    8.60
  -4  -1   2   68.59    8.50
   4  -1  -2   63.09    7.40
  -4   1   2   92.89   11.10
   4   1  -2   71.09    7.00
  -4   1   2   84.29    8.20
   4   1  -2   69.89    8.60
  -4   1   2   67.19    8.20
   4   1  -2   79.69    9.30
  -3  -1   2   15.60    4.00
   3  -1  -2   22.30    5.60
  -3  -1   2   16.00    5.00
  -3  -1   2   16.50    3.80
   3  -1  -2   22.40    4.10
   3  -1  -2   22.20    4.50
   3  -1  -2   23.60    4.80
  -3   1   2   20.70    4.30
   3   1  -2   19.60    3.90
  -3   1   2   26.50    4.80
   3   1  -2   21.90    4.80
   3   1  -2   19.40    5.00
   2  -1  -2 1784.32   51.69
  -2  -1   2 1804.72   51.49
   2  -1  -2 1853.61   52.09
  -2  -1   2 1797.82   51.79
  -2  -1   2 1807.62   50.79
   2  -1  -2 1824.62   52.09
   2  -1  -2 1840.82   53.09
  -2   1   2 1828.62   51.69
  -2   1   2 1858.01   51.99
  -2   1   2 1842.92   52.09
   2   1  -2 1774.12   50.69
   2   1  -2 1801.42   51.69
   2   1  -2 1847.02   51.89
   1  -1  -2 2165.78   64.09
  -1  -1   2 2604.54   63.49
  -1  -1   2 2661.13   63.49
   1  -1  -2 2526.35   63.79
   1  -1  -2 2365.56   63.69
   1  -1  -2 2214.98   63.49
   1   1  -2 2163.58   62.99
  -1   1   2 2260.67   63.49
   1   1  -2 2252.57   63.49
   1   1  -2 2246.48   63.19
  -1  -1  -2 1749.92   47.70
  -1  -1  -2 1789.52   48.80
   1  -1   2 1807.12   48.80
   1  -1   2 1728.33   48.60
   1  -1   2 1779.82   48.70
  -1   1  -2 1792.52   48.80
   1   1   2 1716.73   48.70
  -1   1  -2 1823.42   48.80
  -1   1  -2 1754.92   48.60
   2  -1   2  756.12   25.40
  -2  -1  -2  769.22   23.70
   2  -1   2  710.63   24.50
  -2  -1  -2  754.92   25.00
  -2  -1  -2  803.82   25.30
   2  -1   2  724.13   25.40
  -2   1  -2  790.92   25.40
   2   1   2  801.12   23.90
   2   1   2  919.31   26.00
  -2   1  -2  840.92   24.90
   2   1   2  904.71   25.80
  -2   1  -2  814.22   25.70
   3  -1   2  440.66   16.70
   3  -1   2  440.66   18.10
   3  -1   2  427.76   17.80
  -3  -1  -2  442.76   17.50
  -3  -1  -2  429.16   17.80
  -3  -1  -2  447.16   15.70
   3   1   2  421.06   17.60
  -3   1  -2  420.06   17.90
   3   1   2  410.76   17.30
   3   1   2  406.56   15.40
  -3   1  -2  432.56   16.70
  -3   1  -2  410.46   17.30
  -4  -1  -2   41.00    6.20
   4  -1   2   35.10    6.90
  -4  -1  -2   40.20    7.40
  -4  -1  -2   28.00    6.00
   4  -1   2   36.80    6.90
  -4   1  -2   33.10    6.20
  -4   1  -2   44.20    6.80
   4   1   2   26.20    5.60
   4   1   2   27.60    7.80
   4   1   2   27.90    5.10
  -4   1  -2   26.10    5.40
  -4  -2   2   36.10    5.90
   4  -2  -2   38.80    7.50
  -4  -2   2   31.50    6.50
   4  -2  -2   27.50    5.70
   4  -2  -2   32.40    6.10
  -4  -2   2   34.80    6.50
   4  -2  -2   33.40    7.90
  -4   2   2   46.10    7.10
   4   2  -2   32.80    6.20
   4   2  -2   22.80    3.90
   4   2  -2   35.10    6.70
  -4   2   2   36.30    6.90
   3  -2  -2  306.17   16.10
   3  -2  -2  331.27   14.80
   3  -2  -2  317.77   14.40
  -3  -2   2  299.97   12.20
  -3  -2   2  316.47   14.50
  -3  -2   2  303.67   13.60
   3  -2  -2  284.57   13.80
  -3   2   2  331.97   14.80
   3   2  -2  302.57   12.30
  -3   2   2  318.07   14.10
   3   2  -2  301.37   14.40
   3   2  -2  291.47   13.80
  -3   2   2  297.17   14.00
   2  -2  -2  334.47   13.00
  -2  -2   2  308.37   12.20
  -2  -2   2  319.57   11.30
   2  -2  -2  294.57   12.80
  -2  -2   2  319.97   12.80
   2  -2  -2  341.17   14.20
   2  -2  -2  335.67   13.00
   2   2  -2  317.87   12.50
  -2   2   2  337.57   12.90
   2   2  -2  335.87   12.80
   2   2  -2  311.57   11.30
  -2   2   2  336.77   13.20
  -2   2   2  322.37   13.20
  -1  -2   2  535.15   15.60
   1  -2  -2  535.05   16.30
  -1  -2   2  527.35   15.60
   1  -2  -2  526.35   17.10
   1  -2  -2  542.95   16.60
   1   2  -2  508.95   15.60
  -1   2   2  523.15   16.40
   1   2  -2  541.65   15.50
  -1   2   2  520.35   16.40
   1   2  -2  503.35   15.60
   0  -2   2 1316.27   36.80
   0  -2  -2 1404.96   37.90
   0  -2  -2 1337.77   38.40
   0  -2  -2 1442.36   38.00
   0  -2  -2 1434.26   37.60
   0   2  -2 1385.36   36.90
   0   2   2 1375.96   38.00
   0   2   2 1381.16   37.50
   0   2   2 1400.66   38.60
   0   2   2 1390.76   38.00
   1  -2   2  179.08    7.50
   1  -2   2  192.38    7.50
  -1  -2  -2  189.88    7.30
  -1  -2  -2  182.78    7.20
   1  -2   2  187.58    7.40
  -1   2  -2  189.58    7.50
   1   2   2  175.08    7.20
  -1   2  -2  193.08    7.40
   1   2   2  177.78    7.30
  -1   2  -2  182.88    7.30
   2  -2   2  715.73   23.30
  -2  -2  -2  663.93   24.50
   2  -2   2  707.33   23.30
   2  -2   2  727.03   23.00
  -2  -2  -2  716.63   22.80
  -2  -2  -2  697.73   20.70
  -2   2  -2  695.23   22.60
   2   2   2  688.33   22.80
   2   2   2  705.63   22.80
  -2   2  -2  696.03   23.10
  -2   2  -2  694.13   22.90
  -3  -2  -2  130.19    9.10
   3  -2   2   85.59    9.20
  -3  -2  -2  115.99    8.30
  -3  -2  -2  107.29    6.70
   3  -2   2   89.59    8.80
   3  -2   2   96.99    8.00
   3   2   2   89.69    6.20
  -3   2  -2  100.99    9.40
   3   2   2  110.69    8.20
  -3   2  -2  100.49    8.80
  -3   2  -2  118.79    8.40
   3   2   2  117.09    8.80
   4  -2   2   74.29    9.10
   4  -2   2   77.09   10.10
   4  -2   2   84.79    8.60
  -4  -2  -2   90.39   11.10
  -4  -2  -2   83.99    7.10
   4   2   2   96.19    9.30
   4   2   2   76.89    9.10
  -4   2  -2   79.39    8.80
  -4   2  -2   66.59    9.40
  -4   2  -2   99.39    8.80
   4  -3  -2   77.79    9.10
   4  -3  -2   92.79   11.30
   4  -3  -2   72.79    8.60
   4  -3  -2   74.99    8.20
  -4  -3   2   71.29    9.30
   4   3  -2   81.69    9.00
  -4   3   2   71.09    8.20
   4   3  -2   55.69    6.00
  -4   3   2   62.89    8.50
   4   3  -2   74.09    8.70
  -3  -3   2  515.65   19.30
   3  -3  -2  535.45   20.40
  -3  -3   2  536.15   20.40
   3  -3  -2  514.65   20.30
   3  -3  -2  557.54   20.90
   3  -3  -2  506.05   22.50
  -3   3   2  565.94   20.90
  -3   3   2  509.45   20.10
   3   3  -2  494.25   17.50
  -3   3   2  509.15   20.20
   3   3  -2  523.45   20.10
   3   3  -2  522.05   20.00
   2  -3  -2  232.78   10.60
   2  -3  -2  214.08   10.60
   2  -3  -2  212.98   11.30
  -2  -3   2  226.58   10.30
   2  -3  -2  252.67   10.80
  -2  -3   2  219.38    9.50
  -2   3   2  238.08   10.80
   2   3  -2  254.17   10.50
  -2   3   2  233.88   11.00
  -2   3   2  236.38   10.40
   2   3  -2  248.48   10.20
   2   3  -2  223.08    8.50
   1  -3  -2   65.39    4.20
   1  -3  -2   65.49    4.60
  -1  -3   2   66.69    3.40
   1  -3  -2   63.79    4.70
  -1  -3   2   64.89    3.30
   1  -3  -2   72.19    4.40
   1   3  -2   62.59    3.40
  -1   3   2   60.39    4.40
  -1   3   2   64.19    4.20
  -1   3   2   61.39    4.40
   1   3  -2   61.29    3.40
  -1   3   2   62.19    4.30
   0  -3   2 4660.63  124.49
   0  -3  -2 4785.92  125.09
   0  -3  -2 4874.31  125.09
   0  -3  -2 4617.64  126.09
   0  -3  -2 4872.61  124.69
   0   3  -2 4097.39  124.69
   0   3   2 4798.32  124.69
   0   3   2 4805.62  125.19
   0   3  -2 4835.22  125.19
   0   3   2 4718.33  125.29
   0   3   2 4839.72  126.19
   1  -3   2  261.67   10.00
   1  -3   2  257.67    9.40
   1  -3   2  262.17    9.40
  -1  -3  -2  263.67    9.40
  -1  -3  -2  266.67    9.50
   1  -3   2  254.77    9.90
  -1   3  -2  268.07    9.50
  -1   3  -2  269.67    9.40
   1   3   2  269.27    9.60
  -1   3  -2  255.37    9.80
   1   3   2  253.87   10.30
   1   3   2  252.67    9.40
   2  -3   2 1330.57   40.40
  -2  -3  -2 1325.47   38.80
   2  -3   2 1293.57   39.20
  -2  -3  -2 1369.26   39.00
   2  -3   2 1361.56   39.60
   2   3   2 1314.57   38.80
  -2   3  -2 1255.37   38.90
   2   3   2 1311.17   38.90
  -2   3  -2 1287.47   39.30
  -2   3  -2 1285.77   39.00
   3  -3   2  343.17   15.30
  -3  -3  -2  311.97   14.50
   3  -3   2  333.17   15.70
   3  -3   2  340.67   16.10
  -3  -3  -2  336.67   12.30
   3  -3   2  335.77   17.10
  -3  -3  -2  373.56   15.60
  -3   3  -2  338.97   15.90
  -3   3  -2  360.66   15.30
   3   3   2  364.16   15.60
   3   3   2  346.57   15.50
  -3   3  -2  335.17   15.30
   4  -3   2   86.99   11.00
  -4  -3  -2  128.19   10.80
   4  -3   2  110.79   12.40
  -4  -3  -2  116.79    7.40
   4  -3   2   95.69    9.70
  -4   3  -2  105.79   10.80
  -4   3  -2  126.59   10.60
   4   3   2  111.39   10.40
   4   3   2  122.09   10.10
  -4   3  -2  114.29    9.70
   4  -4  -2  595.64   26.70
  -4  -4   2  525.25   22.10
   4  -4  -2  514.25   22.30
   4  -4  -2  559.94   23.60
   4   4  -2  569.54   22.70
  -4   4   2  522.55   22.50
   4   4  -2  530.45   22.20
   4   4  -2  487.25   18.20
  -4   4   2  502.35   22.20
  -4   4   2  550.94   23.60
   3  -4  -2  324.47   15.20
  -3  -4   2  323.27   14.10
   3  -4  -2  339.67   17.10
   3  -4  -2  323.57   15.10
   3  -4  -2  325.47   15.20
  -3  -4   2  318.37   15.30
  -3   4   2  348.07   15.70
   3   4  -2  330.47   15.00
   3   4  -2  327.47   14.40
  -3   4   2  330.87   15.30
  -3   4   2  321.27   14.80
  -2  -4   2   60.09    5.80
  -2  -4   2   60.09    4.90
   2  -4  -2   60.19    7.80
   2   4  -2   64.79    5.30
  -2   4   2   59.49    6.00
   2   4  -2   48.50    5.30
   1  -4  -2  301.57   10.80
   1  -4  -2  285.87   10.70
   1  -4  -2  303.37   12.00
   1  -4  -2  293.57   11.20
   1   4  -2  285.07    9.30
  -1   4   2  287.77   10.80
   1   4  -2  300.87   10.70
  -1   4   2  298.37   10.70
   0  -4  -2   11.90    2.00
   0  -4  -2    8.30    1.70
   0  -4  -2    8.60    2.20
   0  -4  -2    6.10    1.50
   0  -4   2    9.30    1.90
   0   4   2    8.50    1.80
   0   4  -2    8.70    1.70
   0   4   2    8.50    1.70
   0   4   2    7.60    1.50
   0   4   2   11.30    2.50
   0   4  -2    8.10    1.70
   1  -4   2  461.65   15.70
  -1  -4  -2  462.65   14.70
   1  -4   2  437.56   14.50
   1  -4   2  439.06   14.50
   1   4   2  442.96   14.70
   1   4   2  467.65   14.70
   1   4   2  477.35   19.90
  -1   4  -2  456.25   14.60
  -1   4  -2  445.56   15.50
   2  -4   2   82.39    7.80
   2  -4   2   93.99    7.50
  -2  -4  -2   98.49    6.70
   2  -4   2   82.59    6.90
  -2  -4  -2   91.29    6.50
   2  -4   2   87.19    6.80
  -2   4  -2   83.59    6.60
  -2   4  -2   80.09    6.60
  -2   4  -2   95.19    7.00
   2   4   2  102.99    6.30
   2   4   2   95.49    6.60
   3  -4   2  214.18   12.90
   3  -4   2  266.17   15.30
  -3  -4  -2  258.07   12.80
   3  -4   2  244.98   13.60
   3  -4   2  268.77   13.30
  -3   4  -2  226.88   12.50
  -3   4  -2  226.98   13.30
  -3   4  -2  255.87   12.80
   3   4   2  250.67   13.40
   3   4   2  243.08   12.70
  -4  -4  -2  811.22   30.20
   4  -4   2  831.52   31.60
   4  -4   2  815.32   31.50
   4  -4   2  848.62   35.00
  -4   4  -2  831.62   30.00
   4   4   2  795.72   30.00
  -4   4  -2  788.02   30.40
   4   4   2  815.02   30.50
  -4   4  -2  830.62   31.30
  -4  -5   2  115.79   10.20
   4  -5  -2  116.29   11.00
   4  -5  -2  113.59   12.70
  -4   5   2  115.39   10.90
  -4   5   2  114.99   10.30
   4   5  -2   99.59   10.30
   4   5  -2  106.79    9.70
  -4   5   2  109.79   10.20
  -3  -5   2  274.37   12.60
   3  -5  -2  282.27   14.00
   3  -5  -2  279.17   15.80
   3  -5  -2  280.37   13.90
  -3  -5   2  292.47   13.70
   3  -5  -2  294.47   14.40
   3   5  -2  259.77   13.00
  -3   5   2  316.07   14.80
  -3   5   2  283.27   13.70
  -3   5   2  264.87   13.90
   3   5  -2  276.17   13.60
  -2  -5   2  212.58    9.10
  -2  -5   2  196.38    9.50
   2  -5  -2  217.78   11.80
   2  -5  -2  216.38   10.40
   2  -5  -2  239.48   10.50
   2  -5  -2  222.78   10.90
  -2   5   2  222.18   10.70
   2   5  -2  185.78    9.40
  -2   5   2  209.68   10.80
  -2   5   2  228.38   10.50
   2   5  -2  200.28    9.40
   1  -5  -2  119.39    6.20
   1  -5  -2  128.09    6.60
   1  -5  -2  122.09    7.60
   1  -5  -2  111.39    7.00
  -1   5   2  124.39    7.10
  -1   5   2  132.19    7.20
  -1   5   2  128.49    6.60
   1   5  -2  124.49    6.40
  -1   5   2  125.09    6.40
   0  -5  -2 6784.82  190.38
   0  -5  -2 7170.28  188.18
   0  -5   2 6997.30  188.68
   0  -5  -2 7629.44  188.28
   0  -5  -2 7170.88  188.28
   0   5   2 7138.99  187.98
   0   5  -2 6620.04  188.28
   0   5  -2 7357.86  188.78
   0   5   2 7183.58  189.68
   0   5   2 7086.99  188.58
   0   5   2 7191.68  190.78
  -1  -5  -2   78.09    4.70
   1  -5   2   67.39    5.20
  -1  -5  -2   74.89    4.60
   1  -5   2   64.99    5.30
   1  -5   2   64.09    4.40
   1  -5   2   58.79    4.40
   1   5   2   62.19    4.40
  -1   5  -2   62.69    4.80
  -1   5  -2   57.69    5.10
  -1   5  -2   53.09    4.50
  -1   5  -2   56.89    5.90
   1   5   2   57.09    5.10
   1   5   2   64.79    4.40
  -2  -5  -2   78.29    5.90
  -2  -5  -2   98.89    6.60
   2  -5   2   76.19    6.80
   2  -5   2   78.49    7.30
   2  -5   2   72.09    6.60
   2  -5   2   85.99    7.00
  -2   5  -2   69.29    6.30
   2   5   2   84.99    6.30
  -2   5  -2   65.29    6.70
  -2   5  -2   82.09    6.90
   2   5   2   77.89    5.80
   3  -5   2   47.70    7.50
   3  -5   2   58.49    7.40
   3  -5   2   54.59    8.70
  -3  -5  -2   59.99    7.30
  -3   5  -2   49.80   10.10
   3   5   2   55.99    8.00
  -3   5  -2   49.70    6.90
  -3   5  -2   56.59    7.50
   3   5   2   60.69    6.40
  -4  -5  -2  152.28   11.50
   4  -5   2  145.79   12.60
   4  -5   2  158.68   14.60
  -4   5  -2  165.48   11.50
  -4   5  -2  148.39   11.40
  -4   5  -2  138.19   12.10
   4   5   2  153.18   11.60
   4   5   2  152.78   11.10
   4  -6  -2   24.70    7.80
   4  -6  -2   19.30    5.90
  -4  -6   2   15.60    5.30
   4   6  -2   18.90    4.70
  -4   6   2   22.60    5.90
  -4   6   2   20.10    5.10
  -4   6   2   14.00    4.30
   4   6  -2   26.00    6.00
   3  -6  -2  224.08   17.60
  -3  -6   2  212.48   10.60
   3  -6  -2  229.18   12.70
  -3  -6   2  220.08   11.50
   3   6  -2  224.98   11.10
  -3   6   2  226.18   12.30
   3   6  -2  212.88   11.60
  -3   6   2  224.88   13.10
  -3   6   2  247.28   13.70
  -2  -6   2  745.83   22.80
   2  -6  -2  730.93   24.60
  -2  -6   2  692.93   22.60
   2  -6  -2  712.83   26.50
   2  -6  -2  730.63   24.50
   2  -6  -2  752.02   25.60
   2   6  -2  756.62   23.10
  -2   6   2  748.13   24.60
   2   6  -2  710.73   22.70
  -2   6   2  750.72   25.40
  -2   6   2  745.53   24.80
   1  -6  -2  643.24   22.50
   1  -6  -2  641.64   21.10
   1  -6  -2  628.44   20.10
   1  -6  -2  632.24   20.10
   1   6  -2  627.54   18.80
  -1   6   2  640.74   21.00
   1   6  -2  586.14   20.40
  -1   6   2  644.14   20.30
  -1   6   2  631.24   20.30
   0  -6  -2  168.88    7.10
   0  -6  -2  171.08    9.10
   0  -6   2  173.18    9.00
   0  -6  -2  177.38    7.10
   0  -6  -2  177.58    7.30
   0   6  -2  167.98    7.50
   0   6   2  170.58    7.90
   0   6   2  163.08    8.70
   0   6  -2  174.98    7.70
   0   6   2  177.88    7.40
   0   6   2  175.48    7.30
  -1  -6  -2  151.08    6.90
   1  -6   2  151.78    8.10
   1  -6   2  151.58    6.80
  -1  -6  -2  146.49    6.90
   1  -6   2  148.89    8.10
   1  -6   2  143.29    6.70
  -1   6  -2  159.08    7.30
   1   6   2  161.68    7.20
   1   6   2  150.78    7.10
  -1   6  -2  158.78    6.90
  -1   6  -2  164.78    8.50
   2  -6   2   28.60    5.00
   2  -6   2   28.20    5.70
   2  -6   2   27.30    5.00
  -2  -6  -2   36.70    4.20
   2  -6   2   34.00    5.50
   2   6   2   37.70    4.70
  -2   6  -2   33.20    5.00
  -2   6  -2   33.50    5.80
   2   6   2   41.50    5.00
  -2   6  -2   22.90    4.40
   3  -6   2  118.89   10.90
  -3  -6  -2  125.59    9.00
   3  -6   2  113.89   11.00
   3  -6   2   97.09    9.00
   3   6   2  112.29    8.60
   3   6   2  105.39    7.90
  -3   6  -2   95.49    8.50
  -3   6  -2  101.39    9.40
  -3   6  -2  115.19    9.50
   4  -6   2  169.18   13.40
  -4  -6  -2  152.38   12.00
   4  -6   2  180.78   15.40
  -4   6  -2  176.18   12.70
  -4   6  -2  151.58   11.90
   4   6   2  168.58   12.10
   4   6   2  172.38   11.60
  -4   6  -2  177.08   13.10
   4  -7  -2   44.00    9.90
  -4  -7   2   18.80    5.00
   4  -7  -2   34.50    6.60
  -4   7   2   29.30    6.40
   4   7  -2   28.00    6.00
  -4   7   2   24.30    6.30
   4   7  -2   29.80    6.20
  -4   7   2   15.60    5.40
  -3  -7   2  130.49    8.30
   3  -7  -2  161.58   10.60
   3  -7  -2  173.88   12.90
  -3  -7   2  143.29    9.00
  -3   7   2  149.19   10.30
  -3   7   2  147.29   10.70
   3   7  -2  125.69   13.20
   3   7  -2  147.09    8.80
  -3   7   2  139.49   10.50
   2  -7  -2  104.19    8.30
   2  -7  -2   99.49    8.90
   2  -7  -2  119.79    7.90
  -2  -7   2   94.79    8.30
   2  -7  -2  116.19    7.80
  -2   7   2   94.79    8.30
   2   7  -2   83.09    5.70
  -2   7   2   98.99    7.40
   2   7  -2   87.49    6.40
  -2   7   2   98.09    7.80
   1  -7  -2  628.54   21.00
   1  -7  -2  615.44   22.60
   1  -7  -2  567.34   22.80
   1  -7  -2  613.74   19.70
   1   7  -2  620.34   18.50
  -1   7   2  609.14   19.90
  -1   7   2  628.34   20.80
  -1   7   2  616.34   20.00
   1   7  -2  547.45   20.00
   0  -7   2  258.17   11.00
   0  -7  -2  271.37   12.50
   0  -7  -2  271.07   10.00
   0  -7  -2  267.37    9.70
   0  -7  -2  271.97    9.80
   0   7   2  268.67   10.00
   0   7   2  264.57   10.00
   0   7  -2  244.68   10.50
   0   7   2  233.98   10.60
   0   7  -2  257.97   10.40
   1  -7   2  315.57   11.00
   1  -7   2  298.97   15.20
   1  -7   2  312.57   13.20
   1  -7   2  288.67   10.70
  -1  -7  -2  303.57   11.30
  -1  -7  -2  304.07   11.30
   1   7   2  325.87   11.70
  -1   7  -2  325.07   11.20
  -1   7  -2  321.57   13.10
  -1   7  -2  319.77   11.40
  -1   7  -2  299.17   12.60
   1   7   2  313.67   11.60
   2  -7   2  198.38    9.90
  -2  -7  -2  205.48    9.50
   2  -7   2  182.58    9.60
   2  -7   2  182.58   10.90
   2  -7   2  167.28   10.60
   2   7   2  186.68    9.30
   2   7   2  179.98    9.10
  -2   7  -2  181.78   10.70
  -2   7  -2  169.78    9.40
  -2   7  -2  177.68    9.90
   3  -7   2   51.69    6.50
   3  -7   2   42.90    6.80
  -3  -7  -2   53.99    6.90
   3  -7   2   58.59    9.20
   3  -7   2   44.40    7.40
  -3  -7  -2   49.90    6.60
  -3   7  -2   61.69    8.10
  -3   7  -2   44.70    7.20
  -3   7  -2   40.90    6.60
   3   7   2   44.00    6.20
   3   7   2   42.70    6.10
   4  -7   2   51.89    9.60
   4  -7   2   54.99   10.60
  -4  -7  -2   48.40    7.50
  -4   7  -2   62.89   10.30
   4   7   2   57.69    8.00
   4   7   2   53.69    8.10
  -4   7  -2   70.59    8.40
  -4   7  -2   53.69    8.70
   4  -8  -2   16.50    7.30
  -4  -8   2   16.80    5.60
   4  -8  -2   16.20    5.70
   4   8  -2   16.70    5.10
   4   8  -2   16.80    4.70
  -4   8   2    9.40    5.60
  -4   8   2    6.20    4.80
  -4   8   2    9.90    6.60
  -3  -8   2  290.77   12.70
   3  -8  -2  302.67   17.70
   3  -8  -2  323.57   15.40
   3  -8  -2  307.47   15.10
   3  -8  -2  290.77   15.70
   3   8  -2  284.07   12.90
   3   8  -2  319.47   13.70
  -3   8   2  325.27   16.00
  -3   8   2  306.17   14.90
  -3   8   2  307.07   15.50
   2  -8  -2  764.12   25.80
   2  -8  -2  760.52   28.60
   2  -8  -2  735.93   25.40
   2  -8  -2  789.82   27.20
  -2   8   2  753.82   26.10
  -2   8   2  726.33   25.50
  -2   8   2  749.82   26.70
   1  -8  -2 1483.65   43.70
   1  -8  -2 1497.35   46.00
   1  -8  -2 1444.86   42.10
   1  -8  -2 1523.35   42.50
  -1   8   2 1448.46   42.30
  -1   8   2 1455.65   43.40
   1   8  -2 1430.16   40.80
   1   8  -2 1307.97   45.90
  -1   8   2 1463.55   42.50
   0  -8  -2   17.90    3.40
   0  -8   2   19.70    4.10
   0  -8  -2   14.70    3.00
   0  -8  -2   18.70    3.10
   0  -8  -2   19.00    4.20
   0   8  -2   17.90    3.50
   0   8   2   15.40    2.90
   0   8  -2   21.40    3.90
   0   8   2   20.60    3.40
  -1  -8  -2  274.97   10.80
   1  -8   2  277.57   12.60
   1  -8   2  285.17   10.50
   1  -8   2  297.07   13.40
  -1  -8  -2  277.57   10.90
   1   8   2  276.47   11.60
   1   8   2  289.67   11.20
  -1   8  -2  291.67   10.70
  -1   8  -2  298.07   11.00
  -1   8  -2  299.97   13.20
   2  -8   2  144.99   10.60
  -2  -8  -2  139.09    8.20
   2  -8   2  140.69    8.40
   2  -8   2  153.48    8.80
  -2  -8  -2  157.58    8.40
   2  -8   2  141.69    9.90
  -2   8  -2  139.79    8.60
  -2   8  -2  163.68   10.50
   2   8   2  150.48    8.30
  -2   8  -2  140.39    9.10
   2   8   2  157.98    8.50
   3  -8   2   48.70    7.50
   3  -8   2   37.70    6.60
  -3  -8  -2   47.20    5.90
   3  -8   2   53.89    8.60
  -3  -8  -2   35.50    6.80
   3   8   2   49.60    6.60
  -3   8  -2   48.00    6.80
  -3   8  -2   65.09    8.30
   3   8   2   57.89    6.70
  -3   8  -2   54.89    7.40
   4  -8   2   49.30   10.10
  -4  -8  -2   40.70    6.90
   4  -8   2   36.80    9.10
  -4   8  -2   42.70    8.30
   4   8   2   46.00    7.40
  -4   8  -2   47.50    8.90
   4   8   2   51.09    8.70
  -4   8  -2   36.10    6.80
  -4  -9   2   18.40    5.60
  -4   9   2   28.50    6.50
   3  -9  -2  109.69   11.20
   3  -9  -2  100.79    9.10
  -3   9   2  104.99   10.00
   3   9  -2  101.29    7.20
  -3   9   2  108.89    9.70
  -3   9   2   99.89    9.20
   3   9  -2  109.39    8.00
   2  -9  -2  173.88   11.10
   2  -9  -2  221.48   13.60
   2  -9  -2  231.48   17.20
  -2   9   2  222.68   11.10
  -2   9   2  246.38   14.70
   1  -9  -2  116.79    8.10
   1  -9  -2  111.99    7.10
   1  -9  -2  106.99    6.70
   1  -9  -2  124.19    9.70
   1   9  -2  102.49    6.10
  -1   9   2  109.89    7.20
  -1   9   2  129.99    7.60
  -1   9   2  106.09    8.00
   0  -9  -2 1552.94   48.30
   0  -9   2 1504.75   46.10
   0  -9  -2 1548.55   43.40
   0  -9  -2 1523.75   44.00
   0  -9  -2 1492.25   43.20
   0   9   2 1521.15   45.00
   0   9   2 1555.84   43.90
   0   9   2 1524.95   43.90
   0   9  -2 1509.75   44.70
  -1  -9  -2  163.48    7.70
  -1  -9  -2  164.78    7.60
   1  -9   2  159.08   10.10
   1  -9   2  171.28    9.70
  -1   9  -2  163.28    7.60
  -1   9  -2  168.28    7.80
  -1   9  -2  157.38   10.00
   1   9   2  175.48    8.00
   1   9   2  179.58    9.50
  -2  -9  -2   44.20    5.10
   2  -9   2   36.80    5.10
   2  -9   2   36.60    6.90
  -2  -9  -2   40.40    5.40
   2  -9   2   41.90    5.40
   2   9   2   49.90    5.60
  -2   9  -2   46.30    6.00
  -2   9  -2   60.49    7.30
   2   9   2   54.69    5.70
  -2   9  -2   52.39    5.70
  -3  -9  -2  143.29    9.80
   3  -9   2  144.79   10.30
   3  -9   2  142.19   12.10
   3   9   2  146.09    9.60
  -3   9  -2  141.69   11.00
  -3   9  -2  131.99   11.20
   3   9   2  156.58    9.60
  -3   9  -2  145.59   12.00
   3 -10  -2  125.39   12.90
   3 -10  -2  137.29   10.00
  -3  10   2  127.19   11.10
   3  10  -2  138.39    8.20
   3  10  -2  104.69    7.50
  -3  10   2  115.49    9.70
  -3  10   2  128.49   10.90
   2 -10  -2   65.29    7.40
   2 -10  -2   71.79    9.40
  -2  10   2   77.09    7.10
  -2  10   2   62.59    7.50
  -2  10   2   69.69    6.90
   1 -10  -2  136.19    7.60
   1 -10  -2  128.49   10.50
   1 -10  -2  136.19    8.80
   1 -10  -2  128.69    7.20
  -1  10   2  130.59    8.00
  -1  10   2  132.69    7.70
  -1  10   2  119.79    8.50
   0 -10  -2  205.88   12.80
   0 -10  -2  207.08    9.30
   0 -10   2  203.28   11.50
   0 -10  -2  208.78    9.00
   0  10  -2  206.18   10.20
   0  10   2  205.68    9.40
   0  10   2  197.08    8.90
  -1 -10  -2  443.36   15.40
   1 -10   2  470.25   19.40
   1  10   2  473.35   16.10
   1  10   2  458.25   16.00
  -1  10  -2  454.45   15.30
  -1  10  -2  458.85   18.50
   2 -10   2  219.38   13.40
   2 -10   2  201.58    9.80
   2 -10   2  210.88   12.80
  -2 -10  -2  204.48    9.70
   2 -10   2  171.18   10.00
  -2 -10  -2  202.18    9.80
  -2  10  -2  203.58   10.40
   2  10   2  211.28   13.60
  -2  10  -2  215.48   10.70
   2  10   2  199.68   10.10
  -2  10  -2  211.48   12.60
   3 -10   2   31.60    5.50
   3 -10   2   41.60    8.70
  -3 -10  -2   37.80    6.50
   3  10   2   37.90    6.50
   3  10   2   34.10    6.50
  -3  10  -2   46.50    7.60
  -3  10  -2   34.90    6.20
   3 -11  -2   33.10    8.70
   3 -11  -2   21.90    4.90
  -3  11   2   27.30    5.90
  -3  11   2   23.30    6.20
  -3  11   2   19.90    5.10
   2 -11  -2  146.19   10.60
   2 -11  -2  134.39    9.10
   2 -11  -2  136.49    8.60
   2 -11  -2  136.29   12.00
  -2  11   2  129.79    9.10
  -2  11   2  134.29   10.40
  -2  11   2  138.29    9.10
   1 -11  -2  175.98   10.30
   1 -11  -2  176.88    8.90
   1 -11  -2  172.38   12.10
   1 -11  -2  168.38    8.40
  -1  11   2  173.08   10.30
  -1  11   2  165.78    9.00
  -1  11   2  171.58    9.20
   0 -11  -2   22.50    4.40
   0 -11  -2   26.30    7.30
   0 -11   2   27.20    5.70
   0  11   2   21.20    3.50
   0  11  -2   30.20    4.80
   0  11   2   21.20    3.80
   1 -11   2   94.99    8.80
   1  11   2   93.59    6.10
  -1  11  -2   98.29    8.00
   1  11   2   91.79    6.00
   2 -11   2  281.17   11.90
   2 -11   2  288.27   16.20
  -2  11  -2  294.07   15.60
   2  11   2  314.67   12.80
   2  11   2  253.57   12.30
  -2  11  -2  299.57   12.90
  -2  11  -2  291.27   12.90
   3 -11   2   19.00    4.60
  -3 -11  -2   16.70    4.40
   3 -11   2   35.70    8.10
  -3  11  -2   18.50    5.20
  -3  11  -2   24.70    5.30
   3  11   2   24.20    5.30
  -3  11  -2   21.60    6.90
   3  11   2   26.60    5.50
   2 -12  -2   11.40    3.60
   2 -12  -2   17.00    6.20
  -2  12   2   14.50    4.30
  -2  12   2   10.60    4.30
  -2  12   2    8.50    3.60
   1 -12  -2   30.80    4.20
   1 -12  -2   44.80    8.00
   1 -12  -2   44.90    6.20
  -1  12   2   44.60    7.80
  -1  12   2   39.60    5.10
  -1  12   2   48.60    5.30
   0 -12  -2   10.20    5.00
   0 -12  -2    4.10    2.30
   0 -12   2   11.10    4.90
   0  12  -2   11.20    3.20
   0  12   2    5.80    2.60
   0  12   2   10.50    2.80
   0  12   2    9.60    2.80
   1 -12   2   96.49    9.90
  -1  12  -2  100.59    8.60
   1  12   2   93.59    6.10
   1  12   2   95.69    6.00
   2 -12   2   90.39    9.90
  -2  12  -2   95.19    7.20
  -2  12  -2  102.29   10.00
  -2  12  -2   92.79    7.10
   2  12   2   94.29    7.00
   2  12   2   89.69    6.80
   2 -13  -2   70.19    6.60
   2 -13  -2   88.69   11.30
  -2  13   2   83.39    9.40
  -2  13   2   90.39    8.10
  -2  13   2  103.69    8.60
   1 -13  -2   47.50    8.00
  -1  13   2   56.39    5.80
  -1  13   2   57.39    7.30
  -1  13   2   61.19    5.90
   0 -13   2  339.97   19.90
   0 -13  -2  346.87   18.90
   0  13  -2  335.37   14.90
   0  13   2  336.07   13.00
   0  13   2  338.77   13.90
   1 -13   2   50.69    7.70
  -1  13  -2   49.99    7.20
   2 -13   2   20.90    6.30
  -2  13  -2    7.20    3.30
   2  13   2    4.50    3.00
  -2  13  -2   12.90    4.70
  -2  13  -2    9.10    4.00
   1 -14  -2  163.78   12.30
   1 -14  -2  191.08   14.60
  -1  14   2  181.78    9.80
  -1  14   2  184.08   11.30
  -1  14   2  182.98   10.00
   0 -14   2   30.20    6.80
   0 -14  -2   36.10    8.70
   0  14  -2   17.90    7.40
   0  14   2   32.50    5.20
   1 -14   2   37.20    7.80
  -1  14  -2   29.40    5.70
  -5   0   3   47.80    9.30
   5   0  -3   43.90   10.20
   5   0  -3   43.60    8.30
   4   0  -3  439.16   19.50
  -4   0   3  467.75   20.40
  -4   0   3  443.96   18.40
   4   0  -3  438.36   20.00
   4   0  -3  447.36   22.30
  -4   0   3  424.96   19.00
   4   0  -3  433.26   18.20
  -3   0   3 1567.24   48.30
   3   0  -3 1618.14   49.00
   3   0  -3 1602.84   49.30
  -3   0   3 1648.94   47.90
   3   0  -3 1600.74   47.70
  -3   0   3 1638.14   49.00
   2   0  -3 1225.68   36.40
  -2   0   3 1253.97   37.20
  -2   0   3 1215.68   35.90
   2   0  -3 1188.88   35.70
  -2   0   3 1227.58   36.20
   2   0  -3 1225.18   36.40
   1   0  -3 2389.96   66.99
  -1   0   3 2459.55   66.99
   1   0  -3 2366.96   66.89
   1   0  -3 2547.95   67.19
  -1   0   3 2420.76   66.89
  -1   0   3 2493.15   67.09
   1   0  -3 2631.74   67.39
   0   0  -3  153.08    5.70
   0   0   3  150.88    5.70
   0   0  -3  151.78    5.20
   0   0  -3  145.49    5.70
   0   0   3  139.39    5.60
   0   0   3  151.28    5.80
   1   0   3  934.71   27.80
  -1   0  -3  972.10   27.90
   1   0   3  978.10   28.10
  -1   0  -3  946.21   27.90
  -1   0  -3  981.50   27.50
   2   0   3 1874.31   52.89
   2   0   3 1807.92   52.79
  -2   0  -3 1843.42   52.59
  -2   0  -3 1764.32   51.89
  -2   0  -3 1885.41   52.69
  -3   0  -3  350.66   15.30
  -3   0  -3  302.87   14.40
  -3   0  -3  335.57   13.40
   3   0   3  317.47   15.10
   3   0   3  305.67   14.50
   4   0   3  131.19   11.30
  -4   0  -3  137.39   10.80
  -4   0  -3  147.59    9.50
   4   0   3  127.29   10.60
   4  -1  -3  148.19   11.00
   4  -1  -3  145.39   10.30
  -4  -1   3  157.48    9.80
  -4  -1   3  147.09   10.40
   4  -1  -3  157.58   11.40
  -4  -1   3  164.18   11.80
   4  -1  -3  147.39   13.60
  -4   1   3  147.49   16.50
   4   1  -3  139.59   11.10
   4   1  -3  162.68   11.80
  -4   1   3  162.48   11.10
  -4   1   3  136.79   15.60
   4   1  -3  148.49    9.40
   3  -1  -3  240.58   12.60
   3  -1  -3  234.38   13.90
  -3  -1   3  237.58   11.60
  -3  -1   3  261.27   12.90
  -3  -1   3  225.98   11.10
   3  -1  -3  240.68   12.30
   3  -1  -3  229.78   11.80
   3   1  -3  239.08   12.20
  -3   1   3  270.97   13.20
  -3   1   3  243.08   12.20
  -3   1   3  236.98   12.00
   3   1  -3  238.58   11.50
   3   1  -3  236.38   12.30
  -2  -1   3 4045.60  111.39
   2  -1  -3 4217.98  113.49
   2  -1  -3 4093.09  111.59
   2  -1  -3 4005.70  111.79
   2  -1  -3 3988.00  111.89
  -2  -1   3 4073.39  112.79
  -2  -1   3 4155.98  111.59
   2   1  -3 4034.00  110.79
   2   1  -3 4181.78  111.69
  -2   1   3 4227.68  111.79
   2   1  -3 4067.79  111.59
  -2   1   3 4174.28  111.99
  -2   1   3 4216.88  111.99
   1  -1  -3 4061.99  101.89
   1  -1  -3 3751.22  101.69
  -1  -1   3 3799.82  101.19
   1  -1  -3 3772.62  101.59
  -1  -1   3 3814.12  101.19
   1  -1  -3 3927.41  102.19
   1   1  -3 3594.34  100.99
   1   1  -3 3877.41  101.39
  -1   1   3 3667.73  101.99
  -1   1   3 3678.43  101.69
  -1   1   3 3694.23  101.59
  -1   1   3 3948.00  101.79
   1   1  -3 3736.23  101.19
   0  -1  -3 6696.43  173.18
   0  -1   3 6294.67  172.58
   0  -1  -3 6702.93  173.18
   0  -1  -3 6659.13  173.18
   0   1  -3 6402.86  172.58
   0   1   3 6509.75  173.08
   0   1  -3 6607.14  172.68
   0   1   3 6541.95  173.18
   0   1   3 6643.34  173.18
   1  -1   3   73.89    4.50
  -1  -1  -3   86.79    4.90
   1  -1   3   72.19    4.60
  -1  -1  -3   79.39    4.60
  -1   1  -3   80.49    4.50
   1   1   3   69.49    4.50
  -1   1  -3   88.59    4.80
   1   1   3   74.59    4.70
  -1   1  -3   88.59    4.70
  -2  -1  -3  172.78    8.80
  -2  -1  -3  184.48    7.70
  -2  -1  -3  184.08    9.10
   2   1   3  153.38    8.50
   2   1   3  169.28    9.00
  -2   1  -3  162.18    8.70
  -2   1  -3  180.98    9.20
  -2   1  -3  176.88    8.30
   3  -1   3   72.59    6.40
   4  -1   3    6.80    4.40
  -4  -1  -3    3.80    3.20
  -4  -1  -3    7.00    4.30
   4  -1   3    8.40    3.30
   4  -1   3    1.10    3.40
  -4   1  -3    8.50    4.50
  -4   1  -3    9.20    4.00
  -4   1  -3    4.40    4.10
   4   1   3   10.50    4.40
   4   1   3    9.80    4.20
  -4  -2   3  164.68   15.50
   4  -2  -3  159.48   11.40
   4  -2  -3  171.78   12.20
  -4  -2   3  172.98   12.20
   4  -2  -3  169.28   14.30
  -4  -2   3  170.08   10.00
   4  -2  -3  155.08   13.90
   4   2  -3  160.38   11.30
   4   2  -3  160.08   11.70
   4   2  -3  153.68    9.40
  -4   2   3  166.78   11.30
  -4   2   3  161.18   11.10
  -4   2   3  163.08   12.20
   3  -2  -3   38.20    7.80
  -3  -2   3   43.80    7.00
   3  -2  -3   55.49    6.80
  -3  -2   3   44.30    5.20
   3  -2  -3   64.19    7.20
  -3  -2   3   44.30    6.10
  -3   2   3   66.29    7.70
   3   2  -3   44.20    5.00
   3   2  -3   43.80    6.20
  -3   2   3   50.99    6.10
   2  -2  -3  519.85   19.60
   2  -2  -3  528.55   18.50
  -2  -2   3  521.35   17.60
   2  -2  -3  545.75   18.60
  -2  -2   3  536.15   18.00
   2  -2  -3  502.35   18.30
  -2   2   3  553.84   18.50
   2   2  -3  520.85   17.80
   2   2  -3  524.45   17.10
  -2   2   3  538.35   18.60
  -2   2   3  525.75   18.50
   2   2  -3  518.75   17.80
   1  -2  -3  154.78    6.80
  -1  -2   3  170.98    6.10
   1  -2  -3  168.18    6.90
   1  -2  -3  164.78    6.90
  -1  -2   3  166.58    6.10
  -1   2   3  139.49    6.70
   1   2  -3  136.99    5.90
  -1   2   3  146.59    6.70
  -1   2   3  143.69    6.90
   1   2  -3  136.49    5.80
  -1   2   3  138.09    6.60
   0  -2  -3 1986.70   54.89
   0  -2  -3 2033.20   53.99
   0  -2   3 1949.41   53.39
   0  -2  -3 2061.59   54.49
   0  -2   3 1883.51   53.29
   0  -2  -3 1988.10   54.39
   0   2  -3 2012.90   53.39
   0   2  -3 2031.30   53.39
   0   2   3 1976.80   54.49
   0   2   3 2020.20   54.89
   0   2   3 2019.10   54.49
  -1  -2  -3   99.59    5.10
   1  -2   3   77.79    4.60
  -1  -2  -3   87.49    4.90
   1  -2   3   81.99    4.80
  -1   2  -3   82.49    4.70
   1   2   3   84.89    4.90
   1   2   3   80.49    4.70
  -1   2  -3   78.79    4.60
  -1   2  -3   82.59    4.80
   2  -2   3  302.47   12.60
   2  -2   3  316.07   13.00
   2  -2   3  318.47   13.20
  -2  -2  -3  313.77   12.70
  -2  -2  -3  322.17   11.00
  -2  -2  -3  347.27   13.20
  -2   2  -3  309.67   12.80
   2   2   3  315.27   12.70
  -2   2  -3  306.87   13.00
   2   2   3  329.37   13.20
  -2   2  -3  326.37   12.70
  -3  -2  -3  764.22   23.60
   3  -2   3  720.63   26.30
  -3  -2  -3  756.22   26.30
   3  -2   3  771.52   25.90
  -3  -2  -3  755.02   26.10
   3  -2   3  767.62   27.10
  -3   2  -3  728.63   26.20
  -3   2  -3  731.33   26.60
   3   2   3  750.42   26.30
  -3   2  -3  738.03   25.60
   3   2   3  726.33   26.40
  -4  -2  -3   23.90    4.20
   4  -2   3   19.90    5.60
  -4  -2  -3   22.50    5.50
   4  -2   3   10.20    6.90
   4   2   3   27.60    6.00
   4   2   3   16.80    6.50
  -4   2  -3   23.60    4.80
  -4   2  -3   22.50    6.10
  -4   2  -3   22.40    5.30
   4  -3  -3   32.80    6.70
   4  -3  -3   28.40    5.60
   4  -3  -3   39.50    8.50
   4  -3  -3   17.40    5.30
  -4  -3   3   26.10    6.10
   4   3  -3   23.90    5.30
  -4   3   3   18.40    5.50
   4   3  -3   16.50    3.70
  -4   3   3   24.20    5.80
  -4   3   3   24.70    5.20
   4   3  -3   30.80    6.60
   3  -3  -3  299.67   14.10
  -3  -3   3  268.27   12.60
   3  -3  -3  296.67   15.60
  -3  -3   3  288.37   13.50
   3  -3  -3  282.67   13.90
   3  -3  -3  275.47   14.00
  -3   3   3  322.37   14.50
   3   3  -3  283.27   13.50
  -3   3   3  257.97   13.90
   3   3  -3  286.17   11.70
  -3   3   3  284.27   13.70
   3   3  -3  280.57   13.10
   2  -3  -3  327.97   14.30
  -2  -3   3  345.67   12.90
   2  -3  -3  401.36   14.30
   2  -3  -3  369.76   14.20
  -2  -3   3  358.26   13.20
   2  -3  -3  362.56   15.20
   2   3  -3  340.77   13.10
   2   3  -3  357.66   12.30
   2   3  -3  340.67   13.10
  -2   3   3  325.37   14.30
  -2   3   3  363.36   14.20
  -2   3   3  383.86   14.30
  -1  -3   3  184.88    6.50
   1  -3  -3  180.28    8.40
  -1  -3   3  177.68    6.50
   1  -3  -3  185.18    7.80
   1  -3  -3  178.48    7.70
  -1   3   3  185.88    7.80
  -1   3   3  184.38    8.30
  -1   3   3  182.78    8.00
  -1   3   3  171.68    7.90
   1   3  -3  176.28    6.50
   1   3  -3  177.98    6.60
   0  -3  -3 5604.24  142.29
   0  -3  -3 5422.66  142.79
   0  -3  -3 5447.85  142.79
   0  -3  -3 4892.71  143.99
   0   3  -3 5381.96  141.29
   0   3  -3 5256.77  141.19
   0   3   3 5503.15  143.79
   0   3   3 5437.56  142.19
   0   3   3 5380.46  142.89
   0   3   3 5433.86  142.89
  -1  -3  -3 1109.69   32.30
  -1  -3  -3 1076.89   32.30
   1  -3   3 1096.99   32.00
   1  -3   3 1108.19   31.90
   1  -3   3 1112.49   32.50
   1   3   3 1139.09   32.90
  -1   3  -3 1182.68   32.10
   1   3   3 1105.79   32.30
   1   3   3 1083.89   33.30
  -1   3  -3 1171.68   33.30
   2  -3   3  423.06   17.50
   2  -3   3  423.96   16.00
  -2  -3  -3  418.76   17.20
   2  -3   3  411.26   17.40
  -2  -3  -3  428.36   15.70
  -2   3  -3  425.86   15.70
  -2   3  -3  404.36   15.70
  -2   3  -3  416.36   15.60
   2   3   3  427.46   15.90
   2   3   3  410.06   15.40
   3  -3   3  319.27   15.20
   3  -3   3  337.57   15.10
   3  -3   3  326.67   15.60
  -3  -3  -3  341.17   15.20
  -3  -3  -3  293.67   14.30
  -3   3  -3  340.77   15.70
   3   3   3  329.77   14.90
  -3   3  -3  325.77   15.10
  -3   3  -3  355.76   15.10
   3   3   3  343.67   15.50
  -4  -3  -3  252.67   11.20
  -4  -3  -3  263.47   20.20
   4  -3   3  270.37   14.60
   4  -3   3  255.97   17.90
   4  -3   3  278.77   16.20
  -4   3  -3  268.57   14.50
  -4   3  -3  247.68   15.50
  -4   3  -3  227.68   14.30
   4   3   3  269.47   15.50
   4   3   3  283.27   15.50
   4  -4  -3   56.09    9.90
   4  -4  -3   39.70    8.80
   4  -4  -3   46.10    8.50
  -4  -4   3   46.20    8.60
  -4   4   3   62.39    8.20
   4   4  -3   46.50    5.40
   4   4  -3   54.79    8.70
  -4   4   3   55.49    9.00
   4   4  -3   46.80    8.40
   3  -4  -3  224.68   12.10
   3  -4  -3  240.58   14.20
  -3  -4   3  197.78   15.30
   3  -4  -3  209.98   12.10
   3  -4  -3  213.28   12.20
  -3  -4   3  212.98   10.80
  -3   4   3  210.58   12.30
   3   4  -3  212.58   11.40
   3   4  -3  210.88    9.30
  -3   4   3  235.18   12.60
  -3   4   3  218.98   11.70
   3   4  -3  200.18   11.10
   2  -4  -3  136.89    8.50
  -2  -4   3  132.09    7.00
   2  -4  -3  126.89    8.90
  -2  -4   3  128.09    6.60
   2  -4  -3  130.29    7.80
   2  -4  -3  132.99    9.00
  -2   4   3  130.59    7.90
  -2   4   3  134.99    8.20
   2   4  -3  126.19    7.10
  -2   4   3  132.29    8.30
   2   4  -3  130.09    6.10
   2   4  -3  131.59    6.90
   1  -4  -3  339.97   12.70
   1  -4  -3  350.96   12.40
   1  -4  -3  354.46   12.40
   1  -4  -3  332.87   13.40
   1   4  -3  323.57   10.60
   1   4  -3  330.87   10.50
  -1   4   3  354.06   12.50
  -1   4   3  347.47   13.70
  -1   4   3  346.47   12.80
  -1   4   3  345.57   12.40
   0  -4  -3  784.52   22.70
   0  -4   3  733.63   21.50
   0  -4  -3  766.62   22.70
   0  -4  -3  752.12   23.90
   0  -4  -3  775.22   22.10
   0   4   3  770.82   22.00
   0   4  -3  792.32   22.90
   0   4   3  726.63   23.80
   0   4   3  760.82   22.70
   0   4   3  761.32   22.80
   0   4  -3  718.03   21.30
   1  -4   3 4586.04  122.29
  -1  -4  -3 4609.34  121.69
   1  -4   3 4578.14  121.09
   1  -4   3 4603.34  121.19
   1   4   3 4423.36  121.59
   1   4   3 4164.08  122.99
  -1   4  -3 4667.93  121.09
  -1   4  -3 4653.23  121.29
   1   4   3 4537.35  121.79
  -1   4  -3 4509.75  122.39
   2  -4   3  216.38   10.70
  -2  -4  -3  221.98   10.20
   2  -4   3  216.78   11.50
   2  -4   3  218.98   10.50
  -2  -4  -3  231.78   12.20
   2  -4   3  213.58   10.80
   2   4   3  206.88   10.00
  -2   4  -3  220.88   10.80
  -2   4  -3  229.98   10.50
  -2   4  -3  226.68   10.70
   2   4   3  225.58   10.60
   3  -4   3   61.99    8.50
   3  -4   3   59.29    8.90
  -3  -4  -3  100.39    8.40
   3  -4   3   71.09    7.60
  -3   4  -3   86.39    8.20
  -3   4  -3   89.49    8.50
   3   4   3   83.49    7.60
  -3   4  -3   90.89    8.20
   3   4   3   85.99    8.00
   4  -4   3  109.19   13.10
   4  -4   3   92.59   11.30
  -4  -4  -3   95.19   10.40
  -4   4  -3   90.99   10.70
   4   4   3  108.69   10.40
   4   4   3  109.99    9.70
  -4   4  -3  116.39    9.80
  -4   4  -3   97.39    9.80
   4  -5  -3   24.60    7.50
   4  -5  -3   20.20    6.10
  -4   5   3   18.80    5.40
   4   5  -3   12.90    4.90
  -4   5   3   20.80    5.70
   4   5  -3   28.30    6.30
  -4   5   3   19.60    5.70
   3  -5  -3  360.66   18.20
  -3  -5   3  344.27   14.70
   3  -5  -3  340.97   15.70
   3  -5  -3  349.67   15.90
  -3  -5   3  344.67   14.30
   3  -5  -3  345.37   16.20
   3   5  -3  357.06   15.00
  -3   5   3  342.17   16.10
  -3   5   3  341.37   15.40
   3   5  -3  331.67   12.30
   3   5  -3  341.77   14.60
  -3   5   3  348.97   16.20
  -2  -5   3  463.05   16.80
   2  -5  -3  449.46   18.60
   2  -5  -3  442.46   16.90
  -2  -5   3  461.85   15.10
   2  -5  -3  469.55   17.70
   2  -5  -3  450.95   16.90
  -2   5   3  443.66   17.00
   2   5  -3  439.06   15.40
  -2   5   3  432.76   16.90
   2   5  -3  438.56   16.00
  -2   5   3  445.56   17.50
   2   5  -3  447.36   14.40
   1  -5  -3  454.05   15.60
   1  -5  -3  454.95   15.50
   1  -5  -3  451.65   17.20
   1  -5  -3  449.76   15.90
  -1   5   3  442.66   16.80
   1   5  -3  461.65   15.10
  -1   5   3  470.95   16.10
  -1   5   3  449.56   15.60
  -1   5   3  444.66   15.60
   0  -5  -3  679.93   22.60
   0  -5  -3  683.23   20.80
   0  -5  -3  694.73   20.40
   0  -5  -3  678.73   20.80
   0  -5   3  664.23   20.10
   0   5   3  683.93   20.30
   0   5   3  660.83   22.40
   0   5   3  661.03   20.90
   0   5  -3  653.13   19.90
   0   5  -3  703.73   21.30
   0   5   3  683.33   20.90
   1  -5   3  269.37    9.90
  -1  -5  -3  291.87   10.90
   1  -5   3  267.67   10.80
  -1  -5  -3  313.57   10.90
   1  -5   3  277.07   10.10
  -1   5  -3  285.17   10.30
  -1   5  -3  270.17   11.40
  -1   5  -3  302.37   12.70
   1   5   3  271.57   10.70
   1   5   3  263.97   10.60
   1   5   3  257.27   12.10
   2  -5   3  963.00   31.90
  -2  -5  -3  963.10   30.90
  -2  -5  -3  928.31   30.20
   2  -5   3  965.00   30.40
   2  -5   3  988.50   31.70
   2  -5   3  981.60   30.80
  -2   5  -3 1004.30   30.60
  -2   5  -3  970.30   31.30
  -2   5  -3  991.50   30.80
   2   5   3  991.40   30.70
   2   5   3  950.10   30.40
   3  -5   3  271.87   14.20
   3  -5   3  284.97   16.00
  -3  -5  -3  285.47   13.70
   3  -5   3  283.57   14.40
  -3   5  -3  256.87   19.50
  -3   5  -3  260.17   13.70
  -3   5  -3  279.37   14.40
   3   5   3  268.27   13.80
   3   5   3  253.17   13.10
  -4  -5  -3   24.00    6.00
   4  -5   3   25.50    7.10
   4  -5   3   24.20    8.10
  -4   5  -3   25.40    6.10
  -4   5  -3   25.60    6.00
   4   5   3   27.00    6.00
  -4   5  -3   33.30    5.70
   4   5   3   27.60    6.50
   4  -6  -3   93.39   12.00
  -4  -6   3   74.89    9.10
   4  -6  -3   98.99    9.80
   4   6  -3   59.19    9.50
  -4   6   3   72.19    9.60
   4   6  -3   77.99    9.00
  -4   6   3   79.19    9.90
  -4   6   3   83.09    9.00
  -3  -6   3  320.07   14.30
  -3  -6   3  320.27   13.80
   3  -6  -3  352.46   18.10
   3  -6  -3  342.07   15.90
  -3   6   3  334.97   15.60
  -3   6   3  346.77   16.30
   3   6  -3  353.76   14.70
  -3   6   3  339.07   16.20
   3   6  -3  327.17   14.20
   2  -6  -3  271.67   12.40
  -2  -6   3  270.77   10.40
   2  -6  -3  275.67   14.20
  -2  -6   3  273.47   10.20
   2  -6  -3  277.07   13.10
   2  -6  -3  266.67   12.30
   2   6  -3  268.67   10.60
  -2   6   3  288.27   12.80
  -2   6   3  285.87   13.50
  -2   6   3  279.97   12.60
   2   6  -3  276.77   10.80
   1  -6  -3  125.69    8.70
   1  -6  -3  127.49    7.10
   1  -6  -3  128.19    7.70
   1  -6  -3  135.39    7.10
  -1   6   3  123.49    7.70
   1   6  -3  123.29    6.50
  -1   6   3  145.79    7.40
  -1   6   3  139.19    7.20
   0  -6   3  355.56   12.30
   0  -6  -3  354.46   12.40
   0  -6  -3  348.27   14.50
   0  -6  -3  342.17   12.40
   0  -6  -3  363.96   12.20
   0   6   3  354.66   12.00
   0   6  -3  350.36   12.70
   0   6   3  331.87   15.90
   0   6  -3  319.07   11.80
   0   6   3  359.86   12.70
   0   6   3  365.56   12.60
   1  -6   3  119.19    7.00
  -1  -6  -3  124.59    6.70
  -1  -6  -3  121.89    6.40
   1  -6   3  105.69    5.90
   1  -6   3  107.69    5.70
  -1   6  -3  116.39    5.90
   1   6   3  120.39    6.60
  -1   6  -3  112.09    6.30
  -1   6  -3  116.09    7.40
   1   6   3  117.39    6.50
   2  -6   3  195.18   10.20
  -2  -6  -3  189.58    9.40
   2  -6   3  180.18   10.40
   2  -6   3  186.78   10.90
  -2  -6  -3  203.28    9.80
   2  -6   3  184.28    9.50
   2   6   3  187.28    9.60
  -2   6  -3  171.48   10.40
  -2   6  -3  188.58   10.20
   2   6   3  196.08    9.70
  -2   6  -3  180.38    9.60
   3  -6   3  370.16   20.40
   3  -6   3  392.86   19.50
  -3  -6  -3  366.76   20.30
  -3  -6  -3  403.56   17.10
   3  -6   3  408.76   20.00
   3  -6   3  403.86   17.80
  -3   6  -3  412.76   17.40
   3   6   3  407.86   17.20
  -3   6  -3  394.46   17.60
  -3   6  -3  411.46   18.10
  -4  -6  -3   57.79    9.20
   4  -6   3   56.39   10.80
   4  -6   3   49.30    9.30
  -4   6  -3   51.79    8.20
   4   6   3   58.99    8.30
   4   6   3   61.79    8.60
  -4   6  -3   62.59    9.10
  -4   6  -3   46.60    8.00
   4  -7  -3   23.30    5.90
   4  -7  -3   29.40    8.60
  -4  -7   3   26.00    5.70
  -4   7   3   24.90    6.00
   4   7  -3   25.50    5.40
   4   7  -3   30.10    5.30
  -4   7   3   22.60    6.00
  -4   7   3   21.40    6.30
  -3  -7   3   59.89    6.30
   3  -7  -3   64.99    7.90
  -3  -7   3   51.99    5.90
   3  -7  -3   66.39    9.60
  -3   7   3   66.59    8.20
   3   7  -3   60.69    9.70
  -3   7   3   61.09    7.40
  -3   7   3   73.79    8.20
   3   7  -3   62.79    6.20
   2  -7  -3  533.05   19.30
   2  -7  -3  521.25   20.00
   2  -7  -3  488.15   21.10
   2  -7  -3  514.15   18.90
  -2   7   3  524.75   19.50
   2   7  -3  483.65   16.30
  -2   7   3  486.85   19.80
  -2   7   3  471.45   18.80
   2   7  -3  516.25   16.60
   1  -7  -3  384.76   15.10
   1  -7  -3  401.86   14.40
   1  -7  -3  395.46   16.90
   1  -7  -3  390.96   14.50
   1   7  -3  384.66   13.30
  -1   7   3  387.86   14.40
  -1   7   3  382.56   14.50
  -1   7   3  385.46   15.20
   1   7  -3  359.36   14.40
   0  -7  -3   38.20    3.90
   0  -7  -3   35.10    3.80
   0  -7  -3   29.30    5.30
   0  -7  -3   31.10    3.70
   0  -7   3   31.70    3.90
   0   7   3   33.00    4.00
   0   7   3   31.70    3.70
   0   7  -3   34.10    3.60
   0   7  -3   33.50    4.10
   0   7   3   32.30    3.80
   1  -7   3  106.69    7.00
   1  -7   3   90.59    5.40
  -1  -7  -3   99.49    6.20
  -1  -7  -3  112.39    6.30
  -1   7  -3   98.79    5.60
  -1   7  -3  101.99    6.10
   1   7   3  105.89    6.30
  -1   7  -3  100.09    7.30
   1   7   3  101.19    6.30
  -1   7  -3   95.39    6.50
   2  -7   3   16.80    4.30
   2  -7   3   28.70    5.60
   2  -7   3   16.50    4.00
   2  -7   3   18.80    3.90
  -2   7  -3   21.50    4.30
  -2   7  -3   21.00    4.20
  -2   7  -3   19.50    3.90
   3  -7   3   83.29    8.00
   3  -7   3  101.99    9.10
   3  -7   3  117.99   10.00
  -3  -7  -3   99.89    8.60
  -3  -7  -3   92.59    7.80
   3  -7   3   97.49   12.40
   3   7   3   92.69    8.30
  -3   7  -3   99.19    9.30
  -3   7  -3   97.09    8.40
  -3   7  -3  109.89    9.50
   3   7   3   90.29    8.00
   4  -7   3   12.70    6.80
  -4   7  -3   14.60    5.90
  -4   7  -3   22.30    8.50
   4   7   3   12.90    5.10
  -4   7  -3   19.30    4.90
   4  -8  -3  118.69   11.00
  -4  -8   3   98.59    9.40
   4  -8  -3  148.59   14.60
  -4   8   3  121.29   11.70
   4   8  -3  109.99    9.00
   4   8  -3  108.79    9.90
  -4   8   3  116.19   12.10
  -3  -8   3  103.79    7.20
   3  -8  -3  106.59    9.20
  -3  -8   3   92.49    6.70
   3  -8  -3  128.29   11.60
   3  -8  -3   97.89    9.70
   3  -8  -3  106.19   11.50
  -3   8   3  103.49    9.20
  -3   8   3  110.79    9.80
   3   8  -3  101.89    7.10
   3   8  -3  109.89    7.80
  -3   8   3  114.09    9.20
   2  -8  -3  143.39    9.30
   2  -8  -3  144.09   11.30
   2  -8  -3  148.99    9.10
   2  -8  -3  128.49    9.80
  -2   8   3  158.68   10.00
  -2   8   3  154.68    9.50
  -2   8   3  128.39   10.00
   1  -8  -3  842.82   26.60
   1  -8  -3  831.12   30.00
   1  -8  -3  874.41   27.90
   1  -8  -3  883.51   26.70
  -1   8   3  838.82   26.80
   1   8  -3  787.42   26.80
   1   8  -3  817.62   27.40
  -1   8   3  829.42   27.50
  -1   8   3  844.82   26.90
   0  -8   3  140.49    7.80
   0  -8  -3  141.79    7.30
   0  -8  -3  144.89    7.20
   0  -8  -3  138.69    7.20
   0  -8  -3  146.19    9.80
   0   8   3  141.49    7.30
   0   8  -3  143.59    7.80
   0   8  -3  126.09    8.10
   0   8   3  137.39    7.20
   0   8   3  146.59    7.60
   1  -8   3   53.39    5.90
  -1  -8  -3   58.79    4.90
  -1  -8  -3   60.69    5.10
   1   8   3   56.09    4.90
  -1   8  -3   41.30    4.80
   1   8   3   50.79    5.00
  -1   8  -3   38.40    4.40
  -1   8  -3   44.50    6.50
  -1   8  -3   52.89    6.30
   2  -8   3  136.19   10.10
  -2  -8  -3  145.19    8.50
   2  -8   3  132.89    8.20
  -2  -8  -3  141.99    8.60
   2  -8   3  119.99    9.20
   2  -8   3  136.99    8.60
   2   8   3  158.58    8.80
  -2   8  -3  132.19    8.20
  -2   8  -3  135.79    8.70
  -2   8  -3  145.69   10.70
   2   8   3  142.79    8.50
   3  -8   3  114.79   10.90
   3  -8   3  103.69    9.10
  -3  -8  -3   89.69    8.30
   3  -8   3   75.29   11.60
  -3   8  -3  114.89    9.90
   3   8   3  107.59    8.60
  -3   8  -3  103.39    9.00
  -3   8  -3  111.69    9.30
   3   8   3  103.99    8.60
  -4  -8  -3   40.20    7.50
   4  -8   3   35.40   10.00
   4  -8   3   47.40    9.80
   4   8   3   38.10    7.10
  -4   8  -3   36.30    7.10
  -4   8  -3   22.90    6.30
   4   8   3   52.39    9.00
  -4   8  -3   39.70    7.70
   3  -9  -3  126.79    9.80
   3  -9  -3  157.68   13.60
  -3  -9   3  106.89    7.10
  -3   9   3  127.89   10.00
   3   9  -3  108.49    7.40
  -3   9   3  146.09   11.00
   3   9  -3  119.69    8.10
  -3   9   3  122.89   10.90
   2  -9  -3  142.39    9.00
   2  -9  -3  153.88   12.10
  -2   9   3  144.39    9.10
  -2   9   3  148.59    9.70
   1  -9  -3  158.08   11.60
   1  -9  -3  158.68    8.70
   1  -9  -3  156.88    9.30
   1  -9  -3  156.78    8.60
   1   9  -3  141.79    7.50
  -1   9   3  146.59    8.80
  -1   9   3  152.28    9.30
  -1   9   3  148.39    8.60
   0  -9  -3 2071.19   62.09
   0  -9  -3 2058.49   57.29
   0  -9  -3 2015.40   57.09
   0  -9  -3 2024.30   57.09
   0  -9   3 2051.09   58.89
   0   9  -3 1835.42   57.89
   0   9   3 2071.59   57.79
   0   9   3 2032.30   57.09
   0   9   3 2038.30   57.49
   0   9  -3 2097.69   58.49
  -1  -9  -3   95.39    6.30
   1  -9   3   87.39    7.50
  -1  -9  -3   80.59    5.90
   1   9   3   86.29    6.30
  -1   9  -3   89.89    7.70
   1   9   3   89.69    6.30
  -2  -9  -3   10.50    3.80
  -2  -9  -3    8.80    3.10
   2  -9   3    8.80    2.80
   2  -9   3    4.10    2.90
   2  -9   3    8.90    4.40
  -2   9  -3    6.90    3.20
   2   9   3   10.10    3.60
   2   9   3    7.70    5.40
  -2   9  -3    7.40    3.70
  -2   9  -3    9.40    2.90
   3  -9   3   44.20    7.60
  -3  -9  -3   30.40    5.70
   3  -9   3   41.60    8.00
  -3   9  -3   48.90    7.60
  -3   9  -3   30.50   10.20
  -3   9  -3   53.39    8.40
   3   9   3   53.59    7.00
   3   9   3   43.00    6.80
   3 -10  -3   50.19    9.80
   3 -10  -3   48.70    7.30
  -3  10   3   54.19    8.60
  -3  10   3   45.50    8.20
  -3  10   3   41.10    7.60
   2 -10  -3   46.30    7.80
   2 -10  -3   48.50    5.90
   2 -10  -3   48.90    6.20
   2 -10  -3   46.20    8.30
  -2  10   3   44.10    6.20
  -2  10   3   45.00    6.20
  -2  10   3   54.69    7.30
   1 -10  -3   53.59    5.30
   1 -10  -3   50.59    5.80
   1 -10  -3   42.70    5.60
   1 -10  -3   44.20    7.70
  -1  10   3   52.19    5.50
   1  10  -3   50.29    4.90
  -1  10   3   56.69    5.80
  -1  10   3   50.89    6.30
   0 -10  -3   49.20    7.70
   0 -10   3   41.10    5.90
   0 -10  -3   34.50    4.60
   0 -10  -3   44.00    4.80
   0 -10  -3   44.50    4.50
   0  10   3   49.30    4.80
   0  10  -3   44.00    5.70
   0  10   3   41.10    4.70
   1 -10   3  208.78   11.70
  -1 -10  -3  193.58    9.20
  -1 -10  -3  206.08    9.40
  -1  10  -3  209.68   11.50
   1  10   3  203.58    9.60
   1  10   3  207.68    9.70
   2 -10   3  285.17   12.30
   2 -10   3  307.17   15.90
  -2 -10  -3  307.37   13.10
  -2  10  -3  312.07   13.40
   2  10   3  287.67   13.20
  -2  10  -3  294.27   12.90
   2  10   3  310.47   13.40
  -2  10  -3  310.67   15.60
   3 -10   3   20.00    4.60
   3 -10   3   33.10    7.60
  -3 -10  -3   13.00    7.80
  -3  10  -3   21.40    5.50
   3  10   3   26.10    5.40
  -3  10  -3   17.30    5.00
   3  10   3   26.90    5.00
  -3  10  -3   28.50    6.60
   3 -11  -3    3.60    5.00
   3 -11  -3    8.40    3.70
  -3  11   3   -3.00    3.60
  -3  11   3    4.10    6.20
  -3  11   3    6.80    5.70
   2 -11  -3  127.89    8.90
   2 -11  -3  152.38   10.70
   2 -11  -3  134.89   12.40
   2 -11  -3  136.69   10.90
  -2  11   3  133.79    9.30
  -2  11   3  142.39    9.70
  -2  11   3  137.99   10.40
   1 -11  -3   59.79    6.60
   1 -11  -3   54.29    6.00
   1 -11  -3   56.29    8.30
   1 -11  -3   57.29    5.50
  -1  11   3   61.99    6.20
  -1  11   3   60.19    5.90
  -1  11   3   61.89    6.80
   1  11  -3   56.59    5.20
   0 -11  -3   41.20    4.80
   0 -11  -3   39.10    4.30
   0 -11  -3   45.60    7.70
   0 -11   3   44.10    6.20
   0 -11  -3   37.10    7.00
   0  11  -3   40.30    5.60
   0  11   3   38.30    4.90
   0  11   3   41.70    4.80
  -1 -11  -3  240.48   10.60
  -1 -11  -3  244.58   10.40
   1 -11   3  248.28   13.30
   1  11   3  256.27   11.20
   1  11   3  254.47   11.40
  -1  11  -3  253.87   17.70
  -2 -11  -3   40.80    5.60
   2 -11   3   48.60    8.10
   2 -11   3   37.30    4.60
  -2 -11  -3   36.40    5.70
  -2  11  -3   39.70    7.30
  -2  11  -3   44.60    5.90
  -2  11  -3   38.10    5.50
   2  11   3   37.00    5.80
   2  11   3   41.20    5.80
  -3 -11  -3   26.20    6.00
   3 -11   3   28.00    5.50
   3 -11   3   34.60    8.00
   3  11   3   23.30    5.40
   3  11   3   34.50    6.00
  -3  11  -3   25.50    6.30
  -3  11  -3   31.60    5.70
  -3  11  -3   34.70    6.60
   2 -12  -3    3.80    5.10
   2 -12  -3    9.70    5.40
  -2  12   3    1.50    3.40
  -2  12   3    0.10    3.60
  -2  12   3    6.70    3.60
   1 -12  -3   38.70    5.80
   1 -12  -3   30.80    7.30
   1 -12  -3   25.90    4.50
   1 -12  -3   27.90    5.30
  -1  12   3   36.70    5.20
  -1  12   3   38.50    5.30
  -1  12   3   25.00    7.60
   0 -12   3   37.60    6.60
   0 -12  -3   40.30    7.80
   0 -12  -3   35.70    4.70
   0 -12  -3   35.60    4.70
   0  12   3   29.60    4.70
   0  12   3   34.50    4.90
   0  12   3   34.40    4.90
   0  12  -3   33.70    5.50
  -1 -12  -3  116.79    7.30
   1 -12   3  129.99   10.10
  -1  12  -3  130.19    9.80
   1  12   3  154.28   12.10
   1  12   3  133.39    8.00
  -2 -12  -3   95.29    7.00
   2 -12   3   89.49    9.50
   2  12   3   83.89    7.20
   2  12   3   82.79    6.80
  -2  12  -3   78.59    7.00
  -2  12  -3   89.09    9.60
   2 -13  -3  118.39   12.00
   2 -13  -3   87.29    7.70
  -2  13   3   87.59    9.80
  -2  13   3   79.49    8.30
  -2  13   3   95.19    8.60
   1 -13  -3   15.20    3.90
   1 -13  -3   17.50    3.60
   1 -13  -3   24.10    6.90
   1 -13  -3    7.50    4.00
  -1  13   3   21.40    5.00
  -1  13   3   17.80    4.10
  -1  13   3   19.80    4.00
   0 -13  -3   14.00    3.30
   0 -13  -3   35.30    7.70
   0 -13   3   27.90    6.10
   0  13   3   19.20    3.60
   0  13  -3   19.30    4.00
   0  13   3   28.80    4.70
   0  13   3   24.50    4.40
   1 -13   3   87.69    9.10
   1  13   3   86.49    6.50
   1  13   3   80.29    6.30
  -1  13  -3   97.49    8.60
   2 -13   3   14.80    5.40
  -2  13  -3    6.30    4.80
  -2  13  -3    6.00    2.90
   2  13   3    5.10    3.40
   1 -14  -3   10.60    5.70
   1 -14  -3   29.30    7.80
  -1  14   3   30.10    4.90
  -1  14   3   22.00    4.70
  -1  14   3   24.30    4.70
   0 -14  -3   63.59    9.90
   0  14  -3   71.69    7.20
   0  14   3   46.10    5.50
   0  14   3   58.99    6.00
   1 -14   3  133.89   11.30
  -1  14  -3  132.89   10.80
   4   0  -4   64.39    7.50
   4   0  -4   71.99   10.30
  -4   0   4   87.39    9.20
  -4   0   4   81.29    9.50
   4   0  -4   68.19    8.60
  -4   0   4   76.39    9.20
   4   0  -4   96.19    9.90
  -3   0   4  256.67   12.60
   3   0  -4  277.47   12.70
   3   0  -4  263.57   13.30
   3   0  -4  258.97   14.40
   3   0  -4  261.17   13.10
  -3   0   4  259.77   12.40
  -3   0   4  271.57   13.40
   2   0  -4 3173.78   87.29
   2   0  -4 3117.49   87.59
   2   0  -4 3206.88   87.79
  -2   0   4 3137.29   87.59
  -2   0   4 3211.48   87.39
   2   0  -4 3256.87   88.79
   1   0  -4 1109.99   32.50
   1   0  -4 1144.29   32.80
  -1   0   4 1145.69   32.70
   1   0  -4 1144.99   32.70
   1   0  -4 1189.98   33.00
  -1   0   4 1120.79   32.70
   0   0  -4 9826.12  253.77
   0   0  -4 9999.00  254.67
   0   0   4 9592.14  254.57
   0   0   4 9602.34  254.57
   0   0  -4 9543.65  254.57
   0   0   4 9459.65  253.77
   1   0   4 4361.86  122.39
  -1   0  -4 4651.43  122.49
  -1   0  -4 4685.33  122.59
   2   0   4  663.63   22.40
  -2   0  -4  647.54   21.00
  -2   0  -4  692.33   22.50
   2   0   4  638.54   22.10
  -3   0  -4   98.39    7.10
  -3   0  -4   85.79    7.70
  -3   0  -4   95.09    8.30
   3   0   4   71.69    7.90
   3   0   4   78.89    7.30
   4   0   4   77.79    8.80
   4   0   4   82.19    9.50
  -4   0  -4   91.09    9.80
  -4   0  -4   76.69    7.70
   4  -1  -4  121.59   10.70
   4  -1  -4  147.29   13.20
  -4  -1   4  131.89   11.20
  -4  -1   4  137.99    9.50
   4  -1  -4  109.19   10.20
   4  -1  -4  159.88   11.50
  -4   1   4  120.69   10.20
   4   1  -4  146.59   10.80
  -4   1   4  140.89   13.60
   4   1  -4  141.39   10.90
  -4   1   4  139.69   10.10
   4   1  -4  147.59   12.70
   4   1  -4  123.99    9.30
  -3  -1   4  316.37   14.70
  -3  -1   4  325.57   13.60
   3  -1  -4  339.67   15.10
   3  -1  -4  315.57   16.40
   3  -1  -4  319.77   14.30
  -3  -1   4  322.77   14.20
   3  -1  -4  335.97   15.00
  -3   1   4  325.87   14.40
  -3   1   4  332.87   15.30
   3   1  -4  333.07   14.80
   3   1  -4  320.87   13.60
  -3   1   4  322.37   14.50
   3   1  -4  312.97   14.60
   2  -1  -4  549.35   19.10
   2  -1  -4  544.65   20.30
  -2  -1   4  598.14   19.10
  -2  -1   4  600.44   19.30
   2  -1  -4  585.44   19.20
   2  -1  -4  582.24   19.50
   2   1  -4  561.24   19.10
  -2   1   4  542.35   19.30
   2   1  -4  543.95   18.50
   2   1  -4  530.95   18.80
  -2   1   4  535.95   19.00
  -2   1   4  542.85   19.20
   1  -1  -4  531.85   17.00
  -1  -1   4  537.95   16.50
  -1  -1   4  514.45   16.40
   1  -1  -4  522.65   17.00
   1  -1  -4  547.35   17.20
   1  -1  -4  540.05   17.10
   1   1  -4  541.45   16.40
  -1   1   4  532.25   17.10
   1   1  -4  533.75   16.40
   1   1  -4  550.44   16.90
  -1   1   4  535.65   16.90
  -1   1   4  516.05   17.00
  -1   1   4  511.25   16.90
   1   1  -4  544.75   16.70
   0  -1  -4 2512.35   66.99
   0  -1  -4 2482.35   66.89
   0  -1  -4 2471.25   66.69
   0  -1   4 2391.16   66.39
   0   1   4 2448.46   66.99
   0   1   4 2428.36   66.69
   0   1   4 2479.25   67.09
   0   1  -4 2446.66   66.49
   0   1  -4 2520.45   66.49
   1  -1   4 2277.87   63.29
  -1  -1  -4 2307.07   63.39
  -1  -1  -4 2298.27   63.49
   1  -1   4 2151.38   62.99
  -1   1  -4 2463.75   63.49
   1   1   4 2194.48   63.29
   1   1   4 2321.97   63.59
  -1   1  -4 2390.06   63.29
  -2  -1  -4   83.29    9.70
  -2   1  -4   70.79    9.10
  -3  -1  -4  197.98   11.20
  -3  -1  -4  214.08   11.90
   3  -1   4  203.68   12.10
  -3  -1  -4  212.58   10.00
   3  -1   4  199.18   11.30
   3   1   4  205.28   11.50
  -3   1  -4  201.38   11.50
   3   1   4  203.58   11.80
  -3   1  -4  206.38   11.90
  -3   1  -4  209.98   10.70
  -4  -1  -4  186.88   13.00
   4  -1   4  182.08   13.10
  -4  -1  -4  195.78   10.70
  -4   1  -4  182.88   12.90
   4   1   4  182.88   12.80
   4   1   4  178.08   12.40
  -4   1  -4  191.68   13.10
  -4   1  -4  191.18   13.00
   4  -2  -4   41.50    7.10
   4  -2  -4   59.59   10.10
   4  -2  -4   60.89    8.50
   4  -2  -4   45.90    7.80
  -4  -2   4   69.09    9.00
   4   2  -4   54.19    8.00
   4   2  -4   49.40    7.50
   4   2  -4   45.30    6.10
  -4   2   4   66.09    9.00
  -4   2   4   48.70    7.60
  -4   2   4   46.50    7.70
   3  -2  -4  128.59    9.20
  -3  -2   4  103.19    7.90
   3  -2  -4   94.99    8.30
  -3  -2   4  132.89    9.30
   3  -2  -4  119.49    8.80
  -3   2   4   93.79    8.60
   3   2  -4  110.59    8.50
   2  -2  -4  293.77   12.20
   2  -2  -4  273.57   11.90
   2  -2  -4  271.07   12.70
   2  -2  -4  287.57   11.90
  -2  -2   4  272.37   11.20
  -2  -2   4  274.87   11.10
   2   2  -4  262.07   11.10
  -2   2   4  268.57   12.00
   2   2  -4  263.47   11.20
  -2   2   4  273.37   11.80
   2   2  -4  272.27   10.80
  -2   2   4  271.87   11.90
   1  -2  -4 1489.75   41.70
  -1  -2   4 1442.56   40.50
   1  -2  -4 1475.45   41.70
   1  -2  -4 1481.55   42.10
  -1  -2   4 1419.26   40.40
   1  -2  -4 1459.65   41.60
   1   2  -4 1405.56   42.80
  -1   2   4 1492.75   41.60
  -1   2   4 1446.86   42.00
   1   2  -4 1451.65   40.50
  -1   2   4 1496.35   43.40
  -1   2   4 1492.95   41.70
   0  -2  -4 3188.28   81.59
   0  -2  -4 3044.00   81.89
   0  -2   4 2990.30   80.79
   0  -2  -4 3080.39   81.99
   0  -2   4 3040.00   80.89
   0  -2  -4 3056.69   82.29
   0   2  -4 2975.10   80.89
   0   2   4 2823.72   81.99
   0   2  -4 3071.89   80.89
   0   2   4 3038.00   81.89
   0   2   4 2988.10   81.99
  -1  -2  -4  721.33   22.40
  -1  -2  -4  723.53   22.50
   1  -2   4  658.73   21.70
   1  -2   4  711.23   22.10
   1   2   4  715.33   22.40
  -1   2  -4  768.22   22.20
  -1   2  -4  751.62   22.10
   1   2   4  758.32   23.20
  -1   2  -4  755.42   22.80
   1   2   4  699.53   22.80
   2  -2   4  420.66   15.80
  -2  -2  -4  424.96   15.70
   2  -2   4  398.66   15.40
  -2  -2  -4  410.66   13.60
  -2  -2  -4  355.56   17.00
   2   2   4  409.86   15.80
   2   2   4  372.06   15.20
  -2   2  -4  412.06   15.20
  -2   2  -4  415.36   15.50
  -2   2  -4  425.46   15.50
  -3  -2  -4   12.70    3.60
   3  -2   4   15.10    4.30
   3  -2   4   11.20    3.90
   3   2   4   15.60    4.10
  -3   2  -4   17.20    4.20
   4  -2   4   49.50    8.80
  -4  -2  -4   76.59    6.90
  -4  -2  -4   73.99    9.00
   4   2   4   85.39    8.80
  -4   2  -4   72.49    8.80
  -4   2  -4   67.29    8.90
   4   2   4   60.19    9.00
  -4   2  -4   72.19    8.20
   4  -3  -4  134.19   10.40
   4  -3  -4  135.09   11.30
   4  -3  -4  125.49   10.30
   4  -3  -4  141.59   13.20
  -4  -3   4  139.89   11.00
   4   3  -4  133.89   10.60
  -4   3   4  142.89   11.60
   4   3  -4  130.89   10.40
  -4   3   4  112.19   10.70
   4   3  -4  128.19    8.50
  -4   3   4  129.79   10.50
  -3  -3   4  363.66   15.40
  -3  -3   4  397.76   16.20
   3  -3  -4  374.66   16.70
   3  -3  -4  378.76   18.40
   3  -3  -4  389.46   16.90
   3  -3  -4  398.96   17.00
   3   3  -4  385.46   14.60
   3   3  -4  399.46   16.40
  -3   3   4  397.56   17.10
  -3   3   4  386.56   17.00
  -3   3   4  399.16   16.80
   3   3  -4  393.06   16.30
   2  -3  -4  213.08   11.10
   2  -3  -4  209.78   10.10
  -2  -3   4  203.88    9.20
  -2  -3   4  202.08    9.00
   2  -3  -4  218.38   10.50
  -2   3   4  206.18   10.00
   2   3  -4  196.78    9.20
   2   3  -4  206.38    8.70
  -2   3   4  199.78   10.00
   2   3  -4  203.98    9.20
  -2   3   4  206.48   10.40
   1  -3  -4 2309.57   63.29
   1  -3  -4 2278.57   64.09
   1  -3  -4 2283.27   63.19
   1  -3  -4 2298.27   63.19
  -1  -3   4 2144.29   61.39
  -1  -3   4 2256.67   61.49
  -1   3   4 2313.17   63.29
  -1   3   4 2248.88   63.09
   1   3  -4 2222.18   61.59
   1   3  -4 2251.07   61.49
  -1   3   4 2274.17   63.19
  -1   3   4 2472.05   64.39
   0  -3  -4   33.40    3.60
   0  -3   4   32.80    2.50
   0  -3  -4   31.30    2.90
   0  -3  -4   36.70    3.40
   0   3  -4   34.70    2.50
   0   3   4   32.10    3.30
   0   3   4   32.20    3.30
   0   3  -4   36.90    2.50
   0   3   4   33.70    3.40
   1  -3   4  476.75   15.90
   1  -3   4  453.75   15.60
  -1  -3  -4  506.85   16.50
  -1   3  -4  495.05   16.70
   1   3   4  498.55   16.60
  -1   3  -4  494.85   15.80
   1   3   4  484.95   16.30
   1   3   4  468.15   17.30
  -1   3  -4  510.55   15.90
   2  -3   4  228.18   10.80
  -2  -3  -4  235.18   10.80
   2  -3   4  244.18   11.30
  -2  -3  -4  248.58   11.30
   2   3   4  245.38   11.30
  -2   3  -4  238.38   10.90
  -2   3  -4  247.48   11.30
  -2   3  -4  246.78   11.10
   2   3   4  232.58   11.00
  -3  -3  -4   95.49    8.20
  -3  -3  -4   75.99    7.30
   3  -3   4   83.69    8.20
  -3  -3  -4   75.79    5.80
   3   3   4   94.19    8.00
  -3   3  -4   92.79    8.00
   3   3   4   95.39    8.80
  -3   3  -4   98.69    8.20
  -3   3  -4   95.39    8.60
   4  -3   4  284.37   16.60
  -4  -3  -4  270.57   12.00
   4  -3   4  300.67   19.20
  -4  -3  -4  295.17   16.10
  -4   3  -4  262.97   15.30
   4   3   4  288.77   16.20
  -4   3  -4  295.27   15.50
  -4   3  -4  282.77   16.00
   4   3   4  287.07   15.50
   4  -4  -4  202.08   13.20
  -4  -4   4  179.98   12.40
   4  -4  -4  213.18   15.50
  -4   4   4  187.68   13.30
  -4   4   4  163.08   12.70
   4   4  -4  197.38   12.50
  -4   4   4  181.08   12.90
   4   4  -4  185.98   12.50
   4   4  -4  174.98    9.40
  -3  -4   4  118.09    7.90
   3  -4  -4  121.69    9.20
   3  -4  -4  121.79   10.70
  -3  -4   4  119.49    8.90
   3  -4  -4  117.39    9.10
   3  -4  -4  116.99    9.60
   3   4  -4  115.19    8.20
   3   4  -4  118.89    6.80
  -3   4   4  136.99    9.80
   3   4  -4  117.49    8.70
  -3   4   4  110.69    9.70
  -3   4   4  136.19    9.30
   2  -4  -4  327.07   14.40
   2  -4  -4  291.27   13.20
  -2  -4   4  308.77   11.60
  -2  -4   4  295.17   11.40
   2  -4  -4  302.37   12.90
   2  -4  -4  316.77   13.40
   2   4  -4  304.07   11.80
   2   4  -4  312.47   11.40
   2   4  -4  295.37   11.70
  -2   4   4  310.27   13.60
  -2   4   4  295.97   12.90
  -2   4   4  310.97   13.20
   1  -4  -4  260.67   11.70
   1  -4  -4  257.97   10.80
   1  -4  -4  250.07   10.70
   1  -4  -4  256.97   10.90
  -1   4   4  264.47   11.10
  -1   4   4  315.47   11.40
   1   4  -4  262.37    9.10
  -1   4   4  313.37   11.30
  -1   4   4  312.77   12.20
   1   4  -4  268.47    9.00
   0  -4  -4  197.78    9.20
   0  -4  -4  194.78    8.20
   0  -4  -4  196.48    8.30
   0  -4  -4  198.28    7.70
   0   4   4  197.58    8.30
   0   4  -4  183.18    6.50
   0   4   4  187.58   10.30
   0   4   4  188.68    8.30
   0   4  -4  189.58    6.50
   1  -4   4  970.50   28.00
   1  -4   4  922.71   27.60
   1  -4   4  920.61   28.10
  -1  -4  -4  966.50   28.70
  -1  -4  -4  956.50   28.80
   1   4   4  926.11   28.60
   1   4   4  860.21   29.50
  -1   4  -4  979.10   28.10
  -1   4  -4  976.90   29.30
  -1   4  -4  979.40   27.90
   1   4   4  989.10   29.10
   2  -4   4   54.79    5.40
   2  -4   4   56.19    6.30
  -2  -4  -4   61.79    5.50
  -2  -4  -4   74.79    6.20
   2  -4   4   58.09    8.70
   2   4   4   61.69    5.80
  -2   4  -4   62.99    6.10
  -2   4  -4   57.09    6.00
  -2   4  -4   54.99    5.50
   2   4   4   57.29    5.70
  -3  -4  -4  716.43   25.90
   3  -4   4  726.53   26.60
   3  -4   4  760.82   28.90
   3   4   4  723.73   28.80
  -3   4  -4  731.73   28.00
  -3   4  -4  733.03   26.00
   3   4   4  677.63   25.60
  -3   4  -4  724.73   26.30
  -4  -4  -4  110.69   10.50
   4  -4   4   89.89   12.50
   4  -4   4  102.19   11.10
  -4   4  -4   75.39    9.60
   4   4   4  115.19   10.00
   4   4   4   90.49   10.00
  -4   4  -4   96.09   10.60
  -4   4  -4   87.89    9.60
  -4  -5   4  382.56   17.60
   4  -5  -4  413.76   22.10
   4  -5  -4  384.16   18.90
  -4   5   4  397.66   19.10
   4   5  -4  356.76   14.20
  -4   5   4  348.77   21.10
   4   5  -4  391.36   18.10
  -4   5   4  371.16   19.10
   4   5  -4  370.96   17.60
   3  -5  -4   51.29   10.70
  -3  -5   4   40.60    5.50
   3  -5  -4   46.60    7.00
  -3  -5   4   42.60    6.40
   3  -5  -4   47.80    6.80
  -3   5   4   39.00    6.30
   3   5  -4   37.30    5.60
  -3   5   4   47.70    7.50
   3   5  -4   42.50    6.20
   3   5  -4   38.60    4.30
  -2  -5   4  161.38    7.80
   2  -5  -4  165.58    9.40
   2  -5  -4  159.98   10.40
   2  -5  -4  156.08    9.40
  -2  -5   4  164.48    7.80
   2  -5  -4  168.88    9.70
   2   5  -4  168.88    7.50
  -2   5   4  172.18    9.40
  -2   5   4  178.38    9.90
   2   5  -4  178.58    8.00
  -2   5   4  171.58   10.00
   1  -5  -4 1579.54   47.40
   1  -5  -4 1601.44   45.80
   1  -5  -4 1620.74   45.70
   1  -5  -4 1603.34   45.50
  -1   5   4 1559.14   45.60
  -1   5   4 1531.55   45.40
   1   5  -4 1519.55   44.00
  -1   5   4 1614.74   45.90
   0  -5  -4  119.79    6.00
   0  -5  -4  129.59    6.60
   0  -5  -4  121.49    7.60
   0  -5  -4  130.99    6.60
   0   5   4  125.39    6.70
   0   5   4  127.89    6.80
   0   5   4  125.59    7.50
   0   5  -4  111.99    4.90
   0   5  -4  128.49    6.70
   0   5   4  115.69    5.90
   1  -5   4   66.59    5.10
   1  -5   4   54.99    4.30
  -1  -5  -4   69.69    5.20
   1  -5   4   61.89    4.70
  -1   5  -4   56.39    5.20
  -1   5  -4   57.89    4.70
   1   5   4   58.69    5.00
  -1   5  -4   54.59    4.50
   1   5   4   61.49    5.10
   2  -5   4  281.57   12.30
  -2  -5  -4  295.27   12.70
  -2  -5  -4  279.77   12.30
   2  -5   4  299.27   13.70
   2  -5   4  279.47   12.70
   2   5   4  281.87   12.60
   2   5   4  279.57   12.40
  -2   5  -4  283.57   12.70
  -2   5  -4  289.67   13.20
  -2   5  -4  285.67   12.40
   3  -5   4    2.40    3.60
   3  -5   4    9.00    3.60
   3  -5   4    3.90    5.30
  -3  -5  -4   10.90    3.90
   3   5   4   12.60    4.10
  -3   5  -4    4.00    3.50
  -3   5  -4    4.50    3.50
  -3   5  -4    6.20    3.50
   3   5   4   12.10    3.80
   4  -5   4  113.49   13.50
  -4  -5  -4  107.09   13.10
   4  -5   4  111.29   11.50
   4   5   4  123.69   11.20
  -4   5  -4  103.19   10.80
  -4   5  -4  127.39   11.30
   4   5   4  139.29   17.40
  -4   5  -4   99.99   10.40
  -4  -6   4   41.90    8.00
   4  -6  -4   55.59    9.20
   4  -6  -4   63.39   10.00
  -4   6   4   60.09    9.00
   4   6  -4   43.50    7.50
  -4   6   4   55.49    9.10
   4   6  -4   42.20    7.10
  -3  -6   4  139.89    8.40
   3  -6  -4  169.98   12.70
  -3  -6   4  140.69    9.20
   3  -6  -4  151.88   10.40
   3   6  -4  152.58    9.40
   3   6  -4  154.28    9.00
  -3   6   4  147.89   10.40
  -3   6   4  146.69   10.50
  -3   6   4  140.89   10.90
  -2  -6   4  323.97   13.10
   2  -6  -4  342.87   14.50
   2  -6  -4  353.66   14.90
   2  -6  -4  350.06   15.20
   2  -6  -4  344.67   16.40
  -2   6   4  348.27   14.70
   2   6  -4  355.16   12.30
  -2   6   4  363.36   15.70
  -2   6   4  338.47   14.90
   2   6  -4  349.37   12.60
   2   6  -4  353.06   12.60
   1  -6  -4  184.28    8.80
   1  -6  -4  178.38   10.30
   1  -6  -4  176.78    9.10
   1  -6  -4  171.88    9.00
  -1   6   4  183.08    9.00
  -1   6   4  173.38    8.60
  -1   6   4  172.48    9.10
   1   6  -4  165.48    7.50
   0  -6  -4   74.99    5.30
   0  -6  -4   74.89    6.60
   0  -6  -4   70.59    4.80
   0  -6   4   69.59    4.30
   0  -6  -4   66.89    5.10
   0   6  -4   69.99    4.20
   0   6   4   76.69    5.40
   0   6  -4   78.69    5.50
   0   6   4   72.69    5.40
   0   6   4   70.29    4.70
   1  -6   4   90.79    5.20
   1  -6   4   93.29    5.60
   1  -6   4  103.19    6.40
  -1  -6  -4  109.89    6.40
  -1  -6  -4  106.89    6.60
  -1   6  -4  100.89    5.90
  -1   6  -4   91.79    6.90
  -1   6  -4   99.99    5.50
   1   6   4   97.79    6.50
   1   6   4  102.79    6.40
   2  -6   4  211.58   10.50
   2  -6   4  220.28   11.70
   2  -6   4  215.88   11.00
  -2  -6  -4  230.38   11.20
  -2   6  -4  212.68   11.00
  -2   6  -4  228.08   12.00
   2   6   4  232.18   11.00
  -2   6  -4  216.68   10.70
   2   6   4  239.28   11.30
  -3  -6  -4  136.09    9.80
   3  -6   4  115.09    9.30
   3  -6   4  143.89   11.80
  -3  -6  -4  138.49    9.50
   3  -6   4  125.59   10.40
   3   6   4  151.28   10.20
  -3   6  -4  134.09   10.20
   3   6   4  144.79    9.70
  -3   6  -4  118.89    9.50
  -3   6  -4  145.09   10.60
   4  -6   4   25.50    6.70
   4  -6   4   16.10    7.30
  -4  -6  -4   14.80    6.50
  -4   6  -4   15.40    6.70
  -4   6  -4   17.40    6.00
   4   6   4   17.50    6.60
   4   6   4   19.20    5.30
  -4   6  -4   11.40    4.70
   4  -7  -4    7.00    5.90
  -4  -7   4    4.70    5.00
   4  -7  -4   10.30    4.60
  -4   7   4   10.30    4.80
   4   7  -4    4.40    4.10
  -4   7   4    7.90    4.40
   4   7  -4   15.80    3.50
  -3  -7   4  139.19    8.30
   3  -7  -4  162.68   12.90
  -3  -7   4  137.49    8.10
   3  -7  -4  148.79   10.50
   3   7  -4  119.19    8.20
  -3   7   4  133.89   11.10
  -3   7   4  150.18   11.00
  -3   7   4  146.69   10.50
   2  -7  -4  166.48   11.70
   2  -7  -4  184.28   10.10
   2  -7  -4  170.18   10.90
   2  -7  -4  167.98   10.10
  -2   7   4  182.68   11.20
   2   7  -4  182.48    7.90
  -2   7   4  187.48   10.50
   2   7  -4  175.28    7.60
  -2   7   4  177.88   10.10
   1  -7  -4  244.08   15.40
   1  -7  -4  259.57   11.10
   1  -7  -4  247.68   13.00
   1  -7  -4  259.77   11.10
   1   7  -4  242.58   10.20
  -1   7   4  260.87   11.30
  -1   7   4  244.78   11.60
   1   7  -4  247.58   10.20
  -1   7   4  250.37   11.10
   0  -7  -4   71.99    6.80
   0  -7  -4   66.99    5.00
   0  -7  -4   64.59    5.30
   0  -7  -4   69.69    5.40
   0  -7   4   69.09    6.10
   0   7   4   76.59    5.10
   0   7  -4   69.49    5.40
   0   7  -4   68.49    4.60
   0   7   4   74.59    5.70
   0   7   4   72.99    5.40
  -1  -7  -4   75.99    5.50
   1  -7   4   73.89    6.00
  -1  -7  -4   72.99    5.70
   1  -7   4   59.19    4.40
   1   7   4   76.99    5.70
  -1   7  -4   66.89    5.20
  -1   7  -4   66.69    4.60
  -1   7  -4   69.19    6.40
   1   7   4   75.49    5.80
  -2  -7  -4  199.18   11.10
  -2  -7  -4  196.08   10.20
   2  -7   4  185.08   10.90
   2  -7   4  182.98    9.50
   2  -7   4  192.38   10.00
  -2   7  -4  200.48   11.30
  -2   7  -4  186.48    9.90
   2   7   4  193.28   10.30
   2   7   4  193.18   10.30
  -2   7  -4  184.08   10.20
   3  -7   4   85.89   12.20
  -3  -7  -4   69.29    7.30
  -3  -7  -4   73.39    8.00
   3  -7   4   55.59    7.10
   3  -7   4   66.49    8.40
   3   7   4   69.99    8.20
   3   7   4   81.99    8.00
  -3   7  -4   68.09    8.10
  -3   7  -4   59.49    7.60
  -3   7  -4   62.09    7.40
   4  -7   4   89.79   10.70
   4  -7   4   89.89   11.30
  -4  -7  -4   79.59   10.50
  -4   7  -4   68.59   10.00
  -4   7  -4   78.79   11.30
  -4   7  -4  102.19   10.10
   4   7   4   84.49   10.10
   4   7   4   99.29   10.10
   4  -8  -4   62.59   11.00
  -4  -8   4   40.40    6.30
   4  -8  -4   45.50    8.20
  -4   8   4   42.80    8.10
  -4   8   4   42.30    7.40
   4   8  -4   41.40    7.70
   4   8  -4   41.40    6.30
  -3  -8   4  164.18    8.70
   3  -8  -4  180.98   11.70
   3  -8  -4  185.18   14.20
   3   8  -4  169.08    9.20
   3   8  -4  182.58    9.90
  -3   8   4  187.78   11.80
  -3   8   4  183.18   12.40
  -3   8   4  193.88   12.60
   2  -8  -4  506.15   20.70
   2  -8  -4  578.04   22.30
   2  -8  -4  569.64   21.20
   2  -8  -4  567.04   24.50
  -2   8   4  592.64   22.60
  -2   8   4  581.74   22.50
  -2   8   4  586.44   21.50
   1  -8  -4  373.46   17.10
   1  -8  -4  366.46   14.20
   1  -8  -4  358.16   14.80
   1  -8  -4  344.87   13.90
  -1   8   4  329.87   14.50
   1   8  -4  361.16   13.30
  -1   8   4  338.37   14.20
  -1   8   4  337.17   14.00
   1   8  -4  313.97   14.90
   0  -8  -4  532.35   21.20
   0  -8  -4  535.95   18.10
   0  -8  -4  524.25   18.10
   0  -8  -4  527.35   17.70
   0  -8   4  506.05   17.70
   0   8   4  521.55   18.20
   0   8   4  526.45   18.50
   0   8  -4  529.35   18.60
   0   8   4  504.65   17.30
   0   8  -4  494.55   17.40
  -1  -8  -4  160.78    8.30
   1  -8   4  164.08    9.10
  -1  -8  -4  171.88    8.60
  -1   8  -4  150.08    9.40
   1   8   4  164.28    8.70
  -1   8  -4  158.48    7.20
  -1   8  -4  158.98    7.70
   1   8   4  164.68    8.70
  -2  -8  -4  148.69    9.70
  -2  -8  -4  121.79    8.40
   2  -8   4  124.79    7.80
   2  -8   4  119.79    9.30
   2  -8   4  134.79    8.40
  -2   8  -4  119.89    7.90
  -2   8  -4  111.89    8.40
   2   8   4  139.29   10.30
   2   8   4  152.18    8.90
  -2   8  -4  118.89    9.50
   3  -8   4   35.70    6.50
   3  -8   4   35.40    7.20
  -3  -8  -4   38.60    7.30
  -3   8  -4   39.10    6.80
   3   8   4   38.50    7.00
  -3   8  -4   36.90    6.70
  -3   8  -4   35.60    5.90
   3   8   4   41.90    6.50
   3  -9  -4   90.39    9.00
   3  -9  -4  103.19   12.40
  -3   9   4   86.49    9.40
   3   9  -4   82.99    6.60
  -3   9   4  110.29   10.90
   3   9  -4  101.59    7.30
  -3   9   4  105.59    9.90
   2  -9  -4   11.90    4.80
   2  -9  -4    6.70    3.20
  -2   9   4   10.10    3.70
  -2   9   4    7.50    4.20
  -2   9   4   12.80    4.00
   1  -9  -4  683.53   23.60
   1  -9  -4  685.83   23.50
   1  -9  -4  713.03   24.50
   1  -9  -4  693.53   27.40
  -1   9   4  706.73   23.90
  -1   9   4  714.03   24.10
   1   9  -4  656.93   23.30
   1   9  -4  701.03   22.80
  -1   9   4  725.13   24.50
   0  -9  -4  221.58   10.10
   0  -9   4  203.98    9.90
   0  -9  -4  224.38   13.50
   0  -9  -4  221.38   10.10
   0  -9  -4  206.78    9.70
   0   9   4  218.68   10.60
   0   9   4  219.58   10.30
   0   9   4  206.58    9.80
   0   9  -4  188.78    9.50
   0   9  -4  222.08   10.70
  -1  -9  -4   53.59    5.70
  -1  -9  -4   64.49    6.10
   1  -9   4   65.99    6.50
  -1   9  -4   79.89    7.20
   1   9   4   60.59    5.90
   1   9   4   65.69    5.90
  -2  -9  -4   86.29    7.20
   2  -9   4   71.59    5.90
   2  -9   4   77.49    6.30
   2  -9   4   73.99    8.20
  -2   9  -4   75.19    8.10
  -2   9  -4   77.99    6.50
  -2   9  -4   57.59    9.40
   2   9   4   86.09    7.10
   2   9   4   80.29    7.20
   3  -9   4  150.58   11.00
  -3  -9  -4  159.38   10.90
   3  -9   4  156.38   12.50
  -3   9  -4  174.38   11.60
   3   9   4  158.88   13.00
  -3   9  -4  161.98   12.30
   3   9   4  175.08   11.40
   3 -10  -4   48.00    7.30
  -3  10   4   62.69    9.40
  -3  10   4   41.00    6.80
   2 -10  -4   63.29    7.20
   2 -10  -4   76.19    9.80
   2 -10  -4   65.79    7.60
   2 -10  -4   80.79    7.20
  -2  10   4   76.09    8.40
  -2  10   4   78.19    7.60
  -2  10   4   82.39    7.70
   1 -10  -4  159.98   12.00
   1 -10  -4  145.89    8.50
   1 -10  -4  145.29    9.20
   1  10  -4  151.58    8.20
  -1  10   4  155.58   11.70
  -1  10   4  151.48    8.90
  -1  10   4  141.99    9.40
   0 -10  -4  238.38   10.70
   0 -10  -4  236.98   10.30
   0 -10  -4  253.57   15.80
   0 -10  -4  235.68   10.80
   0 -10   4  234.88   11.20
   0  10   4  229.78   10.90
   0  10  -4  227.38   11.40
   0  10   4  239.08   10.40
  -1 -10  -4  356.76   14.50
   1 -10   4  390.76   16.30
  -1 -10  -4  372.26   14.50
  -1  10  -4  377.46   16.60
   1  10   4  378.56   15.10
   1  10   4  366.96   14.90
  -2 -10  -4   28.60    4.70
  -2 -10  -4   34.10    5.50
   2 -10   4   21.50    3.70
   2 -10   4   33.60    6.70
  -2  10  -4   25.80    4.30
  -2  10  -4   27.90    5.50
   2  10   4   36.20    5.50
   2  10   4   43.20    5.90
  -2  10  -4   26.30    4.80
  -3 -10  -4   50.49    7.90
   3 -10   4   79.39   10.00
   3 -10   4   77.19    8.10
  -3  10  -4   62.39   11.20
   3  10   4   69.59   10.70
   3  10   4   71.49    8.80
  -3  10  -4   62.69    8.50
  -3  10  -4   51.69    7.40
   3 -11  -4  114.79   10.10
   3 -11  -4  146.39   13.70
  -3  11   4   99.99   10.30
  -3  11   4  104.09   16.60
  -3  11   4  129.99   11.40
   2 -11  -4   44.80    7.90
   2 -11  -4   66.29    6.80
   2 -11  -4   56.09    9.40
  -2  11   4   64.99    7.30
  -2  11   4   43.50    6.90
  -2  11   4   49.40    7.60
   1 -11  -4   21.20    4.50
   1 -11  -4   29.30    4.50
   1 -11  -4   33.40    7.60
  -1  11   4   25.80    4.70
   1  11  -4   23.90    4.10
  -1  11   4   24.70    4.50
  -1  11   4   25.70    4.70
   0 -11   4  114.59    8.10
   0 -11  -4  119.99   10.80
   0 -11  -4  109.59    7.10
   0 -11  -4  111.39    7.30
   0 -11  -4  117.09    8.30
   0  11   4  117.59    7.70
   0  11   4  118.79    7.30
   0  11  -4  126.29    8.50
   1 -11   4  137.79    9.60
  -1 -11  -4  143.19    8.30
   1  11   4  147.99    8.70
   1  11   4  138.99    8.70
  -1  11  -4  148.69   10.20
  -2 -11  -4   70.79    7.00
   2 -11   4   79.19   12.80
  -2 -11  -4   74.19    7.40
  -2  11  -4   80.39    7.00
  -2  11  -4   75.09    9.20
  -2  11  -4   76.49    6.30
   2  11   4   78.89    7.20
   2  11   4   79.59    7.10
  -3 -11  -4   45.80    8.40
   3 -11   4   72.09    9.80
  -3  11  -4   59.29    8.10
   3  11   4   68.39    9.10
   3  11   4   77.89   12.30
   2 -12  -4   86.29   11.10
   2 -12  -4   71.59    7.30
  -2  12   4   76.89    9.10
  -2  12   4   67.69    8.80
  -2  12   4   80.49    8.40
   1 -12  -4   15.50    3.60
   1 -12  -4    4.40    3.40
   1 -12  -4   11.40    5.30
  -1  12   4   16.90    3.90
  -1  12   4   11.90    4.10
   1  12  -4   12.80    3.20
  -1  12   4   10.80    3.60
   0 -12   4   38.50    6.30
   0 -12  -4   36.40    4.60
   0 -12  -4   39.10    4.90
   0 -12  -4   43.00    8.30
   0  12  -4   35.10    5.70
   0  12   4   35.10    5.10
   0  12   4   34.00    4.80
   0  12   4   46.10    5.40
   1 -12   4   13.30    4.40
  -1 -12  -4   10.60    3.10
  -1 -12  -4   12.80    3.50
   1  12   4   10.50    3.30
   1  12   4    7.10    3.30
  -1  12  -4   13.60    4.80
  -2 -12  -4  301.47   13.70
   2 -12   4  325.87   17.00
  -2  12  -4  333.87   17.30
  -2  12  -4  298.77   13.00
  -2  12  -4  312.47   13.00
   2  12   4  309.47   14.50
   2  12   4  289.37   14.10
   2 -13  -4   57.69    7.10
   2 -13  -4   81.39   10.60
  -2  13   4   68.99    9.10
  -2  13   4   50.09    8.30
  -2  13   4   63.79   12.10
   1 -13  -4  130.79    8.50
   1 -13  -4  160.98   13.40
   1 -13  -4  146.69   10.50
   1  13  -4  144.69    8.40
  -1  13   4  140.79    9.50
  -1  13   4  166.68   10.00
  -1  13   4  155.48   10.40
   0 -13  -4    0.60    2.80
   0 -13  -4    2.30    4.70
   0 -13  -4   -0.90    2.10
   0  13  -4   -0.10    2.80
   0  13   4   -1.70    2.20
   0  13   4    2.20    2.60
   0  13   4    0.90    2.40
   1 -13   4   -0.10    4.80
  -1 -13  -4   -1.40    2.50
  -1 -13  -4    1.60    2.90
  -1  13  -4   -2.60    3.30
   1  13   4    4.80    2.50
   1  13   4    2.90    2.80
  -2 -13  -4   72.49    7.00
   1 -14  -4   64.39    6.50
   1 -14  -4   78.49   10.90
   1  14  -4   90.89    6.40
  -1  14   4   70.19    7.90
  -1  14   4   65.49    7.20
  -1  14   4   73.89    7.60
   0 -14  -4   14.50    5.90
   0  14  -4    9.70    3.50
   0  14   4    6.80    3.40
   0  14   4    9.40    2.80
   0  14   4    7.40    3.50
   1 -14   4  102.19   10.00
   1  14   4   92.59    7.40
  -1  14  -4   86.69    8.90
  -4   0   5  408.16   19.00
  -4   0   5  397.46   17.40
   4   0  -5  376.66   18.20
   4   0  -5  353.46   17.00
   4   0  -5  364.46   20.20
   4   0  -5  394.86   18.70
   3   0  -5 1547.25   48.70
   3   0  -5 1536.85   47.00
   3   0  -5 1518.05   46.00
  -3   0   5 1468.45   46.40
  -3   0   5 1553.44   46.20
   3   0  -5 1513.45   46.70
  -3   0   5 1528.65   46.80
  -2   0   5 1434.16   44.90
   2   0  -5 1469.45   42.70
  -2   0   5 1447.36   42.80
   2   0  -5 1470.15   43.70
   2   0  -5 1423.56   42.70
   2   0  -5 1471.85   43.10
   1   0  -5   37.70    3.70
   1   0  -5   39.10    3.90
   0   0   5   15.00    2.50
   0   0   5   15.00    2.00
   0   0  -5   13.80    2.50
   0   0   5   11.20    2.20
   0   0  -5   15.10    2.60
   0   0  -5   13.80    2.00
   1   0   5 1231.38   35.50
  -1   0  -5 1193.88   35.10
   1   0   5 1185.88   35.00
  -1   0  -5 1190.68   35.00
  -2   0  -5  170.78    9.10
  -2   0  -5  187.38    9.50
  -2   0  -5  172.78    8.40
   2   0   5  195.28   10.00
   2   0   5  165.58    9.20
  -3   0  -5   84.39    7.80
  -3   0  -5   91.59    8.40
   3   0   5   86.59    8.30
   3   0   5   95.59    8.00
  -3   0  -5   94.59    7.30
  -4   0  -5   42.00    7.70
   4   0   5   24.60    5.60
  -4   0  -5   27.30    5.70
   4  -1  -5   75.69   11.20
   4  -1  -5   76.59    8.40
   4  -1  -5   79.39   11.00
   4  -1  -5  103.09    9.80
  -4  -1   5   94.39    9.80
  -4   1   5  100.19    9.00
  -4   1   5   80.19    9.90
   4   1  -5   89.19   11.00
   4   1  -5   70.79    9.00
   4   1  -5   84.39    9.50
   4   1  -5   76.39    7.60
  -3  -1   5 1257.07   40.30
  -3  -1   5 1189.38   39.80
   3  -1  -5 1270.77   40.80
   3  -1  -5 1285.47   40.20
   3  -1  -5 1318.57   42.80
   3  -1  -5 1292.67   40.70
  -3   1   5 1305.17   40.20
  -3   1   5 1334.17   41.10
  -3   1   5 1279.57   40.60
   3   1  -5 1280.57   40.40
   3   1  -5 1326.37   42.20
   3   1  -5 1324.77   41.00
   3   1  -5 1292.27   39.50
   2  -1  -5 1634.74   49.99
   2  -1  -5 1658.93   49.20
   2  -1  -5 1681.23   49.50
  -2  -1   5 1698.13   48.90
   2  -1  -5 1742.63   49.40
  -2   1   5 1681.43   51.29
  -2   1   5 1710.63   49.30
   2   1  -5 1778.92   49.80
   2   1  -5 1731.33   48.90
   2   1  -5 1656.73   48.80
  -2   1   5 1648.94   49.30
   2   1  -5 1722.73   49.20
   1  -1  -5  543.15   17.60
  -1  -1   5  545.05   17.10
   1  -1  -5  546.15   17.60
   1  -1  -5  553.54   17.70
   1  -1  -5  548.15   20.60
  -1  -1   5  555.44   17.10
  -1   1   5  533.45   17.50
  -1   1   5  542.45   17.50
  -1   1   5  536.15   17.50
   1   1  -5  514.45   17.00
   1   1  -5  482.75   16.20
   1   1  -5  525.35   16.90
   0  -1  -5 1817.42   49.50
   0  -1  -5 1775.92   49.30
   0  -1   5 1754.02   48.80
   0  -1  -5 1781.92   49.00
   0   1   5 1727.03   48.90
   0   1   5 1761.22   49.30
   0   1  -5 1809.22   48.90
   0   1  -5 1709.63   48.80
   0   1   5 1755.42   49.50
   1  -1   5  291.27   11.30
   1  -1   5  303.77   11.50
  -1  -1  -5  306.57   11.70
  -1  -1  -5  317.67   11.80
  -1   1  -5  308.07   11.40
   1   1   5  301.97   11.60
   1   1   5  302.87   12.20
   1   1   5  303.27   11.60
  -1   1  -5  306.77   11.40
   2  -1   5  532.55   19.30
  -2  -1  -5  544.45   19.20
   2  -1   5  500.75   18.70
  -2  -1  -5  518.85   17.50
  -2  -1  -5  494.95   20.60
  -2   1  -5  523.15   18.30
  -2   1  -5  522.75   18.80
  -2   1  -5  552.94   19.30
   2   1   5  539.85   19.40
   4  -1   5   84.29    9.90
  -4  -1  -5   82.59    9.80
  -4  -1  -5   92.59    7.90
  -4   1  -5   87.09    9.00
   4   1   5   90.69   10.10
  -4   1  -5   71.49    9.70
  -4  -2   5   43.50    8.20
   4  -2  -5   48.10    8.00
   4  -2  -5   33.20    6.60
   4  -2  -5   31.30    5.90
   4  -2  -5   45.60    9.40
  -4   2   5   50.19    8.70
  -4   2   5   45.90    7.50
   4   2  -5   43.40    8.70
   4   2  -5   40.30    6.10
   4   2  -5   42.00    7.80
   4   2  -5   32.90    6.00
   3  -2  -5  126.19    9.10
   3  -2  -5  113.79   10.20
   3  -2  -5  108.99    8.70
  -3  -2   5  116.59    8.80
  -3  -2   5  112.09    8.10
   3  -2  -5  117.79    9.10
   3   2  -5  104.29    8.20
   3   2  -5  121.59    8.80
  -3   2   5  113.99    8.70
  -3   2   5  117.69    8.80
  -3   2   5  120.39    9.50
   3   2  -5  110.49    7.60
   2  -2  -5  931.31   31.30
   2  -2  -5  995.40   30.90
   2  -2  -5  963.30   30.50
  -2  -2   5 1013.80   29.80
   2  -2  -5 1032.50   35.50
   2   2  -5  944.41   29.60
   2   2  -5  972.40   29.90
  -2   2   5  964.00   30.70
  -2   2   5  973.60   30.60
  -2   2   5  942.51   32.10
   2   2  -5  944.21   29.50
   1  -2  -5 2166.48   59.79
   1  -2  -5 2087.19   59.89
  -1  -2   5 2164.38   58.59
   1  -2  -5 2167.08   59.79
  -1  -2   5 2156.38   58.59
   1  -2  -5 2201.48   59.89
   1   2  -5 1994.20   57.79
   1   2  -5 2083.19   58.59
  -1   2   5 2349.56   64.19
  -1   2   5 2083.29   59.99
   1   2  -5 2105.69   58.59
  -1   2   5 2099.89   59.69
   0  -2  -5   82.29    5.00
   0  -2   5   77.89    4.30
   0  -2  -5   86.59    5.00
   0  -2   5   81.29    4.40
   0   2  -5   75.29    4.20
   0   2  -5   74.79    4.30
   0   2   5   79.09    5.00
   0   2   5   87.29    5.20
   0   2   5   85.79    5.00
   1  -2   5  231.48    9.30
  -1  -2  -5  250.37    9.80
   1  -2   5  222.58    9.10
  -1   2  -5  215.88    9.00
   1   2   5  222.48    9.60
  -1   2  -5  223.98    9.50
  -1   2  -5  213.08    9.10
   1   2   5  215.28    9.40
   1   2   5  189.48   12.40
   2  -2   5 1186.68   37.40
  -2  -2  -5 1302.27   39.60
  -2  -2  -5 1227.08   37.80
   2  -2   5 1239.48   38.00
  -2  -2  -5 1276.47   38.20
  -2   2  -5 1213.28   37.40
  -2   2  -5 1236.88   37.70
   2   2   5 1251.17   38.30
  -2   2  -5 1216.48   37.80
   3  -2   5  161.28   10.40
  -3  -2  -5  168.88    8.80
  -3  -2  -5  157.38   10.00
  -3  -2  -5  163.68   10.50
   3  -2   5  164.88   11.00
  -3   2  -5  163.28    9.90
   3   2   5  162.38   10.80
   3   2   5  165.38   10.30
  -3   2  -5  173.98   11.60
  -3   2  -5  176.38   10.50
   4  -2   5  102.89   10.40
  -4  -2  -5   98.99   10.20
  -4  -2  -5  100.29    7.60
   4   2   5  117.89   10.90
   4   2   5   89.59   10.50
  -4   2  -5  110.69   10.70
  -4   2  -5  108.29   14.40
  -4   2  -5   98.69    9.50
   4  -3  -5   78.89    9.30
  -4  -3   5   76.49    9.40
   4  -3  -5   94.69    9.80
   4  -3  -5   90.89   11.20
   4  -3  -5   56.59   12.20
  -4   3   5   76.29    9.40
   4   3  -5   84.19    8.90
   4   3  -5   76.19    7.10
   4   3  -5   79.59    9.20
  -4   3   5  100.89   10.30
   3  -3  -5  282.47   13.90
   3  -3  -5  286.77   15.50
   3  -3  -5  278.67   14.10
   3  -3  -5  292.57   14.20
  -3  -3   5  272.57   12.70
  -3  -3   5  289.57   13.30
  -3   3   5  270.27   14.00
   3   3  -5  282.37   13.30
   3   3  -5  280.07   13.40
  -3   3   5  285.07   14.10
  -3   3   5  287.97   13.90
   3   3  -5  281.87   12.00
   2  -3  -5  151.38    9.40
  -2  -3   5  142.39    8.70
   2  -3  -5  147.99   12.50
   2  -3  -5  153.48    8.60
  -2  -3   5  140.59    7.70
   2  -3  -5  165.18    8.90
   2   3  -5  136.39    7.70
   2   3  -5  127.79    7.50
   2   3  -5  147.79    7.60
  -2   3   5  149.79    8.90
  -2   3   5  157.68   10.30
  -2   3   5  145.49    8.80
   1  -3  -5 2254.17   61.69
   1  -3  -5 2157.58   62.19
  -1  -3   5 2234.48   59.79
  -1  -3   5 2193.58   59.79
   1  -3  -5 2234.48   61.59
   1  -3  -5 2321.87   61.69
   1   3  -5 2172.18   59.99
  -1   3   5 2098.79   62.59
  -1   3   5 2173.08   61.39
  -1   3   5 2150.88   61.49
   1   3  -5 2211.88   59.89
  -1   3   5 2154.68   61.49
   0  -3   5   79.09    4.30
   0  -3  -5   91.49    5.10
   0  -3   5   90.79    4.50
   0  -3  -5   89.19    5.70
   0  -3  -5   91.99    5.50
   0  -3  -5   94.19    5.50
   0   3  -5   89.49    4.50
   0   3   5  108.59    5.80
   0   3   5   91.49    5.60
   0   3   5   79.79    5.50
   0   3  -5   85.49    4.50
   1  -3   5  654.93   20.80
  -1  -3  -5  691.53   21.80
  -1  -3  -5  697.13   22.20
   1  -3   5  683.43   21.20
  -1   3  -5  652.63   20.80
  -1   3  -5  704.73   22.10
   1   3   5  648.24   21.60
   1   3   5  600.74   22.00
  -1   3  -5  690.43   21.10
   1   3   5  680.43   22.00
  -2  -3  -5  492.75   18.30
   2  -3   5  492.65   18.30
   2  -3   5  467.05   17.70
  -2  -3  -5  513.75   18.60
  -2  -3  -5  471.05   15.70
   2   3   5  508.45   18.70
  -2   3  -5  500.65   18.30
  -2   3  -5  498.95   18.00
  -2   3  -5  496.65   18.10
   2   3   5  490.65   18.40
  -3  -3  -5  762.52   26.90
  -3  -3  -5  727.73   26.70
  -3  -3  -5  761.62   23.60
   3  -3   5  777.92   27.60
  -3   3  -5  740.13   27.40
   3   3   5  744.53   31.10
   3   3   5  725.53   26.90
  -3   3  -5  747.23   26.50
  -3   3  -5  751.62   27.00
  -4  -3  -5   73.49    6.50
  -4  -3  -5   69.39    9.50
   4  -3   5   70.49    9.50
  -4   3  -5   60.39    8.80
  -4   3  -5   78.99    9.80
  -4   3  -5   71.39    8.90
   4   3   5   72.69    8.90
   4   3   5   79.59   10.10
   4  -4  -5   70.89   10.80
  -4  -4   5   68.19    8.80
   4  -4  -5   60.19    8.80
  -4   4   5   65.39    9.30
   4   4  -5   54.09    6.00
   4   4  -5   59.59    8.30
  -4   4   5   61.39    9.10
   4   4  -5   62.99    8.60
   3  -4  -5  160.48   10.50
  -3  -4   5  131.69    8.60
  -3  -4   5  162.28    9.70
   3  -4  -5  163.48   10.70
   3  -4  -5  159.18   10.50
   3  -4  -5  155.78   11.90
   3   4  -5  152.28    9.40
   3   4  -5  147.29    9.70
   3   4  -5  167.78   12.20
  -3   4   5  149.09   10.20
  -3   4   5  176.08   11.00
  -3   4   5  148.19   10.90
   2  -4  -5   66.59    6.30
   2  -4  -5   78.19    6.80
   2  -4  -5   70.29    7.20
  -2  -4   5   67.09    5.30
  -2  -4   5   68.09    5.40
   2  -4  -5   61.79    6.20
  -2   4   5   72.39    9.60
   2   4  -5   69.29    5.30
   2   4  -5   66.59    5.10
  -2   4   5   69.59    6.80
   2   4  -5   68.69    5.30
  -2   4   5   76.49    6.80
   1  -4  -5   27.40    4.60
   1  -4  -5   30.70    4.30
   1  -4  -5   29.40    4.10
  -1  -4   5   32.00    2.90
   1  -4  -5   25.10    4.20
  -1   4   5   22.50    4.00
   1   4  -5   32.20    3.00
  -1   4   5   37.70    4.50
   1   4  -5   22.60    2.80
  -1   4   5   32.30    4.20
   0  -4  -5 5198.48  138.89
   0  -4  -5 5183.98  140.09
   0  -4  -5 5341.97  138.09
   0  -4  -5 5163.28  138.79
   0  -4   5 5186.08  136.69
   0   4   5 5213.98  138.99
   0   4  -5 5046.00  136.69
   0   4   5 5138.49  139.99
   0   4   5 5033.90  138.99
   0   4  -5 5138.69  136.89
   1  -4   5  267.47   10.00
  -1  -4  -5  272.57   11.10
  -1  -4  -5  280.37   13.10
   1  -4   5  267.17   10.20
   1  -4   5  245.88   10.10
  -1   4  -5  250.07   11.10
  -1   4  -5  249.58    9.80
   1   4   5  254.57   11.00
  -1   4  -5  267.17   10.20
   1   4   5  248.38   10.80
  -2  -4  -5  106.09    7.40
   2  -4   5   97.59    8.20
  -2  -4  -5  112.19    7.90
   2  -4   5  102.09    7.60
   2  -4   5  102.09    7.00
   2   4   5  111.89    7.60
  -2   4  -5  105.99    7.30
  -2   4  -5  106.99    7.60
   2   4   5  114.19    7.90
  -2   4  -5  107.09    7.80
   3  -4   5  187.98   13.50
   3  -4   5  188.38   12.10
  -3  -4  -5  196.58   11.80
  -3   4  -5  196.68   11.50
  -3   4  -5  198.48   15.60
   3   4   5  195.38   12.20
  -3   4  -5  194.68   12.00
   3   4   5  184.08   11.40
   4  -4   5   81.89   10.10
   4  -4   5   87.89   11.80
  -4  -4  -5   92.59   10.30
   4   4   5   99.09   10.50
  -4   4  -5   78.99    9.70
  -4   4  -5   87.89   10.20
   4   4   5   92.69   10.60
  -4   4  -5   85.09    9.80
  -4  -5   5  147.39   10.90
   4  -5  -5  145.89   13.80
   4  -5  -5  153.28   12.10
   4   5  -5  128.79    7.90
   4   5  -5  143.89   10.90
  -4   5   5  144.29   11.90
   4   5  -5  159.48   11.30
  -4   5   5  146.59   12.20
  -3  -5   5  197.08   10.30
   3  -5  -5  218.28   15.40
   3  -5  -5  230.98   12.70
  -3  -5   5  224.78   11.30
   3  -5  -5  208.48   12.30
   3   5  -5  214.38    9.80
  -3   5   5  211.68   13.00
  -3   5   5  209.38   16.00
   3   5  -5  222.88   11.00
   3   5  -5  206.18   11.00
  -3   5   5  220.68   12.20
  -2  -5   5  131.19    6.70
   2  -5  -5  120.19    9.30
   2  -5  -5  116.79    8.50
   2  -5  -5  125.39    8.50
  -2  -5   5  129.39    6.80
   2  -5  -5  125.49    8.30
   2   5  -5  124.29    6.90
   2   5  -5  127.89    6.80
  -2   5   5  124.79    8.50
   2   5  -5  132.39    9.80
  -2   5   5  124.29    8.90
   1  -5  -5  194.28   10.40
   1  -5  -5  172.68    8.90
   1  -5  -5  172.18    8.90
   1  -5  -5  175.38   11.70
  -1   5   5  182.48    9.20
  -1   5   5  185.98    9.20
  -1   5   5  204.68    9.40
   0  -5  -5  329.67   13.90
   0  -5  -5  340.37   12.00
   0  -5  -5  338.97   12.80
   0  -5  -5  320.57   12.60
   0   5   5  334.47   12.80
   0   5   5  325.37   12.90
  -1  -5  -5  242.58    8.70
   1  -5   5  242.38    9.60
  -1  -5  -5  248.98   13.90
   1  -5   5  233.88    9.30
   1  -5   5  232.68   11.30
  -1  -5  -5  232.48   10.40
   1   5   5  238.38   10.60
  -1   5  -5  250.77    9.80
   1   5   5  229.98   10.60
  -1   5  -5  244.28   11.10
  -1   5  -5  241.68    9.40
  -2  -5  -5 1184.68   35.60
   2  -5   5 1158.48   36.30
   2  -5   5 1133.19   35.10
   2  -5   5 1100.99   34.50
  -2   5  -5 1105.79   35.00
  -2   5  -5 1123.99   34.90
   2   5   5 1099.29   35.60
   2   5   5 1107.19   35.20
  -2   5  -5 1080.99   35.70
   3  -5   5  140.69   10.30
   3  -5   5  128.79   11.90
  -3  -5  -5  139.69   10.50
  -3   5  -5  154.58   10.50
   3   5   5  145.79   10.30
  -3   5  -5  133.29    9.60
  -3   5  -5  151.68   10.30
   3   5   5  156.78   10.70
   4  -5   5  137.69   12.20
  -4  -5  -5  130.99   12.00
   4  -5   5  142.29   14.40
   4   5   5  148.79   12.80
  -4   5  -5  125.19   11.60
  -4   5  -5  137.89   12.30
   4   5   5   97.19   11.30
  -4   5  -5  123.69   11.60
  -4  -6   5   16.30    4.50
   4  -6  -5   13.90    5.10
   4  -6  -5   24.40    7.50
   4   6  -5   10.30    4.20
  -4   6   5   14.70    5.40
   4   6  -5   10.90    3.00
  -4   6   5    9.10    5.10
   4   6  -5   13.80    5.10
  -3  -6   5   85.39    7.20
   3  -6  -5  100.19    9.00
   3  -6  -5  105.79   10.60
  -3  -6   5   78.89    6.60
   3  -6  -5   82.39    8.40
  -3   6   5   92.39    8.60
   3   6  -5   98.69    7.50
  -3   6   5  112.09    9.80
   3   6  -5  100.59    6.10
   3   6  -5   93.49   11.70
  -3   6   5   96.59    9.30
   2  -6  -5  194.58   10.60
   2  -6  -5  193.78   10.70
  -2  -6   5  180.38    8.60
   2  -6  -5  188.28   10.70
   2  -6  -5  187.68   11.90
  -2   6   5  194.28   10.80
   2   6  -5  183.38    8.30
   2   6  -5  189.78    8.50
  -2   6   5  191.98   11.20
   2   6  -5  197.88    8.80
  -2   6   5  190.08   12.30
   1  -6  -5  488.15   19.80
   1  -6  -5  514.35   19.80
   1  -6  -5  494.65   17.80
   1  -6  -5  494.35   17.70
  -1   6   5  510.55   18.00
  -1   6   5  479.85   17.90
  -1   6   5  475.45   17.70
   1   6  -5  467.25   15.50
   0  -6  -5  669.63   21.90
   0  -6  -5  668.83   20.90
   0  -6  -5  653.03   21.90
   0  -6  -5  648.34   23.70
   0   6   5  651.93   22.10
   0   6  -5  690.43   22.20
   0   6   5  660.33   22.00
   1  -6   5  527.65   17.00
   1  -6   5  512.75   17.60
  -1  -6  -5  516.95   18.40
   1  -6   5  509.85   16.60
  -1  -6  -5  547.25   19.20
  -1   6  -5  519.45   17.90
   1   6   5  527.85   18.80
   1   6   5  487.75   18.40
  -1   6  -5  545.15   17.30
  -1   6  -5  514.95   19.20
   2  -6   5  332.47   15.30
   2  -6   5  355.06   14.70
  -2  -6  -5  363.86   15.20
   2  -6   5  345.87   14.20
  -2  -6  -5  357.46   15.20
   2   6   5  365.46   15.50
   2   6   5  355.36   15.00
  -2   6  -5  369.86   15.00
  -2   6  -5  366.86   14.70
  -2   6  -5  364.06   15.90
   3  -6   5  168.18   11.50
   3  -6   5  198.18   13.40
   3  -6   5  175.68   11.10
  -3  -6  -5  165.98   10.90
  -3  -6  -5  174.08   11.40
   3   6   5  187.78   11.50
  -3   6  -5  194.48   11.70
  -3   6  -5  198.48   11.30
  -3   6  -5  201.28   12.50
   3   6   5  206.18   12.30
   4  -6   5    6.10    6.10
  -4  -6  -5   19.20    6.00
   4  -6   5    4.30    5.50
  -4   6  -5    9.10    5.50
  -4   6  -5    6.40    5.20
   4   6   5   18.50    6.10
  -4   6  -5    5.00    4.70
  -4  -7   5   22.10    6.00
   4  -7  -5   27.90    6.40
   4   7  -5   37.20    6.90
  -4   7   5   45.70   11.60
   4   7  -5   28.10    5.80
  -3  -7   5  135.39    8.20
  -3  -7   5  126.89    7.80
   3  -7  -5  139.99   10.20
   3  -7  -5  106.69    9.70
   3  -7  -5  138.49   12.40
   3  -7  -5  130.49    9.80
  -3   7   5  129.09   10.60
  -3   7   5  138.49   10.70
   3   7  -5  125.99    8.20
  -3   7   5  131.99   10.20
   3   7  -5  137.59    8.80
   3   7  -5  120.49    7.00
   2  -7  -5  169.88   11.80
   2  -7  -5  154.38    9.70
   2  -7  -5  151.28   10.00
  -2   7   5  172.98   10.50
   2   7  -5  148.49    8.80
   2   7  -5  163.78    7.90
  -2   7   5  176.28   10.30
  -2   7   5  165.48   10.60
   1  -7  -5   77.49    6.60
   1  -7  -5   82.99    6.50
   1  -7  -5   73.99    6.40
   1  -7  -5   80.49    7.80
  -1   7   5   78.19    6.40
  -1   7   5   74.79    6.50
   1   7  -5   68.99    4.90
  -1   7   5   73.59    6.70
   0  -7  -5  481.75   19.50
   0  -7  -5  465.85   17.10
   0  -7  -5  491.25   16.40
   0  -7  -5  473.65   17.10
   0   7   5  459.95   17.20
   0   7  -5  490.55   17.70
   0   7   5  479.05   17.60
   0   7   5  460.35   16.10
  -1  -7  -5    4.60    2.80
   1  -7   5    5.10    2.70
   1  -7   5   -0.10    2.20
  -1  -7  -5    9.20    2.70
   1  -7   5    5.10    2.80
  -1   7  -5    0.50    2.40
   1   7   5    1.10    2.40
  -1   7  -5    2.80    1.70
  -1   7  -5    5.00    2.30
   1   7   5    7.50    3.20
  -2  -7  -5   49.10    6.50
   2  -7   5   47.30    6.00
   2  -7   5   41.50    6.10
   2  -7   5   40.50    5.20
  -2  -7  -5   34.50    5.80
  -2   7  -5   52.39    8.80
   2   7   5   44.70    6.70
  -2   7  -5   37.40    5.70
   2   7   5   44.10    6.20
  -2   7  -5   40.00    5.30
   3  -7   5  151.88   14.30
  -3  -7  -5  127.89   10.10
   3  -7   5  152.28   10.90
  -3   7  -5  130.99   10.20
   3   7   5  126.39   10.20
   3   7   5  141.39   10.30
  -3   7  -5  126.39   10.80
  -3   7  -5  138.69    9.70
   4  -7   5  117.39   13.20
  -4  -7  -5   94.19   11.20
   4  -7   5  112.59   11.70
  -4   7  -5  113.89   11.60
   4   7   5  103.99   10.80
  -4   7  -5   88.39   10.40
  -4   7  -5   86.39   10.60
   4  -8  -5   46.80   10.40
   4  -8  -5   38.10    7.80
  -4   8   5   53.29    9.80
   4   8  -5   39.90    6.40
  -4   8   5   55.99   10.00
   3  -8  -5   22.30    5.00
   3   8  -5   37.90    5.70
  -3   8   5   22.40    5.40
  -3   8   5   39.40    7.30
   3   8  -5   23.90    5.90
   2  -8  -5  467.45   23.40
   2  -8  -5  471.45   18.60
   2  -8  -5  429.86   18.80
   2   8  -5  445.76   15.70
  -2   8   5  450.65   18.60
  -2   8   5  448.86   18.90
  -2   8   5  463.45   19.90
   1  -8  -5   13.50    3.50
   1  -8  -5    9.60    4.80
   1  -8  -5    4.50    3.30
   1  -8  -5   11.70    3.20
  -1   8   5    5.90    3.40
  -1   8   5   11.80    3.40
   1   8  -5    6.60    2.40
  -1   8   5   10.60    3.00
   1   8  -5   12.20    2.90
   0  -8  -5   31.70    4.70
   0  -8  -5   23.70    4.30
   0  -8  -5   33.40    6.20
   0  -8  -5   40.50    4.70
   0  -8   5   31.80    4.40
   0   8   5   26.20    4.50
   0   8  -5   42.20    5.10
   0   8   5   45.80    5.40
   0   8   5   33.50    4.60
   0   8  -5   36.40    3.90
   1  -8   5  151.58    8.60
  -1  -8  -5  166.88    9.00
  -1  -8  -5  167.08    9.00
  -1   8  -5  162.68    7.30
  -1   8  -5  180.98   10.20
   1   8   5  178.58    9.50
  -1   8  -5  166.58    7.80
   1   8   5  166.68    9.30
  -2  -8  -5  140.39    9.20
   2  -8   5  134.99    9.50
   2  -8   5  124.99    7.70
   2  -8   5  132.09    8.50
   2   8   5  145.89    9.20
  -2   8  -5  126.69    8.10
  -2   8  -5  126.99    9.50
  -2   8  -5  130.99    9.20
   2   8   5  144.39    9.40
  -3  -8  -5   21.00    5.00
   3  -8   5   14.50    5.20
   3  -8   5   12.60    4.30
  -3   8  -5   11.90    4.20
   3   8   5   13.70    4.70
   3   8   5    6.00    3.70
  -3   8  -5    9.80    4.00
   3  -9  -5  415.76   19.10
   3  -9  -5  442.66   22.70
   3   9  -5  420.16   15.60
  -3   9   5  406.46   19.20
  -3   9   5  437.16   20.50
  -3   9   5  397.26   19.30
   2  -9  -5   89.09   10.20
   2  -9  -5   87.69    8.10
   2  -9  -5   83.39    7.70
  -2   9   5   83.49    8.40
  -2   9   5   93.19    8.20
  -2   9   5   76.79    7.50
   1  -9  -5  522.15   22.80
   1  -9  -5  515.15   19.10
   1  -9  -5  516.85   19.40
   1  -9  -5  519.45   19.70
  -1   9   5  508.05   19.50
   1   9  -5  532.45   18.70
  -1   9   5  539.05   19.90
  -1   9   5  516.05   19.70
   1   9  -5  490.75   18.00
   0  -9   5  149.49    7.80
   0  -9  -5  156.08    8.70
   0  -9  -5  155.78    8.20
   0  -9  -5  151.88   11.50
   0  -9  -5  160.48    9.00
   0   9   5  143.59    8.10
   0   9  -5  164.98    9.30
   0   9   5  160.88    9.40
   0   9  -5  143.99    7.80
   0   9   5  159.28    9.00
  -1  -9  -5   27.40    4.90
   1  -9   5   34.00    4.80
  -1  -9  -5   24.60    4.50
  -1   9  -5   34.90    5.80
   1   9   5   33.20    5.20
   1   9   5   25.40    4.80
  -2  -9  -5  125.99    9.00
   2  -9   5  120.39    7.90
  -2  -9  -5  149.99    9.40
   2  -9   5  131.09   10.00
   2   9   5  138.39    9.40
  -2   9  -5  136.89   10.30
  -2   9  -5  134.29    8.80
   2   9   5  127.29    9.00
  -2   9  -5  121.39    8.00
   3  -9   5    7.10    3.90
  -3  -9  -5   14.10    5.10
   3   9   5   24.10    5.40
   3   9   5    5.30    3.90
  -3   9  -5    2.00    7.00
  -3   9  -5   17.10    4.80
  -3   9  -5   13.30    4.60
   3 -10  -5   18.10    5.30
   3 -10  -5   27.90    7.50
  -3  10   5   20.50    4.80
  -3  10   5   20.80    5.70
  -3  10   5   14.20    5.70
   2 -10  -5   72.29   10.10
   2 -10  -5   53.69    7.30
   2 -10  -5   57.09    7.00
   2 -10  -5   49.90    8.70
  -2  10   5   70.49    7.50
  -2  10   5   66.79    7.60
  -2  10   5   54.39    8.00
   1 -10  -5   79.49    6.70
   1 -10  -5   80.59    7.10
   1 -10  -5   79.39    9.00
  -1  10   5   92.29    7.40
  -1  10   5   76.79    6.80
  -1  10   5   73.39    7.60
   1  10  -5   81.29    6.40
   1  10  -5   69.69    6.30
   0 -10   5   50.09    5.20
   0 -10  -5   42.70    5.20
   0 -10  -5   42.20    5.10
   0 -10  -5   49.99    8.10
   0 -10  -5   43.20    5.30
   0  10   5   50.59    5.10
   0  10  -5   43.30    5.10
   0  10   5   35.80    5.10
   0  10  -5   54.69    5.90
   1 -10   5  227.98   11.50
  -1 -10  -5  217.98   10.90
   1  10   5  227.48   11.30
  -1  10  -5  227.38   12.70
   1  10   5  224.48   11.40
  -2 -10  -5   24.80    5.10
  -2 -10  -5   23.20    4.70
   2 -10   5   17.80    5.00
   2 -10   5   13.40    3.40
  -2  10  -5   13.30    3.90
  -2  10  -5   18.10    5.00
  -2  10  -5   14.10    3.50
   3 -10   5    9.70    4.70
  -3 -10  -5    3.60    4.70
   3 -10   5   13.60    5.20
  -3  10  -5   21.30    5.60
  -3  10  -5   10.80    4.10
   3  10   5    7.80    4.60
   3  10   5   21.40    7.10
  -3  10  -5    5.00    3.90
   3 -11  -5    4.90    5.50
   3 -11  -5    7.80    4.30
  -3  11   5   -2.80    4.30
  -3  11   5    7.40    5.00
  -3  11   5    8.40    5.10
   2 -11  -5   10.90    5.60
   2 -11  -5    5.40    3.60
  -2  11   5    3.80    3.80
  -2  11   5    5.80    3.70
  -2  11   5    7.20    4.10
   1 -11  -5   90.19   10.30
   1 -11  -5   88.89    7.30
   1 -11  -5   73.79    8.70
   1 -11  -5   85.59    7.80
   1  11  -5   87.59    6.70
  -1  11   5   86.89    7.70
  -1  11   5   89.69    7.90
  -1  11   5   90.19    7.60
   0 -11  -5   22.00    4.20
   0 -11  -5   30.10    4.90
   0 -11  -5   36.50    7.90
   0  11   5   23.80    4.40
   0  11  -5   32.30    5.70
   0  11   5   25.90    4.70
   1 -11   5   59.19    6.50
  -1 -11  -5   43.50    5.90
  -1 -11  -5   49.30    5.90
   1  11   5   48.60    6.00
  -1  11  -5   54.09    7.20
   1  11   5   60.89    6.30
   2 -11   5   39.20    5.10
   2 -11   5   55.99    7.90
  -2 -11  -5   41.20    6.90
  -2  11  -5   46.40    6.10
   2  11   5   59.19    7.10
  -2  11  -5   45.10    8.20
  -2  11  -5   37.30    6.30
   2 -12  -5   29.70    8.40
   2 -12  -5   25.30    4.80
  -2  12   5   21.60    5.50
  -2  12   5   24.30    5.50
  -2  12   5   38.30    7.00
   1 -12  -5   24.30    5.30
   1 -12  -5   32.30    8.30
  -1  12   5   17.20    4.30
  -1  12   5   19.40    4.90
  -1  12   5   19.00    4.30
   1  12  -5   21.90    4.20
   0 -12  -5  347.87   14.60
   0 -12  -5  349.17   14.90
   0 -12  -5  344.57   14.20
   0 -12  -5  367.76   19.80
   0  12   5  363.06   15.60
   0  12   5  349.47   15.10
   0  12   5  338.27   13.90
   0  12  -5  367.56   21.30
  -1 -12  -5   36.40    6.00
   1 -12   5   40.90    6.60
  -1 -12  -5   35.50    6.10
  -1  12  -5   40.80    6.90
   1  12   5   44.20    5.90
   1  12   5   46.30    5.90
  -2 -12  -5   18.20    4.90
   2 -12   5   30.10    6.80
  -2  12  -5   15.30    5.70
   2  12   5   21.50    5.10
  -2  12  -5   20.20    3.80
  -2  12  -5   23.50    4.00
   2 -13  -5   10.40    4.00
   2 -13  -5   12.40    5.90
  -2  13   5    6.20    4.40
  -2  13   5   -4.90    4.30
  -2  13   5    6.00    4.30
   1 -13  -5   16.90    6.50
   1 -13  -5    5.70    3.40
   1 -13  -5    2.20    3.50
   1  13  -5    9.80    3.10
  -1  13   5   11.60    3.90
  -1  13   5    8.70    3.90
   0 -13  -5  124.09    8.50
   0 -13  -5  130.69    8.00
   0 -13  -5  145.99   13.10
   0  13  -5  136.69    9.60
   0  13   5  137.19    9.30
   0  13   5  124.69    8.70
   0  13   5  143.29    8.20
   1 -13   5   29.80    5.90
  -1 -13  -5   30.90    5.70
   1  13   5   32.20    6.00
   1  13   5   27.70    5.10
  -1  13  -5   20.10    5.20
   0 -14  -5  110.79    8.40
   0 -14  -5  122.59    8.30
   0 -14  -5  145.89   13.40
   0  14  -5  153.08   10.20
   0  14   5  123.19    9.00
   0  14   5  147.09    9.60
   4   0  -6  270.57   16.10
  -4   0   6  310.67   16.90
   4   0  -6  314.87   16.60
   4   0  -6  296.37   14.90
   4   0  -6  342.47   19.10
   3   0  -6  806.22   28.30
   3   0  -6  809.82   28.20
   3   0  -6  820.22   29.70
  -3   0   6  815.12   28.10
   3   0  -6  787.12   27.40
   2   0  -6  917.31   29.20
   2   0  -6  939.71   33.20
  -2   0   6  917.61   29.00
   2   0  -6  898.51   29.30
   2   0  -6  928.51   29.10
  -2   0   6  902.31   29.00
  -1   0   6 3229.88   87.69
   1   0  -6 3138.39   86.79
   1   0  -6 3340.27   88.19
   1   0  -6 3230.18   87.69
   1   0  -6 3207.38   87.79
  -1   0   6 3095.69   86.89
  -1   0   6 3227.98   87.69
   0   0  -6 2760.62   71.89
   0   0   6 2599.14   71.79
   0   0  -6 2655.73   72.89
   0   0  -6 2634.74   72.79
   0   0   6 2608.94   72.79
   1   0   6 2703.23   75.99
  -1   0  -6 2830.32   75.29
   1   0   6 2603.14   74.99
  -2   0  -6    3.10    2.20
   2   0   6    0.10    2.50
  -2   0  -6    2.20    2.70
   2   0   6    2.50    2.50
  -2   0  -6    1.50    2.20
   3   0   6   18.30    4.90
   4   0   6   11.80    4.80
  -4   0  -6    8.30    4.80
  -4   0  -6   13.80    4.30
   4  -1  -6  188.08   12.10
   4  -1  -6  171.68   15.60
   4  -1  -6  191.48   13.20
   4  -1  -6  185.98   14.50
  -4  -1   6  189.08   13.30
  -4   1   6  202.68   12.40
   4   1  -6  191.88   12.70
  -4   1   6  200.88   13.60
   4   1  -6  193.88   12.80
   4   1  -6  180.08   16.00
   4   1  -6  202.28   14.90
  -3  -1   6   47.70    6.90
   3  -1  -6   50.99    7.10
  -3   1   6   41.00    6.20
  -3   1   6   57.39    7.20
   3   1  -6   35.90    6.50
  -3   1   6   38.10    6.30
   3   1  -6   34.50    5.50
   2  -1  -6  266.77   11.90
   2  -1  -6  250.47   12.10
  -2  -1   6  272.47   11.60
  -2  -1   6  263.57   12.10
   2  -1  -6  248.78   11.70
   2  -1  -6  261.27   11.90
   2   1  -6  272.27   11.70
   2   1  -6  271.37   11.70
   2   1  -6  281.37   12.20
   2   1  -6  250.77   11.70
  -2   1   6  264.37   11.80
  -2   1   6  268.27   11.90
   1  -1  -6  568.54   19.30
  -1  -1   6  576.64   18.70
   1  -1  -6  542.35   18.60
   1  -1  -6  572.34   19.10
   1  -1  -6  600.94   19.50
  -1  -1   6  573.04   18.70
  -1   1   6  614.44   19.40
   1   1  -6  586.64   18.90
  -1   1   6  608.94   19.10
   1   1  -6  600.04   18.80
   1   1  -6  546.75   17.60
  -1   1   6  584.74   19.90
   0  -1   6 4272.97  114.89
   0  -1  -6 4337.57  115.49
   0  -1  -6 4394.96  115.59
   0  -1  -6 4174.28  114.69
   0   1   6 4332.47  115.69
   0   1   6 4212.48  115.39
   0   1   6 4189.28  114.79
   0   1  -6 4347.37  114.99
   0   1  -6 4213.18  114.89
   1  -1   6  162.88    8.20
   1  -1   6  156.28    7.90
  -1  -1  -6  176.88    8.40
   1   1   6  167.68    8.40
  -1   1  -6  169.48    8.10
  -1   1  -6  178.68    8.20
   1   1   6  148.89    7.70
   1   1   6  170.48    8.30
  -2  -1  -6  380.36   15.50
   2  -1   6  364.26   15.50
  -2  -1  -6  364.46   13.90
  -2  -1  -6  373.96   15.30
  -2   1  -6  374.56   14.70
  -2   1  -6  389.56   15.40
   2   1   6  381.86   15.40
   2   1   6  385.56   15.70
  -2   1  -6  367.76   15.00
  -3  -1  -6  243.28   11.40
   3  -1   6  248.28   13.60
  -3  -1  -6  242.88   12.90
  -3  -1  -6  264.37   13.60
   3  -1   6  229.28   12.80
   3   1   6  253.07   13.40
  -3   1  -6  236.68   11.90
  -3   1  -6  242.18   12.80
   3   1   6  247.48   13.50
  -3   1  -6  245.08   16.10
  -4  -1  -6   23.20    6.70
  -4  -1  -6   13.00    4.30
   4  -1   6   19.20    5.90
  -4   1  -6   20.40    4.90
   4   1   6   21.60    6.10
  -4   1  -6   11.30    5.40
   4  -2  -6   91.49    9.70
   4  -2  -6   81.29   10.70
   4  -2  -6  117.19   10.60
  -4  -2   6  117.09   10.80
   4  -2  -6  103.79   11.30
   4   2  -6   79.09    9.50
  -4   2   6  113.19   10.60
   4   2  -6   94.49    9.80
   4   2  -6   87.49    7.80
  -4   2   6  103.89    9.70
   4   2  -6   94.69   11.50
   3  -2  -6   39.10    7.30
   3  -2  -6   43.00    6.40
  -3  -2   6   48.50    6.80
   3  -2  -6   50.89    6.90
   3  -2  -6   47.40    6.80
  -3  -2   6   45.00    5.80
   3   2  -6   53.09    6.50
   3   2  -6   39.80    6.20
   3   2  -6   41.70    5.50
  -3   2   6   38.70    6.60
  -3   2   6   47.20    6.60
  -3   2   6   60.19    7.30
  -2  -2   6  639.14   21.60
   2  -2  -6  661.23   22.70
   2  -2  -6  645.24   22.80
  -2  -2   6  646.64   21.90
   2  -2  -6  651.43   23.30
   2  -2  -6  644.24   22.70
  -2   2   6  661.33   22.80
   2   2  -6  656.53   21.90
   2   2  -6  699.13   22.50
   2   2  -6  657.73   22.20
  -2   2   6  669.43   22.90
   2   2  -6  689.33   22.30
  -2   2   6  660.23   22.80
  -1  -2   6  360.16   12.80
   1  -2  -6  376.36   14.00
  -1  -2   6  364.86   12.80
   1  -2  -6  367.16   13.90
   1  -2  -6  367.66   13.80
   1  -2  -6  363.46   13.90
  -1   2   6  377.86   14.00
  -1   2   6  388.56   14.10
   1   2  -6  380.16   13.10
   1   2  -6  360.76   12.90
  -1   2   6  371.76   13.90
   0  -2   6  917.71   27.10
   0  -2  -6  927.01   28.00
   0  -2  -6  935.81   28.10
   0  -2  -6  916.61   27.90
   0  -2   6  911.61   27.00
   0   2   6  907.71   28.00
   0   2   6  860.91   27.70
   0   2  -6  940.81   27.10
   0   2  -6  915.71   27.10
   0   2   6  925.01   28.20
   1  -2   6  170.48    8.10
  -1  -2  -6  173.38    8.60
  -1  -2  -6  181.18    8.80
   1  -2   6  174.38    8.30
   1   2   6  173.48    8.80
  -1   2  -6  176.98    8.10
   1   2   6  167.18    8.40
   1   2   6  179.38    8.70
  -1   2  -6  171.48    8.20
   2  -2   6  184.28    9.70
  -2  -2  -6  186.68   10.30
   2  -2   6  195.98   10.50
  -2  -2  -6  195.98   10.50
  -2  -2  -6  189.78    8.70
   2   2   6  187.98   10.20
  -2   2  -6  199.88   10.10
   2   2   6  199.38   10.70
  -2   2  -6  207.58   10.60
  -2   2  -6  188.98    9.90
   3  -2   6   27.10    5.70
   3  -2   6   24.20    6.10
  -3  -2  -6   31.80    4.80
   3   2   6   21.60    5.00
  -3   2  -6   21.50    4.60
   3   2   6   22.00    6.50
  -3   2  -6   21.50    4.80
  -3   2  -6   36.10    5.90
   4  -2   6  104.69   11.10
  -4  -2  -6  108.79   10.90
  -4  -2  -6  119.09    8.70
  -4   2  -6   89.89    9.60
   4   2   6  110.59   11.30
  -4   2  -6  100.39   10.90
   4  -3  -6   95.89   15.10
   4  -3  -6   99.29   10.20
  -4  -3   6   94.59    9.80
   4  -3  -6   96.59   11.60
  -4   3   6   97.89   10.10
  -4   3   6   97.79   10.20
   4   3  -6   91.09    9.80
   4   3  -6   88.59   10.90
   4   3  -6   86.59    7.80
   4   3  -6   90.09    9.50
   3  -3  -6   93.99    9.80
   3  -3  -6  101.99    8.60
  -3  -3   6  108.79    8.10
   3  -3  -6  103.29    9.00
  -3  -3   6   90.19    7.30
   3  -3  -6   99.09    8.80
  -3   3   6  110.19    8.70
  -3   3   6   98.69    8.70
   3   3  -6  101.99    7.40
   3   3  -6  107.19    8.30
   3   3  -6  101.79    8.10
  -3   3   6  128.19    9.60
  -2  -3   6  176.18    8.60
   2  -3  -6  177.88   10.50
   2  -3  -6  179.18    9.70
   2  -3  -6  171.68    9.70
  -2  -3   6  176.18    8.70
   2  -3  -6  163.98    9.50
   2   3  -6  184.98    9.00
  -2   3   6  175.48    9.80
   2   3  -6  184.08    9.00
  -2   3   6  189.78   10.10
   2   3  -6  175.78    8.90
  -2   3   6  167.38    9.60
   1  -3  -6  342.27   12.90
  -1  -3   6  320.87   11.30
   1  -3  -6  313.47   13.20
   1  -3  -6  339.57   13.00
  -1  -3   6  331.27   11.40
   1  -3  -6  334.17   12.90
  -1   3   6  309.27   12.70
   1   3  -6  321.67   11.50
  -1   3   6  333.87   13.00
   1   3  -6  293.87   11.30
  -1   3   6  309.77   13.00
   0  -3   6  953.80   27.80
   0  -3   6  931.61   27.60
   0  -3  -6  971.30   29.30
   0  -3  -6  976.60   28.60
   0  -3  -6  943.81   29.20
   0  -3  -6 1005.90   29.80
   0   3  -6  941.21   27.80
   0   3   6  931.91   29.20
   0   3   6  930.71   29.40
   0   3  -6  962.70   27.80
   0   3   6  912.01   31.40
   1  -3   6  483.95   16.70
  -1  -3  -6  524.15   17.90
   1  -3   6  503.05   17.10
  -1  -3  -6  498.85   17.80
   1   3   6  434.66   17.90
   1   3   6  489.95   17.70
  -1   3  -6  514.45   17.00
   1   3   6  505.25   18.00
  -1   3  -6  540.45   18.20
  -1   3  -6  504.95   16.90
  -2  -3  -6  376.26   15.50
   2  -3   6  387.76   15.40
   2  -3   6  328.97   14.30
  -2  -3  -6  362.46   13.10
  -2  -3  -6  341.67   15.00
  -2   3  -6  373.66   14.90
   2   3   6  355.96   15.10
  -2   3  -6  365.46   15.00
  -2   3  -6  377.76   15.30
   2   3   6  380.66   15.90
  -3  -3  -6  481.25   22.40
  -3  -3  -6  480.75   16.90
   3  -3   6  490.55   20.70
  -3  -3  -6  493.25   20.40
   3   3   6  491.45   20.30
  -3   3  -6  456.05   22.50
  -3   3  -6  468.95   20.30
  -3   3  -6  480.05   19.80
   3   3   6  490.75   20.80
  -4  -3  -6   17.20    3.60
   4  -3   6   20.50    6.50
  -4  -3  -6   22.00    6.70
  -4   3  -6   22.80    5.80
   4   3   6   26.90    6.20
  -4   3  -6   26.70    5.70
   4  -4  -6  204.78   14.00
   4  -4  -6  219.88   16.00
  -4  -4   6  215.58   13.10
  -4   4   6  217.58   14.30
  -4   4   6  199.08   13.60
   4   4  -6  193.78   12.40
   4   4  -6  197.38   10.90
   4   4  -6  201.28   12.70
  -3  -4   6  311.57   14.20
   3  -4  -6  324.47   15.60
   3  -4  -6  324.17   18.90
   3  -4  -6  301.87   15.30
   3  -4  -6  309.57   15.40
   3   4  -6  304.77   14.10
   3   4  -6  306.77   13.20
  -3   4   6  303.07   15.10
  -3   4   6  332.67   15.90
   3   4  -6  323.07   16.50
  -3   4   6  322.07   15.70
   2  -4  -6  159.68    9.40
  -2  -4   6  165.68    8.10
   2  -4  -6  162.28    9.70
   2  -4  -6  173.38    9.90
   2  -4  -6  165.58   10.50
  -2  -4   6  168.38    8.10
  -2   4   6  181.28   10.20
  -2   4   6  179.68   10.10
   2   4  -6  173.78    8.50
   2   4  -6  173.08    8.60
  -2   4   6  173.68    9.80
   2   4  -6  175.48    8.50
   1  -4  -6   11.80    2.90
  -1  -4   6   14.20    2.70
  -1  -4   6   16.40    2.90
   1  -4  -6   12.80    3.60
   1  -4  -6   20.80    4.00
   1  -4  -6   11.30    2.90
  -1   4   6   10.70    2.80
   1   4  -6   18.20    3.10
  -1   4   6   12.80    3.20
  -1   4   6   14.30    3.10
   1   4  -6   11.20    2.20
   0  -4  -6  860.11   27.80
   0  -4  -6  894.01   26.30
   0  -4   6  859.21   24.90
   0  -4  -6  873.71   27.00
   0  -4  -6  876.31   27.00
   0  -4   6  793.32   24.70
   0   4  -6  874.91   25.10
   0   4   6  866.71   27.30
   0   4  -6  826.32   24.90
   0   4   6  853.71   27.10
   0   4   6  826.92   27.70
   1  -4   6  103.19    6.30
  -1  -4  -6  112.49    7.20
   1  -4   6  110.29    6.60
   1  -4   6   92.59    5.80
  -1  -4  -6  122.59    7.30
  -1   4  -6  114.99    6.50
  -1   4  -6  114.89    6.30
  -1   4  -6  116.89    7.40
   1   4   6  107.69    7.10
   1   4   6  114.89    7.40
   2  -4   6  229.98   12.20
   2  -4   6  240.98   11.20
  -2  -4  -6  250.67   12.20
   2  -4   6  240.78   11.80
   2   4   6  243.88   12.40
  -2   4  -6  252.57   11.50
  -2   4  -6  240.38   11.50
  -2   4  -6  233.18   11.90
   2   4   6  252.17   12.00
  -3  -4  -6  304.57   15.60
  -3  -4  -6  296.67   15.10
   3  -4   6  311.27   15.70
   3  -4   6  345.77   17.70
  -3   4  -6  296.47   15.20
   3   4   6  319.07   16.00
   3   4   6  303.17   15.20
  -3   4  -6  303.87   15.00
  -3   4  -6  297.07   15.10
  -4  -4  -6   76.19   10.60
   4  -4   6   89.99   12.10
   4  -4   6   94.99   10.70
   4   4   6   84.59   11.10
  -4   4  -6   88.49   10.30
  -4   4  -6   99.29   12.00
  -4   4  -6   89.49   14.60
   4  -5  -6   79.79   10.30
  -4  -5   6   83.39    9.00
   4  -5  -6   88.59   11.70
  -4   5   6   78.09    9.70
   4   5  -6   72.99    6.90
  -4   5   6   73.19   10.60
   4   5  -6   82.79    9.00
   3  -5  -6   62.49    7.50
  -3  -5   6   61.69    6.80
   3  -5  -6   58.39    8.80
   3  -5  -6   61.39   12.00
   3   5  -6   49.99    6.10
   3   5  -6   61.79    5.70
  -3   5   6   51.89    7.50
  -3   5   6   52.79    6.80
   3   5  -6   61.19   10.00
  -3   5   6   50.79    7.70
   2  -5  -6  324.87   14.20
   2  -5  -6  305.17   15.40
  -2  -5   6  301.67   11.60
   2  -5  -6  311.67   14.20
   2  -5  -6  298.77   14.00
  -2  -5   6  326.07   11.80
  -2   5   6  311.27   14.10
   2   5  -6  305.07   12.40
  -2   5   6  307.97   14.10
  -2   5   6  327.67   14.50
   2   5  -6  318.77   12.70
   2   5  -6  297.47   11.90
   1  -5  -6  150.18    8.40
   1  -5  -6  152.58    9.60
   1  -5  -6  147.09    8.40
  -1   5   6  148.09    8.40
   1   5  -6  144.69    6.30
  -1   5   6  164.68    8.70
   1   5  -6  137.09    6.20
  -1   5   6  151.78    8.70
   0  -5   6  342.87   11.10
   0  -5  -6  344.47   12.80
   0  -5  -6  347.87   13.60
   0  -5  -6  339.27   14.60
   0  -5  -6  344.37   14.00
   0   5   6  341.27   13.80
   0   5   6  353.06   13.70
   0   5  -6  324.07   11.20
   0   5  -6  334.87   11.20
  -1  -5  -6  965.20   28.70
   1  -5   6 1035.40   31.50
  -1  -5  -6  961.30   30.90
   1  -5   6  947.01   29.00
   1  -5   6  969.20   29.50
  -1  -5  -6  995.00   31.00
  -1   5  -6  991.80   29.40
   1   5   6  991.30   31.40
   1   5   6  944.31   30.90
  -1   5  -6 1003.80   31.70
  -1   5  -6 1021.40   29.80
   2  -5   6   78.99    8.10
  -2  -5  -6  104.29    8.20
   2  -5   6   95.09    7.00
   2   5   6  104.09    8.10
   2   5   6  104.09    8.10
  -2   5  -6   91.89    7.10
  -2   5  -6   96.69    7.80
  -2   5  -6  104.09    8.50
   3  -5   6   30.10    5.80
   3  -5   6   35.50    6.30
   3  -5   6   39.60    8.20
  -3  -5  -6   36.40    6.50
  -3  -5  -6   53.29    8.00
  -3   5  -6   50.99    7.20
   3   5   6   54.69    7.60
   3   5   6   45.90    7.80
  -3   5  -6   51.49    7.20
  -3   5  -6   52.39    6.50
   4  -5   6   40.70    7.60
  -4  -5  -6   44.80    7.90
   4  -5   6   51.59   10.90
   4   5   6   59.49    9.90
  -4   5  -6   50.89    9.10
  -4   5  -6   47.10    8.60
  -4   5  -6   45.50    7.50
   4  -6  -6   10.90    4.40
  -4  -6   6    3.30    4.50
   4  -6  -6   13.80    7.00
   4   6  -6    7.60    4.10
   4   6  -6    5.30    2.70
   4   6  -6    8.10    4.50
  -4   6   6    4.20    5.10
  -4   6   6    9.30    4.30
   3  -6  -6  137.29   12.40
   3  -6  -6  134.59   10.20
  -3  -6   6  128.99    8.50
   3  -6  -6  124.09   10.20
  -3   6   6  127.09   10.00
   3   6  -6  127.79    7.70
   3   6  -6  129.19    8.50
  -3   6   6  133.29   10.40
   3   6  -6  134.49    8.70
  -3   6   6  134.39   10.80
   2  -6  -6  182.18   11.90
   2  -6  -6  171.78   10.20
   2  -6  -6  170.18   10.50
   2  -6  -6  180.88   10.40
   2   6  -6  165.08    7.80
  -2   6   6  171.48   10.30
   2   6  -6  162.88    8.00
  -2   6   6  173.88   10.70
   2   6  -6  137.09    8.20
   2   6  -6  172.08    8.70
  -2   6   6  159.68   10.10
   1  -6  -6  142.79    8.60
   1  -6  -6  132.39    9.60
   1  -6  -6  125.29    8.20
   1  -6  -6  125.19    8.00
  -1   6   6  148.09    8.80
  -1   6   6  135.99    8.50
  -1   6   6  137.99    8.50
   0  -6  -6  330.77   13.60
   0  -6  -6  341.97   15.30
   0  -6  -6  324.27   13.50
   0  -6  -6  332.47   12.60
   0   6   6  327.57   13.60
   0   6   6  337.67   14.00
   0   6  -6  340.97   13.90
  -1  -6  -6  468.05   18.30
   1  -6   6  492.75   16.40
  -1  -6  -6  496.85   18.50
  -1  -6  -6  489.85   16.10
   1  -6   6  515.75   16.90
   1  -6   6  446.36   19.70
  -1   6  -6  538.75   19.60
   1   6   6  525.35   19.20
   1   6   6  485.35   18.50
  -1   6  -6  536.95   17.10
  -1   6  -6  519.05   16.80
   2  -6   6   91.59    7.60
  -2  -6  -6  107.39    8.20
   2  -6   6   93.99    6.80
   2  -6   6   87.89    8.00
  -2   6  -6   96.89    7.50
   2   6   6   92.99    8.00
  -2   6  -6   97.79    8.40
   2   6   6   98.79    8.10
  -2   6  -6   93.29    7.00
   3  -6   6   61.99    9.70
   3  -6   6   77.99    8.50
  -3  -6  -6   73.79    9.10
  -3   6  -6   87.29    8.70
  -3   6  -6   77.19    7.70
   3   6   6   77.29    8.90
  -3   6  -6   71.69    8.30
   3   6   6   73.19    8.20
   4  -6   6   29.90    9.00
   4  -6   6   26.90    6.60
  -4  -6  -6   27.70    7.20
   4   6   6   30.50    7.20
  -4   6  -6   26.20    6.30
  -4   6  -6   26.40    6.30
  -4   6  -6   22.10    6.20
   4  -7  -6   53.29   10.70
  -4  -7   6   32.50    6.60
   4  -7  -6   50.29    9.10
  -4   7   6   37.20    7.40
   4   7  -6   45.20    7.60
  -4   7   6   55.09   10.20
   4   7  -6   48.60    8.00
   3  -7  -6   36.70    7.00
  -3  -7   6   27.70    5.00
   3  -7  -6   34.80    8.30
  -3  -7   6   22.10    4.80
  -3   7   6   37.60    7.10
  -3   7   6   44.70    7.10
  -3   7   6   32.50    5.90
   3   7  -6   37.40    5.30
   3   7  -6   32.10    5.50
   3   7  -6   33.50    5.50
   2  -7  -6  239.28   12.70
   2  -7  -6  250.87   12.60
   2  -7  -6  242.18   14.50
   2   7  -6  221.08   10.50
  -2   7   6  232.58   12.50
  -2   7   6  241.68   14.00
  -2   7   6  249.28   13.30
   2   7  -6  241.18   10.70
   1  -7  -6  110.39    7.70
   1  -7  -6  103.19    9.20
   1  -7  -6  115.59    7.90
   1  -7  -6  105.49    7.90
  -1   7   6  109.99    8.00
  -1   7   6  117.89    8.00
  -1   7   6  102.69    8.20
   0  -7  -6   54.69    5.70
   0  -7  -6   49.10    5.40
   0  -7  -6   48.90    6.90
   0  -7  -6   49.80    5.00
   0   7   6   46.60    5.50
   0   7  -6   48.50    5.70
   0   7   6   48.80    5.70
  -1  -7  -6  186.88   10.00
  -1  -7  -6  210.08   10.50
   1  -7   6  201.18    8.30
   1  -7   6  204.98    9.30
   1   7   6  218.08   11.00
   1   7   6  202.38   10.60
  -1   7  -6  218.58    9.20
  -1   7  -6  205.58   11.30
  -1   7  -6  195.68    8.60
  -2  -7  -6   24.50    4.70
   2  -7   6   16.30    3.50
   2  -7   6   17.70    4.10
   2  -7   6   20.90    4.70
   2   7   6   20.10    4.30
   2   7   6   29.90    6.40
  -2   7  -6   16.00    4.20
  -2   7  -6   20.90    3.90
  -2   7  -6   21.40    4.50
  -3  -7  -6   83.29    9.60
   3  -7   6   77.59    8.60
   3  -7   6   88.89   11.90
   3   7   6   99.19    9.50
  -3   7  -6   69.19    8.10
   3   7   6   71.09    9.00
  -3   7  -6   83.69    9.20
  -3   7  -6   86.59    8.10
   3  -8  -6   61.69   10.00
   3  -8  -6   58.19    7.70
  -3   8   6   52.69    7.90
   3   8  -6   57.49    6.10
  -3   8   6   56.79    8.40
   3   8  -6   42.50    5.40
  -3   8   6   38.60    7.50
   2  -8  -6  383.36   19.30
   2  -8  -6  380.66   16.50
  -2   8   6  379.66   16.80
   2   8  -6  334.37   14.20
  -2   8   6  373.26   17.30
  -2   8   6  368.96   16.60
   1  -8  -6  333.97   14.60
   1  -8  -6  330.87   17.00
   1  -8  -6  349.87   14.80
   1  -8  -6  337.87   14.60
  -1   8   6  338.17   14.60
  -1   8   6  360.66   15.30
   1   8  -6  336.47   14.10
  -1   8   6  331.17   14.60
   0  -8  -6  145.69    8.50
   0  -8  -6  141.99    8.60
   0  -8  -6  143.59    7.90
   0  -8  -6  146.49   10.90
   0   8  -6  155.48    9.20
   0   8   6  154.88    9.30
   0   8   6  147.09    8.80
   1  -8   6  135.99    7.50
  -1  -8  -6  120.39    8.20
  -1  -8  -6  117.59    8.20
  -1   8  -6  138.19    9.30
   1   8   6  115.39    8.30
  -1   8  -6  125.79    6.80
   1   8   6  127.79    8.70
  -1   8  -6  119.59    6.20
  -2  -8  -6    7.30    3.40
  -2  -8  -6    6.00    3.40
   2  -8   6    5.60    3.20
   2  -8   6    6.50    3.20
   2  -8   6    9.70    3.80
  -2   8  -6    7.60    2.90
   2   8   6    8.20    3.40
   2   8   6   17.60    5.90
  -2   8  -6    7.00    3.40
  -2   8  -6    5.10    2.90
   3  -8   6   21.70    6.30
  -3  -8  -6   15.80    5.30
   3  -8   6   19.20    5.40
  -3   8  -6   18.50    5.20
   3   8   6   24.60    5.40
   3   8   6   21.50    6.20
  -3   8  -6   19.90    4.60
  -3   8  -6   20.50    5.00
   3  -9  -6   78.89   10.80
   3  -9  -6   74.09   10.40
  -3   9   6   62.19    9.90
  -3   9   6   68.79    9.50
  -3   9   6   72.79    9.30
   2  -9  -6  156.38   11.00
   2  -9  -6  164.48   13.30
   2  -9  -6  149.99   10.60
   2  -9  -6  157.28   10.50
  -2   9   6  168.68   10.60
  -2   9   6  161.38   11.20
  -2   9   6  178.68   11.10
   1  -9  -6   53.79    5.90
   1  -9  -6   51.19    7.90
   1  -9  -6   54.39    6.10
  -1   9   6   47.90    6.10
   1   9  -6   43.30    4.10
   1   9  -6   48.50    5.80
  -1   9   6   50.39    6.20
  -1   9   6   52.19    6.20
   0  -9  -6   14.90    3.80
   0  -9  -6   29.10    8.60
   0  -9  -6   16.30    3.30
   0  -9  -6   23.00    4.40
   0   9   6   13.50    3.60
   0   9  -6   19.90    4.10
   1  -9   6   27.70    4.60
  -1  -9  -6   27.30    5.10
  -1   9  -6   28.70    6.80
   1   9   6   30.00    5.40
   1   9   6   18.70    4.20
   2  -9   6  271.07   13.60
   2  -9   6  254.17   11.90
  -2  -9  -6  257.57   13.30
  -2  -9  -6  232.28   13.20
  -2   9  -6  261.77   14.60
  -2   9  -6  256.27   11.70
  -2   9  -6  272.87   12.50
   2   9   6  280.97   13.90
   3  -9   6   43.60    7.10
  -3  -9  -6   54.49    8.80
   3  -9   6   71.89    9.00
  -3   9  -6   63.39   14.00
  -3   9  -6   43.20    7.80
   3   9   6   59.29    8.90
  -3   9  -6   58.89    9.10
   3 -10  -6   52.49   10.50
  -3  10   6   47.30    9.50
  -3  10   6   32.90    9.80
  -3  10   6   42.10    7.40
   2 -10  -6  144.19   11.10
   2 -10  -6  157.38   10.30
   2 -10  -6  152.68   13.40
   2  10  -6  151.98    8.70
  -2  10   6  152.08   10.80
  -2  10   6  149.99   11.20
  -2  10   6  141.79   10.50
   1 -10  -6   12.90    3.80
   1 -10  -6   20.90    4.40
   1 -10  -6   14.30    5.50
   1 -10  -6   17.00    4.20
  -1  10   6   23.10    4.90
   1  10  -6   19.60    3.90
  -1  10   6   18.60    4.00
  -1  10   6   17.90    4.20
   0 -10  -6   53.89    5.40
   0 -10  -6   70.79    8.80
   0 -10  -6   51.19    5.90
   0  10  -6   46.70    5.90
   0  10  -6   71.29    6.90
   0  10   6   53.79    6.10
  -1 -10  -6    1.80    2.80
  -1 -10  -6    3.40    3.00
   1 -10   6    4.00    2.70
   1  10   6    3.60    3.20
   1  10   6   -0.90    2.80
  -1  10  -6    2.40    3.00
   2 -10   6   31.90    4.80
   2 -10   6   33.80    4.80
  -2 -10  -6   27.30    5.40
   2 -10   6   26.60    5.60
  -2  10  -6   33.30    4.90
  -2  10  -6   33.60    6.30
   2  10   6   41.90    6.90
   2  10   6   32.60    8.50
  -2  10  -6   32.50    5.60
   3 -10   6    8.90    5.10
  -3 -10  -6    5.50    5.40
   3 -10   6   -0.20    3.80
   3  10   6   15.40    5.20
  -3  10  -6   12.00    4.40
  -3  10  -6    6.70    6.30
   3  10   6   15.00    5.60
  -3  10  -6    8.40    4.50
   2 -11  -6   29.70    5.20
   2 -11  -6   36.20    8.70
  -2  11   6   29.60    6.00
  -2  11   6   33.20    6.30
  -2  11   6   33.30    6.10
   2  11  -6   31.40    5.10
   1 -11  -6    8.90    3.60
   1 -11  -6    7.20    3.30
   1 -11  -6    7.20    4.70
   1 -11  -6    7.20    3.40
  -1  11   6    9.40    3.90
   1  11  -6    3.10    2.80
  -1  11   6    6.70    3.40
   0 -11  -6  109.19    7.30
   0 -11  -6  106.49    9.20
   0 -11  -6  103.69    7.80
   0 -11  -6  106.09   11.10
   0  11   6  106.39    8.20
  -1 -11  -6   80.89    8.50
  -1 -11  -6   87.09   11.00
   1 -11   6   93.89    7.40
  -1  11  -6   85.19    8.70
   1  11   6   92.69    7.90
   1  11   6   89.39    7.80
  -2 -11  -6   18.70    5.00
   2 -11   6   19.40    5.40
  -2  11  -6    9.30    4.60
   2  11   6   20.20    4.90
  -2  11  -6   18.00    4.30
   2  11   6   26.00    5.40
   2 -12  -6   25.80    5.30
   2 -12  -6   32.80    7.90
  -2  12   6   21.60    5.60
  -2  12   6   23.40    5.70
  -2  12   6   24.10    7.60
   1 -12  -6   34.10    6.50
   1 -12  -6   31.90    5.70
   1 -12  -6   41.90    9.00
  -1  12   6   33.50    5.80
   1  12  -6   38.90    5.70
  -1  12   6   35.00    6.50
  -1  12   6   29.80    5.10
   0 -12  -6   10.60    3.00
   0 -12  -6   14.00    4.40
   0 -12  -6    5.90    5.40
   0  12  -6    8.40    3.70
   0  12   6   11.10    4.10
   0  12   6   15.50    4.00
   1 -12   6   53.59    6.80
  -1 -12  -6   57.59    7.00
  -1  12  -6   57.09    7.80
   1  12   6   52.19    6.80
   1  12   6   53.09    6.50
   2 -12   6    2.90    5.80
  -2 -12  -6    3.80    4.70
  -2  12  -6    7.30    5.10
   2  12   6    0.80    6.60
   2  12   6    8.60    4.20
   1 -13  -6   42.20    6.30
   1 -13  -6   48.10    7.30
  -1  13   6   46.60    6.80
   1  13  -6   47.80    7.80
  -1  13   6   46.10    6.90
  -1  13   6   39.60    7.20
   0 -13  -6   30.30    4.70
   0 -13  -6   28.10    8.60
   0 -13  -6   22.10    5.00
   0  13   6   29.00    5.30
   0  13   6   19.40    4.50
   0  13  -6   29.30    5.30
  -1 -13  -6  159.88   10.60
   1 -13   6  178.98   11.00
   1  13   6  169.08   10.80
  -1  13  -6  153.18   12.00
   1  13   6  159.78   10.60
   4   0  -7  321.57   16.50
  -4   0   7  346.07   24.50
   4   0  -7  360.36   18.30
   4   0  -7  358.66   18.10
   4   0  -7  342.77   19.40
  -3   0   7  899.31   30.90
   3   0  -7  874.61   35.70
   3   0  -7  903.41   31.60
   3   0  -7  926.81   31.10
   3   0  -7  851.51   29.90
   2   0  -7    9.40    3.00
  -2   0   7   13.30    3.00
   2   0  -7    7.80    2.80
   2   0  -7   12.00    3.80
   2   0  -7   11.50    3.30
  -2   0   7    9.90    2.80
  -1   0   7  924.31   27.20
   1   0  -7  866.61   27.10
  -1   0   7  829.22   26.70
   1   0  -7  876.01   26.80
   1   0  -7  829.12   26.80
   1   0  -7  837.32   26.00
  -1   0   7  837.32   25.80
   0   0   7  160.48    7.00
   0   0  -7  175.28    8.20
   0   0  -7  167.28    8.10
   0   0   7  167.98    8.20
  -1   0  -7    1.80    1.90
   1   0   7    0.00    1.90
  -1   0  -7    3.20    2.20
   1   0   7    3.00    2.00
   1   0   7    5.80    4.40
  -2   0  -7   29.20    4.70
   2   0   7   29.70    5.20
  -2   0  -7   31.20    5.30
  -2   0  -7   37.40    5.70
  -3   0  -7  221.58   12.70
  -3   0  -7  253.17   13.60
   3   0   7  253.47   14.20
   3   0   7  208.88   15.60
  -3   0  -7  240.78   12.00
  -4   0  -7  138.19   12.30
  -4   0  -7  134.39   10.40
   4   0   7  131.29   12.60
  -4  -1   7  374.36   18.60
   4  -1  -7  380.76   20.30
   4  -1  -7  363.46   18.60
   4  -1  -7  360.56   18.20
   4   1  -7  365.06   18.20
  -4   1   7  375.56   19.10
   4   1  -7  359.56   18.30
   4   1  -7  366.16   19.80
   4   1  -7  337.57   16.70
   3  -1  -7  256.67   13.50
   3  -1  -7  269.57   16.60
   3  -1  -7  236.38   13.90
   3  -1  -7  258.37   13.10
  -3  -1   7  268.17   13.60
   3   1  -7  247.58   12.50
  -3   1   7  275.27   14.10
   3   1  -7  246.38   13.90
  -3   1   7  238.58   12.80
   3   1  -7  272.07   13.40
  -2  -1   7  144.79    8.40
  -2  -1   7  141.89    8.30
   2  -1  -7  136.09    8.60
   2  -1  -7  151.68    9.00
   2  -1  -7  131.79    8.70
   2  -1  -7  154.78    9.20
   2   1  -7  153.38    8.70
   2   1  -7  158.88    8.70
   2   1  -7  135.09    8.40
   2   1  -7  155.08    8.50
  -2   1   7  159.78    9.10
  -2   1   7  164.68    9.10
   1  -1  -7 1765.82   50.79
  -1  -1   7 1791.52   50.09
   1  -1  -7 1761.32   50.09
   1  -1  -7 1790.42   50.79
   1  -1  -7 1801.32   50.69
  -1  -1   7 1741.73   49.99
  -1   1   7 1758.72   50.09
   1   1  -7 1774.02   50.29
   1   1  -7 1624.14   48.30
  -1   1   7 1778.42   50.69
   1   1  -7 1754.52   49.99
  -1   1   7 1732.73   50.69
   0  -1  -7  473.75   16.60
   0  -1  -7  459.45   16.40
   0  -1   7  468.85   16.20
   0  -1   7  458.15   16.00
   0  -1  -7  479.35   16.10
   0   1   7  464.05   15.80
   0   1   7  458.05   16.50
   0   1  -7  451.85   15.80
   0   1  -7  482.35   16.20
   1  -1   7  440.16   17.40
  -1  -1  -7  463.65   16.80
  -1  -1  -7  448.36   16.50
   1  -1   7  476.45   17.00
   1  -1   7  431.66   15.20
   1   1   7  467.75   17.00
  -1   1  -7  457.75   16.40
   1   1   7  441.26   17.20
   1   1   7  433.46   16.00
   2  -1   7   62.99    6.20
  -2  -1  -7   73.19    7.00
  -2  -1  -7   61.89    5.70
   2  -1   7   60.49    6.80
  -2  -1  -7   63.39    6.40
   2   1   7   67.99    7.00
  -2   1  -7   65.59    6.20
  -2   1  -7   65.89    6.80
   2   1   7   57.19    6.20
  -2   1  -7   66.49    6.50
   3  -1   7   55.69    7.40
  -3  -1  -7   60.49    7.50
  -3  -1  -7   62.09    8.10
   3  -1   7   52.09    7.90
  -3  -1  -7   56.19    6.50
   3   1   7   68.19    9.90
  -3   1  -7   62.59    7.30
  -3   1  -7   65.49    7.20
   3   1   7   76.49    9.40
  -3   1  -7   68.49    8.00
  -4  -1  -7   42.20    7.20
  -4  -1  -7   64.29   10.00
   4  -1   7   62.59   10.00
  -4   1  -7   55.99    9.80
  -4   1  -7   61.39    8.60
   4   1   7   53.79    9.50
  -4  -2   7   62.19    9.30
   4  -2  -7   39.80    7.40
   4  -2  -7   55.29    9.90
  -4   2   7   42.70    7.80
   4   2  -7   29.80    6.30
   4   2  -7   56.89    8.40
   4   2  -7   42.10    6.40
  -4   2   7   63.79    9.40
   4   2  -7   40.10    8.50
  -3  -2   7  341.37   15.30
   3  -2  -7  339.27   18.30
   3  -2  -7  336.17   15.80
   3  -2  -7  324.27   15.40
   3  -2  -7  332.67   16.70
   3   2  -7  339.17   17.60
   3   2  -7  328.77   15.20
  -3   2   7  319.17   17.20
  -3   2   7  319.67   15.40
  -3   2   7  316.77   15.60
   3   2  -7  337.67   16.00
   3   2  -7  323.27   14.50
   2  -2  -7  554.04   20.50
  -2  -2   7  553.94   19.60
   2  -2  -7  578.74   20.90
   2  -2  -7  593.74   21.30
  -2  -2   7  583.34   19.90
   2  -2  -7  581.94   21.30
   2   2  -7  528.85   19.40
   2   2  -7  561.74   19.70
  -2   2   7  580.14   20.80
  -2   2   7  550.64   20.70
   2   2  -7  572.54   20.20
   2   2  -7  591.74   20.10
   1  -2  -7   36.40    4.50
  -1  -2   7   42.60    4.20
   1  -2  -7   41.10    4.80
   1  -2  -7   38.10    4.80
  -1  -2   7   45.30    4.40
   1  -2  -7   38.20    4.50
  -1   2   7   32.60    4.20
   1   2  -7   34.80    4.10
  -1   2   7   39.00    4.80
  -1   2   7   33.10    4.70
   1   2  -7   38.10    4.30
   0  -2   7  262.97   10.30
   0  -2  -7  263.17   11.00
   0  -2  -7  249.08   10.70
   0  -2  -7  259.67   11.10
   0  -2   7  265.97   10.50
   0   2  -7  263.97   10.30
   0   2   7  267.57   11.40
   0   2   7  250.17   10.70
   0   2  -7  269.27   10.50
   0   2   7  256.97   11.10
   1  -2   7  255.07   10.90
   1  -2   7  269.87   11.30
  -1  -2  -7  268.57   11.70
  -1  -2  -7  264.87   11.70
  -1   2  -7  268.87   11.20
   1   2   7  273.37   12.00
   1   2   7  254.37   11.60
   1   2   7  238.58   11.10
  -2  -2  -7  470.95   16.60
  -2  -2  -7  464.95   18.30
  -2  -2  -7  469.15   18.40
   2  -2   7  447.46   17.70
   2  -2   7  475.35   18.40
  -2   2  -7  456.65   17.80
   2   2   7  451.55   18.20
  -2   2  -7  466.65   18.00
  -2   2  -7  474.75   18.10
   2   2   7  456.85   18.70
   3  -2   7  261.97   14.30
  -3  -2  -7  210.18   16.80
  -3  -2  -7  257.17   11.80
  -3  -2  -7  259.57   14.00
   3  -2   7  250.67   13.80
  -3   2  -7  242.68   13.30
   3   2   7  280.07   14.50
  -3   2  -7  266.17   14.20
   3   2   7  277.97   14.90
  -3   2  -7  289.07   15.00
   4  -2   7  150.78   13.10
  -4  -2  -7  148.59   10.20
  -4  -2  -7  181.28   13.60
   4   2   7  154.08   13.50
  -4   2  -7  155.78   11.80
  -4   2  -7  152.18   12.70
   4  -3  -7   34.60    8.40
   4  -3  -7   29.40    6.40
  -4  -3   7   26.60    6.60
  -4   3   7   25.00    6.60
   4   3  -7   34.80    6.50
  -4   3   7   24.10    6.20
   4   3  -7   26.30    7.10
   4   3  -7   27.00    6.00
   4   3  -7   42.80    8.10
   3  -3  -7  122.19   13.50
  -3  -3   7  127.69    9.00
   3  -3  -7  110.19    9.20
   3  -3  -7  112.69    9.50
   3  -3  -7  120.39   10.40
   3   3  -7  133.19    9.50
  -3   3   7  109.39    9.40
  -3   3   7  138.99   10.10
   3   3  -7  103.09    9.40
   3   3  -7  114.69    8.80
   3   3  -7  117.99    8.30
  -3   3   7  105.89    9.00
   2  -3  -7  692.53   24.10
   2  -3  -7  658.03   24.50
   2  -3  -7  689.23   23.90
  -2  -3   7  683.03   22.60
  -2  -3   7  704.53   22.60
   2  -3  -7  685.03   23.90
   2   3  -7  650.53   22.40
  -2   3   7  698.23   24.30
   2   3  -7  712.43   23.10
   2   3  -7  670.53   22.40
   2   3  -7  678.83   22.90
  -2   3   7  653.63   23.70
  -2   3   7  674.23   24.00
   1  -3  -7  190.18    9.70
   1  -3  -7  195.38    9.70
  -1  -3   7  189.88    8.20
   1  -3  -7  192.48    9.70
  -1  -3   7  189.38    8.40
  -1   3   7  200.58    9.90
   1   3  -7  193.28    8.50
  -1   3   7  179.68    9.50
   1   3  -7  184.28    8.30
  -1   3   7  190.98    9.70
   0  -3  -7  824.52   25.10
   0  -3  -7  781.82   25.60
   0  -3  -7  824.42   25.70
   0  -3   7  799.42   24.20
   0  -3  -7  769.82   25.80
   0  -3   7  807.92   24.40
   0   3   7  770.12   25.60
   0   3   7  789.52   25.90
   0   3   7  761.92   25.70
   0   3  -7  804.12   24.30
   0   3  -7  790.62   24.10
   1  -3   7 1095.59   34.30
  -1  -3  -7 1138.19   35.50
  -1  -3  -7 1127.59   35.50
   1  -3   7 1136.19   34.70
   1   3   7 1127.49   35.50
  -1   3  -7 1202.18   34.90
  -1   3  -7 1203.68   34.60
   1   3   7 1189.28   36.10
  -2  -3  -7  761.32   23.90
   2  -3   7  801.12   26.30
   2  -3   7  741.83   25.60
  -2  -3  -7  786.72   26.50
   2   3   7  715.73   26.00
  -2   3  -7  756.72   25.90
  -2   3  -7  728.03   25.50
  -2   3  -7  728.63   25.90
   2   3   7  738.43   26.60
  -3  -3  -7  197.18   11.90
  -3  -3  -7  176.28    9.20
   3  -3   7  193.18   12.60
  -3  -3  -7  192.88   15.00
   3   3   7  177.28   12.10
  -3   3  -7  180.18   11.50
  -3   3  -7  176.68   11.50
  -3   3  -7  199.38   12.50
   3   3   7  191.58   12.10
  -4  -3  -7   48.10    6.70
  -4  -3  -7   65.69   10.10
   4  -3   7   77.19   10.20
  -4   3  -7   46.00   12.70
  -4   3  -7   59.09    8.90
   4   3   7   52.99    9.70
   4  -4  -7  121.19   12.30
  -4  -4   7  106.19   10.60
   4  -4  -7  115.59   11.10
   4   4  -7   89.69    7.90
  -4   4   7  109.49   11.40
  -4   4   7   98.29   10.90
   4   4  -7  100.29    9.90
   4   4  -7  115.29   10.50
   4   4  -7   89.09   11.00
   3  -4  -7   53.69    8.90
   3  -4  -7   58.69    7.70
  -3  -4   7   48.80    7.50
   3  -4  -7   40.20    6.60
  -3   4   7   75.49   12.30
   3   4  -7   56.19    6.10
   3   4  -7   60.19    6.90
   3   4  -7   50.99    6.30
  -3   4   7   48.40    7.00
   3   4  -7   33.40    7.00
  -2  -4   7   34.50    4.40
   2  -4  -7   22.60    4.30
  -2  -4   7   36.80    4.70
   2  -4  -7   23.10    4.20
   2  -4  -7   33.40    5.60
   2  -4  -7   33.20    6.20
  -2   4   7   19.80    4.10
   2   4  -7   30.40    4.70
   2   4  -7   35.20    4.60
  -2   4   7   30.30    5.50
  -2   4   7   34.40    5.70
   2   4  -7   24.10    4.40
   2   4  -7   33.20    4.80
   1  -4  -7  884.21   29.00
   1  -4  -7  895.51   28.90
  -1  -4   7  868.81   26.60
   1  -4  -7  871.51   29.70
   1  -4  -7  910.51   28.90
  -1  -4   7  880.41   26.40
   1   4  -7  894.31   26.80
  -1   4   7  896.71   29.30
  -1   4   7  895.71   29.10
   1   4  -7  985.50   30.20
   0  -4  -7   12.70    2.70
   0  -4  -7    9.30    3.10
   0  -4  -7   13.80    3.40
   0  -4   7   11.20    2.20
   0  -4  -7   13.70    3.30
   0  -4   7   11.00    2.20
   0   4   7   10.40    3.50
   0   4  -7   11.40    2.60
   0   4   7   14.80    3.50
   0   4  -7    7.90    2.20
   1  -4   7  265.97   10.60
   1  -4   7  277.87   11.30
   1  -4   7  300.07   11.90
  -1  -4  -7  295.77   12.80
  -1  -4  -7  275.47   12.50
  -1   4  -7  298.27   13.00
   1   4   7  287.47   12.70
  -1   4  -7  292.87   11.80
  -1   4  -7  277.17   11.30
   1   4   7  286.67   12.90
  -2  -4  -7  985.10   32.00
   2  -4   7  964.50   31.30
  -2  -4  -7  974.40   28.80
   2  -4   7  926.11   30.80
   2   4   7  922.51   31.60
  -2   4  -7  952.90   31.80
  -2   4  -7  942.91   30.80
  -2   4  -7  974.70   31.40
   2   4   7  938.21   32.10
   3  -4   7  139.29   11.30
  -3  -4  -7  138.89   11.00
   3  -4   7  157.18   11.20
   3  -4   7  142.19   11.90
  -3  -4  -7  124.49   10.30
  -3   4  -7  128.69    9.80
   3   4   7  138.39   10.70
  -3   4  -7  140.29   10.40
   3   4   7  144.59   11.30
  -3   4  -7  146.29   10.80
   4  -4   7   95.99   11.00
  -4  -4  -7   82.59   10.60
   4  -4   7   86.29   12.60
  -4   4  -7   91.49   10.30
   4   4   7   64.29   10.60
  -4   4  -7   77.89   10.20
   4  -5  -7   91.19   11.40
   4  -5  -7   91.29   10.50
  -4  -5   7   89.39    9.70
   4   5  -7   88.69    8.80
   4   5  -7   69.39    7.40
  -4   5   7   86.19   10.90
   4   5  -7   84.69   10.40
   4   5  -7   72.79    9.20
  -4   5   7   94.39   10.40
  -3  -5   7  190.68   10.10
   3  -5  -7  184.68   13.50
   3  -5  -7  184.08   11.90
   3  -5  -7  173.38   16.50
   3   5  -7  193.08   10.50
   3   5  -7  183.88   10.60
  -3   5   7  154.88   11.30
   3   5  -7  175.78    9.80
  -3   5   7  186.18   12.20
  -3   5   7  184.88   11.90
  -2  -5   7  210.58    9.40
   2  -5  -7  207.08   11.60
   2  -5  -7  215.58   12.80
   2  -5  -7  216.18   11.70
   2  -5  -7  207.38   11.70
  -2  -5   7  208.38    9.30
   2   5  -7  212.68   10.30
  -2   5   7  224.38   12.00
  -2   5   7  217.98   12.10
  -2   5   7  225.98   11.90
   2   5  -7  222.68    9.80
   2   5  -7  212.78    9.90
   1  -5  -7   70.09    7.10
   1  -5  -7   79.39    6.60
  -1  -5   7   71.99    4.40
   1  -5  -7   83.59    6.80
   1  -5  -7   61.89    6.30
   1   5  -7   62.39    4.70
   1   5  -7   78.09    4.90
  -1   5   7   79.39    8.00
   0  -5  -7    4.60    2.60
   0  -5  -7    4.60    2.20
   0  -5  -7    5.80    2.70
   0  -5  -7    2.30    3.00
   0  -5   7    6.00    1.80
   0  -5   7    3.80    1.90
   0   5   7    6.70    3.00
   0   5  -7    7.60    2.10
   0   5   7    6.90    2.80
   0   5  -7    6.40    2.00
   1  -5   7  986.30   29.80
   1  -5   7  933.91   29.20
  -1  -5  -7  947.11   29.00
  -1  -5  -7 1017.60   31.60
  -1  -5  -7  968.70   31.20
   1   5   7  938.11   31.20
   1   5   7  993.40   31.90
  -1   5  -7  941.71   29.40
  -1   5  -7  965.80   31.80
  -1   5  -7  981.70   29.80
   2  -5   7  278.97   14.20
   2  -5   7  289.87   13.10
   2  -5   7  286.47   13.40
  -2  -5  -7  291.47   14.20
  -2   5  -7  285.67   13.00
   2   5   7  303.47   15.10
  -2   5  -7  298.67   14.70
  -2   5  -7  314.97   13.70
   2   5   7  302.67   14.40
   3  -5   7  177.18   11.70
  -3  -5  -7  165.28   12.10
   3  -5   7  168.58   13.00
   3   5   7  172.68   12.40
  -3   5  -7  161.18   11.60
  -3   5  -7  161.78   11.10
  -3   5  -7  152.38   10.60
   3   5   7  166.48   11.60
   4  -5   7   62.99   11.00
   4  -5   7   68.59   10.10
  -4  -5  -7   52.49    9.20
  -4   5  -7   52.49    9.20
  -4   5  -7   48.30    9.80
   4   5   7   76.29   10.50
  -4  -6   7    8.50    4.60
   4  -6  -7   18.00    5.40
   4  -6  -7   15.50    6.40
   4   6  -7   12.70    4.30
  -4   6   7   14.10    5.60
   4   6  -7   13.10    4.80
   4   6  -7   10.50    5.40
  -4   6   7    8.00    6.20
   3  -6  -7  274.97   20.00
   3  -6  -7  245.88   14.10
  -3  -6   7  229.88   11.30
   3  -6  -7  229.28   14.20
   3  -6  -7  265.07   16.00
   3   6  -7  234.38   11.40
  -3   6   7  210.98   16.60
  -3   6   7  252.27   14.40
  -3   6   7  240.38   14.00
   3   6  -7  246.78   11.80
   3   6  -7  237.58   11.70
  -2  -6   7  324.87   11.80
   2  -6  -7  327.17   15.00
   2  -6  -7  326.57   16.80
   2  -6  -7  312.77   15.10
   2  -6  -7  316.17   15.10
   2   6  -7  333.07   12.60
   2   6  -7  317.67   13.40
  -2   6   7  326.97   15.20
   2   6  -7  340.87   12.40
  -2   6   7  347.27   15.60
  -2   6   7  330.57   15.40
   2   6  -7  309.67   12.40
   1  -6  -7  229.98   11.70
   1  -6  -7  236.98   12.00
   1  -6  -7  238.28   13.30
   1  -6  -7  240.48   11.50
  -1   6   7  259.07   12.50
  -1   6   7  238.98   11.70
   0  -6  -7 1183.68   34.60
   0  -6  -7 1115.09   35.60
   0  -6  -7 1152.78   37.60
   0  -6  -7 1147.09   35.70
   0   6   7 1129.09   36.00
   0   6   7 1147.59   35.90
   0   6  -7 1160.18   32.60
   0   6  -7 1061.99   32.30
  -1  -6  -7  191.28   10.60
  -1  -6  -7  185.88   10.30
  -1  -6  -7  201.48    8.50
   1  -6   7  199.08    8.90
   1  -6   7  197.48    8.70
   1   6   7  195.88   11.00
   1   6   7  173.18   10.30
  -1   6  -7  184.18    8.70
  -1   6  -7  196.48    9.20
  -1   6  -7  193.98   11.20
   2  -6   7   39.90    6.20
   2  -6   7   32.40    4.80
   2  -6   7   54.19    6.20
  -2  -6  -7   51.39    6.80
   2   6   7   42.20    6.60
  -2   6  -7   38.60    5.10
   2   6   7   34.90    6.30
  -2   6  -7   50.09    6.80
   3  -6   7  101.89    9.30
   3  -6   7   89.69   12.70
  -3  -6  -7   94.79    9.90
  -3   6  -7   93.09    8.50
   3   6   7  103.59    9.50
   3   6   7  100.89   10.40
  -3   6  -7   95.79    9.30
  -3   6  -7   86.89    9.40
   4  -7  -7   18.20    7.20
   4  -7  -7   12.20    5.30
  -4  -7   7   15.60    5.20
  -4   7   7   13.80    5.40
   4   7  -7   24.60    6.00
   4   7  -7    5.00    3.50
   4   7  -7    7.10    4.10
  -4   7   7    9.20    5.20
   3  -7  -7  131.49   12.60
   3  -7  -7  132.79   10.50
  -3  -7   7  109.39    7.40
  -3   7   7  127.19   10.50
  -3   7   7  108.59   13.00
   3   7  -7  103.49    7.60
  -3   7   7  132.99   10.60
   3   7  -7  121.99    8.00
   3   7  -7  106.89    7.80
   2  -7  -7   80.19    7.70
   2  -7  -7   71.09   10.00
   2   7  -7   67.49    8.20
   2   7  -7   69.39    5.10
  -2   7   7   83.69    9.80
  -2   7   7   75.99    8.00
  -2   7   7   72.49    7.50
   1  -7  -7 1039.60   35.80
   1  -7  -7 1048.30   33.30
   1  -7  -7 1019.20   33.30
   1  -7  -7 1063.19   35.50
  -1   7   7 1054.79   33.30
  -1   7   7 1049.09   33.90
  -1   7   7  934.51   35.40
   0  -7  -7  140.89    8.80
   0  -7  -7  143.49    8.80
   0  -7  -7  140.89    8.00
   0  -7  -7  152.38   10.90
   0   7   7  139.99    9.30
   0   7   7  133.19    8.80
   0   7  -7  145.79    9.10
  -1  -7  -7   29.00    5.30
   1  -7   7   36.40    4.10
   1  -7   7   29.40    4.10
  -1  -7  -7   27.60    3.80
  -1  -7  -7   35.50    5.50
  -1   7  -7   36.70    4.60
   1   7   7   33.30    5.40
   1   7   7   36.10    5.40
  -1   7  -7   38.80    5.80
   2  -7   7  128.39    8.40
   2  -7   7  121.99    8.60
  -2  -7  -7  135.19    9.50
   2   7   7  141.39    9.70
   2   7   7  126.29    9.50
  -2   7  -7  120.49    8.50
  -2   7  -7  113.99    7.90
  -2   7  -7  129.99    9.90
   3  -7   7   34.20    6.50
   3  -7   7   40.70    8.30
  -3  -7  -7   26.40    5.80
   3   7   7   40.70    7.30
  -3   7  -7   27.00    5.90
  -3   7  -7   26.90    6.20
  -3   7  -7   31.20    5.70
   3  -8  -7  333.67   19.80
   3  -8  -7  315.37   16.70
   3   8  -7  329.77   13.20
  -3   8   7  322.47   16.90
  -3   8   7  340.37   16.80
   3   8  -7  306.17   13.30
   3   8  -7  294.37   13.00
  -3   8   7  350.16   18.00
   2  -8  -7   93.49   10.30
   2  -8  -7   70.89   11.90
   2  -8  -7   86.79    8.50
  -2   8   7   93.09    8.50
  -2   8   7   96.29    8.60
   2   8  -7  101.29    6.10
  -2   8   7  100.99    9.20
   1  -8  -7   78.59    7.10
   1  -8  -7   71.99    6.70
   1  -8  -7   81.39    9.20
  -1   8   7   77.49    7.20
  -1   8   7   72.69    7.00
  -1   8   7   86.09   12.00
   0  -8  -7  295.87   13.90
   0  -8  -7  303.67   13.90
   0  -8  -7  318.47   16.60
   0  -8  -7  371.26   18.10
   0   8   7  321.47   14.70
   0   8   7  319.67   14.30
   0   8  -7  345.37   15.00
  -1  -8  -7  301.77   13.80
  -1  -8  -7  288.67   10.90
   1   8   7  262.27   14.00
   1   8   7  305.37   14.30
  -1   8  -7  309.87   11.70
  -1   8  -7  286.77   20.10
  -2  -8  -7   57.39    7.30
   2  -8   7   55.59    6.70
  -2  -8  -7   48.90    7.10
   2  -8   7   52.29    6.00
  -2   8  -7   51.19    7.40
  -2   8  -7   48.40    6.10
   2   8   7   51.19    7.10
   2   8   7   45.10    7.00
  -3  -8  -7   50.29    9.20
   3  -8   7   52.69    8.10
   3  -8   7   38.80    7.50
   3   8   7   55.89    8.30
  -3   8  -7   40.20    5.80
   3   8   7   51.69    8.50
  -3   8  -7   40.80    7.70
  -3   8  -7   38.70    6.80
   3  -9  -7  220.38   13.90
   3  -9  -7  242.78   17.10
  -3   9   7  229.98   14.60
  -3   9   7  239.28   15.10
   3   9  -7  207.58   10.30
  -3   9   7  197.68   13.80
   2  -9  -7  220.18   15.30
   2  -9  -7  222.88   12.90
   2  -9  -7  217.68   12.60
  -2   9   7  225.88   13.20
  -2   9   7  241.98   13.50
  -2   9   7  206.38   12.60
   2   9  -7  216.58   10.10
   1  -9  -7   74.49    7.10
   1  -9  -7   65.09    7.50
   1  -9  -7   89.09    9.60
   1  -9  -7   78.49    7.40
  -1   9   7   86.59    7.70
  -1   9   7   79.89    7.30
   1   9  -7   84.29    7.20
  -1   9   7   90.59    7.70
   0  -9  -7  235.98   11.90
   0  -9  -7  243.98   11.10
   0  -9  -7  246.08   14.70
   0   9  -7  245.78   12.60
   0   9   7  231.78   12.10
  -1  -9  -7  166.98   10.30
  -1  -9  -7  162.08   10.10
   1   9   7  185.88   11.10
   1   9   7  157.28   10.80
  -1   9  -7  193.98   11.50
   2  -9   7   28.00    5.40
   2  -9   7   29.50    4.90
   2  -9   7   34.80    6.00
  -2  -9  -7   34.30    6.10
   2   9   7   30.90    5.90
  -2   9  -7   31.40    5.70
  -2   9  -7   30.10    5.00
   2   9   7   42.20    7.10
  -2   9  -7   26.80    6.10
  -3  -9  -7   14.70    6.60
   3  -9   7   20.50    5.70
   3  -9   7   15.80    6.00
  -3   9  -7   14.90    4.40
  -3   9  -7   20.70    8.70
   3   9   7    8.00    5.20
   3   9   7    7.40    5.60
  -3   9  -7   12.40    5.80
   3 -10  -7  127.29   10.90
   3 -10  -7  126.69   13.50
  -3  10   7  122.19   12.20
  -3  10   7  121.39   11.30
  -3  10   7  117.29   10.80
   2 -10  -7  223.18   12.90
   2 -10  -7  230.68   16.20
  -2  10   7  218.98   13.00
  -2  10   7  238.48   13.60
  -2  10   7  228.98   13.50
   2  10  -7  208.68   11.10
   1 -10  -7    7.10    3.20
   1 -10  -7    3.60    3.00
   1 -10  -7    1.80    4.40
   1 -10  -7    3.20    2.70
  -1  10   7    4.00    3.30
  -1  10   7    5.80    3.20
  -1  10   7    2.00    3.00
   1  10  -7    0.00    2.30
   0 -10  -7  123.49   11.40
   0 -10  -7  115.99    7.50
   0 -10  -7  128.49    9.00
   0 -10  -7  111.49    8.40
   0  10   7  119.09    8.70
   0  10  -7  103.99   12.40
  -1 -10  -7   35.50    6.00
   1 -10   7   25.40    4.60
  -1 -10  -7   30.80    5.70
   1  10   7   41.30    7.90
   1  10   7   30.60    5.40
  -1  10  -7   28.80    5.40
   2 -10   7  181.08    9.20
  -2 -10  -7  175.88   11.80
   2 -10   7  182.08   11.00
   2 -10   7  153.48    8.90
   2  10   7  173.68   11.60
  -2  10  -7  170.18   10.10
   2  10   7  184.68   12.10
  -2  10  -7  176.68    9.20
  -2  10  -7  172.68   12.90
   2 -11  -7   31.60    6.30
   2 -11  -7   47.10    9.80
  -2  11   7   27.30    5.80
   2  11  -7   28.30    5.10
  -2  11   7   30.50    6.20
  -2  11   7   19.80    5.80
   1 -11  -7   97.79   11.10
   1 -11  -7   87.29    7.90
  -1  11   7   73.89    8.20
   1  11  -7   90.79    7.80
  -1  11   7   93.29    8.50
  -1  11   7   80.69    7.70
   0 -11  -7  211.78   15.10
   0 -11  -7  226.88   11.90
   0 -11  -7  215.58   10.80
   0  11   7  221.88   12.90
   0  11  -7  229.58   12.80
  -1 -11  -7   77.79    7.80
   1  11   7   76.29    7.90
   1  11   7   65.99    9.60
  -1  11  -7   72.59    8.60
   2 -11   7  146.39   10.20
  -2 -11  -7  120.19   10.70
  -2  11  -7  128.49    9.40
  -2  11  -7  133.19    8.60
   2  11   7  123.09   10.30
  -2  11  -7  129.19   16.20
   2  11   7  140.19   11.70
   2 -12  -7   34.30    6.30
   2 -12  -7   43.50    9.80
   2  12  -7   25.60    4.20
  -2  12   7   17.70    5.80
  -2  12   7   31.60    6.80
  -2  12   7   17.90    5.50
   1 -12  -7  248.98   13.60
   1 -12  -7  247.28   17.10
   1 -12  -7  245.38   13.20
   1  12  -7  253.07   13.40
  -1  12   7  256.47   13.30
  -1  12   7  262.17   14.30
  -1  12   7  248.18   13.80
   0 -12  -7   17.00    6.30
   0 -12  -7    9.50    3.10
   0 -12  -7   14.40    4.10
   0  12   7   10.90    4.70
   0  12   7   11.60    4.60
   0  12  -7   14.80    4.50
  -1 -12  -7   14.10    4.70
   1  12   7   14.20    5.80
   1 -13  -7   41.20    6.40
   1 -13  -7   53.89   10.00
   1  13  -7   34.60    6.00
  -1  13   7   36.30    6.50
  -1  13   7   44.60    6.90
  -1  13   7   47.40    8.10
   0 -13  -7  136.89   13.40
   0 -13  -7  123.99    8.00
   0 -13  -7  111.19    9.00
   0  13   7  131.99   11.20
   0  13  -7  127.69   10.20
   0  13   7  103.19   11.70
   4   0  -8  467.05   28.80
   4   0  -8  457.05   22.40
  -4   0   8  460.35   22.20
   4   0  -8  480.45   22.00
   3   0  -8  897.71   31.70
   3   0  -8  860.71   30.60
   3   0  -8  884.31   30.90
  -3   0   8  911.91   31.20
   3   0  -8  920.51   31.40
  -2   0   8   64.69    6.50
   2   0  -8   65.29    6.10
   2   0  -8   64.39    6.20
   2   0  -8   66.39    6.50
   2   0  -8   65.59    6.60
  -2   0   8   62.29    6.20
   1   0  -8   17.60    3.40
   1   0  -8   18.50    3.60
   1   0  -8   23.60    4.20
  -1   0   8   27.00    4.30
   1   0  -8   26.00    4.40
  -1   0   8   17.60    3.50
  -1   0   8   23.50    4.10
   0   0  -8 2475.65   67.49
   0   0  -8 2355.26   67.09
   0   0   8 2451.25   69.09
   0   0   8 2270.97   65.59
   1   0   8  185.28   12.20
  -1   0  -8  191.68    9.80
   1   0   8  189.28    9.70
  -1   0  -8  198.78    9.80
   1   0   8  196.88   10.10
  -3   0  -8   70.99   12.30
   3   0   8   59.39    8.60
  -3   0  -8   66.69    8.20
  -3   0  -8   57.79    6.90
   3   0   8   61.09    7.80
  -4   0  -8   15.60    5.10
  -4   0  -8   22.70    7.60
   4   0   8   17.80    5.60
   4  -1  -8  252.27   16.50
   4  -1  -8  228.38   14.70
  -4  -1   8  239.38   14.90
   4  -1  -8  261.37   15.50
   4   1  -8  230.38   14.90
   4   1  -8  253.97   15.20
   4   1  -8  241.38   15.70
  -4   1   8  233.28   15.10
   3  -1  -8  200.78   11.90
   3  -1  -8  220.08   12.60
  -3  -1   8  227.98   12.40
   3  -1  -8  182.48   12.60
   3  -1  -8  207.38   12.50
   3   1  -8  224.78   12.20
  -3   1   8  227.48   12.80
   3   1  -8  202.58   12.10
   3   1  -8  218.58   11.90
   3   1  -8  202.38   12.30
  -2  -1   8  230.08   11.30
   2  -1  -8  231.68   11.40
   2  -1  -8  234.88   11.80
  -2  -1   8  229.18   11.30
   2  -1  -8  240.28   11.90
   2  -1  -8  222.28   16.20
   2   1  -8  218.28   10.40
   2   1  -8  238.48   11.40
  -2   1   8  237.98   11.90
   2   1  -8  237.78   11.50
   2   1  -8  226.78   11.30
  -2   1   8  226.38   11.40
  -1  -1   8  465.25   16.50
   1  -1  -8  431.16   15.90
   1  -1  -8  464.15   16.90
   1  -1  -8  446.86   16.90
   1  -1  -8  461.75   17.00
  -1  -1   8  482.05   16.70
  -1   1   8  440.16   16.10
  -1   1   8  456.65   17.00
  -1   1   8  441.46   16.80
   1   1  -8  459.75   16.40
   1   1  -8  431.36   14.60
   1   1  -8  436.46   16.40
   0  -1  -8  109.99    6.30
   0  -1  -8  104.79    6.80
   0  -1   8   90.39    6.50
   0  -1  -8   92.79    6.50
   0  -1   8  105.49    6.90
   0   1  -8  103.59    6.60
   0   1   8   93.09    5.90
   0   1  -8   94.89    6.20
   0   1   8   98.99    7.60
  -1  -1  -8  187.08    9.80
   1  -1   8  161.98    8.00
   1  -1   8  189.88    9.70
   1  -1   8  170.58    9.10
  -1  -1  -8  192.98   10.00
   1   1   8  164.68    8.70
   1   1   8  175.78    9.50
  -1   1  -8  197.08    9.60
   1   1   8  178.68    9.80
  -1   1  -8  190.78    9.40
  -2  -1  -8  166.08   10.10
   2  -1   8  159.18    9.70
  -2  -1  -8  162.68    9.10
   2  -1   8  174.98   10.40
  -2  -1  -8  177.28   10.40
   2   1   8  165.28   10.10
  -2   1  -8  161.48   10.10
  -2   1  -8  155.98    9.60
   2   1   8  153.58   10.30
  -2   1  -8  171.18    9.70
   3  -1   8   39.20    7.70
  -3  -1  -8   33.10    6.30
  -3  -1  -8   37.20    6.00
   3  -1   8   28.70    5.50
  -3  -1  -8   25.50    5.10
   3   1   8   28.20    5.70
  -3   1  -8   40.10    7.20
   3   1   8   27.30    5.50
  -3   1  -8   41.20    7.20
  -3   1  -8   34.90    8.20
   4  -1   8   80.59   11.10
  -4  -1  -8   63.69   10.40
  -4  -1  -8   56.79    8.40
  -4   1  -8   63.29    9.20
   4   1   8   66.19   10.70
  -4   1  -8   75.99   13.60
   4  -2  -8   82.39    9.80
   4  -2  -8   62.99   10.00
  -4  -2   8   75.09    9.70
   4   2  -8   56.69    9.50
  -4   2   8   63.79    9.80
   4   2  -8   74.59    9.30
   4   2  -8   72.39    8.90
  -3  -2   8   17.40    4.40
   3  -2  -8    9.70    4.20
   3  -2  -8   14.30    5.50
   3  -2  -8    9.90    4.40
  -3   2   8    9.20    4.10
   3   2  -8   13.10    5.80
  -3   2   8   11.30    3.90
   3   2  -8   13.50    4.20
   3   2  -8    7.70    4.60
   3   2  -8    9.70    3.60
   2  -2  -8  105.09    7.90
  -2  -2   8  107.29    7.40
   2  -2  -8  114.59    8.10
  -2  -2   8  101.59    8.00
   2  -2  -8  102.39    8.20
   2  -2  -8  117.69    8.30
   2   2  -8  102.99    7.60
   2   2  -8   98.89    7.50
  -2   2   8  102.19    8.10
  -2   2   8  116.29    8.60
   2   2  -8  112.69    7.70
   2   2  -8   86.29    6.70
   1  -2  -8  426.96   16.40
  -1  -2   8  423.76   15.20
   1  -2  -8  405.36   16.00
  -1  -2   8  415.96   15.30
   1  -2  -8  437.16   16.30
   1  -2  -8  412.66   15.70
  -1   2   8  403.76   16.20
  -1   2   8  421.16   16.20
  -1   2   8  416.66   15.80
   1   2  -8  414.06   15.20
   1   2  -8  400.66   15.20
   0  -2   8 1763.32   50.29
   0  -2  -8 1712.63   50.49
   0  -2   8 1748.82   50.39
   0  -2  -8 1760.72   51.09
   0  -2  -8 1749.12   51.09
   0   2  -8 1718.63   49.99
   0   2   8 1720.33   50.59
   0   2   8 1771.22   53.09
   0   2  -8 1781.62   50.29
  -1  -2  -8  337.37   14.30
   1  -2   8  351.36   14.30
   1  -2   8  303.77   12.10
   1  -2   8  325.77   13.50
  -1  -2  -8  364.86   14.70
   1   2   8  375.26   15.20
  -1   2  -8  355.06   13.80
  -1   2  -8  358.26   14.00
  -2  -2  -8   11.90    2.90
   2  -2   8   12.00    4.00
  -2  -2  -8    9.80    3.40
  -2   2  -8    8.80    3.00
  -2   2  -8   10.70    3.80
   2   2   8   10.70    3.90
  -2   2  -8    8.60    3.00
   2   2   8   10.60    3.30
  -3  -2  -8  167.38   12.00
  -3  -2  -8  179.28   12.00
   3  -2   8  181.78   12.70
   3  -2   8  192.98   17.90
  -3  -2  -8  182.48   10.00
  -3   2  -8  190.38   11.80
   3   2   8  196.78   12.30
   3   2   8  181.58   12.80
  -3   2  -8  183.68   11.30
  -3   2  -8  186.78   12.20
  -4  -2  -8    9.40    5.90
  -4  -2  -8   19.80    7.30
   4  -2   8   14.30    6.50
   4   2   8    5.20    8.90
  -4   2  -8   14.70    5.50
  -4   2  -8   15.80    5.00
   4  -3  -8   39.20    8.70
   4  -3  -8   38.60    7.60
  -4  -3   8   37.30    7.10
   4   3  -8   42.10    9.00
   4   3  -8   31.50    6.40
   4   3  -8   28.60    5.30
   4   3  -8   48.90    8.60
  -4   3   8   28.20    6.50
   3  -3  -8   95.59   11.80
   3  -3  -8   93.39    8.50
   3  -3  -8   86.09    8.70
   3  -3  -8   91.59    8.70
  -3  -3   8   99.49    8.20
   3   3  -8   71.49    8.40
   3   3  -8   93.49    7.80
  -3   3   8  102.79    9.40
   3   3  -8   91.69    8.00
  -3   3   8   74.19    8.10
   3   3  -8   96.49    7.90
   2  -3  -8  412.06   16.90
  -2  -3   8  409.66   15.50
  -2  -3   8  413.76   15.50
   2  -3  -8  395.16   17.00
   2  -3  -8  405.56   17.40
   2  -3  -8  407.96   17.00
   2   3  -8  408.06   16.10
   2   3  -8  417.46   15.70
  -2   3   8  386.36   16.80
  -2   3   8  402.56   17.10
   2   3  -8  402.96   15.70
   2   3  -8  390.86   14.70
   1  -3  -8  534.05   20.40
  -1  -3   8  557.24   18.80
   1  -3  -8  575.24   20.40
   1  -3  -8  575.44   20.50
  -1  -3   8  563.04   18.90
   1  -3  -8  546.35   20.30
   1   3  -8  550.84   19.00
   1   3  -8  580.44   19.10
  -1   3   8  607.54   20.80
  -1   3   8  555.64   20.50
   0  -3   8 1318.17   38.00
   0  -3   8 1303.77   38.00
   0  -3  -8 1309.07   38.80
   0  -3  -8 1286.57   39.30
   0  -3  -8 1281.27   40.00
   0  -3  -8 1290.07   39.30
   0   3  -8 1301.87   38.00
   0   3   8 1251.57   39.80
   0   3  -8 1236.58   37.70
   0   3   8 1300.97   40.00
   0   3   8 1304.77   39.80
  -1  -3  -8 1077.09   34.30
  -1  -3  -8 1094.79   34.50
   1  -3   8 1085.69   33.60
   1  -3   8 1038.30   33.10
  -1   3  -8 1141.09   33.80
   1   3   8 1094.59   34.90
   1   3   8 1063.69   34.30
  -2  -3  -8  144.69    8.00
  -2  -3  -8  142.69    9.90
   2  -3   8  156.88   10.10
  -2  -3  -8  157.28   10.20
   2  -3   8  111.09   12.40
  -2   3  -8  146.59   10.70
   2   3   8  153.68   10.10
   2   3   8  142.69    9.80
  -2   3  -8  138.29    9.30
  -2   3  -8  136.09    9.30
  -3  -3  -8   64.49    9.90
   3  -3   8   60.89    8.40
  -3  -3  -8   51.29    8.40
  -3  -3  -8   62.19    6.20
  -3   3  -8   59.39    7.60
  -3   3  -8   51.29    7.10
   3   3   8   44.90    7.90
  -3   3  -8   68.79    8.60
   3   3   8   54.39    8.60
  -4  -3  -8   36.50    8.00
   4  -3   8   31.00    6.90
  -4  -3  -8   34.60    5.60
  -4   3  -8   51.99    9.20
   4   3   8   38.00    7.80
  -4   3  -8   22.20    6.10
  -4  -4   8   51.09    8.70
   4  -4  -8   58.39    9.60
   4  -4  -8   68.99   10.30
  -4   4   8   73.89   10.10
   4   4  -8   47.20    9.00
   4   4  -8   58.69    8.90
  -4   4   8   55.99    8.90
   4   4  -8   61.99    7.30
   4   4  -8   63.29    8.70
   3  -4  -8   45.40   10.10
   3  -4  -8   54.29    7.50
   3  -4  -8   47.20    7.20
   3  -4  -8   58.19    8.50
  -3  -4   8   55.39   10.30
  -3  -4   8   49.00    6.30
   3   4  -8   51.79    6.60
  -3   4   8   48.20    7.70
  -3   4   8   55.59    7.70
  -3   4   8   43.50    7.10
   3   4  -8   43.00    6.70
   3   4  -8   53.59    6.70
   3   4  -8   41.60    7.20
   2  -4  -8   97.19    8.00
   2  -4  -8   81.29    7.60
   2  -4  -8   92.09    7.80
  -2  -4   8   88.69    6.30
   2   4  -8   86.79    6.90
   1  -4  -8  109.59    7.90
   1  -4  -8  116.69    8.00
   1  -4  -8  114.49    7.70
   1  -4  -8  104.49    8.10
  -1  -4   8  110.29    6.20
  -1  -4   8  113.89    6.50
   1   4  -8  113.09    6.60
   1   4  -8  104.19    6.20
  -1   4   8  124.29    8.30
  -1   4   8  107.19    7.80
   0  -4  -8   59.29    6.10
   0  -4   8   53.49    4.80
   0  -4  -8   60.79    6.20
   0  -4   8   61.39    4.80
   0  -4  -8   55.89    5.60
   0  -4  -8   67.69    6.10
   0   4   8   57.79    6.20
   0   4  -8   57.19    4.70
   0   4   8   61.49    5.90
   0   4  -8   53.89    4.90
  -1  -4  -8    8.60    3.10
   1  -4   8    7.30    3.00
  -1  -4  -8   10.30    3.70
   1  -4   8    9.00    2.60
   1   4   8    6.80    3.20
   1   4   8    9.00    3.10
  -1   4  -8    8.80    2.80
  -1   4  -8    6.80    3.30
  -2  -4  -8  665.73   25.10
  -2  -4  -8  670.93   22.00
  -2  -4  -8  637.54   24.60
   2  -4   8  692.83   24.50
  -2   4  -8  672.63   24.00
   2   4   8  675.23   24.90
   2   4   8  700.33   26.80
  -2   4  -8  702.33   26.30
   3  -4   8    7.70    4.80
  -3  -4  -8   19.20    5.50
  -3  -4  -8   14.30    3.20
   3  -4   8    6.00    5.50
  -3   4  -8   14.10    4.50
  -3   4  -8   24.50    5.70
   3   4   8   12.10    4.90
  -3   4  -8   10.20    4.40
   3   4   8   18.20    5.30
  -4  -5   8   15.40    5.70
   4  -5  -8   31.80    8.10
   4  -5  -8   23.20    6.60
   4   5  -8   32.40    6.30
  -4   5   8   29.90    8.00
   4   5  -8   36.40    6.30
   4   5  -8   34.50    6.70
   4   5  -8   26.10    7.20
  -4   5   8   30.70    6.90
  -3  -5   8   39.70    6.30
   3  -5  -8   44.30    7.40
   3  -5  -8   68.69   11.70
   3  -5  -8   47.70    7.40
  -3  -5   8   51.09    6.20
   3   5  -8   32.60    6.30
   3   5  -8   46.90    6.30
  -3   5   8   40.00    7.50
   3   5  -8   48.80    6.40
  -2  -5   8  209.98    9.50
   2  -5  -8  204.68   12.10
   2  -5  -8  222.18   12.10
   2  -5  -8  208.08   11.80
   2  -5  -8  224.18   13.20
  -2  -5   8  216.08    9.90
  -2   5   8  212.78   12.00
   2   5  -8  209.28   10.60
  -2   5   8  226.48   12.30
   2   5  -8  213.58   10.20
  -2   5   8  215.98   12.30
   2   5  -8  210.48    9.90
   1  -5  -8  462.45   18.50
   1  -5  -8  488.35   18.60
   1  -5  -8  486.65   18.20
  -1  -5   8  454.45   15.40
   1  -5  -8  469.35   19.30
  -1   5   8  497.05   18.90
  -1   5   8  455.05   18.50
   1   5  -8  474.85   15.90
   1   5  -8  441.36   15.80
   0  -5  -8  269.27   12.60
   0  -5  -8  252.57   12.30
   0  -5   8  259.87   10.40
   0  -5   8  264.77   10.30
   0  -5  -8  285.17   13.60
   0   5   8  282.07   13.20
   0   5  -8  268.17   10.60
   0   5   8  252.67   12.50
  -1  -5  -8  281.17   13.40
   1  -5   8  246.58   11.20
  -1  -5  -8  258.37   11.10
   1  -5   8  267.07   11.80
  -1  -5  -8  264.57   13.00
  -1   5  -8  281.77   11.90
   1   5   8  273.07   13.00
   1   5   8  273.67   13.50
  -1   5  -8  282.57   13.60
  -2  -5  -8  172.38   11.20
   2  -5   8  165.58   10.20
  -2  -5  -8  176.58    8.40
  -2  -5  -8  172.98   16.20
   2  -5   8  173.58   10.70
   2   5   8  171.88   11.20
   2   5   8  170.38   11.40
  -2   5  -8  180.58    9.90
  -2   5  -8  185.78   10.50
  -2   5  -8  173.98   11.20
  -3  -5  -8    2.80    4.10
   3  -5   8    3.70    5.10
   3  -5   8   -4.10    3.40
   3   5   8   -2.90    3.90
  -3   5  -8    7.90    4.20
  -3   5  -8    4.50    3.60
   3   5   8   10.00    4.90
  -3   5  -8    6.60    4.10
  -4  -6   8   22.00    5.70
   4  -6  -8   31.90    8.70
   4  -6  -8   39.70    8.10
   4   6  -8   20.60    9.90
  -4   6   8   32.20    7.00
   4   6  -8   32.60    6.50
   4   6  -8   22.50    7.20
  -4   6   8   37.10    8.60
  -3  -6   8  126.29    8.20
   3  -6  -8  144.29   10.90
  -3  -6   8  128.59    8.60
   3  -6  -8  137.09   12.30
  -3   6   8  138.69   11.20
   3   6  -8  122.29    9.30
   3   6  -8  130.39    9.00
  -3   6   8  127.59   10.70
   3   6  -8  129.59    8.70
  -3   6   8  111.49   10.10
   3   6  -8  132.89    8.70
  -2  -6   8    2.90    2.10
  -2  -6   8    3.70    2.10
   2  -6  -8    8.40    4.70
   2  -6  -8    3.00    3.50
   2  -6  -8    4.30    3.00
  -2   6   8    5.00    3.70
  -2   6   8    3.10    3.20
   2   6  -8    6.10    2.40
  -2   6   8    3.90    3.80
   2   6  -8    2.20    2.50
   2   6  -8    6.90    2.40
   1  -6  -8   66.39    7.70
   1  -6  -8   60.69    7.00
   1  -6  -8   61.69    6.40
   1  -6  -8   51.99    6.60
  -1   6   8   66.09    7.40
  -1   6   8   65.59    7.00
   1   6  -8   64.49    4.90
   0  -6  -8 1336.27   39.70
   0  -6  -8 1281.27   40.60
   0  -6  -8 1295.57   40.60
   0  -6  -8 1366.96   42.60
   0   6  -8 1224.58   37.30
   0   6  -8 1327.77   37.50
   0   6   8 1300.07   41.20
   0   6   8 1289.17   40.90
  -1  -6  -8  187.98    8.80
   1  -6   8  199.48    9.30
   1  -6   8  167.88    8.40
  -1  -6  -8  201.08   11.00
  -1   6  -8  192.98   11.40
   1   6   8  173.58   10.60
   1   6   8  191.28   11.20
  -1   6  -8  198.28    9.40
   2  -6   8   73.09    7.60
  -2  -6  -8   93.89    8.80
   2  -6   8   97.99    9.60
   2   6   8   96.99    8.80
  -2   6  -8  100.79    8.00
  -2   6  -8   92.19    8.90
  -2   6  -8   97.49    7.40
   2   6   8  101.59    9.00
  -3  -6  -8  229.08   14.30
   3  -6   8  260.07   21.20
   3  -6   8  241.48   14.10
  -3   6  -8  228.88   12.90
  -3   6  -8  219.98   14.30
   3   6   8  238.58   15.10
   3   6   8  211.08   13.90
  -3   6  -8  217.58   13.60
   3  -7  -8   46.30    7.80
  -3  -7   8   56.39    5.50
  -3  -7   8   53.59    6.00
   3  -7  -8   72.69   10.30
   3   7  -8   45.70    6.50
   3   7  -8   62.69    6.30
  -3   7   8   68.49    8.80
  -3   7   8   62.59    8.90
   3   7  -8   48.20    6.10
  -3   7   8   42.30    7.10
   2  -7  -8  219.78   13.00
   2  -7  -8  243.38   15.00
   2  -7  -8  233.78   13.00
   2  -7  -8  215.58   18.60
  -2   7   8  233.68   13.10
  -2   7   8  249.68   13.30
  -2   7   8  230.88   13.20
   1  -7  -8   31.10    5.40
   1  -7  -8   22.90    5.60
   1  -7  -8   24.40    4.70
  -1   7   8   25.10    5.00
  -1   7   8   30.50    5.60
   0  -7  -8  199.18   11.10
   0  -7  -8  216.68   10.50
   0  -7  -8  222.18   13.20
   0   7  -8  228.78   12.00
   0   7   8  215.68   11.60
  -1  -7  -8   16.60    3.00
   1  -7   8   19.00    3.40
  -1  -7  -8   23.20    4.70
   1  -7   8   23.80    3.70
   1   7   8   33.80    5.80
   1   7   8   23.50    4.60
  -1   7  -8   20.20    5.00
   2  -7   8   53.29    6.70
  -2  -7  -8   71.89    8.30
  -2  -7  -8   74.69    7.70
   2  -7   8   70.69    6.80
   2  -7   8   64.29    6.40
   2   7   8   72.19    7.90
  -2   7  -8   67.09    8.00
  -2   7  -8   65.19    6.30
  -2   7  -8   54.99    6.80
  -3  -7  -8   31.30    7.20
   3  -7   8   21.20    6.60
   3  -7   8   23.20    5.70
   3   7   8   25.60    6.80
  -3   7  -8   21.00    5.20
  -3   7  -8   19.10    5.70
   3   7   8   30.10    5.90
  -3   7  -8   18.80    4.70
   3  -8  -8  103.49   11.70
   3  -8  -8  103.19   10.00
  -3   8   8   84.29    9.50
   3   8  -8   93.89    7.80
  -3   8   8   87.09   10.10
  -3   8   8   98.89   10.90
   3   8  -8   79.59    7.00
   2  -8  -8  167.08   11.20
   2  -8  -8  163.88   13.30
   2  -8  -8  147.49   10.70
   2  -8  -8  167.78   11.60
  -2   8   8  161.18   11.50
  -2   8   8  157.88   11.10
  -2   8   8  156.88   11.20
   1  -8  -8  131.79    9.30
   1  -8  -8  132.19    9.10
   1  -8  -8  147.89   11.40
  -1   8   8  139.89    9.90
  -1   8   8  140.49    9.70
   0  -8  -8  276.57   13.40
   0  -8  -8  275.77   12.30
   0  -8  -8  291.27   19.30
   0   8   8  256.77   13.30
   0   8  -8  294.27   14.10
  -1  -8  -8   53.89    4.70
  -1  -8  -8   54.29    7.50
  -1  -8  -8   48.00    6.60
  -1   8  -8   54.99    4.70
   1   8   8   47.90    6.60
  -1   8  -8   53.09    5.50
  -1   8  -8   55.69    7.00
   1   8   8   63.09    7.10
   2  -8   8   53.59    6.00
   2  -8   8   51.29    6.60
   2  -8   8   45.90    6.00
  -2  -8  -8   45.00    7.60
  -2   8  -8   42.30    6.10
  -2   8  -8   59.19    8.00
   2   8   8   53.89    7.50
   2   8   8   37.60    7.00
  -2   8  -8   44.60    5.60
   3  -8   8    1.00    4.50
  -3  -8  -8   14.90    5.90
   3  -8   8   18.20    6.00
   3   8   8    6.00    5.20
  -3   8  -8    7.30    4.50
  -3   8  -8    7.50    7.30
  -3   8  -8   12.20    4.50
   3   8   8   20.30    5.50
   3  -9  -8  134.09   11.20
   3  -9  -8  129.09   13.70
   3   9  -8  119.69    8.60
  -3   9   8  122.29   17.20
  -3   9   8  114.59   15.80
   2  -9  -8   20.00    6.60
   2  -9  -8   27.50    5.40
  -2   9   8   14.70    4.90
  -2   9   8   22.80    5.30
  -2   9   8   23.10    5.10
   1  -9  -8   29.80    4.90
   1  -9  -8   27.50    7.10
   1  -9  -8   26.60    4.90
   1  -9  -8   19.60    4.50
   1   9  -8   29.50    5.30
  -1   9   8   26.10    5.50
  -1   9   8   24.40    5.10
   0  -9  -8  100.09    7.10
   0  -9  -8   92.59    8.00
   0  -9  -8   82.99    7.70
   0  -9  -8   97.99   10.10
   0   9  -8   89.69    8.60
   0   9   8   91.69    8.00
  -1  -9  -8  131.79    9.60
  -1  -9  -8  119.59    9.60
  -1   9  -8  144.99   10.60
   1   9   8  147.99   10.30
   1   9   8  127.89    9.60
  -2  -9  -8   29.60    6.40
   2  -9   8   18.70    4.10
   2  -9   8   28.70    5.60
   2  -9   8   21.40    4.20
  -2   9  -8   26.70    4.70
   2   9   8   31.60    6.40
  -2   9  -8   28.00    5.70
   2   9   8   35.60    6.10
  -2   9  -8   20.20    4.10
   2 -10  -8   15.80    4.70
   2 -10  -8   19.20    6.80
  -2  10   8   14.30    4.70
  -2  10   8   17.00    5.30
   2  10  -8    9.90    3.80
  -2  10   8   19.70    5.00
   1 -10  -8   17.70    6.10
   1 -10  -8   18.10    4.70
  -1  10   8   11.00    4.00
  -1  10   8    7.00    3.80
   1  10  -8    8.20    4.10
   0 -10  -8   15.20    4.60
   0 -10  -8    6.30    2.80
   0 -10  -8   14.20    5.50
   0  10  -8   11.00    3.60
   0  10   8   10.20    4.30
  -1 -10  -8   81.89    8.00
   1  10   8   88.19    8.80
   1  10   8   85.89    8.30
  -1  10  -8   74.59    8.60
  -2 -10  -8   16.10    5.50
   2 -10   8   17.10    4.90
   2  10   8   24.40    5.80
  -2  10  -8   19.10    6.00
  -2  10  -8   18.30    4.20
  -2  10  -8   26.10    4.80
   2  10   8   17.40    5.10
   2 -11  -8   30.10    8.00
   2 -11  -8   34.00    6.50
  -2  11   8   32.60    6.80
  -2  11   8   27.20    9.10
   2  11  -8   30.00    5.60
  -2  11   8   26.00    5.60
   1 -11  -8   98.29   11.50
   1 -11  -8   93.89    8.60
   1 -11  -8  111.89    9.20
   1  11  -8  105.39    8.30
  -1  11   8   96.79    9.20
  -1  11   8  112.29   10.00
   0 -11  -8   56.29    6.10
   0 -11  -8   60.19    9.60
   0 -11  -8   73.89    7.60
   0  11  -8   67.29    7.80
   0  11   8   55.59    7.50
   0  11   8   57.89    7.20
  -1 -11  -8    5.20    4.30
  -1  11  -8    7.40    4.30
   1  11   8    5.90    3.90
   1  11   8    5.10    4.00
   2 -11   8  127.99    9.30
  -2 -11  -8  115.59   11.00
  -2  11  -8  132.09   12.10
   2  11   8  107.89   10.90
   2  11   8  151.58   11.60
  -2  11  -8  122.49    8.40
   1 -12  -8   26.80    7.90
   1 -12  -8   17.80    5.40
   1 -12  -8   14.40    4.10
  -1  12   8    6.60    7.20
  -1  12   8   20.20    4.90
   1  12  -8   15.10    3.90
   0 -12  -8   15.10    4.20
   0 -12  -8    8.00    3.50
   0 -12  -8    6.30    6.00
   0  12   8    4.20    4.00
   0  12   8    2.80    3.50
   0  12  -8    7.70    4.00
   1  12   8   -1.10    3.80
   1  12   8    2.70    5.90
   4   0  -9  526.05   23.50
   4   0  -9  572.54   24.70
  -4   0   9  514.65   23.30
   4   0  -9  452.05   22.80
   3   0  -9   70.09    7.90
  -3   0   9   75.29    8.40
   3   0  -9   66.59    8.80
   3   0  -9   68.79    8.40
   3   0  -9   65.99    8.00
   2   0  -9 2343.07   66.09
  -2   0   9 2294.07   67.09
   2   0  -9 2292.47   67.59
  -2   0   9 2273.17   67.89
   2   0  -9 2369.86   69.69
   2   0  -9 2301.77   66.99
   1   0  -9  207.98   10.30
  -1   0   9  206.88    9.30
   1   0  -9  209.38    9.10
   1   0  -9  211.38   10.50
   1   0  -9  204.98   10.50
  -1   0   9  210.28   10.60
  -1   0   9  215.88   10.40
   0   0   9    5.60    2.30
   0   0  -9    8.90    3.10
   0   0  -9    6.10    2.70
   0   0   9    4.80    2.50
   0   0   9    5.50    2.60
  -1   0  -9   76.59    9.50
   1   0   9   79.69    7.00
   1   0   9   82.19    6.50
   1   0   9   74.09    5.80
  -1   0  -9   79.89    6.80
   2   0   9  329.57   15.70
   2   0   9  314.37   15.10
  -2   0  -9  342.47   14.80
  -2   0  -9  349.47   17.40
  -3   0  -9  148.09   11.90
  -3   0  -9  144.39   11.60
   3   0   9  156.18   12.20
  -3   0  -9  170.98   11.20
  -4  -1   9  163.98   15.90
   4  -1  -9  177.98   13.50
   4  -1  -9  195.48   14.30
  -4   1   9  202.98   13.90
   4   1  -9  206.48   13.70
   4   1  -9  168.28   14.10
   4   1  -9  190.58   13.50
   3  -1  -9  558.54   22.30
   3  -1  -9  543.85   22.10
   3  -1  -9  535.75   22.40
  -3  -1   9  558.84   21.80
   3  -1  -9  547.85   22.80
  -3  -1   9  558.04   21.90
   3   1  -9  546.65   22.20
  -3   1   9  503.25   21.70
   3   1  -9  538.15   21.70
   3   1  -9  560.94   22.00
  -3   1   9  569.84   22.40
   2  -1  -9  836.02   29.70
   2  -1  -9  866.91   29.20
  -2  -1   9  911.41   29.60
   2  -1  -9  906.61   30.00
  -2  -1   9  891.81   29.40
   2  -1  -9  903.91   30.30
   2   1  -9  862.81   28.10
  -2   1   9  887.21   29.90
  -2   1   9  877.21   29.90
   2   1  -9  932.51   29.60
   2   1  -9  876.21   29.80
   2   1  -9  885.31   29.60
  -1  -1   9  243.28   11.80
   1  -1  -9  232.98   10.50
   1  -1  -9  244.68   11.60
  -1  -1   9  246.68   11.30
   1  -1  -9  238.68   11.60
   1  -1  -9  242.98   11.50
  -1   1   9  258.77   11.30
   1   1  -9  249.97   11.20
   1   1  -9  244.18    9.20
  -1   1   9  230.68   11.50
   1   1  -9  239.28   11.30
  -1   1   9  258.07   11.90
   0  -1  -9   54.49    5.70
   0  -1   9   52.39    5.50
   0  -1   9   49.50    5.10
   0  -1  -9   57.99    5.70
   0   1  -9   47.80    5.00
   0   1   9   52.09    5.60
   0   1   9   55.59    5.20
   0   1  -9   56.29    5.50
   1  -1   9   53.29    4.90
   1  -1   9   61.29    5.80
  -1  -1  -9   64.89    6.40
  -1  -1  -9   72.29    6.60
   1  -1   9   63.79    6.20
   1   1   9   71.89    6.70
   1   1   9   63.79    6.30
   1   1   9   62.79    6.90
  -1   1  -9   60.49    6.20
  -1   1  -9   68.89    6.10
   2  -1   9  130.59    9.80
  -2  -1  -9  121.49    9.10
  -2  -1  -9  123.59    8.20
   2   1   9  137.29    9.80
  -2   1  -9  118.29   12.90
  -2   1  -9  121.49    8.80
   2   1   9  124.39    9.30
  -3  -1  -9   52.39    6.70
   3  -1   9   48.10    8.90
  -3  -1  -9   49.30    8.40
  -3  -1  -9   53.69    8.00
  -3   1  -9   53.69    7.20
   3   1   9   34.30    6.90
  -3   1  -9   53.59    8.30
  -3   1  -9   45.80    8.00
  -4  -2   9    9.10    5.20
   4  -2  -9    6.20    5.30
   4  -2  -9    4.00    4.20
   4   2  -9   11.40    4.70
  -4   2   9    3.80    4.40
   4   2  -9    1.00    4.90
   4   2  -9    3.90    4.60
  -3  -2   9  158.38   10.60
   3  -2  -9  173.48   11.90
   3  -2  -9  167.18   11.80
   3  -2  -9  168.18   11.40
   3  -2  -9  180.38   11.60
  -3  -2   9  180.08   11.10
   3   2  -9  154.18   10.50
  -3   2   9  153.08   11.20
   3   2  -9  182.38   11.10
  -3   2   9  170.68   11.60
   3   2  -9  157.78   10.50
   3   2  -9  173.28   10.90
   2  -2  -9   36.60    6.70
  -2  -2   9   44.00    5.60
   2  -2  -9   34.70    5.70
   2  -2  -9   32.80    5.90
   2  -2  -9   37.80    6.00
  -2  -2   9   42.10    5.90
  -2   2   9   40.40    6.30
   2   2  -9   35.50    5.60
  -2   2   9   36.00    6.10
   2   2  -9   32.60    5.30
   2   2  -9   33.90    5.40
   2   2  -9   28.00    4.40
   1  -2  -9  922.61   30.10
   1  -2  -9  937.51   30.90
  -1  -2   9  958.80   30.00
  -1  -2   9  977.00   30.00
   1  -2  -9  976.10   31.10
   1  -2  -9  933.21   30.70
  -1   2   9  964.70   31.20
   1   2  -9  968.80   30.10
   1   2  -9  923.01   30.00
  -1   2   9  917.71   30.90
  -1   2   9  939.91   30.40
   0  -2  -9   69.59    6.50
   0  -2  -9   61.59    5.80
   0  -2  -9   65.49    6.20
   0  -2   9   54.79    5.70
   0  -2   9   58.09    5.50
   0   2  -9   63.99    5.70
   0   2  -9   58.19    5.40
   0   2   9   60.39    6.20
   0   2   9   53.59    5.60
   1  -2   9  366.96   14.90
  -1  -2  -9  379.96   15.70
   1  -2   9  390.36   15.70
   1  -2   9  326.57   13.00
  -1  -2  -9  394.16   16.00
  -1   2  -9  378.96   15.20
   1   2   9  372.16   16.10
   1   2   9  356.56   15.60
  -1   2  -9  388.56   15.10
  -2  -2  -9  157.08   10.30
  -2  -2  -9  154.08    8.80
  -2  -2  -9  138.29   10.00
   2  -2   9  157.98   10.50
   2   2   9  139.39   10.00
  -2   2  -9  140.49   10.10
  -2   2  -9  162.68   10.10
   2   2   9  149.29   10.40
  -2   2  -9  145.39    9.80
  -3  -2  -9   94.79    9.80
  -3  -2  -9   99.79    7.80
  -3   2  -9   97.29    9.10
   3   2   9   95.49   10.10
  -3   2  -9   88.29    9.20
  -3   2  -9   87.29    9.50
   4  -3  -9   35.00    7.90
  -4  -3   9   34.90    6.70
   4  -3  -9   23.30    6.50
   4   3  -9   30.20    6.90
  -4   3   9   33.00    7.20
   4   3  -9   25.30    7.50
   4   3  -9   31.70    7.30
   3  -3  -9  205.08   14.10
  -3  -3   9  191.98   11.40
  -3  -3   9  167.28   10.80
   3  -3  -9  195.58   12.40
   3  -3  -9  202.48   15.00
   3  -3  -9  195.78   12.40
   3   3  -9  207.48   11.60
  -3   3   9  179.58   12.00
   3   3  -9  209.28   12.00
   3   3  -9  192.98   11.60
  -3   3   9  201.38   13.20
   3   3  -9  195.78   11.60
  -2  -3   9   63.19    6.30
   2  -3  -9   62.49    7.20
   2  -3  -9   62.59    7.40
  -2  -3   9   63.89    6.10
   2  -3  -9   52.19    6.70
   2   3  -9   64.49    6.30
  -2   3   9   68.69    7.20
  -2   3   9   66.89    7.50
   2   3  -9   59.29    6.20
   2   3  -9   61.79    6.30
   1  -3  -9  252.77   12.20
  -1  -3   9  243.78   10.90
   1  -3  -9  240.18   11.80
   1  -3  -9  224.68   12.00
  -1  -3   9  239.88   10.60
   1  -3  -9  242.38   11.80
  -1   3   9  245.28   12.30
   1   3  -9  230.48   10.70
  -1   3   9  227.78   12.00
   1   3  -9  249.78   11.00
   0  -3  -9  988.40   31.60
   0  -3   9  961.70   30.20
   0  -3  -9  948.11   31.60
   0  -3  -9  991.40   31.20
   0  -3  -9  982.20   31.80
   0  -3   9  986.70   30.60
   0   3  -9 1012.60   30.60
   0   3   9  966.40   31.80
   0   3  -9  951.00   30.10
   1  -3   9  837.62   27.80
   1  -3   9  755.42   26.00
  -1  -3  -9  788.12   27.20
  -1  -3  -9  822.02   27.60
  -1   3  -9  771.52   26.00
   1   3   9  735.13   27.00
   1   3   9  827.32   28.10
  -1   3  -9  823.12   26.60
   2  -3   9  177.18   11.00
  -2  -3  -9  168.98    9.20
  -2  -3  -9  174.88   11.40
  -2  -3  -9  179.98   11.20
   2   3   9  186.58   11.20
  -2   3  -9  170.18   15.50
  -2   3  -9  169.68   10.70
  -2   3  -9  169.58   10.50
   2   3   9  197.08   14.90
  -3  -3  -9  126.99    8.50
   3  -3   9  144.59   11.40
  -3  -3  -9  143.89   11.70
  -3   3  -9  149.88   10.60
   3   3   9  147.09   12.40
  -3   3  -9  119.29   10.90
  -3   3  -9  139.79   10.60
   4  -4  -9   12.30    5.60
  -4  -4   9   11.30    5.10
   4  -4  -9   13.90    5.80
  -4   4   9   13.20    5.40
   4   4  -9   13.50    5.80
   4   4  -9    9.90    5.10
   4   4  -9   19.90    9.00
   3  -4  -9   13.30    5.30
   3  -4  -9   10.20    4.20
   3  -4  -9    4.80    3.70
  -3  -4   9   13.10    4.10
   3   4  -9   11.80    3.60
   3   4  -9    9.10    3.80
   3   4  -9   14.40    3.70
  -3   4   9    3.80    3.80
   3   4  -9    7.10    4.30
  -3   4   9   12.40    4.30
   2  -4  -9  135.39   10.30
  -2  -4   9  149.39    8.40
  -2  -4   9  143.79    8.30
   2  -4  -9  134.09    9.80
   2  -4  -9  128.99    9.50
   2   4  -9  137.79    8.40
   2   4  -9  146.99    8.40
  -2   4   9  127.29    9.60
   2   4  -9  136.19    8.80
  -2   4   9  145.49   10.10
   1  -4  -9  142.19    9.30
   1  -4  -9  139.59    9.00
   1  -4  -9  123.49    8.40
   1  -4  -9  132.49    9.00
  -1  -4   9  138.89    7.30
  -1   4   9  133.49    9.30
  -1   4   9  124.39    8.90
   1   4  -9  140.29    7.70
   1   4  -9  126.19    7.60
   0  -4  -9  675.33   24.10
   0  -4  -9  707.63   23.50
   0  -4  -9  727.03   24.80
   0  -4  -9  664.73   24.00
   0  -4   9  673.43   22.30
   0  -4   9  681.43   22.30
   0   4  -9  715.33   22.70
   0   4  -9  660.23   22.10
   0   4   9  648.84   24.10
  -1  -4  -9  987.00   33.30
  -1  -4  -9 1043.20   33.80
   1  -4   9  967.30   31.60
   1  -4   9 1046.90   32.30
   1   4   9 1043.20   34.20
  -1   4  -9 1022.40   32.10
  -1   4  -9 1068.79   34.20
   1   4   9  978.80   33.30
  -1   4  -9  970.40   31.60
   2  -4   9  410.56   20.00
   2  -4   9  463.75   18.70
  -2  -4  -9  393.36   21.80
  -2  -4  -9  441.56   19.30
  -2  -4  -9  436.96   16.30
  -2   4  -9  438.06   23.80
  -2   4  -9  436.36   18.40
   2   4   9  421.86   18.80
   2   4   9  443.36   19.50
  -2   4  -9  452.05   19.00
   3  -4   9    5.90    9.00
   3  -4   9   12.90    5.10
  -3  -4  -9   11.60    4.70
  -3  -4  -9   11.50    3.50
   3   4   9    9.40    6.60
  -3   4  -9   15.60    5.00
  -3   4  -9   23.70    5.60
  -3   4  -9   11.60    4.50
   3   4   9   19.60    5.90
  -4  -5   9  155.98   11.80
   4  -5  -9  150.68   18.10
   4  -5  -9  168.08   14.20
   4   5  -9  162.38   12.30
   4   5  -9  184.18   12.50
   4   5  -9  156.28   12.30
   4   5  -9  163.18   12.40
  -4   5   9  146.29   17.20
  -3  -5   9  191.38   10.80
   3  -5  -9  210.68   13.20
   3  -5  -9  193.28   18.60
  -3  -5   9  191.78   10.70
   3  -5  -9  205.28   14.30
   3   5  -9  187.38   11.10
  -3   5   9  200.18   13.10
   3   5  -9  202.38   11.20
  -3   5   9  179.08   12.80
   3   5  -9  190.98   11.20
   3   5  -9  194.58   11.10
  -2  -5   9   39.80    5.10
   2  -5  -9   35.90    6.40
   2  -5  -9   48.80    6.90
   2  -5  -9   43.40    7.40
  -2  -5   9   48.00    5.20
  -2   5   9   40.60    6.60
  -2   5   9   57.89   10.00
   2   5  -9   46.90    5.70
   2   5  -9   46.70    5.50
   2   5  -9   37.30    5.60
  -1  -5   9   91.99    5.90
  -1  -5   9   81.19    5.80
   1  -5  -9   79.89    7.60
   1  -5  -9   88.29    7.40
   1  -5  -9   94.49    8.20
   1  -5  -9   91.19    7.90
  -1   5   9   83.09    7.70
   1   5  -9   93.99    6.20
  -1   5   9   92.79    8.00
   1   5  -9   75.79    5.90
   0  -5   9  403.96   15.00
   0  -5  -9  428.46   18.00
   0  -5   9  420.66   14.90
   0  -5  -9  434.86   16.70
   0  -5  -9  425.66   17.20
   0  -5  -9  401.96   17.00
   0   5  -9  388.76   14.90
   0   5  -9  409.66   15.10
   0   5   9  417.76   17.40
   1  -5   9  239.88   11.40
  -1  -5  -9  221.78   12.40
  -1  -5  -9  241.28   12.00
  -1  -5  -9  232.78   12.70
   1  -5   9  232.98   10.80
   1   5   9  247.18   13.30
  -1   5  -9  229.58   10.80
  -1   5  -9  256.07   13.10
  -1   5  -9  259.87   11.50
   1   5   9  233.78   12.70
  -2  -5  -9   98.69    9.30
   2  -5   9  105.69    8.10
   2  -5   9   89.69    8.00
  -2  -5  -9   94.59    6.70
  -2  -5  -9  108.19    9.40
   2  -5   9  108.69    8.70
   2   5   9   76.49    8.80
   2   5   9  101.29    9.20
  -2   5  -9   88.79    8.90
  -2   5  -9   94.09    7.60
  -2   5  -9   95.49    8.30
  -3  -5  -9  300.67   17.00
   3  -5   9  331.97   17.30
  -3   5  -9  318.87   16.00
   3   5   9  345.67   18.60
  -3   5  -9  324.87   17.10
   3   5   9  321.47   21.80
  -3   5  -9  315.97   16.80
   3  -6  -9   94.49    9.60
  -3  -6   9   72.19    7.50
   3  -6  -9   83.29   10.30
  -3  -6   9   78.09    7.20
   3   6  -9   86.59    7.80
  -3   6   9  103.59   10.20
   3   6  -9   79.89    7.90
   3   6  -9   83.09    7.40
   3   6  -9   84.19    7.60
  -3   6   9   90.09    9.80
  -2  -6   9   20.40    3.90
   2  -6  -9   11.40    4.30
  -2  -6   9   21.40    4.10
   2  -6  -9   13.90    4.50
   2  -6  -9   15.00    4.30
   2  -6  -9   15.10    5.40
   2   6  -9   19.60    4.70
  -2   6   9   12.40    4.30
  -2   6   9   17.60    4.30
   2   6  -9   19.80    3.90
  -1  -6   9  481.85   16.00
   1  -6  -9  503.85   20.80
   1  -6  -9  486.45   19.80
   1  -6  -9  484.85   19.90
   1  -6  -9  523.35   19.70
   1   6  -9  459.75   16.50
   1   6  -9  499.65   16.70
  -1   6   9  477.85   19.90
  -1   6   9  492.35   20.10
   0  -6  -9   30.60    6.20
   0  -6   9   35.20    4.20
   0  -6  -9   38.00    5.50
   0  -6  -9   26.20    5.00
   0  -6   9   21.70    3.60
   0  -6  -9   29.40    5.60
   0   6   9   26.60    5.30
   0   6  -9   25.30    3.90
   0   6  -9   32.30    4.00
   1  -6   9   39.00    4.70
   1  -6   9   33.80    4.80
  -1  -6  -9   33.70    6.20
  -1  -6  -9   27.70    5.30
  -1   6  -9   40.70    5.20
   1   6   9   35.70    6.10
  -1   6  -9   31.60    4.40
   1   6   9   33.30    6.30
  -1   6  -9   38.90    6.30
   2  -6   9  225.38   11.80
  -2  -6  -9  260.67   17.90
   2  -6   9  238.58   12.40
  -2  -6  -9  205.58    9.50
   2  -6   9  220.68   11.50
  -2  -6  -9  241.48   13.90
  -2  -6  -9  233.18   10.00
  -2   6  -9  231.88   11.80
   2   6   9  229.08   13.40
  -2   6  -9  228.88   13.50
  -2   6  -9  234.18   12.40
   2   6   9  234.58   13.80
   3  -6   9  285.77   21.80
   3  -6   9  242.78   14.60
  -3  -6  -9  244.58   15.20
   3   6   9  247.98   16.80
  -3   6  -9  241.98   15.30
  -3   6  -9  239.08   13.90
  -3   6  -9  243.18   14.60
   3   6   9  205.28   21.10
   3  -7  -9   75.59   10.60
   3  -7  -9   70.99    8.80
  -3  -7   9   67.59    6.50
  -3  -7   9   52.89    5.90
  -3   7   9   70.19    9.30
   3   7  -9   62.99    6.50
   3   7  -9   52.99    7.10
   3   7  -9   60.79    6.40
  -3   7   9   64.59    9.30
   3   7  -9   57.99    6.90
   2  -7  -9  442.66   21.30
   2  -7  -9  438.66   19.20
   2  -7  -9  421.96   19.20
   2  -7  -9  404.36   19.10
   2   7  -9  442.46   15.50
  -2   7   9  460.75   19.80
  -2   7   9  420.96   19.20
   1  -7  -9  201.48   19.00
   1  -7  -9  198.88   11.20
   1  -7  -9  201.58   11.50
  -1   7   9  193.48   11.60
  -1   7   9  180.68   11.30
   0  -7  -9    3.30    4.30
   0  -7  -9    2.50    2.50
   0  -7  -9    1.30    2.60
   0   7   9    4.80    3.30
   0   7  -9    4.90    2.00
   0   7  -9    4.20    2.00
   1  -7   9   16.50    3.20
  -1  -7  -9   20.90    4.90
   1  -7   9   11.90    3.10
  -1  -7  -9   20.80    6.00
  -1   7  -9   21.80    4.10
  -1   7  -9   20.20    4.80
  -1   7  -9   18.10    3.40
   1   7   9   20.80    4.80
   1   7   9   19.40    4.50
   2  -7   9    1.50    3.30
   2  -7   9    0.30    3.40
  -2  -7  -9   -2.10    3.20
   2  -7   9    2.00    3.10
  -2   7  -9    3.10    2.90
  -2   7  -9    5.40    3.50
  -2   7  -9    2.20    3.10
   2   7   9   -1.20    3.70
   2   7   9   -1.10    2.90
   3  -7   9    8.80    5.90
   3  -7   9    2.10    4.50
  -3  -7  -9   -0.70    4.50
   3   7   9    3.10    4.70
  -3   7  -9   -6.40    3.80
  -3   7  -9   -1.00    4.20
  -3   7  -9    1.60    3.50
   3  -8  -9   53.69    9.70
   3  -8  -9   47.40    8.40
  -3   8   9   48.90    9.20
   3   8  -9   32.80    5.60
  -3   8   9   40.60    8.70
   3   8  -9   46.40    5.70
   3   8  -9   40.20    6.50
   2  -8  -9   78.49   10.20
   2  -8  -9   90.09   10.00
  -2   8   9   71.19    8.80
  -2   8   9   65.39    8.40
   1  -8  -9   89.99    9.90
   1  -8  -9   75.89    7.70
   1  -8  -9   85.99    7.90
  -1   8   9   93.69    8.60
  -1   8   9   84.59    8.30
   0  -8  -9  557.24   23.90
   0  -8  -9  543.65   21.60
   0  -8  -9  535.55   20.10
   0   8  -9  594.14   22.70
   0   8   9  539.15   21.80
  -1  -8  -9   85.99    8.40
  -1  -8  -9   87.19    8.60
  -1  -8  -9   68.89    7.60
   1  -8   9   93.49    6.20
   1   8   9   86.29    8.40
  -1   8  -9   94.79    8.70
  -1   8  -9   94.69    7.90
   1   8   9   99.69    8.90
  -1   8  -9   78.09    7.00
   2  -8   9   37.30    6.10
   2  -8   9   33.70    5.60
  -2  -8  -9   43.60    8.00
  -2   8  -9   33.70    6.00
   2   8   9   39.30    7.40
  -2   8  -9   43.50    7.70
   2   8   9   39.90    7.50
  -2   8  -9   39.20    5.60
   3  -9  -9  116.69   11.20
   3  -9  -9  127.99   13.60
  -3   9   9  109.59   11.50
  -3   9   9  126.19   11.80
   3   9  -9  113.59    9.30
   2  -9  -9   66.49   13.60
   2  -9  -9   71.79   10.40
  -2   9   9   71.49    8.60
  -2   9   9   59.49    8.90
  -2   9   9   75.99   13.60
   1  -9  -9  150.08   10.40
   1  -9  -9  156.18   12.70
   1   9  -9  146.19   10.30
  -1   9   9  146.69   10.60
  -1   9   9  156.68   10.80
   0  -9  -9   38.10    7.70
   0  -9  -9   36.50    6.50
   0  -9  -9   30.60    5.10
   0   9  -9   31.50    5.80
   0   9   9   41.10    6.50
  -1  -9  -9  133.49   10.20
  -1  -9  -9  128.29    7.80
  -1   9  -9  138.39   10.90
   1   9   9  136.29   10.30
   1   9   9  152.58   10.80
   2  -9   9   19.50    4.70
  -2  -9  -9   27.90    6.40
  -2   9  -9   26.60    6.20
  -2   9  -9   23.10    5.10
   2   9   9   25.60    5.90
   2   9   9   19.40    5.40
   2 -10  -9    5.20    4.00
   2 -10  -9    7.80    5.60
  -2  10   9    4.80    4.40
  -2  10   9   10.00    4.40
  -2  10   9   -4.00    4.00
   1 -10  -9    1.10    2.90
   1 -10  -9    3.20    4.60
   1 -10  -9    6.20    3.70
  -1  10   9    4.20    3.90
   1  10  -9    2.30    3.20
  -1  10   9    1.90    3.60
   0 -10  -9   69.29    9.60
   0 -10  -9   63.29    7.40
   0 -10  -9   60.39    6.40
   0  10  -9   69.89    7.70
   0  10   9   61.49    7.40
   0  10   9   52.29    7.60
  -1 -10  -9  257.87   14.30
   1  10   9  268.47   14.40
  -1  10  -9  277.77   15.60
   1  10   9  270.37   15.20
  -2 -10  -9   18.70    6.20
  -2  10  -9   20.80    5.80
  -2  10  -9   19.30    4.40
   2  10   9   20.90    5.60
   2 -11  -9   25.00    7.00
   2 -11  -9   22.90    6.20
  -2  11   9   17.80    5.80
  -2  11   9   31.20    6.70
   2  11  -9   17.80    4.20
  -2  11   9   26.60    6.30
   1 -11  -9   43.60    7.40
   1 -11  -9   51.59    7.40
   1 -11  -9   66.89   10.20
   1  11  -9   64.69    7.50
  -1  11   9   47.90    7.70
   0 -11  -9   45.10    9.50
   0 -11  -9   34.50    5.80
   0 -11  -9   46.70    7.50
   0  11   9   41.30    7.20
   0  11  -9   40.90    7.60
   0  11   9   45.00    7.30
  -1 -11  -9   26.90    6.00
   1  11   9   28.40    6.10
   1  11   9   49.20   11.80
  -1  11  -9   45.00    8.40
   1 -12  -9   49.99    7.80
   1 -12  -9   69.59   10.70
  -1  12   9   54.39    8.60
  -1  12   9   74.39    9.00
   1  12  -9   78.09    8.40
   0 -12  -9   31.50    5.50
   0 -12  -9   39.80    7.20
   0 -12  -9   34.30    9.20
   0  12   9   29.10    6.00
   0  12   9   31.30    6.60
   0  12  -9   35.60    5.90
   4   0 -10  210.68   14.70
   4   0 -10  215.88   14.50
   4   0 -10  173.58   13.80
  -4   0  10  178.98   13.90
   3   0 -10  266.17   14.70
  -3   0  10  271.57   14.90
   3   0 -10  250.37   14.30
   3   0 -10  258.87   13.90
   3   0 -10  276.27   14.70
   2   0 -10   10.10    3.60
   2   0 -10   10.20    6.10
   2   0 -10   10.30    3.60
   2   0 -10    6.10    3.20
  -2   0  10   13.50    3.50
  -1   0  10  393.26   16.20
   1   0 -10  409.06   16.40
   1   0 -10  404.66   16.50
   1   0 -10  395.76   14.40
  -1   0  10  384.76   14.60
   1   0 -10  404.36   16.40
  -1   0  10  419.46   16.60
   0   0  10  705.93   22.60
   0   0 -10  743.33   24.90
   0   0 -10  713.73   24.70
   0   0  10  703.73   24.70
   0   0  10  724.33   25.10
  -1   0 -10    5.70    3.30
  -1   0 -10   -0.30    2.60
   1   0  10    5.10    2.90
   1   0  10    6.30    3.00
   1   0  10    3.50    2.40
   2   0  10    8.10    3.30
  -2   0 -10    7.30    3.50
   2   0  10    7.70    4.30
  -2   0 -10    4.60    2.70
  -2   0 -10    8.50    3.50
  -3   0 -10   20.80    7.60
   3   0  10   19.90    5.90
  -3   0 -10   19.90    6.20
  -3   0 -10   24.50    5.20
   4  -1 -10  139.79   12.40
   4  -1 -10  141.39   12.40
  -4  -1  10  137.39   12.00
   4   1 -10  137.79   11.80
   4   1 -10  127.59   11.80
   4   1 -10  140.69   11.80
  -4   1  10  120.59   12.00
   3  -1 -10   38.30    7.20
   3  -1 -10   33.50    6.10
  -3  -1  10   39.80    7.50
   3  -1 -10   25.60    5.80
   3  -1 -10   44.40    8.00
   3   1 -10   23.80    5.10
  -3   1  10   28.50    6.50
   3   1 -10   32.20    6.40
   3   1 -10   20.50    4.90
   2  -1 -10   25.90    7.60
   2  -1 -10   20.30    4.60
   2  -1 -10   17.00    4.40
   2  -1 -10   11.00    3.20
  -2  -1  10   21.20    4.80
   2   1 -10   15.50    3.90
   2   1 -10   29.20    5.40
  -2   1  10   21.30    4.70
   2   1 -10   25.30    7.10
   1  -1 -10  141.09    9.10
   1  -1 -10  153.38    9.40
  -1  -1  10  144.49    9.10
   1  -1 -10  141.99    8.10
  -1  -1  10  152.28    9.00
   1  -1 -10  141.79    9.10
   1   1 -10  145.79    9.00
  -1   1  10  158.78    8.50
  -1   1  10  158.78    9.50
  -1   1  10  144.19    9.10
   1   1 -10  140.49    6.80
   1   1 -10  154.18    9.10
   0  -1 -10   30.00    5.10
   0  -1 -10   19.60    3.90
   0  -1  10   22.60    4.30
   0  -1  10   22.00    4.10
   0   1  10   15.20    3.70
   0   1 -10   26.00    4.70
   0   1 -10   20.90    4.10
   0   1  10   27.40    4.30
   0   1  10   28.50    5.30
   1  -1  10   42.40    5.80
  -1  -1 -10   40.60    5.60
  -1  -1 -10   46.40    6.00
   1  -1  10   40.10    5.20
   1   1  10   32.50    5.60
   1   1  10   37.70    5.80
  -1   1 -10   43.30    6.60
  -1   1 -10   34.60    5.40
  -2  -1 -10  291.37   13.60
   2  -1  10  296.47   15.20
  -2  -1 -10  281.47   14.50
  -2  -1 -10  275.17   14.20
   2   1  10  294.27   15.20
   2   1  10  273.67   14.70
  -2   1 -10  295.37   17.60
  -2   1 -10  272.27   14.30
  -3  -1 -10   65.09    9.40
   3  -1  10   70.89   10.10
  -3  -1 -10   70.89    7.80
  -3   1 -10   77.09    9.10
   3   1  10   68.19    9.70
  -3   1 -10   67.79    9.60
  -3   1 -10   70.59    8.30
   4  -2 -10  104.99   11.00
   4  -2 -10  117.19   11.70
  -4  -2  10   86.69   11.10
   4   2 -10  110.89   11.10
   4   2 -10  108.39   10.60
  -4   2  10  107.59   11.60
   4   2 -10  123.79   11.60
   3  -2 -10   55.09    8.10
   3  -2 -10   55.79    8.50
  -3  -2  10   58.69    7.80
   3  -2 -10   71.49   13.10
   3   2 -10   63.49    8.60
   3   2 -10   54.39    7.70
   3   2 -10   63.79    8.00
   3   2 -10   53.09    7.20
   2  -2 -10  129.89    9.50
  -2  -2  10  132.79    8.90
   2  -2 -10  130.69    9.20
  -2   2  10  141.09    9.70
  -2   2  10  129.19    9.50
   2   2 -10  115.89    8.90
   2   2 -10  120.39    7.20
   2   2 -10  123.89    8.90
  -1  -2  10 1685.03   50.49
   1  -2 -10 1719.83   51.79
   1  -2 -10 1765.72   50.69
   1  -2 -10 1675.63   51.69
   1  -2 -10 1735.53   51.79
  -1   2  10 1715.23   51.89
  -1   2  10 1699.33   51.79
   1   2 -10 1732.73   50.69
   1   2 -10 1694.33   50.79
   0  -2  10  107.59    7.90
   0  -2 -10  103.99    8.00
   0  -2 -10  110.89    8.30
   0  -2  10  104.59    7.30
   0   2 -10   99.69    7.20
   0   2 -10  111.19    7.70
   0   2  10  100.89    8.00
   1  -2  10  200.38   11.20
  -1  -2 -10  213.38   11.50
   1  -2  10  188.18   10.50
   1  -2  10  177.68    8.40
  -1  -2 -10  207.48   11.20
  -1   2 -10  204.18   10.80
   1   2  10  189.28   11.40
  -1   2 -10  191.08   10.30
   1   2  10  189.68   10.90
   2  -2  10   70.39    8.30
  -2  -2 -10   66.69    6.70
  -2  -2 -10   63.29    7.70
  -2  -2 -10   62.99    7.50
   2   2  10   58.39    8.60
  -2   2 -10   61.99    7.60
   2   2  10   42.20    9.70
  -2   2 -10   60.49    7.40
  -3  -2 -10   22.40    4.90
  -3  -2 -10   20.00    5.20
   3  -2  10   25.00    6.20
   3   2  10   24.60    6.60
  -3   2 -10   24.00    5.70
  -3   2 -10   21.30    5.30
  -3   2 -10   24.50    5.90
  -4  -3  10   21.00    6.70
   4  -3 -10   25.30    6.90
   4  -3 -10   30.50    7.80
   4   3 -10   37.00    7.70
  -4   3  10   29.80    7.90
   4   3 -10   49.70    8.90
   4   3 -10   30.40    6.60
  -3  -3  10  190.58   11.50
   3  -3 -10  199.48   12.70
   3  -3 -10  164.58   12.30
   3  -3 -10  183.48   12.70
   3   3 -10  195.48   11.60
   3   3 -10  170.08   10.50
   3   3 -10  179.88   11.80
  -3   3  10  192.48   12.90
   3   3 -10  211.18   17.90
  -2  -3  10  244.58   14.10
   2  -3 -10  245.18   13.40
   2  -3 -10  231.58   13.00
   2  -3 -10  235.28   16.10
   2   3 -10  239.18   12.10
  -2   3  10  270.87   13.70
   2   3 -10  238.88   12.50
  -2   3  10  254.67   13.60
   2   3 -10  260.27   17.80
   1  -3 -10  359.06   15.70
  -1  -3  10  347.37   14.20
   1  -3 -10  341.07   15.80
  -1  -3  10  368.56   14.50
   1  -3 -10  358.76   15.20
   1  -3 -10  375.76   16.10
   1   3 -10  346.87   14.60
   1   3 -10  357.96   14.50
  -1   3  10  341.77   15.80
  -1   3  10  327.97   15.60
   0  -3 -10 3245.68   91.29
   0  -3 -10 3291.67   91.09
   0  -3 -10 3248.48   90.49
   0  -3  10 3175.08   89.69
   0  -3  10 3208.98   89.59
   0  -3 -10 3212.48   91.09
   0   3 -10 3157.78   89.49
   0   3 -10 3322.37   89.99
   0   3  10 3102.99   91.19
   1  -3  10   65.09    6.90
  -1  -3 -10   81.49    7.60
  -1  -3 -10   68.29    7.20
   1  -3  10   61.89    6.70
   1   3  10   74.89    7.40
  -1   3 -10   76.79    7.10
  -1   3 -10   61.79    6.50
   1   3  10   75.99    7.60
   2  -3  10    0.90    3.40
   2  -3  10    6.40    4.00
  -2  -3 -10    9.10    3.80
  -2  -3 -10    4.50    3.90
  -2  -3 -10    5.90    2.90
  -2   3 -10    6.80    3.40
  -2   3 -10    6.60    3.40
   2   3  10    6.60    4.00
   2   3  10    7.90    4.50
  -3  -3 -10   88.19   10.00
  -3  -3 -10   78.69    7.60
   3  -3  10   88.19   11.00
  -3   3 -10   86.49    9.40
   3   3  10  101.89   11.30
  -3   3 -10   98.29   12.00
  -3   3 -10   89.59   10.00
   3  -4 -10   71.49    8.70
  -3  -4  10   81.59    8.10
   3  -4 -10   72.79    9.50
   3  -4 -10   73.59    8.90
   3   4 -10   73.89    7.20
  -3   4  10   75.19    9.30
   3   4 -10   73.79    7.80
   3   4 -10   60.79    8.00
   3   4 -10   74.49    8.10
  -2  -4  10  153.88    9.20
   2  -4 -10  159.98   11.50
   2  -4 -10  160.48   12.20
   2  -4 -10  149.39   10.90
   2  -4 -10  151.48   10.80
  -2   4  10  146.89   10.90
  -2   4  10  163.88   11.80
   2   4 -10  144.09    9.50
   2   4 -10  147.69    9.00
   2   4 -10  169.38   12.00
  -1  -4  10   46.40    5.00
   1  -4 -10   31.60    6.10
   1  -4 -10   44.20    6.50
   1  -4 -10   46.40    5.90
   1   4 -10   33.40    5.00
  -1   4  10   43.90    6.40
   1   4 -10   47.90    5.30
  -1   4  10   50.29    6.50
   0  -4 -10   12.70    4.40
   0  -4 -10   14.00    4.60
   0  -4 -10   14.30    4.10
   0  -4  10   13.70    3.40
   0  -4 -10   13.50    3.40
   0  -4  10   14.50    3.30
   0   4 -10   10.30    3.20
   0   4  10   10.30    3.80
   0   4 -10   13.30    3.30
  -1  -4 -10  808.82   29.10
   1  -4  10  847.12   33.80
   1  -4  10  797.52   27.70
  -1  -4 -10  833.82   29.50
   1   4  10  844.42   29.70
  -1   4 -10  906.01   29.80
   1   4  10  867.11   30.30
  -1   4 -10  835.22   27.80
   2  -4  10   93.99    8.40
  -2  -4 -10  100.79    9.40
   2  -4  10   95.59    8.80
  -2  -4 -10  104.39    9.40
  -2  -4 -10   93.09    7.20
  -2   4 -10   93.99    9.00
   2   4  10   96.79    9.40
  -2   4 -10   94.69    8.50
   2   4  10   99.29   11.80
  -3  -4 -10   32.50    5.90
   3  -4  10   34.90    8.30
  -3  -4 -10   36.40    6.70
   3  -4  10   26.80    6.50
   3   4  10   36.50    7.50
  -3   4 -10   38.00    7.00
  -3   4 -10   27.40    5.70
  -3   4 -10   48.70    7.40
   3  -5 -10   81.99   10.10
  -3  -5  10   78.89    7.90
   3  -5 -10   90.69    9.50
   3   5 -10   84.19    7.30
   3   5 -10   93.69    8.20
  -3   5  10   79.99    9.30
   3   5 -10   63.99    7.90
   2  -5 -10  106.09    9.20
  -2  -5  10   90.69    7.10
   2  -5 -10  113.09   12.50
  -2  -5  10  101.19    7.40
   2  -5 -10  109.49    9.70
   2  -5 -10  113.89    9.40
  -2   5  10   96.09   14.10
   2   5 -10  102.69    8.00
  -2   5  10  103.29    9.50
   2   5 -10   97.59    7.50
   2   5 -10   96.79    8.10
   1  -5 -10   71.59    7.90
  -1  -5  10   80.99    6.00
   1  -5 -10   68.79    7.20
   1  -5 -10   83.59    7.90
  -1  -5  10   68.09    5.70
   1  -5 -10   66.89    7.40
   1   5 -10   73.79    6.10
  -1   5  10   68.19    7.50
   1   5 -10   77.39    6.10
  -1   5  10   84.09    8.00
   0  -5 -10  176.88   11.10
   0  -5 -10  155.18   10.20
   0  -5  10  159.98    8.50
   0  -5 -10  150.18    9.90
   0  -5 -10  167.08    9.70
   0  -5  10  165.88    8.50
   0   5 -10  162.88    8.70
   0   5 -10  148.99    8.30
   0   5  10  159.78   10.50
   1  -5  10  116.79    8.00
  -1  -5 -10   89.59    9.10
  -1  -5 -10  103.59    8.90
  -1  -5 -10   97.79    7.00
  -1   5 -10   85.79   10.70
   1   5  10   98.19    8.70
  -1   5 -10  113.49    9.10
  -1   5 -10   84.89    6.60
   1   5  10  107.39    9.20
   2  -5  10   97.19    8.30
  -2  -5 -10   99.89    9.80
   2  -5  10   85.39   12.40
   2  -5  10   96.79    8.80
  -2   5 -10  104.09    9.50
  -2   5 -10   97.79    8.80
   2   5  10  102.99    9.70
   2   5  10  100.09   10.70
   3  -5  10   24.40    6.70
  -3  -5 -10   20.80    6.10
   3  -5  10   16.80    8.20
  -3   5 -10   27.00    8.60
   3   5  10   21.00    7.10
  -3   5 -10   17.60    5.10
  -3  -6  10  124.99    8.80
   3  -6 -10  138.39   12.70
   3  -6 -10  135.29   11.40
   3   6 -10  124.49    9.20
   3   6 -10  116.59    9.70
   3   6 -10  125.49    9.00
  -3   6  10  130.09   11.70
  -2  -6  10    6.60    2.70
   2  -6 -10    9.10    3.90
  -2  -6  10    4.40    2.60
   2  -6 -10    3.90    4.10
   2  -6 -10    6.90    3.60
   2  -6 -10    5.20    3.60
   2   6 -10    5.50    3.20
   2   6 -10    8.20    3.10
   2   6 -10    4.80    2.60
  -2   6  10    5.90    4.10
  -2   6  10    4.90    4.40
   1  -6 -10  282.47   14.40
   1  -6 -10  311.57   21.50
   1  -6 -10  313.87   16.10
   1  -6 -10  280.57   14.60
  -1  -6  10  313.67   11.60
  -1   6  10  299.97   15.20
  -1   6  10  304.07   15.20
   1   6 -10  324.87   12.30
   1   6 -10  302.67   12.30
   0  -6 -10  126.99    9.30
   0  -6  10  133.29    7.30
   0  -6 -10  137.99   10.50
   0  -6 -10  134.29    8.50
   0  -6 -10  130.49   10.20
   0  -6  10  129.89    7.00
   0   6 -10  135.29    7.40
   0   6  10  119.69    9.50
   0   6 -10  137.09    7.40
  -1  -6 -10   34.60    6.50
   1  -6  10   34.70    5.30
  -1  -6 -10   27.80    5.50
  -1  -6 -10   37.80    5.10
  -1   6 -10   41.00    6.60
   1   6  10   36.30    6.80
   1   6  10   48.30    7.00
  -1   6 -10   46.50    5.60
  -1   6 -10   35.10    5.00
  -2  -6 -10  169.48    9.00
   2  -6  10  198.18   10.30
  -2  -6 -10  208.78   13.50
   2  -6  10  194.78   11.50
  -2   6 -10  188.58   12.90
   2   6  10  202.68   13.40
  -2   6 -10  187.98   11.40
   2   6  10  196.38   13.70
   3  -6  10   27.50    6.30
   3  -6  10   26.80    8.20
  -3  -6 -10   30.90    7.30
  -3   6 -10   47.70    7.90
  -3   6 -10   29.30    6.40
  -3   6 -10   24.00    6.30
   3   6  10   33.20    7.50
   3  -7 -10   10.00    4.40
   3  -7 -10   17.60    6.50
   3   7 -10    3.00    3.70
   3   7 -10    3.60    3.50
   3   7 -10   13.90    3.90
  -3   7  10    8.00    5.30
   2  -7 -10   45.70    8.30
   2  -7 -10   48.20    7.20
   2   7 -10   51.69    5.20
   2   7 -10   56.59    5.70
  -2   7  10   48.60    7.90
  -2   7  10   59.69    8.40
   1  -7 -10   60.99    7.20
   1  -7 -10   58.19    7.50
   1  -7 -10   63.29    8.40
   1   7 -10   72.19    5.20
  -1   7  10   68.79    7.60
  -1   7  10   59.89    7.50
   0  -7 -10   29.20    5.20
   0  -7 -10   41.60    7.20
   0  -7 -10   38.90    6.00
   0  -7 -10   32.80    5.90
   0   7 -10   35.30    4.30
   0   7  10   31.60    6.10
   0   7 -10   41.60    4.50
  -1  -7 -10   21.80    5.90
  -1  -7 -10   27.00    4.20
  -1  -7 -10   22.50    5.00
   1  -7  10   23.10    4.10
  -1   7 -10   18.90    3.60
   1   7  10   24.00    5.20
  -1   7 -10   33.70    6.40
  -1   7 -10   32.60    4.90
   1   7  10   29.90    6.50
  -2  -7 -10  102.89   10.40
  -2   7 -10   96.49    8.90
  -2   7 -10  103.39   10.40
   2   7  10  110.79   10.40
   2   7  10  132.49    9.70
   3  -8 -10   15.40    4.70
   3  -8 -10    9.80    5.30
   3   8 -10    7.50    3.40
   3   8 -10    5.20    4.40
  -3   8  10    5.90    4.90
   3   8 -10   14.80    3.70
   2  -8 -10   16.10    4.90
   2  -8 -10   10.30    5.80
  -2   8  10   15.40    5.00
  -2   8  10   23.20    6.00
   1  -8 -10  298.87   17.00
   1  -8 -10  289.97   20.50
   1  -8 -10  263.47   14.40
  -1   8  10  274.97   15.10
  -1   8  10  282.97   15.00
   0  -8 -10   17.70    6.10
   0  -8 -10   13.40    4.50
   0  -8 -10    7.00    3.50
   0   8  10   11.00    4.10
   0   8 -10   15.90    4.50
  -1  -8 -10   23.60    5.40
  -1  -8 -10   21.90    3.70
  -1   8 -10   27.80    5.00
   1   8  10   24.80    5.70
  -1   8 -10   19.90    3.50
   1   8  10   22.10    4.80
  -1   8 -10   22.00    5.40
   2  -8  10    0.40    3.00
  -2  -8 -10   -2.40    4.00
  -2   8 -10    2.10    3.40
  -2   8 -10    7.20    4.20
   2   8  10    1.20    4.30
   2   8  10   -2.20    4.10
   2  -9 -10   40.80    7.40
   2  -9 -10   38.00    8.60
  -2   9  10   29.60    6.10
  -2   9  10   42.80    7.90
   1  -9 -10    8.80    4.00
   1  -9 -10   17.10    4.60
   1  -9 -10   18.20    6.10
  -1   9  10    9.70    4.20
  -1   9  10   13.80    4.80
   0  -9 -10   30.90    6.00
   0  -9 -10   38.50    8.10
   0  -9 -10   26.30    4.80
   0   9  10   31.50    6.20
   0   9 -10   37.60    6.80
   0   9  10   39.10    6.90
  -1  -9 -10   30.30    6.10
  -1  -9 -10   19.40    3.50
   1   9  10   20.90    5.20
   1   9  10   29.80    6.10
  -1   9 -10   13.80    4.70
  -1   9 -10   22.60    4.00
  -1   9 -10   18.40    3.40
  -2  -9 -10  121.19   11.10
   2  -9  10   77.49    7.80
   2   9  10   80.39   10.00
  -2   9 -10   92.39    8.60
  -2   9 -10  111.49   11.00
   2   9  10  112.79   10.90
   2 -10 -10   21.70    6.50
   2 -10 -10   19.10    5.80
  -2  10  10    6.10    8.30
  -2  10  10   21.50    6.00
   1 -10 -10  133.79   11.90
   1 -10 -10  146.79   13.10
   1 -10 -10  127.39   12.10
  -1  10  10  143.29   12.10
   1  10 -10  147.19   11.10
  -1  10  10  144.19   11.40
   0 -10 -10   72.99   10.30
   0 -10 -10   75.19    7.20
   0 -10 -10   78.59    8.50
   0  10 -10   93.69    9.50
   0  10  10   69.89    8.10
   0  10  10   87.79    9.30
  -1 -10 -10   22.30    5.90
  -1  10 -10   20.30    5.00
   1  10  10   17.00    7.20
   1 -11 -10   83.99   11.20
   1 -11 -10   55.59   12.10
  -1  11  10   87.59   10.10
   1  11 -10   68.89    8.80
  -1  11  10   86.69    9.60
   0 -11 -10  199.08   15.80
   0 -11 -10  190.28   12.90
   0  11  10  219.28   13.10
   0  11  10  199.28   14.80
   0  11 -10  225.58   14.30
  -1 -11 -10   34.90    6.90
   1  11  10   35.00    7.20
  -1  11 -10   24.70    6.10
   1  11  10   33.60    6.90
  -3   0  11  978.20   34.90
   3   0 -11 1031.90   34.30
   3   0 -11  998.30   35.60
   3   0 -11  963.60   34.80
   2   0 -11  201.98   12.20
  -2   0  11  203.98   11.80
   2   0 -11  206.48   12.20
   2   0 -11  206.28   10.50
   2   0 -11  209.58   11.80
   1   0 -11    4.20    3.20
   1   0 -11   -0.40    2.90
   1   0 -11    5.00    2.50
  -1   0  11   -1.40    3.10
  -1   0  11    6.90    3.50
   0   0 -11   30.90    5.40
   0   0 -11   29.50    5.50
   0   0  11   29.40    4.20
   0   0  11   29.80    5.70
  -1   0 -11  100.19    8.40
  -1   0 -11   89.59    7.90
   1   0  11  100.09    8.40
   2   0  11   27.70    5.80
  -2   0 -11   19.90    4.70
  -2   0 -11   20.00    5.40
   2   0  11   15.70    5.50
  -2   0 -11   22.10    4.80
  -3   0 -11  119.79   11.60
  -3   0 -11  118.59   10.10
   3   0  11  116.49   12.10
   3  -1 -11  263.47   14.60
  -3  -1  11  287.37   15.20
   3  -1 -11  255.47   15.20
   3  -1 -11  263.27   15.10
   3   1 -11  277.37   14.00
   3   1 -11  264.97   15.30
  -3   1  11  278.27   17.00
   3   1 -11  274.77   14.70
  -2  -1  11  106.69    8.80
   2  -1 -11  114.49    8.50
   2  -1 -11  119.49    9.40
  -2  -1  11  120.99    9.10
   2  -1 -11  116.59    9.40
   2   1 -11  117.89    8.80
   2   1 -11  109.49    9.20
   2   1 -11  120.39    7.60
   2   1 -11  120.29    8.90
  -2   1  11  126.09    9.60
  -1  -1  11  107.59    8.10
   1  -1 -11  119.19    7.50
   1  -1 -11  113.29    8.50
  -1  -1  11  120.19    8.80
   1  -1 -11  121.99    8.70
   1  -1 -11  103.39    9.20
   1   1 -11  103.09    8.10
  -1   1  11  121.49    9.10
   1   1 -11  115.29    8.20
  -1   1  11  115.89    7.60
   0  -1 -11  168.98   10.10
   0  -1 -11  165.28   10.10
   0  -1  11  161.28   10.10
   0  -1  11  175.58   10.30
   0   1 -11  167.58    9.70
   0   1  11  178.98    8.90
   0   1 -11  176.58   10.00
   0   1  11  176.48   10.50
   0   1  11  143.49    9.60
   1  -1  11  267.37   11.60
   1  -1  11  309.87   14.50
  -1  -1 -11  290.67   14.20
  -1  -1 -11  298.47   15.80
  -1   1 -11  297.67   14.20
   1   1  11  279.37   14.10
   1   1  11  288.57   14.50
  -1   1 -11  291.17   13.90
  -2  -1 -11   71.79   12.00
   2  -1  11   64.29    8.70
  -2  -1 -11   63.09    8.00
  -2   1 -11   67.19    7.50
   2   1  11   65.69    8.70
   2   1  11   73.19    8.50
  -2   1 -11   61.39    8.00
  -2   1 -11   62.79    7.80
   3  -1  11    9.30    5.40
  -3  -1 -11   11.60    5.30
  -3  -1 -11   16.70    4.70
  -3   1 -11   20.30    5.40
  -3   1 -11   13.50    6.20
   3   1  11   13.60    5.70
  -3  -2  11   48.20    8.10
   3  -2 -11   50.19    8.00
   3  -2 -11   58.69    8.10
  -3   2  11   46.70    8.00
   3   2 -11   43.30    7.00
   3   2 -11   54.49    6.60
   3   2 -11   48.80    7.30
   2  -2 -11  458.95   19.60
   2  -2 -11  474.65   20.10
  -2  -2  11  501.35   19.30
   2  -2 -11  480.15   19.20
  -2  -2  11  466.75   19.30
  -2   2  11  450.35   19.80
   2   2 -11  453.55   18.70
   2   2 -11  446.16   18.90
   2   2 -11  474.95   16.40
   2   2 -11  450.15   20.10
  -2   2  11  466.45   19.90
   1  -2 -11  142.89    9.70
  -1  -2  11  148.39    9.30
   1  -2 -11  144.69    8.90
  -1  -2  11  130.09    8.70
   1  -2 -11  140.59    9.70
   1   2 -11  124.99    8.80
  -1   2  11  138.89    9.70
   1   2 -11  133.09    9.10
  -1   2  11  131.19    9.60
   0  -2 -11  191.28   11.10
   0  -2  11  178.98   10.30
   0  -2  11  203.98   11.10
   0  -2 -11  199.28   11.20
   0   2 -11  192.08   10.70
   0   2  11  212.18   11.90
   0   2  11  183.38   11.00
   0   2 -11  189.08   10.40
  -1  -2 -11   83.49    7.80
  -1  -2 -11   87.79    9.10
   1  -2  11   84.89    8.00
  -1   2 -11   95.69    7.80
   1   2  11   93.69    8.50
  -1   2 -11   89.39    7.60
   1   2  11   83.09    8.40
   2  -2  11   40.60    7.50
  -2   2 -11   40.50    7.00
  -2   2 -11   38.40    7.00
  -3  -2 -11   50.99    7.60
  -3  -2 -11   73.19    9.70
   3  -2  11   63.79   10.40
   3   2  11   61.59   10.70
  -3   2 -11   71.69    8.90
   3  -3 -11   20.80    5.40
  -3  -3  11   25.30    5.70
   3  -3 -11   35.80    7.40
   3  -3 -11   20.50    6.00
   3   3 -11   23.30    5.40
   3   3 -11   39.50    6.90
   3   3 -11   24.60    5.00
  -3   3  11   27.90    5.90
   2  -3 -11   61.99    7.50
  -2  -3  11   56.89    6.90
   2  -3 -11   50.89    7.00
  -2  -3  11   60.39    7.00
   2  -3 -11   45.00    7.30
  -2   3  11   46.80    7.60
   2   3 -11   50.89    6.80
  -2   3  11   55.49    8.00
   2   3 -11   37.10    6.30
   2   3 -11   58.69    6.70
   1  -3 -11   87.59    8.60
   1  -3 -11   90.29    8.40
  -1  -3  11   82.39    7.20
   1  -3 -11   97.09    8.00
  -1   3  11   92.09    8.60
   1   3 -11   86.29    7.40
   1   3 -11   98.59    7.80
  -1   3  11   91.89    8.30
   0  -3  11 1146.59   39.80
   0  -3 -11 1143.19   38.30
   0  -3 -11 1190.48   37.80
   0  -3  11 1174.28   37.10
   0  -3 -11 1192.08   38.60
   0   3 -11 1268.67   37.70
   0   3  11 1203.58   39.20
   0   3  11 1173.78   38.70
   0   3 -11 1156.68   36.90
  -1  -3 -11   71.29    9.10
  -1  -3 -11   71.89    7.80
   1  -3  11   62.79    7.10
   1   3  11   62.19    7.80
  -1   3 -11   62.29    6.80
   1   3  11   75.39    8.10
  -1   3 -11   59.39    6.60
  -2  -3 -11  189.08   12.40
   2  -3  11  185.08   12.30
  -2  -3 -11  178.08   10.60
  -2  -3 -11  173.78   11.90
   2   3  11  187.48   12.70
   2   3  11  195.08   12.50
  -2   3 -11  191.68   12.30
  -2   3 -11  170.58   11.10
  -2   3 -11  182.88   11.70
  -3  -3 -11    3.30    3.80
   3  -3  11   17.70    6.10
  -3  -3 -11   17.90    5.80
  -3   3 -11    8.90    5.30
  -3   3 -11    1.10    4.20
   3   3  11   14.20    5.80
   3  -4 -11   42.70    8.20
  -3  -4  11   42.10    7.30
   3  -4 -11   38.50    8.00
   3   4 -11   27.10    5.40
   3   4 -11   40.70    6.80
  -3   4  11   29.50    6.50
   3   4 -11   51.19    7.50
   2  -4 -11  145.09   12.40
   2  -4 -11  179.28   11.70
   2  -4 -11  163.48   11.30
   2  -4 -11  163.88   11.50
  -2  -4  11  169.38   10.00
  -2  -4  11  161.68   10.00
   2   4 -11  166.08    9.90
  -2   4  11  158.78   11.50
  -2   4  11  171.58   11.70
   2   4 -11  148.29   10.10
   2   4 -11  157.48    9.80
  -1  -4  11  259.27   12.10
  -1  -4  11  264.87   12.00
   1  -4 -11  260.57   13.70
   1  -4 -11  285.47   17.90
   1  -4 -11  259.77   13.90
   1   4 -11  299.97   14.00
   1   4 -11  256.67   12.30
  -1   4  11  257.87   14.00
  -1   4  11  257.87   14.00
   0  -4 -11  186.48   10.70
   0  -4 -11  194.48   11.70
   0  -4  11  164.78    9.50
   0  -4 -11  185.88   11.40
   0  -4  11  193.38   10.10
   0  -4 -11  191.78   11.40
   0   4  11  188.68   11.80
   0   4  11  185.08   11.80
   0   4 -11  183.38    9.90
   0   4 -11  193.68   10.60
   1  -4  11  355.16   15.60
  -1  -4 -11  369.46   18.50
  -1  -4 -11  349.77   14.80
  -1  -4 -11  279.37   20.90
   1  -4  11  381.36   20.30
  -1   4 -11  328.07   14.60
   1   4  11  362.56   17.10
   1   4  11  334.77   16.60
  -1   4 -11  348.77   15.30
   2  -4  11   45.00    6.80
  -2  -4 -11   63.89    8.50
   2  -4  11   40.30    7.60
   2   4  11   55.89    8.40
  -2   4 -11   40.50    6.60
  -2   4 -11   56.59    7.50
  -2   4 -11   57.29    7.90
   2   4  11   57.99    8.30
   3  -4  11   54.29    9.60
   3  -4  11   47.80    9.10
  -3  -4 -11   45.20    8.90
  -3  -4 -11   36.10    5.50
   3   4  11   38.40   11.10
  -3   4 -11   33.30    7.40
  -3   4 -11   43.40    8.80
   3  -5 -11   13.90    5.70
   3  -5 -11   18.80    6.30
  -3  -5  11   14.50    4.90
   3   5 -11   16.00    4.30
   3   5 -11   10.30    4.30
  -3   5  11   17.70    5.70
   2  -5 -11  180.58   12.40
   2  -5 -11  221.48   12.90
   2  -5 -11  204.58   13.40
  -2  -5  11  203.28   10.90
  -2  -5  11  214.88   12.30
   2   5 -11  182.18   10.40
  -2   5  11  202.88   13.10
  -2   5  11  213.18   13.20
   2   5 -11  197.18   11.80
   2   5 -11  238.78   11.50
  -1  -5  11   93.09    6.60
  -1  -5  11   93.59    6.70
   1  -5 -11   77.29   12.00
   1  -5 -11   87.39    9.00
  -1   5  11   84.99    8.50
   1   5 -11   81.69    6.70
  -1   5  11   82.19    8.30
   1   5 -11  104.19    9.80
   0  -5 -11   33.60    5.60
   0  -5 -11   26.40    6.80
   0  -5 -11   26.70    5.20
   0  -5  11   28.80    4.70
   0  -5  11   30.50    4.80
   0  -5 -11   37.70    6.70
   0   5 -11   35.20    7.70
   0   5 -11   32.00    4.90
   0   5  11   27.70    5.50
   0   5  11   32.00    5.70
   1  -5  11  171.88    9.70
  -1  -5 -11  133.49   10.20
  -1  -5 -11  165.78   11.70
   1  -5  11  158.98   11.20
  -1  -5 -11  140.39    8.90
   1   5  11  165.88   11.50
  -1   5 -11  150.08    9.30
  -1   5 -11  168.08   11.60
  -1   5 -11  165.98    9.70
   1   5  11  150.48   12.30
   2  -5  11  215.68   12.90
   2  -5  11  221.18   11.00
  -2  -5 -11  201.98   13.60
  -2  -5 -11  180.68   10.10
  -2   5 -11  194.98   11.80
  -2   5 -11  192.88   12.50
   2   5  11  227.28   14.30
   2   5  11  208.58   14.40
  -2   5 -11  226.28   13.80
   3  -6 -11   81.09   10.60
   3  -6 -11   79.09    9.80
   3   6 -11   72.99    7.80
  -3   6  11   82.29   10.30
   2  -6 -11  176.48   13.30
   2  -6 -11  168.18   12.10
   2   6 -11  161.68   11.00
  -2   6  11  191.68   12.90
   2   6 -11  165.48    9.90
  -2   6  11  182.88   12.20
   2   6 -11  183.98    9.70
  -1  -6  11    7.40    2.80
   1  -6 -11    4.90    3.50
  -1  -6  11    7.60    2.90
   1  -6 -11    9.60    5.10
   1  -6 -11    6.20    4.00
   1  -6 -11    3.30    3.70
   1   6 -11    1.50    4.10
  -1   6  11    9.00    4.70
   1   6 -11    1.80    2.50
  -1   6  11    2.30    3.30
   0  -6  11   99.69    6.70
   0  -6  11   91.89    6.50
   0  -6 -11   95.19    8.00
   0  -6 -11   90.89    8.70
   0  -6 -11   83.69   13.70
   0  -6 -11   85.99    8.60
   0   6 -11   86.19    6.60
   0   6  11   96.99    8.80
   0   6  11   86.79    8.80
   0   6 -11   75.19    9.70
   1  -6  11   92.49    7.60
  -1  -6 -11   88.59    7.00
  -1  -6 -11   93.19    8.90
   1  -6  11   90.49    7.40
  -1   6 -11   66.89    6.60
  -1   6 -11   81.29    8.80
   1   6  11   82.49    8.70
   1   6  11   79.39   13.90
  -1   6 -11   86.59    7.40
  -2  -6 -11  274.77   15.90
  -2  -6 -11  230.38   10.90
   2  -6  11  239.68   13.50
   2   6  11  218.58   21.30
  -2   6 -11  257.47   13.90
  -2   6 -11  204.78   12.30
  -2   6 -11  253.47   15.30
   2   6  11  265.87   15.80
   3  -7 -11   31.10    6.80
   3  -7 -11   38.80    9.00
   3   7 -11   30.80    5.10
  -3   7  11   37.50    8.20
   3   7 -11   26.90    5.20
   2  -7 -11   95.69   10.40
   2  -7 -11   90.09    9.00
   2   7 -11   61.99    7.90
  -2   7  11   83.69    9.40
   2   7 -11   85.19    6.40
   2   7 -11   73.09    6.30
   1  -7 -11   68.39    7.70
   1  -7 -11   64.59    7.90
   1  -7 -11   70.89    9.20
  -1   7  11   56.89    9.80
  -1   7  11   62.29    8.10
   1   7 -11   67.19    8.50
   0  -7 -11   55.29    8.30
   0  -7 -11   52.29    6.60
   0  -7 -11   64.29   11.20
   0   7 -11   53.49    7.90
   0   7  11   45.50    7.30
   0   7 -11   51.79    5.60
   0   7  11   48.60    7.50
  -1  -7 -11   12.50    4.80
   1  -7  11    7.40    3.10
  -1  -7 -11   12.20    3.30
   1  -7  11   12.70    3.80
   1   7  11   12.20    4.80
   1   7  11    3.70    4.70
  -1   7 -11    6.60    3.10
  -1   7 -11   11.00    3.60
  -1   7 -11   12.70    4.30
  -2  -7 -11   17.00    3.60
  -2  -7 -11   24.50    6.30
   2  -7  11   21.40    5.20
  -2   7 -11   25.80    5.80
   2   7  11   35.80    7.10
  -2   7 -11   28.70    5.80
  -2   7 -11   29.10    5.50
   2  -8 -11   16.40    5.30
   2  -8 -11   18.40    6.10
  -2   8  11   14.40    5.30
   1  -8 -11  133.79   10.20
   1  -8 -11  126.29   10.00
   1  -8 -11  133.29   11.80
  -1   8  11  124.09   10.60
  -1   8  11  118.79   10.20
   0  -8 -11   25.00    6.30
   0  -8 -11   32.10    8.80
   0  -8 -11   20.70    4.70
   0   8  11   22.50    5.40
   0   8 -11   26.60    6.20
   0   8  11   19.60    7.60
   1  -8  11   45.40    5.90
  -1  -8 -11   40.70    5.90
  -1  -8 -11   43.30    7.70
   1  -8  11   30.00    5.20
   1   8  11   62.49    8.30
  -1   8 -11   37.30    5.60
  -1   8 -11   41.80    5.00
  -1   8 -11   47.20    7.80
   2  -8  11    1.80    4.00
  -2  -8 -11   12.90    5.90
  -2   8 -11    6.60    3.80
   2   8  11   12.10    4.70
  -2   8 -11   14.90    4.60
  -2   8 -11    2.40    4.20
   2  -9 -11   79.39    9.50
   2  -9 -11   86.99   10.90
  -2   9  11   71.99    9.50
   1  -9 -11   14.90    4.60
   1  -9 -11   17.70    6.00
  -1   9  11    4.70    4.60
  -1   9  11   10.90    4.80
   0  -9 -11  193.08   12.60
   0  -9 -11  189.98   14.00
   0   9 -11  186.68   13.00
   0   9  11  182.78   12.70
   0   9  11  174.28   12.80
  -1  -9 -11   13.50    3.00
  -1  -9 -11   13.40    5.20
  -1   9 -11   15.00    3.30
   1   9  11   24.90    8.30
  -1   9 -11   19.20    4.10
  -1   9 -11   20.20    5.30
   1   9  11   20.70    5.30
   1 -10 -11   20.80    5.50
   1 -10 -11   36.70    8.90
  -1  10  11   31.90    6.80
   1  10 -11   29.10    6.10
  -1  10  11   29.80    7.00
   0 -10 -11   44.00    7.70
   0 -10 -11   54.09    9.50
   0  10  11   49.60   10.10
   0  10  11   55.19    7.70
   0  10 -11   47.60    8.30
  -1 -10 -11   -0.60    4.00
   1  10  11   -3.70    3.70
   1  10  11    9.30    5.00
  -1  10 -11    1.10    4.00
   3   0 -12    7.40    3.80
   3   0 -12    8.70    4.30
   3   0 -12    9.60    5.00
  -3   0  12   16.80    5.40
   2   0 -12  146.19   10.80
   2   0 -12  156.28   10.70
  -2   0  12  157.58   12.00
   2   0 -12  159.18    9.10
  -2   0  12  160.78   11.10
   2   0 -12  148.89   11.40
   1   0 -12   73.79    7.20
  -1   0  12   86.29    8.00
   1   0 -12   80.89    8.00
   1   0 -12   70.09    5.60
  -1   0  12   69.09    7.60
   0   0 -12   83.19    7.70
   0   0  12   82.39    8.10
   0   0  12   85.99    8.40
   0   0 -12   83.69    7.80
  -1   0 -12   49.50    7.00
   1   0  12   56.59    9.50
   1   0  12   42.40    7.10
  -1   0 -12   48.20    7.10
  -2   0 -12  129.89   10.70
  -2   0 -12  124.89   10.00
   2   0  12  142.49   11.50
  -2   0 -12  136.29   10.70
  -3   0 -12    2.90    4.80
   3   0  12    6.30    5.90
  -3   0 -12   -3.60    4.20
   3  -1 -12   67.99    8.80
  -3  -1  12   63.59    9.00
   3  -1 -12   42.70    7.70
   3   1 -12   66.09    7.30
  -3   1  12   65.89    9.60
   3   1 -12   57.89    8.30
   3   1 -12   69.19    8.90
  -2  -1  12   62.79    8.50
  -2  -1  12   78.79    8.30
   2  -1 -12   72.29    7.40
   2  -1 -12   76.59    8.70
   2  -1 -12   73.89    8.30
   2  -1 -12   79.29   12.90
  -2   1  12   75.99    8.60
   2   1 -12   83.89    8.20
  -2   1  12   77.09   12.90
   2   1 -12   67.69    8.00
   2   1 -12   85.19    8.30
   2   1 -12   80.19    6.20
   1  -1 -12   26.50    5.90
   1  -1 -12   10.00    4.10
  -1  -1  12   12.50    4.30
   1  -1 -12   20.50    4.20
   1  -1 -12   17.90    4.70
   1   1 -12   14.00    3.80
  -1   1  12   18.40    4.60
   1   1 -12   15.20    3.80
   0  -1 -12   17.40    4.70
   0  -1  12   23.70    4.80
   0  -1 -12   16.70    4.00
   0   1  12   24.20    5.00
   0   1 -12   29.50    5.10
   0   1 -12   20.70    4.40
  -1  -1 -12  240.28   13.10
  -1  -1 -12  268.87   14.00
   1  -1  12  232.18   10.80
   1  -1  12  250.37   13.50
  -1   1 -12  252.17   13.30
   1   1  12  251.57   13.80
   1   1  12  233.28   13.30
  -1   1 -12  226.38   12.80
  -2  -1 -12   38.60    7.30
   2  -1  12   43.00    9.90
  -2  -1 -12   41.10    7.70
  -2  -1 -12   24.50    5.00
  -2   1 -12   31.00    6.10
   2   1  12   35.10    7.10
  -2   1 -12   29.60    5.50
  -2   1 -12   24.90    5.60
  -3  -1 -12   42.90    7.10
   3  -1  12   53.49    8.60
  -3  -1 -12   53.29    9.80
   3   1  12   52.99    9.20
  -3   1 -12   52.19    9.90
  -3   1 -12   52.99    9.10
   3  -2 -12   -0.10    3.80
   3  -2 -12    3.80    4.30
   3  -2 -12   -1.30    4.00
  -3  -2  12    6.60    4.50
   3   2 -12    0.90    4.40
   3   2 -12   -5.30    3.50
  -3   2  12    3.60    4.30
   3   2 -12    6.30    3.50
   2  -2 -12  397.76   18.40
   2  -2 -12  390.46   18.60
   2  -2 -12  415.46   17.70
  -2  -2  12  379.96   18.20
  -2  -2  12  414.36   17.90
   2   2 -12  392.66   17.60
  -2   2  12  407.16   18.70
   2   2 -12  420.06   17.60
   2   2 -12  377.86   18.30
  -1  -2  12   22.20    5.90
   1  -2 -12   34.80    5.50
   1  -2 -12   27.20    5.10
   1  -2 -12   33.90    6.30
   1  -2 -12   32.40    6.10
   1   2 -12   17.70    4.60
  -1   2  12   36.10    6.60
  -1   2  12   19.90    5.40
   1   2 -12   26.70    5.00
   0  -2 -12  413.76   18.10
   0  -2  12  399.36   17.30
   0  -2 -12  381.56   17.50
   0   2  12  399.86   18.80
   0   2 -12  389.26   18.60
   0   2  12  403.46   18.20
   0   2 -12  416.56   17.30
   1  -2  12   13.40    4.60
   1  -2  12   19.20    4.70
  -1  -2 -12   14.60    4.10
  -1  -2 -12   24.70    5.40
  -1   2 -12   20.60    4.60
   1   2  12   16.00    5.00
  -1   2 -12   14.70    4.50
   1   2  12   20.80    7.30
  -2  -2 -12   20.00    4.60
   2  -2  12   21.90    5.20
  -2  -2 -12   21.00    5.20
   2   2  12   21.90    5.70
  -2   2 -12   20.40    5.20
  -2   2 -12   21.10    4.80
  -2   2 -12   21.80    5.40
  -3  -3  12    9.10    4.90
   3  -3 -12   14.00    5.70
   3  -3 -12   17.40    5.40
   3   3 -12   21.00    5.60
  -3   3  12   16.60    5.80
   3   3 -12   17.60    4.40
  -2  -3  12  159.68   10.70
   2  -3 -12  163.48   11.50
   2  -3 -12  169.98   11.30
   2  -3 -12  126.29   11.80
  -2  -3  12  172.68   10.80
   2   3 -12  163.78   10.50
  -2   3  12  170.68   12.00
   2   3 -12  154.48   10.70
   2   3 -12  162.48   12.50
   1  -3 -12 1338.87   43.00
   1  -3 -12 1320.27   42.80
  -1  -3  12 1240.88   43.70
   1  -3 -12 1372.66   42.20
   1  -3 -12 1319.77   43.30
  -1   3  12 1289.87   43.20
   1   3 -12 1334.37   41.60
   1   3 -12 1327.07   41.30
  -1   3  12 1331.17   43.40
   0  -3 -12   97.79    8.80
   0  -3  12  113.09   12.00
   0  -3  12   91.29    7.90
   0  -3 -12   84.09    8.40
   0   3  12  100.09    9.30
   0   3  12   87.89    8.60
   0   3 -12  106.99    8.20
   0   3 -12   90.19    7.60
  -1  -3 -12    9.00    4.00
   1  -3  12   19.10    4.80
   1  -3  12   15.60    4.20
  -1  -3 -12   20.00    5.00
   1   3  12    8.90    4.10
  -1   3 -12   18.30    3.90
  -1   3 -12   18.80    4.40
   1   3  12   14.30    4.50
  -2  -3 -12  100.99    8.80
  -2  -3 -12  117.39   10.80
   2  -3  12  101.69   10.20
   2   3  12  110.39   10.40
  -2   3 -12  102.69    9.70
  -2   3 -12   78.99    9.10
  -2   3 -12  110.69   10.10
   3  -4 -12   92.29   10.40
   3  -4 -12   72.89   10.10
  -3  -4  12   75.89    9.10
  -3   4  12   87.39   10.40
   3   4 -12   83.39    9.00
   3   4 -12   86.49    9.10
   2  -4 -12   46.60    7.70
  -2  -4  12   55.69   10.60
   2  -4 -12   60.39    9.70
   2  -4 -12   63.39    7.80
  -2  -4  12   53.89    7.20
  -2   4  12   52.79    8.50
   2   4 -12   55.69    7.00
   2   4 -12   42.10    6.60
   1  -4 -12  196.38   16.40
  -1  -4  12  239.48   11.70
   1  -4 -12  221.78   12.90
   1  -4 -12  218.98   12.90
   1  -4 -12  244.58   13.10
  -1  -4  12  222.88   13.40
   1   4 -12  232.28   11.70
  -1   4  12  218.18   13.30
  -1   4  12  225.28   13.40
   1   4 -12  227.28   11.80
   0  -4  12  328.97   17.30
   0  -4 -12  297.77   19.10
   0  -4 -12  322.47   15.80
   0  -4  12  340.07   16.30
   0   4 -12  313.07   14.10
   0   4 -12  327.07   14.30
   0   4  12  325.57   16.50
   0   4  12  301.87   16.00
  -1  -4 -12  148.29   10.70
   1  -4  12  140.39   10.10
  -1  -4 -12  145.49   10.70
   1  -4  12  143.79   10.00
   1   4  12  154.58   11.30
  -1   4 -12  130.89    9.70
   1   4  12  154.98   11.10
  -1   4 -12  155.78   10.10
   2  -4  12   59.19    8.90
  -2  -4 -12   49.30    8.80
  -2   4 -12   60.19    8.30
  -2   4 -12   41.00    6.70
  -2   4 -12   64.49    9.00
   2   4  12   60.89    9.10
   3  -5 -12   41.40    8.40
   3   5 -12   25.90    5.30
   3   5 -12   31.00    6.00
  -3   5  12   39.00    8.20
   2  -5 -12  103.79    9.50
   2  -5 -12  116.19   10.30
  -2  -5  12   92.89    8.40
  -2  -5  12  102.79    8.30
   2   5 -12  111.59    8.20
   2   5 -12   84.29    7.90
  -2   5  12  112.79   10.30
   1  -5 -12  174.98   11.40
  -1  -5  12  178.08    9.80
   1  -5 -12  168.38   11.70
  -1  -5  12  177.88   13.70
   1  -5 -12  164.18   11.40
   1  -5 -12  185.48   14.30
   1   5 -12  160.08    9.60
   1   5 -12  172.48    9.70
  -1   5  12  171.68   11.80
  -1   5  12  161.18   11.50
   0  -5  12  227.78   11.50
   0  -5  12  207.58   11.00
   0  -5 -12  201.98   12.60
   0  -5 -12  203.88   12.60
   0   5  12  193.48   12.50
   0   5 -12  213.78   11.00
   0   5  12  213.58   13.30
   0   5 -12  197.38   10.70
   1  -5  12    9.90    4.10
  -1  -5 -12    1.60    2.70
  -1  -5 -12    3.00    3.80
  -1   5 -12    7.20    4.30
   1   5  12    5.50    4.00
   1   5  12    4.80    3.60
  -1   5 -12    3.30    3.00
  -1   5 -12    7.40    3.20
   2  -5  12   12.70    4.70
  -2  -5 -12    4.60    3.10
  -2  -5 -12   16.20    5.90
  -2   5 -12    9.30    3.80
  -2   5 -12   13.30    4.70
  -2   5 -12    6.90    4.50
   2   5  12   12.10    5.00
  -3  -6  12   12.50    5.00
  -3   6  12   24.50    8.50
   3   6 -12   12.70    4.60
   2  -6 -12  104.29   10.50
  -2  -6  12   77.39    7.20
   2  -6 -12   96.39    9.80
   2   6 -12   91.69    7.40
   2   6 -12   81.89    7.10
  -2   6  12   81.29    9.80
   1  -6 -12   27.90    5.70
   1  -6 -12   33.30    7.20
  -1  -6  12   25.90    4.70
   1  -6 -12   29.50    5.60
   1   6 -12   31.50    5.10
   1   6 -12   29.80    4.90
  -1   6  12   29.90    5.80
  -1   6  12   44.60    7.20
   0  -6  12   93.59    7.10
   0  -6  12   90.59    7.10
   0  -6 -12  101.39   10.00
   0  -6 -12   96.89    9.30
   0   6  12   80.99    9.20
   0   6 -12   97.29    7.10
   0   6 -12   81.39    6.90
   0   6  12   76.99    9.00
   1  -6  12   15.20    4.30
  -1  -6 -12   12.20    5.40
  -1  -6 -12   10.90    3.60
  -1   6 -12    3.40    4.20
  -1   6 -12    6.50    3.10
  -1   6 -12    8.70    3.50
   1   6  12   11.00    5.10
   1   6  12    4.70    4.10
  -2  -6 -12   36.40    5.80
   2  -6  12   59.99    8.60
  -2   6 -12   51.59   10.50
  -2   6 -12   45.20    7.00
   2   6  12   76.19   12.50
  -2   6 -12   68.29    8.90
   2  -7 -12   53.89    9.00
   2  -7 -12   42.90    7.20
   2   7 -12   42.00    5.60
  -2   7  12   58.99    9.00
   1  -7 -12  104.89   10.70
   1  -7 -12   81.79    8.70
  -1   7  12   83.19    9.50
   1   7 -12   89.29    6.70
  -1   7  12   90.79   10.70
   1   7 -12   92.49    6.70
   0  -7 -12   11.30    5.50
   0  -7  12    9.20    5.20
   0  -7  12    8.20    2.60
   0  -7 -12    2.00    4.20
   0  -7 -12    6.40    4.30
   0   7 -12    9.10    3.20
   0   7  12    4.10    4.20
   0   7 -12   12.50    3.40
   0   7  12    7.70    4.30
  -1  -7 -12  223.48   14.10
  -1  -7 -12  196.38   11.40
   1  -7  12  219.78   11.60
   1   7  12  232.08   14.60
  -1   7 -12  242.78   12.10
  -1   7 -12  259.67   15.50
  -1   7 -12  207.88   10.80
   2  -7  12   76.89    8.90
  -2  -7 -12   64.09    7.40
  -2  -7 -12  101.29   11.20
  -2  -7 -12   77.19    7.70
  -2   7 -12   58.39    8.00
  -2   7 -12   88.09   10.10
  -2   7 -12   79.19   10.60
   2   7  12   88.89   10.60
   2  -8 -12  124.99   11.60
   2  -8 -12  152.78   13.00
  -2   8  12  151.78   14.20
   1  -8 -12    5.50    4.10
   1  -8 -12    6.90    5.10
  -1   8  12    6.20    5.30
   0  -8 -12   -0.50    3.50
   0  -8 -12    8.10    4.60
   0  -8 -12    5.60    4.90
   0   8 -12   10.80    4.30
   0   8 -12    3.10    2.80
   0   8  12   11.00    4.80
   0   8  12    4.10    4.70
  -1  -8 -12    2.60    4.30
   1  -8  12   -1.80    2.90
  -1   8 -12    7.10    3.40
  -1   8 -12    5.80    2.90
   1   8  12    4.40    6.50
  -1   8 -12    9.60    7.80
   1  -9 -12   25.20    7.30
   1  -9 -12   19.00    5.70
  -1   9  12   22.40    6.30
   0  -9 -12   11.20    4.30
   0  -9 -12   13.00    5.40
   0  -9 -12   15.90    6.60
   0   9 -12    7.00    4.50
   0   9  12   -0.40    4.60
  -1  -9 -12   42.30    6.60
  -1   9 -12   61.09    9.30
  -1   9 -12   42.40    6.30
   1   9  12   59.39    9.10
  -3   0  13   22.20    5.80
   3   0 -13   16.50    6.40
   3   0 -13   13.20    5.10
   2   0 -13   93.09    9.50
   2   0 -13  102.69    7.30
   2   0 -13   97.29    9.30
  -2   0  13   91.99    9.40
   1   0 -13   23.10    5.50
   1   0 -13   13.20    4.50
  -1   0  13   21.30    6.40
  -1   0  13   19.20    5.30
   1   0 -13   19.60    4.90
   0   0  13   14.00    5.10
   0   0 -13    7.30    4.20
   0   0 -13    4.80    3.50
   0   0  13    9.00    3.90
  -1   0 -13   11.40    3.90
  -1   0 -13    5.50    3.70
   1   0  13   11.40    4.60
  -2   0 -13  158.48   11.70
  -2   0 -13  168.58   12.40
  -2   0 -13  211.28   13.40
   2   0  13  173.98   13.10
   3  -1 -13   67.39    9.40
  -3  -1  13   54.39    9.50
   3  -1 -13   47.30    7.50
  -3   1  13   75.39    9.90
   3   1 -13   47.70    7.60
   3   1 -13   51.99    9.80
   3   1 -13   53.89    7.00
   2  -1 -13   60.49    8.20
   2  -1 -13   57.59    8.40
  -2  -1  13   59.09    8.30
   2  -1 -13   70.99    6.80
   2   1 -13   63.89    8.20
  -2   1  13   65.49    8.60
   2   1 -13   57.89    8.30
   1  -1 -13  195.68    9.80
   1  -1 -13  187.98   11.60
  -1  -1  13  177.68   12.90
   1  -1 -13  185.28   12.60
   1  -1 -13  183.28   12.10
   1   1 -13  181.78   11.50
   1   1 -13  189.88   15.20
   1   1 -13  183.38   11.20
  -1   1  13  169.08   11.90
   0  -1 -13   65.49    8.10
   0  -1  13   75.19    8.00
   0  -1  13   61.09    7.70
   0  -1 -13   59.89    7.50
   0   1  13   54.29    7.70
   0   1  13   68.79    8.10
   0   1 -13   64.99    7.30
   0   1 -13   55.49    7.30
  -1  -1 -13   44.00    8.60
   1  -1  13   39.70    7.30
  -1  -1 -13   44.10    7.40
   1  -1  13   44.00    6.70
   1   1  13   51.59    9.20
  -1   1 -13   56.39    7.50
  -1   1 -13   49.80    7.10
   2  -1  13    8.30    5.50
  -2  -1 -13    1.50    4.10
  -2  -1 -13    7.20    4.20
  -2   1 -13    5.00    4.10
   2   1  13    2.80    4.10
  -2   1 -13    3.70    4.90
  -2   1 -13    9.30    4.10
  -3  -2  13   12.50    5.00
   3  -2 -13    9.20    4.70
   3  -2 -13   14.80    5.40
   3   2 -13    5.70    5.20
  -3   2  13   16.90    5.90
   3   2 -13   12.30    5.50
   3   2 -13   19.20    4.80
  -2  -2  13  151.98   11.00
   2  -2 -13  127.19   11.10
   2  -2 -13  157.18   10.30
   2  -2 -13  150.78   11.30
   2   2 -13  149.29   10.90
   2   2 -13  131.49   10.50
  -2   2  13  136.89   11.30
   1  -2 -13   65.09   11.80
   1  -2 -13   67.79    7.00
   1  -2 -13   66.99    7.80
  -1  -2  13   51.69    8.30
   1  -2 -13   63.59    8.30
  -1   2  13   70.29    8.60
   1   2 -13   61.29    7.60
   1   2 -13   69.49    7.30
   0  -2  13  280.27   14.60
   0  -2 -13  280.87   14.80
   0  -2 -13  293.87   15.30
   0  -2 -13  293.57   14.80
   0  -2  13  296.67   14.70
   0   2 -13  327.47   15.10
   0   2  13  278.57   16.30
   0   2 -13  285.77   14.40
   0   2  13  310.07   18.60
  -1  -2 -13   49.60    7.90
  -1  -2 -13   51.79    7.70
   1  -2  13   42.90    7.30
   1   2  13   54.09    7.60
  -1   2 -13   32.90    5.60
  -1   2 -13   52.19    6.90
  -2  -2 -13  100.89    9.60
  -2  -2 -13  115.19   11.20
   2  -2  13  105.79   12.10
   2   2  13  104.39   10.70
  -2   2 -13  108.89   10.60
  -2   2 -13  109.99   10.50
   3  -3 -13  153.08   12.00
  -3  -3  13  122.19   11.30
   3  -3 -13  136.59   12.10
   3   3 -13  149.69   11.50
   3   3 -13  146.49   12.40
  -3   3  13  141.89   13.00
   2  -3 -13   12.10    4.40
   2  -3 -13    7.80    4.90
  -2  -3  13   11.60    4.50
   2  -3 -13   14.70    4.70
   2   3 -13   18.20    4.70
  -2   3  13   10.60    4.70
   2   3 -13    9.50    4.90
   1  -3 -13  188.78   12.30
  -1  -3  13  193.98   12.80
   1  -3 -13  219.48   12.10
  -1  -3  13  211.68   12.00
   1  -3 -13  175.58   12.70
   1   3 -13  209.78   11.70
   1   3 -13  182.38   11.50
  -1   3  13  204.28   13.20
   0  -3  13  129.39    9.30
   0  -3  13  120.59    9.90
   0  -3 -13  108.59    9.90
   0  -3 -13  119.89    9.30
   0  -3 -13  122.79    9.90
   0   3 -13  127.69    9.30
   0   3  13  126.79   10.50
   0   3  13  104.59   13.60
  -1  -3 -13   70.59    8.70
  -1  -3 -13   65.29    8.10
   1  -3  13   65.99    7.90
  -1   3 -13   73.39    7.90
  -1   3 -13   53.89    7.30
   1   3  13   71.19    8.80
  -2  -3 -13   58.19    8.30
  -2  -3 -13   65.69    9.70
  -2   3 -13   77.89    9.60
   2   3  13   71.59    9.80
  -2   3 -13   75.69   13.60
  -3  -4  13   57.49    8.40
   3  -4 -13   80.79   10.50
   3   4 -13   67.39    8.80
   3   4 -13   72.29   10.20
  -3   4  13   70.79   11.00
   2  -4 -13   42.90    7.20
  -2  -4  13   31.80    6.10
   2  -4 -13   29.60    5.90
   2   4 -13   36.20    6.90
   2   4 -13   46.20    7.10
  -2   4  13   39.90    7.60
   1  -4 -13  108.19    9.50
   1  -4 -13  117.79    9.70
  -1  -4  13  109.29    9.60
   1  -4 -13  108.19    9.70
  -1  -4  13  105.49   12.80
   1   4 -13  112.39    8.50
   1   4 -13   97.49    8.40
  -1   4  13  107.69   10.20
   0  -4 -13  118.99    9.60
   0  -4  13  148.99    9.70
   0  -4 -13  134.89   10.60
   0  -4  13  128.39   11.90
   0  -4 -13  122.59   10.40
   0   4 -13  117.09    8.90
   0   4 -13  139.69    9.30
   0   4  13  143.69   11.00
  -1  -4 -13   89.19    8.20
   1  -4  13   84.49    8.90
  -1  -4 -13  103.79    9.90
   1   4  13   91.89    9.20
  -1   4 -13   69.29    7.60
  -1   4 -13   82.79    8.50
  -2  -4 -13    8.30    4.40
  -2  -4 -13   23.70    6.70
   2  -4  13   21.50    5.80
  -2   4 -13   14.90    8.00
  -2   4 -13   12.70    5.20
   2   4  13   12.00    5.10
   2  -5 -13   29.50    6.80
   2  -5 -13   20.30    6.10
   2   5 -13   20.50    4.30
   2   5 -13   34.50    6.30
  -2   5  13   17.00    5.20
  -1  -5  13   44.40    6.70
   1  -5 -13   53.49    7.90
   1  -5 -13   60.59    7.80
  -1  -5  13   58.79    6.60
  -1   5  13   45.50    7.70
   1   5 -13   46.00    6.70
   1   5 -13   61.29    6.40
   0  -5 -13    7.30    4.00
   0  -5  13    7.40    4.00
   0  -5 -13   11.70    5.10
   0   5 -13   15.10    4.00
   0   5  13   15.60    4.80
   0   5 -13   19.80    4.70
  -1  -5 -13   34.90    6.50
  -1  -5 -13   17.80    4.40
   1  -5  13   34.60    6.30
  -1   5 -13   21.40    5.90
  -1   5 -13   26.40    5.60
  -1   5 -13   15.90    6.70
   1   5  13   27.90    6.50
  -2  -5 -13    6.80    3.70
  -2  -5 -13   15.70    5.70
   2  -5  13    9.40    4.80
  -2   5 -13    9.90    5.10
  -2   5 -13   15.90    4.90
  -2   5 -13    9.70    4.80
   2   5  13   12.50    6.40
   2  -6 -13   29.10    7.10
   2  -6 -13   20.60    6.40
  -2  -6  13   20.50    4.00
   2   6 -13   17.10    4.20
  -2   6  13   18.30    5.90
  -1  -6  13   36.00    5.60
   1  -6 -13   36.10    6.90
  -1  -6  13   34.10    5.80
   1  -6 -13   42.80    7.90
   1   6 -13   36.60    5.90
  -1   6  13   43.00    8.30
   0  -6  13  239.28   12.20
   0  -6 -13  266.17   15.10
   0  -6 -13  262.17   14.30
   0   6 -13  250.87   12.20
   0   6  13  266.47   15.70
   0   6 -13  264.57   12.50
   1  -6  13   64.69   10.90
  -1  -6 -13   82.99    9.80
  -1  -6 -13   71.79    8.10
  -1   6 -13   79.09    6.60
  -1   6 -13   60.99    9.00
   1   6  13   81.39   10.00
  -1   6 -13   69.99    7.80
   2  -7 -13   51.69    8.90
   2  -7 -13   48.30    8.90
   2   7 -13   57.09    6.80
  -2   7  13   46.60    9.00
   2   7 -13   40.50    6.10
   1  -7 -13   40.40    7.30
   1  -7 -13   53.59    8.70
   1   7 -13   33.40    5.70
  -1   7  13   55.69    8.80
   1   7 -13   34.20    5.30
   0  -7 -13   15.60    5.20
   0  -7  13   11.10    4.60
   0  -7  13   11.30    3.80
   0   7 -13   15.70    3.70
   0   7  13   11.50    5.00
  -1  -7 -13   50.79    7.80
  -1  -7 -13   74.79   10.00
   1  -7  13   69.39    7.50
  -1   7 -13   78.79    7.60
  -1   7 -13   85.69   10.20
  -1   7 -13   64.49    7.10
   1   7  13   59.69   11.90
   1  -8 -13    4.70    4.30
   1  -8 -13    6.70    5.20
  -1   8  13   -0.80    4.90
   0  -8 -13   72.49    9.20
   0   8  13   61.49   10.70
   0   8 -13   61.19    6.90
   0   8 -13   54.69    6.20
   2   0 -14   59.69    8.20
  -2   0  14   53.49    8.80
   2   0 -14   51.09    8.00
   2   0 -14   57.29    6.30
   1   0 -14   11.60    5.10
   0   0 -14  155.98   11.10
   0   0  14  158.58   11.60
   0   0 -14  175.38   11.60
  -1   0 -14   59.69    8.00
  -1   0 -14   51.49    8.00
   1   0  14   64.19    8.70
  -2   0 -14   -5.40    3.90
  -2   0 -14    5.00    4.70
   2   0  14   10.00    5.50
   2  -1 -14   26.50    6.10
  -2  -1  14   37.10    7.40
   2  -1 -14   46.20    6.30
   2  -1 -14   44.80    7.90
   2   1 -14   39.30    6.60
  -2   1  14   37.90    7.50
   1  -1 -14   17.20    4.90
   1  -1 -14   23.70    5.90
   1   1 -14   11.80    5.20
   1   1 -14   21.00    5.40
   0  -1  14   76.09    8.80
   0  -1 -14   89.29    9.00
   0  -1 -14   99.69   10.00
   0   1 -14   88.99    8.60
   0   1  14   68.29   12.80
   0   1 -14   80.39    9.00
   1  -1  14   21.60    6.40
  -1  -1 -14   15.70    4.90
  -1  -1 -14   21.50    4.90
   1   1  14   23.70    5.80
  -1   1 -14   19.90    5.50
  -2  -1 -14   14.70    5.30
   2  -1  14   20.30    6.50
  -2  -1 -14   11.40    5.30
  -2   1 -14    9.70    4.90
   2   1  14    8.90    5.40
  -2   1 -14    9.40    4.80
   2  -2 -14   45.50    8.30
   2  -2 -14   50.19    6.80
   2   2 -14   49.40    7.70
   2   2 -14   51.39    8.20
  -2   2  14   33.00    6.40
   1  -2 -14  274.47   15.20
  -1  -2  14  272.37   14.80
   1  -2 -14  267.87   13.20
   1  -2 -14  253.17   14.90
   1   2 -14  271.27   14.40
   1   2 -14  266.27   14.30
   0  -2 -14  147.19   10.40
   0  -2 -14  122.69   10.60
   0  -2  14  123.49   10.20
   0   2 -14  120.99    9.80
   0   2  14  118.29   11.00
   0   2 -14  130.49   10.30
  -1  -2 -14   44.00    8.00
   1  -2  14   26.20    6.00
   1   2  14   27.50    6.20
  -1   2 -14   28.30    5.70
  -2  -2 -14   83.29   10.70
   2  -2  14   74.49   10.90
  -2  -2 -14   62.49    9.30
   2   2  14   72.19   10.50
  -2   2 -14   79.19   13.10
  -2   2 -14   80.69   10.20
  -2  -3  14  315.67   16.30
   2  -3 -14  332.07   17.60
   2  -3 -14  332.57   16.40
   2   3 -14  334.47   16.30
   2   3 -14  324.57   16.00
  -2   3  14  309.27   17.60
   1  -3 -14   19.60    5.30
   1  -3 -14   27.70    5.90
  -1  -3  14   17.00    5.10
   1  -3 -14    6.80    4.90
   1   3 -14   17.10    4.80
   1   3 -14   17.30    4.50
  -1   3  14    9.00    5.10
   0  -3  14   50.09    7.40
   0  -3 -14   42.30    7.60
   0  -3 -14   33.20    7.00
   0   3 -14   38.90    7.00
   0   3 -14   38.50    6.80
   0   3  14   41.00    7.30
   1  -3  14  106.39   10.00
  -1  -3 -14  103.09   10.70
  -1   3 -14   83.69    8.80
   1   3  14   88.39    9.90
  -1   3 -14   96.29    9.20
   2  -4 -14  266.87   15.10
   2  -4 -14  234.78   16.10
  -2   4  14  220.78   15.20
   2   4 -14  271.97   17.80
   2   4 -14  241.58   13.60
   1  -4 -14   12.00    4.90
   1  -4 -14   15.50    5.90
  -1  -4  14    6.20    4.00
   1   4 -14   10.60    4.30
   1   4 -14    3.50    3.60
  -1   4  14    4.90    4.90
   0  -4 -14    5.30    4.50
   0  -4  14    6.20    4.30
   0   4 -14   -1.40    4.80
   0   4 -14    6.80    4.00
   0   4  14   10.30    4.90
  -1  -4 -14  130.09   11.60
   1  -4  14  132.39   10.80
   1   4  14  132.09   11.80
  -1   4 -14  127.19   10.40
  -1   4 -14  128.09    9.60
   2  -5 -14  167.78   12.60
   2  -5 -14  165.98   20.60
  -2   5  14  161.78   13.00
   2   5 -14  166.88   10.80
   2   5 -14  140.99   10.70
   1  -5 -14   44.40    8.00
   1  -5 -14   37.00    7.60
  -1  -5  14   34.10    6.00
   1   5 -14   34.50    5.40
   1   5 -14   44.40    6.70
  -1   5  14   40.20    8.10
   0  -5  14   69.09    7.90
   0  -5 -14   97.59    9.60
   0   5 -14  107.09    7.90
   0   5  14   78.59   10.00
   0   5 -14   88.99    8.30
  -1  -5 -14    4.60    4.90
   1  -5  14    3.30    4.60
  -1   5 -14   -1.40    3.60
   1   5  14    2.30    4.40
  -1   5 -14    5.50    4.30
  -1   5 -14    3.50    4.20
  -1  -6  14  107.39    8.20
   1  -6 -14  125.69   11.20
   1  -6 -14  140.69   11.40
   1   6 -14  116.09    8.90
   1   6 -14   95.89    9.00
  -1   6  14  130.59   11.80
   0  -6 -14   21.10    6.20
   0  -6  14   24.10    4.90
   0   6  14   22.30    6.50
   0   6 -14   33.80    6.00
   1  -6  14   44.30    8.30
  -1  -6 -14   67.39    9.90
  -1   6 -14   52.69    9.50
  -1   6 -14   56.19   11.20
   1   6  14   53.69    9.50
   1  -7 -14    9.60    5.10
   1  -7 -14   11.00    5.20
   1   7 -14   -0.10    3.20
   1   7 -14   -1.90    3.50
   0  -7 -14  196.08   13.80
   0  -7  14  168.68   10.40
   0   7 -14  195.48   11.10
   0   7 -14  173.38   10.40
   0   7  14  200.28   14.60
  -2   0  15    9.50    5.10
   2   0 -15   17.70    5.60
   1   0 -15    5.10    4.20
   1   0 -15    7.40    4.80
   0   0  15    5.60    5.20
   0   0 -15    6.30    3.60
   1   0  15   47.30    8.00
  -1   0 -15   50.49    8.50
  -2  -1  15   85.19   11.10
   2  -1 -15   97.49   10.40
   2  -1 -15  105.49    8.30
   2   1 -15  103.69   10.20
  -2   1  15   90.09   11.40
   2   1 -15  121.89   12.80
  -1  -1  15   21.20    5.70
   1  -1 -15   19.40    5.40
   1   1 -15   19.50    5.30
   1   1 -15   38.60    7.30
   0  -1  15   24.20    6.30
   0  -1 -15   20.70    6.10
   0   1  15   38.80    7.10
   0   1 -15   28.40    6.00
  -1  -1 -15   57.29    9.10
   1  -1  15   52.69    9.50
  -1   1 -15   51.19    8.10
   1   1  15   58.89    9.40
   2  -2 -15   41.30    7.70
  -2  -2  15   21.60    6.60
   2  -2 -15   33.40    6.70
  -2   2  15   21.90    6.60
   2   2 -15   29.80    6.30
  -1  -2  15  140.99   11.20
   1  -2 -15  134.39   11.40
   1   2 -15  142.99   11.00
   1   2 -15  116.09   10.20
   0  -2  15  109.59   10.20
   0  -2 -15  107.99   10.40
   0   2 -15  108.79   10.00
   0   2 -15  117.89   10.20
   0   2  15   99.79   10.60
  -1  -2 -15   61.89    9.40
   1  -2  15   53.19   11.70
  -1   2 -15   45.10    7.90
   1   2  15   64.49    9.80
   1  -3 -15  138.29   13.20
  -1  -3  15   98.19    9.70
   1  -3 -15  116.69    9.70
   1   3 -15  103.39    9.60
   1   3 -15  114.29   10.00
   0  -3  15   47.20    7.80
   0  -3 -15   45.80    8.20
   0   3 -15   43.20    7.50
   0   3 -15   61.59    7.80
   0   3  15   49.40    8.90
  -1  -3 -15   87.29   11.00
   1  -3  15   87.59   10.20
  -1   3 -15   79.49    9.50
  -1   3 -15  113.99    9.50
   1   3  15   93.59   11.00
   1  -4 -15  104.99    9.60
  -1  -4  15  102.19    9.70
   1   4 -15  116.39   10.00
   1   4 -15  121.39   11.20
   0  -4 -15   22.70    5.70
   0  -4  15   25.30    5.70
   0   4 -15   30.00    8.40
   0   4  15   30.90    6.80
   0   4 -15   36.70    6.40
   1  -5 -15   19.70    6.40
   1  -5 -15   28.40    6.90
  -1  -5  15   18.80    6.50
   1   5 -15   16.20    5.20
   0  -5  15   27.70    5.80
   0  -5 -15   34.90   11.10
   0   5 -15   26.90    9.10
   0   5 -15   26.10    6.60
   0   5  15   40.20    8.10
   1   0 -16   82.49    9.30
  -1   0  16   70.39   10.00
   0   0  16    2.90    5.10
   0   0 -16    4.50    4.10
  -1  -1  16   48.70   10.50
   1  -1 -16   27.70    6.10
  -1   1  16   36.30    7.70
   1   1 -16   21.60    5.60
   0  -1  16   19.20    6.00
   0  -1 -16   12.90    5.40
   0   1  16   12.50    6.30
   0   1 -16   11.60    4.70
   0   0   0    0.00    0.00

_computing_structure_solution     'SHELXT 2018/2 (Sheldrick, 2018)'
;
_shelx_hkl_checksum              43084
loop_
_space_group_symop_operation_xyz
'x, y, z'
'-x, y+1/2, -z'
loop_
_atom_site_label
_atom_site_type_symbol
_atom_site_fract_x
_atom_site_fract_y
_atom_site_fract_z
_atom_site_U_iso_or_equiv
_atom_site_adp_type
_atom_site_occupancy
_atom_site_site_symmetry_order
_atom_site_calc_flag
_atom_site_refinement_flags_posn
_atom_site_refinement_flags_adp
_atom_site_refinement_flags_occupancy
_atom_site_disorder_assembly
_atom_site_disorder_group
C1 C 0.2297(11) 0.8026(4) 0.6598(4) 0.0263(8) Uani 1 1 d . U . . .
C2 C 0.2534(13) 0.7749(4) 0.7718(4) 0.0324(9) Uani 1 1 d . U . . .
H2 H 0.197237 0.833660 0.824305 0.039 Uiso 1 1 calc R U . . .
C3 C 0.3588(13) 0.6617(4) 0.8065(4) 0.0314(9) Uani 1 1 d . U . . .
H3 H 0.377454 0.643054 0.883123 0.038 Uiso 1 1 calc R U . . .
C4 C 0.4387(10) 0.5737(4) 0.7298(3) 0.0240(8) Uani 1 1 d . U . . .
C5 C 0.4167(12) 0.6048(4) 0.6176(3) 0.0285(8) Uani 1 1 d . U . . .
H5 H 0.475091 0.546784 0.564767 0.034 Uiso 1 1 calc R U . . .
C6 C 0.3134(12) 0.7165(4) 0.5826(4) 0.0302(9) Uani 1 1 d . U . . .
H6 H 0.298351 0.735701 0.506131 0.036 Uiso 1 1 calc R U . . .
C7 C 0.5313(10) 0.4497(4) 0.7660(3) 0.0233(7) Uani 1 1 d . U . . .
C8 C 0.7131(11) 0.4269(4) 0.8688(3) 0.0259(8) Uani 1 1 d . U . . .
H8 H 0.785312 0.492150 0.915669 0.031 Uiso 1 1 calc R U . . .
C9 C 0.7904(12) 0.3107(4) 0.9039(3) 0.0278(9) Uani 1 1 d . U . . .
H9 H 0.915621 0.296423 0.973930 0.033 Uiso 1 1 calc R U . . .
C10 C 0.6820(11) 0.2156(4) 0.8352(3) 0.0254(8) Uani 1 1 d . U . . .
C11 C 0.4980(11) 0.2354(4) 0.7325(3) 0.0256(8) Uani 1 1 d . U . . .
H11 H 0.421695 0.169775 0.686606 0.031 Uiso 1 1 calc R U . . .
C12 C 0.4273(11) 0.3524(4) 0.6980(3) 0.0249(8) Uani 1 1 d . U . . .
H12 H 0.306640 0.366462 0.627264 0.030 Uiso 1 1 calc R U . . .
Cl1 Cl 0.0690(7) 0.9484(2) 0.6056(3) 0.0255(11) Uani 0.516(16) 1 d . U P A 1
N1 N 0.806(3) 0.0042(16) 0.9015(10) 0.032(2) Uani 0.516(16) 1 d . U P A 1
C13 C 0.750(4) 0.1049(17) 0.8671(12) 0.027(2) Uani 0.516(16) 1 d . U P A 1
Cl1' Cl 0.7779(10) 0.0599(4) 0.8831(3) 0.0321(15) Uani 0.484(16) 1 d . U P A 2
N1' N 0.033(3) 1.0041(19) 0.6046(8) 0.030(2) Uani 0.484(16) 1 d . U P A 2
C13' C 0.130(4) 0.9127(17) 0.6327(15) 0.032(3) Uani 0.484(16) 1 d . U P A 2
loop_
_atom_site_aniso_label
_atom_site_aniso_U_11
_atom_site_aniso_U_22
_atom_site_aniso_U_33
_atom_site_aniso_U_23
_atom_site_aniso_U_13
_atom_site_aniso_U_12
C1 0.0212(18) 0.0256(18) 0.033(2) -0.0066(15) 0.0074(16) -0.0041(14)
C2 0.035(2) 0.031(2) 0.033(2) -0.0141(16) 0.0120(17) -0.0051(16)
C3 0.037(2) 0.032(2) 0.0261(19) -0.0086(16) 0.0095(17) -0.0042(17)
C4 0.0166(16) 0.0289(19) 0.0267(17) -0.0089(15) 0.0033(13) -0.0034(14)
C5 0.029(2) 0.031(2) 0.0262(18) -0.0092(15) 0.0044(15) -0.0021(16)
C6 0.028(2) 0.032(2) 0.031(2) -0.0074(15) 0.0069(16) -0.0028(16)
C7 0.0171(16) 0.0290(17) 0.0245(16) -0.0079(15) 0.0048(12) -0.0047(15)
C8 0.0244(18) 0.031(2) 0.0223(17) -0.0099(14) 0.0048(14) -0.0047(14)
C9 0.0239(19) 0.042(2) 0.0180(16) -0.0055(15) 0.0021(14) -0.0050(16)
C10 0.0231(18) 0.027(2) 0.0266(19) -0.0030(14) 0.0083(14) -0.0011(14)
C11 0.0226(18) 0.0284(19) 0.0262(18) -0.0074(16) 0.0043(14) -0.0020(14)
C12 0.0194(18) 0.0309(19) 0.0243(18) -0.0085(15) 0.0016(14) -0.0015(14)
Cl1 0.0267(14) 0.017(2) 0.0329(14) 0.0026(12) 0.0013(9) 0.0009(13)
N1 0.041(5) 0.025(5) 0.031(4) 0.000(4) 0.002(3) 0.004(4)
C13 0.023(4) 0.034(6) 0.023(5) -0.002(5) 0.001(3) 0.004(5)
Cl1' 0.0373(16) 0.029(3) 0.0307(19) 0.001(2) 0.0050(12) 0.005(2)
N1' 0.029(4) 0.034(6) 0.027(4) -0.006(4) 0.002(3) -0.003(5)
C13' 0.030(6) 0.032(6) 0.033(6) -0.009(4) 0.008(5) 0.003(5)
loop_
_atom_type_symbol
_atom_type_description
_atom_type_scat_dispersion_real
_atom_type_scat_dispersion_imag
_atom_type_scat_source
C C 0.0033 0.0016 'International Tables Vol C Tables 4.2.6.8 and 6.1.1.4'
H H 0.0000 0.0000 'International Tables Vol C Tables 4.2.6.8 and 6.1.1.4'
N N 0.0061 0.0033 'International Tables Vol C Tables 4.2.6.8 and 6.1.1.4'
Cl Cl 0.1484 0.1585 'International Tables Vol C Tables 4.2.6.8 and 6.1.1.4'
loop_
_geom_angle_atom_site_label_1
_geom_angle_atom_site_label_2
_geom_angle_atom_site_label_3
_geom_angle
_geom_angle_site_symmetry_1
_geom_angle_site_symmetry_3
_geom_angle_publ_flag
C13' C1 C2 116.4(8) . . ?
C13' C1 C6 123.3(8) . . ?
C2 C1 C6 120.2(4) . . ?
C2 C1 Cl1 122.6(3) . . ?
C6 C1 Cl1 117.1(4) . . ?
C3 C2 C1 119.6(4) . . ?
C2 C3 C4 120.8(4) . . ?
C5 C4 C3 118.2(4) . . ?
C5 C4 C7 120.8(3) . . ?
C3 C4 C7 120.9(4) . . ?
C6 C5 C4 121.4(4) . . ?
C5 C6 C1 119.7(4) . . ?
C8 C7 C12 118.5(4) . . ?
C8 C7 C4 121.4(3) . . ?
C12 C7 C4 120.1(4) . . ?
C9 C8 C7 121.3(4) . . ?
C8 C9 C10 119.0(4) . . ?
C13 C10 C9 120.1(7) . . ?
C13 C10 C11 118.9(7) . . ?
C9 C10 C11 121.1(4) . . ?
C9 C10 Cl1' 119.1(3) . . ?
C11 C10 Cl1' 119.8(3) . . ?
C12 C11 C10 119.2(4) . . ?
C11 C12 C7 120.9(4) . . ?
N1 C13 C10 176.8(16) . . ?
N1' C13' C1 176.1(15) . . ?
loop_
_geom_bond_atom_site_label_1
_geom_bond_atom_site_label_2
_geom_bond_distance
_geom_bond_site_symmetry_2
_geom_bond_publ_flag
C1 C13' 1.32(2) . ?
C1 C2 1.390(6) . ?
C1 C6 1.397(6) . ?
C1 Cl1 1.838(6) . ?
C2 C3 1.380(7) . ?
C3 C4 1.403(5) . ?
C4 C5 1.400(6) . ?
C4 C7 1.484(6) . ?
C5 C6 1.364(6) . ?
C7 C8 1.395(6) . ?
C7 C12 1.400(5) . ?
C8 C9 1.388(6) . ?
C9 C10 1.390(6) . ?
C10 C13 1.31(2) . ?
C10 C11 1.392(6) . ?
C10 Cl1' 1.859(7) . ?
C11 C12 1.390(6) . ?
N1 C13 1.21(3) . ?
N1' C13' 1.13(4) . ?
