#------------------------------------------------------------------------------
#$Date: 2022-03-06 06:37:54 +0200 (Sun, 06 Mar 2022) $
#$Revision: 273468 $
#$URL: file:///home/coder/svn-repositories/cod/cif/1/56/59/1565948.cif $
#------------------------------------------------------------------------------
#
# This file is available in the Crystallography Open Database (COD),
# http://www.crystallography.net/
#
# All data on this site have been placed in the public domain by the
# contributors.
#
data_1565948
loop_
_publ_author_name
'Wildner, Manfred'
'Zakharov, Boris A.'
'Bogdanov, Nikita E.'
'Talla, Dominik'
'Boldyreva, Elena V.'
'Miletich, Ronald'
_publ_section_title
;
 Crystallography relevant to Mars and Galilean icy moons: crystal behavior
 of kieserite-type monohydrate sulfates at extraterrestrial conditions
 down to 15 K
;
_journal_issue                   2
_journal_name_full               IUCrJ
_journal_page_first              194
_journal_page_last               203
_journal_paper_doi               10.1107/S2052252521012720
_journal_volume                  9
_journal_year                    2022
_chemical_formula_sum            'Fe H2 Mg0 O5 S'
_chemical_formula_weight         169.93
_space_group_crystal_system      monoclinic
_space_group_IT_number           15
_space_group_name_Hall           '-C 2yc'
_space_group_name_H-M_alt        'C 1 2/c 1'
_atom_sites_solution_hydrogens   difmap
_audit_creation_method           SHELXL-2017/1
_cell_angle_alpha                90
_cell_angle_beta                 118.515(10)
_cell_angle_gamma                90
_cell_formula_units_Z            4
_cell_length_a                   7.0696(10)
_cell_length_b                   7.5620(10)
_cell_length_c                   7.7669(10)
_cell_measurement_temperature    233(2)
_cell_volume                     364.85(9)
_computing_structure_refinement  'SHELXL-2017/1 (Sheldrick, 2017)'
_diffrn_ambient_temperature      233(2)
_diffrn_measured_fraction_theta_full 0.988
_diffrn_measured_fraction_theta_max 0.996
_diffrn_radiation_type           MoK\a
_diffrn_radiation_wavelength     0.71073
_diffrn_reflns_av_R_equivalents  0.0306
_diffrn_reflns_av_unetI/netI     0.0128
_diffrn_reflns_Laue_measured_fraction_full 0.988
_diffrn_reflns_Laue_measured_fraction_max 0.996
_diffrn_reflns_limit_h_max       12
_diffrn_reflns_limit_h_min       -12
_diffrn_reflns_limit_k_max       13
_diffrn_reflns_limit_k_min       -13
_diffrn_reflns_limit_l_max       14
_diffrn_reflns_limit_l_min       -14
_diffrn_reflns_number            10393
_diffrn_reflns_point_group_measured_fraction_full 0.988
_diffrn_reflns_point_group_measured_fraction_max 0.996
_diffrn_reflns_theta_full        25.242
_diffrn_reflns_theta_max         39.993
_diffrn_reflns_theta_min         4.194
_exptl_absorpt_coefficient_mu    4.589
_exptl_absorpt_correction_T_max  0.7479
_exptl_absorpt_correction_T_min  0.5607
_exptl_absorpt_correction_type   multi-scan
_exptl_absorpt_process_details
;
 SADABS 2016/2: Krause, L., Herbst-Irmer, R., Sheldrick G.M. & Stalke D.,
 J. Appl. Cryst. 48 (2015) 3-10
;
_exptl_crystal_density_diffrn    3.094
_exptl_crystal_F_000             336
_refine_diff_density_max         0.545
_refine_diff_density_min         -0.537
_refine_diff_density_rms         0.082
_refine_ls_extinction_coef       0.079(2)
_refine_ls_extinction_expression Fc^*^=kFc[1+0.001xFc^2^\l^3^/sin(2\q)]^-1/4^
_refine_ls_extinction_method     'SHELXL-2017/1 (Sheldrick 2017)'
_refine_ls_goodness_of_fit_ref   1.146
_refine_ls_hydrogen_treatment    refall
_refine_ls_matrix_type           full
_refine_ls_number_parameters     40
_refine_ls_number_reflns         1133
_refine_ls_number_restraints     0
_refine_ls_restrained_S_all      1.146
_refine_ls_R_factor_all          0.0134
_refine_ls_R_factor_gt           0.0132
_refine_ls_shift/su_max          0.000
_refine_ls_shift/su_mean         0.000
_refine_ls_structure_factor_coef Fsqd
_refine_ls_weighting_details
'w=1/[\s^2^(Fo^2^)+(0.0170P)^2^+0.1700P] where P=(Fo^2^+2Fc^2^)/3'
_refine_ls_weighting_scheme      calc
_refine_ls_wR_factor_gt          0.0352
_refine_ls_wR_factor_ref         0.0353
_reflns_Friedel_coverage         0.000
_reflns_number_gt                1117
_reflns_number_total             1133
_reflns_threshold_expression     'I > 2\s(I)'
_cod_data_source_file            lt5044.cif
_cod_data_source_block           FeSO4H2O_N2_233K
_cod_depositor_comments
'Adding full bibliography for 1565934--1565967.cif.'
_cod_original_sg_symbol_H-M      'C 2/c'
_cod_database_code               1565948
_shelx_shelxl_version_number     2017/1
_shelx_space_group_comment
;
The symmetry employed for this shelxl refinement is uniquely defined
by the following loop, which should always be used as a source of
symmetry information in preference to the above space-group names.
They are only intended as comments.
;
_shelx_res_file
;
TITL 1991Fekiesx1 233K Apex in C2/c kieserite cell
    latt_corr_for_Nonius20C_1991Fekiesx1_233K_0m.res
    created by SHELXL-2017/1 at 15:53:39 on 08-Oct-2018

REM meas.  mon  7.0558(1) 7.5513(2) 7.5959(1)  90  116.2229(4)  90
REM trans. cryscomp 7.0558 7.5513 7.7536  90 118.498 90
REM meas.trcl 7.0559(1) 7.5513(2) 7.5963(2) 89.9953(5) 116.2252(4) 89.9789(5)
REM trans. cryscomp 7.0559 7.5513 7.7536 89.976 118.495 90.021
REM CELL 0.71073   7.0558 7.5513 7.7536  90 118.498 90
REM latt corr for Nonius20C  +.0138 +.0107 +.0133     +.017
CELL 0.71073   7.0696 7.5620 7.7669  90 118.515 90
ZERR    4.00   0.001   0.001   0.001   0.00   0.01   0.00
LATT  7
SYMM -X, Y, .5-Z
SFAC O H S MG FE
UNIT 20 8 4 0 4
SHEL 20 0.55285
OMIT -2 2 2
OMIT -3 1 1
OMIT 3 3 3
OMIT 1 3 1
REM DAMP 1000
L.S. 10
CONN 12 1.8 $O
EQIV $9 -x+1/2, y+1/2, -z+1/2
BOND $H
FMAP 2
PLAN 20
ACTA
HTAB O3 O2_$9
HTAB
REM EXYZ MG FE
REM EADP MG FE
REM SUMP 1.0 0 1.0 2 1.0 3
WGHT    0.017000    0.170000
EXTI    0.078620
FVAR       0.83168
FE    5    0.000000    0.500000    0.000000    10.50000    0.00634    0.00685 =
         0.00754    0.00074    0.00310   -0.00004
S     3    0.000000    0.154057    0.250000    10.50000    0.00456    0.00540 =
         0.00768    0.00000    0.00260    0.00000
O1    1    0.168929    0.043548    0.399180    11.00000    0.00723    0.01321 =
         0.01418    0.00646    0.00400    0.00356
O2    1    0.097660    0.268930    0.157941    11.00000    0.01009    0.00930 =
         0.01444    0.00417    0.00749    0.00102
O3    1    0.000000    0.644498    0.250000    10.50000    0.00988    0.01023 =
         0.00990    0.00000    0.00501    0.00000
H     2    0.105478    0.717572    0.295081    11.00000    0.03437
HKLF 4 1  1 0 0 0 -1 0 -1 0 -1




REM  1991Fekiesx1 233K Apex in C2/c kieserite cell
REM R1 =  0.0132 for    1117 Fo > 4sig(Fo)  and  0.0134 for all    1133 data
REM     40 parameters refined using      0 restraints

END

WGHT      0.0168      0.1769

REM Instructions for potential hydrogen bonds
EQIV $19 x+1/2, y+1/2, z
HTAB O3 S_$19
EQIV $3 x, y+1, z
HTAB O3 O1_$3
HTAB O3 O2_$9

REM Highest difference peak  0.545,  deepest hole -0.537,  1-sigma level  0.082
Q1    1   0.0554  0.5402  0.0840  11.00000  0.05    0.54
Q2    1   0.0428  0.2104  0.1952  11.00000  0.05    0.46
Q3    1  -0.0587  0.5130  0.0359  11.00000  0.05    0.41
Q4    1   0.0909  0.0957  0.3347  11.00000  0.05    0.37
Q5    1   0.0435  0.3113  0.0790  11.00000  0.05    0.25
Q6    1   0.1558  0.0176  0.3276  11.00000  0.05    0.24
Q7    1   0.0398  0.3959  0.1181  11.00000  0.05    0.23
Q8    1   0.0148  0.6170  0.3417  11.00000  0.05    0.22
Q9    1  -0.0812  0.5332 -0.1265  11.00000  0.05    0.20
Q10   1   0.0488  0.6274  0.0182  11.00000  0.05    0.19
Q11   1  -0.0419  0.6345 -0.0307  11.00000  0.05    0.18
Q12   1   0.0000  0.4373  0.2500  10.50000  0.05    0.18
Q13   1  -0.0555  0.3279  0.0800  11.00000  0.05    0.17
Q14   1   0.1410  0.1641  0.4996  11.00000  0.05    0.16
Q15   1   0.0747  0.4143  0.2109  11.00000  0.05    0.16
Q16   1   0.0212  0.5057  0.1673  11.00000  0.05    0.16
Q17   1   0.0229  0.2341  0.0695  11.00000  0.05    0.15
Q18   1  -0.0164  0.4064  0.1567  11.00000  0.05    0.15
Q19   1   0.0228  0.1349  0.0300  11.00000  0.05    0.14
Q20   1   0.1846 -0.0186  0.6190  11.00000  0.05    0.14
;
_shelx_res_checksum              59652
_shelx_hkl_file
;
  -2   0   0 9.10723 1.05404  14
  -2   0   0 13.6316 1.25025  10
  -2   0   0 10.1021 0.81411   2
  -2   0   0 9.25891 0.61115   9
  -2   0   0 13.4188 1.24057   3
   2   0   0 9.10877 0.73089  12
   2   0   0 13.3265 0.88896  16
   2   0   0 12.2569 0.50929  15
   2   0   0 12.8425 0.90701   1
  -4   0   0 7869.97 237.609   3
  -4   0   0 7528.79 238.183  14
  -4   0   0 8042.67 236.878  10
   4   0   0 9999.99 236.054  16
   4   0   0 9967.52 231.600  12
  -4   0   0 8107.14 228.069   9
   4   0   0 9894.26 234.908   1
  -4   0   0 8725.91 232.198   2
  -6   0   0 136.782 7.14073  14
   6   0   0 115.405 5.40304   1
   6   0   0 119.867 5.47212  16
  -6   0   0 114.727 4.54197   9
  -6   0   0 127.331 7.05329   3
   6   0   0 116.696 4.64886  12
  -8   0   0 1799.13 52.4066   3
   8   0   0 1729.92 47.6751   1
  -8   0   0 1743.21 51.2220  14
   8   0   0 1688.14 47.8985  16
   8   0   0 1697.92 48.0934  13
  -8   0   0 1573.32 45.6349   9
  10   0   0 20.4768 3.60445   1
  10   0   0 22.0065 4.03777  13
  10   0   0 19.5827 3.53105  16
   1   1   0 1789.21 48.3221  16
   3  -1   0 54.9288 2.24625  12
   3  -1   0 52.5281 2.47057  16
  -3  -1   0 50.9295 2.43765   2
  -3  -1   0 57.6846 3.21321  10
  -3  -1   0 63.3678 3.01362  14
   3   1   0 51.0445 2.21230  12
  -3   1   0 55.9850 3.21894  14
  -3   1   0 52.8262 2.20376   6
   3   1   0 55.8935 2.56449  16
   3   1   0 57.4515 2.55761   1
  -3   1   0 51.4279 2.72656   8
  -3   1   0 53.3423 2.21447   9
  -3   1   0 69.9908 3.55194   3
  -5  -1   0 1089.30 32.2689  10
  -5  -1   0 1136.63 32.7395   3
   5  -1   0 1100.99 30.6320   1
   5  -1   0 1121.68 29.9236  12
   5  -1   0 1207.26 29.3626  15
  -5  -1   0 1049.96 29.5469   9
  -5  -1   0 1106.89 30.3723   2
   5  -1   0 1129.96 30.7013  16
  -5  -1   0 1092.66 31.9350  14
  -5   1   0 1124.40 32.9292  14
   5   1   0 1117.69 30.8189  16
   5   1   0 1087.11 29.9223  12
  -5   1   0 1113.65 32.9173   3
   5   1   0 1125.72 30.6746   1
  -5   1   0 1068.87 29.8516   9
  -7  -1   0 62.7262 3.12336   9
  -7  -1   0 73.3832 5.40721  14
   7  -1   0 64.8945 3.47108  12
  -7  -1   0 74.4064 3.93931   2
   7  -1   0 67.6992 4.37921  16
   7  -1   0 63.2586 3.97208   1
  -7  -1   0 69.7122 5.64954   3
   7   1   0 65.6362 4.45821  16
   7   1   0 62.5019 4.27092   1
   7   1   0 66.3301 4.49716  13
  -7   1   0 66.1529 5.64528   3
  -7   1   0 62.5585 3.41903   9
  -7   1   0 69.8514 5.89315  14
   7   1   0 64.7625 3.53655  12
   9  -1   0 53.6971 4.83404   1
   9  -1   0 53.3582 4.86479  16
   9  -1   0 51.8915 5.04335  13
  -9  -1   0 57.3014 6.87118   3
  -9   1   0 58.6511 6.54633  14
   9   1   0 53.7191 4.88491  16
   9   1   0 63.9611 5.01125  13
  -9   1   0 50.9032 6.00452   3
   9   1   0 59.4909 4.94127   1
  11  -1   0 136.100 8.81026  13
 -11  -1   0 127.013 10.9626   3
  11  -1   0 141.029 8.20016   1
 -11   1   0 128.157 11.1947   3
  11   1   0 138.493 7.98583   1
  11   1   0 134.805 8.70585  13
   0  -2   0 1770.51 44.3309  10
   0   2   0 1726.73 45.1068  12
   0   2   0 1690.52 45.4398  16
   0   2   0 1557.83 44.0191   9
   0   2   0 1696.14 44.6395   6
  -2  -2   0 673.112 18.9379  15
  -2  -2   0 720.780 19.6982   2
  -2  -2   0 722.760 20.3927  10
  -2  -2   0 692.694 19.0690   7
  -2   2   0 705.062 20.2578  14
  -2   2   0 684.967 19.5739   8
   2   2   0 717.620 19.1870  16
   2   2   0 717.188 18.9526  12
  -2   2   0 712.715 20.1609   3
  -2   2   0 720.776 18.9654   6
   2   2   0 708.880 18.9061  13
  -2   2   0 712.950 18.9457   9
   2   2   0 707.975 19.0272   1
   4  -2   0 2585.27 63.9530  16
  -4  -2   0 2398.45 65.8190  10
  -4  -2   0 2280.20 64.3656  14
  -4  -2   0 2385.65 64.1005   2
  -4   2   0 2413.28 65.9131   3
   4   2   0 2463.53 64.1339  16
  -4   2   0 2445.13 63.5151   6
  -4   2   0 2501.56 64.9869   8
   4   2   0 2448.18 63.4865  12
  -4   2   0 2351.76 66.0052  14
   4   2   0 2492.09 63.9478   1
   4   2   0 2443.90 63.8809  13
  -4   2   0 2440.22 63.4827   9
   6  -2   0 1902.82 49.5467  16
  -6  -2   0 1687.21 47.7961   9
   6  -2   0 1871.28 49.4842   1
  -6  -2   0 1777.44 49.0995   2
   6  -2   0 1824.97 48.3942  12
  -6  -2   0 1901.01 52.2675   3
  -6  -2   0 1864.72 52.0668  10
  -6  -2   0 1789.38 50.6205  14
   6   2   0 1836.94 49.4895  13
   6   2   0 1835.24 49.4217   1
   6   2   0 1797.09 48.5413  12
  -6   2   0 1796.42 52.4485   3
  -6   2   0 1808.41 48.5569   9
  -6   2   0 1841.75 52.9083  14
   6   2   0 1806.00 49.6172  16
   8  -2   0 963.488 28.1510   1
   8  -2   0 959.916 28.3869  16
  -8  -2   0 983.443 32.1581   3
   8   2   0 939.595 28.3873  13
  -8   2   0 982.824 32.8117  14
  -8   2   0 889.296 26.5967   9
   8   2   0 915.600 28.4534  16
   8   2   0 916.574 27.9920   1
   8   2   0 912.349 26.7499  12
  -8   2   0 948.190 32.3357   3
  10  -2   0 735.161 24.5126   1
  10  -2   0 765.468 25.7135  13
  10  -2   0 734.087 24.8356  16
 -10  -2   0 821.297 30.2307   3
  10   2   0 726.147 24.9723  13
 -10   2   0 770.945 29.8450   3
  10   2   0 750.451 24.6324   1
  10   2   0 711.718 24.9631  16
 -10   2   0 808.098 30.3575  14
  -1  -3   0 259.295 8.18202   2
  -1  -3   0 263.801 7.40105   7
  -1  -3   0 266.305 8.62592  10
  -1   3   0 250.087 7.37900   6
   1   3   0 240.682 7.12142  13
  -1   3   0 250.791 8.28086  14
   1   3   0 250.273 7.40248  12
   1   3   0 247.665 7.31463   1
  -1   3   0 246.817 8.01473   8
  -1   3   0 256.315 8.33860   3
   1   3   0 251.829 7.47140  16
  -1   3   0 258.144 7.42443   9
  -3  -3   0 1463.82 40.6812  11
  -3  -3   0 1504.92 41.8567   2
  -3  -3   0 1524.09 41.0306  14
  -3  -3   0 1514.20 40.9778   7
  -3  -3   0 1458.20 40.8265  15
  -3  -3   0 1580.92 43.0757  10
  -3   3   0 1583.69 40.7763   9
   3   3   0 1551.94 40.7674  12
  -3   3   0 1597.95 43.1715  14
  -3   3   0 1530.08 42.6145   3
   3   3   0 1599.80 41.0040   1
  -3   3   0 1526.06 41.8568   8
   3   3   0 1528.44 40.6771  13
  -3   3   0 1555.07 40.7811   6
   3   3   0 1648.84 41.2953  16
   5  -3   0 6.90430 1.32848  16
  -5  -3   0 6.60695 1.43584  14
  -5  -3   0 8.14218 1.65614   2
  -5  -3   0 6.19570 1.98706  10
  -5   3   0 7.41346 1.35898   6
   5   3   0 8.63343 1.41213   1
   5   3   0 8.57449 1.41846  13
  -5   3   0 7.82996 1.81714   8
  -5   3   0 8.97593 2.36957  14
  -5   3   0 7.24139 1.21772   9
  -5   3   0 8.33579 2.16291   3
   5   3   0 10.3927 1.61060  16
   5   3   0 6.87730 1.28423  12
  -7  -3   0 154.986 8.94400   3
   7  -3   0 142.469 6.73646   1
   7  -3   0 142.016 6.65604  16
  -7  -3   0 140.239 6.43426   2
   7  -3   0 180.122 7.39806  12
  -7  -3   0 158.198 9.03462  10
  -7   3   0 146.183 6.12127   9
   7   3   0 152.391 6.96038   1
   7   3   0 144.822 6.12145  12
  -7   3   0 161.006 9.86298  14
   7   3   0 141.388 6.67411  13
   7   3   0 136.660 6.95252  16
  -7   3   0 156.115 9.35198   3
  -9  -3   0 33.5578 5.55392   3
   9  -3   0 30.5389 3.87194  16
   9  -3   0 26.7425 4.04099  13
   9  -3   0 33.4287 4.08433   1
   9   3   0 32.1650 4.11554  13
   9   3   0 26.6350 3.83005  16
   9   3   0 30.6617 4.03708   1
  -9   3   0 27.7314 2.91862   9
  -9   3   0 34.3476 6.05797  14
  -9   3   0 31.2430 5.24659   3
 -11  -3   0 4.89861 3.65422   3
  11  -3   0 5.10903 3.01037  13
  11  -3   0 4.97638 1.92811   1
  11   3   0 8.63132 3.00107   1
  11   3   0 11.6108 3.19707  13
 -11   3   0 3.02965 3.34858  14
 -11   3   0 6.77677 3.93203   3
   0  -4   0 3593.79 89.4472   7
   0  -4   0 3367.00 90.8357  10
   0   4   0 3069.05 89.0882  13
   0   4   0 3329.33 88.7491  12
   0   4   0 3165.85 88.2842   9
   0   4   0 3369.83 90.1962   6
   0   4   0 3365.68 89.4621   8
   0   4   0 3440.16 89.4580   1
  -2  -4   0 5172.57 166.511  10
  -2  -4   0 5434.70 162.181   7
   2   4   0 6303.14 163.052  13
  -2   4   0 6345.31 164.153   6
   2   4   0 6391.55 165.577  16
  -2   4   0 6612.96 164.846   9
  -2   4   0 6364.38 172.472   3
   2   4   0 6236.75 165.565  12
  -2   4   0 6528.32 171.325   8
  -2   4   0 6312.78 172.709  14
   2   4   0 6499.40 166.162   1
  -4  -4   0 575.173 18.3455  10
  -4  -4   0 535.100 16.7180   2
  -4  -4   0 521.084 15.4466  15
  -4  -4   0 540.178 15.5902   7
  -4  -4   0 513.225 15.2655  14
  -4  -4   0 508.583 15.1584  11
  -4   4   0 529.099 18.2347  14
   4   4   0 499.322 15.1497  13
  -4   4   0 532.423 17.7188   3
  -4   4   0 524.326 16.7840   8
   4   4   0 522.585 15.7573  16
  -4   4   0 511.121 15.2404   9
  -4   4   0 529.798 15.3254   6
   4   4   0 519.200 15.4798   1
   4   4   0 522.181 15.2879  12
  -6  -4   0 1580.89 45.4654   2
   6  -4   0 1711.83 45.2834  16
  -6  -4   0 1715.73 48.8328  10
   6   4   0 1617.10 44.5762  12
  -6   4   0 1562.70 46.7773   8
  -6   4   0 1633.37 44.5688   9
  -6   4   0 1685.79 49.7606  14
  -6   4   0 1651.37 48.7035   3
  -6   4   0 1704.73 44.7228   6
   6   4   0 1663.48 45.2371   1
   6   4   0 1583.20 44.8871  13
   6   4   0 1652.67 45.6476  16
  -8  -4   0 11.3907 3.49821  10
   8  -4   0 10.0779 2.25650   1
  -8  -4   0 13.5814 3.69752   3
   8   4   0 9.08468 2.06931   1
  -8   4   0 8.83609 2.88936   3
  -8   4   0 9.38915 3.64982  14
   8   4   0 9.51060 2.35451  13
  -8   4   0 7.64955 1.74582   9
   8   4   0 9.97474 1.87230  12
   8   4   0 7.55606 2.02679  16
 -10  -4   0 570.148 23.5692   3
  10  -4   0 535.128 19.7390  13
  10  -4   0 538.868 19.0061   1
 -10   4   0 582.896 25.8065  14
 -10   4   0 515.544 17.4033   9
  10   4   0 520.233 18.9555   1
 -10   4   0 569.224 24.3120   3
  10   4   0 509.961 18.9164  13
  -1  -5   0 124.776 5.64602   2
   1  -5   0 143.125 4.59840   7
   1  -5   0 126.740 5.78416  10
   1  -5   0 117.655 3.64250   4
  -1  -5   0 123.740 5.97195  10
  -1  -5   0 125.937 4.40619   7
   1   5   0 125.571 4.61829  12
   1   5   0 118.257 4.50426  16
  -1   5   0 115.726 4.45526   6
   1   5   0 119.819 3.88857  13
   1   5   0 116.346 4.32030   6
  -1   5   0 111.775 5.26832   8
  -1   5   0 118.511 5.49461  14
  -1   5   0 136.480 4.65467   9
   1   5   0 115.292 4.34910   1
  -3  -5   0 171.250 6.76445  15
  -3  -5   0 165.127 7.28431   2
  -3  -5   0 175.718 6.14934   7
  -3  -5   0 179.058 8.56873  10
   3   5   0 178.084 6.27159   1
  -3   5   0 165.373 7.76090   3
  -3   5   0 167.935 6.13814   9
  -3   5   0 178.380 6.22827   6
   3   5   0 163.677 5.64317  13
  -3   5   0 166.430 7.20584   8
   3   5   0 174.646 6.46931  16
   3   5   0 168.250 6.14238  12
  -3   5   0 163.044 7.91490  14
   5  -5   0 22.3155 2.59713  15
  -5  -5   0 16.6922 2.90977   2
  -5  -5   0 15.5078 3.19355  10
  -5   5   0 20.9046 3.35972   3
  -5   5   0 16.4729 1.93546   9
  -5   5   0 17.3069 2.10100   6
  -5   5   0 17.7720 3.33143  14
  -5   5   0 16.4490 2.79359   8
   5   5   0 22.9830 2.38676  12
   5   5   0 14.8315 2.13733   1
   5   5   0 16.5291 1.99462  13
   5   5   0 16.0580 2.17887  16
  -7  -5   0 97.7109 5.63650   2
  -7  -5   0 111.672 8.00810  10
   7  -5   0 107.349 5.95695   1
   7  -5   0 105.970 5.74693  16
   7   5   0 101.351 5.26763  12
  -7   5   0 104.863 5.30118   9
   7   5   0 102.845 5.47209  13
  -7   5   0 104.757 7.47024   8
  -7   5   0 103.095 8.12277   3
  -7   5   0 110.398 8.76507  14
   7   5   0 99.4773 5.62993   1
  -7   5   0 109.387 5.51651   6
   7   5   0 104.784 6.12153  16
  -9  -5   0 72.6900 6.97095   3
   9  -5   0 57.5730 6.10253   1
  -9  -5   0 60.8375 7.22547  10
   9  -5   0 61.6655 5.16377  13
  -9   5   0 65.1004 7.75476  14
  -9   5   0 59.6536 4.51638   9
  -9   5   0 70.8471 7.77600   3
   9   5   0 57.9580 4.85384   1
   9   5   0 60.7018 5.46936  16
   9   5   0 61.4465 4.76880  13
   0  -6   0 2958.99 75.4955   7
   0  -6   0 2934.04 77.2771   2
   0  -6   0 2954.27 77.9778  10
   0   6   0 2852.22 75.6586   6
   0   6   0 2818.83 75.4238   1
   0   6   0 2890.10 77.3050   8
  -2  -6   0 52.3687 2.79082   7
  -2  -6   0 45.7541 3.38999  15
  -2  -6   0 53.2612 4.24728   2
  -2  -6   0 54.5050 4.75675  10
   2  -6   0 45.8153 2.54580   7
   2   6   0 47.9257 2.90200  12
  -2   6   0 41.3990 3.37647   8
  -2   6   0 47.2985 2.82311   9
  -2   6   0 47.9154 3.90839   3
   2   6   0 46.1295 2.87545  16
   2   6   0 46.3601 2.12179  13
  -2   6   0 45.0472 2.62949   6
  -2   6   0 44.0663 3.61387  14
   2   6   0 45.8291 2.50543   6
   2   6   0 49.8526 2.78607   1
  -4  -6   0 2570.67 73.2566   2
  -4  -6   0 2602.10 70.9813   7
  -4  -6   0 2407.02 71.3757  11
  -4  -6   0 2691.18 74.9861  10
  -4  -6   0 2545.85 72.0814  15
   4   6   0 2811.98 71.4937   1
  -4   6   0 2771.03 73.7409   8
   4   6   0 2676.64 70.5739  13
   4   6   0 2805.35 71.8888  16
  -4   6   0 2806.95 71.3869   9
  -4   6   0 2738.79 71.2504   6
   4   6   0 2750.36 71.3690  12
  -4   6   0 2751.14 74.7836   3
  -4   6   0 2778.12 75.8087  14
   6  -6   0 167.027 7.20233  16
  -6  -6   0 174.556 8.51723   2
  -6  -6   0 180.064 10.4669  10
   6  -6   0 165.634 8.05206  15
   6   6   0 156.599 6.93524  12
   6   6   0 171.249 7.43640   1
   6   6   0 171.848 7.05317  13
  -6   6   0 180.035 7.38858   6
  -6   6   0 183.099 11.0021  14
   6   6   0 167.462 7.83720  16
  -6   6   0 172.414 7.26942   9
  -6   6   0 175.073 10.1780   3
  -6   6   0 168.366 9.28205   8
  -8  -6   0 1534.83 48.2884  10
   8   6   0 1488.87 43.5751   1
   8   6   0 1501.54 44.1740  16
  -8   6   0 1555.72 51.3381  14
  -8   6   0 1557.24 42.8327   6
   8   6   0 1449.79 42.4811  12
  -8   6   0 1592.78 47.3983   8
  -8   6   0 1531.71 48.9879   3
   8   6   0 1475.32 43.0426  13
  -8   6   0 1511.84 42.8048   9
 -10  -6   0 95.2978 8.58446   3
  10  -6   0 92.2200 6.90464  13
 -10  -6   0 102.564 9.36405  10
  10   6   0 94.5121 6.57611  13
  10   6   0 89.7436 6.80436   1
 -10   6   0 89.4060 5.52117   9
 -10   6   0 106.350 10.4475  14
 -10   6   0 97.1841 9.69218   3
  -1  -7   0 338.054 12.5129  15
  -1  -7   0 355.066 10.5507   7
  -1  -7   0 352.572 12.7060   2
   1  -7   0 341.156 10.6101   7
  -1  -7   0 357.121 13.2844  10
   1  -7   0 345.677 12.9540  10
  -1   7   0 332.960 12.3086   8
  -1   7   0 355.075 11.1047   9
   1   7   0 342.303 10.7908   6
   1   7   0 343.311 11.0504  16
  -1   7   0 336.231 10.8562   6
   1   7   0 339.934 10.7412   1
   1   7   0 339.860 12.3078   8
   3  -7   0 694.085 20.4440   7
  -3  -7   0 716.069 23.9668  10
  -3  -7   0 688.983 21.8931  15
  -3  -7   0 708.965 22.8648   2
  -3  -7   0 694.668 20.0365   7
   3   7   0 705.549 20.4540   1
  -3   7   0 684.531 23.6789  14
  -3   7   0 701.397 20.5032   6
  -3   7   0 699.594 20.5636   9
   3   7   0 696.052 19.9602   6
   3   7   0 711.165 20.7309  12
  -3   7   0 704.164 22.5833   8
   3   7   0 721.748 20.9229  16
  -3   7   0 702.559 23.4015   3
  -5  -7   0 63.1194 5.28571   2
  -5  -7   0 61.2324 6.79206  10
   5  -7   0 56.8921 4.74584  15
  -5   7   0 56.3172 3.95086   9
  -5   7   0 56.5323 5.38890   8
   5   7   0 62.5586 4.19569  16
  -5   7   0 63.1085 6.49491  14
   5   7   0 57.6766 3.77614  12
  -5   7   0 63.3900 4.15733   6
   5   7   0 62.0897 3.95471   1
  -5   7   0 55.7998 5.68812   3
  -7  -7   0 207.496 12.3042  10
  -7  -7   0 184.927 9.38671   2
  -7   7   0 192.406 11.8641   3
  -7   7   0 200.522 8.38584   6
  -7   7   0 196.589 10.7666   8
  -7   7   0 196.700 8.58387   9
  -7   7   0 201.166 13.3040  14
   7   7   0 202.888 9.41407  16
   7   7   0 194.310 8.44362  12
   7   7   0 194.206 8.93625   1
  -9  -7   0 46.2841 5.90979   3
  -9  -7   0 53.7596 6.67438  10
  -9   7   0 41.8436 6.62937   3
   9   7   0 45.2883 4.92932   1
  -9   7   0 48.7916 4.67356   9
  -9   7   0 49.1681 7.89542  14
   0  -8   0 1476.83 42.0130  10
   0  -8   0 1419.27 41.0988   2
   0  -8   0 1466.16 41.5591  15
   0   8   0 1329.50 40.6726   8
   0   8   0 1429.00 38.8836   6
  -2  -8   0 1234.77 37.6713  15
  -2  -8   0 1359.57 39.5483  10
  -2  -8   0 1355.34 38.7044   2
   2  -8   0 1375.27 38.9560  15
   2  -8   0 1310.03 38.4189  10
  -2   8   0 1275.21 38.1865   8
   2   8   0 1215.77 37.4689   8
  -2   8   0 1258.22 35.7545   6
  -2   8   0 1312.66 36.0417   9
   2   8   0 1285.61 36.0546  16
   2   8   0 1270.21 35.4640   6
   2   8   0 1306.75 35.7562   1
  -4  -8   0 781.498 25.6473   2
  -4  -8   0 792.829 27.0930  10
   4  -8   0 790.926 25.2492  15
  -4  -8   0 722.729 23.3895  11
  -4  -8   0 791.721 26.2530  15
  -4   8   0 754.094 22.7937   9
   4   8   0 752.691 23.0985  16
  -4   8   0 741.487 22.6415   6
  -4   8   0 796.424 26.6635   3
   4   8   0 774.199 22.7695   1
   4   8   0 755.700 22.8610  12
  -4   8   0 731.754 27.0039  14
  -4   8   0 753.591 25.3444   8
   4   8   0 740.136 21.8503   6
  -6  -8   0 369.657 15.1069   2
  -6  -8   0 379.236 17.0873  10
  -6   8   0 377.703 13.0844   6
   6   8   0 348.694 13.3580  16
  -6   8   0 362.753 16.8030   3
  -6   8   0 363.544 16.0611   8
  -6   8   0 365.785 13.0339   9
   6   8   0 350.497 13.1107   1
  -6   8   0 359.232 18.0124  14
   6   8   0 335.586 12.6823  12
  -8  -8   0 242.511 14.1718  10
  -8   8   0 235.983 14.1127   3
  -8   8   0 222.274 9.84679   6
  -8   8   0 224.339 13.1513   8
  -8   8   0 213.758 9.73364   9
   8   8   0 214.775 9.65312  12
  -8   8   0 213.608 14.7798  14
   8   8   0 221.570 9.99766   1
   1  -9   0 203.078 9.54758   2
  -1  -9   0 203.279 9.76856  15
   1  -9   0 204.112 9.77597  15
  -1  -9   0 209.180 9.87749   2
   1  -9   0 197.809 9.78110  10
  -1  -9   0 205.460 10.2813  10
  -1   9   0 199.609 7.92868   6
  -1   9   0 197.555 9.56589   8
   1   9   0 202.498 7.79234   6
   1   9   0 210.301 7.71625   1
   1   9   0 194.775 9.35631   8
  -3  -9   0 70.5647 6.65599   2
  -3  -9   0 72.4005 7.32838  10
   3  -9   0 67.8630 5.81902  15
   3  -9   0 73.7960 5.97584  10
  -3  -9   0 75.4300 5.61531  15
  -3   9   0 67.3255 5.77960   8
  -3   9   0 64.9889 4.37806   6
  -3   9   0 66.8076 4.26638   9
   3   9   0 66.5164 4.33209   1
   3   9   0 69.8575 4.39353  16
   3   9   0 71.3428 4.04410   6
  -5  -9   0 146.420 10.1550  10
  -5  -9   0 160.460 10.0171   2
   5   9   0 154.170 7.47398  16
  -5   9   0 157.674 10.2982   3
  -5   9   0 147.617 7.28188   6
   5   9   0 142.812 7.12769  12
  -5   9   0 147.278 7.15468   9
  -5   9   0 148.000 10.5282  14
  -5   9   0 154.659 9.64621   8
   5   9   0 148.479 7.28920   1
  -7  -9   0 25.1142 4.98717  10
  -7  -9   0 23.2151 3.69737   2
  -7   9   0 24.0829 5.26355   3
  -7   9   0 21.6357 3.40121   6
  -7   9   0 29.9058 5.48800   8
   7   9   0 29.5854 3.75772  12
   7   9   0 24.6179 3.65629   1
  -7   9   0 24.7085 5.74807  14
   7   9   0 26.2675 3.58582  16
  -7   9   0 21.1847 3.37342   9
   0 -10   0 32.1427 4.54501   2
   0 -10   0 32.7697 4.82358  10
   0  10   0 30.6983 4.16748   8
   0  10   0 38.5445 3.38866   6
  -2 -10   0 1933.75 58.1201  15
  -2 -10   0 2104.61 59.0524   2
   2 -10   0 2062.19 58.2006   2
   2 -10   0 2059.40 58.5616  10
  -2 -10   0 2111.21 60.2356  10
  -2  10   0 2013.27 55.4357   6
   2  10   0 1960.17 57.8312   8
   2  10   0 2045.86 55.0730   6
  -2  10   0 1983.66 58.5686   8
   4 -10   0 8.66790 2.94016  10
  -4 -10   0 10.7856 3.64742  10
  -4 -10   0 16.5374 2.97869  11
  -4 -10   0 7.19467 3.09897   2
  -4  10   0 6.69939 2.17077   6
  -4  10   0 7.15606 2.91731   8
   4  10   0 9.15522 2.31053  16
   4  10   0 11.8616 2.42933   1
  -4  10   0 12.0116 2.25783   9
  -6 -10   0 1347.42 44.5972  10
  -6 -10   0 1285.25 41.6922   2
  -6  10   0 1338.48 39.0081   6
   6  10   0 1369.59 39.2966   1
  -6  10   0 1390.95 43.9317   8
  -6  10   0 1352.05 39.2630   9
   6  10   0 1326.24 39.6854  16
   1 -11   0 128.515 8.45985   2
  -1 -11   0 126.340 8.79281  10
   1 -11   0 127.426 8.72090  10
  -1 -11   0 130.086 8.98694   2
  -1  11   0 128.065 8.32953   8
   1  11   0 130.949 6.46772   6
  -1  11   0 126.255 6.33897   6
  -3 -11   0 69.3901 6.68624   2
  -3 -11   0 68.5017 5.53729  11
   3 -11   0 69.8102 6.44565  10
   3 -11   0 60.0548 6.24789   2
  -3 -11   0 71.4065 8.32571  10
  -3  11   0 58.6748 6.35136   8
  -3  11   0 63.4836 5.01558   6
   3  11   0 58.5763 4.25626   6
   3  11   0 68.9278 4.73282   1
  -5 -11   0 126.873 10.8879  10
  -5 -11   0 131.138 9.40198   2
   5 -11   0 130.357 8.49666   2
   5  11   0 127.201 7.12173   1
  -5  11   0 139.890 7.55947   9
  -5  11   0 132.603 7.45399   6
   5  11   0 152.008 8.66560  16
  -5  11   0 124.259 9.55895   8
   0 -12   0 455.925 18.6131   2
   0 -12   0 465.522 19.3329  10
   0  12   0 450.357 15.6326   6
   2 -12   0 297.254 14.2465  10
  -2 -12   0 299.296 14.8774   2
  -2 -12   0 298.429 14.8836  10
   2 -12   0 313.596 14.3095   2
   2  12   0 298.065 11.1118   6
  -2  12   0 320.067 12.0036   6
  -2  12   0 254.548 13.8017   8
  -4 -12   0 390.820 18.7651  10
   4 -12   0 387.499 16.5390   2
  -4 -12   0 389.548 18.0061   2
  -4  12   0 368.490 14.0499   6
   4  12   0 381.073 13.9836   1
  -4  12   0 354.438 17.0030   8
  -1 -13   0 2.44805 3.74657   2
   1 -13   0 -0.3148 2.39337   2
  -1 -13   0 0.15736 3.43503  10
   1  13   0 -0.1550 1.64411   6
  -1  13   0 -0.2576 1.88427   6
   3 -13   0 1.11461 3.16337   2
  -3 -13   0 -0.1124 2.81760   2
  -3 -13   0 0.95633 2.20494  11
  -3 -13   0 -0.4946 3.57138  10
  -3  13   0 0.37473 1.46778   6
 -10   0   1 9.66464 3.92157   3
  10   0  -1 4.49876 2.46789   1
  10   0  -1 4.44524 1.95791  16
 -10   0   1 0.96708 2.31058  14
  10   0  -1 3.56869 2.41277  13
  -8   0   1 1.11790 2.02673   3
   8   0  -1 -0.3524 1.46060  16
   8   0  -1 -1.2890 1.53691   1
  -8   0   1 9.95920 3.09150  14
   8   0  -1 0.45515 1.10917  12
  -6   0   1 -0.5632 1.15685   3
  -6   0   1 0.10542 0.97686  14
   6   0  -1 0.27342 0.86488  12
   6   0  -1 1.58580 1.14647  16
  -6   0   1 1.27450 0.54886   9
   6   0  -1 1.89305 1.18247   1
  -4   0   1 0.82599 0.35100   9
  -4   0   1 2.23738 0.92343  10
   4   0  -1 1.43538 0.68433  12
   4   0  -1 0.95577 0.75469  16
   4   0  -1 1.13689 0.76514   1
  -4   0   1 0.98053 0.74250  14
  -4   0   1 0.37403 0.30191   2
  -4   0   1 -0.0935 0.42026   8
   4   0  -1 0.56651 0.14182  15
   4   0  -1 0.56556 0.46775   5
  -4   0   1 0.68170 0.78498   3
  -2   0   1 -0.2474 0.47215   7
  -2   0   1 0.19896 0.32080   8
   2   0  -1 1.72069 0.39207  12
  -2   0   1 0.52133 0.30287  15
   0   0   1 0.94078 0.15080  16
   0   0   1 0.64965 0.21134  15
  -2   0  -1 0.94582 0.50407   2
  -2   0  -1 -0.0358 0.22806   6
   2   0   1 0.09046 0.38157  16
  -2   0  -1 0.90259 0.33417  11
   2   0   1 0.27156 0.27852   1
   2   0   1 3.85472 0.63657  13
  -2   0  -1 0.94943 0.49335   3
   2   0   1 1.08168 0.35380  15
  -2   0  -1 0.44740 0.42170  14
   4   0   1 1.60954 0.51797  12
   4   0   1 1.22797 0.46492  15
  -4   0  -1 0.73282 0.51024   9
  -4   0  -1 2.05151 1.01228  14
  -4   0  -1 1.10138 0.74944   2
  -4   0  -1 0.38000 0.67273   3
   4   0   1 0.61003 0.68699   1
   4   0   1 0.47048 0.78840  13
   4   0   1 0.30661 0.73545  16
   6   0   1 0.83399 1.15361   1
  -6   0  -1 12.9481 1.57931   9
  -6   0  -1 1.41818 1.33397   3
   6   0   1 1.50582 1.17793  16
   8   0   1 -0.6045 1.08359  13
   8   0   1 -0.3206 1.54117   1
   8   0   1 2.67754 1.79834  16
  -8   0  -1 3.96526 2.17753   3
  -8   0  -1 2.89717 1.16336   9
  -8   0  -1 5.59821 2.43536  14
  10   0   1 1.10907 2.13702   1
 -10   0  -1 0.71908 3.03150   3
  10   0   1 -0.4279 1.87831  16
  10   0   1 1.99567 2.49894  13
 -11  -1   1 355.265 18.2085   3
  11  -1  -1 301.224 13.3710   1
  11  -1  -1 311.471 14.0642  13
 -11   1   1 330.125 17.5244  14
 -11   1   1 308.900 17.1204   3
  11   1  -1 314.614 13.5170   1
  11   1  -1 304.295 13.6636  13
   9  -1  -1 402.587 14.7068   1
  -9  -1   1 411.060 17.1144  14
   9  -1  -1 389.828 14.8182  16
  -9  -1   1 397.652 17.4716   3
   9   1  -1 394.847 14.5477   1
   9   1  -1 386.419 14.5636  13
  -9   1   1 407.116 18.0832   3
   9   1  -1 361.864 14.4205  16
   9   1  -1 383.410 13.2475  12
  -9   1   1 432.057 18.6902  14
   7  -1  -1 1324.26 38.1050  16
   7  -1  -1 1371.06 37.2766  12
  -7  -1   1 1361.41 39.9666  10
  -7  -1   1 1394.33 40.8704  14
   7  -1  -1 1328.39 38.0629   1
  -7  -1   1 1430.05 41.2582   3
  -7   1   1 1412.17 42.1152  14
   7   1  -1 1353.95 38.2131   1
   7   1  -1 1351.82 37.2996  12
   7   1  -1 1371.37 38.5394  16
  -7   1   1 1277.52 36.5243   9
  -7   1   1 1387.34 41.3379   3
   5  -1  -1 1415.41 36.8778  12
   5  -1  -1 1399.42 37.3951  16
  -5  -1   1 1348.10 36.4937   2
  -5  -1   1 1361.37 38.9316  14
   5  -1  -1 1400.58 36.3042   5
  -5  -1   1 1301.89 35.9313   9
  -5  -1   1 1371.70 38.6031  10
  -5   1   1 1350.77 39.0620   3
  -5   1   1 1370.18 38.0898   8
  -5   1   1 1336.02 36.3283   9
  -5   1   1 1401.15 39.7810  14
   5   1  -1 1345.15 35.9366   5
   5   1  -1 1408.15 37.3445   1
   5   1  -1 1409.48 36.8758  12
   5   1  -1 1414.40 37.5087  16
   3  -1  -1 5310.39 141.553  15
  -3  -1   1 4899.97 139.033   2
  -3  -1   1 4908.03 143.130  10
   3  -1  -1 5595.80 138.410   5
  -3  -1   1 4640.06 140.145   7
  -3   1   1 5557.91 138.992   9
   3   1  -1 5735.86 140.369   1
   3   1  -1 5649.91 140.570  12
  -3   1   1 4868.86 138.393   6
   3   1  -1 5667.18 141.114  16
  -3   1   1 5624.83 144.008   8
  -3   1   1 5176.93 144.129   3
  -3   1   1 4628.18 143.396  14
   3   1  -1 5500.21 138.705   5
   1  -1  -1 2003.86 55.6020  15
  -1   1   1 1886.36 55.5265  15
   1   1  -1 2023.58 52.5830  16
  -1  -1  -1 5560.33 173.571  15
   1   1   1 5605.99 173.037  15
   1   1   1 6949.41 171.165   1
   1   1   1 6674.96 171.819  13
  -1   1  -1 7257.38 174.663   8
  -1   1  -1 6810.27 177.670  14
  -1   1  -1 6654.73 171.967   6
  -1   1  -1 5649.28 173.844   3
   1   1   1 6891.42 172.816  16
  -1   1  -1 7006.58 171.605   9
  -1   1  -1 7281.78 172.517  11
   3  -1   1 512.296 14.2963  16
  -3  -1  -1 500.292 15.7412  10
   3  -1   1 495.858 14.1153  15
  -3  -1  -1 513.247 13.6654  15
  -3  -1  -1 521.117 14.8302   2
   3  -1   1 514.690 13.7208  12
  -3  -1  -1 505.491 15.4765   3
  -3  -1  -1 489.173 14.7711  14
  -3  -1  -1 508.852 13.7571  11
   3  -1   1 503.217 14.2378   1
   3   1   1 498.221 14.3449   1
   3   1   1 509.582 14.4991  16
  -3   1  -1 496.203 13.9237   6
  -3   1  -1 510.708 15.7425  14
  -3   1  -1 495.488 14.1791   9
   3   1   1 513.442 14.5530  13
   3   1   1 505.120 13.8415  12
  -3   1  -1 515.057 15.9099   3
   3   1   1 558.814 13.8776  15
  -5  -1  -1 3110.92 84.6300  10
   5  -1   1 3179.94 81.1738  12
  -5  -1  -1 3104.88 84.7519   3
  -5  -1  -1 2978.96 81.4785   9
  -5  -1  -1 3127.62 82.5877   2
  -5  -1  -1 2915.28 83.3401  14
   5  -1   1 3305.52 82.4129  16
   5  -1   1 3195.91 82.1326   1
  -5   1  -1 3054.67 81.7430   9
   5   1   1 3220.17 82.5693  16
  -5   1  -1 3112.58 85.1599   3
   5   1   1 3237.57 82.3381   1
   5   1   1 3121.71 81.3127  12
  -5   1  -1 3105.64 84.7010  14
   5   1   1 3250.79 82.7031  13
  -7  -1  -1 125.362 8.17053   3
   7  -1   1 133.470 6.70674  13
  -7  -1  -1 126.119 7.04177  14
   7  -1   1 115.910 5.91278  16
  -7  -1  -1 124.348 6.02860   2
  -7  -1  -1 114.680 5.00607   9
   7  -1   1 126.252 6.06585   1
   7   1   1 118.439 6.02878   1
  -7   1  -1 125.885 7.81167  14
  -7   1  -1 139.459 8.69255   3
   7   1   1 128.345 6.61840  13
   7   1   1 121.173 6.27688  16
  -7   1  -1 123.531 5.38652   9
   9  -1   1 1002.29 30.7724  13
   9  -1   1 939.631 29.1949   1
   9  -1   1 896.603 29.3449  16
  -9  -1  -1 1050.34 35.2991   3
   9   1   1 947.838 29.4359   1
   9   1   1 924.107 29.9759  13
  -9   1  -1 1011.39 34.0159  14
   9   1   1 948.437 29.8898  16
  -9   1  -1 1001.54 34.7374   3
 -11  -1  -1 80.9630 8.39383   3
  11  -1   1 73.2570 6.08090   1
  11  -1   1 74.6293 6.81779  13
  11   1   1 75.5504 6.61294  13
  11   1   1 66.2062 5.88367   1
 -10  -2   1 189.760 12.0661   3
  10  -2  -1 173.895 9.55495  13
  10  -2  -1 174.144 9.19981  16
  10  -2  -1 178.341 9.23728   1
  10   2  -1 168.986 9.16345  16
  10   2  -1 169.567 9.18078  13
 -10   2   1 182.253 12.1034   3
 -10   2   1 184.351 12.2584  14
  10   2  -1 180.327 9.15151   1
   8  -2  -1 428.126 15.1130  16
  -8  -2   1 465.582 17.4259  10
   8  -2  -1 448.102 14.1757  12
  -8  -2   1 470.720 17.4249  14
  -8  -2   1 466.029 18.2167   3
   8  -2  -1 419.041 14.8586   1
  -8   2   1 432.982 18.1370   3
   8   2  -1 428.160 15.0137  13
  -8   2   1 420.015 13.5248   9
   8   2  -1 442.010 15.1869   1
   8   2  -1 427.756 15.3451  16
   8   2  -1 424.357 14.1479  12
  -8   2   1 478.081 19.3666  14
   6  -2  -1 568.416 16.0271  15
  -6  -2   1 534.716 16.1968   2
   6  -2  -1 558.364 15.8533   5
  -6  -2   1 568.570 18.4939  14
   6  -2  -1 543.119 17.0192  16
  -6  -2   1 583.926 18.9982  10
   6  -2  -1 567.006 16.4275  12
  -6   2   1 592.318 20.4147  14
   6   2  -1 552.613 16.9491   1
  -6   2   1 560.273 19.4472   3
  -6   2   1 526.919 15.9193   9
  -6   2   1 550.007 18.0471   8
   6   2  -1 551.748 17.2089  16
   6   2  -1 546.034 16.4121  12
  -4  -2   1 1713.72 46.3263  14
  -4  -2   1 1674.57 45.3246   7
  -4  -2   1 1699.71 45.0689   2
  -4  -2   1 1755.36 46.9253  10
  -4  -2   1 1557.41 45.3241  15
   4  -2  -1 1777.37 45.0885  15
  -4  -2   1 1580.29 43.8334   9
  -4  -2   1 1667.07 45.2121  15
  -4   2   1 1760.58 47.0011   3
  -4   2   1 1670.61 44.7796   6
  -4   2   1 1713.17 45.9884   8
   4   2  -1 1767.64 45.1849   1
  -4   2   1 1687.97 47.3664  14
   4   2  -1 1674.95 44.2582   5
   4   2  -1 1721.69 44.9167  12
   4   2  -1 1760.65 45.3306  16
  -4   2   1 1723.11 44.6085   9
  -2  -2   1 2987.16 86.2222  10
   2  -2  -1 3208.30 88.0272  15
  -2  -2   1 2995.48 83.5685   7
  -2  -2   1 2829.52 84.4154   2
   2   2  -1 3305.79 84.6011  12
  -2   2   1 3246.86 82.3783   9
  -2   2   1 3217.12 85.6501   3
   2   2  -1 3263.07 85.0616  16
  -2   2   1 3206.89 83.7577   6
   2   2  -1 3111.63 83.7070   5
   2   2  -1 3311.30 84.1241   1
  -2   2   1 3090.00 85.0569  14
  -2   2   1 3181.81 86.4419   8
   0  -2   1 3293.75 84.3551   7
   0  -2  -1 2762.84 85.6260  10
   0  -2  -1 2863.65 82.7770   2
   0  -2  -1 2906.66 85.7192  15
   0   2   1 3248.72 83.3122  13
   0   2  -1 3337.21 84.2703   5
   0   2   1 3351.51 83.7746   1
   0   2   1 3368.16 85.1030  16
   0   2   1 2942.27 87.0062  15
   0   2  -1 3180.04 82.9266  12
   0   2  -1 3328.23 83.7898   9
  -2  -2  -1 3184.76 92.1095   2
  -2  -2  -1 3169.94 96.0720  15
  -2  -2  -1 3119.85 93.2813  10
  -2  -2  -1 3203.27 91.2206  11
  -2   2  -1 3523.88 92.4686   6
  -2   2  -1 3506.63 93.4728   3
   2   2   1 3645.95 91.8916  12
  -2   2  -1 3576.25 96.1880  14
   2   2   1 3138.53 93.2089  15
  -2   2  -1 3787.51 93.2389   8
  -2   2  -1 3618.16 92.2590   9
   2   2   1 3623.61 93.4717  16
   2   2   1 3524.02 91.6119  13
   2   2   1 3745.00 93.6680   1
  -4  -2  -1 1456.26 41.3503  10
  -4  -2  -1 1418.27 39.4744  14
   4  -2   1 1489.20 38.3978  12
  -4  -2  -1 1428.91 39.7603   2
   4  -2   1 1475.31 39.0864   1
  -4  -2  -1 1436.75 38.1832  11
  -4  -2  -1 1439.18 39.2208  15
   4  -2   1 1501.39 39.0976  16
  -4   2  -1 1455.43 38.7380   6
   4   2   1 1489.67 39.5070  16
  -4   2  -1 1456.27 41.4677   3
   4   2   1 1462.28 39.2099   1
  -4   2  -1 1457.66 40.3068   8
   4   2   1 1476.17 39.4333  13
  -4   2  -1 1463.06 38.9996   9
   4   2   1 1471.83 38.6309  12
  -4   2  -1 1462.99 41.4493  14
  -6  -2  -1 748.815 22.4997   9
  -6  -2  -1 859.916 26.7240  10
  -6  -2  -1 812.483 24.0597   2
  -6  -2  -1 804.699 24.6994  14
   6  -2   1 802.993 23.6767  16
  -6  -2  -1 885.260 26.8703   3
   6  -2   1 815.168 23.5957   1
   6   2   1 832.125 24.1541  13
   6   2   1 812.740 23.6844   1
  -6   2  -1 820.354 27.0257   3
  -6   2  -1 813.590 26.8071  14
  -6   2  -1 784.895 23.0759   9
   6   2   1 810.652 24.0135  16
   6   2   1 804.460 22.7255  12
   8  -2   1 575.702 19.2946  13
  -8  -2  -1 558.912 18.3759   2
   8  -2   1 556.041 18.2262   1
  -8  -2  -1 614.607 22.5652   3
   8  -2   1 566.620 18.6445  16
  -8   2  -1 541.050 17.3561   9
   8   2   1 540.714 18.7231  16
  -8   2  -1 571.956 22.7256   3
   8   2   1 554.220 18.4908   1
   8   2   1 547.382 18.7629  13
  -8   2  -1 584.043 22.5523  14
 -10  -2  -1 217.881 13.4481   3
  10  -2   1 207.533 10.7242  13
 -10   2  -1 208.192 13.3464   3
  10   2   1 180.896 9.90581  13
  10   2   1 189.920 9.57916   1
 -10   2  -1 205.938 12.8727  14
  11  -3  -1 78.8270 6.89392  13
 -11  -3   1 95.3952 9.33752   3
  11  -3  -1 76.4552 6.41176   1
  11   3  -1 80.3517 6.63487   1
 -11   3   1 105.431 10.3856  14
 -11   3   1 92.5453 8.80024   3
  11   3  -1 83.0578 6.32904  13
  -9  -3   1 1350.04 42.9314  10
   9  -3  -1 1379.61 40.4408  16
  -9  -3   1 1458.66 44.5672   3
   9  -3  -1 1423.99 40.3465   1
   9   3  -1 1381.77 40.0977   1
   9   3  -1 1336.41 38.7543  12
   9   3  -1 1357.97 40.5192  16
  -9   3   1 1409.61 44.9204   3
  -9   3   1 1454.34 46.7679  14
   9   3  -1 1333.79 39.9793  13
  -9   3   1 1289.20 38.0402   9
  -7  -3   1 225.416 8.37317   2
  -7  -3   1 245.405 10.4073  14
   7  -3  -1 236.914 8.52968  12
  -7  -3   1 243.798 11.0204  10
   7  -3  -1 241.467 9.32706  16
  -7   3   1 222.218 8.09679   9
  -7   3   1 236.192 10.5479   8
   7   3  -1 233.655 9.41229  16
   7   3  -1 230.086 9.11782   1
  -7   3   1 229.014 11.2415   3
   7   3  -1 225.929 8.46817  12
   7   3  -1 217.239 8.75656  13
  -7   3   1 236.294 12.1653  14
  -5  -3   1 2390.54 67.5709   9
  -5  -3   1 2500.64 69.4755   7
   5  -3  -1 2756.74 69.4250  15
  -5  -3   1 2728.33 72.0559  10
  -5  -3   1 2562.49 69.3702   2
  -5  -3   1 2520.85 69.2508  15
  -5  -3   1 2582.66 70.4303  14
   5   3  -1 2733.50 69.4503   1
  -5   3   1 2664.28 71.8129   3
  -5   3   1 2692.12 68.7957   9
   5   3  -1 2669.24 69.6167  16
   5   3  -1 2716.50 69.1012  12
   5   3  -1 2518.79 68.0795   5
  -5   3   1 2628.75 72.7416  14
  -5   3   1 2648.41 68.9558   6
  -5   3   1 2713.57 70.8759   8
  -3  -3   1 1073.08 28.9513   7
  -3  -3   1 1071.26 29.3153   2
   3  -3  -1 1106.18 29.3224  15
  -3  -3   1 1070.19 30.4804  10
  -3   3   1 1054.99 30.0995   3
   3   3  -1 1052.03 28.3315   5
   3   3  -1 1053.07 28.5823   1
  -3   3   1 1067.73 30.7510  14
   3   3  -1 1067.89 28.7900  16
   3   3  -1 1047.04 28.2357  13
  -3   3   1 1083.34 28.5272   9
  -3   3   1 1042.85 29.6555   8
   3   3  -1 1062.10 28.6495  12
  -3   3   1 1076.87 28.5947   6
   1  -3  -1 2934.44 81.9916  15
  -1  -3   1 2762.83 75.5282   7
   1  -3  -1 3161.94 79.3242  10
  -1  -3   1 2628.23 75.2901  10
   1   3  -1 2895.05 77.1655   5
   1   3  -1 2545.64 75.6472   9
   1   3  -1 2799.08 76.9817  16
  -1   3   1 2873.45 78.1876  14
  -1   3   1 2907.71 77.2974   8
  -1   3   1 2833.85 76.2968   9
  -1   3   1 3049.83 79.5890   3
  -1   3   1 2962.49 76.5312   6
   1   3  -1 2868.87 75.5645   1
  -1   3   1 2900.77 76.7581  13
   1   3  -1 2947.69 76.5243  12
  -1  -3  -1 2744.67 78.0876   7
  -1  -3  -1 2813.22 77.5697   2
  -1  -3  -1 2871.11 77.8618  10
  -1  -3  -1 2668.61 81.2775  15
  -1   3  -1 2990.19 78.6509   6
  -1   3  -1 2992.74 80.0329   8
  -1   3  -1 3150.80 81.2037  14
   1   3   1 3020.51 78.6491  12
  -1   3  -1 3105.78 78.7516   9
   1   3   1 2991.42 78.0051   6
   1   3   1 3016.30 78.7481   1
   1   3   1 2990.09 79.5463  16
  -1   3  -1 3015.64 80.7537   3
   1   3   1 3083.55 78.8741  13
  -3  -3  -1 2530.48 75.9941  14
  -3  -3  -1 2718.88 74.4326   2
  -3  -3  -1 2699.22 75.4082  10
  -3  -3  -1 2761.53 73.3284  11
  -3  -3  -1 2619.20 75.4125  15
   3   3   1 2935.09 73.3904   1
  -3   3  -1 2830.94 75.3634   3
  -3   3  -1 2878.38 74.3601   8
   3   3   1 2891.81 72.9993  12
   3   3   1 2826.41 73.2518  13
  -3   3  -1 2876.17 73.0833   6
  -3   3  -1 2943.44 73.2618   9
  -3   3  -1 2900.84 75.6823  14
   3   3   1 2921.43 73.6331  16
  -5  -3  -1 1122.59 32.5918   2
   5  -3   1 1147.32 30.8653  12
   5  -3   1 1159.00 31.7133  16
   5  -3   1 1151.16 31.7394   1
  -5  -3  -1 1187.27 34.9179  10
  -5   3  -1 1149.20 31.5783   9
  -5   3  -1 1138.27 34.9617  14
  -5   3  -1 1172.98 35.0954   3
  -5   3  -1 1162.00 33.4798   8
   5   3   1 1129.99 31.2052  12
   5   3   1 1141.38 32.2642  16
   5   3   1 1164.57 32.0768  13
   5   3   1 1125.61 31.9220   1
  -5   3  -1 1144.57 31.3666   6
  -7  -3  -1 1224.76 38.4023  10
  -7  -3  -1 1243.83 35.2778   2
   7  -3   1 1195.39 34.6401  16
   7  -3   1 1212.52 34.5014   1
  -7  -3  -1 1296.25 38.6745   3
   7  -3   1 1271.87 35.6596  13
   7   3   1 1209.08 35.3031  16
  -7   3  -1 1230.42 39.2544  14
   7   3   1 1212.75 35.1077  13
   7   3   1 1153.40 33.4660  12
   7   3   1 1203.51 34.8561   1
  -7   3  -1 1173.93 34.0022   9
  -7   3  -1 1232.29 39.3205   3
  -9  -3  -1 236.444 13.1257   3
   9  -3   1 228.965 9.74437   1
   9  -3   1 227.249 10.8449  13
  -9   3  -1 238.091 14.1870  14
   9   3   1 213.539 9.98692  13
  -9   3  -1 221.142 13.2329   3
   9   3   1 217.794 9.75667   1
   9   3   1 212.009 10.1487  16
  10  -4  -1 125.260 7.29102   1
 -10  -4   1 132.888 9.89568   3
  10  -4  -1 117.550 7.21914  16
  10   4  -1 128.343 7.64089  13
  10   4  -1 131.018 7.72266  16
  10   4  -1 123.879 7.31956   1
 -10   4   1 136.821 11.5724  14
 -10   4   1 131.314 10.3829   3
   8  -4  -1 363.277 12.2262  12
   8  -4  -1 348.546 13.1272  16
   8  -4  -1 362.809 13.4754   1
  -8  -4   1 375.488 15.7589  10
   8   4  -1 347.164 13.3223  16
  -8   4   1 359.259 16.3272   3
  -8   4   1 362.470 17.4798  14
  -8   4   1 358.927 12.0352   9
  -8   4   1 340.638 14.6809   8
   8   4  -1 337.728 12.6088  13
   8   4  -1 339.640 12.2295  12
   8   4  -1 359.257 13.0443   1
   6  -4  -1 129.975 5.88182  16
  -6  -4   1 132.188 7.61699  10
  -6  -4   1 122.381 5.69613   2
  -6  -4   1 125.702 6.19720  14
   6  -4  -1 128.144 5.80686  15
   6   4  -1 124.665 5.90516  16
  -6   4   1 123.572 5.46513   6
   6   4  -1 122.160 5.64810   1
  -6   4   1 127.653 8.32799  14
   6   4  -1 122.035 5.50036  12
  -6   4   1 122.026 7.54305   3
  -6   4   1 116.991 5.07961   9
  -6   4   1 139.353 7.25934   8
   6   4  -1 118.105 5.37763  13
   4  -4  -1 536.610 15.9934  15
  -4  -4   1 510.011 16.0265   2
  -4  -4   1 535.089 17.7130  10
  -4  -4   1 534.018 15.5020   7
   4   4  -1 526.165 15.4764  16
  -4   4   1 514.609 14.9888   9
  -4   4   1 511.791 16.5686   8
   4   4  -1 502.462 15.0795  12
  -4   4   1 511.630 17.8151  14
  -4   4   1 480.021 16.8163   3
   4   4  -1 498.849 14.6726  13
  -4   4   1 535.478 15.1400   6
   4   4  -1 512.892 15.1769   1
  -2  -4   1 374.790 11.9824   2
  -2  -4   1 379.707 11.2641   7
   2  -4  -1 391.052 12.1766  15
  -2  -4   1 387.685 12.7624  10
   2   4  -1 366.561 11.0770  12
  -2   4   1 367.124 12.1427   8
   2   4  -1 373.939 11.0771  16
   2   4  -1 368.738 10.3133  13
  -2   4   1 370.331 12.4763  14
  -2   4   1 369.608 12.2146   3
  -2   4   1 393.913 11.0746   6
  -2   4   1 427.565 11.3066   9
   2   4  -1 374.081 10.8983   1
   0  -4  -1 6.53494 1.35946  15
   0  -4  -1 5.67489 1.36983  10
   0  -4   1 7.37562 0.60372   4
   0  -4   1 6.61591 1.02401   7
   0  -4   1 14.0042 1.96964  10
   0   4   1 5.24007 0.89287  16
   0   4  -1 5.72124 0.84595   6
   0   4  -1 5.95098 1.01980   8
   0   4   1 5.65108 0.78780  14
   0   4   1 5.09725 0.69265   6
   0   4  -1 6.71568 0.85125   9
   0   4  -1 6.00125 0.79762  12
   0   4   1 6.60682 0.77434  13
   0   4   1 6.38225 0.88344   1
  -2  -4  -1 401.777 12.4508  15
  -2  -4  -1 405.744 13.4929  10
  -2  -4  -1 394.536 12.0071  11
  -2  -4  -1 399.253 12.9979   2
  -2  -4  -1 386.321 11.0332   7
  -2   4  -1 386.144 13.2914  14
  -2   4  -1 387.000 11.3449   6
  -2   4  -1 375.313 11.3110   9
   2   4   1 370.717 11.1265  13
   2   4   1 391.153 11.6956  16
   2   4   1 377.994 11.3921   1
  -2   4  -1 370.924 12.1714   8
   2   4   1 382.760 11.2873  12
  -2   4  -1 387.672 13.0354   3
  -4  -4  -1 6.01033 1.29790  15
  -4  -4  -1 7.65738 2.11194   2
  -4  -4  -1 8.00044 2.24056  10
   4  -4   1 6.58633 1.21801  16
  -4   4  -1 13.2023 2.42377   3
   4   4   1 5.15497 1.10626  12
   4   4   1 7.56894 1.41758  16
   4   4   1 6.20537 1.37511   1
   4   4   1 7.19967 1.35247  13
  -4   4  -1 5.85966 1.10486   9
  -4   4  -1 12.8836 1.59429   6
  -4   4  -1 7.62677 2.31862  14
  -4   4  -1 9.27220 1.93465   8
   6  -4   1 31.4846 2.86130   1
  -6  -4  -1 32.9278 3.36005   2
   6  -4   1 39.6262 3.04270  16
  -6  -4  -1 32.0552 4.61652  10
   6   4   1 31.4710 2.53141  12
   6   4   1 28.0846 3.06572   1
  -6   4  -1 28.3726 2.48448   9
  -6   4  -1 30.8128 4.77104  14
  -6   4  -1 28.0889 3.77979   8
   6   4   1 32.7457 3.27592  16
  -6   4  -1 32.5698 2.81850   6
   6   4   1 31.1245 2.98812  13
  -6   4  -1 31.8906 4.52322   3
   8  -4   1 69.4002 5.38309  13
   8  -4   1 65.8570 4.78033   1
  -8  -4  -1 62.5107 4.77670   2
  -8  -4  -1 71.9510 6.97100   3
  -8  -4  -1 76.5162 6.93958  10
   8   4   1 56.9889 4.93861  16
  -8   4  -1 60.6708 6.85306   3
   8   4   1 65.6479 5.02851   1
   8   4   1 59.6488 4.57538  13
  -8   4  -1 58.1171 4.19124   9
  -8   4  -1 61.3523 7.29927  14
 -10  -4  -1 3.94994 2.57758   3
  10  -4   1 2.29628 2.37349  13
 -10   4  -1 0.96806 3.06621   3
 -10   4  -1 4.95962 1.88638   9
  10   4   1 1.23466 2.35425   1
 -10   4  -1 4.01833 3.72160  14
  10   4   1 1.19146 2.33922  13
  11  -5  -1 175.012 10.0248  13
 -11  -5   1 180.304 12.5649   3
 -11   5   1 180.446 12.5898   3
 -11   5   1 190.421 14.6888  14
  11   5  -1 174.565 9.74659   1
  -9  -5   1 245.501 13.3003   3
  -9  -5   1 231.800 12.9707  10
   9  -5  -1 236.233 10.5732   1
   9  -5  -1 230.862 10.2989  16
   9   5  -1 238.080 10.8336  16
   9   5  -1 224.930 9.88392  13
   9   5  -1 240.371 10.5278   1
  -9   5   1 238.673 13.4788   3
  -9   5   1 226.542 9.16146   9
   9   5  -1 219.591 9.42887  12
  -9   5   1 243.631 15.1687  14
  -7  -5   1 786.386 26.6341  10
   7  -5  -1 779.973 23.4359  16
  -7  -5   1 735.540 22.9880   2
   7   5  -1 741.904 22.5791  12
  -7   5   1 762.243 28.2727  14
  -7   5   1 774.900 22.4772   9
   7   5  -1 723.244 22.5007  13
  -7   5   1 778.222 26.7985   3
  -7   5   1 803.920 22.7704   6
   7   5  -1 727.554 23.3746  16
   7   5  -1 731.684 22.9630   1
  -7   5   1 759.424 25.6408   8
  -5  -5   1 1255.84 37.1387  10
  -5  -5   1 1234.47 33.9855   7
  -5  -5   1 1192.57 34.7915   2
  -5  -5   1 1141.32 33.2846  15
   5  -5  -1 1255.70 34.7692  15
   5   5  -1 1192.50 33.5796  12
  -5   5   1 1268.17 33.6382   6
   5   5  -1 1183.34 33.9091  16
   5   5  -1 1191.22 33.5902   1
   5   5  -1 1159.89 32.9766  13
  -5   5   1 1222.34 37.9370  14
  -5   5   1 1228.57 35.8811   8
  -5   5   1 1240.09 33.4801   9
  -5   5   1 1253.08 36.8146   3
   3  -5  -1 3262.88 83.0633  15
  -3  -5   1 2944.98 83.9783  10
  -3  -5   1 2960.81 81.6485   7
  -3  -5   1 2865.01 82.7009   2
   3   5  -1 3236.43 81.7877  16
   3   5  -1 3101.39 80.6552  13
   3   5  -1 3200.59 81.4741   1
  -3   5   1 3181.75 83.4045   8
  -3   5   1 3280.77 81.6552   9
   3   5  -1 3161.94 81.6768  12
  -3   5   1 3120.56 84.3134  14
  -3   5   1 3104.36 83.6481   3
  -3   5   1 3177.74 81.4886   6
  -1  -5   1 2559.25 68.4453  10
   1  -5  -1 2590.61 67.8072  15
   1  -5  -1 2713.84 67.8453  10
   1  -5  -1 2703.17 65.6964   7
  -1  -5   1 2549.27 66.3947   7
   1  -5  -1 2612.87 67.4995   2
  -1   5   1 2595.58 67.4916  14
  -1   5   1 2557.03 66.3929   9
   1   5  -1 2468.89 65.8332   1
   1   5  -1 2395.98 66.8549   8
   1   5  -1 2486.43 66.2099   6
  -1   5   1 2533.49 66.1376   6
   1   5  -1 2373.32 65.8843   9
   1   5  -1 2536.11 66.3338  12
  -1   5   1 2576.34 67.8561   8
   1   5  -1 2371.43 65.9605  16
  -1  -5  -1 2856.38 76.1283   7
  -1  -5  -1 2895.36 78.7582  10
   1  -5   1 2970.25 75.9767   4
   1  -5   1 3038.50 77.0670   7
  -1  -5  -1 2957.24 78.2595  15
  -1  -5  -1 2924.26 78.5126   2
  -1   5  -1 2916.80 77.7316   8
  -1   5  -1 2955.02 78.9061  14
   1   5   1 2962.02 76.8306  12
   1   5   1 3007.86 77.0549  16
   1   5   1 2913.67 76.3014  13
  -1   5  -1 2974.32 76.8444   6
  -1   5  -1 2960.15 76.7297   9
   1   5   1 2943.23 76.7677   1
   1   5   1 2954.81 76.3633   6
  -3  -5  -1 800.412 24.3560   2
  -3  -5  -1 782.670 23.2600  15
  -3  -5  -1 748.239 22.7119  11
  -3  -5  -1 845.921 25.4087  10
  -3   5  -1 760.738 24.5446   3
   3   5   1 786.807 22.0986  12
   3   5   1 810.225 22.6844  16
  -3   5  -1 772.438 25.0765  14
   3   5   1 780.356 21.9020  13
  -3   5  -1 795.331 22.1970   9
  -3   5  -1 800.032 22.1501   6
  -3   5  -1 764.164 23.5114   8
   3   5   1 800.410 22.3253   1
  -5  -5  -1 852.152 26.4227   2
   5  -5   1 875.807 24.6568  16
  -5  -5  -1 927.876 28.8616  10
  -5   5  -1 866.666 24.7231   9
  -5   5  -1 876.800 28.5395   3
   5   5   1 834.342 24.4232  12
  -5   5  -1 852.257 26.8181   8
   5   5   1 833.273 24.6914  13
   5   5   1 870.036 25.0784   1
  -5   5  -1 849.039 28.9415  14
   5   5   1 832.399 25.3104  16
  -5   5  -1 873.712 24.6705   6
  -7  -5  -1 252.604 13.0849  10
  -7  -5  -1 260.328 12.4216   3
   7  -5   1 223.760 9.17224   1
  -7  -5  -1 231.736 10.2632   2
   7  -5   1 242.120 10.0059  13
   7   5   1 223.902 9.48713   1
  -7   5  -1 238.834 9.29293   9
  -7   5  -1 239.693 12.8283   3
   7   5   1 235.776 8.80426  12
  -7   5  -1 240.138 9.13585   6
  -7   5  -1 258.101 13.9050  14
   7   5   1 229.435 9.54824  13
   7   5   1 224.782 9.97354  16
  -9  -5  -1 440.956 19.3716   3
   9  -5   1 410.889 16.0701  13
   9   5   1 411.691 15.4185   1
  -9   5  -1 389.949 14.3875   9
  -9   5  -1 421.560 20.8102  14
  -9   5  -1 412.074 19.9540   3
   9   5   1 415.376 15.6392  13
 -10  -6   1 107.081 9.40829  10
 -10  -6   1 135.445 10.4206   3
  10   6  -1 111.714 7.39212   1
 -10   6   1 104.393 9.73057   3
 -10   6   1 105.398 5.99370   9
 -10   6   1 107.778 11.2942  14
   8  -6  -1 61.9044 4.83390  16
  -8  -6   1 67.8880 7.33525  10
   8   6  -1 67.3045 4.75574  12
  -8   6   1 59.6870 7.77125  14
  -8   6   1 68.7529 6.68313   8
   8   6  -1 62.2813 5.03079   1
  -8   6   1 66.3936 4.58911   9
   8   6  -1 63.2719 4.48260  13
  -8   6   1 73.2428 5.04246   6
   8   6  -1 62.5500 5.29645  16
  -8   6   1 69.9099 7.21554   3
  -6  -6   1 401.109 13.2640   7
  -6  -6   1 394.994 14.2014   2
   6  -6  -1 398.642 14.1962  15
  -6  -6   1 403.006 16.7500  10
  -6   6   1 397.762 12.9850   6
   6   6  -1 383.789 13.5569  16
  -6   6   1 387.575 15.5262   8
   6   6  -1 390.954 13.1935   1
  -6   6   1 387.569 12.8169   9
   6   6  -1 351.825 12.1808  13
  -6   6   1 392.222 17.4835  14
   6   6  -1 368.917 12.9193  12
  -6   6   1 382.278 16.0362   3
  -4  -6   1 91.8497 4.39607   7
  -4  -6   1 83.4904 4.44513  15
   4  -6  -1 90.8641 5.39589  15
  -4  -6   1 101.294 5.84229   2
  -4  -6   1 100.738 7.01765  10
  -4   6   1 89.7583 4.36031   9
  -4   6   1 80.8354 5.45401   8
   4   6  -1 83.0214 4.25375  12
  -4   6   1 87.2477 6.26523  14
  -4   6   1 89.2398 4.22821   6
  -4   6   1 87.8135 5.72419   3
   4   6  -1 87.1247 4.31056   1
   4   6  -1 86.6801 3.55163  13
   4   6  -1 90.9759 4.55666  16
  -2  -6   1 74.4281 4.64320   2
   2  -6  -1 67.6033 2.97333   7
   2  -6  -1 70.9631 4.50889  15
  -2  -6   1 71.9558 5.00067  10
   2  -6  -1 68.0557 4.15296  10
  -2  -6   1 72.3981 3.58464   7
  -2   6   1 66.2599 3.24977   6
   2   6  -1 71.2296 3.57653  12
  -2   6   1 66.5958 4.43234  14
  -2   6   1 74.9941 3.57038   9
  -2   6   1 70.9994 4.57832   3
   2   6  -1 68.0273 3.37097  16
  -2   6   1 70.9222 4.50153   8
   2   6  -1 68.3176 3.18681   1
   0  -6  -1 273.927 9.94697   2
   0  -6  -1 267.972 9.99967  10
   0  -6  -1 264.801 7.71236   7
   0  -6   1 265.152 8.59086   7
   0  -6  -1 255.654 9.90851  15
   0  -6   1 268.078 10.5205  10
   0   6   1 248.156 7.87074  13
   0   6  -1 256.352 8.48777   6
   0   6  -1 250.636 9.26203   8
   0   6   1 261.973 8.25127   6
   0   6  -1 267.085 8.42232   9
   0   6   1 264.944 8.40143   1
   0   6   1 264.452 9.86258   8
   2  -6   1 19.9025 1.98799   7
  -2  -6  -1 22.1814 3.08826   2
  -2  -6  -1 24.0186 2.54312  15
   2  -6   1 18.5650 1.41217   4
  -2  -6  -1 20.7022 3.09720  10
  -2  -6  -1 18.1027 1.53877   7
  -2   6  -1 19.3349 1.76570   9
   2   6   1 17.6962 1.85750   1
  -2   6  -1 21.9072 3.15419   3
  -2   6  -1 21.0732 2.41958   8
  -2   6  -1 18.7827 2.95569  14
  -2   6  -1 20.3901 2.04809   6
   2   6   1 19.2452 2.04120  12
   2   6   1 18.4052 1.56036  13
   2   6   1 17.4816 2.07305  16
   2   6   1 18.1108 1.49559   6
  -4  -6  -1 53.0711 3.94699  15
  -4  -6  -1 53.6834 3.77433  11
  -4  -6  -1 58.1586 5.34794  10
  -4  -6  -1 56.1683 5.28002   2
   4   6   1 53.3849 3.62682  16
  -4   6  -1 57.4401 5.43746  14
   4   6   1 53.9594 3.41569   1
  -4   6  -1 50.0713 4.73541   3
  -4   6  -1 55.4364 4.48493   8
  -4   6  -1 60.4907 3.62917   9
   4   6   1 54.0544 3.19097  13
   4   6   1 55.4606 3.31250  12
  -4   6  -1 54.3966 3.42882   6
  -6  -6  -1 33.0550 5.38346  10
  -6  -6  -1 31.4355 4.06285   2
  -6   6  -1 25.4318 4.60006  14
  -6   6  -1 28.2949 3.07212   6
   6   6   1 24.2178 3.02350  16
   6   6   1 25.2899 2.50301  12
   6   6   1 28.8635 3.12249  13
  -6   6  -1 22.1923 4.24948   3
   6   6   1 25.1420 3.14791   1
  -6   6  -1 30.1678 2.83145   9
  -6   6  -1 30.3455 4.14784   8
  -8  -6  -1 5.22590 2.95563   3
   8  -6   1 5.15484 2.13580  13
  -8  -6  -1 8.42010 3.77234  10
  -8  -6  -1 6.96166 2.37414   2
  -8   6  -1 1.88967 3.13579  14
   8   6   1 2.81916 2.22303   1
  -8   6  -1 2.77085 1.86680   9
  -8   6  -1 1.82315 2.12050   3
  -8   6  -1 8.50438 2.31577   6
   8   6   1 1.90613 1.62717  16
   8   6   1 5.53194 2.27330  13
  -9  -7   1 228.614 13.3678  10
  -9   7   1 203.769 12.1603   8
  -9   7   1 215.666 9.33811   9
  -9   7   1 207.751 15.1695  14
  -9   7   1 210.486 13.2207   3
   9   7  -1 205.639 9.93606   1
   9   7  -1 184.111 9.03454  12
   7  -7  -1 1035.96 31.0452  16
  -7  -7   1 983.258 31.6634   2
  -7  -7   1 1102.04 35.6992  10
  -7   7   1 1059.70 35.4097   3
  -7   7   1 1063.96 34.6231   8
  -7   7   1 1102.13 30.9213   6
  -7   7   1 1069.64 30.7641   9
   7   7  -1 1046.81 31.1312   1
   7   7  -1 1051.38 31.7434  16
   7   7  -1 1052.05 30.9934  12
  -7   7   1 1040.69 37.6536  14
  -5  -7   1 152.354 8.45652   2
  -5  -7   1 171.559 7.17260   7
  -5  -7   1 171.196 9.80859  10
   5  -7  -1 169.246 8.48637  15
  -5   7   1 167.273 7.06844   9
   5   7  -1 166.589 7.25555  16
   5   7  -1 165.240 7.03899  12
  -5   7   1 165.590 10.1571  14
  -5   7   1 168.714 9.46978   3
   5   7  -1 162.002 6.88828   1
  -5   7   1 160.557 8.70633   8
  -5   7   1 165.855 7.03505   6
  -3  -7   1 1258.93 34.3344   7
  -3  -7   1 1274.34 37.8193  10
   3  -7  -1 1291.17 36.7289  15
   3  -7  -1 1235.40 35.9685  10
  -3  -7   1 1227.19 36.3919   2
  -3   7   1 1290.01 34.5957   9
   3   7  -1 1240.08 34.0773   1
  -3   7   1 1226.28 36.6321   8
   3   7  -1 1224.84 34.3827  16
  -3   7   1 1216.74 36.9784   3
  -3   7   1 1196.69 37.3677  14
  -3   7   1 1248.94 34.2362   6
   3   7  -1 1232.48 34.5018  12
   1  -7  -1 315.681 11.7495  10
   1  -7  -1 314.599 12.0077  15
  -1  -7   1 326.088 10.1951   7
  -1  -7   1 342.828 12.7914  10
   1  -7  -1 321.467 11.7520   2
  -1  -7   1 332.884 11.9685   2
   1   7  -1 303.209 10.1958  12
   1   7  -1 308.467 9.72481   1
   1   7  -1 313.772 10.1975   6
  -1   7   1 300.852 9.95087   6
   1   7  -1 288.634 10.9128   8
  -1   7   1 301.716 11.7288   8
   1  -7   1 2007.74 54.4859  10
  -1  -7  -1 1977.14 53.9080   2
  -1  -7  -1 1989.75 54.2716  10
   1  -7   1 1934.10 51.5464   7
  -1  -7  -1 1911.64 53.5698  15
  -1   7  -1 1956.02 51.4372   9
  -1   7  -1 1919.22 51.4918   6
   1   7   1 1922.32 51.6996  16
   1   7   1 1911.27 50.9931   6
   1   7   1 1894.02 51.3177   1
  -1   7  -1 1830.56 52.7814   8
   1   7   1 1845.77 50.4995  13
  -3  -7  -1 695.840 21.8827  11
   3  -7   1 704.532 21.1997   7
  -3  -7  -1 730.336 23.7236   2
  -3  -7  -1 743.167 24.5351  10
  -3  -7  -1 711.266 22.5414  15
   3   7   1 704.282 20.9277   1
   3   7   1 700.145 21.2409  16
  -3   7  -1 711.406 20.8395   6
   3   7   1 707.122 20.0269   6
  -3   7  -1 706.359 24.6034  14
   3   7   1 710.152 20.9611  12
  -3   7  -1 708.777 20.9289   9
  -3   7  -1 719.389 22.8582   8
  -3   7  -1 712.032 24.0388   3
  -5  -7  -1 1615.55 48.0865  10
  -5  -7  -1 1564.73 45.9031   2
  -5   7  -1 1579.87 46.3124   8
  -5   7  -1 1558.83 49.0262  14
  -5   7  -1 1565.29 43.3107   9
   5   7   1 1593.24 43.2212  12
   5   7   1 1523.86 43.3865   1
   5   7   1 1493.80 42.5728  13
  -5   7  -1 1544.92 47.7906   3
  -5   7  -1 1560.94 43.1534   6
   5   7   1 1566.15 43.9698  16
  -7  -7  -1 323.151 13.6623   2
  -7  -7  -1 378.799 17.3971  10
   7   7   1 339.789 13.5985  16
   7   7   1 342.794 12.9837   1
   7   7   1 352.723 12.4575  12
  -7   7  -1 351.092 15.6370   8
   7   7   1 329.394 12.3704  13
  -7   7  -1 338.763 12.3539   6
  -7   7  -1 348.968 18.1921  14
  -7   7  -1 347.974 17.1495   3
  -7   7  -1 348.695 12.8318   9
  -9  -7  -1 447.391 20.6921  10
   9   7   1 421.402 16.3932   1
  -9   7  -1 455.425 21.4755   3
  -9   7  -1 445.480 23.2731  14
  -9   7  -1 436.976 15.8548   9
  -8  -8   1 67.2031 7.26996  10
  -8   8   1 60.1445 6.80570   8
   8   8  -1 55.8625 4.92965  16
  -8   8   1 61.3144 8.25354  14
  -8   8   1 65.6645 5.03918   9
  -8   8   1 61.4406 4.73180   6
   8   8  -1 59.1032 4.98418  12
  -8   8   1 64.1111 7.46870   3
   8   8  -1 60.9708 5.29494   1
  -6  -8   1 579.358 21.0734   2
   6  -8  -1 620.559 21.4472  15
  -6  -8   1 628.625 23.9828  10
  -6   8   1 621.148 23.1907   3
  -6   8   1 603.336 19.1963   9
   6   8  -1 594.056 19.2426  12
   6   8  -1 577.666 19.4203  16
  -6   8   1 644.653 23.0053   8
  -6   8   1 577.145 24.4364  14
   6   8  -1 595.590 19.1482   1
  -6   8   1 582.671 19.0271   6
   4  -8  -1 329.242 13.4154  15
  -4  -8   1 311.929 10.9010   7
   4  -8  -1 324.639 12.7726  10
  -4  -8   1 324.933 13.4899   2
  -4  -8   1 332.773 14.9336  10
  -4  -8   1 324.678 12.4233  15
   4   8  -1 325.251 10.8443   6
   4   8  -1 323.026 11.1858   1
   4   8  -1 332.518 11.6053  16
  -4   8   1 319.583 14.0102   3
  -4   8   1 309.953 14.4505  14
  -4   8   1 320.926 11.4650   9
  -4   8   1 323.691 11.2593   6
   4   8  -1 331.613 11.6476  12
  -4   8   1 350.197 14.0370   8
  -2  -8   1 631.689 18.6965   7
  -2  -8   1 651.673 21.1830   2
   2  -8  -1 652.044 21.4989  15
   2  -8  -1 635.822 20.6993  10
  -2  -8   1 668.671 22.4284  10
   2  -8  -1 658.848 20.8376   2
  -2   8   1 640.436 21.3076   8
   2   8  -1 655.991 19.3316  12
  -2   8   1 605.605 21.1134  14
   2   8  -1 630.522 18.8709  16
   2   8  -1 586.448 19.9777   8
   2   8  -1 653.521 18.9520   6
   2   8  -1 625.954 18.5327   1
  -2   8   1 619.830 18.7904   6
   0  -8   1 1468.13 42.0378  10
   0  -8   1 1430.52 38.6021   7
   0  -8  -1 1414.90 41.0769  10
   0  -8  -1 1387.40 41.1239  15
   0  -8  -1 1446.48 41.0571   2
   0   8   1 1395.49 38.5313   1
   0   8   1 1420.11 38.4122   6
   0   8   1 1417.37 41.1475   8
   0   8  -1 1404.25 38.7798   6
   0   8  -1 1313.99 39.9990   8
   0   8  -1 1441.02 38.5891   9
  -2  -8  -1 439.550 16.4668  10
   2  -8   1 418.763 13.6895   7
  -2  -8  -1 425.823 15.9696   2
   2  -8   1 424.384 16.3153  10
  -2  -8  -1 419.924 15.5631  15
   2   8   1 427.248 13.9301  16
  -2   8  -1 434.175 13.6635   9
   2   8   1 417.777 13.5499   1
  -2   8  -1 401.847 15.0970   8
   2   8   1 407.759 12.8670   6
  -2   8  -1 421.086 13.5444   6
   4  -8   1 967.562 28.4790   7
  -4  -8  -1 913.958 28.8780  11
  -4  -8  -1 991.465 32.3377  10
  -4  -8  -1 969.752 31.2339   2
   4   8   1 981.379 28.2470   1
   4   8   1 967.315 28.1469  12
  -4   8  -1 970.763 28.1395   9
  -4   8  -1 948.368 33.0793  14
  -4   8  -1 974.843 28.0593   6
   4   8   1 975.085 28.6693  16
  -4   8  -1 951.667 32.1190   3
  -4   8  -1 967.779 30.8267   8
  -6  -8  -1 516.140 21.1419  10
  -6  -8  -1 493.499 18.8166   2
   6   8   1 489.682 16.4504  12
  -6   8  -1 490.067 16.7091   9
  -6   8  -1 487.995 20.7925   3
   6   8   1 482.831 17.2470  16
   6   8   1 497.820 16.8990   1
  -6   8  -1 509.558 22.7410  14
  -6   8  -1 485.993 19.5011   8
  -6   8  -1 513.382 16.7209   6
  -8  -8  -1 196.163 12.3544  10
  -8   8  -1 189.816 14.3412  14
  -8   8  -1 170.082 8.63419   9
  -8   8  -1 173.057 12.1127   3
   8   8   1 180.869 9.23759   1
  -8   8  -1 175.111 8.60928   6
  -9  -9   1 275.420 15.8975  10
   9   9  -1 286.120 11.8456  12
  -9   9   1 285.260 18.2720  14
  -9   9   1 282.355 11.7284   9
   9   9  -1 264.069 12.0433   1
  -9   9   1 274.942 15.3320   8
  -9   9   1 274.387 15.7922   3
  -7  -9   1 129.280 8.24650   2
  -7  -9   1 103.919 9.73969  10
   7   9  -1 99.7204 6.70056  16
  -7   9   1 112.397 6.27773   6
   7   9  -1 102.967 6.56059  12
  -7   9   1 117.585 6.45892   9
  -7   9   1 116.428 9.21389   8
  -7   9   1 122.116 9.28521   3
   7   9  -1 119.491 6.58054   1
  -7   9   1 99.7568 9.83965  14
  -5  -9   1 1339.95 40.9265   2
  -5  -9   1 1342.77 42.9513  10
   5   9  -1 1301.35 38.2105  16
  -5   9   1 1333.45 37.9276   6
  -5   9   1 1370.13 42.5885   3
   5   9  -1 1344.90 37.1885   6
  -5   9   1 1336.92 38.1040   9
   5   9  -1 1326.16 37.8000   1
   5   9  -1 1322.19 38.2278  12
  -5   9   1 1353.33 41.8529   8
  -5   9   1 1276.19 43.3636  14
  -3  -9   1 438.749 16.4886   2
   3  -9  -1 426.147 15.8236  10
  -3  -9   1 395.927 15.3663  15
   3  -9  -1 440.786 16.9862  15
   3  -9  -1 435.702 15.9223   2
  -3  -9   1 456.530 17.9523  10
  -3   9   1 412.216 13.8231   6
   3   9  -1 425.256 14.1344  16
   3   9  -1 443.065 14.5463  12
  -3   9   1 416.948 16.5911   8
  -3   9   1 394.464 16.7135  14
   3   9  -1 428.680 13.8969   6
   3   9  -1 425.523 13.8100   1
  -1  -9   1 2427.22 68.1352  10
   1  -9  -1 2460.45 67.7020  15
   1  -9  -1 2376.15 66.5583   2
   1  -9  -1 2375.57 66.7701  10
  -1  -9   1 2421.05 66.9065   2
   1   9  -1 2381.28 63.6536   1
  -1   9   1 2471.53 67.5035   8
  -1   9   1 2396.10 64.0426   6
   1   9  -1 2206.57 65.7341   8
   1   9  -1 2465.37 64.4201   6
  -1  -9  -1 159.809 8.59580  15
  -1  -9  -1 161.370 9.13663  10
   1  -9   1 151.709 8.71464  10
  -1  -9  -1 160.708 8.94741   2
  -1   9  -1 130.349 7.45928   8
   1   9   1 152.174 6.40795   1
   1   9   1 149.460 8.20420   8
  -1   9  -1 159.624 6.71741   9
   1   9   1 155.994 6.27139   6
  -1   9  -1 141.454 6.45551   6
  -3  -9  -1 1278.02 39.3431   2
  -3  -9  -1 1266.02 39.9217  10
  -3  -9  -1 1214.56 37.0140  11
  -3  -9  -1 1188.46 37.8011  15
   3  -9   1 1381.58 39.9140  10
  -3   9  -1 1261.06 35.7588   6
  -3   9  -1 1191.79 38.0860   8
   3   9   1 1280.82 36.2805  16
  -3   9  -1 1268.53 35.8763   9
   3   9   1 1267.44 35.7634   1
  -5  -9  -1 6.81454 3.13405  10
  -5  -9  -1 4.63367 3.52748   2
  -5   9  -1 3.62945 1.53832   9
  -5   9  -1 8.77900 3.05437   8
   5   9   1 5.16175 2.16510  16
   5   9   1 4.23300 2.10855   1
  -5   9  -1 15.3503 2.45313   6
  -7  -9  -1 550.060 21.0457   2
  -7  -9  -1 606.280 24.6279  10
   7   9   1 558.158 19.4019   1
  -7   9  -1 577.393 23.3490   8
  -7   9  -1 573.093 19.2907   9
  -7   9  -1 575.283 24.4204   3
  -7   9  -1 567.571 19.1090   6
  -8 -10   1 1.46893 3.69008  10
   8  10  -1 0.68507 2.08397   1
   8  10  -1 0.48226 1.53507  12
  -8  10   1 2.04566 2.36782   8
  -8  10   1 -1.3075 3.12366  14
  -8  10   1 0.38390 2.33998   6
  -8  10   1 0.77122 2.80621   3
  -8  10   1 4.14782 1.84981   9
   6 -10  -1 69.7592 5.71647   2
  -6 -10   1 69.7696 7.10967   2
  -6 -10   1 68.0188 8.57656  10
  -6  10   1 64.7902 6.80787   8
  -6  10   1 65.6679 5.30510   6
  -6  10   1 65.6730 4.84504   9
  -6  10   1 63.5386 7.90116  14
   6  10  -1 69.9517 5.06064  16
   6  10  -1 67.6092 5.05391  12
   6  10  -1 69.0797 5.17940   1
  -4 -10   1 4.24152 3.27709   2
   4 -10  -1 0.71255 1.70976   2
  -4 -10   1 3.30010 3.89281  10
  -4  10   1 1.50284 2.33328   8
  -4  10   1 0.39408 1.73998   6
   4  10  -1 1.79836 1.56299   1
   4  10  -1 2.82001 1.92880  12
   4  10  -1 2.37271 1.50291   6
   4  10  -1 1.06565 1.56087  16
   2 -10  -1 2.24675 2.49349   2
  -2 -10   1 1.22628 3.16811  10
  -2 -10   1 0.49875 1.84104   2
  -2 -10   1 1.39426 1.42633  15
   2 -10  -1 -0.0127 1.89646  10
  -2  10   1 4.49578 2.36915   8
  -2  10   1 -0.3994 1.46449   6
   2  10  -1 2.80097 1.54789   6
   2  10  -1 2.03373 1.32918   1
   0 -10   1 46.0422 4.75802   2
   0 -10  -1 56.7617 5.34843   2
   0 -10   1 57.6954 6.32382  10
   0 -10  -1 53.9977 5.84844  10
   0  10  -1 49.5413 4.59506   8
   0  10  -1 49.2270 3.68904   6
   0  10   1 51.6527 4.87652   8
   0  10   1 49.8645 3.69606   6
  -2 -10  -1 47.3999 5.68963  10
  -2 -10  -1 53.3331 5.65835   2
  -2 -10  -1 45.4103 5.20912  15
   2 -10   1 45.5506 5.62556  10
  -2 -10  -1 46.4543 4.49854  11
  -2  10  -1 47.6399 3.70641   6
  -2  10  -1 46.3513 3.96355   9
   2  10   1 49.4626 3.47223   6
   2  10   1 47.6888 5.11185   8
   2  10   1 52.3884 4.03448   1
  -2  10  -1 43.9130 4.81089   8
   4 -10   1 5.55183 2.91066  10
  -4 -10  -1 10.6942 3.60600  10
  -4 -10  -1 10.7869 3.58709   2
  -4  10  -1 15.3200 2.95108   6
   4  10   1 10.6749 2.50821   1
   4  10   1 7.23331 2.28678  16
  -4  10  -1 6.02997 2.26959   9
  -4  10  -1 8.61253 2.95638   8
  -6 -10  -1 3.21592 2.84975  10
   6 -10   1 4.58910 2.72704  10
  -6 -10  -1 3.13672 3.00199   2
  -6  10  -1 1.63042 2.19773   6
   6  10   1 4.13688 1.87351   1
  -6  10  -1 6.59844 2.05227   9
  -6  10  -1 3.66122 2.29991   8
  -7 -11   1 257.420 14.9975  10
   7  11  -1 252.121 11.0663   1
  -7  11   1 268.391 15.0659   8
  -7  11   1 262.673 11.2956   6
  -5 -11   1 246.379 13.4706   2
   5 -11  -1 267.992 12.6031   2
  -5 -11   1 265.774 14.8436  10
   5  11  -1 250.442 10.8668  16
  -5  11   1 269.556 14.2562   8
   5  11  -1 262.369 10.6033   1
  -5  11   1 259.268 10.8384   6
  -3 -11   1 119.777 8.45376   2
   3 -11  -1 108.173 7.36630   2
  -3 -11   1 105.753 8.95538  10
  -3  11   1 111.276 6.22088   6
   3  11  -1 103.767 5.60885   1
   3  11  -1 109.057 5.98201   6
  -3  11   1 108.532 8.24194   8
  -1 -11   1 392.908 16.4908   2
   1 -11  -1 410.492 16.6338  10
   1 -11  -1 416.123 16.6610   2
  -1 -11   1 399.023 17.4203  10
   1  11  -1 415.624 14.2019   6
  -1  11   1 406.072 14.0062   6
  -1  11   1 406.263 16.8921   8
   1 -11   1 193.630 11.2465  10
   1 -11   1 190.538 10.4715   2
  -1 -11  -1 193.717 11.1801   2
  -1 -11  -1 200.853 11.0077  10
  -1  11  -1 176.115 8.10491   6
   1  11   1 186.699 7.86544   6
   1  11   1 180.336 10.2782   8
  -3 -11  -1 832.552 29.6545   2
  -3 -11  -1 838.174 30.1985  10
   3 -11   1 840.333 28.0746   2
   3 -11   1 886.897 29.8441  10
  -3  11  -1 797.446 28.6452   8
  -3  11  -1 848.783 25.8700   9
  -3  11  -1 829.686 25.7624   6
   3  11   1 835.302 25.7409   1
  -5 -11  -1 281.024 14.6842   2
  -5 -11  -1 311.816 16.1757  10
   5 -11   1 279.472 16.5982  10
  -5  11  -1 280.081 11.6475   6
  -5  11  -1 294.212 12.0961   9
  -5  11  -1 276.833 14.4646   8
   5  11   1 292.620 11.9560   1
  -6  12   1 31.4622 5.91821   8
   4 -12  -1 222.213 11.5729   2
  -4 -12   1 242.022 13.5955   2
  -4 -12   1 239.638 14.0838  10
  -4  12   1 250.540 13.6456   8
  -4  12   1 238.285 10.2277   6
   2 -12  -1 206.273 11.2277   2
  -2 -12   1 214.144 13.4023  10
  -2 -12   1 225.483 12.4326   2
  -2  12   1 210.255 11.6548   8
  -2  12   1 208.219 9.04949   6
   2  12  -1 207.098 9.13423   6
   0 -12   1 61.0690 6.64351   2
   0 -12   1 56.4794 6.91404  10
   0 -12  -1 63.9673 7.14125   2
   0 -12  -1 53.7469 5.97579  10
   0  12   1 57.8135 4.51854   6
   0  12   1 60.9436 6.21673   8
   0  12  -1 55.8412 4.76177   6
  -2 -12  -1 347.866 15.3996  11
   2 -12   1 372.855 17.1310  10
  -2 -12  -1 361.123 16.7153  10
  -2 -12  -1 372.319 16.9056   2
   2 -12   1 382.544 16.5042   2
  -2  12  -1 376.603 14.0161   6
  -4 -12  -1 60.7435 6.94262   2
   4 -12   1 70.5164 7.31543   2
  -4 -12  -1 64.3871 8.05406  10
  -4  12  -1 55.3699 5.22110   6
   4  12   1 78.7779 5.54137   1
   3 -13  -1 827.133 28.4302   2
  -3 -13   1 802.927 30.6572  10
  -3 -13   1 752.536 26.8278  11
  -3 -13   1 796.486 29.2899   2
  -3  13   1 817.531 25.3869   6
  -3  13   1 843.477 30.0226   8
   1 -13  -1 245.064 13.0392   2
   1 -13  -1 214.876 11.8137  11
  -1 -13   1 227.602 13.6782  10
  -1 -13   1 210.403 12.0615   2
  -1  13   1 215.964 9.55092   6
   1  13  -1 220.039 9.74820   6
  -1 -13  -1 516.172 21.0473   2
  -1 -13  -1 502.730 19.8475  11
  -1 -13  -1 529.176 28.8181  10
   1 -13   1 515.412 21.0241   2
   1 -13   1 523.454 21.6109  10
  -1  13  -1 547.485 18.4156   6
   3 -13   1 71.9301 7.49392   2
  -3 -13  -1 79.7822 9.13819   2
  -3 -13  -1 65.4048 7.05112  10
  -3  13  -1 74.2376 5.91117   6
  12   0  -2 15.3297 3.75409  13
  12   0  -2 10.3692 2.75765   1
 -12   0   2 15.1810 4.30266   3
 -10   0   2 933.901 32.9366   3
  10   0  -2 888.766 28.9690  16
  10   0  -2 886.935 28.7206   1
  10   0  -2 870.723 27.1609  12
 -10   0   2 977.716 33.5484  14
   8   0  -2 431.170 15.0033   1
  -8   0   2 419.443 17.1703   3
   8   0  -2 428.347 15.0797  16
  -8   0   2 455.533 18.1055  14
   8   0  -2 444.349 14.2594  12
   6   0  -2 4974.23 123.412   1
   6   0  -2 4904.96 127.023  16
  -6   0   2 4468.54 125.623  14
   6   0  -2 4993.98 122.742  12
  -6   0   2 4335.54 122.760   9
  -6   0   2 4816.52 125.282   3
   6   0  -2 4653.81 122.848   5
  -6   0   2 4619.32 123.612  10
  -4   0   2 2778.04 78.0075   9
  -4   0   2 2875.17 79.1484  14
  -4   0   2 2879.09 81.7973  15
   4   0  -2 3052.93 80.0758  15
  -4   0   2 2829.62 77.3116   7
  -4   0   2 2995.19 77.6621  10
  -4   0   2 3055.47 79.5713   8
   4   0  -2 3092.69 78.2913   5
   4   0  -2 3137.35 81.7951  16
   4   0  -2 2995.82 77.1715  12
   2   0  -2 9270.27 228.590  12
  -2   0   2 8439.82 231.377  15
   2   0  -2 9160.32 229.593   5
  -2   0   2 8513.91 228.737   7
  -2   0   2 8404.83 227.963   4
   0   0   2 10.9517 0.74479  13
   0   0   2 10.8954 0.62422  16
   0   0  -2 12.1030 1.04082  15
   0   0   2 9.94296 0.75450   4
   0   0  -2 12.0910 0.98057   2
   0   0  -2 11.1943 0.87146  11
   2   0   2 4616.06 119.440  16
  -2   0  -2 4454.80 125.478  14
   2   0   2 4738.07 119.813   1
  -2   0  -2 4182.37 120.138   2
   2   0   2 4314.35 121.982  15
   2   0   2 4717.06 121.520  13
  -2   0  -2 4543.35 120.965  11
  -4   0  -2 106.969 4.82792   2
  -4   0  -2 106.308 5.67022   3
   4   0   2 106.376 4.28324   1
   4   0   2 101.414 3.45354  12
  -4   0  -2 105.935 3.87090  11
   4   0   2 105.522 4.46230  16
  -4   0  -2 105.604 4.30435   9
  -4   0  -2 105.878 5.29684  14
   4   0   2 106.425 4.80400  13
  -6   0  -2 2728.90 75.5292   3
   6   0   2 2775.28 71.6071   1
  -6   0  -2 2577.72 73.8002  14
   6   0   2 2769.26 72.5418  13
   6   0   2 2718.42 71.8870  16
  -6   0  -2 2568.63 71.0263   9
  -8   0  -2 11.2609 3.52577   3
   8   0   2 6.21549 1.80331   1
  -8   0  -2 9.59103 1.85318   9
   8   0   2 5.19983 2.37627  13
  -8   0  -2 8.17504 2.63702  14
   8   0   2 7.00025 2.14711  16
  10   0   2 1384.87 42.9642  13
  10   0   2 1389.12 41.4764   1
 -10   0  -2 1508.77 48.7112   3
 -11  -1   2 126.844 10.0588   3
  11  -1  -2 119.904 7.76519  13
  11  -1  -2 116.050 7.44694   1
  11  -1  -2 95.5818 8.04369  16
 -11   1   2 123.051 9.80587   3
 -11   1   2 136.984 11.1630  14
  11   1  -2 117.083 7.74468   1
  11   1  -2 110.110 7.61400  13
   9  -1  -2 3.97112 1.72750  12
   9  -1  -2 3.27741 1.61378  16
   9  -1  -2 1.57007 1.40207   1
  -9  -1   2 1.46763 2.36675  14
  -9  -1   2 3.67717 2.07016   3
   9   1  -2 0.07009 1.77252  16
  -9   1   2 9.49572 3.40039   3
   9   1  -2 3.08508 1.60237  12
  -9   1   2 1.26144 1.85076  14
   9   1  -2 2.20613 1.99733   1
   7  -1  -2 302.129 11.1284   1
  -7  -1   2 328.505 13.2369  14
  -7  -1   2 304.672 11.7966  10
   7  -1  -2 293.764 10.9179  16
   7  -1  -2 299.214 10.3002  12
  -7  -1   2 308.108 12.8000   3
   7   1  -2 296.716 10.7958   1
   7   1  -2 298.230 10.2382  12
  -7   1   2 281.548 9.16873   9
   7   1  -2 295.392 10.9368  16
  -7   1   2 311.410 13.5869  14
  -7   1   2 302.754 12.5881   3
  -5  -1   2 139.985 6.72491  14
   5  -1  -2 133.218 5.06414  12
  -5  -1   2 134.775 5.50821   7
  -5  -1   2 145.104 6.19600  10
  -5  -1   2 127.370 4.24846   2
   5  -1  -2 139.310 4.83061  15
   5  -1  -2 130.314 5.37897  16
   5  -1  -2 131.842 4.84370   5
   5   1  -2 130.481 5.35650   1
   5   1  -2 123.315 5.23776  16
  -5   1   2 129.754 5.61482   8
  -5   1   2 138.915 6.43528   3
  -5   1   2 123.310 4.39037   9
   5   1  -2 138.029 5.13287  12
   5   1  -2 134.743 4.63856   5
  -5   1   2 144.704 7.16076  14
  -3  -1   2 287.270 9.01644  10
  -3  -1   2 291.447 8.69328   7
  -3  -1   2 278.316 8.14418   4
   3  -1  -2 293.239 8.50820   5
  -3  -1   2 274.876 8.14485  15
   3  -1  -2 308.248 8.93318  15
   3  -1  -2 290.695 8.27028  11
  -3   1   2 276.389 8.26676   7
  -3   1   2 272.846 9.67394  14
   3   1  -2 280.719 8.39207  16
  -3   1   2 292.947 8.82371  15
  -3   1   2 276.032 7.94298   9
   3   1  -2 277.811 8.30980  12
  -3   1   2 274.894 8.97517   3
   3   1  -2 278.268 8.20677   5
  -3   1   2 259.299 8.61608   8
   1  -1  -2 2374.73 61.6079   5
   1  -1  -2 2451.14 65.0619  15
   1  -1  -2 2323.90 61.0355  11
  -1  -1   2 2251.88 60.6914   4
  -1  -1   2 2208.68 62.8253  15
  -1  -1   2 2323.28 59.3227   7
  -1   1   2 2378.18 61.9415  13
  -1   1   2 2293.57 63.5892  15
   1   1  -2 2209.64 60.7340   5
  -1   1   2 2402.10 60.7227   4
   1   1  -2 2147.48 61.3679  12
   1   1  -2 2160.40 60.4880  11
   1  -1   2 225.463 6.76711  13
  -1  -1  -2 222.331 7.17752   3
  -1  -1  -2 239.007 7.08121  11
  -1  -1  -2 235.655 7.60335  10
   1  -1   2 231.306 6.42011  16
   1  -1   2 227.468 7.23368  15
  -1  -1  -2 234.964 7.42950   2
  -1  -1  -2 235.034 7.33603  15
   1  -1   2 228.962 6.81862   4
   1   1   2 224.261 6.67758   4
   1   1   2 225.308 6.91438  13
  -1   1  -2 235.152 6.97918  11
  -1   1  -2 242.186 7.45896   3
   1   1   2 228.851 6.69461   1
  -1   1  -2 233.863 6.50464   6
  -1   1  -2 243.713 7.83036  14
  -1   1  -2 225.308 6.46956   5
   1   1   2 226.365 6.79990  16
   1   1   2 236.945 7.42095  15
  -3  -1  -2 159.042 6.82820  10
  -3  -1  -2 156.160 5.23071  11
   3  -1   2 158.554 5.30739   1
  -3  -1  -2 161.462 6.53040   3
  -3  -1  -2 165.059 5.35100  15
   3  -1   2 159.443 5.77665  13
   3  -1   2 164.798 5.45083  16
  -3  -1  -2 165.026 6.06583  14
  -3  -1  -2 163.264 6.17570   2
   3   1   2 168.892 5.62627  15
  -3   1  -2 154.871 4.99754   6
   3   1   2 160.334 5.69196  16
   3   1   2 162.088 5.82626  13
  -3   1  -2 152.365 6.62736  14
  -3   1  -2 153.829 6.65304   3
   3   1   2 161.229 4.84156  12
  -3   1  -2 149.281 5.20929  11
  -3   1  -2 160.676 5.51385   9
   3   1   2 155.797 5.48651   1
   5  -1   2 471.904 14.2055   1
  -5  -1  -2 471.169 16.4733   3
  -5  -1  -2 477.106 15.1120   2
  -5  -1  -2 457.178 15.3506  14
   5  -1   2 461.008 14.3308  16
  -5  -1  -2 454.029 13.9553   9
   5  -1   2 486.426 14.9790  13
   5   1   2 474.153 14.6440  16
  -5   1  -2 466.926 16.8652   3
   5   1   2 474.012 14.3539   1
  -5   1  -2 442.694 14.0374   9
  -5   1  -2 475.102 16.4883  14
   5   1   2 469.353 14.8696  13
   7  -1   2 5.18949 1.71551   1
  -7  -1  -2 5.36729 1.86574   2
  -7  -1  -2 2.49200 2.24683   3
   7  -1   2 3.56109 1.62612  16
  -7  -1  -2 1.67742 0.83726   9
   7  -1   2 3.40186 1.65489  13
  -7   1  -2 3.68095 2.01386   3
  -7   1  -2 4.35089 2.25918  14
   7   1   2 6.00571 2.16511  13
   7   1   2 4.09653 1.80796  16
   7   1   2 6.00351 1.93642   1
  -7   1  -2 4.96212 1.46803   9
   9  -1   2 178.041 8.49015   1
   9  -1   2 169.543 9.39323  13
   9  -1   2 173.656 8.69525  16
  -9  -1  -2 208.885 12.5676   3
  -9   1  -2 203.008 12.8082   3
  -9   1  -2 162.226 7.47901   9
   9   1   2 169.719 9.20519  13
   9   1   2 161.027 8.55720  16
   9   1   2 171.878 8.46465   1
 -12  -2   2 798.564 31.6474   3
  12  -2  -2 765.779 27.3515  13
  12  -2  -2 786.106 26.7986   1
 -12   2   2 815.612 31.8650   3
  12   2  -2 848.877 27.4080   1
  12   2  -2 738.513 26.5559  13
 -12   2   2 835.514 33.1910  14
 -10  -2   2 121.555 9.50406   3
  10  -2  -2 126.597 7.62257   1
  10  -2  -2 111.147 7.05182  16
  10   2  -2 112.887 7.38599  16
 -10   2   2 137.635 10.1211   3
  10   2  -2 114.170 6.37744  12
 -10   2   2 138.629 10.9115  14
  10   2  -2 117.146 7.18659  13
  10   2  -2 123.994 7.57435   1
  -8  -2   2 1444.57 44.2493   3
  -8  -2   2 1478.21 43.2180  10
   8  -2  -2 1441.47 41.4916  16
   8  -2  -2 1481.34 40.5187  12
   8  -2  -2 1439.39 41.5898   1
  -8  -2   2 1482.41 44.1569  14
  -8   2   2 1537.73 46.7627  14
   8   2  -2 1433.16 41.2331   1
  -8   2   2 1385.77 39.2932   9
   8   2  -2 1458.89 40.5329  12
  -8   2   2 1449.49 44.7124   3
   8   2  -2 1445.65 41.6396  16
   6  -2  -2 21.9418 2.50536  16
  -6  -2   2 25.6152 2.44429   7
  -6  -2   2 25.2194 3.14439  10
   6  -2  -2 23.6715 2.10164  12
   6  -2  -2 21.4127 1.96205   5
  -6  -2   2 22.9291 1.62376   2
   6  -2  -2 24.1878 2.05989  15
  -6  -2   2 23.9871 3.07402  14
  -6   2   2 25.7552 3.02775   3
  -6   2   2 21.9635 1.61332   9
   6   2  -2 21.7647 2.02032  12
  -6   2   2 22.4818 2.88649   8
   6   2  -2 24.0451 2.57193   1
   6   2  -2 21.1723 1.54107   5
  -6   2   2 24.4954 3.72580  14
   6   2  -2 28.1919 2.68785  16
   4  -2  -2 3120.37 83.8217  15
  -4  -2   2 2999.73 79.9480  10
  -4  -2   2 2935.09 78.8158   7
   4  -2  -2 2986.22 79.4364  11
  -4  -2   2 2887.82 79.3235   2
  -4   2   2 3050.35 79.2493   9
  -4   2   2 3076.56 80.0577   3
   4   2  -2 3088.98 78.5011  12
  -4   2   2 2848.14 80.7138  14
   4   2  -2 3035.86 78.6202  16
   4   2  -2 3023.34 78.0890   5
  -4   2   2 3112.51 79.4894   8
  -4   2   2 2923.99 78.2518   6
   4   2  -2 3107.38 78.5359   1
  -2  -2   2 400.515 11.7265  10
   2  -2  -2 418.035 11.2898  11
   2  -2  -2 408.373 11.8289  15
  -2  -2   2 380.280 11.0436   7
  -2  -2   2 375.846 10.5239   4
   2  -2  -2 407.811 10.8812   2
  -2   2   2 386.238 11.7460  15
   2   2  -2 382.472 10.6066  16
  -2   2   2 358.539 11.7506  14
  -2   2   2 367.377 10.5310   4
   2   2  -2 382.182 10.5395   1
   2   2  -2 376.681 10.7656  12
  -2   2   2 363.973 11.1146   3
   2   2  -2 371.641 10.8027   5
  -2   2   2 378.474 10.6483   6
  -2   2   2 368.686 11.3893   8
   0  -2  -2 5899.74 184.698  11
   0  -2   2 7343.53 182.102   4
   0  -2  -2 6113.57 185.759   2
   0  -2  -2 5990.28 189.318  15
   0  -2   2 6987.41 184.474   7
   0   2  -2 6525.30 184.287   3
   0   2  -2 7002.65 183.539   5
   0   2  -2 7096.21 181.944  12
   0   2   2 7787.01 183.866  13
   0   2   2 7900.70 183.723  16
   0   2   2 7773.75 181.144   4
   0   2  -2 7219.62 185.006   8
   0   2   2 6102.89 187.234  15
   0   2  -2 7715.81 183.130   9
  -2  -2  -2 3175.33 90.5816  15
  -2  -2  -2 3123.33 87.0967   2
   2  -2   2 3617.27 87.9123  13
   2  -2   2 3511.32 89.1723  16
   2  -2   2 3643.64 89.2700   1
  -2  -2  -2 3113.74 87.9577  11
  -2  -2  -2 2875.38 87.3786  10
  -2   2  -2 3516.32 86.3180   9
  -2   2  -2 3429.78 89.3117   8
  -2   2  -2 3288.76 91.0833  14
   2   2   2 3510.14 90.0865  16
   2   2   2 3313.65 87.8780  13
   2   2   2 3493.97 89.1334   1
   2   2   2 3111.66 89.6623  15
   2   2   2 3421.72 88.3727  12
  -2   2  -2 3179.83 90.6073   3
  -2   2  -2 3302.53 85.8395   6
   4  -2   2 3605.71 88.8934  16
  -4  -2  -2 3191.59 91.4150  10
   4  -2   2 3775.51 89.6643  13
  -4  -2  -2 3275.88 90.8674  15
  -4  -2  -2 3296.20 90.0627   2
  -4  -2  -2 3305.79 90.9660   3
  -4  -2  -2 3323.09 88.3258  11
   4  -2   2 3586.70 88.7215   1
  -4  -2  -2 3348.52 89.3269  14
  -4   2  -2 3292.22 88.3669   6
   4   2   2 3540.43 89.4528  16
  -4   2  -2 3418.67 88.9737   9
  -4   2  -2 3374.70 91.5952  14
   4   2   2 3405.30 89.4075  13
   4   2   2 3535.40 89.1451   1
  -4   2  -2 3317.07 91.6229   3
   4   2   2 3385.30 88.1554  12
  -6  -2  -2 823.987 24.4992   9
   6  -2   2 940.162 26.2313  13
  -6  -2  -2 889.635 28.2365   3
   6  -2   2 869.747 25.2400  16
  -6  -2  -2 869.116 26.1858   2
   6  -2   2 871.808 24.9822   1
   6   2   2 841.112 25.6057  16
  -6   2  -2 869.057 28.5638  14
   6   2   2 896.846 25.9920  13
  -6   2  -2 867.930 28.8981   3
   6   2   2 844.587 25.2169   1
  -6   2  -2 855.316 24.9717   9
   8  -2   2 428.367 15.3917  16
   8  -2   2 453.089 15.3501   1
   8  -2   2 459.185 16.6563  13
  -8  -2  -2 495.941 20.0021   3
  -8  -2  -2 461.462 16.2331   2
   8   2   2 432.009 15.4704   1
  -8   2  -2 487.143 20.4244   3
   8   2   2 421.401 15.7296  16
  -8   2  -2 436.661 14.8685   9
   8   2   2 442.618 16.0770  13
  -8   2  -2 467.444 19.4303  14
  10  -2   2 102.210 7.25105  13
 -10  -2  -2 124.384 10.2489   3
 -10   2  -2 119.352 10.0719   3
  10   2   2 108.103 7.68044  13
  10   2   2 110.376 7.15109   1
  11  -3  -2 64.9071 6.18118   1
 -11  -3   2 62.4805 7.59373   3
 -11   3   2 66.6477 7.50817   3
  11   3  -2 61.4053 5.73191  13
  11   3  -2 59.8473 6.11138   1
 -11   3   2 67.5783 8.64765  14
   9  -3  -2 23.4879 2.99020  12
  -9  -3   2 14.4946 3.89658   3
  -9  -3   2 23.0412 4.14031  10
   9  -3  -2 21.6451 3.45789  16
   9  -3  -2 20.6008 3.40193   1
  -9   3   2 20.2711 2.31669   9
   9   3  -2 20.9145 3.12576  13
   9   3  -2 22.2004 3.46962   1
  -9   3   2 16.3146 4.09688   3
   9   3  -2 26.5343 3.86009  16
   9   3  -2 22.0617 3.08701  12
  -9   3   2 22.3669 4.93035  14
   7  -3  -2 144.448 5.90434   5
  -7  -3   2 146.688 7.95140  10
   7  -3  -2 150.113 6.82710  16
   7  -3  -2 140.128 6.12438  12
  -7  -3   2 159.043 8.06620  14
  -7   3   2 141.074 8.27665   3
  -7   3   2 146.072 9.46787  14
  -7   3   2 134.483 7.50113   8
  -7   3   2 142.342 5.62055   9
   7   3  -2 139.808 6.63361  16
   7   3  -2 143.888 6.47180   1
   7   3  -2 137.335 6.09555  12
  -5  -3   2 92.3061 4.45832   7
   5  -3  -2 92.3195 4.47836  15
  -5  -3   2 88.1704 5.62798  10
  -5  -3   2 86.0591 4.05079   2
   5   3  -2 95.2896 3.62921   5
  -5   3   2 87.1172 5.78527  14
  -5   3   2 85.1985 3.69227   9
  -5   3   2 85.6589 5.10608   3
   5   3  -2 90.0341 4.26119  16
  -5   3   2 87.1752 4.92318   8
  -5   3   2 90.9971 4.02501   6
   5   3  -2 85.2771 4.05308   1
   5   3  -2 88.3181 4.03157  12
   3  -3  -2 60.7631 3.35933  15
  -3  -3   2 61.4879 3.10836   7
  -3  -3   2 68.3771 3.97903  10
  -3  -3   2 58.2984 2.90329   2
   3   3  -2 58.0039 2.58358   1
  -3   3   2 54.0351 2.62709   6
  -3   3   2 56.4280 3.29868   3
  -3   3   2 56.8129 2.62454   9
   3   3  -2 73.1675 2.85213   5
  -3   3   2 53.0605 3.22525   8
   3   3  -2 55.3063 2.70795  12
   3   3  -2 57.6273 2.61821  16
  -3   3   2 53.1055 3.64790  14
  -1  -3   2 1424.09 37.8375   4
  -1  -3   2 1420.87 38.5784   7
   1  -3  -2 1496.61 39.6102  15
   1  -3  -2 1568.39 39.1883   2
   1  -3  -2 1492.06 38.5382  10
  -1  -3   2 1384.20 39.6414  10
   1  -3  -2 1469.67 38.9628  11
   1   3  -2 1451.53 38.3983   5
   1   3  -2 1451.08 37.8394   9
  -1   3   2 1472.94 37.9696   6
  -1   3   2 1477.74 38.2277  13
  -1   3   2 1502.06 38.2776   1
   1   3  -2 1416.84 38.3465  16
   1   3  -2 1473.23 38.1561  12
  -1   3   2 1383.44 38.6894  14
  -1   3   2 1435.13 37.7106   4
  -1  -3  -2 335.852 10.8887   2
  -1  -3  -2 319.661 10.1729  11
   1  -3   2 319.916 8.92409  13
  -1  -3  -2 320.240 10.5183  15
  -1  -3  -2 334.605 10.6952  10
   1  -3   2 311.351 9.14623   4
   1   3   2 310.842 8.76600   4
  -1   3  -2 315.889 9.24533   6
  -1   3  -2 316.074 9.33924   9
  -1   3  -2 327.737 10.6180   3
  -1   3  -2 307.022 9.60482   8
  -1   3  -2 318.294 10.8809  14
   1   3   2 302.676 8.70796   6
   1   3   2 312.223 9.32358  13
   1   3   2 321.666 9.54634  16
   1   3   2 318.611 9.36076   1
   3  -3   2 9.13040 1.09117   1
  -3  -3  -2 11.5189 1.58793  15
  -3  -3  -2 9.26117 1.42183  11
  -3  -3  -2 9.60084 1.84067   2
  -3  -3  -2 7.35472 1.78442  10
   3  -3   2 6.02103 1.14847  13
   3  -3   2 8.40074 1.03668  16
  -3   3  -2 7.29492 1.42094   8
  -3   3  -2 13.8655 2.22560   3
   3   3   2 7.07438 1.15530  13
  -3   3  -2 6.36327 0.94350   6
  -3   3  -2 7.68637 1.77220  14
   3   3   2 5.79582 1.06792   1
   3   3   2 6.03177 1.32497  16
  -3   3  -2 6.82993 1.10897   9
   3   3   2 6.50282 0.90417  12
   5  -3   2 4.09210 1.13818   1
  -5  -3  -2 4.51214 1.81859   3
  -5  -3  -2 2.12685 1.47658   2
   5  -3   2 5.51806 1.30745  16
  -5  -3  -2 2.87785 1.67102  10
   5   3   2 3.20592 1.17672  16
  -5   3  -2 4.71980 2.09987  14
   5   3   2 3.79786 1.40401   1
   5   3   2 4.92411 1.53002  13
  -5   3  -2 2.76393 1.78178   3
  -5   3  -2 8.07204 1.41982   6
   5   3   2 5.51608 1.07492  12
  -5   3  -2 4.24271 1.10170   9
   7  -3   2 150.298 7.60537  13
  -7  -3  -2 163.354 9.48336   3
   7  -3   2 145.133 6.78917  16
  -7  -3  -2 141.897 7.47015   2
   7  -3   2 154.470 6.76962   1
  -7   3  -2 142.430 9.55537   3
   7   3   2 139.737 7.02624  16
   7   3   2 137.141 6.97186  13
  -7   3  -2 147.337 6.59261   9
   7   3   2 138.793 6.77299   1
  -7   3  -2 152.266 9.80845  14
  -9  -3  -2 1.66122 2.63187   3
   9  -3   2 2.27418 2.26724  13
  -9   3  -2 1.10960 1.53536   9
   9   3   2 1.84299 2.11769   1
  -9   3  -2 12.5893 4.33540  14
  -9   3  -2 1.95737 2.26652   3
   9   3   2 -0.1098 1.83828  16
   9   3   2 -0.1087 2.12009  13
 -10  -4   2 10.4367 3.12069  10
 -10  -4   2 12.2703 3.56488   3
  10  -4  -2 14.0286 2.79143   1
  10  -4  -2 12.5053 2.96820  16
  10   4  -2 12.9461 2.79619   1
  10   4  -2 11.1867 2.26129  12
  10   4  -2 7.71371 2.86339  16
 -10   4   2 12.1489 3.51132   3
  10   4  -2 17.4198 2.91702  13
 -10   4   2 21.1835 5.88797  14
  -8  -4   2 2453.64 69.9543  10
   8  -4  -2 2522.21 67.4058  16
   8  -4  -2 2541.99 66.2690  12
   8   4  -2 2440.59 67.2652  16
  -8   4   2 2445.02 69.2333   8
  -8   4   2 2428.00 65.4630   9
  -8   4   2 2433.54 73.1817  14
   8   4  -2 2316.23 66.1646  13
  -8   4   2 2559.84 71.2265   3
   8   4  -2 2411.27 66.2721  12
   8   4  -2 2430.06 66.7685   1
   6  -4  -2 350.617 11.8515  15
  -6  -4   2 362.449 11.9979   7
  -6  -4   2 362.459 13.9297  10
  -6  -4   2 327.751 11.3299   2
  -6  -4   2 363.366 13.0181  14
  -6   4   2 338.827 13.7047   3
  -6   4   2 342.759 10.9883   9
   6   4  -2 316.134 10.8917  13
   6   4  -2 347.141 11.8761  16
   6   4  -2 343.601 11.4884   1
   6   4  -2 340.201 11.3925  12
  -6   4   2 326.736 12.9301   8
   6   4  -2 329.817 10.4721   5
  -6   4   2 355.980 11.3137   6
  -6   4   2 340.743 14.9515  14
  -4  -4   2 5825.75 173.919   2
  -4  -4   2 6364.88 176.940   7
  -4  -4   2 6005.42 177.619  10
   4  -4  -2 6883.52 186.779  15
   4   4  -2 6948.47 175.694   1
   4   4  -2 6560.08 176.163  13
   4   4  -2 6530.53 177.539   5
  -4   4   2 6438.85 174.461  14
   4   4  -2 6969.82 179.572  12
  -4   4   2 6851.65 176.876   6
  -4   4   2 6861.63 179.198   9
   4   4  -2 6953.10 179.194  16
  -4   4   2 7016.81 187.359   3
  -4   4   2 6951.07 183.818   8
   2  -4  -2 563.764 15.4633  10
  -2  -4   2 524.967 15.3518   7
   2  -4  -2 557.775 15.7906   2
   2  -4  -2 544.761 16.4358  15
  -2  -4   2 493.323 14.2633   4
  -2  -4   2 520.888 16.6841  10
   2   4  -2 517.159 15.1508   5
   2   4  -2 523.938 14.6055   1
  -2   4   2 549.226 14.9288   6
  -2   4   2 546.376 16.3459   8
  -2   4   2 530.872 16.4179  14
   2   4  -2 535.447 14.7903  16
   2   4  -2 527.030 15.0717  12
  -2   4   2 535.220 15.9645   3
   2   4  -2 520.386 14.3399   9
   0  -4  -2 4595.43 132.611  10
   0  -4  -2 4640.22 131.622   2
   0  -4  -2 4638.72 135.035  15
   0  -4   2 5142.19 129.725   7
   0  -4   2 5183.35 129.820   4
   0  -4  -2 4688.28 130.640  11
   0   4  -2 4801.01 131.753   8
   0   4   2 5116.96 131.428  13
   0   4  -2 4977.11 130.838   9
   0   4   2 5142.07 131.158   1
   0   4  -2 4926.23 130.391  12
   0   4   2 5187.92 133.586  16
   0   4   2 5106.64 130.299   6
   0   4  -2 4937.51 131.117   6
  -2  -4  -2 17.2383 2.58224   2
   2  -4   2 16.4844 1.30279  13
  -2  -4  -2 18.7722 2.41795  15
  -2  -4  -2 19.0320 2.32928  11
  -2  -4  -2 19.4728 2.91062  10
  -2   4  -2 14.5288 2.20881   3
   2   4   2 15.1962 1.07513   4
   2   4   2 16.1951 0.98268   6
   2   4   2 16.3618 1.54800  13
  -2   4  -2 17.1664 1.50875   6
  -2   4  -2 15.6160 1.65614   8
   2   4   2 15.9736 1.46623   1
  -2   4  -2 16.5389 2.55828  14
   2   4   2 15.2168 1.54674  16
  -4  -4  -2 1900.82 52.9288  10
   4  -4   2 1832.70 49.0022   1
   4  -4   2 1860.83 49.0077  16
  -4  -4  -2 1719.99 49.2654  11
  -4  -4  -2 1813.31 51.2488   2
   4  -4   2 1943.43 49.7574  13
  -4   4  -2 1845.23 53.0770  14
   4   4   2 1866.25 49.8130  13
   4   4   2 1875.00 50.1582  16
  -4   4  -2 1835.48 49.5673   9
   4   4   2 1843.97 49.0339  12
  -4   4  -2 1867.54 52.8784   3
  -4   4  -2 1853.00 49.2632   6
  -4   4  -2 1834.30 51.1744   8
   4   4   2 1843.18 49.7364   1
   6  -4   2 55.8440 3.64576  16
  -6  -4  -2 59.6939 4.68201   2
  -6  -4  -2 70.5356 5.83465   3
   6  -4   2 42.0786 3.51444   1
  -6  -4  -2 61.5048 6.13842  10
  -6   4  -2 58.8565 6.06720  14
   6   4   2 54.2935 3.85915  13
  -6   4  -2 58.0808 3.72662   9
   6   4   2 51.2634 3.91055  16
   6   4   2 57.3648 3.87469   1
  -6   4  -2 59.6620 5.73453   3
   6   4   2 53.3996 3.22964  12
  -6   4  -2 63.8602 3.72105   6
  -8  -4  -2 1065.65 34.3556   3
  -8  -4  -2 942.757 30.6553   2
   8  -4   2 1021.87 30.9767  13
  -8   4  -2 988.509 29.4162   9
  -8   4  -2 1010.82 35.8683  14
   8   4   2 970.908 30.4475  13
  -8   4  -2 1017.84 35.7298   3
   8   4   2 983.353 30.1237   1
   8   4   2 983.444 30.6391  16
  10  -4   2 139.677 8.78310  13
 -10   4  -2 136.429 7.14476   9
  10   4   2 131.281 8.32135  13
 -10   4  -2 133.467 11.6173  14
  10   4   2 136.389 8.06363   1
 -10   4  -2 150.982 11.9918   3
  11  -5  -2 68.9952 6.17420   1
 -11  -5   2 76.4488 7.57826  10
 -11   5   2 74.1601 7.95812   3
  11   5  -2 71.0236 6.23042   1
 -11   5   2 66.3395 8.57145  14
   9  -5  -2 500.277 18.4865   1
   9  -5  -2 499.558 17.0960  12
   9  -5  -2 518.837 18.3180  16
  -9  -5   2 531.277 20.9122  10
   9   5  -2 538.961 17.4955  12
  -9   5   2 520.622 21.3926   3
  -9   5   2 516.180 23.7989  14
   9   5  -2 518.145 17.9378   1
   9   5  -2 505.947 17.3006  13
  -9   5   2 510.598 20.5970   8
  -9   5   2 514.054 16.6219   9
   9   5  -2 500.322 18.2815  16
  -7  -5   2 283.178 13.3148  10
  -7  -5   2 298.411 10.9944   7
   7  -5  -2 291.098 10.4601   5
   7   5  -2 287.563 10.6273  12
  -7   5   2 282.433 10.0795   9
  -7   5   2 288.085 14.6736  14
  -7   5   2 285.780 12.7020   8
   7   5  -2 293.504 10.8677   1
   7   5  -2 279.186 10.1074  13
  -7   5   2 293.549 13.2007   3
   7   5  -2 283.931 11.1074  16
  -7   5   2 297.987 10.5153   6
   5  -5  -2 578.719 18.1204  15
  -5  -5   2 574.795 19.6235  10
  -5  -5   2 582.965 17.3402   7
  -5  -5   2 541.036 17.4298   2
  -5   5   2 540.960 18.6389   8
  -5   5   2 569.348 20.4317  14
  -5   5   2 569.467 16.6651   9
   5   5  -2 532.844 15.9353  13
   5   5  -2 551.668 16.9914  16
  -5   5   2 543.689 18.9890   3
   5   5  -2 544.146 16.6487   1
  -5   5   2 571.032 16.6859   6
   5   5  -2 557.302 16.8690  12
   3  -5  -2 1443.50 39.0120  15
   3  -5  -2 1421.53 37.8599  10
  -3  -5   2 1369.09 39.5546  10
   3  -5  -2 1395.35 37.7834   2
  -3  -5   2 1394.74 37.6502   7
  -3  -5   2 1299.76 38.1649   2
   3   5  -2 1390.11 37.1758  16
   3   5  -2 1386.49 36.9168   1
   3   5  -2 1372.51 37.3182  12
  -3   5   2 1396.97 38.9482   3
  -3   5   2 1400.73 37.1193   6
  -3   5   2 1356.54 39.5887  14
  -3   5   2 1406.93 37.3703   9
  -3   5   2 1389.21 39.0106   8
   3   5  -2 1332.51 35.9539  13
  -1  -5   2 58.5508 2.21961   4
   1  -5  -2 60.4563 3.49251  10
  -1  -5   2 62.0955 4.11154  10
  -1  -5   2 59.0973 3.15889   7
   1  -5  -2 64.4686 3.88683   2
   1  -5  -2 62.8066 3.91826  15
  -1   5   2 58.7503 2.72823  13
   1   5  -2 60.5343 2.59343   9
  -1   5   2 57.0844 3.72573   8
   1   5  -2 56.9240 2.43366  16
   1   5  -2 58.8825 2.77846  12
   1   5  -2 55.4991 2.81216   8
  -1   5   2 60.3693 2.62222   6
   1   5  -2 58.5756 2.37520   1
  -1   5   2 64.9521 3.23221  14
  -1  -5  -2 860.882 24.6050  11
   1  -5   2 833.866 23.8581   7
  -1  -5  -2 876.151 25.3975  10
  -1  -5  -2 850.445 25.2569   2
  -1  -5  -2 857.781 25.1587  15
   1  -5   2 842.799 22.8057   4
  -1   5  -2 829.551 23.2827   9
  -1   5  -2 825.422 23.9512   8
   1   5   2 853.663 22.6865   6
   1   5   2 843.880 23.4240   1
  -1   5  -2 849.666 23.4240   6
   1   5   2 832.885 23.1327  13
   1   5   2 855.130 23.7029  16
  -3  -5  -2 239.970 9.02449  15
   3  -5   2 194.128 6.65878  16
  -3  -5  -2 240.181 10.0512  10
  -3  -5  -2 228.345 9.47658   2
   3  -5   2 196.630 6.96727  13
  -3  -5  -2 221.004 8.34916  11
   3   5   2 196.692 7.43330   1
   3   5   2 196.086 7.62720  16
   3   5   2 205.953 7.19660  12
  -3   5  -2 216.111 9.91645  14
  -3   5  -2 203.314 9.43989   3
  -3   5  -2 195.496 8.27863   8
  -3   5  -2 222.542 7.44769   6
  -3   5  -2 211.514 7.51860   9
   3   5   2 187.297 6.29608   4
   3   5   2 205.679 7.36362  13
  -5  -5  -2 15.4108 3.30233  10
   5  -5   2 20.3512 2.50817  13
  -5  -5  -2 25.2034 3.60035   2
   5   5   2 21.1059 2.58912  13
  -5   5  -2 18.1077 2.21772   6
  -5   5  -2 17.7791 2.31046   9
  -5   5  -2 16.2457 3.56870  14
  -5   5  -2 18.6655 2.91568   8
   5   5   2 18.5021 2.51591   1
   5   5   2 17.9330 2.09674  12
   5   5   2 17.6905 2.40454  16
  -5   5  -2 20.0299 3.77177   3
  -7  -5  -2 182.204 9.24989   2
  -7  -5  -2 200.477 11.9393  10
   7  -5   2 182.693 8.67368  13
  -7  -5  -2 197.060 10.5849   3
   7   5   2 183.147 8.87030  16
  -7   5  -2 183.067 8.20327   9
  -7   5  -2 190.461 7.89661   6
   7   5   2 186.134 8.60710   1
  -7   5  -2 200.733 12.2455  14
   7   5   2 201.255 8.88311  13
  -7   5  -2 191.451 11.8217   3
   9  -5   2 1.04699 1.40606  13
   9   5   2 -1.8024 1.87495  13
  -9   5  -2 2.21673 2.89854   3
   9   5   2 1.12977 2.09934   1
  -9   5  -2 0.69277 2.17043  14
  -9   5  -2 1.76487 1.77328   9
 -10  -6   2 960.486 33.8841   3
  10  -6  -2 924.298 29.9961   1
 -10  -6   2 933.212 33.1986  10
 -10   6   2 978.322 34.8346   3
  10   6  -2 938.161 29.7090   1
  10   6  -2 913.355 28.7551  12
 -10   6   2 956.670 37.6408  14
 -10   6   2 919.381 28.0959   9
   8  -6  -2 8.20139 2.30095  16
  -8   6   2 10.5349 2.14061   6
  -8   6   2 12.7448 3.30336   3
   8   6  -2 11.9425 2.34035   1
  -8   6   2 14.4713 4.64671  14
  -8   6   2 29.8738 4.57239   8
   8   6  -2 12.2890 2.47971  16
  -8   6   2 15.6101 2.48119   9
   8   6  -2 10.8066 2.13509  12
  -6  -6   2 1661.36 49.5217  10
   6  -6  -2 1674.54 47.1212  15
  -6  -6   2 1577.02 46.4816   2
  -6  -6   2 1661.88 46.0969   7
  -6   6   2 1741.64 49.4632   3
  -6   6   2 1643.86 48.4361   8
   6   6  -2 1666.23 45.6368   1
  -6   6   2 1699.96 45.4706   6
  -6   6   2 1612.04 50.9888  14
  -6   6   2 1681.91 45.4471   9
   6   6  -2 1655.49 46.0084  16
   6   6  -2 1613.81 45.6160  12
  -4  -6   2 7.29985 2.32251  10
  -4  -6   2 9.28920 2.02809   7
  -4   6   2 15.2533 1.94920   9
   4   6  -2 9.96318 1.54296   1
  -4   6   2 9.23963 2.24867   3
  -4   6   2 10.2371 1.68029   6
   4   6  -2 8.92951 1.62007  16
  -4   6   2 15.6457 2.76852   8
  -4   6   2 11.5085 2.62211  14
   4   6  -2 10.9277 1.80952  12
  -2  -6   2 3453.70 96.3974  10
  -2  -6   2 3553.77 94.0475   7
   2  -6  -2 3734.90 95.9914  15
   2  -6  -2 3845.13 95.1786   2
   2  -6  -2 3746.39 94.7041  10
   2   6  -2 3640.79 93.8157  12
  -2   6   2 3458.99 95.2573  14
   2   6  -2 3189.91 93.7445   8
  -2   6   2 3681.31 93.5058   6
   2   6  -2 3506.33 93.0463   1
   2   6  -2 3569.03 93.3103  16
  -2   6   2 3758.88 95.9660   8
   0  -6  -2 348.797 12.3761  15
   0  -6   2 317.229 9.44892   4
   0  -6   2 337.184 12.8406  10
   0  -6  -2 352.164 12.3537   2
   0  -6   2 340.909 10.9336   7
   0  -6  -2 371.581 12.3120  10
   0   6  -2 308.449 10.7570   8
   0   6  -2 341.134 10.6223   6
   0   6  -2 330.901 10.2891   9
   0   6   2 331.020 10.4950   1
   0   6   2 324.586 9.98666   6
   0   6   2 332.243 10.1628  13
   2  -6   2 4663.30 116.091   7
  -2  -6  -2 4100.57 116.988  15
   2  -6   2 4528.17 114.556   4
  -2  -6  -2 4113.59 116.353  11
  -2  -6  -2 4258.31 117.957  10
  -2  -6  -2 4194.00 117.700   2
  -2   6  -2 4499.73 118.388   3
   2   6   2 4488.83 114.862  13
  -2   6  -2 4465.49 115.232   6
  -2   6  -2 4670.04 115.335   9
  -2   6  -2 4470.28 116.518   8
   2   6   2 4417.42 114.160   6
   2   6   2 4586.80 115.754  16
   2   6   2 4549.77 115.368   1
  -4  -6  -2 259.540 9.85705  11
  -4  -6  -2 272.123 11.5043   2
  -4  -6  -2 279.013 12.4411  10
   4  -6   2 241.598 8.69803  13
   4   6   2 260.040 9.02436  12
  -4   6  -2 256.213 9.25721   9
  -4   6  -2 258.989 9.17312   6
   4   6   2 256.344 9.79200  16
  -4   6  -2 252.213 10.6236   8
   4   6   2 249.662 9.07811  13
  -4   6  -2 250.705 11.8946   3
  -4   6  -2 261.706 12.7152  14
   4   6   2 262.393 9.51164   1
  -6  -6  -2 1835.37 53.9194  10
   6  -6   2 1753.55 48.7488  13
  -6  -6  -2 1653.51 50.5084   2
   6   6   2 1787.27 49.6730  16
   6   6   2 1783.50 48.1065  12
  -6   6  -2 1743.11 48.6999   9
   6   6   2 1774.20 49.1074   1
  -6   6  -2 1812.83 48.5002   6
  -6   6  -2 1725.80 53.8429   3
   6   6   2 1723.28 48.7106  13
  -6   6  -2 1777.07 55.0965  14
  -8  -6  -2 29.4902 5.19276  10
  -8  -6  -2 28.7000 4.13724   2
   8  -6   2 23.7468 3.51008  13
  -8   6  -2 24.3989 5.35442   3
  -8   6  -2 23.7054 5.35645  14
  -8   6  -2 19.8192 3.10934   9
  -8   6  -2 25.0178 2.90891   6
   8   6   2 25.9015 3.69386   1
   8   6   2 20.9041 3.80654  16
   9  -7  -2 19.5517 3.38661  16
  -9  -7   2 18.8914 4.83022  10
  -9   7   2 21.9640 4.69989   8
   9   7  -2 26.6861 3.73190  12
  -9   7   2 27.7764 3.56220   9
   9   7  -2 23.7874 3.82932  16
   9   7  -2 27.1894 3.64715   1
  -9   7   2 26.1484 6.49207  14
  -9   7   2 28.9047 5.09446   3
  -7  -7   2 14.3633 2.97888   2
  -7  -7   2 11.0761 4.15331  10
  -7  -7   2 7.23358 2.28441   7
   7   7  -2 11.9023 2.55027  16
  -7   7   2 11.6337 2.39423   9
  -7   7   2 6.37702 2.85962   3
  -7   7   2 10.8183 3.69091  14
   7   7  -2 12.4149 2.56716  12
  -7   7   2 9.40727 3.28103   8
  -7   7   2 8.99639 2.31631   6
   7   7  -2 14.5419 2.43035   1
   5  -7  -2 3.45029 1.63817  15
  -5  -7   2 3.93441 2.32787   2
  -5  -7   2 2.64824 1.64315   7
  -5  -7   2 -1.9861 1.61496  10
   5   7  -2 -0.1896 1.26659  12
  -5   7   2 3.56693 1.95967   3
  -5   7   2 2.04955 1.05863   6
  -5   7   2 -0.5930 0.98395   8
  -5   7   2 -0.3620 1.67817  14
   5   7  -2 -0.5470 1.08804   1
   5   7  -2 1.20971 1.30088  16
  -5   7   2 0.30165 0.88673   9
  -3  -7   2 82.7072 5.14268   2
   3  -7  -2 84.1350 5.61684  15
   3  -7  -2 82.6519 4.74049  10
  -3  -7   2 81.8869 4.47044   7
  -3  -7   2 78.3819 6.29490  10
   3  -7  -2 80.3212 4.79791   2
  -3   7   2 78.2800 4.07403   6
   3   7  -2 77.3059 3.68763   1
   3   7  -2 78.5310 3.97223  16
  -3   7   2 78.6996 5.49894  14
   3   7  -2 83.9145 4.40377  12
  -3   7   2 79.9655 5.52575   8
   1  -7  -2 21.6453 2.88688  15
  -1  -7   2 17.1199 3.21690  10
   1  -7  -2 21.0771 3.18051   2
   1  -7  -2 20.1166 2.75943  10
  -1   7   2 19.2433 2.94275   8
   1   7  -2 29.2179 2.49753   6
  -1   7   2 20.9881 1.78390   6
   1   7  -2 29.3037 2.14173   9
   1   7  -2 25.0809 2.27614  12
   1   7  -2 24.5885 1.74342   1
  -1   7   2 19.2405 2.28749  14
   1   7  -2 20.1897 2.06418   8
  -1  -7  -2 232.684 10.1619   2
   1  -7   2 215.899 8.20586   7
  -1  -7  -2 226.386 9.94185  10
  -1  -7  -2 223.327 9.16890  11
   1  -7   2 230.691 10.5162  10
  -1  -7  -2 218.285 9.49933  15
   1   7   2 212.150 7.33164  13
  -1   7  -2 221.228 7.80341   9
   1   7   2 208.870 7.80838   1
  -1   7  -2 200.662 8.40361   8
   1   7   2 206.286 7.09059   6
   1   7   2 221.828 8.13907  16
  -1   7  -2 214.488 7.91698   6
  -3  -7  -2 60.9803 4.90544  15
   3  -7   2 58.1869 4.08358   7
  -3  -7  -2 64.7996 6.09686  10
  -3  -7  -2 56.4515 4.67628  11
  -3  -7  -2 59.4268 6.07125   2
   3  -7   2 54.0502 3.10362   4
  -3   7  -2 58.8767 3.73609   9
   3   7   2 51.8417 3.75235   1
  -3   7  -2 54.4733 5.32826   3
  -3   7  -2 54.7594 4.42353   8
   3   7   2 57.9464 3.84807  16
   3   7   2 53.4408 3.26490  13
  -3   7  -2 60.1001 3.77951   6
  -5  -7  -2 54.1963 5.58848   2
  -5  -7  -2 64.2320 6.32952  10
   5  -7   2 50.3989 3.77476   4
  -5   7  -2 53.1362 4.89853   8
   5   7   2 53.2679 4.27819   1
   5   7   2 50.3491 4.11553  16
  -5   7  -2 52.1744 6.50991  14
  -5   7  -2 55.2788 5.68695   3
  -5   7  -2 47.9198 3.57362   6
  -5   7  -2 51.7709 3.80339   9
   5   7   2 51.8254 3.81764  12
   5   7   2 51.3696 3.76790  13
   7  -7   2 153.562 7.69239   4
  -7  -7  -2 145.917 8.76890   2
  -7  -7  -2 164.704 11.3002  10
  -7   7  -2 164.273 12.2860  14
  -7   7  -2 147.520 10.6369   3
   7   7   2 139.463 7.13976  13
   7   7   2 151.194 7.98965  16
   7   7   2 146.024 7.81725   1
  -7   7  -2 153.192 7.41005   6
  -7   7  -2 147.355 7.55430   9
 -10  -8   2 388.314 18.9630  10
 -10   8   2 441.717 20.6260   3
  10   8  -2 416.333 15.5945  12
 -10   8   2 415.594 14.9960   9
  10   8  -2 412.920 16.1961   1
 -10   8   2 435.479 19.9099   8
 -10   8   2 425.757 23.1916  14
  -8  -8   2 244.847 13.9859  10
  -8   8   2 242.604 13.4300   8
  -8   8   2 227.980 9.92710   9
   8   8  -2 230.261 10.3266   1
  -8   8   2 251.140 10.3154   6
  -8   8   2 222.771 14.9660  14
   8   8  -2 246.191 10.4918  12
   8   8  -2 222.471 10.4105  16
  -8   8   2 248.782 13.7594   3
  -6  -8   2 1279.06 36.2463   7
  -6  -8   2 1247.52 40.8986  10
   6  -8  -2 1257.16 36.5543   2
  -6  -8   2 1200.48 37.7838   2
   6  -8  -2 1281.00 38.6491  15
  -6   8   2 1267.64 35.8878   6
   6   8  -2 1293.58 36.5202  16
  -6   8   2 1338.85 40.1553   8
  -6   8   2 1273.78 40.0013   3
   6   8  -2 1234.18 35.8179   1
   6   8  -2 1239.91 36.2819  12
  -6   8   2 1260.29 36.0310   9
  -6   8   2 1189.89 41.6024  14
  -4  -8   2 586.618 19.9156   2
  -4  -8   2 616.028 22.1915  10
   4  -8  -2 566.175 19.0182   2
   4  -8  -2 591.083 20.6459  15
  -4  -8   2 614.264 18.3737   7
  -4   8   2 562.258 17.7218   6
   4   8  -2 580.060 17.5942   1
   4   8  -2 584.146 18.3276  12
  -4   8   2 587.528 20.7423   8
  -4   8   2 601.453 20.9426   3
   4   8  -2 571.973 17.9192  16
  -4   8   2 527.329 21.0018  14
  -2  -8   2 1668.22 45.7464   7
   2  -8  -2 1707.37 47.4613   2
   2  -8  -2 1708.60 48.6409  15
   2  -8  -2 1708.24 47.2719  10
  -2  -8   2 1736.19 49.7800  10
  -2  -8   2 1672.54 47.8793   2
   2   8  -2 1595.74 44.7921   1
  -2   8   2 1668.36 45.3073   6
  -2   8   2 1737.28 48.5934   8
   2   8  -2 1694.36 45.8759  12
  -2   8   2 1573.74 47.3391  14
   2   8  -2 1664.62 45.6423   6
   0  -8  -2 482.835 16.6654  10
   0  -8   2 479.476 17.8051  10
   0  -8   2 460.001 14.6867   7
   0  -8  -2 463.869 16.9643  15
   0  -8  -2 478.992 16.8858   2
   0   8  -2 467.502 14.3340   9
   0   8   2 459.011 14.4452   1
   0   8   2 467.841 16.6889   8
   0   8  -2 411.629 14.9532   8
   0   8   2 450.504 13.8815   6
   0   8  -2 454.744 14.6031   6
   2  -8   2 850.485 24.9753   7
  -2  -8  -2 836.533 25.8913  11
   2  -8   2 864.846 28.0472  10
  -2  -8  -2 857.405 27.6421   2
  -2  -8  -2 858.076 27.5052  10
  -2  -8  -2 818.934 26.6977  15
   2   8   2 826.748 24.3886   1
   2   8   2 807.981 24.6569  16
  -2   8  -2 794.397 25.7433   8
  -2   8  -2 821.417 24.2688   9
  -2   8  -2 840.316 24.4413   6
   4  -8   2 226.377 9.71754   7
  -4  -8  -2 230.033 11.4914   2
  -4  -8  -2 241.375 12.5659  10
   4   8   2 217.415 9.15257   1
  -4   8  -2 215.235 10.7400   8
   4   8   2 226.095 9.60837  16
  -4   8  -2 224.909 9.14134   9
  -4   8  -2 233.400 9.08514   6
  -4   8  -2 233.142 12.1947   3
  -6  -8  -2 412.242 18.1325  10
  -6  -8  -2 358.199 15.5867   2
  -6   8  -2 383.638 18.2078   3
  -6   8  -2 401.640 13.9311   6
  -6   8  -2 357.377 16.2905   8
   6   8   2 384.651 14.1721   1
   6   8   2 373.459 14.5361  16
  -6   8  -2 389.733 14.0990   9
  -8  -8  -2 182.535 10.1796   2
  -8  -8  -2 217.201 13.6861  10
  -8   8  -2 216.430 9.84732   9
  -8   8  -2 215.917 14.0665   3
   8   8   2 204.893 9.74306   1
  -9  -9   2 1.23087 3.59235  10
  -9   9   2 0.34808 2.93734   8
   9   9  -2 1.30551 2.13280  12
   9   9  -2 1.91650 2.33565   1
  -9   9   2 0.33570 2.12995   3
  -9   9   2 0.99005 3.38552  14
  -7  -9   2 6.60299 3.35299  10
  -7   9   2 7.69170 3.02250   8
   7   9  -2 7.87645 2.34350   1
  -7   9   2 11.9794 2.86730   6
  -7   9   2 6.47770 3.66766  14
  -7   9   2 9.52835 3.05470   3
   7   9  -2 8.28878 2.13679  12
  -7   9   2 8.39915 2.06544   9
   7   9  -2 7.50035 2.45632  16
  -5  -9   2 13.1649 3.54256   2
  -5  -9   2 14.5101 2.55290   7
  -5  -9   2 18.8988 4.93248  10
   5  -9  -2 16.1910 3.29295   2
   5   9  -2 20.7319 2.82180  12
   5   9  -2 16.3774 2.40840   1
  -5   9   2 14.0975 3.65491   8
  -5   9   2 14.4803 3.78610  14
  -5   9   2 15.5520 2.66922   6
   5   9  -2 13.8286 2.33393   6
   5   9  -2 15.9634 2.53954  16
  -3  -9   2 -0.0717 1.41099   7
   3  -9  -2 0.84001 2.09369  15
  -3  -9   2 1.90084 1.78128   2
   3  -9  -2 0.04525 1.42472   2
  -3  -9   2 4.27472 3.16129  10
  -3   9   2 1.19766 1.64849  14
   3   9  -2 1.05408 1.07470  16
   3   9  -2 1.39546 1.56572  12
  -3   9   2 1.16223 1.89933   8
   3   9  -2 -0.1234 0.84055   6
   3   9  -2 1.97481 0.89697   1
  -3   9   2 7.28001 1.81884   6
  -1  -9   2 91.6333 6.95685  10
  -1  -9   2 101.734 5.25387   7
   1  -9  -2 106.019 6.70257  10
   1  -9  -2 98.9450 6.74374  15
   1  -9  -2 110.898 6.79152   2
  -1  -9   2 110.506 6.92030   2
   1   9  -2 97.3263 5.21401   6
  -1   9   2 92.4634 6.69380   8
  -1   9   2 92.0492 4.78632   6
   1  -9   2 19.6529 2.58359   7
  -1  -9  -2 12.0352 3.18368  15
  -1  -9  -2 14.1568 3.30234   2
   1  -9   2 12.6643 3.43869  10
  -1  -9  -2 11.7029 2.90857  10
  -1   9  -2 8.90878 2.00545   6
  -1   9  -2 12.8585 2.18659   9
   1   9   2 22.0815 2.63335   1
   1   9   2 14.4628 3.19386   8
   1   9   2 14.1361 1.83011   6
  -3  -9  -2 71.2000 5.91972  11
   3  -9   2 60.7052 4.38867   7
  -3  -9  -2 61.0581 6.27759   2
  -3  -9  -2 70.4630 7.29107  10
   3  -9   2 57.0585 6.27177  10
  -3   9  -2 64.8064 4.21747   9
   3   9   2 59.8394 4.49602   1
   3   9   2 63.8383 4.75887  16
  -3   9  -2 59.7588 5.34508   8
  -3   9  -2 58.8360 4.42212   6
   5  -9   2 88.3201 5.92666   7
  -5  -9  -2 88.3896 7.26608   2
  -5  -9  -2 98.0326 8.19021  10
  -5   9  -2 92.7203 7.33049   8
   5   9   2 90.4677 5.88535   1
   5   9   2 84.3201 6.00296  16
  -5   9  -2 98.9749 5.61195   6
  -5   9  -2 84.7354 5.42377   9
  -7  -9  -2 10.7224 4.34494  10
  -7  -9  -2 8.79863 2.50844   2
   7  -9   2 13.8671 3.03839   7
  -7   9  -2 6.01910 2.47588   9
  -7   9  -2 7.05704 3.24859   3
   7   9   2 7.24893 2.59412   1
  -7   9  -2 6.04830 2.48967   6
  -8 -10   2 525.291 23.2910  10
   8  10  -2 535.427 18.7604  12
  -8  10   2 543.032 18.3674   6
  -8  10   2 525.511 22.4714   3
  -8  10   2 480.478 24.3617  14
   8  10  -2 488.384 18.0172   1
  -8  10   2 565.895 23.2781   8
  -6 -10   2 32.6853 4.87289   2
  -6 -10   2 40.1594 6.26077  10
  -6  10   2 33.9332 5.68238   8
   6  10  -2 29.2915 3.97077   6
   6  10  -2 35.1949 4.09848  12
  -6  10   2 38.3743 4.06121   6
   6  10  -2 35.6010 3.89774  16
   6  10  -2 35.7005 3.69467   1
  -6  10   2 37.9546 6.39380  14
  -4 -10   2 1053.02 33.6563   2
  -4 -10   2 1045.73 35.8019  10
   4 -10  -2 1067.66 32.4405   2
   4  10  -2 1006.21 29.7776   1
  -4  10   2 1042.80 34.2609   8
   4  10  -2 1066.73 31.0996  12
  -4  10   2 938.846 33.9442  14
   4  10  -2 1057.58 30.3920   6
  -4  10   2 1045.41 30.3738   6
   2 -10  -2 46.9769 4.94706   2
  -2 -10   2 47.1121 5.66308  10
  -2 -10   2 63.7543 5.98076   2
  -2  10   2 56.1458 5.28679   8
  -2  10   2 53.2661 3.95748   6
   2  10  -2 50.8817 4.04611   6
   0 -10  -2 1615.56 47.5714  11
   0 -10  -2 1615.03 48.5419   2
   0 -10   2 1615.78 47.9643   2
   0 -10   2 1664.52 49.8864  10
   0 -10  -2 1632.43 48.3090  10
   0  10  -2 1661.81 45.7181   6
   0  10   2 1632.42 44.7346   6
   0  10   2 1657.13 48.8967   8
   2 -10   2 54.7983 6.41738  10
  -2 -10  -2 59.5827 6.84807  10
  -2 -10  -2 55.2637 5.71578  11
  -2 -10  -2 51.9019 6.23039   2
  -2  10  -2 63.2555 4.29628   9
  -2  10  -2 49.5231 5.07666   8
   2  10   2 55.9000 5.79415   8
  -2  10  -2 59.5955 4.54949   6
   2  10   2 64.0462 4.58605   1
  -4 -10  -2 1463.34 46.1631  10
   4 -10   2 1529.79 46.6718  10
  -4 -10  -2 1403.29 45.1000   2
   4  10   2 1425.93 42.0746  16
  -4  10  -2 1454.12 41.4826   6
  -4  10  -2 1405.80 44.3556   8
   4  10   2 1429.70 41.5414   1
  -4  10  -2 1463.97 41.6752   9
  -6 -10  -2 17.5591 4.17176   2
  -6 -10  -2 19.7544 5.02523  10
   6 -10   2 25.2314 4.81532  10
  -6  10  -2 22.3897 3.56504   9
   6  10   2 22.4906 3.28518   1
  -6  10  -2 19.7091 3.36936   6
  -6  10  -2 20.3502 4.49711   8
  -7 -11   2 98.1352 10.3884  10
   7 -11  -2 86.9068 7.70847  11
   7  11  -2 100.900 6.19453   1
  -7  11   2 89.7377 8.34184   8
  -7  11   2 81.3869 8.69656  14
  -7  11   2 103.708 6.21779   6
   7  11  -2 98.4838 6.47469  12
   5 -11  -2 108.437 7.62424   2
  -5 -11   2 111.758 10.3711  10
  -5 -11   2 98.7540 8.00729   2
  -5  11   2 117.540 8.90616   8
  -5  11   2 110.305 6.59785   6
   5  11  -2 115.107 6.23773   6
  -3 -11   2 96.5487 9.32986  10
  -3 -11   2 103.192 8.14914   2
   3 -11  -2 103.341 7.24457   2
   3  11  -2 100.459 5.85975   6
  -3  11   2 91.8031 5.69719   6
  -3  11   2 103.013 8.10221   8
  -1 -11   2 160.234 9.79102   2
  -1 -11   2 186.958 11.4691  10
   1 -11  -2 160.261 9.48488   2
   1 -11  -2 166.351 9.58519  11
  -1  11   2 163.789 7.33267   6
   1  11  -2 173.411 8.04101   6
  -1  11   2 169.696 10.1647   8
  -1 -11  -2 69.6105 6.48793  11
  -1 -11  -2 60.6563 7.13935   2
   1 -11   2 65.7739 7.09082  10
  -1 -11  -2 70.9890 7.09774  10
   1 -11   2 70.0328 6.52167   2
   1  11   2 60.1148 5.82518   8
  -1  11  -2 62.9391 4.92732   6
  -3 -11  -2 118.393 8.78518  10
  -3 -11  -2 112.879 9.69117   2
   3 -11   2 117.912 9.45453  10
  -3 -11  -2 104.140 7.85146  11
  -3  11  -2 108.940 6.34602   9
  -3  11  -2 109.691 6.65534   6
   3  11   2 108.142 6.53872   1
   3  11   2 104.518 8.15906   8
  -5 -11  -2 49.1492 6.94730  10
  -5 -11  -2 50.3287 6.69192   2
   5 -11   2 56.2341 6.93355  10
   5  11   2 40.8108 4.58913   1
  -5  11  -2 41.4469 4.28063   6
  -5  11  -2 47.6679 4.46740   9
  -6 -12   2 603.314 24.6037   2
  -6 -12   2 677.390 27.8253  10
   6 -12  -2 698.761 24.5129  11
  -6  12   2 643.825 21.6534   6
  -6  12   2 681.427 26.3803   8
   4 -12  -2 66.2965 6.85712   2
   4 -12  -2 75.6483 7.31365  11
  -4 -12   2 68.4717 6.88484   2
  -4 -12   2 63.5392 8.25806  10
  -4  12   2 68.3961 5.36736   6
  -4  12   2 72.1881 7.57657   8
   4  12  -2 68.1371 5.18003   6
   2 -12  -2 789.489 27.2774  11
  -2 -12   2 813.657 30.0803  10
  -2 -12   2 820.859 28.6169   2
   2 -12  -2 785.476 27.4255   2
  -2  12   2 801.896 28.6598   8
  -2  12   2 772.405 24.3161   6
   2  12  -2 795.099 24.8191   6
   0 -12   2 115.579 8.60657   2
   0 -12  -2 98.4798 8.62826   2
   0 -12  -2 112.942 7.76887  11
   0 -12   2 110.862 8.86927  10
   0  12   2 110.246 8.20127   8
   0  12  -2 102.747 6.49195   6
   2 -12   2 567.172 22.8252  10
  -2 -12  -2 529.725 20.6269  11
  -2 -12  -2 522.255 22.2716   2
  -2 -12  -2 541.073 21.7379  10
   2 -12   2 579.900 22.0928   2
   2  12   2 538.819 21.4766   8
  -2  12  -2 552.219 18.7750   6
  -4 -12  -2 101.685 8.87585  10
  -4 -12  -2 106.327 9.27291   2
   4 -12   2 97.3795 8.13329   2
  -4  12  -2 97.4088 6.60448   9
  -4  12  -2 99.5803 6.28788   6
   4  12   2 93.1119 6.05735   1
   3 -13  -2 7.67907 3.93028   2
  -3 -13   2 9.21183 4.25625   2
  -3 -13   2 11.5738 4.99524  10
   3 -13  -2 10.5976 4.01045  11
  -3  13   2 8.17690 2.56939   6
   3  13  -2 7.17175 2.04741   6
  -3  13   2 7.35761 2.93184   8
   1 -13  -2 10.0724 3.90342  11
   1 -13  -2 6.08517 3.06367   2
  -1 -13   2 12.8287 3.72394   2
  -1 -13   2 16.5959 5.20532  10
   1  13  -2 11.6564 2.77255   6
  -1  13   2 7.00456 2.28357   6
  -1  13   2 9.60230 3.55505   8
  -1 -13  -2 12.6204 4.95931   2
   1 -13   2 5.19388 3.90801  10
  -1 -13  -2 7.60740 3.74207  11
   1 -13   2 10.2514 4.13524   2
  -1  13  -2 9.41900 2.82043   6
 -12   0   3 -0.6615 1.94426  14
  12   0  -3 -1.3024 2.60725   1
 -12   0   3 0.58441 3.31135   3
  12   0  -3 2.53652 2.76530  13
  10   0  -3 1.82019 1.72373  12
  10   0  -3 1.36933 1.75029   1
 -10   0   3 0.69444 2.72270  14
 -10   0   3 -1.0969 2.39263   3
  10   0  -3 1.65193 2.14067  16
  -8   0   3 -0.0512 1.16028   3
  -8   0   3 1.35481 2.04089  14
   8   0  -3 0.58769 1.38792  12
   8   0  -3 -0.1692 1.47578   1
   8   0  -3 3.15405 1.71490  16
  -6   0   3 0.20419 0.79502  10
  -6   0   3 3.70498 1.88552  14
   6   0  -3 0.27206 0.71409  12
  -6   0   3 0.32609 1.11980   3
  -6   0   3 1.02076 0.96447   8
  -6   0   3 0.91570 1.15402   7
   6   0  -3 0.86627 0.81200   5
   6   0  -3 0.69937 0.43854  15
  -6   0   3 0.60605 0.44238   9
   6   0  -3 0.80052 0.82440  16
   4   0  -3 4.12522 0.67031  11
   2   0  -3 0.85345 0.38166  12
   2   0  -3 0.21076 0.39358   5
   2   0  -3 -0.3318 0.54727  15
   2   0  -3 0.22550 0.33573  11
  -2   0   3 0.32750 0.47702  15
  -2   0   3 1.33429 0.52255  13
  -2   0   3 -0.0636 0.42581   7
   0   0   3 0.42279 0.36900   4
   0   0   3 0.29392 0.20263  16
   0   0  -3 0.13449 0.25198   5
   0   0  -3 0.39376 0.36987   2
   0   0  -3 3.05877 0.73363  11
   0   0  -3 0.10542 0.57144  15
   0   0   3 0.45835 0.50265  15
   0   0   3 0.23157 0.23484   1
   0   0   3 1.19438 0.47479  13
  -2   0  -3 2.88991 0.85668   3
   2   0   3 -0.1531 0.37685   1
   2   0   3 0.16863 0.56922   4
   2   0   3 0.90580 0.51506  16
   2   0   3 1.43057 0.73985  13
  -2   0  -3 1.39549 0.85805   2
  -2   0  -3 0.80166 0.56855  11
   4   0   3 3.73217 1.41379  13
  -4   0  -3 0.13283 0.57023  11
   4   0   3 0.38370 0.57898   1
  -4   0  -3 0.35994 0.99859  14
  -4   0  -3 0.03444 0.94210   3
  -4   0  -3 1.46804 0.88229   9
  -4   0  -3 0.20959 0.98413   2
   4   0   3 -0.6656 0.49401  16
   6   0   3 3.01437 1.42986   1
  -6   0  -3 5.83019 1.55970   9
  -6   0  -3 -0.0354 1.31304  14
   6   0   3 1.53293 1.27828  16
   8   0   3 0.67377 2.07314  13
  -8   0  -3 1.36987 1.34537   9
   8   0   3 0.51572 1.46575  16
  -8   0  -3 -0.2000 2.33940   3
   8   0   3 -1.1243 1.46588   1
  10   0   3 0.54365 1.78928  13
  10   0   3 0.34721 2.21402   4
 -10   0  -3 -0.4073 1.93400   3
 -11  -1   3 324.495 16.8141  14
  11  -1  -3 297.731 13.6664  16
  11  -1  -3 283.924 11.8369  12
 -11  -1   3 321.294 16.5939   3
  11  -1  -3 320.035 13.7579   1
  11   1  -3 282.334 13.3811  16
 -11   1   3 332.202 17.4936  14
  11   1  -3 304.828 13.4853   1
  11   1  -3 312.107 12.3617  12
 -11   1   3 309.489 16.3514   3
  11   1  -3 306.364 13.3979  13
  -9  -1   3 760.276 26.7556   3
   9  -1  -3 768.281 23.0489  12
  -9  -1   3 807.839 27.8378  14
   9  -1  -3 711.402 23.7553  16
   9  -1  -3 711.754 23.7738   1
   9   1  -3 740.132 22.9494  12
  -9   1   3 734.769 26.4929   3
  -9   1   3 782.306 28.4324  14
   9   1  -3 746.747 23.8540   1
   9   1  -3 719.380 23.9954  16
   7  -1  -3 1516.09 40.2500  12
  -7  -1   3 1458.55 42.5595   3
   7  -1  -3 1455.23 39.3585   5
  -7  -1   3 1466.99 41.3131  10
   7  -1  -3 1479.26 40.8216  16
  -7  -1   3 1486.85 43.4392  14
  -7   1   3 1423.97 41.2131   8
   7   1  -3 1414.48 40.3472   1
  -7   1   3 1452.71 42.5621   3
   7   1  -3 1454.65 40.1331  12
  -7   1   3 1495.07 44.3548  14
   7   1  -3 1420.28 40.5081  16
   7   1  -3 1410.80 39.1133   5
   5  -1  -3 1402.66 36.8940  11
  -5  -1   3 1407.88 38.1264   7
  -5  -1   3 1444.71 38.7508  10
  -5  -1   3 1445.45 37.4302  15
   5  -1  -3 1399.57 37.8290  12
   5  -1  -3 1406.13 37.6903   5
   5  -1  -3 1473.89 37.8537  15
  -5   1   3 1354.14 38.2706   8
   5   1  -3 1410.18 37.4795   5
   5   1  -3 1400.25 38.1625   1
  -5   1   3 1350.98 37.7200   7
   5   1  -3 1455.04 38.1425  16
  -5   1   3 1402.84 39.1443   3
   5   1  -3 1393.32 37.7790  12
  -5   1   3 1337.13 37.8588  15
  -5   1   3 1320.55 36.7772   9
  -5   1   3 1428.25 40.6907  14
  -3  -1   3 5287.40 137.871   4
  -3  -1   3 5108.65 142.210  10
  -3  -1   3 5018.57 142.135  15
   3  -1  -3 5426.07 141.261   5
   3  -1  -3 5251.13 141.185  11
   3  -1  -3 5307.35 144.494  15
  -3  -1   3 5170.87 140.330   7
  -3   1   3 5371.77 142.541   8
   3   1  -3 5530.57 141.298  16
   3   1  -3 5358.74 139.659  12
  -3   1   3 5089.66 138.337   7
   3   1  -3 5283.59 139.903   5
  -3   1   3 5201.62 143.840  15
  -3   1   3 4977.00 138.846   3
   3   1  -3 5229.02 138.699  11
  -3   1   3 5196.87 137.513   4
   3   1  -3 5179.06 140.908  15
  -1  -1   3 1159.17 31.2700   7
   1  -1  -3 1201.13 31.3552   2
   1  -1  -3 1246.04 31.7777  11
   1  -1  -3 1228.39 31.3880   5
  -1  -1   3 1154.97 30.7743  13
  -1  -1   3 1154.91 30.9673   4
  -1  -1   3 1109.62 31.6658  15
   1  -1  -3 1229.72 32.2899  15
  -1   1   3 1187.53 32.1659  15
   1   1  -3 1183.77 31.9218  15
   1   1  -3 1134.02 31.3058  11
   1   1  -3 1172.12 31.1392   5
  -1   1   3 1195.35 31.0991  13
  -1   1   3 1178.64 30.8925   4
   1   1  -3 1176.63 30.6824  12
  -1   1   3 1149.07 30.7013   7
  -1  -1  -3 3459.51 96.8206  11
  -1  -1  -3 3573.91 98.8987  15
  -1  -1  -3 3411.36 94.5513   5
   1  -1   3 3710.68 94.2854   1
   1  -1   3 3748.74 95.3478  16
  -1  -1  -3 3248.20 96.2646   2
  -1  -1  -3 3233.09 96.4391   3
   1  -1   3 3791.82 94.2616  13
   1  -1   3 3674.20 94.7715   4
  -1   1  -3 3718.39 94.9804   5
   1   1   3 3844.66 97.4680  16
  -1   1  -3 3336.42 98.2059   3
   1   1   3 3967.24 95.1594   1
  -1   1  -3 3639.56 95.7654   6
  -1   1  -3 3757.62 98.1575  11
   1   1   3 3835.73 96.3957  13
   1   1   3 3328.74 95.7894  15
   1   1   3 3647.33 95.1655   4
   3  -1   3 1402.15 36.3035  16
   3  -1   3 1415.38 37.0330  13
  -3  -1  -3 1324.90 36.4808  11
   3  -1   3 1384.18 36.1021   1
  -3  -1  -3 1361.11 37.7380   2
  -3  -1  -3 1280.63 37.7096   3
  -3  -1  -3 1442.91 37.5436  14
  -3  -1  -3 1366.05 36.7507  15
   3   1   3 1372.22 36.4240   1
  -3   1  -3 1384.77 36.6222  11
  -3   1  -3 1279.82 35.6503   6
  -3   1  -3 1374.49 38.5006  14
  -3   1  -3 1397.96 36.8484   9
   3   1   3 1333.48 35.3430  12
   3   1   3 1384.14 36.6630  16
  -3   1  -3 1287.60 38.1548   3
   3   1   3 1359.53 36.9629  13
  -5  -1  -3 906.949 26.3547   2
   5  -1   3 855.825 24.8238  16
   5  -1   3 855.130 24.5277   1
  -5  -1  -3 887.933 26.3250  14
  -5  -1  -3 848.833 24.8352   9
  -5  -1  -3 890.486 27.5389   3
   5  -1   3 903.523 25.8055  13
  -5   1  -3 898.039 25.1416   9
   5   1   3 851.299 24.7771   1
  -5   1  -3 857.612 27.7684   3
   5   1   3 867.338 25.1904  16
   5   1   3 874.004 25.6053  13
  -5   1  -3 853.357 27.3303  14
  -7  -1  -3 692.111 21.6206   9
   7  -1   3 754.013 23.4637  13
  -7  -1  -3 763.718 26.1112   3
   7  -1   3 704.304 22.1531  16
   7  -1   3 712.932 21.8720   1
  -7   1  -3 761.590 26.6877   3
  -7   1  -3 711.944 21.8755   9
   7   1   3 720.609 23.0892  13
  -7   1  -3 723.169 25.2887  14
   7   1   3 702.713 22.3696  16
   7   1   3 716.118 22.0019   1
  -9  -1  -3 228.469 13.3151   3
   9  -1   3 200.934 10.1588  13
  -9   1  -3 198.646 8.66493   9
   9   1   3 196.866 10.3229  13
   9   1   3 200.716 9.37769   1
  -9   1  -3 209.635 12.7600   3
   9   1   3 214.300 10.1611   4
  12  -2  -3 100.879 7.71700   1
 -12  -2   3 103.096 9.25231   3
  12   2  -3 107.962 7.71117  13
  12   2  -3 84.2854 7.20282   1
 -12   2   3 94.3036 8.91777   3
  10  -2  -3 247.331 11.4862  16
 -10  -2   3 282.603 14.2938  14
  10  -2  -3 251.066 11.4517   1
 -10  -2   3 271.900 14.2488   3
  10  -2  -3 266.848 10.7446  12
 -10   2   3 254.925 13.8665   3
  10   2  -3 253.175 11.4540   1
  10   2  -3 254.383 10.5441  12
 -10   2   3 273.888 15.6839  14
  10   2  -3 247.135 11.6301  16
  -8  -2   3 346.795 14.6298  14
  -8  -2   3 334.028 14.2154   3
  -8  -2   3 319.492 12.9811  10
   8  -2  -3 329.265 12.4436  16
   8  -2  -3 323.332 11.5279  12
   8   2  -3 335.484 12.1931   1
   8   2  -3 325.747 12.4442  16
  -8   2   3 324.384 13.1467   8
   8   2  -3 335.509 11.8539  12
  -8   2   3 348.590 15.8575  14
  -8   2   3 309.543 10.2894   9
  -8   2   3 327.421 14.1306   3
   6  -2  -3 388.629 12.2635  15
   6  -2  -3 383.200 12.0585   5
   6  -2  -3 416.428 12.4188  12
  -6  -2   3 381.778 14.3933  14
  -6  -2   3 402.252 12.8140   7
  -6  -2   3 380.108 13.5172  10
  -6   2   3 372.902 13.7824   3
   6   2  -3 381.402 12.5117  16
  -6   2   3 386.679 15.1839  14
   6   2  -3 379.122 12.2393  12
   6   2  -3 384.435 12.3877   1
   6   2  -3 357.489 11.5134   5
  -6   2   3 366.466 11.2729   9
  -6   2   3 374.211 13.1812   8
   4  -2  -3 951.202 25.2241  11
  -4  -2   3 896.686 24.4500   2
  -4  -2   3 966.708 26.3765  10
  -4  -2   3 912.156 24.6823   4
   4  -2  -3 956.109 26.1476  15
  -4  -2   3 904.809 25.3927   7
   4  -2  -3 937.191 25.4119   5
  -4   2   3 881.352 24.5342   9
  -4   2   3 885.300 25.7706   8
   4   2  -3 915.561 24.9900   5
   4   2  -3 900.478 25.0721  12
   4   2  -3 911.572 24.9725   1
   4   2  -3 899.166 24.9923  16
  -4   2   3 919.698 26.0715   3
  -4   2   3 888.358 27.2644  14
  -2  -2   3 549.086 15.2045   7
   2  -2  -3 570.539 15.1677   2
  -2  -2   3 528.493 15.6640  10
  -2  -2   3 500.442 15.9515  15
  -2  -2   3 533.536 14.6219   4
   2  -2  -3 555.318 15.5872  11
   2  -2  -3 572.756 16.4377  15
   2   2  -3 540.327 14.7054  12
  -2   2   3 517.304 14.9509   3
  -2   2   3 514.951 14.4705   6
   2   2  -3 517.326 14.8479  11
  -2   2   3 525.153 14.8835  13
   2   2  -3 513.963 14.2821  16
   2   2  -3 541.783 15.0013   5
  -2   2   3 544.380 15.5379   8
   2   2  -3 523.692 14.2436   9
  -2   2   3 542.035 14.6128   4
   2   2  -3 515.905 14.2628   1
   0  -2   3 815.251 22.7480   7
   0  -2  -3 819.243 22.7747  10
   0  -2  -3 852.369 23.3330  11
   0  -2   3 799.457 21.9023  13
   0  -2  -3 854.932 23.9095  15
   0  -2  -3 865.297 23.4522   2
   0  -2   3 812.860 22.2199   4
   0   2   3 827.922 22.3541  16
   0   2  -3 830.930 22.3413   5
   0   2   3 821.381 22.1839   1
   0   2  -3 828.525 22.7369  11
   0   2   3 805.645 22.3752  13
   0   2   3 829.918 22.0366   4
   0   2  -3 858.954 22.3620   9
  -2  -2  -3 824.768 23.5718   3
  -2  -2  -3 850.386 23.8800  15
   2  -2   3 839.966 23.2180   4
  -2  -2  -3 824.127 24.6997  10
   2  -2   3 856.222 22.3519   1
   2  -2   3 862.871 23.1873  13
   2  -2   3 860.938 22.4566  16
  -2  -2  -3 845.595 24.4061   2
  -2  -2  -3 842.815 23.5382  11
   2   2   3 835.698 23.3841  13
  -2   2  -3 843.241 23.2646   9
  -2   2  -3 862.091 25.1601  14
  -2   2  -3 853.398 22.6712   6
   2   2   3 838.488 23.0323   1
   2   2   3 829.914 22.8777   4
   2   2   3 850.403 23.2785  16
  -2   2  -3 836.451 24.5240   3
  -2   2  -3 833.649 23.3587  11
  -4  -2  -3 328.703 11.7079   2
   4  -2   3 333.581 10.8895  13
  -4  -2  -3 329.702 11.8467   3
   4  -2   3 314.279 9.99479  16
  -4  -2  -3 321.491 10.0741  11
   4  -2   3 313.103 9.86598   1
   4   2   3 314.742 10.7858  13
  -4   2  -3 337.272 12.8131  14
  -4   2  -3 321.716 12.4087   3
   4   2   3 316.872 10.6438  16
   4   2   3 325.750 10.4192   1
  -4   2  -3 310.472 9.68400   6
  -4   2  -3 316.919 10.5458   9
   6  -2   3 378.730 12.7599  16
   6  -2   3 377.011 12.5178   1
  -6  -2  -3 420.548 16.0209   3
   6  -2   3 401.758 13.7840  13
  -6  -2  -3 383.180 14.2642   2
  -6  -2  -3 384.879 12.7292   9
  -6   2  -3 376.740 12.9409   9
   6   2   3 390.251 13.4539  16
   6   2   3 381.160 13.0664   1
  -6   2  -3 386.525 15.9712  14
   6   2   3 377.823 13.6297  13
  -6   2  -3 393.242 16.2214   3
  -8  -2  -3 198.119 11.4538   3
   8  -2   3 188.817 9.20026  13
   8   2   3 177.673 8.95476  13
   8   2   3 175.558 8.51310  16
  -8   2  -3 171.921 7.80816   9
  -8   2  -3 197.741 11.7933   3
   8   2   3 162.438 8.19847   1
  -8   2  -3 185.534 11.3407  14
  11  -3  -3 803.408 26.9675   1
 -11  -3   3 812.592 30.5732   3
 -11   3   3 869.340 33.8798  14
  11   3  -3 785.586 25.3895  12
  11   3  -3 795.567 26.6004   1
 -11   3   3 814.469 30.7759   3
  11   3  -3 752.697 26.1193  13
  -9  -3   3 38.4724 4.43232  10
   9  -3  -3 37.8035 3.88926  16
  -9  -3   3 37.9100 4.87163  14
   9  -3  -3 37.9572 3.89169  12
   9  -3  -3 34.3895 4.34780   1
  -9  -3   3 32.7222 4.73681   3
   9   3  -3 54.2241 4.66063   1
  -9   3   3 43.0472 5.90883  14
  -9   3   3 35.5771 4.87791   8
  -9   3   3 36.4610 5.08122   3
  -9   3   3 31.9374 2.82110   9
   9   3  -3 50.2181 4.70394  16
   9   3  -3 46.1248 4.14343  12
  -7  -3   3 2265.06 64.5125  10
  -7  -3   3 2323.62 63.0250   7
  -7  -3   3 2281.55 65.0314  14
   7  -3  -3 2370.51 62.1487   5
   7  -3  -3 2378.42 62.4714  12
  -7   3   3 2310.46 67.4993  14
  -7   3   3 2271.57 61.3872   9
   7   3  -3 2233.20 61.3119   5
   7   3  -3 2355.70 62.7753   1
  -7   3   3 2294.36 64.2805   8
   7   3  -3 2353.69 63.0740  16
  -7   3   3 2405.07 65.4755   3
   7   3  -3 2357.05 62.5450  12
  -5  -3   3 146.869 6.18970   7
  -5  -3   3 130.932 5.18945   2
   5  -3  -3 149.335 5.97544   5
   5  -3  -3 145.470 6.27794  15
  -5  -3   3 143.230 6.86085  10
   5  -3  -3 146.981 5.52392  11
   5  -3  -3 137.383 4.78550   2
   5   3  -3 145.923 5.68921  12
   5   3  -3 143.836 5.59849   1
  -5   3   3 136.481 6.52750   3
  -5   3   3 153.078 5.30556   9
   5   3  -3 136.411 5.24948   5
  -5   3   3 134.813 6.33960   8
  -5   3   3 140.383 7.49313  14
  -5   3   3 141.421 5.46973   6
   5   3  -3 140.274 5.64227  16
  -3  -3   3 5458.81 159.339  10
   3  -3  -3 5962.20 168.809  15
   3  -3  -3 6137.03 158.241  11
   3  -3  -3 6165.44 161.676   2
  -3  -3   3 5534.14 158.785   4
  -3  -3   3 5737.99 160.546   7
  -3   3   3 5922.98 160.119   6
  -3   3   3 6596.10 167.210   8
   3   3  -3 6455.58 159.430   1
   3   3  -3 6612.62 160.936  16
  -3   3   3 6390.50 166.365   3
   3   3  -3 6174.85 162.190   5
   3   3  -3 6361.03 162.646  12
  -3   3   3 5262.69 165.907  14
   1  -3  -3 899.598 23.7457  10
   1  -3  -3 930.227 24.8390   2
   1  -3  -3 931.489 25.6970  15
   1  -3  -3 903.016 24.8351  11
  -1  -3   3 880.513 24.1779   7
  -1  -3   3 890.360 23.4408   4
   1   3  -3 880.747 23.4136  12
   1   3  -3 828.301 23.7413   5
  -1   3   3 881.674 23.1953   4
  -1   3   3 871.846 23.6447   1
  -1   3   3 888.931 23.1761   6
  -1   3   3 794.006 23.8970  14
  -1   3   3 883.088 23.7462  13
   1   3  -3 850.816 22.6217  16
   1   3  -3 851.736 23.2647   9
  -1  -3  -3 5065.48 147.754  11
   1  -3   3 5828.03 146.102  13
   1  -3   3 5798.80 149.021   4
   1  -3   3 5859.75 144.419  16
  -1  -3  -3 5038.36 148.360   2
  -1  -3  -3 5059.79 154.654  15
   1   3   3 5765.14 149.712  13
   1   3   3 5836.30 150.314  16
  -1   3  -3 5821.54 149.720   5
  -1   3  -3 6054.81 148.878   9
   1   3   3 5628.70 146.836   4
  -1   3  -3 5492.59 147.102   6
   1   3   3 5740.18 149.116   1
  -1   3  -3 5232.55 150.571   3
  -3  -3  -3 419.620 14.6162  10
   3  -3   3 400.918 12.3365  13
   3  -3   3 408.051 11.6511  16
  -3  -3  -3 404.672 12.8404  15
  -3  -3  -3 385.617 12.4981  11
   3  -3   3 393.252 11.5145   1
  -3  -3  -3 429.494 13.4432   3
  -3  -3  -3 412.342 13.9265   2
   3   3   3 396.089 11.9723   4
   3   3   3 408.200 12.6575  16
   3   3   3 404.942 12.3747   1
  -3   3  -3 394.289 12.4726   9
  -3   3  -3 409.532 14.4182   3
   3   3   3 396.734 11.6262  12
   3   3   3 404.106 12.6491  13
  -3   3  -3 422.281 14.9082  14
  -3   3  -3 396.353 11.8922   6
  -5  -3  -3 1846.88 52.5698   3
  -5  -3  -3 1804.66 51.8353   2
   5  -3   3 1842.92 49.6854  16
  -5  -3  -3 1828.62 53.8811  10
   5  -3   3 1944.26 50.8935  13
  -5   3  -3 1880.65 50.4728   9
   5   3   3 1898.52 50.4132   1
  -5   3  -3 1798.79 53.7896   3
  -5   3  -3 1894.45 54.2261  14
   5   3   3 1858.75 50.7665  16
   5   3   3 1887.36 50.9184  13
  -5   3  -3 1758.55 49.2447   6
  -7  -3  -3 78.2111 6.67677   3
   7  -3   3 67.0029 5.29088  13
  -7  -3  -3 58.9534 3.92010   9
  -7  -3  -3 70.1824 5.24698   2
  -7   3  -3 63.6109 6.79385   3
  -7   3  -3 68.4641 6.93593  14
   7   3   3 76.2315 4.99264   1
   7   3   3 60.0448 5.12243  13
  -7   3  -3 68.6897 4.41807   9
   7   3   3 65.6879 4.71038  16
   9  -3   3 476.906 17.4909   4
   9  -3   3 473.481 17.8414  13
  -9   3  -3 499.071 22.1681   3
   9   3   3 465.235 17.7478  13
   9   3   3 455.583 16.7515   1
  -9   3  -3 455.271 16.1147   9
   9   3   3 465.566 16.5534   4
 -10  -4   3 299.086 15.0144   3
  10  -4  -3 285.844 12.6343  16
 -10  -4   3 292.196 14.0880  10
  10  -4  -3 279.914 12.8267   1
  10  -4  -3 295.220 11.5714  12
  10   4  -3 292.022 11.9868  13
  10   4  -3 284.004 11.8473  12
 -10   4   3 304.532 17.2934  14
  10   4  -3 297.585 12.5018   1
  10   4  -3 276.059 12.6311  16
 -10   4   3 298.157 15.2167   3
  -8  -4   3 383.057 15.6280  10
  -8  -4   3 385.790 15.2890  14
  -8  -4   3 368.343 13.7018   7
   8  -4  -3 355.580 12.6876   5
   8  -4  -3 368.561 13.1239  12
   8  -4  -3 373.428 13.6846  16
  -8   4   3 371.737 15.7872   3
   8   4  -3 356.897 12.7043  13
  -8   4   3 387.757 12.3937   9
   8   4  -3 370.889 13.4615   1
   8   4  -3 373.185 13.1229  12
  -8   4   3 375.811 15.3373   8
  -8   4   3 389.970 18.1433  14
   8   4  -3 388.254 13.9439  16
   6  -4  -3 546.169 17.3107  15
   6  -4  -3 533.268 16.1954  11
  -6  -4   3 567.241 17.2074   7
   6  -4  -3 570.103 16.8157   5
  -6  -4   3 548.254 18.8324  10
  -6  -4   3 513.093 16.1146   2
   6   4  -3 545.641 16.8086  16
  -6   4   3 547.519 16.3281   6
   6   4  -3 528.349 16.4872   1
  -6   4   3 533.925 20.1564  14
   6   4  -3 540.307 16.6341  12
  -6   4   3 534.596 18.1920   8
   6   4  -3 510.912 15.8409   5
  -6   4   3 540.893 16.0352   9
  -6   4   3 525.533 18.5086   3
   4  -4  -3 1887.95 49.2658  11
   4  -4  -3 1863.97 48.6123   2
  -4  -4   3 1858.03 49.2778   7
  -4  -4   3 1828.98 50.8422  10
   4  -4  -3 1867.80 50.2691  15
  -4  -4   3 1743.71 48.9086   2
   4   4  -3 1840.93 48.6315  16
  -4   4   3 1878.05 48.5691   6
  -4   4   3 1715.82 51.3304  14
  -4   4   3 1844.62 48.5737   9
   4   4  -3 1764.56 48.6107   5
  -4   4   3 1815.75 50.0544   3
  -4   4   3 1831.82 50.2532   8
   4   4  -3 1852.90 48.4082   1
   4   4  -3 1843.79 48.8379  12
  -2  -4   3 1083.51 33.4763  10
   2  -4  -3 1243.17 33.7361  15
   2  -4  -3 1251.86 32.6768   2
  -2  -4   3 1143.01 32.2619   7
   2  -4  -3 1208.74 32.7694  11
  -2  -4   3 1096.24 31.1192   4
   2  -4  -3 1263.20 31.7266  10
   2   4  -3 1189.29 31.7260  12
  -2   4   3 1209.59 32.2341   3
   2   4  -3 1180.36 30.9697   9
  -2   4   3 1210.13 33.2036   8
  -2   4   3 1160.76 31.0842   4
  -2   4   3 1095.32 32.7852  14
   2   4  -3 1183.61 30.9671   1
  -2   4   3 1201.30 31.8497  13
   2   4  -3 1161.13 31.9864   5
  -2   4   3 1206.85 31.4265   6
   0  -4  -3 1755.16 47.8384   2
   0  -4  -3 1735.65 48.1055  15
   0  -4  -3 1706.89 47.3737  11
   0  -4   3 1783.33 46.7889   7
   0  -4   3 1742.02 45.6856   4
   0  -4  -3 1707.63 46.9737  10
   0   4  -3 1689.99 45.8828   8
   0   4   3 1748.18 46.0449   1
   0   4  -3 1733.78 45.5204  12
   0   4  -3 1791.67 45.9249   9
   0   4   3 1786.84 46.3373  16
   0   4   3 1742.23 45.2214   6
   0   4  -3 1707.98 46.0118   6
   0   4   3 1769.13 45.2335   4
   0   4   3 1758.10 46.0861  13
   0   4  -3 1741.44 46.2062   5
   2  -4   3 1219.29 33.2282   4
  -2  -4  -3 1209.88 35.3177  10
  -2  -4  -3 1264.08 35.3099  15
  -2  -4  -3 1201.43 34.4468  11
   2  -4   3 1231.32 32.1449  16
  -2  -4  -3 1315.15 35.8183   2
   2  -4   3 1230.62 32.8679  13
  -2   4  -3 1242.02 33.4764   9
  -2   4  -3 1210.40 35.4583   3
   2   4   3 1208.56 33.4228  13
   2   4   3 1216.68 33.3765   1
   2   4   3 1200.47 32.5500   4
   2   4   3 1236.72 33.7108  16
  -2   4  -3 1238.27 33.1452   6
  -2   4  -3 1224.18 34.1360   8
   4  -4   3 322.011 10.7501  13
  -4  -4  -3 344.307 13.4778  10
  -4  -4  -3 341.963 12.1198   3
  -4  -4  -3 299.552 10.4555  11
  -4  -4  -3 306.623 12.1209   2
  -4   4  -3 318.964 13.2528   3
   4   4   3 317.142 10.9312  13
   4   4   3 318.449 11.0550  16
  -4   4  -3 324.140 13.6298  14
   4   4   3 308.727 10.0560   4
   4   4   3 313.379 9.92618  12
  -4   4  -3 311.816 10.7480   9
   4   4   3 318.869 10.7981   1
  -4   4  -3 323.487 10.2877   6
  -6  -4  -3 337.488 15.2950  10
   6  -4   3 325.404 12.1428  13
  -6  -4  -3 354.468 14.2543   3
  -6  -4  -3 319.755 13.1758   2
   6   4   3 331.356 11.2472   4
  -6   4  -3 312.573 11.7316   9
  -6   4  -3 325.812 15.1586   3
   6   4   3 317.709 12.1743  16
  -6   4  -3 338.839 15.6707  14
   6   4   3 331.056 12.3156  13
   6   4   3 323.733 11.8880   1
  -6   4  -3 321.556 10.9537   6
  -8  -4  -3 126.633 7.38673   2
   8  -4   3 117.910 7.31454  13
   8  -4   3 115.376 7.20082   4
   8   4   3 121.171 6.45286   4
  -8   4  -3 119.743 9.65257  14
  -8   4  -3 123.159 6.45363   9
   8   4   3 103.541 7.09183  13
   8   4   3 119.203 7.02538   1
   8   4   3 117.455 7.09034  16
  -8   4  -3 123.827 10.0710   3
  11  -5  -3 254.896 12.2553   1
 -11  -5   3 265.076 13.7036  10
 -11  -5   3 276.032 14.9493   3
  11   5  -3 274.044 11.5396  12
  11   5  -3 257.770 12.1313   1
 -11   5   3 265.203 14.9303   3
 -11   5   3 301.496 18.4222  14
   9  -5  -3 760.359 23.2608  12
   9  -5  -3 729.748 24.1453  16
  -9  -5   3 740.737 26.4983  10
  -9   5   3 730.988 22.2817   9
   9   5  -3 722.018 23.5872   1
  -9   5   3 765.260 27.2896   3
  -9   5   3 734.295 26.0156   8
  -9   5   3 759.783 30.1223  14
   9   5  -3 729.483 23.3048  12
   9   5  -3 709.445 22.7803  13
   9   5  -3 736.725 24.2769  16
   7  -5  -3 1069.21 29.4023   5
  -7  -5   3 993.990 32.0311  10
  -7  -5   3 995.058 31.0958  14
  -7  -5   3 1027.29 29.8699   7
   7   5  -3 990.949 29.1493   1
  -7   5   3 968.630 34.0583  14
   7   5  -3 1005.32 29.2865  12
   7   5  -3 916.511 27.8971   5
   7   5  -3 1019.21 29.6459  16
  -7   5   3 1017.51 32.0890   3
   7   5  -3 941.684 28.1699  13
  -7   5   3 1037.50 28.8428   6
  -7   5   3 1040.48 28.6770   9
  -7   5   3 1018.79 31.7376   8
   5  -5  -3 1631.59 43.8497   2
   5  -5  -3 1607.61 44.2552  11
   5  -5  -3 1647.13 45.5702  15
  -5  -5   3 1620.38 46.8302  10
  -5  -5   3 1541.24 44.3174   2
  -5  -5   3 1670.48 44.7094   7
   5   5  -3 1510.26 42.7066  13
  -5   5   3 1659.64 43.8233   9
   5   5  -3 1640.27 44.0685  16
   5   5  -3 1671.31 44.2757  12
   5   5  -3 1623.94 43.7361   1
  -5   5   3 1689.35 46.3195   8
  -5   5   3 1642.20 43.7438   6
  -5   5   3 1554.68 47.7937  14
   5   5  -3 1589.80 43.7505   5
  -5   5   3 1613.27 46.1200   3
   3  -5  -3 1378.30 37.4148  11
  -3  -5   3 1326.89 38.9494  10
   3  -5  -3 1388.12 38.4802  15
   3  -5  -3 1385.91 36.3289  10
  -3  -5   3 1260.01 35.4123   4
  -3  -5   3 1327.78 37.0303   7
   3  -5  -3 1412.30 37.1809   2
   3   5  -3 1329.88 36.0393  16
  -3   5   3 1353.70 38.2229   8
   3   5  -3 1373.28 36.6357  12
  -3   5   3 1353.45 36.1883   6
   3   5  -3 1346.83 36.7143   5
  -3   5   3 1313.06 38.6255  14
   3   5  -3 1337.70 35.8266   1
  -3   5   3 1354.36 37.6496   3
   1  -5  -3 1371.85 37.7043  11
   1  -5  -3 1398.02 37.9699   2
   1  -5  -3 1394.69 37.1647  10
   1  -5  -3 1396.81 38.6469  15
  -1  -5   3 1357.46 35.6969   4
  -1  -5   3 1380.49 39.1059  10
  -1  -5   3 1381.83 37.1074   7
  -1   5   3 1372.01 36.4115   1
   1   5  -3 1347.23 36.1501  12
   1   5  -3 1422.13 35.7945   1
  -1   5   3 1315.36 36.2064  13
  -1   5   3 1309.03 36.5028  14
   1   5  -3 1331.03 36.6417   5
  -1   5   3 1350.57 35.8164   6
  -1   5   3 1294.28 35.2109   4
   1   5  -3 1287.73 35.8498   8
   1   5  -3 1324.50 35.8740   9
  -1  -5  -3 981.144 28.0253   2
  -1  -5  -3 926.633 26.9675  11
  -1  -5  -3 936.697 27.2683  10
   1  -5   3 901.870 24.9356   4
   1  -5   3 938.603 26.2752   7
  -1  -5  -3 917.121 27.5910  15
  -1   5  -3 869.525 25.6806   8
   1   5   3 942.150 25.7799  16
  -1   5  -3 916.456 25.4022   9
   1   5   3 915.474 25.4280   1
   1   5   3 913.635 25.3690  13
   1   5   3 887.709 24.2483   6
  -1   5  -3 892.547 25.3158   6
   3  -5   3 988.985 27.6767   4
  -3  -5  -3 957.880 29.1219  15
  -3  -5  -3 1037.97 30.5093   2
  -3  -5  -3 1056.54 30.9243  10
  -3  -5  -3 959.300 28.6137  11
   3  -5   3 985.203 27.2368  13
   3   5   3 999.491 27.8834  13
   3   5   3 1002.57 27.9652   1
   3   5   3 939.925 26.6069   4
  -3   5  -3 1009.88 28.0131   9
  -3   5  -3 965.117 30.6090   3
   3   5   3 999.737 28.2976  16
  -3   5  -3 994.248 27.5596   6
  -3   5  -3 962.037 28.9597   8
   5  -5   3 611.719 18.6956  13
   5  -5   3 598.174 18.8707   4
  -5  -5  -3 580.966 20.5153   2
  -5  -5  -3 632.408 20.8183   3
  -5  -5  -3 649.304 22.7255  10
   5   5   3 590.740 18.8794  13
   5   5   3 589.809 19.1683  16
   5   5   3 578.875 18.6724   1
  -5   5  -3 620.904 18.2651   6
   5   5   3 596.693 17.8572  12
  -5   5  -3 605.516 18.7970   9
  -5   5  -3 599.357 22.2740   3
  -5   5  -3 588.085 22.8854  14
   7  -5   3 631.529 21.2458   4
  -7  -5  -3 619.529 22.4767   2
   7  -5   3 659.641 21.4687  13
   7   5   3 663.764 21.5462  13
   7   5   3 656.437 21.7715  16
  -7   5  -3 664.532 21.0541   9
   7   5   3 666.687 21.2987   1
  -7   5  -3 666.639 26.4694  14
  -7   5  -3 682.768 26.2445   3
   9  -5   3 252.725 11.5197   4
   9  -5   3 262.632 11.6867  13
   9   5   3 243.007 11.0741   1
  -9   5  -3 246.001 10.5641   9
   9   5   3 239.274 11.1287  13
  -9   5  -3 270.454 15.8619   3
 -10  -6   3 69.6439 7.33462  10
  10  -6  -3 62.8166 5.74923  16
  10  -6  -3 63.5909 6.50547   1
  10   6  -3 62.3661 5.68428   1
 -10   6   3 72.6072 9.43363  14
 -10   6   3 73.9833 7.77329   8
  10   6  -3 70.1907 5.22628  12
 -10   6   3 73.3146 7.31472   3
 -10   6   3 71.4748 4.87886   9
   8  -6  -3 289.402 10.9079   5
  -8  -6   3 270.558 11.2174   7
  -8  -6   3 269.321 13.6313  10
   8   6  -3 267.183 10.9809  16
  -8   6   3 283.266 10.4019   9
  -8   6   3 265.000 13.1993   8
  -8   6   3 271.283 15.6230  14
   8   6  -3 254.130 10.6413   1
  -8   6   3 275.871 13.6018   3
   8   6  -3 283.038 11.1692  12
  -6  -6   3 726.065 21.7021   7
   6  -6  -3 705.179 21.3583  11
  -6  -6   3 663.086 21.4504   2
   6  -6  -3 680.968 22.4167  15
  -6  -6   3 689.010 24.2726  10
  -6   6   3 706.671 23.6530   8
  -6   6   3 689.644 25.5059  14
  -6   6   3 688.640 20.7332   6
  -6   6   3 732.334 23.9660   3
   6   6  -3 680.799 21.0724  16
  -6   6   3 695.739 20.7395   9
   6   6  -3 689.599 20.7722   1
   6   6  -3 707.653 21.3284  12
   4  -6  -3 368.292 12.0312   2
  -4  -6   3 361.158 12.0812   7
  -4  -6   3 349.612 12.3659   2
  -4  -6   3 361.698 14.2964  10
   4  -6  -3 359.069 13.3075  15
  -4   6   3 347.540 13.0122   3
  -4   6   3 363.989 11.3855   6
  -4   6   3 328.537 13.7908  14
   4   6  -3 351.481 11.0179   1
  -4   6   3 350.921 13.3290   8
   4   6  -3 353.051 11.5872  12
   4   6  -3 342.993 11.2268  16
   2  -6  -3 1349.32 39.0202  15
  -2  -6   3 1355.92 39.6970  10
  -2  -6   3 1370.20 37.3781   7
   2  -6  -3 1382.52 37.2350  10
   2  -6  -3 1396.02 38.1110  11
   2  -6  -3 1450.24 38.3562   2
  -2  -6   3 1261.64 35.4811   4
   2   6  -3 1294.05 35.8591  16
  -2   6   3 1424.84 39.0837   8
   2   6  -3 1388.40 35.9941   9
   2   6  -3 1239.75 35.5995   1
  -2   6   3 1292.18 37.8286  14
  -2   6   3 1355.58 36.3139   6
   2   6  -3 1402.85 36.8358  12
   0  -6   3 808.841 25.3668  10
   0  -6  -3 829.344 24.5111   2
   0  -6  -3 777.707 23.5946  11
   0  -6  -3 790.264 23.6348  10
   0  -6   3 813.792 22.9525   7
   0  -6  -3 794.198 24.5763  15
   0  -6   3 759.999 21.3074   4
   0   6   3 785.994 22.2097   1
   0   6   3 750.984 21.2538   6
   0   6   3 781.658 21.9637  13
   0   6  -3 790.059 22.2587   6
   0   6  -3 710.513 22.0056   8
   0   6  -3 781.524 21.8855   9
  -2  -6  -3 318.665 12.8503   2
   2  -6   3 289.798 10.8255   7
  -2  -6  -3 309.501 12.2458  15
  -2  -6  -3 289.230 11.2132  11
   2  -6   3 295.854 9.60495   4
  -2  -6  -3 339.885 12.5297  10
  -2   6  -3 309.518 12.6049   3
   2   6   3 287.120 10.0901   1
  -2   6  -3 286.032 9.95210   9
   2   6   3 289.443 9.86860  13
   2   6   3 294.312 10.3931  16
  -2   6  -3 295.598 9.95709   6
  -2   6  -3 281.587 10.6652   8
  -4  -6  -3 601.198 20.8368   2
  -4  -6  -3 569.538 18.7446  11
  -4  -6  -3 643.002 22.1147  10
   4  -6   3 620.235 18.3675   4
   4   6   3 593.852 18.9573  16
   4   6   3 607.341 18.6301   1
  -4   6  -3 577.839 21.6807   3
  -4   6  -3 583.775 18.3883   9
   4   6   3 585.165 18.2801  13
  -4   6  -3 602.508 18.1085   6
  -4   6  -3 577.837 19.8657   8
  -6  -6  -3 66.7794 7.28342  10
  -6  -6  -3 61.8789 5.84594   2
   6  -6   3 58.9157 4.68410   4
   6   6   3 60.1883 4.77592   1
   6   6   3 56.2815 4.49901  16
  -6   6  -3 58.2846 6.36324   3
   6   6   3 56.4426 4.66716  13
  -6   6  -3 65.3263 4.69506   9
  -6   6  -3 61.4754 4.30529   6
   8  -6   3 70.3461 5.40300   4
  -8  -6  -3 85.6798 6.50492   2
  -8   6  -3 90.1908 9.11092   3
  -8   6  -3 79.6075 5.72503   9
   8   6   3 76.1787 5.56585   1
   8   6   3 80.3094 6.13810  13
   9  -7  -3 545.892 19.8886  16
   9  -7  -3 606.091 19.5006  12
  -9  -7   3 571.503 23.2099  10
  -9   7   3 548.406 25.9272  14
  -9   7   3 593.875 23.5910   3
   9   7  -3 574.978 19.5526   1
   9   7  -3 577.631 19.7452  12
   9   7  -3 561.746 20.1211  16
  -9   7   3 563.585 18.6202   9
  -9   7   3 623.204 23.7250   8
  -7  -7   3 37.2357 4.15431   7
  -7  -7   3 32.3420 5.05286  10
   7  -7  -3 34.4932 3.87785  11
   7   7  -3 32.1924 3.43288  12
   7   7  -3 30.5181 3.34204   1
  -7   7   3 33.7673 5.00984   8
  -7   7   3 30.7405 2.98772   9
  -7   7   3 34.3904 5.87852  14
  -7   7   3 26.8107 3.23132   6
   7   7  -3 31.8550 3.54805  16
  -7   7   3 32.3024 4.65753   3
   5  -7  -3 1498.12 41.8961   2
   5  -7  -3 1519.21 43.9265  15
  -5  -7   3 1523.18 45.6138  10
  -5  -7   3 1507.23 42.1193   7
  -5  -7   3 1439.12 42.6590   2
  -5   7   3 1492.32 41.1842   6
  -5   7   3 1423.48 45.5989  14
   5   7  -3 1502.63 41.7515  12
   5   7  -3 1512.90 41.0182   1
   5   7  -3 1472.58 41.2876  16
  -5   7   3 1567.74 44.5690   8
  -5   7   3 1515.72 44.2128   3
  -3  -7   3 396.675 14.0036   2
   3  -7  -3 376.945 14.3964  15
   3  -7  -3 392.350 13.4911   2
  -3  -7   3 388.938 12.8456   7
  -3  -7   3 404.085 15.6385  10
   3   7  -3 396.438 12.6584  12
  -3   7   3 364.935 14.1358  14
   3   7  -3 363.966 11.5479   1
  -3   7   3 389.739 14.6098   8
  -3   7   3 386.428 12.1131   6
   1  -7  -3 3243.45 87.2909  10
   1  -7  -3 3437.59 88.4450   2
  -1  -7   3 3385.85 86.8023   7
  -1  -7   3 3341.04 89.8637  10
   1  -7  -3 3284.79 87.7482  11
   1  -7  -3 3181.23 88.6826  15
   1   7  -3 3243.46 85.8473  12
   1   7  -3 3226.07 85.3995   9
  -1   7   3 3149.45 85.2063   6
  -1   7   3 3311.34 88.6084   8
  -1   7   3 3222.10 85.6489  13
   1   7  -3 3253.21 86.1343   6
  -1  -7  -3 594.156 19.8070  10
  -1  -7  -3 592.763 20.1968  15
  -1  -7  -3 600.659 20.5166   2
  -1  -7  -3 583.050 19.2740  11
   1  -7   3 609.261 18.6443   7
  -1   7  -3 537.693 18.0048   8
  -1   7  -3 580.924 17.7213   6
   1   7   3 593.600 17.4122  13
   1   7   3 581.385 18.0981  16
  -1   7  -3 589.961 17.5319   9
   1   7   3 601.093 17.7869   1
  -3  -7  -3 1874.28 54.2121   2
   3  -7   3 1911.01 52.2887   7
  -3  -7  -3 1859.78 52.5661  11
   3  -7   3 1883.54 50.3917   4
  -3  -7  -3 1926.66 54.4118  10
  -3  -7  -3 1708.97 52.8833  15
  -3   7  -3 1911.21 50.9143   6
  -3   7  -3 1907.12 55.2176   3
  -3   7  -3 1799.86 52.2535   8
   3   7   3 1863.59 50.7016  13
   3   7   3 1879.59 51.1454   1
  -3   7  -3 1898.64 51.0902   9
   3   7   3 1912.05 51.6675  16
  -5  -7  -3 107.916 7.56994   2
   5  -7   3 86.9574 5.14448   4
  -5  -7  -3 98.0570 8.06825  10
  -5   7  -3 75.1524 7.38832   3
  -5   7  -3 91.8621 5.50053   9
   5   7   3 85.9134 5.50412   1
   5   7   3 89.7567 5.09143  13
   5   7   3 85.9919 5.71285  16
  -5   7  -3 94.9152 5.29459   6
   7  -7   3 460.461 16.2947   4
  -7  -7  -3 458.050 20.4748  10
  -7  -7  -3 419.121 17.5289   2
   7   7   3 445.160 16.0210  13
  -7   7  -3 468.852 21.2973   3
  -7   7  -3 448.238 16.0631   9
   7   7   3 473.707 16.5739   1
  -7   7  -3 457.609 15.4333   6
 -10  -8   3 35.7816 5.56753  10
 -10   8   3 33.2278 6.14380   8
  10   8  -3 37.3307 4.22146  12
 -10   8   3 33.9964 5.59667   3
  10   8  -3 30.7714 4.30977   1
 -10   8   3 34.5191 7.41942  14
  -8  -8   3 169.078 8.42579   7
   8  -8  -3 160.688 8.40291   5
  -8  -8   3 154.260 11.3705  10
  -8   8   3 174.853 11.0245   3
  -8   8   3 166.943 10.9315   8
   8   8  -3 170.669 8.04763   1
   8   8  -3 157.934 8.36588  16
   8   8  -3 163.909 8.29325  12
  -8   8   3 145.188 11.7546  14
  -8   8   3 183.659 8.39567   6
  -6  -8   3 298.796 11.4746   7
  -6  -8   3 299.920 12.6506   2
   6  -8  -3 303.563 13.3874  15
  -6  -8   3 316.286 15.4625  10
   6  -8  -3 311.876 12.3714  11
   6   8  -3 300.721 10.9423   1
  -6   8   3 320.733 11.3408   6
  -6   8   3 299.688 13.7822   3
  -6   8   3 285.987 14.7679  14
   6   8  -3 299.106 11.5458  12
  -6   8   3 306.591 13.9445   8
   6   8  -3 302.040 11.3046  16
   4  -8  -3 44.0634 4.87092  15
  -4  -8   3 65.5203 4.42165   7
   4  -8  -3 51.1119 4.35150   2
  -4  -8   3 51.5085 4.75440   2
  -4  -8   3 53.7178 6.32951  10
   4   8  -3 46.1981 3.11067  16
  -4   8   3 45.6240 4.75758  14
  -4   8   3 49.2260 3.29897   6
   4   8  -3 54.8461 3.97773  12
   4   8  -3 47.1608 3.10778   1
  -4   8   3 43.9305 4.80001   8
  -2  -8   3 507.276 16.0459   7
  -2  -8   3 507.891 19.0252  10
   2  -8  -3 487.386 17.0357  11
   2  -8  -3 501.184 17.1248   2
   2  -8  -3 489.967 18.0963  15
   2   8  -3 485.822 15.4195  12
  -2   8   3 478.675 14.9334   6
  -2   8   3 490.115 17.9249   8
   2   8  -3 500.620 15.6882   6
   0  -8   3 199.905 10.5374  10
   0  -8  -3 199.636 9.95338   2
   0  -8  -3 210.890 9.50770  11
   0  -8   3 198.674 8.20111   7
   0  -8  -3 206.621 9.27910  10
   0  -8  -3 200.766 9.97496  15
   0   8  -3 208.718 7.62979   9
   0   8   3 199.138 7.86700   1
   0   8   3 198.080 7.33495  13
   0   8  -3 201.457 7.89072   6
   0   8   3 208.769 9.95866   8
   0   8   3 189.752 7.00752   6
  -2  -8  -3 147.950 8.68940  10
  -2  -8  -3 129.328 7.79773  15
  -2  -8  -3 137.804 7.93005  11
   2  -8   3 143.584 7.05791   7
  -2  -8  -3 152.045 9.46560   2
   2   8   3 131.996 6.37755   1
  -2   8  -3 138.205 6.25611   6
  -2   8  -3 141.125 6.23401   9
   2   8   3 143.652 6.05964  13
  -2   8  -3 126.110 6.83030   8
   2   8   3 124.666 6.52422  16
   4  -8   3 390.555 14.8976   7
  -4  -8  -3 448.177 17.6559  10
  -4  -8  -3 418.717 17.2485   2
  -4   8  -3 396.732 15.8523   8
   4   8   3 392.060 14.3421  16
   4   8   3 399.180 13.5665  13
  -4   8  -3 402.266 14.0533   9
   4   8   3 399.077 14.1255   1
  -4   8  -3 396.275 13.8040   6
  -6  -8  -3 79.4555 7.03221   2
   6  -8   3 84.3291 6.42829   7
  -6  -8  -3 92.4797 8.56599  10
   6   8   3 66.6677 7.01996  13
  -6   8  -3 88.1511 5.92920   9
   6   8   3 84.5820 5.79443  16
  -6   8  -3 84.9425 5.58914   6
  -6   8  -3 88.9671 8.23655   3
   6   8   3 82.2557 5.53383   1
  -9  -9   3 280.164 15.6682  10
  -9   9   3 277.673 17.5890  14
  -9   9   3 264.350 14.4764   3
  -9   9   3 303.857 15.6037   8
   9   9  -3 269.694 11.9035  12
   9   9  -3 276.281 11.5857   1
  -7  -9   3 886.954 32.3849  10
  -7  -9   3 885.135 27.7039   7
   7  -9  -3 942.451 28.9634  11
   7   9  -3 932.643 28.2982  12
   7   9  -3 895.938 27.2509   1
  -7   9   3 854.926 33.3945  14
  -7   9   3 939.291 31.9274   3
   7   9  -3 871.960 27.7082  16
  -7   9   3 956.092 32.2272   8
  -7   9   3 889.727 27.2751   6
   5  -9  -3 453.064 16.3087   2
  -5  -9   3 471.131 19.7714  10
  -5  -9   3 448.992 15.4904   7
   5  -9  -3 483.475 17.0117  11
  -5  -9   3 452.498 17.4877   2
  -5   9   3 459.985 15.2406   6
   5   9  -3 455.414 14.7540   1
   5   9  -3 460.249 15.7618  12
   5   9  -3 434.025 14.9888  16
  -5   9   3 491.054 18.9381   8
  -5   9   3 411.376 18.6128  14
   3  -9  -3 833.864 25.7980  11
   3  -9  -3 772.391 26.7130  15
   3  -9  -3 790.669 25.3953   2
  -3  -9   3 782.290 25.7991   2
  -3  -9   3 782.287 27.7670  10
  -3  -9   3 799.588 24.0476   7
   3   9  -3 799.947 23.8914  12
  -3   9   3 784.098 23.3084   6
  -3   9   3 800.944 26.7674   8
   3   9  -3 789.269 23.8736   6
   1  -9  -3 193.512 10.3163  15
   1  -9  -3 202.869 10.2312   2
   1  -9  -3 184.519 9.17333  10
   1  -9  -3 203.743 9.82541  11
  -1  -9   3 204.700 10.8151  10
  -1  -9   3 195.354 8.39648   7
  -1   9   3 202.833 10.3934   8
   1   9  -3 201.219 7.64346   9
   1   9  -3 194.119 8.09434   6
  -1   9   3 202.416 7.48820   6
  -1  -9  -3 521.215 19.7365  15
  -1  -9  -3 539.600 19.4388  10
  -1  -9  -3 556.659 20.3316   2
   1  -9   3 520.348 20.4091  10
   1  -9   3 518.369 17.4517   7
  -1  -9  -3 534.133 19.0031  11
  -1   9  -3 528.012 16.7348   9
  -1   9  -3 510.678 16.8824   6
   1   9   3 517.803 16.7918   1
  -3  -9  -3 178.573 9.56319  11
  -3  -9  -3 172.775 10.0484  10
   3  -9   3 189.694 11.4741  10
  -3  -9  -3 187.563 10.6571   2
   3  -9   3 167.249 8.51600   7
   3   9   3 179.612 8.48671  16
  -3   9  -3 179.117 8.04167   6
   3   9   3 184.462 8.22453   1
  -3   9  -3 178.395 7.84669   9
  -3   9  -3 157.954 8.77205   8
  -5  -9  -3 640.645 24.3801  10
  -5  -9  -3 613.097 22.9134   2
   5  -9   3 612.872 21.1612   7
  -5   9  -3 598.758 19.8388   6
  -5   9  -3 638.454 20.4301   9
   5   9   3 580.894 20.3984  16
   5   9   3 590.331 20.1106   1
  -7  -9  -3 240.818 14.0678  10
  -7  -9  -3 222.683 11.8086   2
  -7   9  -3 219.814 9.75750   6
  -7   9  -3 208.930 10.1922   9
   7   9   3 220.433 10.1603   1
   8 -10  -3 9.21270 3.13627   5
  -8 -10   3 14.9380 5.32368  10
  -8  10   3 13.9063 4.80206  14
  -8  10   3 17.6806 4.56587   3
   8  10  -3 12.8053 2.76087   1
  -8  10   3 11.9499 2.56632   6
  -8  10   3 9.65645 4.04062   8
   8  10  -3 12.4132 2.78639  12
  -6 -10   3 71.4265 6.91819   2
  -6 -10   3 86.4484 8.47699  10
   6 -10  -3 79.3994 6.93448  11
  -6  10   3 74.6750 7.67946  14
   6  10  -3 85.9695 6.06693  12
  -6  10   3 78.4795 5.54968   6
  -6  10   3 83.2761 7.47653   8
   6  10  -3 87.3611 5.51588   6
   4 -10  -3 6.67191 2.93356   2
  -4 -10   3 5.50793 2.23147   7
   4 -10  -3 4.05550 2.83345  11
  -4 -10   3 1.21503 3.45296  10
  -4 -10   3 8.14923 2.84472   2
   4  10  -3 6.96544 1.79830   6
   4  10  -3 5.48722 2.09768  12
  -4  10   3 3.70468 1.87669   6
  -4  10   3 9.97609 3.40454   8
  -2 -10   3 127.380 6.63975   7
   2 -10  -3 125.416 8.36280   2
  -2 -10   3 127.763 9.04757  10
   2 -10  -3 135.805 8.00647  11
  -2 -10   3 122.110 8.18902   2
  -2  10   3 133.156 6.18752   6
  -2  10   3 133.029 8.80611   8
   2  10  -3 132.776 6.75501   6
   0 -10   3 23.8896 4.41357  10
   0 -10   3 39.0750 4.02831   7
   0 -10  -3 25.4242 4.35386  10
   0 -10  -3 21.8623 4.21106  11
   0 -10  -3 26.2324 4.94583   2
   0  10   3 21.1613 4.17879   8
   0  10  -3 22.4918 3.28327   6
   0  10  -3 21.5023 2.72930   9
  -2 -10  -3 1.93311 2.93769  11
   2 -10   3 3.84028 2.04699   7
  -2 -10  -3 0.59149 2.68436  10
  -2 -10  -3 3.14067 3.86354   2
   2 -10   3 3.62677 2.29375  10
  -2  10  -3 1.61939 1.82341   6
   2  10   3 1.89464 1.90384   1
  -2  10  -3 7.40105 2.11969   9
  -4 -10  -3 85.8544 8.38001   2
   4 -10   3 94.9060 8.97881  10
   4 -10   3 91.6014 6.35177   7
  -4 -10  -3 89.2435 8.25599  10
  -4  10  -3 80.1003 5.74319   6
   4  10   3 86.1444 5.64580   1
   4  10   3 79.3966 6.10957  16
  -4  10  -3 88.1942 5.60995   9
  -6 -10  -3 12.8183 4.21330  10
  -6 -10  -3 14.4309 3.92252   2
  -6  10  -3 13.3374 2.87373   6
  -6  10  -3 8.88776 2.73637   9
   6  10   3 18.3621 3.49576   1
  -7 -11   3 73.5234 9.01542  10
   7 -11  -3 68.6722 6.78511  11
  -7  11   3 76.1230 8.21568   8
  -7  11   3 71.8102 5.19433   6
   7  11  -3 68.1305 6.01400  12
  -7  11   3 59.6743 9.70680  14
  -5 -11   3 358.466 18.4981  10
   5 -11  -3 386.548 16.2741  11
   5 -11  -3 374.753 15.4400   2
  -5  11   3 378.075 17.4711   8
   5  11  -3 373.303 13.8427   6
  -5  11   3 361.661 13.4179   6
   5  11  -3 382.118 14.3542  12
  -3 -11   3 333.753 14.9257   2
   3 -11  -3 325.886 14.2823   2
   3 -11  -3 330.074 14.4836  11
  -3 -11   3 330.306 16.7530  10
  -3  11   3 292.165 14.7043   8
  -3  11   3 300.598 11.6540   6
   3  11  -3 311.663 12.1885   6
   1 -11  -3 900.261 30.1033  11
  -1 -11   3 924.261 30.8260   2
   1 -11  -3 895.317 30.5001   2
  -1 -11   3 943.390 33.0406  10
   1  11  -3 931.095 28.0966   6
  -1  11   3 935.556 31.5414   8
  -1 -11  -3 492.595 20.4808   2
  -1 -11  -3 503.238 19.4111  11
   1 -11   3 498.668 21.3990  10
   1  11   3 513.244 20.4352   8
  -1  11  -3 510.679 16.9617   9
  -1  11  -3 494.947 17.2581   6
  -3 -11  -3 550.941 22.4663   2
  -3 -11  -3 537.030 20.5942  11
   3 -11   3 572.943 23.2022  10
  -3 -11  -3 551.109 21.7134  10
   3  11   3 534.199 18.6758   1
   3  11   3 553.644 21.6926   8
  -3  11  -3 539.718 18.7041   6
  -3  11  -3 569.638 19.0261   9
  -5 -11  -3 166.206 11.1276  10
  -5 -11  -3 178.444 11.1129   2
   5 -11   3 181.493 12.0046  10
  -5  11  -3 161.198 8.81268   9
   5  11   3 160.129 8.76028   1
  -5  11  -3 163.087 8.66021   6
  -6 -12   3 61.2865 8.67051  10
   6 -12  -3 52.1883 6.45201  11
  -6 -12   3 44.4766 6.44847   2
  -6  12   3 48.7279 6.76243   8
  -6  12   3 57.6013 5.23925   6
  -4 -12   3 298.680 16.9749  10
   4 -12  -3 303.337 14.1410   2
   4 -12  -3 288.368 14.3353  11
   4  12  -3 306.967 12.1591   6
  -4  12   3 295.256 11.7051   6
  -4  12   3 303.360 15.2651   8
   2 -12  -3 47.6786 5.78720   2
   2 -12  -3 53.4822 5.82118  11
  -2 -12   3 48.4121 6.28084   2
  -2 -12   3 46.1206 7.11996  10
   2  12  -3 50.4132 4.75405   6
  -2  12   3 51.9274 6.63328   8
  -2  12   3 48.6074 4.23852   6
   0 -12  -3 160.575 10.9826   2
   0 -12   3 165.759 11.8107  10
   0 -12  -3 161.941 9.69149  11
   0 -12   3 168.041 10.6917   2
   0  12   3 158.598 10.1904   8
   0  12  -3 170.024 8.29588   6
  -2 -12  -3 182.594 12.0907   2
   2 -12   3 167.598 11.9254  10
  -2 -12  -3 175.222 10.6285  11
   2 -12   3 175.278 10.8291   2
   2  12   3 173.577 11.1150   8
  -2  12  -3 174.656 8.99767   6
  -2  12  -3 189.933 8.90489   9
   3 -13  -3 5.48032 2.89161   2
  -3 -13   3 8.57329 3.86358   2
  -3 -13   3 12.1973 5.35246  10
   3 -13  -3 8.04782 3.95713  11
  -3  13   3 10.3815 3.82294   8
  -3  13   3 5.14742 2.21100   6
   3  13  -3 7.49265 2.18538   6
  -1 -13   3 541.012 21.7483   2
   1 -13  -3 534.595 21.1595  11
   1 -13  -3 525.919 21.8744   2
  -1 -13   3 585.348 24.1394  10
   1  13  -3 550.435 19.0616   6
  -1  13   3 567.265 22.5805   8
   1 -13   3 4.45210 3.91702  10
   1 -13   3 1.12178 2.34317   2
  -1 -13  -3 9.74271 3.94584   2
  -1 -13  -3 2.90549 3.50688  11
  -1  13  -3 2.15685 1.78591   6
   1  13   3 2.90506 2.99425   8
  12   0  -4 1526.99 46.6809   1
  12   0  -4 1510.39 45.1168  12
 -12   0   4 1586.66 52.1927  14
 -12   0   4 1579.38 51.2749   3
  10   0  -4 92.6688 6.66943  16
  10   0  -4 85.8007 6.10855   1
 -10   0   4 90.6176 7.36824   3
  10   0  -4 94.8000 5.80578  12
 -10   0   4 105.396 8.69608  14
  -8   0   4 3520.95 97.1707   3
  -8   0   4 3578.51 99.1024  14
   8   0  -4 3528.29 93.4987   5
   8   0  -4 3576.48 95.3609   1
   8   0  -4 3623.59 95.3010  16
   8   0  -4 3545.26 94.4688  12
  -6   0   4 123.923 5.39742   8
  -6   0   4 122.863 7.32857  14
  -6   0   4 129.916 5.57194   7
   6   0  -4 126.424 5.66992  16
   6   0  -4 116.620 5.28117  12
   6   0  -4 127.426 5.26566   5
  -6   0   4 114.156 5.07233  10
   6   0  -4 125.358 4.98390  15
   4   0  -4 3412.11 93.0369  15
   4   0  -4 3458.14 87.3205   5
  -4   0   4 3245.35 89.4842   8
   4   0  -4 3387.96 87.1234  12
  -4   0   4 3340.99 86.8354   4
   4   0  -4 3287.66 88.0994  11
  -4   0   4 3222.78 88.8573  10
  -4   0   4 3415.18 87.1066   7
   2   0  -4 19.0230 1.49423  11
  -2   0   4 19.7621 1.38578  13
   2   0  -4 17.1684 1.18987   2
   2   0  -4 14.5289 1.18514  12
   2   0  -4 18.4758 1.46108   5
   2   0  -4 18.4235 1.92120  15
  -2   0   4 17.6697 1.36997   7
  -2   0   4 20.7052 1.36347   4
   0   0  -4 2873.86 74.1786   5
   0   0   4 2930.54 74.7879   1
   0   0  -4 2733.64 73.5770  11
   0   0  -4 2852.59 75.4458   3
   0   0  -4 2813.24 80.2992  15
   0   0  -4 2630.23 73.6067   2
   0   0   4 2833.88 74.5812  13
   0   0   4 2824.29 72.9401   4
   2   0   4 652.976 18.5863  13
  -2   0  -4 646.213 19.3936   2
   2   0   4 625.432 17.6810   1
  -2   0  -4 619.755 18.7732   3
   2   0   4 683.730 18.4251   4
   2   0   4 642.742 17.8900  16
  -2   0  -4 654.885 18.7181  11
   4   0   4 2894.04 74.8476  13
  -4   0  -4 2742.27 74.3067   9
  -4   0  -4 2827.03 75.7955   2
   4   0   4 2858.72 73.6590   1
   4   0   4 2937.24 74.5592   4
  -4   0  -4 2587.00 75.7538   3
   4   0   4 2839.45 73.9528  16
  -4   0  -4 2756.91 73.9404  11
   6   0   4 393.766 14.1601  13
  -6   0  -4 376.978 13.3034   9
   6   0   4 404.027 13.1097   1
   6   0   4 396.940 13.8276   4
   6   0   4 393.343 13.3694  16
  -6   0  -4 395.009 16.0556   3
   8   0   4 1035.74 32.0350  13
  -8   0  -4 1042.10 34.8531   3
  -8   0  -4 960.797 29.9775   9
   8   0   4 1022.85 31.3659   4
 -11  -1   4 58.8902 6.80979  14
  11  -1  -4 49.5195 5.58784  16
  11  -1  -4 53.8736 4.63992  12
 -11  -1   4 57.7967 6.45894   3
  11  -1  -4 58.8515 6.03664   1
  11   1  -4 51.7791 4.63447  12
  11   1  -4 56.4799 6.08999   1
  11   1  -4 51.6248 5.71326  16
 -11   1   4 63.2037 7.60571  14
 -11   1   4 61.2901 7.45719   3
   9  -1  -4 42.0703 4.50113  16
  -9  -1   4 30.7372 4.43109   3
  -9  -1   4 37.7287 3.64273  10
  -9  -1   4 42.0949 5.61972  14
   9  -1  -4 33.0849 4.25271   1
   9  -1  -4 33.2026 3.73494  12
   9   1  -4 37.5416 4.25130  16
   9   1  -4 33.9321 3.85520   1
  -9   1   4 44.4604 6.52707  14
  -9   1   4 38.1840 4.54085   3
   9   1  -4 32.5546 3.71361  12
   7  -1  -4 625.705 18.6594   5
  -7  -1   4 635.616 22.1437  14
   7  -1  -4 634.446 19.7092  16
   7  -1  -4 643.653 19.2696  12
  -7  -1   4 651.421 19.4421   7
  -7  -1   4 624.878 19.6080  10
  -7   1   4 629.428 20.9416   3
  -7   1   4 603.573 19.7092   8
  -7   1   4 655.804 22.8485  14
   7   1  -4 609.990 19.4080  16
   7   1  -4 633.004 18.5763   5
   7   1  -4 618.910 19.1825  12
   7   1  -4 638.123 19.6325   1
  -5  -1   4 17.9592 2.15859   7
   5  -1  -4 17.4515 1.87846  12
   5  -1  -4 23.1619 2.06914  15
   5  -1  -4 21.7713 2.21029   5
  -5  -1   4 19.4480 2.18134  10
  -5  -1   4 15.1126 1.44730   8
   5  -1  -4 19.6395 1.57586  11
  -5  -1   4 18.7963 1.81095   4
   5   1  -4 18.4917 1.72327  15
  -5   1   4 25.8554 2.99199  14
   5   1  -4 18.4427 1.80004  12
  -5   1   4 19.0922 2.12207   3
   5   1  -4 16.5403 1.23166  11
   5   1  -4 17.3122 1.93232   5
  -5   1   4 21.6467 1.79887   7
  -5   1   4 16.4539 1.85247   8
   5   1  -4 17.3270 1.75272  16
  -3  -1   4 378.811 11.0478   4
   3  -1  -4 374.336 10.5117   2
   3  -1  -4 390.013 11.6230   5
   3  -1  -4 384.030 11.5354  11
  -3  -1   4 376.892 11.3394   7
   3  -1  -4 392.954 12.4396  15
  -3  -1   4 384.406 11.4171  10
   3   1  -4 384.616 11.9943  15
   3   1  -4 369.710 11.1488  11
  -3   1   4 371.517 11.1041   3
  -3   1   4 379.567 11.4684   8
   3   1  -4 370.399 11.3304   5
  -3   1   4 387.032 10.9510   7
  -3   1   4 378.409 11.0652   4
   3   1  -4 378.526 11.1055  12
  -1  -1   4 408.599 12.1770   7
  -1  -1   4 410.181 11.9010   4
  -1  -1   4 421.514 11.7189  13
   1  -1  -4 417.527 12.1835   5
   1  -1  -4 418.014 12.6519  11
   1  -1  -4 436.335 12.4734   2
   1  -1  -4 435.265 13.3963  15
  -1   1   4 412.647 11.8025   4
   1   1  -4 409.794 11.3773  12
  -1   1   4 420.355 11.6948   7
   1   1  -4 417.812 12.0648   5
   1   1  -4 403.414 12.3532  11
  -1   1   4 409.663 11.9729  13
   1   1  -4 423.956 13.0933  15
   1  -1   4 148.219 4.60389   1
  -1  -1  -4 166.608 6.42384  15
  -1  -1  -4 155.720 4.99204   5
   1  -1   4 155.562 4.72479  16
   1  -1   4 156.752 5.49038   4
   1  -1   4 147.616 5.33046  13
  -1  -1  -4 154.567 5.16987   3
  -1  -1  -4 163.909 5.99087  11
  -1  -1  -4 157.796 6.30011   2
  -1   1  -4 164.025 5.90034  11
   1   1   4 152.386 5.57377  13
   1   1   4 150.396 5.18174  16
   1   1   4 152.182 5.03485   1
  -1   1  -4 151.645 5.75513   3
   1   1   4 149.678 5.24338   4
  -1   1  -4 158.048 5.05330   5
  -1   1  -4 158.402 4.76827   6
   3  -1   4 438.337 13.5814  13
  -3  -1  -4 446.862 14.7410   2
  -3  -1  -4 431.683 14.1276   3
   3  -1   4 428.687 12.5747   1
  -3  -1  -4 452.524 13.8800  15
   3  -1   4 456.487 13.6551   4
   3  -1   4 430.069 12.7697  16
  -3  -1  -4 429.107 13.4175  11
   3   1   4 427.565 12.9257   1
  -3   1  -4 452.152 13.6585   9
   3   1   4 434.469 13.3173   4
   3   1   4 438.255 13.7875  13
  -3   1  -4 430.890 14.5846   3
   3   1   4 432.122 13.2261  16
  -3   1  -4 441.075 13.5017  11
  -5  -1  -4 12.4074 2.44002   3
   5  -1   4 13.3739 2.14444   4
   5  -1   4 11.5449 1.71067   1
   5  -1   4 12.6925 2.16596  13
  -5  -1  -4 12.2968 2.35813   2
  -5  -1  -4 14.3721 2.18584   9
   5  -1   4 10.8088 1.73802  16
   5   1   4 10.8729 2.05518   4
   5   1   4 11.9224 1.77262   1
  -5   1  -4 15.1649 2.91740   3
   5   1   4 20.5102 2.68601  13
   5   1   4 14.1399 2.18296  16
  -5   1  -4 17.0157 2.37425   9
   7  -1   4 17.4070 3.21104   4
  -7  -1  -4 20.7941 3.94582   3
  -7  -1  -4 15.3872 2.29506   9
   7  -1   4 18.4212 3.37335  13
   7   1   4 14.9168 2.76565   4
  -7   1  -4 16.7200 2.36987   9
   7   1   4 13.9262 2.56838  16
   7   1   4 17.5434 3.33921  13
   7   1   4 14.2003 2.49016   1
  -7   1  -4 13.1287 3.45668   3
   9  -1   4 89.2779 6.58495  13
   9  -1   4 75.0698 6.28942   4
  -9   1  -4 74.8978 5.29835   9
  -9   1  -4 70.5524 7.70643   3
   9   1   4 83.4144 6.30362   4
   9   1   4 84.0601 6.89892  13
  12  -2  -4 90.3284 7.62034   1
 -12  -2   4 109.377 9.75197   3
 -12   2   4 104.128 10.2208  14
  12   2  -4 101.714 7.72364   1
 -12   2   4 126.289 9.85786   3
  12   2  -4 98.4745 7.43203  13
  10  -2  -4 343.854 14.3129  16
  10  -2  -4 339.163 14.1975   1
 -10  -2   4 347.534 16.3341   3
  10  -2  -4 352.431 13.4173  12
 -10  -2   4 356.074 16.7432  14
 -10  -2   4 343.773 14.3290  10
  10   2  -4 339.788 13.9539   1
  10   2  -4 372.021 13.7925  12
  10   2  -4 356.496 14.3086  16
 -10   2   4 370.020 16.7926   3
 -10   2   4 371.623 18.4252  14
  -8  -2   4 236.187 10.2150  10
   8  -2  -4 236.547 9.40720  12
   8  -2  -4 245.103 9.04535   5
  -8  -2   4 268.496 9.95268   7
   8  -2  -4 234.695 10.0907  16
  -8  -2   4 259.220 12.3743  14
  -8   2   4 229.703 10.3042   8
  -8   2   4 243.432 11.3402   3
   8   2  -4 241.918 9.47157  12
   8   2  -4 238.676 9.88255  16
  -8   2   4 248.941 12.7697  14
   8   2  -4 226.144 8.50915   5
   8   2  -4 229.633 9.50158   1
  -6  -2   4 2656.75 70.2149   7
   6  -2  -4 2636.08 69.0527  11
  -6  -2   4 2594.69 70.9481  10
   6  -2  -4 2686.26 70.0203  12
   6  -2  -4 2656.52 69.9565   5
   6  -2  -4 2656.63 70.3538  15
   6   2  -4 2703.42 70.0239  12
   6   2  -4 2574.99 69.8709  16
   6   2  -4 2613.53 69.8418   1
   6   2  -4 2626.30 69.5536   5
  -6   2   4 2613.40 73.4684  14
  -6   2   4 2619.04 71.4280   3
  -6   2   4 2600.14 70.7945   8
  -4  -2   4 1830.35 50.3734  10
  -4  -2   4 1832.06 49.2477   4
  -4  -2   4 1874.18 49.9210   7
   4  -2  -4 1902.01 50.1172   5
   4  -2  -4 1973.83 50.1346  11
   4  -2  -4 1941.27 51.1407  15
  -4   2   4 1881.95 50.3496   8
   4   2  -4 1881.80 49.7367   5
   4   2  -4 1862.36 49.4239   1
  -4   2   4 1859.87 49.0849   7
   4   2  -4 1874.67 49.6138  12
   4   2  -4 1841.85 49.1309  11
  -4   2   4 1829.34 51.8958  14
  -4   2   4 1855.45 50.1474   3
  -4   2   4 1854.85 49.3266   4
   4   2  -4 1838.84 49.3502  16
   2  -2  -4 8019.26 222.635  15
   2  -2  -4 8098.06 216.332  11
  -2  -2   4 7692.78 213.885   7
  -2  -2   4 7964.08 211.614   4
  -2  -2   4 7485.65 209.989  13
   2  -2  -4 8145.08 214.630   2
  -2  -2   4 7158.53 215.022  10
   2  -2  -4 8268.67 215.552   5
  -2   2   4 8842.41 214.036  13
   2   2  -4 8251.31 209.516  16
  -2   2   4 8161.80 208.634   7
   2   2  -4 8236.23 211.632  12
   2   2  -4 7749.61 213.322   5
   2   2  -4 7476.40 213.193  11
  -2   2   4 8933.42 211.802   4
   0  -2  -4 1283.60 33.9427  11
   0  -2   4 1186.58 32.6666   4
   0  -2   4 1178.93 32.3099  13
   0  -2  -4 1248.34 34.5618  15
   0  -2  -4 1271.15 33.9727   2
   0  -2  -4 1222.39 32.8999   5
   0  -2   4 1187.32 33.2653   7
   0   2  -4 1219.12 32.7313   5
   0   2  -4 1217.67 32.7534   9
   0   2  -4 1240.80 33.3929  11
   0   2   4 1251.22 32.7341  16
   0   2   4 1222.50 32.4756   4
   0   2   4 1236.18 32.5260   1
   0   2   4 1206.09 32.8261  13
   2  -2   4 3537.92 91.3285   1
  -2  -2  -4 3567.61 93.6637  15
  -2  -2  -4 3340.08 92.0447   5
  -2  -2  -4 3229.15 92.5310   3
  -2  -2  -4 3378.09 92.9866  11
   2  -2   4 3611.95 92.6382   4
  -2  -2  -4 3379.77 94.0527   2
   2  -2   4 3654.43 92.5388  13
  -2   2  -4 3336.38 93.7525   3
  -2   2  -4 3496.22 91.7666   6
   2   2   4 3608.96 92.2692   4
   2   2   4 3679.60 92.3181   1
   2   2   4 3745.70 92.9575  13
  -2   2  -4 3812.25 92.9620   9
   2   2   4 3746.08 92.6372  16
  -2   2  -4 3741.43 93.1590  11
   4  -2   4 43.7747 2.69870  16
   4  -2   4 49.5645 3.59308   4
  -4  -2  -4 44.9543 4.05162   2
  -4  -2  -4 48.2498 3.04562  11
   4  -2   4 48.7937 3.49738  13
  -4  -2  -4 51.0350 3.75997   3
   4   2   4 65.0957 3.73786  16
   4   2   4 47.1230 3.68741  13
  -4   2  -4 53.5623 3.57054   9
  -4   2  -4 47.6525 4.12542   3
   4   2   4 47.1953 3.23539   4
   4   2   4 67.3569 3.55675   1
   6  -2   4 756.365 23.5405  13
   6  -2   4 761.925 23.4412   4
  -6  -2  -4 747.804 24.5452   2
  -6   2  -4 742.349 22.8561   9
   6   2   4 749.800 22.6564   1
  -6   2  -4 751.904 26.3155   3
   6   2   4 752.636 22.8828   4
   6   2   4 734.986 22.9625  16
   6   2   4 756.721 23.7625  13
   8  -2   4 27.3631 4.13988  13
   8  -2   4 31.0782 4.24775   4
   8   2   4 25.7319 3.27583   1
  -8   2  -4 23.6008 4.72211   3
   8   2   4 30.6613 3.84973   4
   8   2   4 19.0513 3.85372  13
   8   2   4 23.0276 3.20099  16
  -8   2  -4 29.5562 3.65118   9
  11  -3  -4 26.1506 4.61715   1
  11  -3  -4 18.2968 3.64662  16
 -11  -3   4 21.0496 4.57318   3
  11  -3  -4 17.0327 3.11704  12
  11   3  -4 25.7845 3.44933  12
 -11   3   4 26.8575 4.90527   3
  11   3  -4 23.7121 3.74298  13
 -11   3   4 21.1757 5.23654  14
  11   3  -4 24.2345 4.38846  16
  11   3  -4 22.3697 3.67378   1
  -9  -3   4 56.9765 5.01320  10
   9  -3  -4 62.6934 4.84012  12
   9  -3  -4 62.6715 5.19379  16
  -9  -3   4 63.5653 6.22628  14
  -9   3   4 57.2195 7.18566  14
   9   3  -4 54.8692 4.62270  12
  -9   3   4 60.9117 5.63229   8
   9   3  -4 55.6193 4.90529   1
  -9   3   4 65.3548 6.25460   3
   9   3  -4 55.6535 4.67868  16
   7  -3  -4 96.7091 5.16549  15
   7  -3  -4 90.9911 4.92910  12
  -7  -3   4 94.9593 6.00534  10
  -7  -3   4 88.8862 5.14892   7
   7  -3  -4 89.3163 5.00286   5
   7   3  -4 101.313 5.33696  12
   7   3  -4 99.8266 5.38522  16
  -7   3   4 90.5899 5.89496   3
   7   3  -4 95.1477 5.13401   1
  -7   3   4 85.5394 5.48991   8
   7   3  -4 83.4943 4.34000   5
  -7   3   4 95.9871 7.12117  14
   5  -3  -4 138.231 6.61656  15
   5  -3  -4 135.792 5.93097   5
  -5  -3   4 160.726 7.06008  10
   5  -3  -4 135.204 5.68666  11
  -5  -3   4 121.549 4.72580   2
  -5  -3   4 132.343 5.73363   7
   5   3  -4 127.289 5.27342  16
   5   3  -4 131.248 5.40800   5
   5   3  -4 125.327 5.18175   1
  -5   3   4 124.727 5.99015   3
   5   3  -4 132.775 5.58982  12
  -5   3   4 129.530 6.21328   8
  -5   3   4 127.181 7.26753  14
  -3  -3   4 198.685 7.72268  10
   3  -3  -4 217.681 8.57843  15
  -3  -3   4 195.624 7.02832   7
   3  -3  -4 207.108 6.96071   2
   3  -3  -4 206.419 7.63978  11
  -3  -3   4 193.972 6.41212   4
  -3   3   4 197.223 6.72309   3
  -3   3   4 193.889 7.91543  14
   3   3  -4 190.652 6.06375   1
   3   3  -4 190.464 5.59396   9
  -3   3   4 200.132 6.38916   4
   3   3  -4 193.810 6.15090  16
   3   3  -4 199.294 6.61900  12
  -3   3   4 194.442 6.34891   6
  -3   3   4 196.124 7.57857   8
   3   3  -4 194.752 6.87647   5
   1  -3  -4 371.588 12.6996  15
   1  -3  -4 356.811 11.5063   2
   1  -3  -4 365.841 11.8763  11
   1  -3  -4 349.422 10.2701  10
  -1  -3   4 343.611 10.9925   7
  -1  -3   4 339.235 10.2666   4
  -1  -3   4 335.421 9.65709  13
   1   3  -4 353.720 10.6722   5
   1   3  -4 336.545 9.92166  12
   1   3  -4 337.486 10.8757  11
  -1   3   4 356.896 10.6069  13
   1   3  -4 342.090 10.1545   9
  -1   3   4 347.482 10.3538   1
  -1   3   4 355.679 10.0455   4
   1  -3   4 36.9128 2.07910  13
  -1  -3  -4 46.0022 3.69188   2
  -1  -3  -4 40.6865 3.51370  15
  -1  -3  -4 42.4041 3.08675  11
   1  -3   4 40.0728 2.45927   4
  -1  -3  -4 42.5547 2.09117   3
  -1  -3  -4 46.6988 2.54089   5
  -1  -3  -4 47.4057 3.26717  10
  -1   3  -4 41.0786 2.20236   6
  -1   3  -4 40.8227 2.43893   9
   1   3   4 40.3213 2.61667  13
   1   3   4 43.8165 2.36441   1
   1   3   4 41.9501 2.16911   4
  -1   3  -4 42.8353 3.06510   3
  -1   3  -4 41.8460 2.24628   5
   1   3   4 42.9176 2.49057  16
   3  -3   4 249.573 8.73633   4
  -3  -3  -4 254.234 9.20071  15
   3  -3   4 247.682 8.48942  13
  -3  -3  -4 253.639 10.5649  10
  -3  -3  -4 240.014 8.90209   3
  -3  -3  -4 233.552 8.72181  11
  -3  -3  -4 259.823 10.2713   2
   3   3   4 233.871 8.06681   4
   3   3   4 244.117 8.86824  13
  -3   3  -4 247.774 8.68558   9
  -3   3  -4 248.325 10.2773   3
   3   3   4 246.931 8.65574  16
   3   3   4 238.849 8.32542   1
  -3   3  -4 236.770 7.86552   6
   5  -3   4 0.13480 1.41822   4
  -5  -3  -4 1.23666 1.88395   2
   5  -3   4 1.42171 1.50481  13
   5   3   4 0.69027 1.41441  16
   5   3   4 0.76403 1.23986   4
  -5   3  -4 -0.0324 1.22132   9
   5   3   4 0.98888 1.40001   1
  -5   3  -4 9.53427 2.50461   3
   5   3   4 -0.5069 1.49008  13
   7  -3   4 1.85233 2.08496   4
  -7  -3  -4 -0.0144 1.82545   2
  -7  -3  -4 2.58250 1.49222   9
   7  -3   4 -1.3995 1.06182  13
   7   3   4 0.53600 1.26022  16
  -7   3  -4 -1.1920 1.48776   9
  -7   3  -4 6.63638 2.76653   3
   7   3   4 2.91354 2.33941  13
   7   3   4 1.38708 1.77797   1
   7   3   4 2.40523 1.71999   4
   9  -3   4 40.1123 5.11034  13
   9  -3   4 32.7615 4.13452   4
  -9   3  -4 36.2161 3.89169   9
   9   3   4 39.2784 4.63126  13
   9   3   4 42.9678 4.53616   4
   9   3   4 34.0257 4.21312   1
  -9   3  -4 35.8986 6.17391   3
  12  -4  -4 155.369 9.48681   1
 -12  -4   4 129.472 10.7925   3
 -12   4   4 146.345 10.6779   3
  12   4  -4 150.064 8.83110   1
  12   4  -4 154.610 8.59256  12
 -10  -4   4 1456.64 47.8680   3
  10  -4  -4 1527.57 45.4665  16
 -10  -4   4 1487.64 46.5199  10
  10  -4  -4 1582.52 44.3116  12
  10   4  -4 1531.73 45.4127  16
  10   4  -4 1453.50 43.8505  13
 -10   4   4 1574.40 48.7396   3
 -10   4   4 1598.99 47.7155   8
  10   4  -4 1512.63 44.6706   1
  10   4  -4 1544.82 44.4603  12
 -10   4   4 1602.63 52.3652  14
   8  -4  -4 195.818 8.57887  12
   8  -4  -4 207.667 8.56208   5
  -8  -4   4 205.149 10.5654  14
  -8  -4   4 188.528 9.80605  10
  -8  -4   4 204.938 9.11583   7
   8   4  -4 194.141 8.61632   1
   8   4  -4 185.954 8.57225  16
  -8   4   4 214.445 12.5603  14
  -8   4   4 202.975 10.2748   8
   8   4  -4 212.286 8.91501  12
  -8   4   4 202.020 7.62395   9
  -8   4   4 211.812 10.6680   3
   6  -4  -4 2935.17 77.7906   5
   6  -4  -4 2900.65 78.6780  15
   6  -4  -4 2878.60 77.3145  11
  -6  -4   4 2825.02 79.4909  10
  -6  -4   4 2945.82 78.0481   7
   6   4  -4 2888.24 77.1389   5
   6   4  -4 2979.04 77.6546  12
  -6   4   4 2826.13 81.7417  14
  -6   4   4 2944.05 79.4657   3
   6   4  -4 2990.48 77.5561  16
  -6   4   4 3024.66 79.4923   8
   6   4  -4 2894.37 77.1628   1
  -4  -4   4 6.19582 1.70606  10
   4  -4  -4 12.5922 1.65236   2
   4  -4  -4 6.16065 1.52039  11
  -4  -4   4 8.56848 1.22573   4
   4  -4  -4 8.02721 2.00734  15
  -4  -4   4 6.57570 1.71286   7
  -4   4   4 6.67756 1.74129   8
  -4   4   4 7.16074 1.45326   3
  -4   4   4 4.61386 1.04905   6
   4   4  -4 14.3820 1.67056  12
   4   4  -4 6.04587 1.10585  16
   4   4  -4 5.58750 0.99915   1
   4   4  -4 4.86397 1.29418   5
  -4   4   4 9.08728 1.96135  14
  -2  -4   4 3170.23 87.5499   7
   2  -4  -4 3616.08 89.8606  15
  -2  -4   4 2873.68 88.6523  10
   2  -4  -4 3498.86 88.1184   2
   2  -4  -4 3250.08 87.9704  10
  -2  -4   4 3203.60 86.4832   4
   2  -4  -4 3599.61 88.6144  11
  -2   4   4 3558.42 87.1438  13
   2   4  -4 3480.66 86.8116  12
  -2   4   4 3213.67 86.3049   6
  -2   4   4 3088.27 87.7331  14
  -2   4   4 3462.49 86.3542   4
   2   4  -4 3453.45 87.3509   5
   2   4  -4 3293.54 88.2174  16
   2   4  -4 3345.25 86.1809   9
   0  -4  -4 8.89522 1.62606  10
   0  -4   4 4.34957 1.00186   4
   0  -4  -4 8.68967 2.28882   2
   0  -4  -4 6.69939 1.96075  15
   0  -4   4 6.03746 1.28825   7
   0  -4  -4 8.91965 2.27778  11
   0  -4   4 7.28094 0.81239  13
   0   4  -4 5.22923 1.00679   9
   0   4   4 4.91138 1.07726   1
   0   4  -4 6.38217 1.22748   5
   0   4   4 6.05788 0.86075   4
   0   4  -4 4.90172 0.73348  12
   0   4   4 5.99758 1.24122  13
   0   4   4 5.87762 0.66054   6
   0   4  -4 4.94737 1.02936   6
  -2  -4  -4 3527.37 93.5999   2
  -2  -4  -4 3371.33 92.9364  15
  -2  -4  -4 3183.45 92.8839  10
   2  -4   4 3607.89 91.2016   4
   2  -4   4 3471.40 90.6097  13
  -2  -4  -4 3104.17 90.5556   5
  -2  -4  -4 3455.27 92.4742  11
   2   4   4 3564.79 90.4468   4
   2   4   4 3725.87 91.6629  16
   2   4   4 3542.18 91.4322  13
   2   4   4 3682.24 91.2694   1
  -2   4  -4 3535.40 90.8386   6
  -2   4  -4 3651.59 91.4419   9
  -2   4  -4 3405.05 93.3444   3
  -4  -4  -4 153.926 8.56211  10
   4  -4   4 140.786 6.06076  13
   4  -4   4 147.818 6.54175   4
  -4  -4  -4 138.526 6.19000  11
  -4  -4  -4 149.578 7.89302   2
   4   4   4 145.298 6.64243  13
   4   4   4 139.502 6.51819  16
   4   4   4 136.425 5.65837   4
  -4   4  -4 144.694 5.73245   6
  -4   4  -4 146.765 6.56019   9
  -4   4  -4 148.606 8.36112   3
   4   4   4 139.299 6.24866   1
   6  -4   4 1934.73 52.7956   4
   6  -4   4 1935.97 52.5973  13
  -6  -4  -4 1844.18 54.5302   2
   6   4   4 1753.63 51.1821   4
   6   4   4 1882.62 52.7457  16
   6   4   4 1891.25 52.2011   1
  -6   4  -4 1954.46 57.2457   3
   6   4   4 1877.77 52.7903  13
  -6   4  -4 1902.73 52.3945   9
   8  -4   4 78.8437 6.07420  13
   8  -4   4 81.9976 6.24702   4
  -8   4  -4 70.8839 7.44759   3
   8   4   4 75.5566 6.17191  13
   8   4   4 81.7690 5.42719   1
  -8   4  -4 80.3217 5.66733   9
  11  -5  -4 54.5982 5.09497  12
  11  -5  -4 41.7206 5.57797   1
 -11  -5   4 40.6646 6.47351   3
 -11  -5   4 46.7849 6.12805  10
  11   5  -4 50.2397 5.15973   1
  11   5  -4 49.0396 4.71032  12
 -11   5   4 56.5012 9.07367  14
 -11   5   4 47.4883 6.80353   3
  -9  -5   4 183.887 10.6903  10
   9  -5  -4 188.967 8.84786  12
   9  -5  -4 179.942 8.99046  16
  -9  -5   4 194.356 9.36073   7
   9   5  -4 195.743 9.15575  12
  -9   5   4 192.185 13.1565  14
   9   5  -4 179.703 8.81864   1
  -9   5   4 187.889 10.6802   3
  -9   5   4 191.090 10.8943   8
   9   5  -4 186.335 9.05061  16
  -7  -5   4 34.0492 4.88864  10
   7  -5  -4 36.5451 3.86419  11
   7  -5  -4 34.6425 3.82225  15
   7  -5  -4 35.4509 3.68575   5
  -7  -5   4 39.2217 4.03251   7
   7   5  -4 38.1444 3.05053   1
   7   5  -4 34.3926 3.33562  16
  -7   5   4 32.7490 4.38347   8
  -7   5   4 51.1998 5.96954  14
   7   5  -4 36.5407 3.74380  12
   7   5  -4 36.6967 2.96072   5
  -7   5   4 36.5271 4.23636   3
   5  -5  -4 798.734 24.6752  15
   5  -5  -4 798.431 23.4637  11
   5  -5  -4 795.465 22.5081   2
  -5  -5   4 799.571 25.2193  10
  -5  -5   4 811.943 23.5020   7
  -5  -5   4 740.155 22.8227   2
   5   5  -4 785.825 23.0007  12
   5   5  -4 792.778 22.9150   5
  -5   5   4 770.947 26.0628  14
   5   5  -4 777.652 22.2948   1
  -5   5   4 792.716 24.7101   8
   5   5  -4 786.462 22.6056  16
  -5   5   4 770.505 24.1655   3
  -5   5   4 804.184 22.5426   6
   3  -5  -4 394.319 12.6541   2
  -3  -5   4 396.972 12.6632   7
  -3  -5   4 380.368 13.8978  10
   3  -5  -4 391.942 13.9269  15
  -3  -5   4 377.856 11.2456   4
   3  -5  -4 404.580 13.2322  11
  -3   5   4 371.467 13.4192  14
   3   5  -4 374.484 10.9879   1
  -3   5   4 380.215 13.4081   8
   3   5  -4 392.665 12.0079  12
   3   5  -4 380.009 12.2716   5
  -3   5   4 396.828 11.5702   6
  -3   5   4 361.266 12.2775   3
   1  -5  -4 458.830 14.9709   2
   1  -5  -4 454.931 13.4661  10
  -1  -5   4 418.278 12.4636   4
  -1  -5   4 452.656 15.7619  10
   1  -5  -4 446.242 15.4856  15
  -1  -5   4 436.127 13.7910   7
   1  -5  -4 430.506 14.5995  11
   1   5  -4 424.020 12.5884   9
  -1   5   4 410.490 12.9176   1
  -1   5   4 414.427 12.0123   4
   1   5  -4 409.776 13.2660   5
   1   5  -4 426.489 12.5846  12
  -1   5   4 440.372 12.2347   6
  -1   5   4 421.797 13.0832  13
   1  -5   4 1360.80 37.2109   7
  -1  -5  -4 1310.13 37.6043  10
  -1  -5  -4 1362.67 38.7294   2
  -1  -5  -4 1315.56 38.8724  15
  -1  -5  -4 1320.93 37.8970  11
   1  -5   4 1321.55 35.8146   4
  -1   5  -4 1329.17 36.1217   9
   1   5   4 1334.18 36.4686  16
   1   5   4 1306.05 36.1636  13
  -1   5  -4 1311.86 35.9688   6
   1   5   4 1309.33 35.0143   4
   1   5   4 1329.22 36.1340   1
   3  -5   4 168.516 6.80719   4
   3  -5   4 176.121 6.48642  13
  -3  -5  -4 173.748 8.03207  15
  -3  -5  -4 179.804 8.89240   2
  -3  -5  -4 182.656 9.10292  10
  -3  -5  -4 173.696 7.70816  11
  -3   5  -4 203.516 9.43197   3
  -3   5  -4 175.437 7.08650   9
   3   5   4 165.434 7.05927  13
   3   5   4 163.858 6.01436   4
  -3   5  -4 170.682 6.63856   6
  -5  -5  -4 474.281 17.7679   2
  -5  -5  -4 491.392 19.0009  10
   5  -5   4 471.942 15.6348   4
   5  -5   4 447.240 15.1204  13
   5   5   4 450.125 15.8576  16
   5   5   4 472.534 15.8857  13
   5   5   4 461.585 15.5566   1
  -5   5  -4 473.646 15.7508   9
  -5   5  -4 466.879 14.7447   6
  -5   5  -4 451.362 18.7955   3
   7  -5   4 167.045 8.41256  13
   7  -5   4 174.389 8.52148   4
  -7  -5  -4 184.685 9.93567   2
  -7   5  -4 186.286 12.0136   3
   7   5   4 176.470 8.73661  13
  -7   5  -4 179.329 8.56630   9
   7   5   4 167.635 8.71589  16
   7   5   4 170.991 8.28229   1
  10  -6  -4 2.50980 2.24817  16
  10  -6  -4 3.00431 2.33102  12
 -10  -6   4 4.56467 3.20264  10
  10   6  -4 5.40667 2.43735   1
  10   6  -4 4.28830 1.91250  16
 -10   6   4 5.42023 3.81450  14
 -10   6   4 4.75564 3.01961   3
  10   6  -4 5.54786 2.49832  12
 -10   6   4 4.32431 3.26035   8
  -8  -6   4 1277.85 37.4819   7
   8  -6  -4 1288.18 37.0846   5
  -8  -6   4 1275.56 40.4704  10
  -8   6   4 1302.52 40.3098   3
   8   6  -4 1226.73 37.0211  16
   8   6  -4 1208.68 36.4649   1
  -8   6   4 1346.55 40.4482   8
  -8   6   4 1292.36 43.5396  14
   8   6  -4 1271.94 37.1900  12
   6  -6  -4 99.4229 5.74229  11
  -6  -6   4 96.6487 5.39166   2
   6  -6  -4 106.496 6.57832  15
  -6  -6   4 101.433 7.52287  10
  -6  -6   4 102.272 5.97937   7
   6   6  -4 97.9553 5.12293   5
  -6   6   4 108.509 5.14799   6
   6   6  -4 100.098 5.34591  12
   6   6  -4 99.4472 4.90182   1
  -6   6   4 97.5935 7.58418  14
  -6   6   4 103.442 6.88498   8
   6   6  -4 101.171 5.02082  16
  -6   6   4 104.615 6.42843   3
  -4  -6   4 3425.28 94.2983   7
  -4  -6   4 3137.13 94.4405   2
   4  -6  -4 3702.72 95.0342  11
   4  -6  -4 3766.66 94.4368   2
  -4  -6   4 3222.24 92.2388   4
  -4  -6   4 3381.98 96.5792  10
   4  -6  -4 3671.97 96.4563  15
  -4   6   4 3715.55 95.2685   3
  -4   6   4 3677.01 93.3952   6
   4   6  -4 3597.10 92.8319   1
   4   6  -4 3653.31 93.1728  16
  -4   6   4 3321.72 96.4495  14
   4   6  -4 3702.77 94.2383   5
  -4   6   4 3788.60 96.3489   8
   4   6  -4 3792.49 94.1180  12
  -2  -6   4 494.843 14.7147   4
  -2  -6   4 544.085 16.6429   7
   2  -6  -4 542.244 17.3552  11
   2  -6  -4 529.556 17.0841   2
  -2  -6   4 529.166 18.6674  10
   2  -6  -4 520.720 18.0948  15
   2   6  -4 503.994 15.9814   5
   2   6  -4 529.046 15.5632  12
  -2   6   4 504.753 15.0010   6
   2   6  -4 531.335 14.9146   9
  -2   6   4 524.489 15.7424  13
  -2   6   4 522.053 17.6466   8
   0  -6   4 4092.93 103.087   7
   0  -6  -4 3773.01 102.887  10
   0  -6  -4 3740.19 103.630  11
   0  -6  -4 3931.58 104.480   2
   0  -6  -4 3773.22 104.776  15
   0   6  -4 4043.35 101.559   9
   0   6  -4 3798.23 101.786   6
   0   6   4 3978.00 101.818  13
   0   6   4 3925.43 101.790   1
  -2  -6  -4 115.442 6.80009  10
  -2  -6  -4 129.156 6.93123  11
   2  -6   4 104.497 5.90636   7
   2  -6   4 98.9441 4.65680   4
  -2  -6  -4 102.587 6.72170  15
   2   6   4 98.4163 5.02108   1
   2   6   4 107.920 5.18803  13
  -2   6  -4 98.7769 4.87292   6
   2   6   4 101.394 5.13732  16
  -2   6  -4 102.180 5.10185   9
  -4  -6  -4 1416.13 42.6371  10
  -4  -6  -4 1425.39 42.1359   2
   4  -6   4 1357.11 38.7502   4
   4   6   4 1358.91 38.9584  13
   4   6   4 1369.14 39.4874  16
  -4   6  -4 1401.42 39.2430   9
  -4   6  -4 1375.23 43.0521   3
   4   6   4 1387.02 39.0562   1
  -4   6  -4 1386.51 38.4856   6
   6  -6   4 6.08028 2.03544   4
  -6  -6  -4 3.75223 2.51802   2
  -6   6  -4 4.63790 2.45622   3
   6   6   4 2.18638 1.54892   1
  -6   6  -4 6.80536 2.25746   9
   6   6   4 6.14565 1.94856  16
   6   6   4 3.53974 2.18121  13
  -8  -6  -4 496.008 19.0971   2
   8  -6   4 441.799 17.1163   4
  -8   6  -4 505.385 22.7970   3
  -8   6  -4 500.216 17.5623   9
   8   6   4 477.377 17.6404  13
   8   6   4 488.987 17.5221   1
 -11  -7   4 58.7924 7.74912   3
 -11   7   4 49.1226 6.61869   8
 -11   7   4 44.5854 6.28371   3
  11   7  -4 50.1928 4.88553  12
  -9  -7   4 88.9238 8.20213  10
   9  -7  -4 88.5961 6.16005  12
  -9  -7   4 88.3369 6.43932   7
   9   7  -4 82.7755 5.81541   1
  -9   7   4 80.5294 9.33259  14
  -9   7   4 95.1006 8.00404   3
   9   7  -4 89.7734 6.25733  12
   9   7  -4 82.3939 6.07293  16
  -9   7   4 91.5444 8.09684   8
  -7  -7   4 2.08811 2.51803  10
  -7  -7   4 3.44363 2.37566   7
   7  -7  -4 1.36551 2.18280  15
   7  -7  -4 1.44307 1.97603  11
  -7   7   4 1.07381 1.27816   6
   7   7  -4 0.52337 1.19300  12
   7   7  -4 1.88729 1.51077   1
  -7   7   4 2.42748 2.49321  14
  -7   7   4 0.99238 2.02927   3
  -7   7   4 -0.0932 2.28199   8
   7   7  -4 1.14480 1.10519  16
  -5  -7   4 130.199 8.68281  10
  -5  -7   4 122.281 6.57197   7
   5  -7  -4 122.401 6.82295  11
   5  -7  -4 125.426 7.68746  15
   5  -7  -4 136.377 6.30331   2
  -5  -7   4 131.234 6.86528   2
   5   7  -4 129.023 6.12453  12
  -5   7   4 131.506 5.73197   6
  -5   7   4 129.143 8.28129  14
  -5   7   4 127.456 7.75059   8
   5   7  -4 118.945 5.25047   1
   5   7  -4 121.145 5.56486  16
  -5   7   4 127.161 7.13980   3
   3  -7  -4 0.87486 1.37258  11
  -3  -7   4 -0.0823 1.45409  10
  -3  -7   4 1.33786 1.28462   7
   3  -7  -4 0.96229 1.45613  15
   3  -7  -4 0.57105 1.30149   2
   3   7  -4 3.23812 1.12309  12
  -3   7   4 3.64397 1.50258  14
  -3   7   4 0.00505 1.07133   8
  -3   7   4 1.37814 1.11503   6
   1  -7  -4 0.43981 2.02941  15
   1  -7  -4 2.46104 1.51871  10
  -1  -7   4 1.82562 1.55536  10
   1  -7  -4 3.08040 1.70410  11
   1  -7  -4 1.80803 2.43341   2
  -1  -7   4 0.78078 1.51680   7
   1   7  -4 1.53668 0.91453   9
   1   7  -4 2.78790 1.31153   6
   1   7  -4 2.21587 0.87368  12
  -1   7   4 1.96568 0.85395   6
  -1   7   4 2.24104 1.18690  13
  -1   7   4 0.57552 1.68962   8
  -1  -7  -4 35.2772 4.43558  11
  -1  -7  -4 35.1496 4.50483  15
  -1  -7  -4 30.9992 3.39532  10
   1  -7   4 28.8099 2.31496   4
  -1  -7  -4 37.5382 4.93518   2
   1  -7   4 32.8033 3.22114   7
  -1   7  -4 33.8991 2.99999   6
   1   7   4 29.3535 2.81334  13
   1   7   4 34.9286 2.85978   1
  -1   7  -4 29.8492 2.76057   9
  -3  -7  -4 20.3623 3.45922  11
  -3  -7  -4 32.4939 4.94653   2
  -3  -7  -4 29.6781 4.18175  10
   3  -7   4 20.0986 3.17201   7
   3  -7   4 25.3955 2.74318   4
   3   7   4 23.0584 2.73119  13
  -3   7  -4 27.0578 3.12284   9
   3   7   4 23.0908 3.00710  16
   3   7   4 24.9680 3.07671   1
  -3   7  -4 25.8731 2.89153   6
  -5  -7  -4 14.9255 3.94434  10
  -5  -7  -4 5.66929 2.52736   2
   5  -7   4 3.16012 1.74562   4
  -5   7  -4 0.38978 1.18046   9
   5   7   4 4.64468 2.04200  13
   5   7   4 3.70332 2.07991  16
  -5   7  -4 4.58271 1.89841   6
   5   7   4 5.42272 2.23100   1
  -5   7  -4 6.42716 2.73695   3
   7  -7   4 4.42390 1.82632   4
  -7  -7  -4 5.35199 2.60288   2
  -7   7  -4 5.89845 2.49206   9
  -7   7  -4 3.18696 2.47484   3
   7   7   4 0.66143 2.18213   1
   7   7   4 2.72799 2.25904  13
 -10  -8   4 301.365 15.9437  10
  10  -8  -4 314.562 12.8685  12
  10   8  -4 316.058 13.4673  12
  10   8  -4 310.203 12.9932   1
 -10   8   4 312.102 18.7894  14
 -10   8   4 322.159 16.3597   8
 -10   8   4 306.758 16.0413   3
   8  -8  -4 616.835 20.9114   5
  -8  -8   4 621.565 20.9784   7
  -8  -8   4 621.479 24.6283  10
   8   8  -4 590.469 20.3599  16
   8   8  -4 601.083 19.9769   1
  -8   8   4 633.400 23.8295   3
  -8   8   4 600.690 26.1966  14
  -8   8   4 625.353 20.0726   6
  -8   8   4 661.049 24.3617   8
   8   8  -4 617.273 20.8672  12
   6  -8  -4 309.498 15.6787  15
  -6  -8   4 305.267 12.6273   2
   6  -8  -4 338.808 13.1629  11
  -6  -8   4 323.093 15.1833  10
  -6  -8   4 336.515 12.5845   7
   6   8  -4 337.827 12.4897  12
  -6   8   4 332.303 11.7893   6
   6   8  -4 316.310 11.6376  16
  -6   8   4 335.607 14.7423   8
   6   8  -4 322.549 11.3121   1
  -6   8   4 305.521 15.2878  14
  -6   8   4 342.366 14.2772   3
   4  -8  -4 847.429 25.4040   2
   4  -8  -4 830.113 25.8333  11
  -4  -8   4 772.776 25.6125   2
  -4  -8   4 831.507 28.1712  10
  -4  -8   4 821.036 24.8771   7
   4  -8  -4 793.990 26.9954  15
  -4   8   4 747.877 26.3651  14
  -4   8   4 820.364 26.9063   8
   4   8  -4 833.045 24.3979  12
  -4   8   4 834.867 23.7656   6
   2  -8  -4 234.208 10.5211  11
  -2  -8   4 238.425 9.48989   7
   2  -8  -4 232.452 10.4664   2
  -2  -8   4 245.369 12.0474  10
   2  -8  -4 222.745 11.2039  15
  -2   8   4 250.143 11.3368   8
   2   8  -4 234.885 8.66328  12
   2   8  -4 230.237 9.08000   6
  -2   8   4 225.150 8.17036   6
   0  -8  -4 936.092 29.0776  10
   0  -8  -4 981.917 30.9044   2
   0  -8  -4 933.736 30.7606  15
   0  -8  -4 978.314 30.0782  11
   0  -8   4 976.531 28.8408   7
   0  -8   4 972.052 31.9986  10
   0   8  -4 947.784 27.8531   6
   0   8  -4 977.380 27.4635   9
   0   8   4 949.870 27.7962   1
   2  -8   4 259.593 10.9114   7
  -2  -8  -4 255.548 12.3082   2
  -2  -8  -4 275.772 12.1743  10
  -2  -8  -4 261.888 11.8027  11
   2   8   4 251.832 9.91965   1
   2   8   4 263.582 9.69983  13
  -2   8  -4 251.279 9.79568   6
   2   8   4 246.016 10.2688  16
  -2   8  -4 247.184 9.63952   9
  -4  -8  -4 902.618 29.8324  10
  -4  -8  -4 878.552 29.5329   2
   4  -8   4 842.522 27.4284   7
   4   8   4 836.847 25.9959   1
  -4   8  -4 873.501 26.3138   9
   4   8   4 849.561 25.7005  13
  -4   8  -4 839.202 25.6415   6
   4   8   4 822.245 26.4548  16
  -6  -8  -4 227.841 13.1992  10
  -6  -8  -4 207.854 11.7740   2
  -6   8  -4 215.647 9.96408   9
   6   8   4 213.280 9.90214   1
   6   8   4 219.061 9.72755  13
  -6   8  -4 210.007 13.6009   3
  -9  -9   4 5.75451 3.93003  10
   9   9  -4 10.0179 3.02688  12
  -9   9   4 7.15118 4.25655  14
  -9   9   4 9.22613 3.43114   8
  -9   9   4 4.66395 2.48815   3
   9   9  -4 6.09254 2.38074   1
  -7  -9   4 71.4750 5.67233   7
   7  -9  -4 68.0133 6.05841  11
  -7  -9   4 66.7123 7.45829  10
   7   9  -4 78.2782 5.80328  12
  -7   9   4 69.4072 7.33467   8
  -7   9   4 68.9178 4.85903   6
  -7   9   4 65.2903 7.55393  14
  -7   9   4 73.9773 6.45893   3
   5  -9  -4 -0.6983 1.90971   2
  -5  -9   4 2.21877 1.71635   7
  -5  -9   4 0.56679 1.68336   2
   5  -9  -4 -0.5296 1.67470  11
  -5  -9   4 2.31584 2.66740  10
   5   9  -4 1.98768 1.41193  12
  -5   9   4 0.95684 2.35857   8
  -5   9   4 -0.5614 1.52332   6
  -5   9   4 0.67221 1.78243  14
  -3  -9   4 20.0877 4.58169  10
  -3  -9   4 24.7679 3.98579   2
   3  -9  -4 25.5433 3.65097   2
   3  -9  -4 21.1355 3.51341  11
  -3  -9   4 20.6110 2.95292   7
  -3   9   4 29.2170 4.77625   8
   3   9  -4 21.5160 2.86019  12
   3   9  -4 21.4562 2.93752   6
  -3   9   4 23.4190 2.65544   6
  -1  -9   4 15.5586 3.68572  10
   1  -9  -4 12.8613 3.65107  15
   1  -9  -4 21.6026 4.32669   2
   1  -9  -4 19.1001 3.41915  11
  -1  -9   4 12.6771 2.63165   7
   1   9  -4 14.9619 2.06180   9
  -1   9   4 13.1430 3.32581   8
   1   9  -4 13.3423 2.50372   6
   1  -9   4 5.02688 1.80501   7
  -1  -9  -4 4.06385 2.89462   2
  -1  -9  -4 6.05619 3.13497  11
  -1  -9  -4 5.62237 2.56108  10
  -1  -9  -4 3.16902 2.85789  15
   1  -9   4 5.22454 3.17138  10
  -1   9  -4 6.41402 1.81449   9
   1   9   4 5.56162 2.02359   1
  -1   9  -4 4.85565 1.64465   6
  -3  -9  -4 40.0991 5.62010   2
  -3  -9  -4 37.1411 4.86963  10
   3  -9   4 35.4964 4.24992   7
  -3  -9  -4 35.9409 4.77095  11
   3   9   4 33.6786 4.07876  16
  -3   9  -4 34.4613 3.85692   6
   3   9   4 41.7573 4.29263   1
  -3   9  -4 36.5616 3.93210   9
   5  -9   4 1.41595 1.61449   7
  -5  -9  -4 2.24947 2.83791   2
  -5  -9  -4 4.54691 3.11632  10
  -5   9  -4 1.98981 1.85090   6
   5   9   4 1.71633 2.15444   1
  -5   9  -4 2.81803 2.14606   9
   8 -10  -4 6.73010 3.21999   5
  -8 -10   4 6.17313 2.52036   7
  -8 -10   4 5.75776 4.40409  10
  -8  10   4 8.04459 4.02907   8
  -8  10   4 6.51941 3.94688  14
  -8  10   4 8.90477 2.80641   6
   8  10  -4 8.49497 2.48276  12
  -6 -10   4 1094.87 38.5760  10
   6 -10  -4 1175.86 35.6111  11
  -6 -10   4 1076.71 33.4277   7
   6  10  -4 1124.89 34.0051  12
  -6  10   4 1137.01 33.1113   6
   6  10  -4 1142.09 33.4132   6
  -6  10   4 1146.72 37.7346   8
  -4 -10   4 73.3292 6.45682   2
   4 -10  -4 76.4248 6.66357  11
  -4 -10   4 76.5550 5.52274   7
   4 -10  -4 79.7562 6.60019   2
  -4 -10   4 75.3769 8.34902  10
  -4  10   4 75.9318 7.02585   8
   4  10  -4 73.2562 5.30369  12
  -4  10   4 73.4630 4.88999   6
   4  10  -4 69.8606 5.16518   6
   2 -10  -4 1534.93 45.0647  11
  -2 -10   4 1502.27 45.1352   2
   2 -10  -4 1423.20 44.4565   2
  -2 -10   4 1509.37 47.6888  10
  -2 -10   4 1525.47 43.0666   7
  -2  10   4 1478.29 41.2534   6
   2  10  -4 1522.24 42.8699   6
  -2  10   4 1502.77 46.0112   8
   0 -10  -4 137.618 9.03723   2
   0 -10   4 133.463 7.41482   7
   0 -10  -4 134.118 8.89006  11
   0 -10   4 143.125 10.2661  10
   0  10  -4 138.468 7.20363   6
   0  10   4 126.010 8.51760   8
   0  10  -4 137.776 6.64791   9
  -2 -10  -4 1006.18 33.6557   2
   2 -10   4 1011.12 34.9424  10
   2 -10   4 974.901 30.4714   7
  -2 -10  -4 982.942 32.1939  11
   2  10   4 976.912 29.7077   1
  -2  10  -4 973.429 29.4663   9
  -2  10  -4 998.335 29.8287   6
  -4 -10  -4 63.6170 6.87542  10
   4 -10   4 65.3832 5.43986   7
   4 -10   4 71.6285 8.14629  10
  -4 -10  -4 64.3651 7.18098   2
  -4  10  -4 64.8783 5.31609   9
  -4  10  -4 66.2384 5.24571   6
   4  10   4 58.3122 5.28750   1
  -7 -11   4 94.7297 9.41125  10
  -7  11   4 108.701 9.42411   8
  -7  11   4 102.041 6.67749   6
   7  11  -4 106.050 6.61627   6
   7  11  -4 102.230 6.77540  12
  -5 -11   4 90.0583 9.92720  10
   5 -11  -4 84.2871 6.98775  11
  -5 -11   4 82.1534 7.69512   2
   5  11  -4 93.6508 6.48329  12
   5  11  -4 83.4433 5.99943   6
  -5  11   4 80.4859 5.62981   6
  -5  11   4 93.9547 8.44503   8
  -3 -11   4 155.392 9.49830   2
  -3 -11   4 162.554 11.5615  10
   3 -11  -4 157.421 9.68910   2
   3 -11  -4 155.408 9.83317  11
  -3  11   4 156.573 7.34872   6
   3  11  -4 174.803 8.40010   6
  -3  11   4 170.515 10.7123   8
   1 -11  -4 124.120 8.52025  11
  -1 -11   4 141.782 8.85148   2
   1 -11  -4 136.915 9.71190   2
  -1 -11   4 140.680 10.1380  10
  -1  11   4 135.546 9.60002   8
   1  11  -4 136.926 7.51749   6
  -1 -11  -4 94.8483 9.06713   2
  -1 -11  -4 100.587 8.19779  11
   1 -11   4 117.918 10.0757  10
  -1  11  -4 119.289 6.57211   9
   1  11   4 115.032 8.39473   8
  -1  11  -4 100.930 6.55377   6
   3 -11   4 105.943 9.06934  10
  -3 -11  -4 115.762 8.88398   2
   3  11   4 108.639 6.83710   1
  -3  11  -4 98.5119 6.28443   9
  -3  11  -4 110.668 6.78095   6
   6 -12  -4 80.8548 7.90754  11
  -6 -12   4 70.9406 9.11487  10
  -6  12   4 77.1638 5.31967   6
   6  12  -4 87.3227 6.17168   6
  -6  12   4 91.0130 8.99158   8
  -4 -12   4 619.264 25.6665  10
   4 -12  -4 611.897 22.8660  11
   4 -12  -4 599.901 22.2910   2
   4  12  -4 596.592 20.4576   6
  -4  12   4 633.562 24.3241   8
  -4  12   4 582.978 19.3874   6
   2 -12  -4 43.7866 5.79413   2
   2 -12  -4 50.7719 6.52172  11
  -2 -12   4 54.6429 6.89202   2
  -2 -12   4 46.8183 7.08485  10
  -2  12   4 62.1335 7.04295   8
   2  12  -4 45.9429 4.76429   6
   0 -12   4 692.982 25.7300   2
   0 -12   4 696.987 27.2845  10
   0 -12  -4 657.043 24.5119  11
   0 -12  -4 667.011 25.5178   2
   0  12  -4 689.443 22.6452   6
   0  12   4 700.900 26.2733   8
  -2 -12  -4 29.9615 4.58318  11
   2 -12   4 31.5563 6.12949  10
  -2 -12  -4 32.2059 5.93061   2
   2  12   4 32.0690 5.37121   8
  -2  12  -4 23.8568 3.70066   6
  -3 -13   4 7.65149 3.84344  10
   3 -13  -4 4.00295 2.96649  11
  -3 -13   4 5.72391 3.73472   2
   3 -13  -4 8.24331 3.31653   2
   3  13  -4 6.61945 2.69647   6
  -3  13   4 4.78360 2.62010   8
   1 -13  -4 7.39057 4.50236   2
   1 -13  -4 8.33051 4.11164  11
  -1 -13   4 -1.2175 3.39475  10
  -1 -13   4 4.28371 3.55537   2
   1  13  -4 5.93223 2.67078   6
  -1  13   4 4.21180 3.18615   8
 -12   0   5 2.14863 3.04836   3
  12   0  -5 2.04901 2.77603   1
  12   0  -5 1.66369 2.27782  12
 -12   0   5 -3.8985 2.54594  14
 -10   0   5 3.45084 3.01792  14
  10   0  -5 3.90323 2.22026   1
  10   0  -5 2.18320 2.05168  12
 -10   0   5 0.39665 1.67888   3
  10   0  -5 3.57140 2.29220  16
   8   0  -5 1.15471 1.20044  12
   8   0  -5 2.44048 1.74760  16
  -8   0   5 1.27549 1.27920   3
  -8   0   5 3.87711 2.57710  14
   8   0  -5 0.59460 1.16688   5
   6   0  -5 3.15322 1.36351  16
   6   0  -5 -0.2658 1.07944  12
  -6   0   5 1.18163 0.76377  10
   6   0  -5 0.53333 1.13183   5
  -6   0   5 0.59215 0.79238   8
   6   0  -5 0.17881 0.80686  15
  -4   0   5 0.44298 0.56825   4
   4   0  -5 0.33517 0.70005  11
  -4   0   5 2.32962 0.70285   8
  -4   0   5 0.30704 0.65940   7
   4   0  -5 -1.3957 0.76012   5
   4   0  -5 -0.1848 0.85891  15
   4   0  -5 0.62583 0.60799  12
   2   0  -5 1.28254 0.65822   2
   2   0  -5 1.20880 0.64098   5
   2   0  -5 2.38734 0.94587  11
   2   0  -5 0.03569 0.46432  12
   2   0  -5 -0.3860 0.50201  15
  -2   0   5 0.41682 0.44920   7
  -2   0   5 -0.2513 0.61812   4
  -2   0   5 0.24440 0.44828  13
   0   0  -5 0.50317 0.75353  15
   0   0   5 -0.0577 0.42870   4
   0   0   5 0.92270 0.39594   1
   0   0  -5 -0.3163 0.46833   2
   0   0  -5 1.04646 0.59589   5
   0   0   5 0.17610 0.69120  13
   0   0  -5 0.02561 0.73638  11
  -2   0  -5 -0.4681 1.05706   2
   2   0   5 3.77440 0.88310  16
   2   0   5 3.49681 0.90631   1
  -2   0  -5 2.26076 0.91618   3
   2   0   5 -0.6045 0.84118   4
   2   0   5 5.79154 1.42895  13
  -2   0  -5 0.54071 0.91663  11
  -4   0  -5 0.60493 1.25352   9
  -4   0  -5 0.01480 0.95769  11
  -4   0  -5 2.55781 1.17501   3
   4   0   5 -0.3682 0.78269   1
   4   0   5 0.28016 1.38632  13
   4   0   5 -0.2012 1.31508   4
   4   0   5 0.07363 0.82195  16
   6   0   5 0.65006 1.93966  13
  -6   0  -5 1.52840 1.21418   9
   6   0   5 0.27116 1.68706   4
  -8   0  -5 2.20873 1.81756   9
   8   0   5 -0.3798 2.35407  13
   8   0   5 -0.4864 1.93432   4
  11  -1  -5 1003.42 33.1023   1
  11  -1  -5 1066.29 32.5270  12
 -11  -1   5 1011.96 35.7475   3
 -11  -1   5 1111.68 38.3708  14
  11  -1  -5 998.401 33.3591  16
  11   1  -5 1071.67 32.6747  12
  11   1  -5 1035.14 33.2079   1
  11   1  -5 1030.71 33.5810  16
 -11   1   5 1082.78 36.5832   3
 -11   1   5 1132.27 39.3583  14
   9  -1  -5 122.766 7.15359  16
   9  -1  -5 114.309 7.20929   1
  -9  -1   5 130.206 8.20452   3
   9  -1  -5 116.852 5.85843   5
  -9  -1   5 129.546 9.11784  14
   9  -1  -5 111.409 6.52321  12
   9   1  -5 107.297 6.58564   1
   9   1  -5 118.545 6.92616  16
  -9   1   5 126.950 9.46073  14
   9   1  -5 119.945 6.67799  12
  -9   1   5 121.570 7.70293   3
   7  -1  -5 2344.81 63.3453   5
   7  -1  -5 2394.36 63.7544  12
  -7  -1   5 2271.20 63.5042  10
   7  -1  -5 2397.84 64.0802  16
  -7  -1   5 2441.81 63.8453   7
   7  -1  -5 2309.58 63.2660  15
  -7   1   5 2346.48 65.1632   3
   7   1  -5 2350.67 63.2861   5
  -7   1   5 2318.93 63.9794   8
  -7   1   5 2427.66 67.7995  14
   7   1  -5 2429.28 64.0316  16
   7   1  -5 2359.43 64.1211   1
  -7   1   5 2315.35 63.1779   7
   7   1  -5 2396.00 63.7260  12
  -5  -1   5 478.773 14.3551   8
  -5  -1   5 538.491 15.4563   7
   5  -1  -5 518.323 16.1674  15
  -5  -1   5 502.469 14.9262   4
   5  -1  -5 511.868 14.9900  11
  -5  -1   5 495.804 15.2416  10
   5  -1  -5 520.460 15.6665   5
   5  -1  -5 488.256 15.1556  12
   5   1  -5 505.588 15.2806  12
   5   1  -5 508.866 15.1502  16
  -5   1   5 516.998 14.9323   4
  -5   1   5 499.217 14.9099   7
  -5   1   5 502.113 15.4125   8
   5   1  -5 516.743 15.7918  15
   5   1  -5 505.636 15.3873   5
   5   1  -5 503.880 14.6488  11
  -5   1   5 504.212 15.7710   3
   3  -1  -5 3594.59 91.1363   5
   3  -1  -5 3479.70 91.1162  11
  -3  -1   5 3284.96 90.6110  10
   3  -1  -5 3574.71 92.2880  15
  -3  -1   5 3408.09 91.6551  13
   3  -1  -5 3439.89 92.1548   2
  -3  -1   5 3568.92 90.3493   4
  -3  -1   5 3316.62 91.7885   8
  -3  -1   5 3609.37 90.6972   7
  -3   1   5 3249.73 92.2348   3
   3   1  -5 3609.37 91.9975  15
  -3   1   5 3563.44 90.5540  13
   3   1  -5 3385.53 91.9256  12
  -3   1   5 3548.86 92.6621   8
   3   1  -5 3463.86 90.7756  11
  -3   1   5 3447.30 91.4097   7
   3   1  -5 3548.11 90.8567   5
  -3   1   5 3537.79 90.2937   4
  -1  -1   5 1393.24 37.7044  13
   1  -1  -5 1461.91 39.0222  11
   1  -1  -5 1452.35 38.3043   5
  -1  -1   5 1426.82 37.9724   4
   1  -1  -5 1448.86 39.9177  15
  -1  -1   5 1390.23 38.2547   7
   1  -1  -5 1447.61 38.7225   2
   1   1  -5 1397.85 37.1074  12
   1   1  -5 1413.19 38.0932   5
   1   1  -5 1418.53 39.6038  15
  -1   1   5 1386.88 37.6797   7
   1   1  -5 1417.94 38.7104  11
  -1   1   5 1427.20 38.0402  13
  -1   1   5 1454.00 37.8864   4
   1  -1   5 2024.00 54.1595   4
  -1  -1  -5 2022.66 53.5435   5
   1  -1   5 2027.36 52.9549   1
   1  -1   5 2088.16 54.1664  13
  -1  -1  -5 2056.25 55.0886  11
   1  -1   5 2035.68 53.0792  16
  -1  -1  -5 2003.31 55.5818   2
  -1  -1  -5 2092.85 55.9014  15
  -1   1  -5 2068.67 53.6458   5
  -1   1  -5 1981.63 54.4337   3
  -1   1  -5 2040.40 53.0911   6
   1   1   5 2046.88 53.7166  16
   1   1   5 2029.02 53.4958   1
   1   1   5 2096.25 54.3919  13
  -1   1  -5 2074.79 54.9381  11
   1   1   5 2064.80 54.0714   4
   3  -1   5 868.164 24.0305  16
  -3  -1  -5 871.976 25.3193  11
  -3  -1  -5 856.765 26.6425   2
   3  -1   5 887.559 25.2938  13
   3  -1   5 858.060 24.9972   4
   3   1   5 894.586 25.4598  13
   3   1   5 867.514 24.5503  16
   3   1   5 886.297 24.9010   4
  -3   1  -5 917.302 25.4637   9
  -3   1  -5 876.655 25.2978  11
   3   1   5 859.487 24.2461   1
  -3   1  -5 837.643 25.9948   3
   5  -1   5 700.391 21.7213   4
   5  -1   5 713.646 22.1623  13
  -5  -1  -5 714.426 23.5343   2
  -5  -1  -5 681.848 21.5004   9
   5   1   5 697.999 21.1762  16
   5   1   5 693.951 20.7253   1
   5   1   5 714.358 21.5477   4
  -5   1  -5 683.216 23.4328   3
  -5   1  -5 693.065 21.7013   9
   5   1   5 701.758 22.1847  13
  -7  -1  -5 309.468 11.9748   9
   7  -1   5 322.617 13.0896  13
   7  -1   5 312.617 12.6691   4
  -7   1  -5 307.924 12.1463   9
   7   1   5 321.186 13.2180  13
   7   1   5 314.225 12.2855   4
  12  -2  -5 247.277 11.4905  12
  12  -2  -5 246.995 12.2893   1
 -12  -2   5 242.931 14.3788   3
 -12   2   5 246.650 14.1203   3
  12   2  -5 252.773 11.4559  12
  12   2  -5 245.373 12.0919   1
 -12   2   5 266.910 16.7984  14
 -10  -2   5 570.565 22.8600  14
 -10  -2   5 562.280 22.1553   3
  10  -2  -5 545.034 18.9032  12
  10  -2  -5 543.038 19.7956  16
  10  -2  -5 541.956 20.1602   1
  10   2  -5 544.597 18.9834  12
  10   2  -5 540.496 19.4064   1
  10   2  -5 540.906 19.7165  16
 -10   2   5 555.530 21.8257   3
 -10   2   5 579.177 24.5216  14
  -8  -2   5 633.516 20.0218   7
   8  -2  -5 638.882 19.5433   5
   8  -2  -5 620.746 20.3415  16
   8  -2  -5 618.326 19.7535  12
  -8  -2   5 626.566 23.0066  14
  -8  -2   5 607.309 20.2852  10
  -8   2   5 660.049 24.1403  14
   8   2  -5 629.946 20.0311   1
   8   2  -5 621.641 20.1805  16
   8   2  -5 621.647 19.8802  12
  -8   2   5 633.413 21.7541   3
  -8   2   5 613.853 20.6616   8
   8   2  -5 630.002 19.2332   5
   6  -2  -5 1128.46 31.3964  11
   6  -2  -5 1154.88 32.2767   5
   6  -2  -5 1164.58 32.9117  15
  -6  -2   5 1156.44 32.2730   7
   6  -2  -5 1116.85 32.0370  12
  -6  -2   5 1101.31 32.5578  10
   6   2  -5 1154.05 32.1016  12
   6   2  -5 1162.44 32.0210   1
  -6   2   5 1164.16 35.4138  14
   6   2  -5 1149.31 31.9854  16
  -6   2   5 1116.00 32.9127   3
  -6   2   5 1136.90 31.3721   7
  -6   2   5 1145.40 32.7589   8
   6   2  -5 1137.18 31.9420   5
  -4  -2   5 1431.90 39.6224  10
   4  -2  -5 1480.72 39.7079   5
   4  -2  -5 1439.13 40.6780  15
   4  -2  -5 1513.57 39.7209  11
   4  -2  -5 1441.39 37.9897   2
  -4  -2   5 1429.46 38.6627   4
  -4  -2   5 1437.66 39.2042   7
   4   2  -5 1425.80 38.8636  12
   4   2  -5 1420.26 39.2000   5
   4   2  -5 1447.02 38.8759  11
  -4   2   5 1449.78 38.2843   7
  -4   2   5 1453.59 38.6498   4
  -4   2   5 1433.63 39.6086   8
  -4   2   5 1438.32 39.0110   3
   4   2  -5 1425.95 38.4929  16
   2  -2  -5 1072.81 29.6825  11
  -2  -2   5 1028.11 28.3141   4
   2  -2  -5 1054.03 29.0849   5
  -2  -2   5 1049.53 28.9163   7
   2  -2  -5 1069.78 30.6711  15
  -2  -2   5 1034.28 27.9274  13
   2  -2  -5 1076.69 28.9287   2
   2   2  -5 982.658 27.3153  16
  -2   2   5 1076.49 28.6709  13
   2   2  -5 1024.19 28.9871  11
  -2   2   5 1047.98 27.7231   7
   2   2  -5 1052.32 28.8008   5
   2   2  -5 1028.95 27.9673  12
  -2   2   5 1065.11 28.2353   4
   0  -2   5 1214.26 33.4624   4
   0  -2  -5 1258.81 34.9059   2
   0  -2  -5 1248.17 35.5115  15
   0  -2   5 1203.64 33.0772  13
   0  -2  -5 1270.29 34.7758  11
   0  -2   5 1240.82 34.1837   7
   0  -2  -5 1228.09 33.5519   5
   0   2  -5 1268.04 34.3493  11
   0   2   5 1231.83 33.2071   4
   0   2   5 1266.25 33.7189  13
   0   2  -5 1214.19 33.3980   5
   0   2   5 1239.80 33.1157   1
   2  -2   5 533.697 15.9814   4
  -2  -2  -5 536.192 16.5795  11
  -2  -2  -5 541.430 17.5924   2
  -2  -2  -5 544.886 17.2018  15
   2  -2   5 524.123 15.6666  13
  -2   2  -5 515.479 16.8152   3
   2   2   5 541.471 16.1361  13
   2   2   5 522.309 15.5823  16
   2   2   5 499.996 15.4106   4
  -2   2  -5 532.137 16.4214  11
   2   2   5 526.305 15.3571   1
  -2   2  -5 500.190 14.7874   5
  -2   2  -5 553.791 16.2858   9
  -4  -2  -5 345.568 11.7737  11
  -4  -2  -5 359.233 13.7738   2
   4  -2   5 321.838 11.7362   4
   4  -2   5 356.876 12.1980  13
   4   2   5 346.885 12.2501  13
   4   2   5 341.989 11.5172   4
   4   2   5 343.726 11.6660  16
  -4   2  -5 339.401 13.4197   3
   4   2   5 337.889 11.2454   1
  -4   2  -5 340.861 12.0273   9
   6  -2   5 226.283 10.0655  13
   6  -2   5 242.514 10.2383   4
  -6  -2  -5 226.938 9.54714   9
  -6  -2  -5 229.082 11.2923   2
  -6   2  -5 231.948 9.89750   9
   6   2   5 247.994 9.83175   4
  -6   2  -5 240.269 12.1096   3
   6   2   5 238.260 9.39066   1
   6   2   5 245.536 10.5764  13
   6   2   5 233.759 9.69933  16
   8  -2   5 78.5677 6.43376  13
   8  -2   5 80.4438 6.33070   4
  -8   2  -5 79.2600 5.70560   9
   8   2   5 76.3792 6.57086  13
   8   2   5 88.4533 6.04823   4
  11  -3  -5 164.188 9.67653   1
 -11  -3   5 157.008 10.8639  14
 -11  -3   5 142.123 10.0578   3
  11  -3  -5 160.888 8.59943  12
  11  -3  -5 147.682 8.79610  16
 -11   3   5 162.655 12.9118  14
  11   3  -5 155.471 9.14193  16
 -11   3   5 160.076 10.8729   3
  11   3  -5 158.766 8.94624   1
  11   3  -5 152.964 8.60115  12
  -9  -3   5 955.415 29.2797   7
   9  -3  -5 962.789 28.4991   5
   9  -3  -5 974.883 29.1674  12
  -9  -3   5 989.859 32.7433  14
   9  -3  -5 956.978 29.9329  16
  -9  -3   5 950.190 30.2118  10
   9   3  -5 982.315 29.3729  12
  -9   3   5 969.698 30.8247   8
   9   3  -5 962.617 29.3432   1
   9   3  -5 926.721 29.4639  16
  -9   3   5 977.122 34.6949  14
  -9   3   5 922.247 31.2439   3
  -7  -3   5 632.636 19.6909   7
   7  -3  -5 629.841 19.9938  15
   7  -3  -5 633.908 19.5949  12
   7  -3  -5 635.900 19.6063   5
  -7  -3   5 601.989 20.4876  10
  -7   3   5 620.730 20.7988   3
   7   3  -5 631.317 19.6283  12
   7   3  -5 629.436 19.1777   5
  -7   3   5 674.874 23.6361  14
   7   3  -5 634.625 19.5448  16
   7   3  -5 620.472 19.3173   1
  -7   3   5 609.721 20.5225   8
  -5  -3   5 2850.93 74.1726   4
  -5  -3   5 2827.74 75.1101   7
   5  -3  -5 2841.61 75.1683  11
  -5  -3   5 2744.56 75.7947  10
   5  -3  -5 2876.04 75.3553   5
   5  -3  -5 2873.25 76.6128  15
  -5   3   5 2914.09 75.9249   8
  -5   3   5 2809.97 77.7675  14
   5   3  -5 2814.53 74.3529  16
   5   3  -5 2820.94 74.7563  12
   5   3  -5 2800.28 74.8829   5
  -5   3   5 2823.28 75.3748   3
   5   3  -5 2779.42 74.1824   1
   3  -3  -5 1222.27 35.3828  15
   3  -3  -5 1216.55 34.2325  11
  -3  -3   5 1189.12 32.6907   4
   3  -3  -5 1270.59 33.3689   2
  -3  -3   5 1231.18 33.5929   7
   3  -3  -5 1247.54 33.9150   5
  -3  -3   5 1209.09 34.4899  10
   3   3  -5 1188.61 32.0289  16
   3   3  -5 1199.99 33.4221   5
   3   3  -5 1158.69 33.1714  11
  -3   3   5 1220.06 34.1321   8
  -3   3   5 1228.03 33.2043  13
  -3   3   5 1232.36 32.6603   4
   3   3  -5 1197.91 31.9644   1
   3   3  -5 1231.04 32.8369  12
   3   3  -5 1207.23 31.9673   9
   1  -3  -5 3109.38 83.7090   5
   1  -3  -5 3251.87 84.4771   2
   1  -3  -5 3287.35 84.8879  11
   1  -3  -5 3266.29 86.0123  15
  -1  -3   5 3067.75 82.3403  13
  -1  -3   5 3062.27 83.8816   7
  -1  -3   5 3090.88 83.0036   4
  -1   3   5 3321.22 83.0388   1
  -1   3   5 3379.58 83.5077  13
   1   3  -5 3070.41 82.2947  12
  -1   3   5 3275.82 82.7674   4
  -1   3   5 3195.47 82.0031   7
   1   3  -5 3132.40 82.8968   9
   1   3  -5 3183.61 83.9824  11
   1   3  -5 3132.48 83.4061   5
   1  -3   5 303.801 9.61023  13
  -1  -3  -5 322.779 11.8862  15
  -1  -3  -5 302.540 9.87085   5
   1  -3   5 304.887 10.0120   4
  -1  -3  -5 328.633 11.2718  11
  -1  -3  -5 328.118 11.8722   2
  -1   3  -5 311.738 9.79427   5
   1   3   5 309.856 10.0468  16
  -1   3  -5 315.256 10.7848  11
   1   3   5 308.517 9.79727   1
   1   3   5 303.323 9.64608   4
  -1   3  -5 303.541 11.0822   3
   1   3   5 309.245 10.3438  13
  -1   3  -5 330.899 10.3460   9
  -3  -3  -5 1679.63 47.5346   2
   3  -3   5 1662.91 45.2521   4
   3  -3   5 1661.86 45.0284  13
  -3  -3  -5 1665.99 46.2383  15
  -3  -3  -5 1608.60 45.6597  11
   3   3   5 1678.81 45.5847  13
  -3   3  -5 1662.62 45.4992   9
   3   3   5 1681.94 45.2178  16
  -3   3  -5 1590.66 47.0807   3
   3   3   5 1671.82 44.8307   1
   3   3   5 1642.97 44.6188   4
   5  -3   5 56.9718 4.45720  13
   5  -3   5 61.8941 4.29894   4
  -5  -3  -5 61.6551 5.64705   2
   5   3   5 59.3819 4.16142   1
   5   3   5 57.2557 4.05674  16
  -5   3  -5 59.4975 5.58030   3
   5   3   5 57.1318 4.37174  13
   5   3   5 59.4927 4.13790   4
  -5   3  -5 52.7111 3.95550   9
   7  -3   5 796.143 25.1043  13
  -7  -3  -5 709.125 23.3325   9
  -7  -3  -5 778.798 26.6264   2
   7  -3   5 751.891 24.5772   4
   7   3   5 767.474 23.8727   1
  -7   3  -5 759.121 24.1922   9
  -7   3  -5 776.999 27.9946   3
   7   3   5 758.668 23.7678   4
   7   3   5 755.087 24.2171  16
   7   3   5 771.076 24.9555  13
  12  -4  -5 9.49877 2.87148  12
  12  -4  -5 7.32358 3.42331   1
 -12  -4   5 6.06726 3.66072   3
  12   4  -5 8.60641 3.00582  12
 -12   4   5 9.00782 4.88296  14
  12   4  -5 4.86142 2.74877   1
 -12   4   5 8.81779 3.88987   3
 -10  -4   5 63.1361 6.71874  14
 -10  -4   5 61.5115 5.57337  10
  10  -4  -5 60.0163 5.34760  12
  10  -4  -5 64.9159 5.79697  16
 -10   4   5 65.3093 6.56453   8
  10   4  -5 63.3744 5.43811  12
  10   4  -5 59.9881 5.13514  16
 -10   4   5 66.0867 7.93335  14
 -10   4   5 66.2944 6.88675   3
  10   4  -5 60.0198 5.41621   1
  -8  -4   5 7.05326 2.02084   7
   8  -4  -5 8.48444 2.37806   5
  -8  -4   5 8.28725 2.49635  10
  -8   4   5 5.70038 2.42149   8
   8   4  -5 7.74800 2.21853  12
  -8   4   5 10.1405 3.12853  14
  -8   4   5 13.1191 2.94896   3
   8   4  -5 6.90861 2.15737  16
   8   4  -5 4.09671 1.75235   1
   8   4  -5 6.72198 1.75449   5
   6  -4  -5 145.480 6.50478  11
  -6  -4   5 135.802 6.47164   7
   6  -4  -5 135.325 6.66636   5
  -6  -4   5 134.265 7.48813  10
   6  -4  -5 145.493 7.54069  15
   6   4  -5 144.202 6.00413  16
  -6   4   5 136.900 7.19888   8
  -6   4   5 133.495 8.27597  14
   6   4  -5 122.268 5.58383   1
  -6   4   5 133.847 6.84807   3
   6   4  -5 138.014 6.08513   5
   6   4  -5 140.859 6.24002  12
   4  -4  -5 230.563 9.70488  15
  -4  -4   5 227.035 8.33253   7
   4  -4  -5 226.547 8.60184   5
  -4  -4   5 216.093 9.07562  10
  -4  -4   5 217.606 7.28808   4
   4  -4  -5 218.578 7.72624   2
   4  -4  -5 221.443 8.79792  11
  -4   4   5 210.287 8.75298   8
   4   4  -5 218.395 7.72539  12
   4   4  -5 200.225 6.91818  16
   4   4  -5 212.172 7.95499   5
  -4   4   5 228.760 7.33717   4
   4   4  -5 194.856 6.76525   1
  -4   4   5 206.829 7.72980   3
  -4   4   5 205.516 9.21195  14
   2  -4  -5 110.734 5.96807  11
   2  -4  -5 100.258 5.03658   2
   2  -4  -5 99.6645 4.96110   5
  -2  -4   5 99.3610 4.07658   4
  -2  -4   5 97.6614 5.78707  10
   2  -4  -5 105.602 6.23397  15
  -2  -4   5 94.6895 4.71899   7
  -2   4   5 97.0859 3.87379   4
  -2   4   5 97.1564 4.75184  14
   2   4  -5 100.397 4.66119   5
   2   4  -5 101.005 3.82733   9
  -2   4   5 99.3782 4.43877  13
   2   4  -5 97.3768 3.94366  12
   0  -4  -5 561.757 18.7929  15
   0  -4  -5 571.844 17.9702  11
   0  -4   5 526.633 15.2062  13
   0  -4  -5 536.928 16.6171  10
   0  -4  -5 567.186 17.9480   2
   0  -4   5 564.511 17.2449   7
   0  -4  -5 527.825 16.4760   5
   0  -4   5 540.733 16.0304   4
   0   4   5 565.664 16.5011  13
   0   4   5 553.326 15.5495   4
   0   4  -5 540.805 16.1060   9
   0   4   5 552.186 16.0945   1
   0   4  -5 538.018 15.9557   6
   0   4  -5 569.866 16.4361   5
   2  -4   5 265.001 8.91247  13
   2  -4   5 280.579 9.56820   4
  -2  -4  -5 270.036 11.0286  15
  -2  -4  -5 291.699 11.5442   2
  -2  -4  -5 276.078 10.9957  10
  -2  -4  -5 272.596 10.4217  11
  -2   4  -5 264.135 11.0340   3
   2   4   5 270.115 8.83026   4
  -2   4  -5 276.611 8.99921   6
  -2   4  -5 283.858 9.81886   9
   2   4   5 274.431 9.80806  13
   2   4   5 266.905 9.59691  16
   2   4   5 275.479 9.39492   1
  -4  -4  -5 154.537 7.56113  11
   4  -4   5 194.528 7.76028  13
   4  -4   5 182.713 7.86818   4
  -4  -4  -5 193.637 9.79962   2
  -4   4  -5 176.541 9.46089   3
   4   4   5 187.103 7.22121   4
   4   4   5 181.228 7.48670   1
   4   4   5 187.014 7.98406  16
   4   4   5 201.661 8.38884  13
  -4   4  -5 192.394 8.05291   9
   6  -4   5 263.297 11.0782   4
   6  -4   5 259.716 10.8097  13
  -6  -4  -5 268.830 12.6918   2
  -6   4  -5 258.807 10.7924   9
   6   4   5 272.102 10.2677   4
   6   4   5 275.494 11.5741  13
   6   4   5 273.360 11.1580  16
  -6   4  -5 273.180 13.9029   3
   6   4   5 268.306 10.6137   1
   8  -4   5 52.9376 5.46243   4
  -8  -4  -5 69.8406 5.95361   2
   8   4   5 54.7935 5.01043   1
  -8   4  -5 59.0064 7.27734   3
  -8   4  -5 54.4894 4.69715   9
   8   4   5 50.6206 5.51579  13
  11  -5  -5 573.202 19.5707  12
 -11  -5   5 536.216 21.0305  10
 -11  -5   5 516.902 22.3372   3
  11   5  -5 571.106 20.0153  12
 -11   5   5 550.386 26.0386  14
 -11   5   5 532.990 22.2709   3
  11   5  -5 547.484 19.6863   1
  -9  -5   5 342.746 15.4042  14
   9  -5  -5 377.390 13.5392  12
  -9  -5   5 344.149 15.0064  10
  -9  -5   5 347.491 13.4001   7
   9  -5  -5 336.424 12.8199   5
   9   5  -5 322.490 13.0512  16
  -9   5   5 324.464 14.8010   3
   9   5  -5 341.983 13.4659  12
   9   5  -5 327.374 12.8556   1
  -9   5   5 360.526 18.5029  14
  -9   5   5 347.566 15.3010   8
   7  -5  -5 802.741 24.2351   5
  -7  -5   5 804.857 24.3645   7
   7  -5  -5 791.333 25.3059  15
  -7  -5   5 737.755 25.6005  10
   7   5  -5 754.510 23.4752  16
  -7   5   5 787.073 28.2086  14
   7   5  -5 775.706 23.4716   5
  -7   5   5 822.491 25.9684   8
   7   5  -5 792.458 24.0041  12
   7   5  -5 769.348 23.2061   1
  -7   5   5 771.149 25.3050   3
  -5  -5   5 428.804 13.1936   4
   5  -5  -5 443.382 14.9252  11
   5  -5  -5 474.431 15.0158   5
   5  -5  -5 445.160 16.1066  15
  -5  -5   5 446.350 14.7445   7
  -5  -5   5 433.507 14.1628   2
  -5  -5   5 462.595 16.3547  10
   5   5  -5 425.774 13.4866  16
  -5   5   5 446.556 16.9080  14
   5   5  -5 460.038 14.4946   5
   5   5  -5 416.867 13.2227   1
   5   5  -5 439.421 14.2659  12
  -5   5   5 447.008 13.7144   6
  -5   5   5 436.281 14.8555   3
  -5   5   5 454.265 15.7756   8
   3  -5  -5 1283.03 37.6042  15
  -3  -5   5 1220.16 37.4459  10
  -3  -5   5 1259.69 35.6944   7
   3  -5  -5 1286.25 36.3984  11
   3  -5  -5 1336.62 35.9839   2
  -3  -5   5 1211.44 34.1945   4
   3   5  -5 1282.06 34.8136  12
  -3   5   5 1292.53 34.2356   6
  -3   5   5 1258.45 33.9944   4
  -3   5   5 1306.08 36.8880   8
  -3   5   5 1267.61 35.0380  13
   3   5  -5 1263.17 35.4361   5
  -1  -5   5 1086.39 30.5331   7
   1  -5  -5 1134.10 31.5248   2
   1  -5  -5 1117.31 32.8446  15
   1  -5  -5 942.297 29.4888  10
   1  -5  -5 1077.43 31.4462  11
  -1  -5   5 1037.28 28.9847   4
  -1   5   5 1072.23 29.5886  13
  -1   5   5 1056.46 29.3755   1
   1   5  -5 1072.44 29.9056   5
   1   5  -5 1023.68 28.6222  12
  -1   5   5 1057.17 28.4654   4
   1   5  -5 1067.28 29.0168   9
   1  -5   5 1414.86 38.2007   4
   1  -5   5 1410.55 39.6125   7
  -1  -5  -5 1429.83 40.8880   2
  -1  -5  -5 1373.89 41.0987  15
  -1  -5  -5 1401.76 40.2789  11
  -1  -5  -5 1367.80 39.5088  10
  -1  -5  -5 1278.69 38.1889   5
   1   5   5 1414.67 38.3262   1
   1   5   5 1428.26 38.6316  13
  -1   5  -5 1409.09 38.1435   6
   1   5   5 1408.61 38.6768  16
  -1   5  -5 1460.19 38.5830   9
  -3  -5  -5 914.296 28.9409  10
   3  -5   5 940.703 26.5866   4
  -3  -5  -5 910.321 29.2112   2
  -3  -5  -5 882.599 27.2950  11
   3   5   5 924.681 26.4064   1
   3   5   5 927.581 26.7873  13
   3   5   5 891.991 26.6754  16
  -3   5  -5 893.439 29.2789   3
  -3   5  -5 913.802 25.8069   6
  -3   5  -5 921.822 26.7767   9
   3   5   5 862.518 25.2224   4
   5  -5   5 573.056 18.9611   4
  -5  -5  -5 600.758 21.6412   2
  -5   5  -5 584.472 19.0625   9
   5   5   5 578.901 18.7547   1
   5   5   5 575.758 19.0839  16
  -5   5  -5 579.101 22.3923   3
   5   5   5 566.482 19.1109  13
  -7  -5  -5 241.353 12.2541   2
   7  -5   5 247.398 10.8381   4
   7   5   5 252.537 10.7180   1
  -7   5  -5 251.256 14.0129   3
   7   5   5 239.269 11.0846  13
  -7   5  -5 246.609 10.9349   9
  10  -6  -5 4.86796 2.54954  12
 -10  -6   5 5.97012 2.61385  10
  10  -6  -5 6.22046 3.05503  16
 -10   6   5 5.60544 3.02174   3
 -10   6   5 6.04089 3.41978   8
  10   6  -5 2.57997 1.88840  12
 -10   6   5 7.33101 4.24837  14
  10   6  -5 3.82920 1.84969  16
  10   6  -5 4.72429 2.38292   1
  -8  -6   5 73.1379 7.18485  10
  -8  -6   5 81.0923 5.95492   7
   8  -6  -5 83.1476 5.79243   5
   8   6  -5 78.7487 5.30221  16
  -8   6   5 78.5305 6.18155   3
   8   6  -5 76.7660 4.85844   5
  -8   6   5 75.7006 7.88461  14
   8   6  -5 74.8811 5.23017  12
  -8   6   5 88.8295 7.10031   8
   8   6  -5 74.2805 4.73437   1
  -6  -6   5 9.77955 2.80310  10
   6  -6  -5 8.76945 2.74246  15
   6  -6  -5 5.16180 2.22815  11
  -6  -6   5 11.0569 2.69126   7
   6  -6  -5 10.7958 2.36658   5
  -6   6   5 6.60688 1.86170   6
  -6   6   5 8.80888 2.72410   8
   6   6  -5 9.08452 1.70783  16
  -6   6   5 12.3828 3.23901  14
   6   6  -5 12.2798 1.80862   1
   6   6  -5 7.17250 2.02440  12
   6   6  -5 11.5765 2.25818   5
  -6   6   5 9.48991 2.26057   3
  -4  -6   5 32.8262 2.28261   4
  -4  -6   5 36.2798 4.56345  10
   4  -6  -5 35.5298 3.42355   2
  -4  -6   5 39.9357 3.90967   7
   4  -6  -5 40.1375 4.58549  15
   4  -6  -5 32.9491 3.90963  11
   4   6  -5 36.6572 2.81377  12
  -4   6   5 33.8657 3.61388  14
  -4   6   5 34.5908 3.93087   8
   4   6  -5 32.8325 3.18383   5
  -4   6   5 35.8720 2.66853   6
  -2  -6   5 354.857 10.9173   4
   2  -6  -5 344.138 14.1206  15
  -2  -6   5 361.597 14.3867  10
   2  -6  -5 359.807 13.3559  11
  -2  -6   5 369.658 12.6726   7
   2  -6  -5 373.362 13.3827   2
   2   6  -5 335.707 11.1219  12
  -2   6   5 353.673 11.6962  13
   2   6  -5 357.535 10.7969   9
  -2   6   5 348.246 10.6669   6
  -2   6   5 361.574 13.6273   8
   2   6  -5 340.292 12.0031   5
   0  -6  -5 37.3959 4.74401  15
   0  -6  -5 36.5113 4.51267   2
   0  -6   5 34.9524 2.64872   4
   0  -6   5 33.0332 3.21709   7
   0  -6  -5 37.1435 3.20169  10
   0  -6  -5 36.1433 4.35670  11
   0   6   5 44.2820 3.12551   1
   0   6  -5 34.1047 2.52611   9
   0   6  -5 33.8738 2.81868   6
   0   6   5 32.8116 2.96667  13
  -2  -6  -5 302.689 12.1324  10
  -2  -6  -5 310.815 12.9082   2
  -2  -6  -5 280.498 12.4303  15
   2  -6   5 288.256 10.2433   4
   2  -6   5 298.567 11.7460   7
  -2  -6  -5 299.046 12.1298  11
  -2   6  -5 289.051 10.1547   6
   2   6   5 286.951 10.4740   1
   2   6   5 283.471 10.5317  13
  -2   6  -5 302.710 10.6542   9
   2   6   5 280.311 10.6869  16
   4  -6   5 184.627 8.10647   4
  -4  -6  -5 177.084 10.2736   2
  -4  -6  -5 182.694 10.0305  10
   4   6   5 180.231 8.37738  16
   4   6   5 183.816 8.13342   1
   4   6   5 185.142 8.43122  13
  -4   6  -5 180.465 10.6487   3
  -4   6  -5 182.139 8.33194   9
  -4   6  -5 180.089 7.44048   6
   6  -6   5 61.5404 4.91214   4
  -6  -6  -5 68.4956 6.54567   2
  -6   6  -5 60.2106 4.78327   9
   6   6   5 59.2028 5.32495  13
  -6   6  -5 62.0424 6.77291   3
   6   6   5 62.9554 5.22365   1
 -11  -7   5 285.763 14.7815  10
 -11   7   5 300.416 15.5420   3
  11   7  -5 288.833 12.6922   1
 -11   7   5 301.442 18.5614  14
  11   7  -5 298.461 12.9266  12
 -11   7   5 291.545 15.3009   8
  -9  -7   5 175.934 11.2303  10
  -9  -7   5 158.688 8.57669   7
   9  -7  -5 179.337 8.68009   5
  -9   7   5 165.979 10.1070   3
   9   7  -5 164.980 8.53694  16
   9   7  -5 164.179 8.17862   1
  -9   7   5 169.972 10.9117   8
  -9   7   5 169.787 12.6619  14
   9   7  -5 183.940 8.94839  12
  -7  -7   5 1190.21 35.0826   7
   7  -7  -5 1227.20 35.1383   5
   7  -7  -5 1173.69 34.8026  11
  -7  -7   5 1156.75 37.7458  10
   7  -7  -5 1096.05 36.0212  15
   7   7  -5 1171.90 33.4569   1
   7   7  -5 1188.15 34.7129  12
  -7   7   5 1215.89 36.7049   3
   7   7  -5 1148.39 33.8517  16
  -7   7   5 1207.29 37.3949   8
  -7   7   5 1186.95 39.5856  14
  -5  -7   5 653.289 21.0553   7
   5  -7  -5 649.999 22.8467  15
  -5  -7   5 671.091 23.7261  10
   5  -7  -5 706.231 22.0951   2
  -5  -7   5 604.408 20.7191   2
   5  -7  -5 682.824 21.6900  11
   5   7  -5 669.521 20.4864  12
  -5   7   5 624.856 23.0101  14
   5   7  -5 668.077 20.7039   5
  -5   7   5 652.409 22.6097   8
  -5   7   5 677.960 19.7932   6
   3  -7  -5 1881.60 51.5806   2
   3  -7  -5 1846.78 51.9334  11
  -3  -7   5 1793.55 53.6434  10
  -3  -7   5 1870.83 51.1297   7
   3  -7  -5 1839.12 53.4720  15
  -3   7   5 1801.81 49.1554   6
   3   7  -5 1848.57 50.0180  12
  -3   7   5 1854.26 52.7512   8
   1  -7  -5 445.103 15.8473   2
  -1  -7   5 391.987 12.4608   4
   1  -7  -5 429.133 15.5978  11
  -1  -7   5 408.589 16.8654  10
   1  -7  -5 397.717 16.0117  15
  -1  -7   5 412.053 14.4641   7
  -1   7   5 427.165 13.4686  13
   1   7  -5 402.838 13.4931   6
   1   7  -5 397.275 12.6985  12
   1   7  -5 420.253 12.9083   9
  -1  -7  -5 1066.31 32.0227   2
   1  -7   5 943.474 27.6173   4
  -1  -7  -5 979.249 30.7524  11
  -1  -7  -5 972.504 31.6762  15
   1  -7   5 998.119 29.9688   7
  -1  -7  -5 966.874 29.7192  10
  -1   7  -5 982.376 28.3420   6
  -1   7  -5 984.180 28.3192   9
   1   7   5 969.653 28.4381   1
  -3  -7  -5 69.7508 5.49354  11
   3  -7   5 68.7950 5.62660   7
   3  -7   5 64.7703 4.17981   4
  -3  -7  -5 83.1345 7.05443   2
  -3  -7  -5 65.4539 5.94390  10
   3   7   5 67.2508 4.69633   1
   3   7   5 68.1921 4.92909  16
  -3   7  -5 68.5452 4.38694   6
   3   7   5 73.0802 4.83557  13
  -3   7  -5 63.1893 4.64180   9
   5  -7   5 492.935 18.7244   7
   5  -7   5 475.295 16.4965   4
  -5  -7  -5 470.491 19.4668   2
   5   7   5 470.851 16.6043   1
   5   7   5 461.298 16.9264  16
   5   7   5 463.553 16.5433  13
  -5   7  -5 497.849 21.1184   3
  -5   7  -5 499.601 17.0768   9
 -10  -8   5 162.575 11.2376  10
  10  -8  -5 168.023 8.86102  12
 -10   8   5 153.698 12.5178  14
  10   8  -5 155.632 9.12832  12
 -10   8   5 173.946 11.2087   3
  10   8  -5 151.931 8.32699   1
 -10   8   5 180.605 11.7414   8
  -8  -8   5 608.715 24.4806  10
   8  -8  -5 646.470 21.4986   5
  -8  -8   5 635.667 21.5190   7
  -8   8   5 627.153 26.2033  14
   8   8  -5 616.031 21.1318  12
  -8   8   5 640.194 24.1161   8
  -6  -8   5 406.066 17.5970  10
   6  -8  -5 399.543 15.2181  11
  -6  -8   5 405.239 14.9295   7
  -6   8   5 382.792 17.3494  14
  -6   8   5 384.783 13.4554   6
   6   8  -5 402.302 14.3742  12
  -6   8   5 381.894 16.4198   8
  -4  -8   5 455.798 18.3773  10
   4  -8  -5 429.866 15.4752   2
   4  -8  -5 434.301 16.0699  11
  -4  -8   5 436.465 15.3917   7
  -4  -8   5 409.855 15.8457   2
   4  -8  -5 420.615 17.2588  15
   4   8  -5 438.893 14.6276  12
  -4   8   5 428.765 16.9750   8
  -4   8   5 440.263 13.8764   6
  -2  -8   5 822.359 28.2949  10
   2  -8  -5 797.100 26.0890   2
   2  -8  -5 792.054 27.2725  15
   2  -8  -5 806.531 26.1219  11
  -2  -8   5 808.811 25.0118   7
  -2   8   5 793.973 23.7550  13
   2   8  -5 823.344 24.3328   6
  -2   8   5 776.720 22.7464   6
   2   8  -5 797.025 23.5311  12
  -2   8   5 835.395 27.0514   8
   0  -8   5 176.295 10.6977  10
   0  -8   5 165.138 8.31396   7
   0  -8  -5 193.356 10.3002   2
   0  -8  -5 157.502 9.39921  15
   0  -8  -5 172.262 9.65989  11
   0   8  -5 174.190 7.65677   6
   0   8   5 164.530 7.45577   1
   0   8  -5 176.709 7.22644   9
  -2  -8  -5 255.553 15.7124  15
  -2  -8  -5 302.876 13.1167  11
  -2  -8  -5 299.083 12.8089  10
   2  -8   5 285.823 12.2726   7
  -2  -8  -5 309.440 13.8887   2
  -2   8  -5 303.926 11.2788   9
  -2   8  -5 297.658 11.0506   6
   2   8   5 299.636 11.3468   1
   2   8   5 308.017 11.2446  13
   4  -8   5 204.348 10.6494   7
  -4  -8  -5 209.429 11.7890   2
  -4  -8  -5 228.252 11.9098  10
   4   8   5 208.064 9.28370  13
   4   8   5 202.357 9.45636  16
   4   8   5 204.953 9.41741   1
  -4   8  -5 211.646 9.57726   9
  -4   8  -5 209.089 8.91761   6
  -6  -8  -5 17.2862 4.00792   2
   6  -8   5 16.1809 3.42725   7
  -6   8  -5 17.0374 3.32306   9
   6   8   5 19.2152 3.45449   1
   6   8   5 16.4624 3.21921  13
  -9  -9   5 763.297 25.5474   7
   9  -9  -5 769.636 25.5074   5
  -9  -9   5 764.654 29.4390  10
   9   9  -5 782.826 25.8690  12
  -9   9   5 763.347 31.2416  14
  -9   9   5 803.968 29.4635   8
   7  -9  -5 9.98089 3.15989   5
   7  -9  -5 20.5068 4.00711  11
  -7  -9   5 16.0398 4.31408  10
  -7  -9   5 7.10052 2.36661   7
  -7   9   5 9.23876 3.54737  14
  -7   9   5 7.89544 3.42589   8
  -7   9   5 8.45154 2.47030   6
   7   9  -5 9.69567 2.39321  12
   5  -9  -5 842.500 27.0586  11
  -5  -9   5 822.705 25.9198   7
  -5  -9   5 782.053 26.5772   2
  -5  -9   5 831.696 29.6590  10
  -5   9   5 819.757 24.4124   6
   5   9  -5 824.431 25.4571  12
  -5   9   5 825.951 28.2486   8
  -3  -9   5 24.3057 4.58606  10
   3  -9  -5 28.8402 4.69213  11
   3  -9  -5 24.7592 3.79416   2
  -3  -9   5 31.4365 3.72706   7
  -3   9   5 30.1883 4.78302   8
  -3   9   5 26.6966 2.71686   6
   3   9  -5 24.8011 3.23848   6
   3   9  -5 33.8030 3.09279  12
   1  -9  -5 1174.47 37.3345  11
  -1  -9   5 1230.21 40.1338  10
   1  -9  -5 1245.14 38.1985   2
   1   9  -5 1191.33 35.2234   6
  -1   9   5 1219.96 34.7631  13
  -1   9   5 1250.38 38.6488   8
  -1  -9  -5 264.959 12.8131  11
   1  -9   5 262.687 11.5772   7
   1  -9   5 273.431 14.6554  10
  -1  -9  -5 276.926 13.5687   2
  -1   9  -5 283.969 10.6154   9
   1   9   5 263.633 10.6775   1
  -1   9  -5 264.717 10.6492   6
   1   9   5 262.316 10.2422  13
  -3  -9  -5 912.678 30.9452  11
  -3  -9  -5 983.483 33.1446   2
  -3  -9  -5 961.965 31.9342  10
   3  -9   5 1009.85 31.6336   7
  -3   9  -5 1000.34 29.5676   6
   3   9   5 989.436 29.4107  13
  -3   9  -5 1018.05 29.7862   9
   3   9   5 981.775 29.8509   1
  -5  -9  -5 221.677 12.2410  10
   5  -9   5 206.962 10.7978   7
  -5  -9  -5 210.062 12.2088   2
   5   9   5 199.438 9.48177   1
  -5   9  -5 201.831 9.80615   9
  -5   9  -5 191.327 8.97113   6
  -8 -10   5 31.4014 5.75438  10
   8 -10  -5 24.0916 4.23708   5
  -8 -10   5 26.0916 4.19990   7
   8  10  -5 31.3332 4.45460  12
  -8  10   5 38.2812 6.17588   8
  -8  10   5 21.6685 8.43227  14
  -6 -10   5 5.39761 2.69742   7
   6 -10  -5 1.88898 3.13505  11
  -6 -10   5 3.50187 4.27585  10
  -6  10   5 2.86498 2.08983   6
   6  10  -5 1.56171 2.13383   6
  -6  10   5 3.48181 2.54274   8
   6  10  -5 4.91861 2.30718  12
  -4 -10   5 0.64241 3.46117  10
  -4 -10   5 -0.3639 2.23445   7
  -4 -10   5 1.82549 2.42147   2
   4 -10  -5 0.32234 3.05394  11
   4 -10  -5 -0.5835 2.61771   2
  -4  10   5 0.89443 2.63157   8
  -4  10   5 -0.6458 1.53122   6
   4  10  -5 2.03163 1.96613  12
   4  10  -5 2.33048 2.07999   6
   2 -10  -5 86.0790 7.71263   2
  -2 -10   5 84.2570 6.16563   7
  -2 -10   5 95.7144 8.69287  10
   2 -10  -5 96.8018 7.85644  11
  -2  10   5 93.8123 7.92386   8
   2  10  -5 91.1447 6.00159   6
   0 -10  -5 6.71419 3.95911   2
   0 -10   5 11.0585 4.09162  10
   0 -10   5 7.81288 2.58668   7
   0 -10  -5 8.97245 3.95127  11
   0  10  -5 12.5003 2.30212   9
   0  10  -5 10.9480 2.62980   6
   0  10   5 14.7118 3.51478   8
  -2 -10  -5 62.7593 6.64808  11
   2 -10   5 64.2403 8.18058  10
  -2 -10  -5 63.2577 7.60674   2
   2 -10   5 50.3915 4.84471   7
   2  10   5 61.0852 4.75628   1
  -2  10  -5 57.9234 4.77804   9
  -2  10  -5 53.2025 4.78335   6
   4 -10   5 15.3153 3.31494   7
   4 -10   5 19.4713 4.67405  10
  -4 -10  -5 23.0810 5.04732   2
  -4  10  -5 16.0441 2.77578   9
  -4  10  -5 13.7311 2.86928   6
   4  10   5 16.7181 3.50361   1
   7 -11  -5 224.878 11.6799  11
  -7 -11   5 220.717 14.8364  10
   7  11  -5 235.221 11.0657  12
  -7  11   5 241.943 13.6107   8
   7  11  -5 224.230 10.4676   6
  -7  11   5 219.382 9.63377   6
   5 -11  -5 810.199 27.7584  11
  -5 -11   5 800.072 25.7321   7
  -5 -11   5 781.858 27.5342   2
  -5 -11   5 784.772 30.3890  10
  -5  11   5 808.838 29.1910   8
  -5  11   5 761.721 23.9872   6
   5  11  -5 818.655 25.7579  12
   5  11  -5 783.639 25.4206   6
   3 -11  -5 388.714 16.3409   2
  -3 -11   5 393.317 18.7616  10
  -3 -11   5 384.568 16.6528   2
  -3 -11   5 391.805 15.0372   7
   3 -11  -5 390.689 16.9428  11
   3  11  -5 404.235 15.0844   6
  -3  11   5 417.205 17.8675   8
   1 -11  -5 447.657 18.7244   2
  -1 -11   5 437.138 20.3253  10
  -1 -11   5 457.887 16.8312   7
   1 -11  -5 445.960 18.2339  11
   1  11  -5 470.748 16.7380   6
  -1  11   5 489.441 20.0367   8
   1 -11   5 190.787 9.60638   7
  -1 -11  -5 171.714 10.7800  11
   1 -11   5 182.291 12.6455  10
  -1 -11  -5 182.547 11.6616   2
   1  11   5 181.431 11.5794   8
  -1  11  -5 185.866 8.86835   6
  -3 -11  -5 97.4531 8.17219   2
   3 -11   5 118.987 10.2501  10
   3 -11   5 100.567 7.21238   7
   3  11   5 104.758 6.93009   1
  -3  11  -5 97.4006 6.23616   6
  -3  11  -5 113.054 6.88708   9
  -4 -12   5 200.683 11.4999   2
   4 -12  -5 184.815 10.6314   2
   4 -12  -5 218.576 12.2311  11
  -4 -12   5 204.300 14.0632  10
  -4  12   5 202.923 12.5700   8
   4  12  -5 211.156 10.0530   6
   2 -12  -5 63.8667 6.69562   2
  -2 -12   5 71.8883 7.31626   2
  -2 -12   5 65.9794 8.66452  10
   2 -12  -5 63.7847 7.24967  11
   2  12  -5 66.0318 5.78350   6
  -2  12   5 69.9814 7.11560   8
   0 -12  -5 296.436 15.0429   2
   0 -12  -5 291.447 14.5137  11
   0 -12   5 274.965 15.6532  10
   0  12  -5 290.962 12.2276   6
   0  12   5 292.433 15.2736   8
  12   0  -6 10.7245 3.39902   1
 -12   0   6 4.82897 3.32292   3
 -12   0   6 3.46765 3.71370  14
  12   0  -6 9.30115 2.87862  12
  10   0  -6 1858.25 53.7382  16
 -10   0   6 1916.97 58.5040  14
  10   0  -6 1828.93 53.6414   1
 -10   0   6 1845.24 55.6342   3
  10   0  -6 1902.71 53.1678  12
  -8   0   6 283.777 13.4529  14
   8   0  -6 254.040 10.3662  16
   8   0  -6 249.163 10.2644  12
   8   0  -6 270.597 10.1115   5
  -8   0   6 258.841 11.4927   3
  -8   0   6 262.726 10.0495   7
   6   0  -6 4111.24 108.402  15
   6   0  -6 4163.16 107.885   5
  -6   0   6 4239.82 107.111   4
  -6   0   6 4142.97 107.352   7
  -6   0   6 4007.45 106.908   8
   6   0  -6 4057.02 107.548  12
   6   0  -6 3983.35 106.665  11
   4   0  -6 136.402 6.57080  15
   4   0  -6 140.920 5.44807  12
   4   0  -6 138.843 6.00941   5
   4   0  -6 141.860 5.79207  11
  -4   0   6 146.488 5.52552   4
  -4   0   6 134.952 5.14300   8
  -4   0   6 136.729 5.33786   7
   2   0  -6 7472.26 207.104   2
   2   0  -6 7666.35 211.405  11
   2   0  -6 7706.67 213.566  15
  -2   0   6 7952.75 207.031   7
  -2   0   6 8075.74 206.899   4
  -2   0   6 7877.41 205.786  13
   2   0  -6 7835.08 208.807   5
   2   0  -6 7471.76 204.272  12
   0   0   6 117.728 5.04085   4
   0   0  -6 136.208 5.94804  11
   0   0   6 123.736 4.29751   1
   0   0  -6 140.548 6.71938  15
   0   0  -6 128.922 4.99274   5
   0   0   6 121.258 5.19810   7
   0   0  -6 126.849 5.91828   2
   0   0   6 129.250 5.15164  13
  -2   0  -6 4266.66 119.142   2
   2   0   6 4329.55 116.269   1
   2   0   6 4641.22 117.383   4
   2   0   6 4763.44 117.696  13
  -2   0  -6 4472.91 118.202  11
  -4   0  -6 20.8892 2.74564   9
   4   0   6 30.5746 3.50189  13
   4   0   6 23.6481 2.84443   4
  -4   0  -6 24.5865 2.56155  11
   6   0   6 1079.35 32.4307  13
  -6   0  -6 1026.45 31.6667   9
   6   0   6 1048.48 31.7597   4
  11  -1  -6 6.14707 2.63746  12
  11  -1  -6 10.4749 3.19527  16
  11  -1  -6 6.11037 3.10360   1
 -11  -1   6 11.4849 4.44123  14
 -11  -1   6 25.1474 4.96101   3
 -11   1   6 5.94160 3.19399   3
  11   1  -6 10.6219 3.13239   1
  11   1  -6 9.23227 3.03461  16
 -11   1   6 6.26932 4.02304  14
  11   1  -6 4.32134 2.48794  12
  -9  -1   6 319.685 14.0184   3
   9  -1  -6 309.579 12.4910  16
   9  -1  -6 316.400 11.7167   5
  -9  -1   6 324.955 15.3745  14
  -9  -1   6 322.915 11.9545   7
   9  -1  -6 314.321 12.1256  12
   9   1  -6 310.879 12.4793  16
  -9   1   6 305.132 12.3508   8
   9   1  -6 322.863 11.6733   5
   9   1  -6 316.176 12.3293  12
  -9   1   6 297.583 13.3674   3
   9   1  -6 309.801 12.3566   1
  -9   1   6 315.920 15.7799  14
  -7  -1   6 312.297 11.0017   7
   7  -1  -6 303.186 11.0441   5
   7  -1  -6 299.294 11.0572  12
   7  -1  -6 308.919 11.2670  15
   7   1  -6 303.542 10.9361   5
  -7   1   6 286.959 11.5830   3
   7   1  -6 301.610 11.0322  12
  -7   1   6 319.172 14.0652  14
  -7   1   6 311.996 10.5755   7
   7   1  -6 295.845 10.9698  16
  -7   1   6 303.357 11.0299   8
  -5  -1   6 41.4964 2.76389  10
   5  -1  -6 39.2480 2.88052  11
  -5  -1   6 39.9238 2.68139   4
   5  -1  -6 45.2464 3.55746   5
   5  -1  -6 42.1313 3.06857  12
  -5  -1   6 40.5989 3.09634   7
   5  -1  -6 43.5861 3.65776  15
   5   1  -6 42.3821 2.64721  11
  -5   1   6 43.3438 2.83814   3
  -5   1   6 35.6562 2.70295   4
  -5   1   6 42.0097 2.82711   8
   5   1  -6 39.8756 2.94572  12
   5   1  -6 39.2510 3.15801  15
   5   1  -6 36.0252 2.82339   5
  -5   1   6 39.3373 2.70394   7
   3  -1  -6 1211.76 35.1732  15
  -3  -1   6 1153.08 33.2652  10
  -3  -1   6 1219.38 32.9060   4
  -3  -1   6 1218.35 32.7632  13
   3  -1  -6 1240.57 33.8001   5
  -3  -1   6 1221.06 33.2113   7
   3  -1  -6 1205.16 32.8223   2
   3  -1  -6 1235.89 33.9390  11
   3   1  -6 1203.29 33.4699   5
  -3   1   6 1186.54 32.7893   4
  -3   1   6 1225.45 33.3272   8
  -3   1   6 1223.87 32.5969   7
  -3   1   6 1214.56 33.0423  13
   3   1  -6 1192.89 32.6462  12
   3   1  -6 1228.02 33.6695  11
   3   1  -6 1221.90 34.8579  15
  -1  -1   6 45.4053 2.92370   7
   1  -1  -6 48.5460 3.19826   2
   1  -1  -6 43.9138 3.18928  11
   1  -1  -6 45.6554 3.70622  15
  -1  -1   6 47.1390 2.65233  13
  -1  -1   6 45.8935 2.84793   4
   1  -1  -6 54.8199 3.04174   5
  -1   1   6 47.1459 2.74431   4
  -1   1   6 44.3784 2.52897   7
   1   1  -6 45.8204 3.59806  15
   1   1  -6 48.4751 3.20293  11
  -1   1   6 46.1849 2.85812  13
   1   1  -6 46.1183 2.78392   5
   1  -1   6 185.859 6.97979   4
  -1  -1  -6 179.900 6.22207   5
  -1  -1  -6 194.776 8.44274  15
   1  -1   6 183.888 6.80584  13
  -1  -1  -6 179.585 7.63973  11
  -1  -1  -6 188.567 8.26477   2
  -1   1  -6 173.986 6.78235   3
   1   1   6 179.107 6.15272   1
   1   1   6 189.522 6.89202   4
   1   1   6 183.618 7.07802  13
  -1   1  -6 190.268 7.64625  11
  -1   1  -6 180.430 6.30403   5
   1   1   6 182.449 6.35115  16
  -3  -1  -6 311.455 11.3861  11
   3  -1   6 315.150 11.1046   4
  -3  -1  -6 305.401 12.4898   2
   3  -1   6 311.789 11.0110  13
   3   1   6 294.721 9.95436   1
   3   1   6 307.697 10.8153   4
   3   1   6 327.613 11.4531  13
  -3   1  -6 332.283 11.4951   9
   3   1   6 297.039 10.2337  16
  -3   1  -6 318.901 11.3994  11
  -5  -1  -6 3.83455 1.87747   9
   5  -1   6 4.59725 2.10830  13
   5  -1   6 3.44378 1.92733   4
  -5   1  -6 3.92769 1.58195   9
   5   1   6 3.09754 1.67752  13
   5   1   6 4.45638 1.68669   4
   7  -1   6 97.4104 6.79989   4
   7  -1   6 91.8191 6.80941  13
   7   1   6 116.367 7.11801   4
  -7   1  -6 88.5974 5.88330   9
   7   1   6 97.1997 7.07594  13
 -12  -2   6 318.661 16.4756   3
 -12  -2   6 327.599 17.3105  14
  12  -2  -6 309.475 13.2915  12
  12  -2  -6 319.896 14.4215   1
 -12   2   6 339.231 19.0127  14
  12   2  -6 310.489 13.8821   1
 -12   2   6 313.735 16.2067   3
  12   2  -6 289.919 13.4377  12
 -10  -2   6 650.833 25.1584  14
  10  -2  -6 621.433 22.1787  16
 -10  -2   6 688.820 24.7356   3
  10  -2  -6 640.106 21.5031  12
  10   2  -6 641.500 22.2332  16
  10   2  -6 652.101 21.7675  12
 -10   2   6 630.089 22.2840   8
 -10   2   6 653.681 26.4590  14
 -10   2   6 686.685 24.4580   3
  10   2  -6 635.985 21.8632   1
  -8  -2   6 1333.73 37.7433   7
   8  -2  -6 1330.76 37.7251  12
  -8  -2   6 1284.63 37.8666  10
   8  -2  -6 1332.59 37.5979   5
   8   2  -6 1279.49 37.6034  16
  -8   2   6 1332.66 42.1611  14
   8   2  -6 1255.32 37.3260   1
  -8   2   6 1313.45 39.2041   3
   8   2  -6 1339.27 37.8599  12
  -8   2   6 1299.90 38.2916   8
   8   2  -6 1352.33 37.3942   5
   6  -2  -6 2148.32 58.8638  15
   6  -2  -6 2104.90 57.5240  12
  -6  -2   6 2122.97 56.8020   4
  -6  -2   6 2133.35 57.5891   7
   6  -2  -6 2193.99 58.0886   5
   6   2  -6 2120.66 57.2099  16
   6   2  -6 2060.53 56.4551  11
   6   2  -6 2140.99 57.5348  12
  -6   2   6 2077.20 57.9414   3
   6   2  -6 2146.63 57.7090   5
  -6   2   6 2097.31 60.8233  14
  -6   2   6 2186.85 58.1782   8
  -6   2   6 2177.73 56.6521   7
   4  -2  -6 1683.86 46.4532  15
   4  -2  -6 1683.89 44.9512  11
  -4  -2   6 1655.32 43.8569   4
  -4  -2   6 1603.39 44.3551   7
   4  -2  -6 1684.09 44.9673   5
  -4  -2   6 1548.86 44.4598  10
   4  -2  -6 1643.21 43.2825   2
   4   2  -6 1605.43 43.3524  16
   4   2  -6 1619.51 43.8737  12
  -4   2   6 1603.49 43.6714   4
   4   2  -6 1648.35 44.5652   5
   4   2  -6 1646.96 44.3447  11
  -4   2   6 1619.48 44.6698   8
  -4   2   6 1641.78 43.2645   7
  -2  -2   6 1252.57 34.1104  13
   2  -2  -6 1312.64 35.3436   2
  -2  -2   6 1266.54 34.5995   4
   2  -2  -6 1319.97 36.1564  11
   2  -2  -6 1295.16 37.2971  15
  -2  -2   6 1225.33 35.0524   7
   2  -2  -6 1309.62 35.4261   5
   2   2  -6 1295.21 33.9702  12
   2   2  -6 1256.17 35.4491  11
  -2   2   6 1264.28 33.8938   7
  -2   2   6 1265.87 34.7636  13
  -2   2   6 1258.85 34.3818   4
   2   2  -6 1265.82 35.0289   5
   0  -2   6 637.108 19.4096   7
   0  -2  -6 632.685 18.7718   5
   0  -2   6 626.086 18.3476  13
   0  -2  -6 688.122 20.2920  11
   0  -2  -6 667.836 21.1974  15
   0  -2  -6 684.303 20.4691   2
   0  -2   6 635.464 18.7862   4
   0   2   6 627.134 18.5560   4
   0   2   6 616.299 18.2569   7
   0   2  -6 645.918 18.7005   5
   0   2   6 654.799 19.0260  13
   0   2  -6 686.159 19.9405  11
   0   2   6 652.467 18.2877   1
  -2  -2  -6 327.687 11.6918  11
   2  -2   6 321.973 10.6949  13
   2  -2   6 314.069 10.8401   4
  -2  -2  -6 320.450 12.5472   2
  -2  -2  -6 328.723 12.3478  15
  -2   2  -6 305.456 11.3449   3
  -2   2  -6 327.754 11.2806   9
   2   2   6 320.775 10.5811   4
   2   2   6 314.241 11.0359  13
  -2   2  -6 313.764 11.4352  11
   2   2   6 304.848 10.0400   1
   2   2   6 304.449 10.3066  16
  -4  -2  -6 599.114 19.1957  11
   4  -2   6 621.940 19.4466   4
   4  -2   6 585.096 19.1517  13
  -4  -2  -6 601.906 21.2367   2
  -4   2  -6 589.174 20.4717   3
  -4   2  -6 626.604 19.7078   9
   4   2   6 615.988 18.9264   4
   4   2   6 602.378 19.6353  13
   4   2   6 601.903 18.6972  16
   4   2   6 622.890 18.4316   1
   6  -2   6 276.107 11.4901  13
  -6  -2  -6 253.338 10.7934   9
   6  -2   6 248.738 11.1057   4
   6   2   6 264.577 10.8207   4
  -6   2  -6 259.050 11.0543   9
   6   2   6 267.986 11.7186  13
  11  -3  -6 117.461 9.24534  16
  11  -3  -6 134.742 8.70691   1
 -11  -3   6 137.130 9.85913   3
 -11  -3   6 138.671 10.4481  14
  11  -3  -6 140.408 8.18034  12
 -11   3   6 136.722 9.36621   3
  11   3  -6 143.431 8.37232  12
  11   3  -6 140.229 8.38555   1
  11   3  -6 118.933 8.16114  16
 -11   3   6 154.103 12.1540  14
  -9  -3   6 25.1101 3.55734   7
   9  -3  -6 15.1869 2.81752  16
  -9  -3   6 15.4018 4.01315  14
   9  -3  -6 9.70891 2.29734  12
   9  -3  -6 10.5211 2.55781   5
   9   3  -6 8.46940 2.55797  12
  -9   3   6 10.3983 2.77257   8
   9   3  -6 11.1906 2.75451  16
   9   3  -6 9.63335 2.09451   5
  -9   3   6 15.1317 4.32614  14
  -9   3   6 10.8453 2.66603   3
   9   3  -6 8.07790 2.37556   1
  -7  -3   6 66.1217 5.03631  10
  -7  -3   6 67.3599 4.95646   7
   7  -3  -6 73.6131 4.16651  11
   7  -3  -6 74.3596 4.96837  15
   7  -3  -6 75.0137 4.76393   5
   7  -3  -6 73.5303 4.84593  12
  -7   3   6 70.4190 6.15348  14
   7   3  -6 76.3328 4.66327   5
  -7   3   6 81.5186 5.21495   3
   7   3  -6 72.2456 4.52238  12
   7   3  -6 68.9887 4.20820  16
  -7   3   6 73.2153 5.16491   8
   7   3  -6 77.0260 4.41471   1
  -5  -3   6 448.528 13.6855   4
   5  -3  -6 452.685 14.8606   5
   5  -3  -6 449.948 15.9206  15
   5  -3  -6 466.705 14.8274  11
  -5  -3   6 456.423 14.5007   7
  -5  -3   6 432.985 14.7596  10
   5   3  -6 443.633 13.9931  12
  -5   3   6 439.296 12.8470   7
  -5   3   6 453.621 14.9649   8
  -5   3   6 444.747 13.5209   4
   5   3  -6 438.274 13.4210  16
   5   3  -6 447.352 14.4363   5
  -5   3   6 437.644 16.2448  14
  -5   3   6 437.504 13.9716   3
   5   3  -6 426.561 13.2516   1
   3  -3  -6 8.48300 1.39081   2
  -3  -3   6 9.80187 1.97769  10
   3  -3  -6 3.19037 1.33990   5
   3  -3  -6 3.23972 1.63470  15
   3  -3  -6 3.83017 1.60008  11
  -3  -3   6 6.42657 1.17542   4
  -3   3   6 3.01490 1.22336  13
   3   3  -6 3.15569 1.24256  11
   3   3  -6 4.95629 1.22570   5
   3   3  -6 3.18771 0.66415  16
  -3   3   6 4.04576 1.47700   8
  -3   3   6 4.00767 1.10990   4
   3   3  -6 5.31240 1.07770  12
  -1  -3   6 365.267 11.4189   4
   1  -3  -6 351.882 12.8170  11
   1  -3  -6 377.056 14.0356  15
  -1  -3   6 366.781 12.1886   7
   1  -3  -6 344.470 11.8496   5
   1  -3  -6 378.207 12.7178   2
  -1  -3   6 343.220 10.6669  13
   1   3  -6 366.581 12.2988  11
   1   3  -6 355.513 11.5913   5
  -1   3   6 370.819 11.0978   4
   1   3  -6 363.159 11.2940   9
  -1   3   6 356.867 11.6285  13
   1  -3   6 83.5646 3.91747  13
  -1  -3  -6 86.5541 5.65964  15
   1  -3   6 85.2477 5.05514   7
   1  -3   6 88.6181 4.49536   4
  -1  -3  -6 90.4489 5.79860   2
  -1  -3  -6 87.3361 5.29633  11
  -1   3  -6 81.3884 4.80157  11
  -1   3  -6 87.7003 4.55511   9
  -1   3  -6 83.3148 3.97130   5
   1   3   6 80.1807 3.90371   4
   1   3   6 87.7366 4.61257  13
  -1   3  -6 86.3512 3.72072   6
   1   3   6 92.0828 4.35265  16
   1   3   6 91.0597 4.10816   1
   3  -3   6 0.87920 1.40643   4
  -3  -3  -6 0.94868 2.03102   2
   3  -3   6 4.76030 1.60362  13
  -3  -3  -6 3.24977 1.50415  11
   3   3   6 2.10309 1.26349   1
   3   3   6 3.03664 1.78748  13
  -3   3  -6 0.35221 0.95437   3
   3   3   6 2.22400 1.08624  16
  -3   3  -6 2.20561 1.48381   9
   3   3   6 -0.4545 1.19699   4
  -5  -3  -6 103.312 7.58469   2
   5  -3   6 92.9944 5.87015  13
   5  -3   6 105.622 6.14299   4
  -5   3  -6 99.5638 7.15274   3
  -5   3  -6 107.784 6.26736   9
   5   3   6 105.411 5.45881   1
   5   3   6 97.0323 6.38963  13
   5   3   6 92.8166 5.63427  16
   5   3   6 99.7048 5.62246   4
   7  -3   6 6.23683 2.21780   4
  -7  -3  -6 3.73187 1.90943   9
   7  -3   6 7.42541 2.21500  13
   7   3   6 5.68134 2.90751  13
  -7   3  -6 6.03455 1.95126   9
   7   3   6 6.09957 1.88736   4
 -12  -4   6 625.348 25.7773   3
  12  -4  -6 645.149 23.6047   1
 -12   4   6 612.404 24.9628   3
  12   4  -6 632.763 22.6429   1
  12   4  -6 659.488 22.9499  12
 -12   4   6 686.599 29.7011  14
 -10  -4   6 34.0173 4.63286  10
 -10  -4   6 39.0443 4.62154   7
  10  -4  -6 53.9817 7.09407   5
  10  -4  -6 47.2555 4.88449  12
  10  -4  -6 43.6422 4.96423  16
 -10  -4   6 45.4629 6.19724  14
 -10   4   6 50.3610 5.80650   3
  10   4  -6 42.2619 4.27243  16
  10   4  -6 36.8442 4.38730   1
 -10   4   6 47.2800 7.19778  14
 -10   4   6 56.9853 5.96134   8
  10   4  -6 44.5777 4.83118  12
   8  -4  -6 878.797 27.1003  12
  -8  -4   6 857.259 28.3509  10
   8  -4  -6 902.758 27.2668   5
  -8  -4   6 893.343 27.3792   7
  -8   4   6 884.471 31.4377  14
   8   4  -6 879.528 26.9980  16
   8   4  -6 902.399 26.9214   5
  -8   4   6 928.643 28.9551   8
  -8   4   6 935.617 28.9339   3
   8   4  -6 913.668 27.4133  12
   8   4  -6 881.595 26.6837   1
   6  -4  -6 76.8960 4.86777   5
  -6  -4   6 65.8529 3.63445   4
  -6  -4   6 73.3368 5.05813  10
   6  -4  -6 72.4592 5.47319  15
  -6  -4   6 68.3215 4.85984   7
   6  -4  -6 76.0495 4.85474  11
   6   4  -6 61.3361 3.57938   1
  -6   4   6 65.6407 4.77089   8
   6   4  -6 64.2582 4.28880  12
  -6   4   6 88.3737 6.27669  14
   6   4  -6 66.2838 4.20867   5
  -6   4   6 63.4863 4.16852   3
   6   4  -6 70.0481 3.89661  16
  -4  -4   6 2181.86 59.6892   7
   4  -4  -6 2198.81 58.8913   2
   4  -4  -6 2298.95 60.2326   5
   4  -4  -6 2198.27 61.8104  15
   4  -4  -6 2294.83 60.5954  11
  -4  -4   6 2189.48 58.6140   4
  -4  -4   6 2131.04 60.7355  10
  -4   4   6 2234.19 60.6042   8
  -4   4   6 2154.58 61.2082  14
   4   4  -6 2242.62 58.3854  16
   4   4  -6 2252.50 59.7167   5
  -4   4   6 2157.03 58.3950   4
   4   4  -6 2213.39 58.9369  12
   2  -4  -6 628.684 20.8673  15
   2  -4  -6 613.884 18.8980   2
  -2  -4   6 612.904 18.8311   7
  -2  -4   6 585.589 17.6347   4
   2  -4  -6 604.257 19.6824  11
   2  -4  -6 607.884 18.7434   5
   2   4  -6 594.403 18.3728   5
   2   4  -6 608.038 17.2719  12
  -2   4   6 610.345 17.3668   4
   2   4  -6 608.212 17.3279   9
  -2   4   6 619.276 18.1998  13
   0  -4  -6 3059.49 86.6527  15
   0  -4   6 3118.56 83.4718   4
   0  -4  -6 3279.79 85.8516   2
   0  -4  -6 3185.34 85.5986  11
   0  -4  -6 2963.70 83.8376   5
   0  -4   6 3204.48 84.9349   7
   0   4  -6 3160.40 83.7582   5
   0   4  -6 3019.28 83.1320   6
   0   4  -6 3310.74 83.7691   9
   0   4   6 3222.28 82.9557   4
   0   4   6 3312.23 84.0736  13
   0   4   6 3312.77 83.4541   1
  -2  -4  -6 399.983 15.0371   2
  -2  -4  -6 388.820 13.8645  11
   2  -4   6 358.013 11.8634  13
   2  -4   6 383.026 12.7504   4
  -2  -4  -6 373.553 14.2905  15
   2  -4   6 389.738 13.9967   7
   2   4   6 375.443 12.3170   1
  -2   4  -6 388.887 12.8834   9
   2   4   6 362.391 11.8595   4
   2   4   6 370.817 12.5477  16
  -2   4  -6 377.100 11.7774   6
   2   4   6 368.043 12.8570  13
  -4  -4  -6 1385.07 43.0038   2
   4  -4   6 1416.41 40.1190   4
   4  -4   6 1396.71 39.5502  13
   4   4   6 1431.30 40.5032  13
   4   4   6 1425.11 39.6424   1
  -4   4  -6 1433.70 40.5179   9
  -4   4  -6 1357.00 42.4623   3
   4   4   6 1432.79 40.0723  16
   4   4   6 1404.65 39.1647   4
  -6  -4  -6 26.1617 4.28915   2
  -6  -4  -6 24.8705 3.22308   9
   6  -4   6 26.9157 4.01893   4
   6   4   6 19.2985 3.53523   4
  -6   4  -6 25.8707 3.43947   9
  -6   4  -6 27.3281 4.71754   3
   6   4   6 24.4819 3.12364   1
   6   4   6 24.2384 3.49007  16
   6   4   6 29.4333 3.89077  13
  11  -5  -6 84.0156 6.09708  12
 -11   5   6 87.8402 8.08627   8
  11   5  -6 82.8664 6.85613  12
 -11   5   6 77.1946 7.52094   3
  11   5  -6 88.3119 6.25633   1
 -11   5   6 95.2717 10.2779  14
  -9  -5   6 8.14607 3.28993  14
   9  -5  -6 2.09831 1.74129   5
  -9  -5   6 4.17794 2.03026   7
  -9  -5   6 7.03050 2.46469  10
   9  -5  -6 1.45246 1.59608  12
  -9   5   6 0.54335 2.73826  14
   9   5  -6 1.02860 1.49117   5
  -9   5   6 1.62802 1.84402   8
   9   5  -6 0.32222 1.59682  16
   9   5  -6 -0.3395 1.57449   1
  -9   5   6 0.34842 1.77827   3
   9   5  -6 -2.0765 1.76646  12
   7  -5  -6 8.41874 2.60824   5
   7  -5  -6 7.11095 2.35076  11
  -7  -5   6 8.89611 2.67152   7
  -7  -5   6 7.77005 2.97618  10
   7  -5  -6 8.59537 2.58742  15
  -7   5   6 8.12270 2.76640  14
  -7   5   6 7.70767 2.03681   3
   7   5  -6 8.78975 1.72708   1
   7   5  -6 7.05169 1.81361  12
  -7   5   6 6.80489 2.54269   8
   7   5  -6 6.52573 1.55122  16
   7   5  -6 8.59036 2.08050   5
   5  -5  -6 118.495 7.35323  15
   5  -5  -6 118.527 6.53377  11
  -5  -5   6 110.515 5.82705   7
   5  -5  -6 109.988 6.15107   5
  -5  -5   6 105.628 6.76808  10
  -5  -5   6 106.214 4.68186   4
   5   5  -6 107.834 5.69672   5
  -5   5   6 105.337 6.43640   8
  -5   5   6 105.592 6.83518  14
   5   5  -6 116.988 5.56004  12
   3  -5  -6 44.4026 3.55430   5
   3  -5  -6 53.7934 4.41659  11
  -3  -5   6 54.4720 2.96220   4
  -3  -5   6 47.2435 4.30580  10
   3  -5  -6 45.6322 4.50870  15
   3  -5  -6 47.7677 3.57576   2
  -3  -5   6 42.1791 3.74084   7
  -3   5   6 47.3345 4.20527   8
   3   5  -6 44.3531 3.30390   5
  -3   5   6 44.6689 3.14111  13
  -3   5   6 45.6112 3.54956  14
  -3   5   6 43.7202 2.60088   4
  -1  -5   6 130.089 6.48728   7
   1  -5  -6 137.446 8.03827  15
   1  -5  -6 119.935 5.92403   5
  -1  -5   6 120.054 5.30676   4
   1  -5  -6 130.910 7.36389  11
   1  -5  -6 134.219 6.76746   2
  -1   5   6 125.377 4.85683   4
  -1   5   6 127.211 5.82067  13
   1   5  -6 136.090 5.43675   9
   1   5  -6 124.209 5.38239   6
   1   5  -6 126.268 5.89467   5
  -1  -5  -6 33.5676 4.14020   2
  -1  -5  -6 31.2148 3.54601   5
   1  -5   6 24.2435 3.17654   7
  -1  -5  -6 25.5954 3.71139  15
   1  -5   6 27.6340 2.81254   4
  -1  -5  -6 33.6946 4.03476  11
   1   5   6 28.0968 2.21156   4
  -1   5  -6 31.4594 2.69898   9
  -1   5  -6 28.8141 2.47862   6
   1   5   6 26.1737 2.71208   1
   1   5   6 26.7882 3.01484  13
  -3  -5  -6 16.0501 3.24513   2
   3  -5   6 11.9357 2.12892   4
   3  -5   6 11.4067 2.54838   7
  -3  -5  -6 11.6102 2.47342  11
   3   5   6 12.1205 2.28074   1
  -3   5  -6 14.4785 2.54018   9
   3   5   6 10.1623 2.45176  13
   3   5   6 10.9890 2.24998  16
   5  -5   6 115.897 6.83751   4
  -5  -5  -6 129.006 8.59526   2
  -5   5  -6 121.678 7.04032   9
   5   5   6 122.969 7.26302  13
   5   5   6 131.654 6.86168   1
  -5   5  -6 120.905 8.78132   3
   5   5   6 117.596 6.81809  16
   7  -5   6 6.19284 2.62747   4
  -7  -5  -6 14.9575 3.07769   2
  -7   5  -6 8.08103 2.36130   9
   7   5   6 3.88654 2.78398  13
   7   5   6 6.50339 2.49363   1
 -10  -6   6 1143.50 34.9595   7
  10  -6  -6 1122.83 34.2856   5
  10  -6  -6 1166.47 34.5973  12
 -10  -6   6 1102.45 36.7130  10
 -10   6   6 1166.03 41.7647  14
  10   6  -6 1141.10 35.1548  12
 -10   6   6 1114.57 37.0014   3
   8  -6  -6 161.190 8.15927   5
  -8  -6   6 150.177 9.72295  10
  -8  -6   6 159.597 8.14004   7
   8   6  -6 152.306 7.31826  16
   8   6  -6 156.705 7.73763   5
  -8   6   6 173.708 11.5372  14
   8   6  -6 165.344 8.35286  12
  -8   6   6 155.461 8.73848   3
  -8   6   6 176.213 9.99761   8
   8   6  -6 147.746 7.07096   1
   6  -6  -6 2376.84 69.3442  15
   6  -6  -6 2486.09 67.7952  11
   6  -6  -6 2467.20 67.5829   5
  -6  -6   6 2477.91 67.6202   7
  -6  -6   6 2406.90 69.4710  10
   6   6  -6 2445.58 67.1903   5
  -6   6   6 2463.15 70.8307  14
  -6   6   6 2561.76 69.2907   8
   6   6  -6 2525.21 67.0506  12
   4  -6  -6 155.318 7.32049   5
   4  -6  -6 157.547 7.85831  11
   4  -6  -6 153.333 8.60406  15
  -4  -6   6 164.344 7.49458   7
  -4  -6   6 149.358 5.94696   4
  -4  -6   6 158.320 8.77496  10
   4  -6  -6 154.951 7.12997   2
   4   6  -6 152.704 6.48502  12
  -4   6   6 140.222 7.65811  14
  -4   6   6 159.929 8.29533   8
   4   6  -6 153.741 7.19386   5
   2  -6  -6 2178.95 57.5604   2
   2  -6  -6 2093.48 59.5075  15
   2  -6  -6 2128.19 58.0885  11
  -2  -6   6 2032.65 54.9570   4
  -2  -6   6 1917.25 58.9281  10
  -2  -6   6 2107.06 57.0188   7
  -2   6   6 2070.68 55.7633  13
   2   6  -6 2078.94 56.3109   5
   2   6  -6 1963.78 54.7884  12
   0  -6   6 30.8075 2.49320   4
   0  -6  -6 19.3919 3.19862   2
   0  -6  -6 22.0369 2.77964   5
   0  -6  -6 23.4048 3.41742  11
   0  -6  -6 20.1210 3.57126  15
   0  -6   6 25.2805 3.46304   7
   0   6  -6 29.3908 2.76098   9
   0   6   6 20.9349 2.37422   1
   0   6  -6 16.3497 2.23522   6
   0   6   6 23.9331 2.87178  13
   2  -6   6 1087.73 33.1023   7
  -2  -6  -6 1072.53 32.9823  11
  -2  -6  -6 1132.76 34.6155   2
   2  -6   6 1109.72 31.2858   4
  -2   6  -6 1077.63 31.4051   9
  -2   6  -6 1061.56 30.6880   6
   2   6   6 1072.52 31.2057   1
   2   6   6 1061.02 31.6413  16
   2   6   6 1087.03 31.5954  13
  -4  -6  -6 29.2190 4.62390   2
   4  -6   6 23.8859 3.33078   4
   4  -6   6 27.9704 4.36163   7
   4   6   6 34.5572 4.10703  13
   4   6   6 34.0456 3.87901   1
   4   6   6 26.6013 3.50780  16
  -4   6  -6 35.8511 4.03693   9
   6  -6   6 626.262 21.6447   4
   6  -6   6 639.144 23.8046   7
  -6  -6  -6 659.091 24.8227   2
   6   6   6 670.421 21.5118   1
  -6   6  -6 655.584 21.9224   9
  -6   6  -6 657.794 25.8436   3
   6   6   6 637.344 21.9064  13
  11  -7  -6 140.284 8.14130  12
 -11  -7   6 162.824 10.3413  10
  11   7  -6 128.643 7.93634   1
 -11   7   6 139.507 10.4087   8
  11   7  -6 136.580 8.31896  12
 -11   7   6 163.255 13.2710  14
  -9  -7   6 74.5680 7.02330  10
   9  -7  -6 79.3853 6.20476   5
  -9  -7   6 81.8158 6.66651   7
   9   7  -6 86.9335 6.46671  12
  -9   7   6 90.3597 9.22851  14
  -9   7   6 78.4362 7.45860   8
   7  -7  -6 184.224 9.19554  11
   7  -7  -6 164.107 8.84613   5
  -7  -7   6 193.175 9.43235   7
  -7  -7   6 180.492 10.8481  10
   7   7  -6 185.426 8.50864   5
   7   7  -6 187.362 8.81403  12
  -7   7   6 177.951 10.2743   8
  -7   7   6 182.166 11.2270  14
  -5  -7   6 414.991 15.1351   2
  -5  -7   6 434.259 15.3563   7
   5  -7  -6 410.068 16.8443  15
   5  -7  -6 430.660 15.3283   5
  -5  -7   6 426.069 17.0853  10
   5  -7  -6 432.245 15.6828  11
   5   7  -6 420.496 14.3728  12
   5   7  -6 418.626 14.9340   5
  -5   7   6 443.824 16.7149   8
  -5   7   6 406.868 16.6300  14
  -3  -7   6 108.689 6.43052   7
   3  -7  -6 111.926 7.31597  11
  -3  -7   6 121.998 8.28166  10
   3  -7  -6 104.302 6.56173   2
   3  -7  -6 117.018 7.91824  15
   3   7  -6 109.804 6.04206   5
  -3   7   6 112.080 7.38640   8
  -3   7   6 96.2657 4.50584   6
   3   7  -6 117.510 5.43070  12
  -1  -7   6 332.542 11.4389   4
   1  -7  -6 369.106 14.4943  11
   1  -7  -6 359.294 15.5137  15
  -1  -7   6 354.915 13.5067   7
   1  -7  -6 372.752 14.3783   2
  -1  -7   6 353.250 15.8184  10
   1   7  -6 355.917 12.4900   6
  -1   7   6 349.374 12.2939  13
   1   7  -6 367.803 11.8335   9
  -1  -7  -6 140.318 8.46277  11
  -1  -7  -6 132.975 8.46651  15
   1  -7   6 142.647 7.95907   7
   1  -7   6 131.410 6.27797   4
  -1  -7  -6 139.119 8.39207   2
  -1   7  -6 159.518 6.95817   9
   1   7   6 147.245 6.82625  13
  -1   7  -6 136.649 6.52012   6
   1   7   6 136.139 6.61457   1
  -3  -7  -6 29.3018 5.12310   2
   3  -7   6 24.9255 3.83735   7
  -3  -7  -6 23.6059 3.69172  11
   3  -7   6 19.2572 2.87459   4
   3   7   6 29.9260 3.76639  16
   3   7   6 25.1800 3.12334   1
   3   7   6 25.2599 3.20425  13
  -3   7  -6 18.9562 2.66609   6
  -3   7  -6 26.0870 3.42425   9
  -5  -7  -6 94.7853 8.08518   2
   5  -7   6 96.3280 6.49159   4
   5  -7   6 91.9580 7.06518   7
  -5   7  -6 102.548 6.37747   9
   5   7   6 104.431 6.34010  13
   5   7   6 103.035 6.65032   1
 -10  -8   6 214.311 10.7803   7
  10  -8  -6 190.700 9.65651  12
  10  -8  -6 205.328 10.3598   5
 -10  -8   6 210.545 12.5132  10
 -10   8   6 214.372 14.6932  14
  10   8  -6 210.991 10.7449  12
 -10   8   6 200.350 12.0688   8
  -8  -8   6 242.616 13.2874  10
  -8  -8   6 261.544 11.6306   7
   8  -8  -6 242.641 11.0568   5
  -8   8   6 257.581 13.1889   8
  -8   8   6 238.856 14.3805  14
   8   8  -6 236.573 11.0160  12
  -6  -8   6 316.252 12.9423   7
   6  -8  -6 342.395 13.3745   5
   6  -8  -6 321.304 13.4306  11
  -6  -8   6 326.611 15.5921  10
   6   8  -6 328.342 12.4166  12
  -6   8   6 278.728 14.3033  14
  -6   8   6 317.533 14.3074   8
   4  -8  -6 532.671 19.2839  11
   4  -8  -6 530.708 18.3475   2
  -4  -8   6 520.923 20.9870  10
  -4  -8   6 547.850 18.4620   7
  -4   8   6 526.914 16.3401   6
   4   8  -6 551.425 17.4286  12
  -4   8   6 535.103 20.0413   8
  -2  -8   6 653.755 21.6611   7
   2  -8  -6 652.521 22.6110  11
   2  -8  -6 660.529 22.4169   2
  -2  -8   6 660.464 24.5403  10
   2   8  -6 641.292 19.6538  12
  -2   8   6 635.025 23.0136   8
  -2   8   6 657.880 20.3817  13
   2   8  -6 665.364 20.7302   6
   0  -8   6 743.203 24.5676   7
   0  -8  -6 759.687 25.7022  11
   0  -8  -6 774.517 25.9849   2
   0  -8   6 740.042 27.7152  10
   0   8  -6 745.623 23.2394   6
   0   8  -6 771.471 22.8342   9
   0   8   6 756.867 23.1748  13
   2  -8   6 594.195 21.3570   7
  -2  -8  -6 592.534 21.3272  11
  -2  -8  -6 594.758 22.6405   2
  -2   8  -6 636.854 19.4019   6
  -2   8  -6 605.797 19.5861   9
   2   8   6 578.434 19.3070   1
   2   8   6 597.333 19.5954  13
  -4  -8  -6 350.641 16.2749   2
   4  -8   6 363.383 15.5340   7
   4   8   6 354.913 13.7006   1
  -4   8  -6 349.972 13.7382   9
   4   8   6 341.140 13.3145  13
   9  -9  -6 89.9669 6.99223   5
  -9  -9   6 89.2393 9.01528  10
  -9  -9   6 101.160 7.44158   7
  -9   9   6 80.2609 8.92616  14
   9   9  -6 84.8319 6.44480  12
  -9   9   6 101.622 8.91808   8
   7  -9  -6 86.5185 7.09241  11
   7  -9  -6 83.7623 6.82569   5
  -7  -9   6 90.9284 6.88068   7
  -7  -9   6 92.9280 9.17800  10
  -7   9   6 84.9809 7.29264   8
   7   9  -6 94.7896 6.48201  12
  -5  -9   6 60.8605 5.69916   7
  -5  -9   6 57.4903 5.39049   2
  -5  -9   6 62.9107 7.80397  10
   5  -9  -6 51.5095 5.32053  11
   5   9  -6 63.2188 4.59913  12
  -5   9   6 56.7972 4.19389   6
  -5   9   6 61.4919 6.31773   8
   3  -9  -6 199.085 10.6364  11
  -3  -9   6 183.160 11.6961  10
   3  -9  -6 190.615 9.80599   2
  -3  -9   6 197.955 9.68359   7
   3   9  -6 203.978 9.11957   6
   3   9  -6 192.590 8.29195  12
  -3   9   6 191.971 10.9955   8
  -1  -9   6 28.4395 3.83089   7
  -1  -9   6 30.5269 5.20377  10
   1  -9  -6 33.7376 4.76847   2
   1  -9  -6 33.2243 4.70705  11
  -1   9   6 23.5774 3.08620  13
  -1   9   6 28.8076 4.83483   8
   1   9  -6 27.1743 3.66456   6
   1  -9   6 69.0780 5.65124   7
   1  -9   6 72.7385 8.01617  10
  -1  -9  -6 79.1764 7.43927   2
  -1  -9  -6 73.9826 6.41639  11
   1   9   6 72.2068 5.32267   1
  -1   9  -6 75.1169 4.81724   9
  -1   9  -6 76.0176 5.01298   6
   1   9   6 77.7176 4.98589  13
  -3  -9  -6 30.0279 4.88021   2
   3  -9   6 31.7996 4.83678   7
   3   9   6 23.7341 3.66350   1
   3   9   6 32.6831 3.69391  13
  -3   9  -6 21.6437 3.22052   6
  -3   9  -6 30.8993 3.95862   9
   8 -10  -6 1167.63 37.1712   5
  -8 -10   6 1190.53 36.9654   7
  -8 -10   6 1227.02 41.8788  10
  -8  10   6 1259.05 40.8073   8
   8  10  -6 1216.52 37.0288  12
  -6 -10   6 2.72305 2.78399   7
   6 -10  -6 6.57029 3.21612   5
   6 -10  -6 4.55292 3.35704  11
  -6 -10   6 5.92715 4.50202  10
   6  10  -6 4.48945 2.14509  12
  -6  10   6 3.80114 3.28410   8
   6  10  -6 6.14766 2.51170   6
   4 -10  -6 1725.51 51.3157  11
  -4 -10   6 1647.19 51.0141   2
   4 -10  -6 1692.61 50.3999   2
  -4 -10   6 1727.03 49.7845   7
  -4 -10   6 1703.31 54.2084  10
   4  10  -6 1830.09 49.5917   6
  -4  10   6 1741.65 52.5933   8
  -2 -10   6 9.25058 4.22638  10
  -2 -10   6 5.96576 2.20841   7
   2 -10  -6 3.93470 3.36042   2
   2 -10  -6 5.00447 3.82338  11
  -2  10   6 13.1528 3.92913   8
   2  10  -6 7.10550 2.47221   6
   0 -10   6 1314.19 39.5769   7
   0 -10  -6 1247.06 40.5521  11
   0 -10  -6 1333.57 41.6275   2
   0 -10   6 1253.53 43.7193  10
   0  10  -6 1342.63 38.5331   6
   0  10   6 1348.56 42.5294   8
   2 -10   6 6.94157 3.27748  10
   2 -10   6 4.70414 2.78914   7
  -2 -10  -6 11.3030 3.96952   2
  -2 -10  -6 6.96180 2.94074  11
  -2  10  -6 4.77571 2.29945   6
  -2  10  -6 9.40203 2.52631   9
   2  10   6 10.6342 2.76900   1
   7 -11  -6 58.0117 6.54190   5
  -7 -11   6 62.5457 7.88263  10
  -7 -11   6 57.6600 5.75274   7
  -7  11   6 70.7020 8.38454   8
   7  11  -6 66.6539 5.90767   6
   7  11  -6 60.6954 5.26299  12
  -5 -11   6 51.2267 5.40285   7
  -5 -11   6 50.6176 7.55442  10
   5 -11  -6 49.9504 6.26938  11
   5  11  -6 54.3445 5.18234  12
   5  11  -6 61.2509 5.50501   6
  -5  11   6 61.0262 7.55830   8
  -3 -11   6 109.351 9.50018  10
  -3 -11   6 108.311 8.31385   2
   3 -11  -6 105.619 8.37113   2
  -3 -11   6 107.706 7.37664   7
   3 -11  -6 109.582 8.82698  11
  -3  11   6 126.416 9.70451   8
   3  11  -6 108.937 7.10657   6
  -1 -11   6 57.9705 7.01698  10
  -1 -11   6 63.3004 5.91869   7
   1 -11  -6 62.1195 6.39895   2
   1 -11  -6 67.7010 7.35428  11
   1  11  -6 71.5831 5.79238   6
  -1  11   6 72.4704 7.69473   8
   1 -11   6 85.9877 6.79964   7
   1 -11   6 90.6877 8.84553  10
  -1 -11  -6 77.1146 7.49239  11
  -1 -11  -6 90.5971 8.29267   2
   1  11   6 84.7886 8.27195   8
  -1  11  -6 85.2534 6.20418   6
  -4 -12   6 209.632 11.7789   2
  -4 -12   6 205.519 14.3774  10
   4 -12  -6 205.947 12.1975  11
  -4  12   6 204.394 12.6580   8
   4  12  -6 203.026 10.1864   6
   2 -12  -6 298.786 14.6825   2
   2 -12  -6 255.102 14.1804  11
  -2 -12   6 309.736 17.3384  10
  -2 -12   6 318.597 15.4113   2
   2  12  -6 311.267 12.8726   6
  -2  12   6 313.459 15.6488   8
   0 -12  -6 194.773 11.7924   2
   0 -12   6 180.001 12.3989  10
   0 -12  -6 175.572 11.1392  11
   0  12   6 183.994 11.6282   8
   0  12  -6 193.357 9.73942   6
  12   0  -7 1.71668 2.33288  12
 -12   0   7 2.18905 2.86233   3
  12   0  -7 1.78151 2.37893   1
 -12   0   7 1.71811 3.39529  14
  10   0  -7 -0.5261 1.50747   5
  10   0  -7 -0.0552 1.34868  16
  10   0  -7 0.43313 1.43839  12
  10   0  -7 -1.0903 2.02680   1
 -10   0   7 2.52692 3.16423  14
 -10   0   7 -0.0319 2.02055   3
  -8   0   7 0.32641 2.29016  14
  -8   0   7 -1.6663 1.40909   7
   8   0  -7 6.13032 2.11291  16
  -8   0   7 2.02740 1.70096   3
   8   0  -7 0.87480 1.67485  12
   8   0  -7 0.44079 1.53704   5
   6   0  -7 -0.2207 0.91155  12
   6   0  -7 1.08834 0.94095  11
   6   0  -7 2.73402 1.52913  15
  -6   0   7 0.69525 0.90619   4
  -6   0   7 0.85881 1.40205   7
   6   0  -7 -0.0054 0.94169   5
   4   0  -7 1.97247 1.14856  11
   4   0  -7 0.81387 0.92981   5
  -4   0   7 0.13019 1.10120   4
  -4   0   7 0.08937 0.65401   8
   4   0  -7 -0.4302 1.20082  15
  -4   0   7 2.10109 0.93269   7
   4   0  -7 -0.1569 0.86567  12
   2   0  -7 0.55013 0.57193  12
  -2   0   7 1.82656 0.95497   7
   2   0  -7 -0.3094 0.61073   5
  -2   0   7 0.48056 0.70600  13
   2   0  -7 1.22554 0.99242  11
   2   0  -7 1.28894 1.16843  15
   0   0   7 0.69990 0.96220   7
   0   0  -7 0.53881 1.45049   2
   0   0   7 -0.5142 0.78525   4
   0   0  -7 1.34595 0.78093   5
   0   0   7 8.51387 1.64937  13
   0   0  -7 0.72162 1.23329  11
   0   0  -7 5.79641 1.94692  15
   2   0   7 0.63345 1.00363  13
   2   0   7 -0.0310 0.91101   4
  -2   0  -7 0.24015 0.99274  11
  -4   0  -7 1.18917 1.32903   9
   4   0   7 0.38257 1.89125  13
   4   0   7 -0.7569 1.76909   4
  -4   0  -7 2.13991 1.56155  11
   6   0   7 -0.8949 2.15897  13
  -6   0  -7 2.21161 1.61997   9
   6   0   7 2.01743 2.32139   4
  11  -1  -7 188.677 10.2443  16
  11  -1  -7 194.692 9.63393  12
 -11  -1   7 203.967 13.0825  14
 -11  -1   7 184.621 11.2994   3
  11  -1  -7 170.500 9.73040   1
  11   1  -7 174.435 9.71798   1
 -11   1   7 194.275 12.8221  14
 -11   1   7 211.004 11.5671   3
  11   1  -7 184.494 10.0197  16
  11   1  -7 181.990 9.69983  12
  -9  -1   7 967.615 33.4424  14
  -9  -1   7 992.159 29.0225   7
   9  -1  -7 945.954 29.0075   5
   9  -1  -7 981.110 30.0051  16
  -9  -1   7 931.245 30.8464   3
   9  -1  -7 971.772 29.5325  12
   9   1  -7 973.802 29.6880   1
   9   1  -7 965.650 29.0491   5
  -9   1   7 1031.47 34.3805  14
   9   1  -7 943.790 29.5378  16
   9   1  -7 968.699 29.5647  12
  -9   1   7 929.178 30.5047   3
  -7  -1   7 294.492 10.2648   4
   7  -1  -7 295.060 10.9517  12
   7  -1  -7 303.618 11.4104   5
   7  -1  -7 290.139 11.6110  15
  -7  -1   7 300.492 10.8980   7
   7   1  -7 291.983 10.8236  16
  -7   1   7 279.817 11.1035   3
  -7   1   7 321.256 14.0667  14
  -7   1   7 288.910 10.7734   8
   7   1  -7 295.602 11.1599   5
   7   1  -7 272.042 10.7884  12
  -7   1   7 323.785 10.6074   7
   5  -1  -7 2530.41 68.0055   5
   5  -1  -7 2566.83 67.7516  11
  -5  -1   7 2560.65 66.8994   4
   5  -1  -7 2589.82 69.5542  15
   5  -1  -7 2458.80 67.1380  12
  -5  -1   7 2518.36 67.1669   7
  -5   1   7 2563.76 66.8945   4
   5   1  -7 2512.44 67.1263  12
   5   1  -7 2474.64 68.9784  15
  -5   1   7 2474.49 67.0437   8
   5   1  -7 2518.91 67.8461   5
  -5   1   7 2496.09 66.5666   7
   5   1  -7 2534.60 67.4279  11
  -3  -1   7 403.511 12.1291  13
   3  -1  -7 393.424 12.3708   2
   3  -1  -7 406.265 14.6879  15
   3  -1  -7 404.486 13.5229  11
   3  -1  -7 367.931 11.8880  12
  -3  -1   7 383.831 12.6772  10
  -3  -1   7 387.516 12.2096   4
   3  -1  -7 400.963 13.0715   5
  -3  -1   7 389.148 12.5185   7
  -3   1   7 391.450 12.1727   4
   3   1  -7 388.215 12.8161   5
   3   1  -7 371.279 11.7158  12
   3   1  -7 400.095 13.1965  11
  -3   1   7 383.654 11.8575   7
   3   1  -7 399.507 14.3412  15
  -3   1   7 385.333 12.2331  13
  -1  -1   7 2842.02 73.7584   4
  -1  -1   7 2736.16 74.1104   7
   1  -1  -7 2759.40 73.9341   5
   1  -1  -7 2801.45 75.0028   2
  -1  -1   7 2755.34 73.4349  13
   1  -1  -7 2825.84 76.7367  15
   1  -1  -7 2902.01 75.5184  11
  -1   1   7 2839.43 73.8420  13
  -1   1   7 2741.46 73.3943   7
  -1   1   7 2791.93 73.5411   4
   1   1  -7 2785.07 73.8746   5
   1   1  -7 2734.90 74.9685  11
  -1  -1  -7 203.043 9.19329   2
   1  -1   7 193.056 7.97983   7
  -1  -1  -7 198.345 8.66620  11
   1  -1   7 189.025 7.59289   4
  -1  -1  -7 200.064 9.35113  15
   1  -1   7 192.491 7.56587  13
   1   1   7 201.100 7.55354   4
   1   1   7 190.277 6.67148   1
  -1   1  -7 196.308 8.53178  11
   1   1   7 206.600 7.84381  13
   3  -1   7 1253.25 35.9335   4
   3  -1   7 1270.20 35.9053  13
  -3  -1  -7 1237.50 36.4453  11
  -3  -1  -7 1247.70 38.5080   2
  -3   1  -7 1252.54 36.5435  11
  -3   1  -7 1250.31 36.4887   9
   3   1   7 1256.63 36.1441  13
   3   1   7 1281.66 35.8045   4
   5  -1   7 78.0524 5.71689   4
  -5  -1  -7 81.8610 5.89674   9
   5  -1   7 92.5588 6.19057  13
   5   1   7 83.5384 5.77500  13
  -5   1  -7 83.9662 5.93986   9
   5   1   7 81.3413 5.39482   4
  -7  -1  -7 395.090 15.4102   9
   7  -1   7 442.117 16.3222   4
   7  -1   7 410.242 16.2584  13
   7   1   7 408.780 15.7373   4
   7   1   7 426.736 16.6169  13
 -12  -2   7 181.741 11.5262   3
  12  -2  -7 174.207 10.1579   1
 -12  -2   7 189.901 12.9803  14
  12  -2  -7 196.266 10.1985  12
  12   2  -7 173.038 9.77671   1
 -12   2   7 190.621 11.7703   3
  12   2  -7 189.673 9.87568  12
 -12   2   7 191.330 14.0216  14
 -10  -2   7 287.862 13.8492   3
  10  -2  -7 306.938 12.0417   5
 -10  -2   7 286.488 12.0479   7
 -10  -2   7 298.227 15.3965  14
  10  -2  -7 306.849 12.5951  12
  10  -2  -7 300.368 13.0167  16
  10   2  -7 292.934 11.8118   5
  10   2  -7 284.409 12.0920   1
  10   2  -7 307.680 12.7261  12
  10   2  -7 292.310 12.5755  16
 -10   2   7 308.405 14.1156   3
 -10   2   7 309.748 16.2756  14
   8  -2  -7 432.654 15.0625   5
  -8  -2   7 445.373 15.0615   7
   8  -2  -7 432.832 15.0746  12
  -8   2   7 429.180 15.8549   3
  -8   2   7 415.941 15.2073   8
   8   2  -7 418.495 14.7837  16
   8   2  -7 426.581 15.0377  12
   8   2  -7 449.255 15.1692   5
  -8   2   7 430.066 18.3979  14
   8   2  -7 433.417 14.9386   1
   6  -2  -7 934.145 27.0468   5
   6  -2  -7 890.612 27.8175  15
  -6  -2   7 901.331 26.1777   7
   6  -2  -7 847.045 25.9195  12
   6  -2  -7 921.736 26.2964  11
  -6  -2   7 891.399 25.5388   4
  -6   2   7 919.344 25.5777   4
   6   2  -7 915.835 26.6494   5
  -6   2   7 882.771 26.4055   8
   6   2  -7 869.113 25.5354  11
   6   2  -7 866.812 25.5729  16
  -6   2   7 900.004 25.1205   7
   6   2  -7 882.869 26.0507  12
  -4  -2   7 783.040 23.9306  10
   4  -2  -7 803.090 22.9129   2
  -4  -2   7 836.868 23.3758   4
   4  -2  -7 832.487 24.6559  11
   4  -2  -7 819.256 26.0027  15
  -4  -2   7 813.288 23.7880   7
   4  -2  -7 820.440 24.4816   5
  -4   2   7 832.490 23.2294   4
   4   2  -7 817.576 24.0793  11
  -4   2   7 839.710 22.6527   7
  -4   2   7 822.701 24.1345   8
  -4   2   7 812.616 23.5281  13
   4   2  -7 812.824 24.1104   5
   4   2  -7 805.584 22.5228  16
   4   2  -7 810.241 23.1836  12
  -2  -2   7 958.229 27.1575   4
   2  -2  -7 958.052 27.9021   5
   2  -2  -7 989.280 28.0857   2
   2  -2  -7 1001.01 28.8699  11
  -2  -2   7 945.635 27.6484   7
   2  -2  -7 966.015 30.1017  15
  -2  -2   7 979.774 26.7299  13
   2   2  -7 963.174 28.2784  11
  -2   2   7 996.620 26.9750   4
  -2   2   7 950.616 27.2744  13
  -2   2   7 950.893 26.3404   7
   2   2  -7 955.585 27.6155   5
   0  -2  -7 910.640 28.3241  15
   0  -2  -7 927.716 27.4704   2
   0  -2  -7 914.885 27.2263  11
   0  -2   7 908.668 25.0849  13
   0  -2   7 875.869 26.1332   7
   0  -2   7 897.091 25.5434   4
   0  -2  -7 854.949 25.2285   5
   0   2   7 876.613 24.6779   1
   0   2  -7 903.674 25.7169   9
   0   2  -7 862.271 25.2031   5
   0   2   7 840.727 24.7466   7
   0   2   7 921.307 25.2915   4
   0   2  -7 893.327 26.7195  11
   0   2   7 895.209 25.6844  13
  -2  -2  -7 504.570 18.2864   2
   2  -2   7 491.803 15.9647   4
  -2  -2  -7 471.757 17.4350  15
  -2  -2  -7 503.066 17.0599  11
   2  -2   7 493.368 15.6782  13
   2   2   7 494.477 15.3129  16
   2   2   7 518.130 16.4334  13
   2   2   7 516.661 15.8303   4
  -2   2  -7 489.570 16.3744   9
  -2   2  -7 488.926 16.8376  11
   4  -2   7 387.559 13.8653  13
   4  -2   7 388.556 14.1227   4
  -4  -2  -7 394.196 16.2775   2
   4   2   7 382.929 13.7251   4
  -4   2  -7 392.280 14.5090   9
   4   2   7 394.311 14.4754  13
  -6  -2  -7 196.800 9.56526   9
   6  -2   7 210.230 10.0533   4
  -6   2  -7 195.136 9.49249   9
   6   2   7 210.745 10.0374  13
   6   2   7 212.731 9.59823   4
 -11  -3   7 881.011 31.8534   3
  11  -3  -7 913.212 28.8347  12
 -11  -3   7 950.542 33.3454  14
  11   3  -7 832.422 28.8773  16
 -11   3   7 866.397 30.6847   3
  11   3  -7 882.011 29.0555  12
 -11   3   7 962.304 35.7242  14
  -9  -3   7 244.509 10.7116   7
   9  -3  -7 241.334 10.4509  12
   9  -3  -7 252.223 10.6683   5
   9   3  -7 233.920 10.4603  16
   9   3  -7 244.007 10.6528  12
  -9   3   7 250.730 11.3300   8
  -9   3   7 250.187 14.1277  14
   9   3  -7 252.516 10.4156   5
   9   3  -7 250.247 10.4406   1
  -9   3   7 239.165 11.3700   3
   7  -3  -7 1502.78 44.0963  15
   7  -3  -7 1520.38 42.2700  11
  -7  -3   7 1464.31 43.0026  10
   7  -3  -7 1531.43 43.1729   5
  -7  -3   7 1537.69 41.7458   4
  -7  -3   7 1533.81 42.9291   7
   7  -3  -7 1496.46 42.6978  12
  -7   3   7 1568.20 46.7309  14
   7   3  -7 1498.12 42.1649  16
   7   3  -7 1540.37 42.9321   5
   7   3  -7 1512.57 42.6908  12
  -7   3   7 1560.13 43.6524   8
   7   3  -7 1461.12 41.8635   1
  -5  -3   7 446.121 15.3487  10
  -5  -3   7 450.002 14.3156   4
   5  -3  -7 476.404 17.1590  15
   5  -3  -7 469.286 15.5320  11
  -5  -3   7 471.074 15.2401   7
   5  -3  -7 484.536 15.8527   5
   5   3  -7 467.772 15.4032   5
  -5   3   7 469.066 15.7240   8
   5   3  -7 456.204 14.8037  11
  -5   3   7 501.829 14.4914   4
   5   3  -7 460.962 14.7110  12
   5   3  -7 441.563 13.8117  16
  -5   3   7 460.817 17.0798  14
   3  -3  -7 1469.77 39.7521   2
  -3  -3   7 1356.50 40.7831  10
  -3  -3   7 1417.18 39.0509   4
   3  -3  -7 1453.68 42.5014  15
   3  -3  -7 1483.40 41.0036  11
  -3  -3   7 1420.97 39.9037   7
   3  -3  -7 1442.08 40.2484   5
  -3   3   7 1484.47 38.8847   4
   3   3  -7 1439.63 39.9556   5
  -3   3   7 1397.25 39.3259  13
   3   3  -7 1420.99 40.1563  11
   3   3  -7 1422.49 38.5976  12
  -1  -3   7 503.138 15.3283   4
  -1  -3   7 483.770 16.0460   7
   1  -3  -7 512.620 17.0545  11
   1  -3  -7 464.382 15.5443   5
   1  -3  -7 502.621 18.0766  15
  -1  -3   7 492.225 14.5729  13
   1  -3  -7 511.839 16.7095   2
   1   3  -7 502.524 15.5704   5
   1   3  -7 498.576 15.2657   9
  -1   3   7 490.142 14.8697   4
  -1   3   7 490.110 15.4861  13
   1   3  -7 494.414 16.3558  11
   1  -3   7 1026.67 31.0013   7
   1  -3   7 1035.62 29.3335  13
   1  -3   7 1060.87 30.1482   4
  -1  -3  -7 1074.59 32.4749   2
  -1  -3  -7 1022.48 32.5396  15
  -1  -3  -7 1080.84 31.7982  11
  -1   3  -7 1044.63 31.0679  11
   1   3   7 1051.09 29.3285   1
  -1   3  -7 1041.76 29.3870   5
   1   3   7 1053.00 30.2573  13
  -1   3  -7 1083.21 30.4093   9
   1   3   7 1054.49 29.5615   4
  -3  -3  -7 325.301 12.6442  11
   3  -3   7 319.589 11.5901  13
  -3  -3  -7 328.344 14.2358   2
   3  -3   7 329.167 12.0654   4
   3   3   7 332.857 11.6157   4
   3   3   7 329.411 11.6103  16
   3   3   7 330.781 12.4797  13
  -3   3  -7 326.017 12.3880   9
   3   3   7 322.345 11.1700   1
  -5  -3  -7 598.522 22.8204   2
   5  -3   7 600.311 20.1813   4
  -5   3  -7 600.771 20.2131   9
   5   3   7 579.235 19.3087   4
   5   3   7 608.985 20.4891  13
  12  -4  -7 130.828 7.97982  12
  12  -4  -7 137.485 9.47360   1
 -12  -4   7 117.997 9.90860   3
 -12  -4   7 130.478 10.6746  14
 -12   4   7 144.355 12.7676  14
  12   4  -7 115.634 7.59252   1
  12   4  -7 121.134 8.32753  12
  10  -4  -7 115.364 7.35592  12
  10  -4  -7 109.101 6.84195   5
  10  -4  -7 112.976 7.54433  16
 -10  -4   7 114.195 8.81037  14
 -10  -4   7 112.540 6.92466   7
 -10   4   7 119.318 8.14878   8
  10   4  -7 107.632 6.91561  16
 -10   4   7 123.122 10.6070  14
  10   4  -7 119.448 7.20823  12
  10   4  -7 111.062 6.80571   1
 -10   4   7 111.777 8.01543   3
   8  -4  -7 78.0184 5.29799   5
   8  -4  -7 73.1533 5.31503  12
  -8  -4   7 72.7645 5.57904   7
  -8  -4   7 62.0758 5.52779  10
  -8   4   7 65.0157 6.93567  14
   8   4  -7 63.3755 4.56604  16
   8   4  -7 72.7947 5.10361   5
   8   4  -7 59.9979 4.31334   1
   8   4  -7 70.2436 5.19433  12
  -8   4   7 71.0158 5.79332   8
  -6  -4   7 234.322 8.59425   4
   6  -4  -7 223.850 10.6420  15
   6  -4  -7 231.051 9.68436  11
   6  -4  -7 240.769 9.94273   5
  -6  -4   7 230.161 10.1013  10
  -6  -4   7 241.661 9.78271   7
   6   4  -7 233.364 9.55685   5
  -6   4   7 231.606 11.3272  14
   6   4  -7 221.924 8.95437  12
  -6   4   7 233.969 10.0680   8
  -4  -4   7 37.7698 3.29211   7
   4  -4  -7 39.9103 4.01894   5
  -4  -4   7 48.3208 4.16717  10
   4  -4  -7 40.1502 2.94843   2
   4  -4  -7 40.1789 4.16867  15
  -4  -4   7 34.9554 2.95177   4
   4  -4  -7 35.2892 4.05902  11
  -4   4   7 34.3198 3.60899  14
  -4   4   7 41.7150 3.92769   8
   4   4  -7 34.4627 2.69236  12
  -4   4   7 37.4406 2.83591   4
  -4   4   7 38.2802 3.21884  13
   4   4  -7 39.3707 3.22669   5
   2  -4  -7 53.0527 4.05254   5
  -2  -4   7 50.3354 4.10846   7
   2  -4  -7 59.7777 4.58382  11
   2  -4  -7 51.8616 4.04770   2
   2  -4  -7 57.0487 5.02195  15
  -2  -4   7 56.9527 3.37565   4
  -2   4   7 53.7160 3.18154   4
  -2   4   7 54.6128 3.55719  13
   2   4  -7 62.0128 3.98655   5
   2   4  -7 53.8107 3.14428   9
   0  -4  -7 116.507 6.84633  11
   0  -4   7 110.528 5.44511   4
   0  -4  -7 117.588 6.91645   2
   0  -4   7 111.670 6.27358   7
   0  -4  -7 97.2130 5.15708   5
   0  -4  -7 111.409 7.27119  15
   0   4  -7 111.858 5.40949   9
   0   4  -7 111.899 5.35257   5
   0   4  -7 105.838 4.76591   6
   0   4   7 104.343 4.67033   4
   0   4   7 109.277 5.45195  13
   0   4   7 109.572 5.05721   1
   2  -4   7 1.47585 1.20729   4
   2  -4   7 2.71830 1.99300   7
  -2  -4  -7 5.14612 1.92878  15
  -2  -4  -7 3.04394 1.89991  11
  -2  -4  -7 2.46315 1.82126   2
   2   4   7 4.12710 1.48618   4
  -2   4  -7 6.39253 1.64073   9
   2   4   7 7.16457 1.79084   1
   2   4   7 3.23204 1.90880  13
   2   4   7 10.2506 2.06984  16
   4  -4   7 53.3079 4.81324   4
  -4  -4  -7 64.3696 6.48338   2
   4   4   7 58.0183 4.78761  13
   4   4   7 54.4210 4.28616   1
   4   4   7 55.5827 3.90794   4
   4   4   7 55.6708 4.15142  16
  -4   4  -7 54.5208 4.87880   9
   6  -4   7 12.1309 3.10255   4
  -6  -4  -7 11.3241 2.34196   9
  -6  -4  -7 10.6297 3.72197   2
  -6   4  -7 14.4155 3.15752   9
   6   4   7 15.1480 3.61060  13
  11  -5  -7 148.461 8.59612  12
 -11  -5   7 146.085 8.81928   7
 -11  -5   7 139.960 10.4380  14
 -11   5   7 151.164 12.7233  14
 -11   5   7 151.699 9.84180   8
  11   5  -7 148.961 8.61292  12
  11   5  -7 142.896 8.19516   1
  -9  -5   7 418.466 15.5427   7
   9  -5  -7 417.842 15.6506   5
  -9  -5   7 418.895 16.8525  10
   9  -5  -7 427.588 15.5700  12
  -9   5   7 430.953 20.0680  14
   9   5  -7 391.198 14.5381   1
   9   5  -7 441.230 15.4897   5
   9   5  -7 345.608 15.6396  16
  -9   5   7 464.107 17.7294   8
   9   5  -7 424.598 15.8011  12
  -7  -5   7 358.477 13.4998   7
   7  -5  -7 335.927 14.2798  15
  -7  -5   7 330.507 14.1818  10
   7  -5  -7 354.981 13.5528   5
   7  -5  -7 356.425 13.0996  11
   7   5  -7 360.986 12.9062  12
  -7   5   7 339.513 14.1312   8
   7   5  -7 352.544 13.1993   5
  -7   5   7 372.748 16.1402  14
  -5  -5   7 1282.61 39.2922  10
   5  -5  -7 1280.94 39.9148  15
   5  -5  -7 1341.04 38.5047  11
  -5  -5   7 1319.91 38.0445   7
   5  -5  -7 1308.78 38.1009   5
  -5  -5   7 1316.70 36.5339   4
  -5   5   7 1344.20 39.1219   8
  -5   5   7 1311.07 39.7648  14
  -5   5   7 1366.86 36.3680   4
   5   5  -7 1335.71 37.1942  12
   5   5  -7 1357.80 38.1112   5
  -3  -5   7 797.631 26.1278  10
  -3  -5   7 807.033 24.6165   7
   3  -5  -7 800.865 26.7470  15
  -3  -5   7 783.547 22.9777   4
   3  -5  -7 804.297 24.4391   5
   3  -5  -7 817.580 25.4378  11
   3  -5  -7 814.934 24.2171   2
  -3   5   7 812.586 22.6081   4
  -3   5   7 810.350 23.7499  13
  -3   5   7 783.102 25.2707   8
   3   5  -7 784.266 24.0687   5
   3   5  -7 776.838 22.7607  12
   1  -5  -7 1406.19 44.1013  15
   1  -5  -7 1478.67 42.5355   2
   1  -5  -7 1412.32 41.2769   5
  -1  -5   7 1489.60 42.1285   7
  -1  -5   7 1440.18 40.3845   4
   1  -5  -7 1492.69 43.1183  11
  -1   5   7 1502.88 39.8188   4
   1   5  -7 1517.21 41.3325   5
  -1   5   7 1459.48 40.9976  13
   1   5  -7 1537.56 40.5724   9
   1  -5   7 466.087 16.7768   7
  -1  -5  -7 501.602 18.0841   2
  -1  -5  -7 482.265 17.3612  11
   1  -5   7 457.846 15.1947   4
  -1  -5  -7 453.705 17.8456  15
  -1   5  -7 480.700 15.6582   9
  -1   5  -7 454.649 14.6126   6
   1   5   7 475.592 15.7403  13
   1   5   7 478.710 14.4592   4
   1   5   7 472.767 15.1291   1
  -3  -5  -7 508.494 19.5152   2
  -3  -5  -7 485.108 17.5450  11
   3  -5   7 489.232 16.7025   4
   3  -5   7 491.751 18.3684   7
   3   5   7 493.137 17.0159  13
   3   5   7 490.080 16.1720   1
   3   5   7 483.447 16.4930  16
  -3   5  -7 481.047 16.7848   9
   5  -5   7 142.500 8.82141   7
   5  -5   7 135.831 7.49369   4
  -5  -5  -7 135.782 9.62092   2
   5   5   7 125.413 7.35349  13
  -5   5  -7 132.932 7.75561   9
   5   5   7 140.144 7.38712   1
  10  -6  -7 58.0025 4.98478   5
 -10  -6   7 56.9959 5.25828   7
 -10  -6   7 51.7296 6.73368  14
 -10  -6   7 46.4024 8.87723  10
  10  -6  -7 47.0545 5.11177  12
 -10   6   7 64.7909 7.71809  14
 -10   6   7 62.0698 6.77472   8
  10   6  -7 53.0439 5.62833  12
  -8  -6   7 109.525 8.16710  10
   8  -6  -7 104.911 7.07926   5
  -8  -6   7 125.649 7.53232   7
   8   6  -7 114.541 6.73659  12
   8   6  -7 114.574 6.83858   5
  -8   6   7 113.766 8.05583   8
  -8   6   7 110.932 8.74944  14
   6  -6  -7 14.0258 3.19161  11
   6  -6  -7 1.39115 2.22568   5
  -6  -6   7 1.73881 1.31723   4
   6  -6  -7 3.13780 1.98934  15
  -6  -6   7 0.01687 2.14854   7
  -6   6   7 0.80346 2.00910   8
  -6   6   7 0.54788 1.97217  14
   6   6  -7 0.83682 1.14014  12
   6   6  -7 -1.7713 1.53391   5
  -4  -6   7 96.4070 6.86527  10
   4  -6  -7 88.7747 5.81359   5
  -4  -6   7 86.1746 5.75995   7
   4  -6  -7 83.9676 6.79478  15
   4  -6  -7 82.9308 4.88003   2
  -4  -6   7 84.0825 4.49181   4
   4  -6  -7 79.6545 6.20174  11
   4   6  -7 78.8671 4.51789  12
  -4   6   7 98.6047 4.37242   4
  -4   6   7 83.9539 6.15840   8
   4   6  -7 78.0848 5.05236   5
  -2  -6   7 13.2424 2.11884   4
   2  -6  -7 14.3155 3.41491  11
   2  -6  -7 13.4086 2.79590   2
   2  -6  -7 11.4208 2.96298  15
  -2  -6   7 13.9194 3.41605  10
  -2  -6   7 13.1263 2.82542   7
   2  -6  -7 15.2368 2.52735   5
  -2   6   7 11.3781 2.21023  13
   2   6  -7 14.3087 1.95030   9
   2   6  -7 13.4881 2.46078   5
   0  -6  -7 1.70185 1.64449   5
   0  -6   7 -0.6758 1.37021   4
   0  -6  -7 -0.8655 1.98023   2
   0  -6  -7 0.45060 2.26437  11
   0  -6  -7 1.33441 2.11524  15
   0  -6   7 1.44912 1.43995   7
   0   6   7 -1.2323 1.28845   1
   0   6   7 0.18935 1.61755  13
   0   6  -7 1.50409 1.25603   6
   0   6  -7 1.90352 1.31210   9
   2  -6   7 43.8821 4.05013   4
   2  -6   7 43.1379 5.01269   7
  -2  -6  -7 36.0921 4.44296  11
  -2  -6  -7 52.3796 5.85571   2
   2   6   7 41.4208 4.25762  13
  -2   6  -7 29.3777 3.54585   6
   2   6   7 40.9323 3.98322   1
  -2   6  -7 42.7634 3.99610   9
   4  -6   7 2.39332 2.35192   7
   4  -6   7 -0.0571 1.87868   4
  -4  -6  -7 3.98855 3.01628   2
  -4   6  -7 -0.3295 1.42728   9
   4   6   7 -0.6876 1.98316  13
   4   6   7 1.89316 1.81075  16
   4   6   7 0.88609 1.33822   1
  -9  -7   7 929.859 32.5538  10
  -9  -7   7 950.688 30.5559   7
   9  -7  -7 979.342 30.6296   5
  -9   7   7 1014.20 33.2101   8
   9   7  -7 950.159 30.4724  12
  -9   7   7 970.381 35.6367  14
   7  -7  -7 201.988 10.0016   5
  -7  -7   7 209.405 10.2164   7
   7  -7  -7 212.880 10.0873  11
  -7  -7   7 215.943 12.0722  10
   7   7  -7 219.952 9.73085  12
  -7   7   7 199.951 11.9821  14
  -7   7   7 207.174 11.1471   8
   7   7  -7 228.010 10.1095   5
  -5  -7   7 938.263 31.3437  10
  -5  -7   7 924.362 29.0243   7
   5  -7  -7 928.151 29.7021  11
   5  -7  -7 931.229 28.9836   5
   5   7  -7 936.007 27.8602  12
   5   7  -7 957.148 28.9722   5
  -5   7   7 977.902 30.9017   8
   3  -7  -7 116.034 7.24807  11
   3  -7  -7 111.355 7.91176  15
  -3  -7   7 118.309 8.54185  10
   3  -7  -7 107.226 6.60990   5
   3  -7  -7 103.765 6.60710   2
  -3  -7   7 117.113 5.34027   4
  -3  -7   7 111.622 6.58237   7
  -3   7   7 113.880 7.69202   8
   3   7  -7 120.588 5.52983  12
   3   7  -7 112.659 6.48672   5
  -3   7   7 123.873 6.26937  13
  -1  -7   7 704.165 22.7880   7
  -1  -7   7 683.588 20.4664   4
   1  -7  -7 697.388 23.0821   2
   1  -7  -7 682.894 23.5447  11
  -1  -7   7 675.519 25.2967  10
   1  -7  -7 642.221 21.3905   5
   1   7  -7 705.802 20.5563   9
  -1   7   7 657.358 21.0502  13
   1   7  -7 695.967 21.1756   6
  -1  -7  -7 160.407 9.36291  11
  -1  -7  -7 178.978 10.1056   2
   1  -7   7 180.106 7.67192   4
   1  -7   7 187.581 9.59107   7
  -1   7  -7 179.902 8.07331   9
   1   7   7 181.093 8.40374  13
   1   7   7 167.728 7.84896   1
  -1   7  -7 164.448 7.36450   6
  -3  -7  -7 540.688 20.8415  11
   3  -7   7 615.546 20.1643   4
   3  -7   7 649.875 22.7546   7
  -3  -7  -7 641.293 23.8779   2
  -3   7  -7 624.156 20.5083   9
   3   7   7 632.456 20.3160   1
   3   7   7 607.155 20.5146  13
  -5  -7  -7 213.623 12.4474   2
   5  -7   7 242.673 12.4912   7
  -5   7  -7 226.115 10.7473   9
   5   7   7 224.397 10.6687  13
   5   7   7 234.168 10.4834   1
  10  -8  -7 160.420 8.62328  12
  10  -8  -7 155.186 8.96579   5
 -10  -8   7 174.029 9.76775   7
 -10   8   7 174.266 11.3130   8
  10   8  -7 160.685 9.41815  12
 -10   8   7 169.949 12.9946  14
   8  -8  -7 443.419 16.9144   5
  -8  -8   7 460.131 17.1534   7
  -8  -8   7 414.982 19.0661  10
   8   8  -7 449.797 16.4107  12
  -8   8   7 444.855 18.7995   8
  -8   8   7 426.479 19.9517  14
   6  -8  -7 222.973 11.0378  11
  -6  -8   7 237.479 12.5104  10
  -6  -8   7 220.756 10.6237   7
   6  -8  -7 209.135 10.3882   5
   6   8  -7 220.844 9.71144  12
  -6   8   7 207.333 11.3949   8
   6   8  -7 233.676 10.4129   5
   4  -8  -7 706.815 23.5404   5
   4  -8  -7 717.499 24.6590  11
  -4  -8   7 741.449 26.8918  10
   4  -8  -7 701.754 23.2003   2
  -4  -8   7 720.017 23.8729   7
   4   8  -7 727.147 22.2523  12
  -4   8   7 747.913 25.5586   8
   2  -8  -7 578.742 20.4018   2
   2  -8  -7 529.909 19.0032   5
  -2  -8   7 573.593 20.0107   7
   2  -8  -7 578.044 21.0035  11
  -2  -8   7 549.138 22.4728  10
  -2   8   7 589.256 18.8103  13
  -2   8   7 567.153 21.3158   8
   2   8  -7 604.530 19.0748   6
   0  -8   7 288.414 15.1519  10
   0  -8  -7 299.896 13.7704  11
   0  -8  -7 264.571 11.2308   5
   0  -8  -7 302.484 13.7760   2
   0  -8   7 298.107 12.9426   7
   0   8  -7 307.139 11.1900   9
   0   8  -7 304.541 11.4716   6
   0   8   7 301.055 11.6445  13
  -2  -8  -7 608.501 22.7375   2
  -2  -8  -7 546.515 20.8350  11
   2  -8   7 587.969 21.3962   7
  -2   8  -7 566.263 18.5952   6
   2   8   7 580.809 19.3680  13
  -2   8  -7 591.141 19.4170   9
   2   8   7 567.623 19.2212   1
  -4  -8  -7 124.874 9.02546   2
   4  -8   7 125.361 8.92446   7
   4   8   7 117.062 7.22296   1
   4   8   7 123.724 7.52084  13
  -4   8  -7 122.970 7.45685   9
  -9  -9   7 20.3142 5.08206  10
   9  -9  -7 20.1929 3.59985   5
  -9  -9   7 20.2568 4.04523   7
  -9   9   7 19.9186 4.92412   8
   9   9  -7 24.2619 3.96338  12
   7  -9  -7 654.563 22.9800   5
   7  -9  -7 642.408 22.9809  11
  -7  -9   7 649.815 26.1107  10
  -7  -9   7 682.046 23.0753   7
  -7   9   7 671.255 25.1244   8
   7   9  -7 675.081 22.3214  12
   5  -9  -7 118.581 7.40366   5
  -5  -9   7 124.430 9.93150  10
   5  -9  -7 122.566 8.50048  11
  -5  -9   7 123.080 7.98475   7
  -5  -9   7 107.028 8.42292   2
   5   9  -7 130.872 6.96992  12
  -5   9   7 124.897 8.52792   8
  -3  -9   7 1441.95 46.3301  10
   3  -9  -7 1388.10 41.8938   5
  -3  -9   7 1426.86 42.4635   7
   3  -9  -7 1438.56 42.7093   2
   3  -9  -7 1385.82 43.4798  11
  -3   9   7 1513.21 45.0864   8
   3   9  -7 1431.62 41.5637   6
   1  -9  -7 141.764 8.04845   5
  -1  -9   7 164.906 8.86288   7
   1  -9  -7 157.025 9.91047  11
   1  -9  -7 162.772 9.74844   2
  -1  -9   7 164.006 11.4527  10
  -1   9   7 170.892 8.08330  13
   1   9  -7 163.855 8.14725   6
  -1   9   7 158.317 10.4130   8
  -1  -9  -7 996.318 33.4162   2
  -1  -9  -7 987.680 32.7845  11
   1  -9   7 1001.47 36.5497  10
   1  -9   7 1000.47 32.4384   7
  -1   9  -7 1000.65 30.2193   6
  -1   9  -7 1017.35 30.2080   9
   1   9   7 1031.21 30.5525  13
   3  -9   7 17.8595 4.00175   7
  -3  -9  -7 20.8507 4.28585   2
  -3   9  -7 15.2434 3.05914   9
   3   9   7 19.7829 3.05304  13
   3   9   7 25.8109 3.50063   1
   8 -10  -7 13.1915 3.72535   5
  -8 -10   7 14.8500 5.19677  10
  -8 -10   7 16.7660 3.92427   7
   8  10  -7 15.7959 3.47118  12
  -8  10   7 18.1598 4.81376   8
  -6 -10   7 31.5629 4.33116   7
  -6 -10   7 39.8006 6.79564  10
   6 -10  -7 29.0543 5.02707  11
   6 -10  -7 29.3230 4.63480   5
  -6  10   7 34.2635 5.68190   8
   6  10  -7 28.7724 4.06358   6
   6  10  -7 36.2933 4.31241  12
   4 -10  -7 14.4035 4.41265  11
  -4 -10   7 13.9065 3.31588   2
  -4 -10   7 14.6655 3.77316   7
   4 -10  -7 13.2283 3.62433   5
  -4 -10   7 17.6768 5.34303  10
   4  10  -7 12.9513 2.72175  12
  -4  10   7 33.0548 5.23372   8
   4  10  -7 11.8672 2.69813   6
  -2 -10   7 -0.4138 2.34284   7
  -2 -10   7 1.56911 3.07999  10
   2 -10  -7 -0.4514 2.30040  11
   2 -10  -7 1.04743 2.06545   2
   2 -10  -7 10.5293 2.72533   5
  -2  10   7 2.63453 3.13158   8
   2  10  -7 1.31138 2.00266   6
   0 -10   7 13.9814 3.74340   7
   0 -10  -7 13.6084 3.55020  11
   0 -10   7 15.5888 5.08152  10
   0 -10  -7 10.0267 3.14461   2
   0  10  -7 11.6381 2.53326   6
   0  10   7 14.9010 3.84767   8
   2 -10   7 12.1867 3.60848   7
  -2 -10  -7 19.3933 4.42451   2
  -2 -10  -7 19.9978 3.93675  11
   2 -10   7 21.6896 5.32711  10
  -2  10  -7 16.1363 2.99568   6
  -2  10  -7 15.3622 2.95931   9
  -5 -11   7 113.955 10.6951  10
  -5 -11   7 115.257 7.85530   7
   5 -11  -7 100.122 7.38088   5
   5 -11  -7 100.721 8.59935  11
  -5  11   7 105.369 9.02958   8
   5  11  -7 101.691 6.37908  12
   5  11  -7 111.851 7.40265   6
   3 -11  -7 298.565 14.8336  11
  -3 -11   7 303.893 16.6335  10
   3 -11  -7 282.685 12.9165   5
  -3 -11   7 308.277 14.5192   2
  -3 -11   7 291.033 13.3366   7
   3 -11  -7 310.777 13.8383   2
  -3  11   7 313.742 15.5050   8
   3  11  -7 318.550 13.1352   6
  -1 -11   7 49.0543 5.24277   7
   1 -11  -7 45.7031 6.15562   2
  -1 -11   7 50.7423 7.79245  10
   1 -11  -7 46.6293 6.42892  11
   1 -11  -7 35.4477 4.58543   5
   1  11  -7 36.0832 4.20249   6
  -1  11   7 43.7380 6.53252   8
  12   0  -8 369.228 15.2811  12
 -12   0   8 364.336 18.9427  14
  12   0  -8 377.385 15.7999   1
  10   0  -8 26.9099 3.66367  16
  10   0  -8 33.6839 4.14865   5
  10   0  -8 33.4313 4.10718   1
 -10   0   8 33.0811 4.66739   3
 -10   0   8 30.1527 5.43898  14
  10   0  -8 22.2230 3.47043  12
   8   0  -8 1805.29 50.6118  12
  -8   0   8 1817.28 49.7908   7
   8   0  -8 1816.54 50.7953   5
  -8   0   8 1775.10 51.0778   3
   8   0  -8 1798.68 50.5649  16
   6   0  -8 311.930 11.1273  12
   6   0  -8 305.695 11.1338  11
  -6   0   8 301.901 10.6257   7
   6   0  -8 316.119 11.9116   5
   6   0  -8 315.258 12.7935  15
  -6   0   8 308.120 10.7722   4
  -4   0   8 4236.82 108.888  13
   4   0  -8 4133.95 109.921   5
  -4   0   8 4142.76 108.744   7
   4   0  -8 4221.45 110.224  11
   4   0  -8 4029.68 108.628  12
  -4   0   8 4167.03 108.816   4
   4   0  -8 4186.77 112.225  15
  -2   0   8 142.904 6.09797   7
   2   0  -8 154.434 7.43082  11
   2   0  -8 156.363 6.70134   5
   2   0  -8 150.120 8.26098  15
  -2   0   8 139.486 6.16505   4
  -2   0   8 144.943 6.11523  13
   0   0   8 2641.14 69.0452   4
   0   0   8 2515.92 69.0335   7
   0   0   8 2583.29 68.9058  13
   0   0  -8 2571.51 70.7688  11
   0   0  -8 2583.08 68.5911   5
  -2   0  -8 27.4864 3.72161  11
   2   0   8 33.0993 3.55960   7
   2   0   8 30.9384 3.55209  13
   2   0   8 29.0350 3.40662   4
   4   0   8 1007.00 30.3239  13
   4   0   8 989.787 29.9558   4
  -4   0  -8 953.650 30.3000   9
  -6   0  -8 11.6197 2.55678   9
   6   0   8 9.34344 3.23954  13
   6   0   8 8.62054 3.04243   4
 -11  -1   8 6.18586 3.89459  14
 -11  -1   8 9.57009 3.24859   3
  11  -1  -8 9.23710 2.92771   5
  11  -1  -8 6.96133 2.93657   1
  11  -1  -8 5.32821 2.72397  12
  11  -1  -8 6.88093 2.85131  16
 -11   1   8 5.27082 2.78544   3
  11   1  -8 3.39654 2.43909   1
 -11   1   8 9.73764 4.30775  14
  11   1  -8 5.32494 2.17395  16
  11   1  -8 8.13031 2.82990  12
   9  -1  -8 248.697 10.7327  12
   9  -1  -8 256.425 11.0499  16
  -9  -1   8 252.889 13.9860  14
  -9  -1   8 259.329 10.6668   7
  -9  -1   8 251.365 11.7371   3
   9  -1  -8 259.479 11.0020   5
   9   1  -8 238.684 10.6368  16
   9   1  -8 246.547 10.8461   1
  -9   1   8 273.511 14.5190  14
   9   1  -8 255.625 10.8619   5
   9   1  -8 266.495 11.1593  12
  -9   1   8 261.152 10.0447   7
  -9   1   8 238.881 11.1382   3
  -7  -1   8 3.53661 1.29950   4
   7  -1  -8 4.32281 1.79294  12
   7  -1  -8 4.43734 1.62932  15
   7  -1  -8 2.74314 1.98854   5
   7  -1  -8 3.00480 1.30804  11
  -7  -1   8 3.97977 1.87947   7
   7   1  -8 3.00329 1.36181  12
   7   1  -8 2.98131 1.25000  16
  -7   1   8 3.28533 1.52301   7
   7   1  -8 4.71576 1.94338   5
  -7   1   8 3.91446 1.35199   4
   5  -1  -8 190.085 8.20110  11
   5  -1  -8 185.613 8.21699   5
   5  -1  -8 181.454 9.29903  15
  -5  -1   8 190.200 7.43777   4
  -5  -1   8 185.991 7.50715   7
   5  -1  -8 180.095 7.40876  12
   5   1  -8 187.397 8.21205   5
  -5   1   8 170.940 7.14718   4
  -5   1   8 183.670 6.94621   7
   5   1  -8 185.503 7.90620  11
   5   1  -8 180.546 8.90181  15
   5   1  -8 178.722 7.25510  12
   3  -1  -8 294.123 10.7892   5
  -3  -1   8 280.212 9.71417  13
  -3  -1   8 290.789 10.0736   4
   3  -1  -8 272.371 9.45653  12
   3  -1  -8 292.104 12.5108  15
  -3  -1   8 292.701 10.2494   7
   3  -1  -8 314.009 11.6739  11
   3  -1  -8 304.277 10.4848   2
  -3   1   8 283.421 9.56899   7
  -3   1   8 293.643 10.1001  13
   3   1  -8 287.717 10.6436   5
  -3   1   8 288.801 9.86911   4
   3   1  -8 289.366 9.33128  12
   3   1  -8 285.455 11.0247  11
   3   1  -8 293.218 12.3888  15
  -1  -1   8 14.1557 2.05786  13
   1  -1  -8 6.15934 1.98548  15
  -1  -1   8 5.93518 1.67031   7
   1  -1  -8 4.69326 1.85772   2
   1  -1  -8 3.84058 1.77689  11
   1  -1  -8 4.95968 1.46172   5
  -1  -1   8 7.30536 1.77710   4
  -1   1   8 6.06177 1.62726   4
  -1   1   8 16.1050 2.34566  13
  -1   1   8 5.06398 1.33753   7
   1   1  -8 9.59152 2.31919  11
  -1  -1  -8 291.373 12.5787   2
  -1  -1  -8 305.435 12.1522  11
   1  -1   8 284.747 11.0361   7
  -1  -1  -8 293.693 12.7912  15
   1  -1   8 289.958 10.5463  13
   1  -1   8 280.282 10.4798   4
   1   1   8 299.904 10.5859   4
  -1   1  -8 300.632 11.9428  11
   1   1   8 291.021 10.6915  13
   1   1   8 284.899 10.4670   7
  -3  -1  -8 43.9131 4.33745  11
   3  -1   8 42.4986 3.74563  13
   3  -1   8 43.5579 3.88943   4
   3   1   8 51.1312 4.04719   4
  -3   1  -8 34.5292 4.05048   9
  -3   1  -8 36.6726 3.83225  11
   3   1   8 39.6586 4.24309  13
  -5  -1  -8 19.2744 3.38488   9
   5  -1   8 14.5176 3.16534  13
   5  -1   8 23.6596 3.39033   4
  -5   1  -8 21.6146 3.72439   9
   5   1   8 20.2996 3.73308  13
   5   1   8 21.4675 3.51157   4
  12  -2  -8 176.720 10.4581   1
 -12  -2   8 164.466 11.0882   3
  12  -2  -8 177.498 9.52732  12
 -12  -2   8 175.787 12.6513  14
 -12   2   8 178.452 11.0187   3
  12   2  -8 178.039 9.96415  12
  12   2  -8 164.240 9.63603   1
 -12   2   8 179.429 13.5152  14
  10  -2  -8 1192.32 36.4307  12
  10  -2  -8 1188.87 36.0244   5
 -10  -2   8 1177.26 40.4436  14
  10  -2  -8 1203.66 37.1095  16
 -10  -2   8 1187.00 38.1438   3
 -10  -2   8 1223.26 35.9492   7
 -10   2   8 1273.07 42.1950  14
  10   2  -8 1264.73 36.2823   5
  10   2  -8 1230.45 36.7570  12
  10   2  -8 1162.46 36.3015  16
  10   2  -8 1173.45 36.1233   1
   8  -2  -8 143.886 7.61720   5
   8  -2  -8 132.187 7.16231  12
  -8  -2   8 136.309 6.83446   7
   8   2  -8 121.609 6.51344   1
   8   2  -8 135.057 7.30531   5
   8   2  -8 142.620 7.34637  12
  -8   2   8 134.363 6.04885   7
  -8   2   8 136.949 9.56856  14
   8   2  -8 125.605 6.47551  16
   6  -2  -8 1047.78 30.0403  11
   6  -2  -8 1076.74 30.6703   5
  -6  -2   8 1034.91 29.0675   4
  -6  -2   8 1004.28 29.4939   7
   6  -2  -8 1048.82 31.9642  15
   6  -2  -8 1005.05 29.4932  12
   6   2  -8 1028.20 29.4531  12
  -6   2   8 855.501 29.4149   7
   6   2  -8 1019.77 30.2353   5
   6   2  -8 981.263 28.6139  16
  -6   2   8 1051.75 28.9978   4
  -6   2   8 1003.77 29.5818   8
   6   2  -8 1027.57 29.4428  11
  -4  -2   8 132.827 6.39282  10
  -4  -2   8 143.515 6.52773   7
   4  -2  -8 139.754 8.18273  15
   4  -2  -8 143.065 6.97132   5
  -4  -2   8 137.081 6.18881   4
   4  -2  -8 150.192 7.37718  11
   4   2  -8 139.464 5.81900  12
  -4   2   8 141.519 6.05684   4
   4   2  -8 151.722 6.83700   5
  -4   2   8 145.816 6.64500   8
  -4   2   8 144.304 6.31074  13
   4   2  -8 143.684 6.77736  11
   2  -2  -8 987.960 28.7092   2
   2  -2  -8 949.100 28.1567   5
   2  -2  -8 981.191 30.9994  15
   2  -2  -8 981.824 29.5212  11
  -2  -2   8 931.739 27.9771   7
  -2  -2   8 966.234 27.5274   4
  -2  -2   8 953.586 26.9867  13
  -2   2   8 972.893 27.2699   4
   2   2  -8 969.624 28.9183  11
  -2   2   8 949.888 27.6539  13
   2   2  -8 959.124 27.9716   5
   0  -2   8 550.989 17.3323   4
   0  -2   8 534.814 17.8299   7
   0  -2  -8 556.931 19.0256  11
   0  -2  -8 547.036 20.0147  15
   0  -2   8 540.197 16.6895  13
   0  -2  -8 573.855 19.1984   2
   0   2   8 548.310 16.9005   4
   0   2   8 527.971 17.1944  13
   0   2  -8 562.699 18.5706  11
   0   2  -8 532.798 16.8067   5
   0   2  -8 549.930 17.4265   9
   2  -2   8 881.860 26.3343  13
   2  -2   8 899.497 27.7779   7
  -2  -2  -8 847.479 29.2124  15
  -2  -2  -8 871.766 27.9672  11
   2  -2   8 914.017 26.9800   4
  -2  -2  -8 871.878 29.1808   2
  -2   2  -8 888.359 27.7811  11
  -2   2  -8 934.763 27.4562   9
   2   2   8 908.437 26.2913   4
   2   2   8 900.060 27.0679  13
   4  -2   8 493.531 17.4439   4
   4  -2   8 493.955 16.9430  13
  -4   2  -8 508.967 17.9568   9
   4   2   8 489.572 17.7302  13
   4   2   8 473.131 16.6779   4
 -11  -3   8 -1.3047 2.38284   3
  11  -3  -8 1.77019 2.48183  12
 -11  -3   8 1.59751 3.28550  14
 -11  -3   8 2.58645 2.49146   7
  11  -3  -8 1.59858 2.06514   5
 -11   3   8 5.68799 3.27790  14
  11   3  -8 -0.2749 2.19814  12
  11   3  -8 1.99702 2.20065  16
  11   3  -8 1.39141 2.18086   1
   9  -3  -8 87.9665 6.24159  12
  -9  -3   8 95.1228 6.30397   7
   9  -3  -8 88.9319 6.26890   5
   9   3  -8 91.0905 6.05319  12
  -9   3   8 91.4470 8.55983  14
   9   3  -8 79.6125 5.60586  16
   9   3  -8 85.1322 5.63269   1
   9   3  -8 90.9571 5.87079   5
   7  -3  -8 30.5136 3.99242   5
   7  -3  -8 25.0582 3.04995  12
   7  -3  -8 27.0310 3.25065  11
  -7  -3   8 27.4270 2.82970   4
  -7  -3   8 27.1316 3.31643   7
   7  -3  -8 27.9040 4.00214  15
  -7   3   8 32.9139 5.12660  14
   7   3  -8 25.8293 3.27258   5
  -7   3   8 24.4107 3.30796   8
   7   3  -8 25.9650 3.25260  12
   7   3  -8 26.3987 3.35143   1
   5  -3  -8 8.08640 2.33642  11
   5  -3  -8 8.63605 2.14252   5
  -5  -3   8 11.5575 2.10753   4
  -5  -3   8 10.9245 2.29836  10
  -5  -3   8 10.3949 2.31088   7
   5  -3  -8 9.89139 2.81127  15
   5   3  -8 13.3716 2.21040  11
  -5   3   8 8.78774 2.11438   8
  -5   3   8 7.50329 1.74349   4
   5   3  -8 9.24455 1.97357   5
   5   3  -8 12.6261 2.06408  12
   3  -3  -8 16.9394 3.44916  15
  -3  -3   8 14.1367 2.21008   4
   3  -3  -8 14.9443 2.20702   2
  -3  -3   8 14.8887 2.74644  10
   3  -3  -8 14.6480 2.97127  11
   3  -3  -8 24.8264 3.29626   5
  -3  -3   8 16.3422 2.38513   7
  -3  -3   8 12.3798 1.78704  13
   3   3  -8 17.0147 2.44870   5
  -3   3   8 15.2421 2.14181  13
   3   3  -8 15.6122 1.93030   9
  -3   3   8 14.0312 1.84663   4
   3   3  -8 13.1899 2.53012  11
   1  -3  -8 125.635 6.89390   2
  -1  -3   8 127.672 5.89527   4
  -1  -3   8 117.222 5.07310  13
   1  -3  -8 126.117 7.04123  11
   1  -3  -8 111.659 7.38246  15
  -1  -3   8 122.831 6.37966   7
   1  -3  -8 107.299 5.67625   5
   1   3  -8 121.238 5.70040   9
   1   3  -8 108.094 4.83467   6
  -1   3   8 110.648 5.77033  13
   1   3  -8 122.247 6.74346  11
  -1   3   8 123.152 5.48130   4
   1   3  -8 124.006 5.90649   5
  -1  -3  -8 12.0780 2.94699  15
  -1  -3  -8 15.0139 2.85970  11
   1  -3   8 10.5584 2.39492   4
  -1  -3  -8 8.15925 2.79372   2
   1  -3   8 10.2439 1.94866  13
   1   3   8 10.3951 1.62927   1
   1   3   8 15.6550 2.68405  13
  -1   3  -8 9.56586 2.04307   9
   1   3   8 13.9628 2.28312   4
   3  -3   8 43.9751 4.83523   7
  -3  -3  -8 44.9969 4.54360  11
   3  -3   8 44.2270 4.51244   4
   3  -3   8 45.0912 3.92870  13
  -3  -3  -8 45.6851 5.83421   2
  -3   3  -8 41.1025 3.91785   9
   3   3   8 40.3790 4.41768  13
   3   3   8 43.5509 3.55699   4
  -5  -3  -8 22.9755 3.66214   9
   5  -3   8 25.5748 4.35811   7
   5  -3   8 25.2939 3.88314   4
  -5   3  -8 16.0120 3.39042   9
   5   3   8 20.7242 3.17655   4
   5   3   8 30.5509 4.43282  13
 -12  -4   8 6.09854 3.63088   3
  12  -4  -8 6.74770 2.96732  12
  12  -4  -8 2.20958 3.11390   1
 -12  -4   8 5.47141 3.63987  14
 -12   4   8 6.33820 4.34271  14
  12   4  -8 5.27314 2.81613  12
  12   4  -8 0.82360 2.10664   1
  10  -4  -8 921.721 30.0502  16
  10  -4  -8 959.100 29.7554  12
 -10  -4   8 945.917 29.6444   7
  10  -4  -8 948.428 29.3998   5
 -10  -4   8 928.017 33.5752  14
  10   4  -8 885.435 28.5602   1
  10   4  -8 934.936 29.7599  12
 -10   4   8 982.785 35.5173  14
 -10   4   8 903.748 30.8602   8
   8  -4  -8 58.5855 4.57787  12
   8  -4  -8 63.3947 5.52623   5
  -8  -4   8 65.1625 5.02518   7
   8   4  -8 66.1499 4.91237   5
  -8   4   8 60.2267 6.76973  14
  -8   4   8 58.0824 4.96860   8
   8   4  -8 62.2448 4.74777  12
   6  -4  -8 2477.04 67.6536   5
  -6  -4   8 2457.60 65.8229   4
  -6  -4   8 2366.26 67.5219  10
   6  -4  -8 2392.70 69.2785  15
  -6  -4   8 2449.12 67.0389   7
   6  -4  -8 2501.54 67.3997  11
  -6   4   8 2463.98 65.6014   4
  -6   4   8 2470.45 69.9666  14
  -6   4   8 2492.04 67.8317   8
   6   4  -8 2478.63 66.5056  12
   6   4  -8 2456.03 67.3770   5
  -4  -4   8 380.509 13.2300   7
  -4  -4   8 353.755 13.9682  10
   4  -4  -8 355.422 14.9927  15
  -4  -4   8 375.715 12.3175   4
   4  -4  -8 369.863 13.9547  11
   4  -4  -8 362.704 13.4328   5
  -4   4   8 371.494 11.9190   4
  -4   4   8 369.802 12.7526  13
   4   4  -8 358.605 11.9283  12
  -4   4   8 356.118 13.8840  14
  -4   4   8 364.196 13.6890   8
   4   4  -8 363.583 13.1957   5
   2  -4  -8 2256.51 63.1305  11
  -2  -4   8 2200.45 61.8149   7
   2  -4  -8 2289.83 62.1818   2
  -2  -4   8 2218.70 60.6262   4
   2  -4  -8 2184.29 64.4624  15
   2  -4  -8 2189.56 61.5845   5
  -2   4   8 2313.56 61.2167  13
   2   4  -8 2276.55 60.3690   9
  -2   4   8 2339.62 60.1891   4
   2   4  -8 2276.51 61.5001   5
   0  -4  -8 125.187 8.25645  15
   0  -4  -8 141.018 7.99182   2
   0  -4   8 125.701 6.35384   4
   0  -4  -8 126.172 7.69695  11
   0  -4   8 138.265 7.43423   7
   0   4   8 136.538 5.92351   4
   0   4  -8 129.480 6.08789   5
   0   4  -8 135.177 6.46393   9
   0   4   8 123.972 6.35513  13
  -2  -4  -8 730.647 25.0361  11
  -2  -4  -8 808.032 27.0008   2
   2  -4   8 770.011 23.7977   4
   2  -4   8 778.306 25.2519   7
  -2   4  -8 750.193 23.9131   9
   2   4   8 755.026 23.8929  13
   2   4   8 757.786 22.7930   4
   2   4   8 751.809 22.7247   1
   4  -4   8 20.9406 3.53239   4
   4  -4   8 26.1580 4.51935   7
  -4  -4  -8 17.6259 4.30895   2
  -4   4  -8 20.7987 3.24751   9
   4   4   8 23.5172 3.03095   4
   4   4   8 26.8069 3.77301  13
 -11  -5   8 275.558 15.1967  14
  11  -5  -8 255.667 12.0786  12
 -11  -5   8 261.265 11.9425   7
  11  -5  -8 256.093 11.4787   5
  11   5  -8 283.953 12.8921  12
 -11   5   8 283.020 17.0072  14
   9  -5  -8 92.9533 6.54714  12
  -9  -5   8 97.7221 6.82807   7
   9  -5  -8 89.7701 6.68086   5
   9   5  -8 86.3280 6.07460  12
  -9   5   8 98.9275 7.03414   8
   9   5  -8 95.4392 6.39830   5
  -9   5   8 100.574 9.30028  14
   7  -5  -8 435.667 19.5769  15
   7  -5  -8 464.329 16.8079   5
   7  -5  -8 445.334 16.1439  11
  -7  -5   8 456.654 17.4247  10
  -7  -5   8 447.825 16.2343   7
  -7  -5   8 474.845 15.1493   4
   7   5  -8 478.181 16.1773  12
  -7   5   8 478.797 17.4794   8
   7   5  -8 474.590 16.7794   5
  -7   5   8 476.547 19.1438  14
   5  -5  -8 184.587 8.92797   5
   5  -5  -8 199.603 9.09317  11
  -5  -5   8 174.802 9.29966  10
  -5  -5   8 184.275 8.79752   7
   5  -5  -8 173.226 9.59516  15
  -5  -5   8 180.013 7.44669   4
   5   5  -8 173.165 8.27995   5
   5   5  -8 174.886 7.55526  12
  -5   5   8 184.062 9.45710  14
  -5   5   8 175.819 8.93516   8
  -5   5   8 179.830 7.10928   4
   3  -5  -8 108.950 6.61049  11
  -3  -5   8 97.1416 5.17634   4
   3  -5  -8 98.2638 5.56789   2
  -3  -5   8 101.258 6.31961   7
   3  -5  -8 100.244 7.21068  15
  -3  -5   8 96.4029 6.61865  10
   3  -5  -8 97.0838 6.14408   5
  -3   5   8 96.3664 5.57675  13
  -3   5   8 103.192 6.70646   8
  -3   5   8 102.901 4.71349   4
   3   5  -8 100.662 5.86863   5
   1  -5  -8 251.877 11.5419  11
   1  -5  -8 227.060 9.60938   5
  -1  -5   8 249.301 10.7728   7
  -1  -5   8 258.844 9.46995   4
   1  -5  -8 247.314 12.3583  15
   1  -5  -8 260.874 11.3020   2
  -1   5   8 248.925 9.74172  13
   1   5  -8 253.408 9.88811   5
   1   5  -8 251.817 9.25103   9
  -1   5   8 241.673 8.76399   4
   1   5  -8 244.209 9.19257   6
  -1  -5  -8 6.49074 2.26049  11
   1  -5   8 5.05187 2.57767   7
  -1  -5  -8 8.41572 2.95016   2
   1  -5   8 7.82737 2.25691   4
   1   5   8 6.74384 1.89487   1
   1   5   8 6.96270 2.37719  13
  -1   5  -8 8.92568 2.18861   9
  -3  -5  -8 37.7827 5.69758   2
   3  -5   8 38.4175 4.24236   4
  -3  -5  -8 41.4665 4.41128  11
   3  -5   8 51.0716 5.81948   7
  -3   5  -8 36.1968 4.23143   9
   3   5   8 42.0540 4.75349  13
  -5  -5  -8 22.9502 4.30296   2
   5  -5   8 24.9177 4.54855   7
   5  -5   8 17.0875 3.41548   4
  -5   5  -8 22.1386 3.39328   9
   5   5   8 22.1916 3.51792  13
 -10  -6   8 53.1190 6.94191  14
 -10  -6   8 61.4906 6.39948   7
  10  -6  -8 49.9162 4.80114  12
  10  -6  -8 54.1803 5.02117   5
  10   6  -8 63.3269 6.19286  12
 -10   6   8 57.3415 6.38659   8
  10   6  -8 46.9142 4.94215   5
 -10   6   8 62.6099 8.53399  14
   8  -6  -8 1199.60 37.0851   5
  -8  -6   8 1252.02 37.4025   7
  -8  -6   8 1175.83 38.2489  10
  -8   6   8 1264.88 38.8528   8
   8   6  -8 1284.49 37.4272   5
  -8   6   8 1259.38 41.3715  14
   8   6  -8 1215.78 36.7840  12
   6  -6  -8 1.24855 2.43302   5
  -6  -6   8 9.91871 2.03060   4
   6  -6  -8 6.64092 2.75516  11
  -6  -6   8 1.62187 2.39934  10
  -6  -6   8 7.79440 2.79501   7
  -6   6   8 5.44394 2.47086  14
  -6   6   8 8.30396 2.82756   8
   6   6  -8 14.7931 3.03048   5
   6   6  -8 4.03750 1.82233  12
  -4  -6   8 1356.82 39.5243   7
   4  -6  -8 1380.98 40.4449  11
  -4  -6   8 1328.62 37.6530   4
  -4  -6   8 1300.50 41.2093  10
   4  -6  -8 1356.01 39.5352   5
   4   6  -8 1331.77 37.7033  12
   4   6  -8 1391.16 39.5014   5
  -4   6   8 1379.18 40.7996   8
   2  -6  -8 3.74156 2.17383   2
  -2  -6   8 8.00413 2.63265   7
  -2  -6   8 19.4642 3.78258  10
   2  -6  -8 5.94046 2.21702   5
   2  -6  -8 3.32607 2.69735  11
  -2  -6   8 8.32943 1.92780   4
   2   6  -8 8.75532 1.80355   6
   2   6  -8 7.22929 2.24307   5
  -2   6   8 9.96977 2.41440  13
   0  -6  -8 1376.88 42.6085  11
   0  -6  -8 1412.58 42.8420   2
   0  -6   8 1455.38 40.1494   4
   0  -6   8 1433.90 42.0965   7
   0   6   8 1410.01 40.5654  13
  -2  -6  -8 66.2408 5.62512  11
   2  -6   8 77.1224 5.48162   4
  -2  -6  -8 71.6177 6.86753   2
   2  -6   8 73.5928 6.55866   7
  -2   6  -8 66.0455 5.13338   9
   2   6   8 64.8423 5.41008  13
   2   6   8 74.5886 5.09818   1
  -4  -6  -8 925.966 32.5936   2
   4  -6   8 910.569 31.1067   7
   4  -6   8 904.561 28.8012   4
  -4   6  -8 948.535 29.4205   9
   4   6   8 900.139 28.0905   1
   4   6   8 920.963 29.1546  13
   9  -7  -8 4.23097 2.83848   5
  -9  -7   8 3.24746 3.21236  10
   9  -7  -8 6.18517 2.95872  12
  -9  -7   8 5.30234 3.09733   7
   9   7  -8 18.0798 3.72124   5
  -9   7   8 4.97009 2.51292   8
  -9   7   8 15.1308 4.63387  14
   9   7  -8 10.1482 2.60054  12
   7  -7  -8 56.0691 5.38967  11
   7  -7  -8 56.2319 5.52322   5
  -7  -7   8 49.6576 5.39780   7
  -7  -7   8 66.7965 6.91098  10
  -7   7   8 34.9837 6.39744  14
   7   7  -8 52.4674 4.75934  12
   7   7  -8 56.6357 4.92837   5
  -7   7   8 55.3722 5.98819   8
   5  -7  -8 15.0338 3.78049  11
   5  -7  -8 13.5153 2.84894   5
  -5  -7   8 30.5020 5.02757  10
  -5  -7   8 18.7069 3.61438   7
   5   7  -8 18.0000 2.67361  12
  -5   7   8 17.0845 3.80698   8
   5   7  -8 19.1180 3.32066   5
  -3  -7   8 29.1639 4.11466   7
  -3  -7   8 29.3532 3.06935   4
  -3  -7   8 32.6929 4.98311  10
   3  -7  -8 21.2392 3.53876   5
   3  -7  -8 40.1415 5.31619  11
   3  -7  -8 27.0139 3.78040   2
  -3   7   8 23.9664 4.28799   8
  -3   7   8 33.5983 3.80101  13
   3   7  -8 29.3326 3.62522   5
   3   7  -8 28.2621 3.43474   6
   1  -7  -8 166.353 8.19716   5
  -1  -7   8 161.368 8.71880   7
   1  -7  -8 163.259 9.23887   2
  -1  -7   8 176.766 10.9558  10
  -1  -7   8 165.865 7.48412   4
   1  -7  -8 186.919 9.70220  11
  -1   7   8 161.444 7.99016  13
   1   7  -8 179.367 7.43907   9
   1   7  -8 171.859 7.83328   6
   1  -7   8 13.5303 2.77372   4
   1  -7   8 15.1792 3.68126   7
  -1  -7  -8 11.4453 2.83091  11
  -1  -7  -8 16.6068 4.20227   2
  -1   7  -8 13.5234 2.32187   6
  -1   7  -8 13.6276 2.36860   9
   1   7   8 15.5974 2.96411  13
  -3  -7  -8 102.675 8.64313   2
   3  -7   8 107.059 6.83812   4
   3  -7   8 117.502 8.53157   7
   3   7   8 104.198 7.03568  13
  -3   7  -8 104.891 6.56113   9
   3   7   8 103.294 6.50792   1
   8  -8  -8 581.734 20.7410   5
  -8  -8   8 567.466 22.9102  10
  -8  -8   8 576.264 20.8847   7
  -8   8   8 597.490 22.6998   8
   8   8  -8 579.336 20.5447   5
   8   8  -8 559.572 19.9216  12
   6  -8  -8 276.531 12.6940  11
  -6  -8   8 287.980 14.3352  10
  -6  -8   8 292.440 12.7380   7
   6  -8  -8 271.489 12.2196   5
   6   8  -8 262.334 11.0481  12
  -6   8   8 271.216 13.4417   8
   6   8  -8 286.714 12.1305   5
  -4  -8   8 889.037 30.8469  10
  -4  -8   8 888.947 28.2471   7
   4  -8  -8 850.280 27.5890   5
   4  -8  -8 851.694 28.4937  11
  -4   8   8 880.206 29.7379   8
  -2  -8   8 381.280 17.8620  10
   2  -8  -8 382.991 16.1424  11
  -2  -8   8 369.391 15.0793   7
   2  -8  -8 363.398 14.2174   5
   2  -8  -8 378.378 15.1551   2
  -2   8   8 374.331 13.9668  13
   2   8  -8 380.259 13.9895   6
  -2   8   8 368.982 16.4409   8
   0  -8  -8 506.792 19.6405  11
   0  -8  -8 508.899 19.7937   2
   0  -8   8 521.109 22.5552  10
   0  -8   8 513.912 19.4137   7
   0   8  -8 527.190 17.5727   6
   0   8  -8 540.074 17.4259   9
  -2  -8  -8 177.011 11.0652   2
   2  -8   8 172.788 10.2249   7
  -2  -8  -8 168.235 9.69714  11
   2   8   8 176.483 8.74747   1
   2   8   8 169.029 8.52565  13
  -2   8  -8 170.080 8.61271   9
   7  -9  -8 3.40627 3.05326   5
  -7  -9   8 -0.3008 2.82944   7
  -7  -9   8 3.49079 4.06802  10
   7  -9  -8 1.94678 2.77433  11
   7   9  -8 4.74456 1.86354  12
  -7   9   8 4.05966 3.21363   8
  -5  -9   8 51.9761 7.28419  10
   5  -9  -8 39.5103 5.02521   5
   5  -9  -8 43.2641 5.60087  11
  -5  -9   8 48.4405 5.66335   7
   5   9  -8 45.9930 3.99229  12
  -5   9   8 50.7483 6.31634   8
   3  -9  -8 47.0449 6.01988  11
  -3  -9   8 48.3468 6.92206  10
  -3  -9   8 46.7006 5.59196   7
   3  -9  -8 42.5018 4.94581   2
   3  -9  -8 52.7659 5.44092   5
   3   9  -8 56.3777 5.12381   6
  -3   9   8 54.6573 6.59385   8
   1  -9  -8 15.3955 3.07498   5
  -1  -9   8 24.9729 5.43291  10
   1  -9  -8 25.2279 4.84511  11
  -1  -9   8 24.9087 3.97144   7
   1  -9  -8 28.1341 4.28664   2
  -1   9   8 29.2396 5.39213   8
  -1   9   8 24.3348 3.65234  13
   1   9  -8 29.2936 3.81006   6
   1  -9   8 82.5265 9.01061  10
  -1  -9  -8 66.7355 6.72204  11
  -1  -9  -8 72.1075 6.75503   2
   1  -9   8 70.7827 6.34975   7
   1   9   8 79.6249 5.84901  13
  -1   9  -8 76.6681 5.50158   9
  -1   9  -8 74.1320 5.38843   6
  -6 -10   8 679.620 23.5428   7
  -6 -10   8 664.101 26.8905  10
   6 -10  -8 668.443 23.3495   5
   6 -10  -8 612.449 23.3989  11
  -6  10   8 716.463 25.9497   8
   6  10  -8 639.270 21.9438  12
   6  10  -8 693.993 23.0537   6
   4 -10  -8 15.5603 4.30848  11
  -4 -10   8 13.4906 3.70018   7
   4 -10  -8 13.1557 3.00456   5
  -4 -10   8 10.3599 4.38087  10
  -4 -10   8 12.3442 3.00327   2
  -4  10   8 14.3280 4.45156   8
   4  10  -8 9.04649 2.81000   6
  -2 -10   8 739.632 29.6953  10
  -2 -10   8 755.235 26.3044   7
   2 -10  -8 754.639 27.0132  11
   2 -10  -8 741.570 25.2489   5
   2 -10  -8 770.024 26.4663   2
  -2  10   8 837.849 29.3033   8
   2  10  -8 808.698 25.4567   6
   0 -10  -8 4.99649 3.25449  11
   0 -10   8 12.9463 4.74147  10
   0 -10  -8 10.1995 3.07625   2
   0 -10   8 8.54495 2.76363   7
   0  10   8 7.07825 2.57547  13
   0  10   8 10.9902 4.31147   8
   0  10  -8 7.63277 2.42573   6
  -5 -11   8 51.8458 6.07854   7
   5 -11  -8 67.2550 6.97169   5
  -5 -11   8 65.5498 7.98945  10
   5 -11  -8 51.0272 6.43954  11
  -5  11   8 53.7388 6.95093   8
   5  11  -8 56.6543 6.03527   6
   3 -11  -8 37.9778 4.63988   5
   3 -11  -8 41.7914 5.55215  11
  -3 -11   8 44.3303 7.25122  10
  -3 -11   8 40.7219 5.36463   7
  -3  11   8 46.4175 6.92722   8
   3  11  -8 36.1590 4.28294   6
 -12   0   9 1.47927 3.47324  14
  12   0  -9 4.35579 2.65812   1
  12   0  -9 0.43926 2.24959  12
 -10   0   9 1.61488 1.91176   7
  10   0  -9 0.01025 1.95929   1
  10   0  -9 -1.1012 1.67951  16
  10   0  -9 1.43114 2.22537   5
 -10   0   9 9.25812 4.31036  14
  10   0  -9 -0.0028 2.19821  12
  -8   0   9 -1.2206 1.60184   4
   8   0  -9 1.07585 1.85436  12
   8   0  -9 0.05304 1.79158   5
   8   0  -9 0.27892 1.51678  16
  -8   0   9 6.26953 1.73027   7
  -6   0   9 0.69606 1.13674   4
   6   0  -9 0.71809 1.44753  12
   6   0  -9 -0.2902 1.25171  11
   6   0  -9 0.82107 1.28723  15
  -6   0   9 0.51408 1.49773   7
   6   0  -9 -1.2969 1.66444   5
   4   0  -9 0.08078 1.41446   5
  -4   0   9 0.93751 1.34071   7
   4   0  -9 0.61038 1.19566  15
  -4   0   9 2.41949 1.40707  13
   4   0  -9 0.09340 1.50302  11
   4   0  -9 -0.3693 0.86354  12
  -4   0   9 -0.6863 0.96444   4
  -2   0   9 0.33478 0.86057  13
   2   0  -9 0.06997 1.55533  11
  -2   0   9 -0.2626 0.96260   4
   2   0  -9 0.56053 1.67216  15
  -2   0   9 0.40033 1.19284   7
   0   0   9 -0.9732 1.53190   4
   0   0  -9 1.61164 1.47790  11
   0   0   9 0.27611 1.48777  13
   0   0   9 -0.4719 0.84984   7
  -2   0  -9 0.49811 1.75411   9
   2   0   9 -0.1708 1.18804  13
   2   0   9 3.97466 1.99440   7
   2   0   9 0.78428 1.42774   4
  -2   0  -9 0.48589 1.88977  11
   4   0   9 0.07138 2.06441  13
   4   0   9 0.77390 2.27377   4
  -4   0  -9 -0.4044 1.25664   9
   4   0   9 0.70527 1.98236   7
 -11  -1   9 278.050 13.5603   3
 -11  -1   9 288.850 16.3279  14
  11  -1  -9 290.795 12.4830   5
  11  -1  -9 281.623 12.9030  12
  11   1  -9 289.145 12.9902  16
 -11   1   9 292.389 16.3594  14
  11   1  -9 275.267 12.5973   1
  11   1  -9 301.802 12.7215   5
  11   1  -9 317.579 13.4927  12
   9  -1  -9 527.366 19.1318  16
  -9  -1   9 538.994 20.1116   3
   9  -1  -9 571.379 19.7262   5
  -9  -1   9 584.693 18.8754   7
   9  -1  -9 573.875 19.5528  12
   9   1  -9 539.761 18.8857  16
  -9   1   9 582.743 23.4941  14
   9   1  -9 574.614 19.7262   5
  -9   1   9 559.263 18.0563   7
   9   1  -9 529.538 18.8651   1
   9   1  -9 589.092 19.6966  12
  -7  -1   9 572.314 18.1447   4
   7  -1  -9 582.347 19.7137   5
  -7  -1   9 576.981 18.3728   7
   7  -1  -9 574.196 20.8029  15
   7  -1  -9 573.327 18.6295  11
   7  -1  -9 566.299 18.8243  12
   7   1  -9 566.903 18.3958  11
  -7   1   9 576.942 18.0996   4
   7   1  -9 589.085 19.5701   5
   7   1  -9 574.111 18.7006  12
   7   1  -9 545.257 18.0820  16
  -7   1   9 586.338 17.7811   7
   5  -1  -9 908.319 29.2596  15
   5  -1  -9 835.567 25.5184  12
   5  -1  -9 886.233 27.0744  11
  -5  -1   9 884.915 25.6338   4
  -5  -1   9 876.506 25.7086   7
   5  -1  -9 877.724 27.0677   5
  -5   1   9 870.976 25.5284   4
   5   1  -9 831.289 25.3597  12
   5   1  -9 868.278 26.8162   5
  -5   1   9 872.808 25.0276   7
   5   1  -9 904.315 26.9274  11
  -3  -1   9 715.460 21.5481   4
  -3  -1   9 700.937 21.2308  13
   3  -1  -9 716.006 25.2545  15
   3  -1  -9 750.493 23.6236  11
  -3  -1   9 710.968 21.8030   7
   3  -1  -9 723.459 22.6189   5
   3   1  -9 751.347 23.3857  11
  -3   1   9 737.778 21.5014   4
  -3   1   9 706.192 20.9956   7
  -3   1   9 704.657 21.5601  13
   3   1  -9 720.920 22.4466   5
   1  -1  -9 543.701 19.0261  11
  -1  -1   9 550.317 17.0684   4
   1  -1  -9 539.846 17.1369   5
   1  -1  -9 539.116 20.2511  15
  -1  -1   9 510.457 17.0630   7
  -1  -1   9 517.906 16.5905  13
  -1   1   9 510.663 16.4065   7
  -1   1   9 549.915 16.9893   4
   1   1  -9 533.520 17.1071   5
   1   1  -9 540.693 18.7580  11
  -1   1   9 528.308 17.0382  13
   1  -1   9 550.724 17.9409  13
   1  -1   9 563.169 18.3016   4
  -1  -1  -9 561.620 19.9990  11
  -1   1  -9 553.976 19.7462  11
  -1   1  -9 576.061 18.9161   9
   1   1   9 555.284 18.2320  13
   1   1   9 531.762 17.8167   7
   1   1   9 577.692 18.1368   4
  -3  -1  -9 201.205 10.0441   9
  -3  -1  -9 214.199 10.3333  11
   3  -1   9 199.535 9.99103   7
   3  -1   9 206.289 9.49005  13
   3  -1   9 208.510 9.66390   4
   3   1   9 218.657 10.0237  13
  -3   1  -9 202.589 9.82551   9
   3   1   9 223.839 9.68349   4
  -3   1  -9 208.480 10.1839  11
  -5  -1  -9 318.396 13.6372   9
   5  -1   9 339.302 13.8058   4
   5  -1   9 338.411 14.4632   7
   5  -1   9 300.704 13.0619  13
   5   1   9 333.412 13.8876  13
   5   1   9 338.112 13.4558   4
  -5   1  -9 321.092 13.8159   9
 -12  -2   9 109.193 8.43127   3
  12  -2  -9 119.016 7.72020  12
 -12  -2   9 123.589 10.7623  14
  12  -2  -9 121.423 8.66915   1
  12   2  -9 125.464 8.09771   1
  12   2  -9 119.672 8.17896  12
 -12   2   9 123.370 11.3900  14
  10  -2  -9 112.444 7.05229  12
 -10  -2   9 113.521 9.94228  14
 -10  -2   9 112.321 7.91813   3
 -10  -2   9 116.452 7.11136   7
  10  -2  -9 110.283 7.46066  16
  10  -2  -9 115.492 7.40391   5
  10   2  -9 108.596 6.84536   5
  10   2  -9 95.0039 6.56978   1
  10   2  -9 114.263 7.48756  12
 -10   2   9 116.640 10.1440  14
  -8  -2   9 207.609 8.61567   4
   8  -2  -9 235.751 10.5125   5
   8  -2  -9 206.152 9.54373  12
  -8  -2   9 221.621 9.57443   7
   8   2  -9 198.333 8.88175   1
  -8   2   9 215.768 12.4227  14
   8   2  -9 208.552 9.91510   5
   8   2  -9 206.169 9.40818  12
   6  -2  -9 269.100 12.7367  15
   6  -2  -9 289.177 11.6108   5
   6  -2  -9 287.028 11.4345  11
   6  -2  -9 276.113 10.6674  12
  -6  -2   9 277.977 10.7451   7
  -6  -2   9 281.728 10.3518   4
   6   2  -9 277.174 10.8697  11
   6   2  -9 267.171 10.4398  12
   6   2  -9 277.225 11.3191   5
  -6   2   9 275.595 10.1156   4
   4  -2  -9 226.132 9.99765  11
   4  -2  -9 205.736 9.29891   5
   4  -2  -9 196.652 7.93280  12
  -4  -2   9 209.818 8.38555   4
  -4  -2   9 210.219 8.67867   7
   4  -2  -9 199.931 10.6656  15
  -4   2   9 202.004 8.00472   4
   4   2  -9 205.242 9.31288  11
   4   2  -9 222.391 9.35288   5
  -4   2   9 209.726 8.54828  13
   2  -2  -9 304.514 14.1905  15
  -2  -2   9 317.561 11.7922   7
   2  -2  -9 327.549 11.9230   5
  -2  -2   9 312.480 11.3439   4
  -2  -2   9 320.774 10.8334  13
   2  -2  -9 320.516 13.2761  11
   2  -2  -9 326.131 12.3167   2
   2   2  -9 325.970 11.8873   5
  -2   2   9 312.646 11.0817   4
   2   2  -9 316.187 12.6541  11
  -2   2   9 327.545 11.6419  13
   0  -2   9 225.231 9.21783   4
   0  -2   9 219.536 9.83240   7
   0  -2   9 219.897 8.75013  13
   0  -2  -9 224.382 11.6647  15
   0  -2  -9 235.458 11.0093  11
   0  -2  -9 231.936 11.0022   2
   0   2  -9 231.151 10.4397  11
   0   2  -9 233.179 9.71930   9
   0   2   9 218.240 9.35219  13
   0   2   9 254.062 9.12279   4
  -2  -2  -9 154.859 9.77504   2
   2  -2   9 159.143 8.47655   7
   2  -2   9 146.859 7.10816  13
   2  -2   9 155.973 7.92766   4
  -2  -2  -9 158.028 8.83243  11
  -2   2  -9 158.348 8.24163   9
   2   2   9 146.968 7.68856  13
   2   2   9 165.334 7.81434   4
   4  -2   9 159.892 9.24776   7
  -4  -2  -9 152.677 8.76660   9
   4  -2   9 148.330 7.94878  13
   4  -2   9 163.785 8.43304   4
  -4   2  -9 152.801 8.69234   9
   4   2   9 168.704 9.11692  13
   4   2   9 151.410 8.08276   4
 -11  -3   9 41.2544 5.80104   3
  11  -3  -9 18.8698 3.39304  12
 -11  -3   9 22.2792 4.82863  14
 -11  -3   9 23.1662 3.48881   7
  11  -3  -9 19.8306 3.77355   5
  11   3  -9 23.5262 4.09660  12
  11   3  -9 21.2431 3.19445   1
 -11   3   9 22.6446 5.58134  14
  11   3  -9 18.2574 3.35684   5
  -9  -3   9 1179.48 35.5623   7
   9  -3  -9 1192.03 36.3804   5
   9  -3  -9 1175.78 35.8678  12
   9   3  -9 1205.99 36.2357  12
   9   3  -9 1206.50 36.3568   5
  -9   3   9 1217.09 40.7206  14
   7  -3  -9 18.4001 3.04478  12
   7  -3  -9 13.5265 2.76275  11
   7  -3  -9 13.0248 3.20991  15
  -7  -3   9 26.9505 3.24574   4
  -7  -3   9 15.5550 3.03876   7
   7  -3  -9 16.0584 3.33897   5
  -7   3   9 19.2906 4.19396  14
   7   3  -9 17.2456 2.60690  12
   7   3  -9 14.4710 2.94577   5
  -7   3   9 14.2122 2.19521   4
   5  -3  -9 1694.67 51.9549  15
  -5  -3   9 1769.60 49.1085   7
   5  -3  -9 1780.34 50.0700   5
  -5  -3   9 1768.88 48.3150   4
   5  -3  -9 1789.41 50.2226  11
   5   3  -9 1758.80 49.7686   5
  -5   3   9 1814.21 48.1216   4
   5   3  -9 1725.19 49.4766  11
   5   3  -9 1709.25 48.0379  12
  -3  -3   9 98.2801 6.29736  10
   3  -3  -9 96.1787 7.16430  15
   3  -3  -9 108.130 6.23974   5
   3  -3  -9 97.7650 5.69608   2
   3  -3  -9 100.972 6.71406  11
  -3  -3   9 103.122 5.27263   4
  -3  -3   9 94.5952 5.55749   7
  -3   3   9 94.4754 5.19757  13
   3   3  -9 95.8574 5.99200  11
   3   3  -9 101.509 4.95718   9
   3   3  -9 98.1318 5.62349   5
  -3   3   9 102.105 5.23692   4
  -1  -3   9 1540.80 43.2284   4
   1  -3  -9 1611.36 45.5253   2
   1  -3  -9 1491.94 47.2578  15
   1  -3  -9 1586.90 46.0518  11
  -1  -3   9 1515.98 44.1545   7
   1   3  -9 1573.61 43.4282   9
  -1   3   9 1524.54 43.5090  13
   1   3  -9 1512.47 45.0309  11
  -1   3   9 1590.61 42.8525   4
  -1  -3  -9 151.847 8.79542  11
   1  -3   9 168.133 8.05180   4
  -1  -3  -9 156.814 9.12867   2
   1  -3   9 164.744 8.42303   7
  -1   3  -9 165.836 8.13864   9
   1   3   9 150.045 7.86889  13
   1   3   9 160.806 7.31689   4
  -3  -3  -9 694.703 25.5411   2
   3  -3   9 662.664 23.2321   7
  -3  -3  -9 618.745 22.6215  11
   3  -3   9 662.616 21.9613   4
   3   3   9 689.818 21.5207   4
  -3   3  -9 671.199 22.5018   9
   3   3   9 681.940 22.5098  13
 -10  -4   9 181.908 9.17749   7
  10  -4  -9 175.848 9.16533  12
  10  -4  -9 166.089 9.29171   5
 -10   4   9 188.418 12.7844  14
  10   4  -9 175.228 9.13612   5
  10   4  -9 169.455 9.13679  12
   8  -4  -9 406.532 15.4465   5
   8  -4  -9 376.899 14.3259  12
  -8  -4   9 388.015 14.6395   7
  -8   4   9 384.647 15.1206   8
   8   4  -9 368.029 14.6959   5
   8   4  -9 382.527 14.5300  12
  -8   4   9 390.668 17.7903  14
   6  -4  -9 470.766 17.2992   5
  -6  -4   9 460.062 16.6653   7
   6  -4  -9 494.495 17.3506  11
  -6  -4   9 489.866 15.8488   4
  -6   4   9 495.343 15.4762   4
  -6   4   9 468.800 17.0853   8
   6   4  -9 482.802 16.1049  12
   6   4  -9 486.560 17.2329   5
  -6   4   9 495.074 19.0460  14
   4  -4  -9 268.777 11.8469  11
  -4  -4   9 280.039 11.9025  10
   4  -4  -9 271.119 11.3417   5
  -4  -4   9 268.166 10.8820   7
  -4  -4   9 277.273 10.1512   4
   4  -4  -9 262.855 12.8148  15
   4   4  -9 271.554 11.1554   5
  -4   4   9 266.419 10.4610  13
  -4   4   9 276.824 9.84872   4
  -4   4   9 262.514 11.3065   8
   2  -4  -9 410.647 19.5037  15
   2  -4  -9 442.476 16.8214  11
   2  -4  -9 467.503 16.2668   2
   2  -4  -9 421.670 15.4439   5
  -2  -4   9 456.255 14.8401   4
  -2  -4   9 439.452 15.7052   7
  -2   4   9 428.583 14.1474   4
   2   4  -9 446.506 14.5050   9
   2   4  -9 464.530 15.4539   5
  -2   4   9 447.258 15.1751  13
   0  -4  -9 182.928 9.97120   2
   0  -4   9 180.416 8.93023   7
   0  -4  -9 177.148 9.87344  11
   0  -4   9 184.960 8.36471   4
   0   4   9 193.552 7.76216   4
   0   4   9 181.736 8.57723  13
   0   4  -9 177.461 8.21074   9
  -2  -4  -9 114.003 8.50480   2
  -2  -4  -9 103.130 7.31211  11
   2  -4   9 114.793 7.75881   7
   2  -4   9 99.0261 6.50911   4
   2   4   9 105.105 6.51578  13
  -2   4  -9 110.997 6.82231   9
   2   4   9 102.238 5.81256   4
   4  -4   9 97.0730 7.57759   7
  -4  -4  -9 96.6905 8.64167   2
   4  -4   9 91.6182 6.60900   4
   4   4   9 88.8823 6.87614  13
  -4   4  -9 101.094 7.02757   9
 -11  -5   9 285.250 12.8360   7
  11  -5  -9 288.110 12.6354  12
 -11  -5   9 288.395 15.6306  14
  11   5  -9 297.125 13.4101  12
 -11   5   9 288.217 16.7893  14
   9  -5  -9 462.809 16.9410  12
   9  -5  -9 440.252 17.0039   5
  -9  -5   9 448.199 16.7702   7
  -9   5   9 475.611 21.0177  14
  -9   5   9 458.731 17.9892   8
   9   5  -9 454.154 17.0272  12
   9   5  -9 447.173 17.0640   5
  -7  -5   9 705.164 21.8703   4
   7  -5  -9 730.941 23.5483  11
  -7  -5   9 696.830 23.2816   7
   7  -5  -9 731.877 23.9876   5
   7   5  -9 733.331 23.9940   5
   7   5  -9 688.684 22.7040  12
  -7   5   9 726.579 24.3174   8
  -7   5   9 726.265 26.0769  14
  -5  -5   9 584.654 20.8297  10
  -5  -5   9 600.358 20.0787   7
  -5  -5   9 592.465 18.6070   4
   5  -5  -9 581.798 20.2862  11
   5  -5  -9 582.794 20.0657   5
  -5   5   9 608.234 18.1533   4
   5   5  -9 582.679 18.4812  12
   5   5  -9 580.387 19.9168   5
  -5   5   9 579.116 20.4263   8
   3  -5  -9 630.079 21.0563   5
   3  -5  -9 665.058 22.5590  11
  -3  -5   9 647.823 20.0423   4
  -3  -5   9 634.784 21.4145   7
   3  -5  -9 640.078 20.8838   2
  -3  -5   9 614.018 22.5880  10
  -3   5   9 641.960 22.1605   8
  -3   5   9 666.755 19.4812   4
   3   5  -9 652.461 21.1888   5
  -3   5   9 651.477 20.6733  13
  -1  -5   9 269.492 11.7099   7
   1  -5  -9 268.722 11.9439   2
  -1  -5   9 259.714 10.2013   4
   1  -5  -9 253.523 12.2320  11
   1   5  -9 249.511 9.81256   9
  -1   5   9 257.263 10.5536  13
  -1   5   9 251.101 9.33655   4
   1   5  -9 265.722 10.4231   6
   1   5  -9 263.682 10.6073   5
   1  -5   9 352.247 13.2860   4
  -1  -5  -9 328.402 14.6038  11
   1  -5   9 342.013 14.4504   7
  -1  -5  -9 366.151 15.6150   2
   1   5   9 334.979 13.4689  13
  -1   5  -9 358.720 13.4396   9
   3  -5   9 152.715 8.36211   4
  -3  -5  -9 138.756 10.0938   2
   3  -5   9 155.714 9.67912   7
   3   5   9 140.195 8.37651  13
  -3   5  -9 146.434 8.34348   9
  10  -6  -9 264.987 11.9855  12
 -10  -6   9 268.120 12.3584   7
  10  -6  -9 256.011 12.1544   5
  10   6  -9 259.375 11.7972   5
 -10   6   9 259.354 15.5626  14
  10   6  -9 253.807 12.0563  12
 -10   6   9 260.108 13.1330   8
   8  -6  -9 174.989 9.23209  11
   8  -6  -9 208.772 10.0329   5
  -8  -6   9 207.094 10.4164   7
   8   6  -9 195.446 9.86544   5
   8   6  -9 205.072 9.70510  12
  -8   6   9 192.612 11.9588  14
  -8   6   9 187.958 10.4894   8
  -6  -6   9 198.194 9.88920   7
  -6  -6   9 190.256 10.3214  10
   6  -6  -9 184.597 9.63171   5
   6  -6  -9 191.878 9.78812  11
  -6  -6   9 209.317 8.18971   4
  -6   6   9 192.525 10.1699   8
   6   6  -9 198.876 9.77199   5
  -4  -6   9 414.260 15.3488   7
  -4  -6   9 410.912 13.8874   4
   4  -6  -9 401.523 15.1808   5
  -4  -6   9 389.736 16.5309  10
   4  -6  -9 401.788 15.7164  11
  -4   6   9 406.926 16.3396   8
   4   6  -9 405.705 15.1060   5
   2  -6  -9 108.253 7.02763   2
  -2  -6   9 112.025 8.62618  10
   2  -6  -9 100.140 6.49493   5
  -2  -6   9 107.824 6.89974   7
  -2  -6   9 123.253 6.11233   4
   2  -6  -9 110.071 7.48392  11
   2   6  -9 115.928 6.80009   5
   2   6  -9 113.318 6.07906   6
  -2   6   9 108.848 6.45274  13
   0  -6   9 140.313 8.31928   7
   0  -6  -9 147.607 9.10583   2
   0  -6   9 149.487 7.42987   4
   0  -6  -9 138.818 8.90997  11
   0   6   9 141.194 7.39883  13
   0   6  -9 140.210 7.18868   9
  -2  -6  -9 112.710 8.88323   2
  -2  -6  -9 105.263 7.35639  11
   2  -6   9 113.768 7.09830   4
   2  -6   9 116.986 8.04724   7
   2   6   9 114.607 7.39687  13
  -2   6  -9 115.874 7.03462   9
   9  -7  -9 32.0434 4.04247  12
   9  -7  -9 36.5781 4.98306   5
  -9  -7   9 29.1726 4.25232   7
  -9   7   9 26.2050 4.88718   8
   9   7  -9 24.0393 3.98943   5
   9   7  -9 27.9450 4.16676  12
  -9   7   9 24.8232 5.39024  14
  -7  -7   9 628.506 21.6752   7
   7  -7  -9 599.882 21.0493  11
  -7  -7   9 599.564 22.8820  10
   7  -7  -9 610.599 21.4451   5
   7   7  -9 611.361 20.4791  12
   7   7  -9 609.711 21.5936   5
  -7   7   9 628.852 22.7666   8
  -5  -7   9 41.2282 5.40062  10
  -5  -7   9 52.5024 4.94454   7
   5  -7  -9 42.2468 4.97036   5
   5  -7  -9 58.8282 6.14108  11
   5   7  -9 43.7316 4.46299   5
  -5   7   9 37.4125 5.14546   8
   3  -7  -9 926.781 31.2294  11
  -3  -7   9 949.946 28.6062   4
  -3  -7   9 999.248 31.1344   7
   3  -7  -9 965.710 30.2523   5
  -3  -7   9 961.518 33.4099  10
   3  -7  -9 979.399 30.2971   2
   3   7  -9 1005.07 29.8859   6
  -3   7   9 1009.40 29.9963  13
  -3   7   9 983.595 32.2526   8
   3   7  -9 1009.62 30.6503   5
  -1  -7   9 167.501 11.3621  10
  -1  -7   9 182.323 9.80870   7
   1  -7  -9 163.006 9.83131  11
   1  -7  -9 166.952 9.26109   2
   1   7  -9 155.461 7.59999   6
  -1   7   9 155.791 8.24905  13
   1  -7   9 857.770 26.3451   4
  -1  -7  -9 839.998 29.3843   2
   1  -7   9 871.859 28.8875   7
  -1  -7  -9 800.045 28.5112  11
  -1   7  -9 857.513 26.5088   9
   1   7   9 845.793 26.8243  13
   8  -8  -9 43.0796 4.47029  11
   8  -8  -9 45.9789 5.22114   5
  -8  -8   9 44.8120 5.91532  10
  -8  -8   9 44.3908 5.77158   7
   8   8  -9 55.1324 5.71949   5
  -8   8   9 43.3587 5.74506   8
   8   8  -9 56.2061 5.13617  12
   6  -8  -9 55.3014 6.04300  11
  -6  -8   9 61.5865 5.69148   7
  -6  -8   9 65.6526 7.34592  10
   6  -8  -9 64.2980 6.12380   5
   6   8  -9 59.3332 4.58307  12
   6   8  -9 59.5739 5.75617   5
  -6   8   9 60.5938 6.53392   8
  -4  -8   9 248.219 13.8250  10
  -4  -8   9 269.701 12.4228   7
   4  -8  -9 244.765 11.5172   5
   4  -8  -9 258.152 12.3384  11
   4   8  -9 269.037 11.4514   6
  -4   8   9 265.446 13.3380   8
   2  -8  -9 49.1306 5.29799  11
  -2  -8   9 51.2545 6.93951  10
   2  -8  -9 42.7599 4.61977   2
   2  -8  -9 50.5943 4.59941   5
  -2  -8   9 54.2135 5.94597   7
  -2   8   9 53.1068 5.02039  13
  -2   8   9 48.4629 5.67361   8
   2   8  -9 47.6480 4.53821   6
   0  -8  -9 180.665 10.6056  11
   0  -8   9 192.585 13.0288  10
   0  -8   9 177.152 10.0679   7
   0  -8  -9 187.276 10.8202   2
   0   8   9 194.673 9.39966  13
  -7  -9   9 334.328 14.3352   7
   7  -9  -9 315.824 14.3519  11
  -7  -9   9 348.154 17.1285  10
   7  -9  -9 333.414 14.5686   5
   7   9  -9 325.750 13.3467  12
  -7   9   9 356.711 16.2017   8
  -5  -9   9 552.899 22.9343  10
   5  -9  -9 533.807 20.7503  11
  -5  -9   9 574.148 20.8306   7
   5  -9  -9 554.802 20.3862   5
  -5   9   9 557.671 22.1687   8
   5   9  -9 585.594 20.1507   6
  -3  -9   9 186.647 11.9986  10
   3  -9  -9 199.628 11.2611  11
  -3  -9   9 202.398 10.6735   7
   3  -9  -9 183.933 9.71221   5
  -3   9   9 189.691 11.2415   8
   3   9  -9 194.618 9.62586   6
  -1  -9   9 285.958 16.1084  10
   1  -9  -9 277.712 13.4166  11
  -1  -9   9 292.183 13.7305   7
   1  -9  -9 266.705 13.1980   2
   1   9  -9 270.507 11.7203   6
  -1   9   9 279.072 14.8018   8
  -1   9   9 312.955 12.4270  13
   6 -10  -9 2.96625 3.00867   5
  -6 -10   9 1.64230 3.56578  10
  -6 -10   9 2.67966 2.40625   7
   6 -10  -9 4.24452 2.50334  11
   6  10  -9 9.62500 2.56130   6
  -6  10   9 -0.0720 2.76873   8
  -4 -10   9 43.1438 5.75969   7
  -4 -10   9 53.5249 7.96576  10
   4 -10  -9 45.6893 4.99658   5
   4 -10  -9 42.1533 5.90100  11
  -4  10   9 47.0810 6.63712   8
   4  10  -9 40.8550 4.65036   6
  -2 -10   9 10.3954 4.39583  10
  -2 -10   9 4.49119 3.11785   7
   2 -10  -9 5.33957 2.67947  11
   2 -10  -9 8.46787 2.30418   2
   2 -10  -9 0.93929 2.18287   5
   2  10  -9 3.05382 2.20986   6
  -2  10   9 1.71426 3.40822   8
  12   0 -10 59.1970 5.64117  12
  12   0 -10 50.9732 5.33386   1
 -12   0  10 48.9923 7.69346  14
 -10   0  10 1445.13 40.2066   7
  10   0 -10 1399.97 41.7119   5
  10   0 -10 1328.19 41.0556  16
 -10   0  10 1426.84 46.6903  14
  10   0 -10 1400.34 41.5742  12
  10   0 -10 1325.33 41.3581   1
  -8   0  10 193.655 8.17518   7
   8   0 -10 178.290 8.91379  16
  -8   0  10 197.894 8.63698   4
   8   0 -10 202.310 9.74307   5
   8   0 -10 174.167 8.63609  12
   6   0 -10 1498.81 43.5588  11
  -6   0  10 1670.91 42.3622   4
  -6   0  10 1461.04 41.6951   7
   6   0 -10 1382.57 41.9459  12
   6   0 -10 1493.09 43.9067   5
  -4   0  10 73.3201 4.59869  13
  -4   0  10 65.2909 4.33156   7
   4   0 -10 74.9613 5.51989  11
   4   0 -10 65.4871 5.22226   5
  -4   0  10 65.1874 4.35684   4
   2   0 -10 799.755 26.1370  11
  -2   0  10 776.544 23.4901  13
  -2   0  10 773.782 23.4550   7
   2   0 -10 768.078 24.1439   5
  -2   0  10 775.478 23.5562   4
   0   0 -10 30.4173 4.18505  11
   0   0  10 32.3065 3.70219  13
   0   0  10 23.1054 3.10231   7
   0   0  10 35.0914 3.58145   4
  -2   0 -10 608.669 21.5846   9
   2   0  10 622.906 20.7697  13
  -2   0 -10 616.523 22.1121  11
   2   0  10 634.120 20.8675   4
  11  -1 -10 89.8324 6.62677  12
 -11  -1  10 89.1977 8.85259  14
  11  -1 -10 91.5637 7.16045   1
 -11  -1  10 103.642 6.64915   7
  11  -1 -10 98.7974 7.06737   5
  11   1 -10 88.3097 6.65761   1
  11   1 -10 97.2384 7.06426   5
 -11   1  10 93.8312 9.18832  14
  11   1 -10 99.4782 7.30726  12
   9  -1 -10 94.6683 6.83388   5
  -9  -1  10 89.6637 5.90808   7
   9  -1 -10 89.4711 6.47272  12
   9  -1 -10 81.4109 5.88712  16
   9   1 -10 84.1251 6.29148  12
   9   1 -10 88.1549 6.68183   5
  -9   1  10 89.6373 8.81782  14
   7  -1 -10 4.59236 2.07004  11
  -7  -1  10 7.31526 2.38843   7
   7  -1 -10 4.82125 1.68752  12
   7  -1 -10 7.11269 2.63449   5
  -7  -1  10 4.83545 2.04072   4
   7   1 -10 17.2547 2.94397  12
   7   1 -10 5.47747 2.48814   5
   7   1 -10 4.19405 1.87495  11
  -7   1  10 6.88674 2.20251   4
   5  -1 -10 250.378 10.9024  11
   5  -1 -10 229.386 9.35889  12
  -5  -1  10 242.940 9.61645   7
   5  -1 -10 236.897 10.5341   5
  -5  -1  10 238.896 9.41274   4
   5   1 -10 245.215 10.7577  11
  -5   1  10 247.353 9.61897   4
   5   1 -10 237.963 10.6633   5
  -3  -1  10 12.2787 2.20360  13
   3  -1 -10 11.7907 2.33430   5
  -3  -1  10 10.5805 2.33449   7
   3  -1 -10 13.8211 3.16633  11
  -3  -1  10 13.3214 2.51604   4
   3   1 -10 13.2070 2.98651  11
  -3   1  10 16.2652 2.69334   4
  -3   1  10 11.7592 2.37485  13
   3   1 -10 12.4112 2.38350   5
   1  -1 -10 34.0148 4.65882  11
  -1  -1  10 33.9282 3.38061  13
  -1  -1  10 31.2737 3.50272   7
  -1  -1  10 38.0314 3.71568   4
   1   1 -10 33.2382 4.30581  11
  -1   1  10 36.2465 3.49538   4
  -1   1  10 37.2715 3.94485  13
   1  -1  10 96.2801 5.67654  13
   1  -1  10 105.405 6.35726   7
  -1  -1 -10 100.669 7.31754  11
   1  -1  10 101.595 6.08372   4
   1   1  10 95.3873 5.80765   4
   1   1  10 94.3120 5.92175  13
  -1   1 -10 106.642 6.92804   9
  -1   1 -10 96.6288 7.14897  11
   3  -1  10 0.64349 1.71416   4
  -3  -1 -10 3.27786 2.00427  11
   3  -1  10 1.53158 2.14114   7
  -3  -1 -10 0.50588 2.22261   9
   3  -1  10 -0.0582 1.94612  13
   3   1  10 0.86026 1.61387   4
   3   1  10 1.17792 2.29732  13
  -3   1 -10 1.73155 2.17532   9
  10  -2 -10 29.0235 3.89502  16
  10  -2 -10 29.4992 4.49420   5
  10  -2 -10 28.2007 4.21491  12
 -10  -2  10 33.7695 4.28738   7
 -10  -2  10 27.7689 5.91210  14
  10   2 -10 24.6687 4.15835   5
  10   2 -10 35.0952 4.30041  12
 -10   2  10 28.1819 5.95412  14
   8  -2 -10 693.613 22.5707  12
  -8  -2  10 695.105 21.5937   4
   8  -2 -10 696.415 23.3199   5
  -8  -2  10 671.035 22.0257   7
  -8   2  10 674.033 26.2197  14
   8   2 -10 655.859 22.1552  12
   8   2 -10 702.235 23.4729   5
  -6  -2  10 88.9765 5.49233   4
  -6  -2  10 90.2337 5.45423   7
   6  -2 -10 106.587 6.69599  11
   6  -2 -10 101.001 6.50411   5
   6  -2 -10 88.6942 5.65485  12
   6   2 -10 97.8347 5.53116  12
   6   2 -10 90.8525 5.98670  11
  -6   2  10 97.6267 5.60421   4
   6   2 -10 92.2940 6.19584   5
  -4  -2  10 1616.03 45.1802   4
  -4  -2  10 1590.36 45.5000   7
   4  -2 -10 1595.93 46.5785   5
   4  -2 -10 1665.17 47.7945  11
  -4   2  10 1639.91 44.9535   4
   4   2 -10 1619.10 47.1491  11
   4   2 -10 1594.81 46.4657   5
  -4   2  10 1654.66 45.5890  13
  -2  -2  10 271.147 10.2755  13
   2  -2 -10 304.598 12.4214   2
   2  -2 -10 277.776 11.2703   5
  -2  -2  10 296.522 11.5073   7
  -2  -2  10 299.246 11.1991   4
   2  -2 -10 291.459 12.8748  11
   2   2 -10 283.857 11.3875   5
   2   2 -10 309.365 11.1864   9
  -2   2  10 297.217 10.8625   4
  -2   2  10 283.710 11.0264  13
   2   2 -10 291.561 12.5621  11
   0  -2 -10 1221.04 38.8254  11
   0  -2  10 1244.20 37.0841   7
   0  -2  10 1243.71 35.8064  13
   0  -2  10 1236.04 36.2743   4
   0   2 -10 1244.23 38.5838  11
   0   2 -10 1325.52 37.4262   9
   0   2  10 1229.15 35.9626   4
   0   2  10 1273.00 36.7672  13
   2  -2  10 121.225 7.40226   7
   2  -2  10 113.109 6.52782  13
  -2  -2 -10 125.417 8.08233  11
   2  -2  10 110.139 7.15822   4
  -2   2 -10 118.306 7.56177   9
   2   2  10 120.083 7.38735  13
   2   2  10 111.609 6.71801   4
 -11  -3  10 4.71322 2.96392  14
  11  -3 -10 5.22459 2.19822   5
 -11  -3  10 5.30186 2.13126   7
  11  -3 -10 2.64333 2.67960  12
  11   3 -10 3.58940 2.69942  12
 -11   3  10 5.62337 3.97874  14
  11   3 -10 5.71136 2.79294   5
   9  -3 -10 7.04683 2.29968  12
  -9  -3  10 2.94777 2.51030   7
   9  -3 -10 2.32259 2.01552   5
   9   3 -10 2.47384 1.88057   5
   9   3 -10 2.60671 1.70454  12
  -9   3  10 5.02098 3.54487  14
   7  -3 -10 14.5168 2.97348   5
   7  -3 -10 14.6888 2.95653  11
   7  -3 -10 15.3202 2.61372  12
  -7  -3  10 16.0214 2.79328   4
  -7  -3  10 16.7589 2.87847   7
  -7   3  10 19.4065 2.84206   4
  -7   3  10 15.9510 3.66234  14
   7   3 -10 15.5237 2.99217   5
   7   3 -10 17.5609 2.88396  12
  -5  -3  10 84.2702 5.82747   7
   5  -3 -10 96.1378 6.41526  11
  -5  -3  10 91.9622 5.22537   4
   5  -3 -10 87.8836 5.97869   5
   5  -3 -10 87.5359 5.11678  12
   5   3 -10 84.8556 6.12821   5
   5   3 -10 87.0228 5.84767  11
  -5   3  10 86.7041 5.17278   4
  -3  -3  10 2.34133 1.93190   4
   3  -3 -10 5.79610 2.28908   5
   3  -3 -10 1.22028 1.19048   2
  -3  -3  10 4.44382 2.28299   7
   3  -3 -10 3.46412 2.39212  11
  -3   3  10 1.88090 1.82848  13
   3   3 -10 1.00916 1.17339   9
  -3   3  10 2.17506 1.41106   4
   3   3 -10 -1.0203 1.70982  11
   3   3 -10 0.69884 1.63078   5
  -1  -3  10 8.75263 2.24710   7
  -1  -3  10 10.8514 2.35203   4
   1  -3 -10 6.65214 2.25877   2
   1  -3 -10 10.4680 3.10497  11
   1   3 -10 8.60219 2.22984   9
   1   3 -10 7.44119 2.15888   5
   1   3 -10 6.01008 2.56811  11
  -1   3  10 8.31860 2.14749  13
  -1   3  10 10.8520 2.35552   4
   1  -3  10 31.8881 4.08247   4
   1  -3  10 36.5407 4.38598   7
  -1  -3 -10 37.9414 5.56743   2
  -1  -3 -10 35.6558 4.70943  11
  -1   3 -10 38.6450 4.31468   9
   1   3  10 38.7411 4.64011  13
   1   3  10 42.3463 4.10036   4
   3  -3  10 3.94471 2.74375   7
   3  -3  10 0.55421 2.35872   4
   3   3  10 10.6015 2.84942  13
  -3   3 -10 3.63408 2.48847   9
   3   3  10 7.35264 2.05698   4
  10  -4 -10 99.2939 7.28672   5
 -10  -4  10 92.7562 6.42708   7
  10  -4 -10 87.4809 6.33259  12
  10   4 -10 97.8335 7.10194  12
  10   4 -10 96.6254 7.16773   5
 -10   4  10 96.3397 9.40885  14
  -8  -4  10 1569.39 45.6790   7
   8  -4 -10 1575.63 46.4129   5
   8  -4 -10 1511.79 51.7324  11
   8  -4 -10 1577.25 45.5281  12
  -8  -4  10 1647.36 44.6918   4
   8   4 -10 1612.75 46.8161   5
  -8   4  10 1607.39 49.8741  14
   8   4 -10 1513.31 45.3595  12
   6  -4 -10 38.7401 4.67121  11
  -6  -4  10 43.8363 4.21254   7
   6  -4 -10 35.0511 4.58271   5
  -6  -4  10 42.3082 3.66898   4
   6  -4 -10 32.1764 3.73719  12
  -6   4  10 48.6565 3.66368   4
  -6   4  10 36.8127 5.00874  14
   6   4 -10 33.0763 3.52672  12
  -6   4  10 27.1793 4.50289   8
   6   4 -10 43.0662 4.31718   5
  -4  -4  10 1296.28 39.1738   7
  -4  -4  10 1363.23 38.3587   4
   4  -4 -10 1360.69 40.8320  11
   4  -4 -10 1326.64 39.7780   5
   4   4 -10 1371.46 39.8360   5
  -4   4  10 1300.96 39.7652   8
  -4   4  10 1348.80 38.8906  13
  -4   4  10 1393.57 37.9713   4
  -2  -4  10 3.62040 1.69877   4
   2  -4 -10 4.75731 2.17429   2
   2  -4 -10 7.96429 2.64255  11
  -2  -4  10 8.13342 2.29600   7
   2  -4 -10 3.25173 1.94056   5
  -2   4  10 4.48311 2.18382  13
  -2   4  10 9.72716 2.22235   4
   2   4 -10 8.96671 2.53988   5
   2   4 -10 8.32883 1.94805   9
   0  -4 -10 799.046 27.6327   2
   0  -4  10 804.463 26.5630   7
   0  -4  10 837.568 25.3934   4
   0  -4 -10 779.406 27.5161  11
   0   4 -10 812.228 25.4394   9
   0   4  10 824.553 25.6999  13
   0   4  10 807.619 24.3342   4
  -2  -4 -10 17.3351 3.88476   2
   2  -4  10 14.5937 3.40985   4
   2  -4  10 13.2792 3.61668   7
  -2  -4 -10 15.5751 3.56223  11
   2   4  10 11.1095 2.74295  13
  -2   4 -10 12.8044 2.93631   9
  -9  -5  10 119.155 7.43980   7
   9  -5 -10 119.120 7.55948  12
   9  -5 -10 115.476 7.92807   5
  -9   5  10 120.612 9.86763  14
   9   5 -10 128.577 8.15241   5
   9   5 -10 122.542 7.41015  12
   7  -5 -10 348.467 14.4988   5
   7  -5 -10 345.814 14.1170  11
  -7  -5  10 344.495 14.0983   7
  -7  -5  10 367.388 13.0079   4
   7  -5 -10 331.002 13.1824  12
   7   5 -10 362.107 14.5353   5
   7   5 -10 344.454 13.1873  12
  -7   5  10 339.593 14.2804   8
  -7   5  10 373.280 16.3463  14
  -5  -5  10 112.779 7.41261   7
  -5  -5  10 118.520 6.55794   4
   5  -5 -10 115.950 7.46113  11
   5  -5 -10 116.649 7.16373   5
  -5   5  10 131.908 6.15414   4
  -5   5  10 111.173 7.36121   8
   5   5 -10 120.099 7.34630   5
   3  -5 -10 351.899 14.9191  11
   3  -5 -10 315.535 18.0448   2
   3  -5 -10 353.192 14.0154   5
  -3  -5  10 354.474 15.4416  10
  -3  -5  10 365.535 13.1033   4
  -3  -5  10 375.228 14.5920   7
   3   5 -10 376.479 14.2654   5
  -3   5  10 377.102 12.5028   4
  -3   5  10 357.809 14.8803   8
  -3   5  10 349.646 13.3648  13
  -1  -5  10 236.407 11.1362   7
   1  -5 -10 225.310 11.0180   2
   1  -5 -10 215.022 11.5980  11
  -1  -5  10 222.618 9.70776   4
   1   5 -10 213.635 9.69732   5
  -1   5  10 220.154 9.85707  13
   1   5 -10 215.680 9.33064   9
  -1  -5 -10 66.0296 6.35693  11
  -1  -5 -10 73.7867 6.65776   2
   1  -5  10 73.2431 6.61053   7
   1  -5  10 64.4179 5.57010   4
  -1   5 -10 74.2882 5.74306   9
   1   5  10 79.0701 6.22781  13
 -10  -6  10 518.839 18.8619   7
  10  -6 -10 477.219 18.1436  12
 -10   6  10 487.939 22.2333  14
  10   6 -10 508.499 19.0625   5
  10   6 -10 488.296 18.5440  12
   8  -6 -10 6.20660 2.49370   5
  -8  -6  10 11.0767 3.56240   7
   8  -6 -10 9.32521 2.65149  11
   8  -6 -10 11.8483 2.96410  12
   8   6 -10 10.6350 2.76831  12
  -8   6  10 9.15247 2.64338   8
   8   6 -10 9.92124 2.66410   5
   6  -6 -10 948.739 30.6449  11
   6  -6 -10 924.353 30.1408   5
  -6  -6  10 976.207 28.4559   4
  -6  -6  10 968.524 30.4018   7
   6   6 -10 971.412 30.7127   5
  -4  -6  10 69.8928 6.23371  10
  -4  -6  10 80.3108 4.95695   4
   4  -6 -10 67.2512 5.36720   5
   4  -6 -10 74.2226 6.04575  11
  -4  -6  10 74.4645 5.80014   7
   4   6 -10 76.5116 5.99612   5
  -4   6  10 68.5435 6.38784   8
  -2  -6  10 1273.51 38.5341   7
   2  -6 -10 1254.66 38.1237   2
   2  -6 -10 1271.86 39.3933  11
  -2  -6  10 1264.77 36.4827   4
   2  -6 -10 1168.19 37.0140   5
  -2  -6  10 1228.03 40.9401  10
   2   6 -10 1296.98 37.6138   5
  -2   6  10 1281.36 37.1722  13
   0  -6  10 87.5889 6.17654   4
   0  -6 -10 89.0186 7.43611   2
   0  -6 -10 86.2887 7.34571  11
   0  -6  10 89.4132 7.26633   7
   0   6  10 76.7442 6.24864  13
   0   6 -10 87.0015 5.54740   9
   2  -6  10 704.626 23.4602   4
   2  -6  10 717.475 25.5654   7
  -2  -6 -10 700.879 26.3578   2
  -2   6 -10 678.961 23.3715   9
   2   6  10 744.200 24.2004  13
   9  -7 -10 1.02330 1.67935  12
   9  -7 -10 1.49949 2.04575   5
  -9  -7  10 4.14998 3.19077   7
   9   7 -10 4.49947 1.95346  12
   9   7 -10 1.57212 2.54552   5
  -9   7  10 0.07528 2.32150   8
  -7  -7  10 13.7146 3.32771   7
   7  -7 -10 14.5143 3.35861  11
   7  -7 -10 16.0444 3.36570   5
  -7   7  10 11.7291 3.43704   8
   7   7 -10 16.1092 2.84267  12
   7   7 -10 17.4544 3.68899   5
   5  -7 -10 17.3533 3.76461   5
  -5  -7  10 15.4745 4.00060   7
  -5  -7  10 14.6072 2.63572   4
  -5  -7  10 11.1828 3.64367  10
   5  -7 -10 9.27954 3.43352  11
  -5   7  10 15.3492 3.79702   8
   5   7 -10 15.2439 3.49200   5
  -3  -7  10 11.5921 2.99269   7
   3  -7 -10 6.29368 3.19853  11
   3  -7 -10 10.6845 3.00441   5
  -3  -7  10 10.3379 3.22179  10
  -3  -7  10 10.4830 2.58532   4
   3   7 -10 8.29887 2.77780   5
   3   7 -10 7.14049 2.29489   6
  -3   7  10 10.7999 3.59002   8
  -3   7  10 9.06189 2.46001  13
  -1  -7  10 2.26284 2.91098   7
  -1  -7  10 1.61582 2.03021  10
   1  -7 -10 2.25466 2.69535  11
   1  -7 -10 2.28815 2.41546   2
  -1  -7  10 0.08120 1.95073   4
  -1   7  10 1.67021 2.45375  13
  -1  -7 -10 7.49306 2.77699  11
  -1  -7 -10 3.81195 3.12358   2
   1  -7  10 1.20863 1.67586   4
   1  -7  10 7.23610 3.42020   7
  -1   7 -10 0.55061 1.78218   9
   1   7  10 0.69160 2.38452  13
  -8  -8  10 241.091 12.0806   7
   8  -8 -10 229.618 11.2416   5
  -8   8  10 227.534 12.4795   8
   8   8 -10 225.303 11.6025   5
  -6  -8  10 511.039 19.2967   7
   6  -8 -10 499.991 19.1028  11
  -6  -8  10 485.590 20.6166  10
   6  -8 -10 465.509 18.3935   5
  -6   8  10 508.016 20.1929   8
   6   8 -10 535.525 19.4179   5
  -4  -8  10 139.218 10.3148  10
   4  -8 -10 142.625 8.74785  11
   4  -8 -10 129.028 8.04248   5
  -4  -8  10 132.378 8.90760   7
  -4   8  10 132.188 9.39285   8
   4   8 -10 134.887 7.60454   6
   2  -8 -10 366.659 15.2045   2
  -2  -8  10 371.207 18.1150  10
  -2  -8  10 363.976 15.5676   7
   2  -8 -10 367.473 16.0120  11
   2   8 -10 357.316 13.9971   6
  -2   8  10 371.145 17.0271   8
  -2   8  10 404.136 15.0009  13
   0  -8 -10 68.7869 6.68704   2
   0  -8  10 64.8502 7.90785  10
   0  -8 -10 66.1967 6.61670  11
   0  -8  10 60.6178 6.52304   7
   0   8  10 62.3682 5.63464  13
   5  -9 -10 8.80303 2.85227  11
  -5  -9  10 9.17643 3.95841  10
  -5  -9  10 6.92291 3.54088   7
   5  -9 -10 8.97810 2.70167   5
   5   9 -10 8.55602 2.84110   6
  -5   9  10 8.20223 3.74641   8
  -3  -9  10 4.03293 3.09475   7
  -3  -9  10 3.47432 3.42180  10
   3  -9 -10 3.48650 2.56072   5
   3  -9 -10 1.64686 2.91388  11
   3   9 -10 5.44986 2.42453   6
  -3   9  10 3.69286 3.25448   8
  10   0 -11 8.20840 2.53686  12
  10   0 -11 -0.4263 2.39948   5
 -10   0  11 0.34785 2.44416  14
   8   0 -11 2.42169 2.13610  12
  -8   0  11 0.48095 1.98338   4
   8   0 -11 1.94339 2.33581   5
  -6   0  11 -0.9994 1.80039   4
   6   0 -11 1.01200 1.43332  11
   6   0 -11 -0.0539 1.41447   5
  -4   0  11 -1.0630 1.80544   4
   4   0 -11 2.27894 2.29340  11
   4   0 -11 0.67613 1.87159   5
  -4   0  11 1.08938 1.56202  13
   2   0 -11 5.28471 1.91870   5
   2   0 -11 0.48346 1.55530  11
  -2   0  11 0.53812 1.41300   4
  -2   0  11 3.26808 1.84686  13
   0   0 -11 3.36311 2.54607  11
   0   0  11 4.16137 2.15544  13
   0   0  11 1.39238 1.61344   4
   2   0  11 -0.8604 2.17933   4
  -2   0 -11 0.47156 2.24785   9
   2   0  11 0.42898 1.50579  13
  -2   0 -11 7.37136 2.74082  11
  11  -1 -11 87.3674 6.49466  12
 -11  -1  11 67.2485 8.55034  14
  11  -1 -11 74.4274 6.07644   5
 -11  -1  11 76.9266 5.81042   7
  11  -1 -11 66.8983 6.24945   1
  11   1 -11 82.0454 6.74105   5
  11   1 -11 74.9506 6.56826  12
 -11   1  11 77.3707 8.95445  14
   9  -1 -11 715.937 24.6634   5
   9  -1 -11 707.407 23.6720  12
  -9  -1  11 688.713 22.5091   7
  -9   1  11 744.051 28.4966  14
   9   1 -11 693.553 24.5423   5
   9   1 -11 698.600 23.7246  12
   7  -1 -11 189.946 9.95174   5
  -7  -1  11 164.460 7.86600   7
   7  -1 -11 172.018 8.89783  11
   7  -1 -11 170.788 8.33130  12
  -7  -1  11 178.410 8.32604   4
   7   1 -11 191.548 10.0037   5
  -7   1  11 182.878 8.34266   4
   7   1 -11 177.933 8.48543  12
   7   1 -11 180.807 8.89435  11
  -5  -1  11 656.897 21.1219   4
   5  -1 -11 669.934 22.8303   5
   5  -1 -11 686.307 23.4646  11
   5   1 -11 678.273 23.0141   5
  -5   1  11 674.285 21.1138   4
   5   1 -11 677.838 23.2718  11
   3  -1 -11 288.409 12.0135   5
  -3  -1  11 283.921 11.0577   4
  -3  -1  11 288.426 10.8054  13
   3  -1 -11 298.117 13.4302  11
  -3  -1  11 279.229 11.0877   7
   3   1 -11 285.675 12.9416  11
   3   1 -11 287.562 11.8655   5
  -3   1  11 291.061 11.1259  13
  -3   1  11 275.156 10.9557   4
  -1  -1  11 418.759 14.9965  13
  -1  -1  11 444.978 15.5617   4
   1  -1 -11 443.439 17.8256  11
  -1  -1  11 433.560 15.5222   7
   1   1 -11 426.518 17.5700  11
   1   1 -11 443.677 16.1296   9
  -1   1  11 424.445 15.1990   4
  -1   1  11 426.980 15.4618  13
   1  -1  11 269.582 11.3259  13
   1  -1  11 263.246 11.4696   4
  -1  -1 -11 284.765 13.6075  11
   1  -1  11 265.639 11.6939   7
  -1   1 -11 269.796 12.1068   9
  -1   1 -11 271.396 13.0738  11
   1   1  11 276.968 11.2731   4
   1   1  11 275.602 11.7895  13
 -10  -2  11 209.688 9.72611   7
  10  -2 -11 210.885 10.9907   5
  10  -2 -11 197.924 10.3408  12
  10   2 -11 210.648 10.4903  12
 -10   2  11 222.326 13.9874  14
   8  -2 -11 323.343 13.1527  12
   8  -2 -11 329.982 14.3543   5
  -8  -2  11 333.714 13.2182   7
  -8  -2  11 331.920 12.5192   4
  -8   2  11 332.876 12.4305   4
   8   2 -11 343.588 14.6444   5
  -8   2  11 354.013 16.8396  14
   8   2 -11 346.572 13.5377  12
   6  -2 -11 272.406 12.2024  11
   6  -2 -11 250.215 10.6092  12
  -6  -2  11 252.961 10.5381   7
   6  -2 -11 273.111 12.2766   5
  -6  -2  11 250.526 10.2932   4
   6   2 -11 264.590 11.7458  11
   6   2 -11 276.787 12.2930   5
  -6   2  11 273.999 10.6369   4
  -4  -2  11 243.894 10.1817   4
   4  -2 -11 248.291 11.1826   5
  -4  -2  11 234.693 9.98551   7
   4  -2 -11 243.563 12.0041  11
  -4   2  11 246.321 9.78945   4
  -4   2  11 245.546 10.1765  13
   4   2 -11 246.614 11.7276  11
   4   2 -11 258.210 11.3846   5
  -2  -2  11 223.784 9.88830   4
   2  -2 -11 238.016 12.0937  11
  -2  -2  11 228.113 9.96881   7
   2   2 -11 234.876 11.6943  11
   2   2 -11 238.017 10.3417   5
  -2   2  11 222.432 9.84666  13
  -2   2  11 230.451 9.67612   4
   2   2 -11 245.547 10.2933   9
   0  -2  11 108.245 6.86284   4
   0  -2  11 105.186 6.90514   7
   0  -2 -11 101.577 7.96442  11
   0   2 -11 116.506 7.22307   9
   0   2  11 105.611 6.45002  13
   0   2 -11 105.804 7.82839  11
   0   2  11 106.302 6.47074   4
   2  -2  11 105.274 6.75732   4
   2  -2  11 105.522 7.39753   7
  -2  -2 -11 103.360 7.66992  11
   2   2  11 105.486 7.27288  13
   2   2  11 104.019 6.30122   4
  -2   2 -11 103.027 7.07108   9
 -11  -3  11 355.035 19.1063  14
  11  -3 -11 384.798 15.7977  12
 -11  -3  11 389.636 15.1435   7
  11  -3 -11 382.724 15.6598   5
  11   3 -11 390.403 16.1134   5
  11   3 -11 373.318 15.8824  12
 -11   3  11 405.667 19.9022  14
  -9  -3  11 110.457 7.15534   7
   9  -3 -11 95.7787 6.58983  12
   9  -3 -11 104.981 7.60042   5
   9   3 -11 112.630 7.81447   5
   9   3 -11 106.941 7.10635  12
  -9   3  11 99.4330 9.14998  14
   7  -3 -11 901.405 28.1626  12
   7  -3 -11 915.766 29.2796  11
  -7  -3  11 915.488 28.3436   7
  -7  -3  11 913.564 27.6127   4
   7  -3 -11 906.828 29.6475   5
   7   3 -11 924.931 29.7795   5
  -7   3  11 944.337 27.3653   4
   7   3 -11 874.541 27.7779  12
  -5  -3  11 137.604 7.48543   7
  -5  -3  11 147.075 7.23567   4
   5  -3 -11 144.614 8.46821   5
   5  -3 -11 145.391 8.90314  11
  -5   3  11 158.978 7.35918   4
   5   3 -11 148.926 8.21569   5
   5   3 -11 146.516 8.42723  11
  -3  -3  11 1025.28 31.9467   7
  -3  -3  11 1021.48 31.1532   4
   3  -3 -11 1080.41 34.3676  11
  -3   3  11 1053.67 30.8545   4
   3   3 -11 1071.40 33.7407  11
  -3   3  11 1058.78 31.6631  13
   3   3 -11 1068.33 32.5065   5
  -1  -3  11 76.3211 5.97935   7
   1  -3 -11 73.0136 6.53117   2
  -1  -3  11 73.5869 5.60288   4
   1  -3 -11 75.8553 6.95132  11
  -1   3  11 71.4933 5.20492   4
  -1   3  11 72.1809 5.72933  13
   1   3 -11 80.4563 5.72251   9
  -1  -3 -11 550.255 21.8317  11
   1  -3  11 571.619 19.8323   4
   1  -3  11 574.467 20.6446   7
  -1   3 -11 587.400 20.5019   9
   1   3  11 599.389 20.4426  13
  10  -4 -11 9.37408 2.58977   5
  10  -4 -11 13.9464 2.96197  12
 -10  -4  11 15.6339 3.55867   7
 -10   4  11 14.1659 4.72462  14
  10   4 -11 9.11312 2.78988   5
  10   4 -11 10.6361 3.12015  12
  -8  -4  11 97.5917 7.05732   7
   8  -4 -11 89.4346 6.07881  12
   8  -4 -11 97.2774 6.96614   5
  -8  -4  11 96.8840 6.18628   4
   8   4 -11 95.8058 6.40580  12
  -8   4  11 94.1376 8.41516  14
   8   4 -11 92.5555 7.23759   5
  -6  -4  11 54.5049 4.92254   7
   6  -4 -11 54.7868 5.64915   5
   6  -4 -11 52.4627 4.57555  12
  -6  -4  11 63.8996 5.09188   4
   6  -4 -11 62.0040 5.91338  11
  -6   4  11 62.0728 4.72385   4
   6   4 -11 69.1392 5.64707   5
  -4  -4  11 95.7085 6.73115   7
   4  -4 -11 100.896 7.60474  11
  -4  -4  11 100.796 6.32875   4
   4  -4 -11 104.606 7.00002   5
  -4   4  11 99.3871 5.83669   4
   4   4 -11 105.545 6.78526   5
  -4   4  11 102.720 6.55393  13
   2  -4 -11 162.843 9.01574   2
   2  -4 -11 165.916 10.0985  11
  -2  -4  11 165.240 8.95896   7
  -2  -4  11 172.998 8.17018   4
  -2   4  11 161.150 7.65908   4
   2   4 -11 166.845 8.51888   5
  -2   4  11 147.713 8.21250  13
   0  -4 -11 68.2078 6.80189  11
   0  -4 -11 70.3402 6.83871   2
   0  -4  11 78.2870 6.61260   7
   0  -4  11 65.6998 5.82595   4
   0   4 -11 78.9387 5.83230   9
   0   4  11 77.4710 5.32653   4
   0   4  11 76.5346 6.15154  13
   9  -5 -11 345.355 14.8499   5
  -9  -5  11 361.285 14.6003   7
   9  -5 -11 345.809 14.1636  12
   9   5 -11 354.493 14.8118   5
   9   5 -11 324.100 13.8229  12
  -7  -5  11 249.862 10.3016   4
   7  -5 -11 239.917 10.4642  12
   7  -5 -11 230.953 11.4093   5
   7  -5 -11 238.891 11.2544  11
  -7  -5  11 250.673 11.2156   7
   7   5 -11 249.513 11.9473   5
  -5  -5  11 287.657 12.2793   7
  -5  -5  11 284.474 11.3746   4
   5  -5 -11 268.870 12.2646   5
   5  -5 -11 262.568 12.7393  11
  -5   5  11 289.659 10.6553   4
   5   5 -11 278.187 12.5341   5
  -3  -5  11 241.821 10.3428   4
   3  -5 -11 232.533 12.0041  11
  -3  -5  11 245.862 11.5508   7
  -3   5  11 251.713 10.9365  13
  -3   5  11 241.514 11.8637   8
   3   5 -11 237.039 11.0615   5
  -1  -5  11 284.844 13.1073   7
   1  -5 -11 281.463 13.9513  11
   1  -5 -11 272.169 12.7789   2
  -1  -5  11 276.806 11.7570   4
  -1   5  11 276.409 11.7517  13
   1   5 -11 309.404 13.3380   9
  -1  -5 -11 276.076 13.3413  11
   1  -5  11 263.946 11.7263   4
   1  -5  11 265.318 12.8892   7
  -1  -5 -11 266.246 13.6964   2
  -1   5 -11 250.305 11.6268   9
   1   5  11 262.101 11.6604  13
  -8  -6  11 2.76895 2.02968   4
   8  -6 -11 3.15230 1.93098  12
   8  -6 -11 7.09392 2.38337  11
  -8  -6  11 7.26876 3.30527   7
   8  -6 -11 6.36385 2.56879   5
   8   6 -11 1.01614 2.44447   5
  -6  -6  11 87.1899 7.03733   7
   6  -6 -11 83.3183 6.86910  11
  -6  -6  11 85.4170 5.84264   4
   6  -6 -11 87.1903 6.94206   5
  -6   6  11 75.5973 6.58028   8
   6   6 -11 88.5508 6.98643   5
   4  -6 -11 87.5354 7.40385  11
  -4  -6  11 86.8498 5.94690   4
  -4  -6  11 93.0546 7.21526   7
   4  -6 -11 84.4661 6.14684   5
   4   6 -11 94.8475 6.96016   5
  -4   6  11 89.7863 7.22166   8
   4   6 -11 87.0924 5.90684   6
  -2  -6  11 35.4680 5.40404  10
   2  -6 -11 38.5332 5.48556  11
   2  -6 -11 42.2940 4.45308   2
  -2  -6  11 33.9692 4.02554   4
  -2  -6  11 39.2740 5.26987   7
  -2   6  11 31.7373 5.11921   8
   2   6 -11 49.2097 4.79611   5
  -2   6  11 42.1525 4.90817  13
   0  -6  11 140.354 7.80769   4
   0  -6 -11 140.577 9.27334  11
   0  -6  11 166.270 11.2695  10
   0  -6 -11 155.322 9.74442   2
   0  -6  11 144.607 8.97501   7
   0   6 -11 145.726 7.95768   9
   0   6  11 155.491 8.74874  13
   7  -7 -11 186.347 10.2685   5
  -7  -7  11 184.858 10.3944   7
   7  -7 -11 185.275 10.0657  11
  -7   7  11 173.912 10.2548   8
   7   7 -11 190.917 10.2539   5
  -5  -7  11 676.879 23.2166   7
   5  -7 -11 623.706 23.4502  11
  -5  -7  11 720.891 23.1807   4
   5  -7 -11 611.151 22.4679   5
   5   7 -11 661.549 23.1870   5
   3  -7 -11 206.462 11.4563  11
   3  -7 -11 194.491 9.89487   5
  -3  -7  11 205.084 12.3790  10
  -3  -7  11 210.005 11.2453   7
  -3   7  11 212.207 11.4869   8
  -1  -7  11 441.618 20.2837  10
  -1  -7  11 443.239 15.9904   4
  -1  -7  11 452.807 18.2989   7
   1  -7 -11 419.514 18.4479  11
  -1   7  11 436.087 16.7055  13
  -1   7  11 467.279 19.3654   8
  -6  -8  11 184.982 10.5210   7
   6  -8 -11 177.346 9.72629   5
   6  -8 -11 173.144 10.0020  11
  -6   8  11 163.031 10.3627   8
   6   8 -11 166.768 9.60441   5
   4  -8 -11 98.0566 7.45960  11
  -4  -8  11 103.405 7.68307   7
  -4  -8  11 103.030 9.08032  10
   4  -8 -11 97.5261 6.68946   5
   4   8 -11 111.937 6.93242   6
  -4   8  11 103.372 8.40832   8
 -10   0  12 19.2192 5.40009  14
  10   0 -12 21.2798 3.90527   5
  10   0 -12 21.1624 3.50767  12
   8   0 -12 1089.36 34.3089  12
  -8   0  12 1162.83 33.8279   4
   8   0 -12 1173.22 36.5413   5
   6   0 -12 53.2965 5.59999  11
  -6   0  12 59.2327 4.93179   4
   6   0 -12 52.3212 5.23354   5
   4   0 -12 1228.51 38.4773  11
  -4   0  12 1221.03 35.2973  13
   4   0 -12 1189.96 36.9398   5
  -4   0  12 1187.83 35.1963   4
   2   0 -12 7.76421 2.78640  11
  -2   0  12 8.62711 2.42689  13
  -2   0  12 8.32558 2.59860   4
   0   0 -12 1003.59 34.0236  11
   0   0  12 998.413 31.0470   4
   0   0  12 1016.05 31.1594  13
   0   0 -12 1054.88 32.9083   9
   9  -1 -12 16.6861 3.05998  12
  -9  -1  12 26.7761 3.75076   4
   9  -1 -12 25.1019 4.09785   5
   9   1 -12 14.4295 2.81679  12
   9   1 -12 25.1812 4.52205   5
  -9   1  12 26.9111 5.27595  14
  -7  -1  12 102.064 6.43849   4
   7  -1 -12 109.337 7.46567  11
   7  -1 -12 113.118 7.95369   5
  -7   1  12 109.417 6.53566   4
   7   1 -12 103.300 6.91596  11
   7   1 -12 109.024 7.50138   5
   5  -1 -12 167.115 9.47380  11
  -5  -1  12 150.184 7.87385   4
   5  -1 -12 132.820 8.43980   5
   5   1 -12 154.787 9.04006   5
  -5   1  12 149.117 7.69309   4
   5   1 -12 150.099 8.97278  11
   3  -1 -12 14.0356 3.11477   5
  -3  -1  12 10.3785 2.32261   4
   3  -1 -12 9.68887 3.21862  11
  -3  -1  12 5.95239 2.73633  13
  -3   1  12 7.72378 2.60146   4
  -3   1  12 10.6891 2.42805  13
   3   1 -12 8.67455 2.61257   5
   3   1 -12 12.6069 3.67452  11
  -1  -1  12 102.321 6.40070   4
   1  -1 -12 112.187 8.26375  11
   1   1 -12 113.702 8.51774  11
   1   1 -12 120.827 7.64645   9
  -1   1  12 105.977 6.46525   4
  -1   1  12 116.945 6.99847  13
  10  -2 -12 281.088 13.4006   5
 -10  -2  12 281.612 11.9607   7
  10  -2 -12 266.971 12.4545  12
  10   2 -12 275.814 12.5249  12
 -10   2  12 285.898 16.2492  14
  10   2 -12 304.299 13.9169   5
   8  -2 -12 461.920 17.4826  12
   8  -2 -12 506.985 19.3948   5
  -8  -2  12 510.889 17.4254   4
  -8  -2  12 500.648 17.5095   7
  -8   2  12 536.080 22.0295  14
   8   2 -12 493.394 19.4578   5
  -8   2  12 485.399 17.0805   4
  -6  -2  12 558.138 19.6517   7
   6  -2 -12 609.302 22.0229  11
   6  -2 -12 609.500 21.7251   5
  -6  -2  12 601.246 19.6652   4
   6   2 -12 617.937 21.7000  11
  -6   2  12 594.966 19.6300   4
   6   2 -12 598.451 21.7372   5
   4  -2 -12 390.266 16.5379  11
  -4  -2  12 370.452 14.1530   4
   4  -2 -12 374.459 15.3389   5
  -4  -2  12 379.110 14.0945   7
   4   2 -12 394.043 16.4677  11
  -4   2  12 384.827 13.9491   4
  -4   2  12 384.550 14.3508  13
   4   2 -12 378.550 15.2051   5
   2  -2 -12 369.011 16.7926  11
  -2  -2  12 371.395 14.2553   4
  -2  -2  12 375.506 14.5215   7
  -2   2  12 359.883 14.1058  13
   2   2 -12 387.668 16.8358  11
  -2   2  12 377.662 13.6843   4
   2   2 -12 385.520 14.5734   9
   0  -2 -12 88.9756 7.84499  11
   0  -2  12 94.6389 6.76048   7
   0  -2  12 109.531 7.10690   4
   0   2  12 88.2743 6.19885  13
   0   2 -12 92.2784 6.86315   9
   0   2  12 91.0048 6.27539   4
   9  -3 -12 96.3235 7.06880   5
   9  -3 -12 91.3316 6.78162  12
   9   3 -12 94.7055 6.81523  12
   9   3 -12 102.092 7.65864   5
  -9   3  12 103.055 9.42179  14
  -7  -3  12 29.3628 3.83555   4
   7  -3 -12 36.3331 4.56056  11
   7  -3 -12 28.0913 4.60170   5
  -7  -3  12 22.9094 3.82175   7
   7   3 -12 25.9798 4.14647   5
  -7   3  12 27.1699 3.67242   4
  -7   3  12 34.6154 5.61925  14
   5  -3 -12 7.41735 2.41413   5
  -5  -3  12 5.20010 2.70332   7
   5  -3 -12 6.42398 2.90413  11
  -5  -3  12 11.0933 2.82409   4
  -5   3  12 8.67020 2.47748   4
   5   3 -12 6.39271 2.78069   5
   5   3 -12 6.13895 2.69321  11
  -3  -3  12 73.2784 5.26520   4
  -3  -3  12 68.4480 5.75117   7
   3  -3 -12 77.8942 7.11119  11
   3   3 -12 78.2002 6.83547  11
  -3   3  12 65.6833 5.19155   4
  -3   3  12 73.9226 5.79147  13
  -1  -3  12 -0.2380 1.53923   4
  -1  -3  12 2.86607 2.42926   7
   1  -3 -12 2.16483 2.76260  11
  -1   3  12 0.89092 1.56794  13
   1   3 -12 1.93595 1.57474   9
  -1   3  12 -0.0717 1.88744   4
   8  -4 -12 27.2073 3.80843  12
   8  -4 -12 21.8573 3.76257   5
  -8  -4  12 25.0030 4.21217   7
   8  -4 -12 42.7551 4.40542  11
  -8  -4  12 26.6340 3.37706   4
   8   4 -12 37.5311 5.36082   5
   6  -4 -12 491.097 19.0186   5
   6  -4 -12 540.072 19.9349  11
  -6  -4  12 525.118 18.5195   7
  -6  -4  12 487.579 17.4080   4
  -6   4  12 498.744 16.8985   4
   6   4 -12 507.558 19.3899   5
   4  -4 -12 27.8643 4.79426  11
  -4  -4  12 44.8926 4.27682   4
  -4  -4  12 39.0971 4.88436   7
   4  -4 -12 33.3912 4.50554   5
  -4   4  12 40.6104 4.45071  13
   4   4 -12 28.3931 4.25770   5
  -4   4  12 27.6087 3.53286   4
  -2  -4  12 702.013 22.8778   4
   2  -4 -12 686.691 25.6022  11
  -2  -4  12 698.317 23.9297   7
  -2   4  12 678.420 21.8177   4
  -2   4  12 705.792 23.1415  13
  -7  -5  12 7.55955 2.60745   4
   7  -5 -12 3.77739 2.34944   5
  -7  -5  12 3.58964 2.95879   7
   7  -5 -12 6.10202 2.35426  12
   7  -5 -12 3.15605 2.46217  11
   7   5 -12 3.48822 2.77413   5
  -5  -5  12 -0.5356 2.57939   7
   5  -5 -12 0.86063 2.55824  11
   5  -5 -12 1.24579 2.29928   5
  -5  -5  12 5.75857 2.50513   4
   5   5 -12 1.11529 2.38145   5
  -3  -5  12 58.3544 6.11741   7
   3  -5 -12 63.9140 6.77357  11
  -3  -5  12 55.6478 5.22515   4
   3   5 -12 58.0876 5.49607   5
  -3   5  12 63.8204 5.72222  13
  -1  -5  12 2.36168 2.69785   7
  -1   5  12 2.41585 2.53032  13
  -6  -6  12 106.709 7.77223   7
   6  -6 -12 103.049 7.08349   5
  -6  -6  12 109.034 6.75468   4
   6  -6 -12 116.930 8.19759  11
   6   6 -12 108.747 7.90152   5
  -4  -6  12 736.396 23.2857   4
   4  -6 -12 713.044 25.9068  11
  -4  -6  12 724.763 24.8779   7
   4  -6 -12 671.318 24.0697   5
   4   6 -12 752.214 25.1683   5
   8   0 -13 4.42574 2.84383   5
  -8   0  13 3.64626 2.44459   4
  -6   0  13 0.58148 1.52714   4
   6   0 -13 -0.2957 2.08215  11
   6   0 -13 0.91733 1.88323   5
   4   0 -13 -0.3874 1.88767   5
  -4   0  13 0.61338 1.64109   4
   4   0 -13 1.10480 2.45227  11
  -2   0  13 0.93690 1.90492  13
   2   0 -13 -1.3081 2.62895  11
   2   0 -13 -1.3085 1.09387   9
  -2   0  13 0.51617 2.30813   4
  -9  -1  13 48.7493 4.72747   4
   9  -1 -13 63.9446 6.98812   5
  -9   1  13 51.3530 7.54597  14
   9   1 -13 56.7066 6.36368   5
   7  -1 -13 643.529 23.2910  11
   7  -1 -13 634.257 23.5098   5
  -7  -1  13 668.175 21.5692   4
  -7   1  13 648.724 21.2472   4
   7   1 -13 649.512 23.2658  11
   7   1 -13 662.183 23.9539   5
   5  -1 -13 66.2539 6.73307  11
  -5  -1  13 64.3591 5.08646   4
   5  -1 -13 70.1522 6.32261   5
   5   1 -13 70.5322 6.40228   5
   5   1 -13 66.5134 6.59771  11
  -5   1  13 68.9807 5.12022   4
   3  -1 -13 605.195 23.6277  11
  -3  -1  13 604.517 20.5821   4
  -3   1  13 614.072 20.4926   4
  -3   1  13 600.389 20.5545  13
   3   1 -13 627.991 23.5929  11
   8  -2 -13 234.182 11.9908   5
  -8  -2  13 218.267 9.82139   4
  -8   2  13 207.538 13.1500  14
  -8   2  13 223.252 9.70214   4
   8   2 -13 217.736 11.8766   5
   6  -2 -13 189.858 10.4969   5
  -6  -2  13 184.806 9.24902   4
   6  -2 -13 202.419 11.1788  11
  -6   2  13 203.992 9.34266   4
   6   2 -13 185.250 10.6098   5
   6   2 -13 196.088 10.8058  11
  -4  -2  13 241.336 10.6274   4
   4  -2 -13 232.025 12.4252  11
   4  -2 -13 206.666 10.6955   5
  -4   2  13 229.216 10.2098   4
  -4   2  13 239.465 10.6117  13
   4   2 -13 234.217 11.4805   5
   4   2 -13 239.505 12.4181  11
   2  -2 -13 159.368 10.1426  11
  -2  -2  13 152.590 8.60389   4
   2   2 -13 159.043 10.4566  11
  -2   2  13 162.849 8.69243  13
  -2   2  13 175.823 8.58964   4
  -7  -3  13 160.512 8.95396   7
   7  -3 -13 175.211 9.77823  11
  -7  -3  13 168.616 8.74618   4
   7  -3 -13 173.614 10.0232   5
   7   3 -13 189.712 10.6002   5
  -7   3  13 176.090 8.47666   4
   5  -3 -13 362.782 15.4678   5
   5  -3 -13 386.332 16.5665  11
  -5  -3  13 378.607 14.2142   4
   5   3 -13 365.635 15.6200   5
  -5   3  13 371.372 13.6309   4
   3  -3 -13 117.001 8.65096  11
  -3  -3  13 117.946 7.48136   4
  -3   3  13 114.055 7.39662  13
  -3   3  13 119.736 6.99282   4
   6  -4 -13 3.02852 2.50595   5
  -6  -4  13 4.42837 2.01135   4
  -6  -4  13 1.57570 2.02133   7
   6  -4 -13 3.02298 2.01201  11
  -6   4  13 2.23071 2.10346   4
   6   4 -13 5.09272 2.88222   5
  -4  -4  13 19.6096 3.97925   7
  -4  -4  13 26.9887 3.55574   4
   4  -4 -13 23.5539 4.51809  11
   4   4 -13 27.2876 4.13593   5
   0   0   0    0.00    0.00   0

 _exptl_absorpt_process_details
)
 SADABS 2016/2: Krause, L., Herbst-Irmer, R., Sheldrick G.M. & Stalke D.,
 J. Appl. Cryst. 48 (2015) 3-10
)
 _exptl_absorpt_correction_type   multi-scan
 _exptl_absorpt_correction_T_max  0.7479
 _exptl_absorpt_correction_T_min  0.5607
 _exptl_special_details
)
 The following wavelength and cell were deduced by SADABS from the
 direction cosines etc. They are given here for emergency use only:
 CELL 0.71068    7.075    7.568    7.615   90.000  116.223   90.022
)

;
_shelx_hkl_checksum              41585
loop_
_space_group_symop_operation_xyz
'x, y, z'
'-x, y, -z+1/2'
'x+1/2, y+1/2, z'
'-x+1/2, y+1/2, -z+1/2'
'-x, -y, -z'
'x, -y, z-1/2'
'-x+1/2, -y+1/2, -z'
'x+1/2, -y+1/2, z-1/2'
loop_
_atom_site_label
_atom_site_type_symbol
_atom_site_fract_x
_atom_site_fract_y
_atom_site_fract_z
_atom_site_U_iso_or_equiv
_atom_site_adp_type
_atom_site_occupancy
_atom_site_site_symmetry_order
_atom_site_calc_flag
_atom_site_refinement_flags_posn
_atom_site_refinement_flags_adp
_atom_site_refinement_flags_occupancy
_atom_site_disorder_assembly
_atom_site_disorder_group
Fe Fe 0.000000 0.500000 0.000000 0.00700(4) Uani 1 2 d S . P . .
S S 0.000000 0.15406(2) 0.250000 0.00601(4) Uani 1 2 d S T P . .
O1 O 0.16893(7) 0.04355(7) 0.39918(7) 0.01200(8) Uani 1 1 d . . . . .
O2 O 0.09766(7) 0.26893(6) 0.15794(7) 0.01060(8) Uani 1 1 d . . . . .
O3 O 0.000000 0.64450(9) 0.250000 0.00989(10) Uani 1 2 d S T P . .
H H 0.105(3) 0.718(2) 0.295(2) 0.034(4) Uiso 1 1 d . . . . .
loop_
_atom_site_aniso_label
_atom_site_aniso_U_11
_atom_site_aniso_U_22
_atom_site_aniso_U_33
_atom_site_aniso_U_23
_atom_site_aniso_U_13
_atom_site_aniso_U_12
Fe 0.00634(5) 0.00685(6) 0.00754(6) 0.00074(3) 0.00310(4) -0.00004(3)
S 0.00456(7) 0.00540(7) 0.00768(7) 0.000 0.00260(5) 0.000
O1 0.00723(15) 0.01321(18) 0.01418(18) 0.00646(15) 0.00400(13) 0.00356(14)
O2 0.01009(16) 0.00930(16) 0.01444(18) 0.00417(13) 0.00749(14) 0.00102(12)
O3 0.0099(2) 0.0102(2) 0.0099(2) 0.000 0.00501(18) 0.000
loop_
_atom_type_symbol
_atom_type_description
_atom_type_scat_dispersion_real
_atom_type_scat_dispersion_imag
_atom_type_scat_source
O O 0.0106 0.0060 'International Tables Vol C Tables 4.2.6.8 and 6.1.1.4'
H H 0.0000 0.0000 'International Tables Vol C Tables 4.2.6.8 and 6.1.1.4'
S S 0.1246 0.1234 'International Tables Vol C Tables 4.2.6.8 and 6.1.1.4'
Mg Mg 0.0486 0.0363 'International Tables Vol C Tables 4.2.6.8 and 6.1.1.4'
Fe Fe 0.3463 0.8444 'International Tables Vol C Tables 4.2.6.8 and 6.1.1.4'
loop_
_geom_angle_atom_site_label_1
_geom_angle_atom_site_label_2
_geom_angle_atom_site_label_3
_geom_angle
_geom_angle_site_symmetry_1
_geom_angle_site_symmetry_3
_geom_angle_publ_flag
O2 Fe O2 180.0 . 5_565 ?
O2 Fe O1 94.93(2) . 8_455 ?
O2 Fe O1 85.07(2) 5_565 8_455 ?
O2 Fe O1 85.07(2) . 4 ?
O2 Fe O1 94.93(2) 5_565 4 ?
O1 Fe O1 180.0 8_455 4 ?
O2 Fe O3 92.09(2) . . ?
O2 Fe O3 87.91(2) 5_565 . ?
O1 Fe O3 86.472(16) 8_455 . ?
O1 Fe O3 93.528(17) 4 . ?
O2 Fe O3 87.91(2) . 5_565 ?
O2 Fe O3 92.09(2) 5_565 5_565 ?
O1 Fe O3 93.528(16) 8_455 5_565 ?
O1 Fe O3 86.472(16) 4 5_565 ?
O3 Fe O3 180.0 . 5_565 ?
O2 Fe O2 82.987(13) . 8_455 ?
O2 Fe O2 97.013(14) 5_565 8_455 ?
O1 Fe O2 42.816(16) 8_455 8_455 ?
O1 Fe O2 137.184(16) 4 8_455 ?
O3 Fe O2 127.799(12) . 8_455 ?
O3 Fe O2 52.201(12) 5_565 8_455 ?
O2 Fe O2 97.013(13) . 4 ?
O2 Fe O2 82.987(13) 5_565 4 ?
O1 Fe O2 137.183(16) 8_455 4 ?
O1 Fe O2 42.817(16) 4 4 ?
O3 Fe O2 52.200(12) . 4 ?
O3 Fe O2 127.800(12) 5_565 4 ?
O2 Fe O2 180.0 8_455 4 ?
O2 Fe O2 137.974(17) . 6_565 ?
O2 Fe O2 42.025(17) 5_565 6_565 ?
O1 Fe O2 112.38(2) 8_455 6_565 ?
O1 Fe O2 67.62(2) 4 6_565 ?
O3 Fe O2 119.797(19) . 6_565 ?
O3 Fe O2 60.204(19) 5_565 6_565 ?
O2 Fe O2 95.601(15) 8_455 6_565 ?
O2 Fe O2 84.400(15) 4 6_565 ?
O2 Fe O2 42.026(17) . 2 ?
O2 Fe O2 137.975(17) 5_565 2 ?
O1 Fe O2 67.62(2) 8_455 2 ?
O1 Fe O2 112.38(2) 4 2 ?
O3 Fe O2 60.203(19) . 2 ?
O3 Fe O2 119.796(19) 5_565 2 ?
O2 Fe O2 84.399(15) 8_455 2 ?
O2 Fe O2 95.600(16) 4 2 ?
O2 Fe O2 180.0 6_565 2 ?
O1 S O1 110.43(5) 2 . ?
O1 S O2 108.85(3) 2 2 ?
O1 S O2 110.06(3) . 2 ?
O1 S O2 110.06(3) 2 . ?
O1 S O2 108.85(3) . . ?
O2 S O2 108.56(4) 2 . ?
S O1 Fe 136.37(3) . 4_545 ?
S O1 O2 35.896(17) . . ?
Fe O1 O2 100.53(2) 4_545 . ?
S O1 O1 34.78(2) . 2 ?
Fe O1 O1 140.61(4) 4_545 2 ?
O2 O1 O1 60.43(2) . 2 ?
S O1 O2 35.280(18) . 2 ?
Fe O1 O2 143.81(3) 4_545 2 ?
O2 O1 O2 60.14(3) . 2 ?
O1 O1 O2 59.69(2) 2 2 ?
S O1 O2 127.86(3) . 4_545 ?
Fe O1 O2 46.657(14) 4_545 4_545 ?
O2 O1 O2 108.71(2) . 4_545 ?
O1 O1 O2 103.60(2) 2 4_545 ?
O2 O1 O2 162.58(3) 2 4_545 ?
S O1 O3 170.33(3) . 7_556 ?
Fe O1 O3 48.430(12) 4_545 7_556 ?
O2 O1 O3 146.59(2) . 7_556 ?
O1 O1 O3 150.225(17) 2 7_556 ?
O2 O1 O3 135.12(3) 2 7_556 ?
O2 O1 O3 61.802(17) 4_545 7_556 ?
S O1 O2 115.58(3) . 8_556 ?
Fe O1 O2 41.860(15) 4_545 8_556 ?
O2 O1 O2 87.52(2) . 8_556 ?
O1 O1 O2 147.83(2) 2 8_556 ?
O2 O1 O2 103.52(2) 2 8_556 ?
O2 O1 O2 88.52(2) 4_545 8_556 ?
O3 O1 O2 61.413(19) 7_556 8_556 ?
S O1 O3 92.24(2) . 3_545 ?
Fe O1 O3 44.709(13) 4_545 3_545 ?
O2 O1 O3 57.244(18) . 3_545 ?
O1 O1 O3 102.43(3) 2 3_545 ?
O2 O1 O3 114.26(2) 2 3_545 ?
O2 O1 O3 61.855(19) 4_545 3_545 ?
O3 O1 O3 93.139(18) 7_556 3_545 ?
O2 O1 O3 57.039(16) 8_556 3_545 ?
S O1 O3 103.04(3) . 1_545 ?
Fe O1 O3 98.118(19) 4_545 1_545 ?
O2 O1 O3 118.45(2) . 1_545 ?
O1 O1 O3 68.262(10) 2 1_545 ?
O2 O1 O3 117.86(2) 2 1_545 ?
O2 O1 O3 53.284(16) 4_545 1_545 ?
O3 O1 O3 82.940(17) 7_556 1_545 ?
O2 O1 O3 137.960(19) 8_556 1_545 ?
O3 O1 O3 107.701(19) 3_545 1_545 ?
S O1 O2 125.99(3) . 6_556 ?
Fe O1 O2 97.317(19) 4_545 6_556 ?
O2 O1 O2 161.65(3) . 6_556 ?
O1 O1 O2 102.53(2) 2 6_556 ?
O2 O1 O2 106.54(2) 2 6_556 ?
O2 O1 O2 80.73(2) 4_545 6_556 ?
O3 O1 O2 51.698(15) 7_556 6_556 ?
O2 O1 O2 108.84(2) 8_556 6_556 ?
O3 O1 O2 138.83(2) 3_545 6_556 ?
O3 O1 O2 54.114(14) 1_545 6_556 ?
S O1 O2 112.83(3) . 7_556 ?
Fe O1 O2 76.630(19) 4_545 7_556 ?
O2 O1 O2 108.59(2) . 7_556 ?
O1 O1 O2 140.12(2) 2 7_556 ?
O2 O1 O2 81.28(2) 2 7_556 ?
O2 O1 O2 115.91(2) 4_545 7_556 ?
O3 O1 O2 58.207(19) 7_556 7_556 ?
O2 O1 O2 44.048(18) 8_556 7_556 ?
O3 O1 O2 100.766(19) 3_545 7_556 ?
O3 O1 O2 132.745(17) 1_545 7_556 ?
O2 O1 O2 79.650(15) 6_556 7_556 ?
S O2 Fe 133.02(3) . . ?
S O2 O1 35.258(17) . . ?
Fe O2 O1 162.62(3) . . ?
S O2 O2 35.72(2) . 2 ?
Fe O2 O2 103.248(18) . 2 ?
O1 O2 O2 60.30(2) . 2 ?
S O2 O1 34.656(18) . 2 ?
Fe O2 O1 118.62(3) . 2 ?
O1 O2 O1 59.88(3) . 2 ?
O2 O2 O1 59.556(19) 2 2 ?
S O2 O3 109.59(3) . 3_545 ?
Fe O2 O3 117.23(2) . 3_545 ?
O1 O2 O3 75.42(2) . 3_545 ?
O2 O2 O3 131.25(3) 2 3_545 ?
O1 O2 O3 115.19(3) 2 3_545 ?
S O2 O1 161.33(3) . 4 ?
Fe O2 O1 48.268(16) . 4 ?
O1 O2 O1 136.53(2) . 4 ?
O2 O2 O1 129.544(17) 2 4 ?
O1 O2 O1 162.58(3) 2 4 ?
O3 O2 O1 71.45(2) 3_545 4 ?
S O2 O3 135.65(3) . 5_565 ?
Fe O2 O3 48.437(16) . 5_565 ?
O1 O2 O3 147.39(3) . 5_565 ?
O2 O2 O3 136.27(3) 2 5_565 ?
O1 O2 O3 101.26(2) 2 5_565 ?
O3 O2 O3 92.154(18) 3_545 5_565 ?
O1 O2 O3 61.682(18) 4 5_565 ?
S O2 O1 92.56(2) . 8_455 ?
Fe O2 O1 43.215(13) . 8_455 ?
O1 O2 O1 127.77(3) . 8_455 ?
O2 O2 O1 73.91(2) 2 8_455 ?
O1 O2 O1 76.47(2) 2 8_455 ?
O3 O2 O1 154.80(2) 3_545 8_455 ?
O1 O2 O1 91.48(2) 4 8_455 ?
O3 O2 O1 63.034(17) 5_565 8_455 ?
S O2 O3 102.68(2) . . ?
Fe O2 O3 46.174(12) . . ?
O1 O2 O3 117.33(2) . . ?
O2 O2 O3 66.958(10) 2 . ?
O1 O2 O3 116.73(2) 2 . ?
O3 O2 O3 124.98(2) 3_545 . ?
O1 O2 O3 64.573(17) 4 . ?
O3 O2 O3 94.611(16) 5_565 . ?
O1 O2 O3 57.748(13) 8_455 . ?
S O2 O1 96.64(3) . 6 ?
Fe O2 O1 110.57(2) . 6 ?
O1 O2 O1 86.025(18) . 6 ?
O2 O2 O1 131.183(15) 2 6 ?
O1 O2 O1 73.47(2) 2 6 ?
O3 O2 O1 58.125(17) 3_545 6 ?
O1 O2 O1 99.27(2) 4 6 ?
O3 O2 O1 62.183(19) 5_565 6 ?
O1 O2 O1 108.84(2) 8_455 6 ?
O3 O2 O1 156.644(19) . 6 ?
S O2 O1 82.38(2) . 7_556 ?
Fe O2 O1 96.53(2) . 7_556 ?
O1 O2 O1 71.41(2) . 7_556 ?
O2 O2 O1 62.04(2) 2 7_556 ?
O1 O2 O1 116.53(2) 2 7_556 ?
O3 O2 O1 86.344(19) 3_545 7_556 ?
O1 O2 O1 79.078(17) 4 7_556 ?
O3 O2 O1 138.84(2) 5_565 7_556 ?
O1 O2 O1 109.04(2) 8_455 7_556 ?
O3 O2 O1 54.946(13) . 7_556 ?
O1 O2 O1 142.114(18) 6 7_556 ?
Fe O3 Fe 121.26(3) . 2 ?
Fe O3 O2 87.939(13) . 4 ?
Fe O3 O2 111.836(15) 2 4 ?
Fe O3 O2 111.836(15) . 3_455 ?
Fe O3 O2 87.938(13) 2 3_455 ?
O2 O3 O2 139.94(3) 4 3_455 ?
Fe O3 O1 45.098(13) . 8_455 ?
Fe O3 O1 103.69(2) 2 8_455 ?
O2 O3 O1 131.824(16) 4 8_455 ?
O2 O3 O1 70.178(18) 3_455 8_455 ?
Fe O3 O1 103.69(2) . 7_556 ?
Fe O3 O1 45.098(13) 2 7_556 ?
O2 O3 O1 70.178(18) 4 7_556 ?
O2 O3 O1 131.823(16) 3_455 7_556 ?
O1 O3 O1 122.84(3) 8_455 7_556 ?
Fe O3 O2 159.93(2) . 6_566 ?
Fe O3 O2 43.658(12) 2 6_566 ?
O2 O3 O2 87.846(18) 4 6_566 ?
O2 O3 O2 83.503(17) 3_455 6_566 ?
O1 O3 O2 139.656(17) 8_455 6_566 ?
O1 O3 O2 56.517(16) 7_556 6_566 ?
Fe O3 O2 43.658(12) . 5_565 ?
Fe O3 O2 159.93(2) 2 5_565 ?
O2 O3 O2 83.504(17) 4 5_565 ?
O2 O3 O2 87.847(18) 3_455 5_565 ?
O1 O3 O2 56.517(16) 8_455 5_565 ?
O1 O3 O2 139.656(17) 7_556 5_565 ?
O2 O3 O2 154.58(3) 6_566 5_565 ?
Fe O3 O2 81.01(2) . 2 ?
Fe O3 O2 41.733(14) 2 2 ?
O2 O3 O2 124.98(2) 4 2 ?
O2 O3 O2 93.277(14) 3_455 2 ?
O1 O3 O2 66.85(2) 8_455 2 ?
O1 O3 O2 60.839(19) 7_556 2 ?
O2 O3 O2 85.390(16) 6_566 2 ?
O2 O3 O2 119.03(2) 5_565 2 ?
Fe O3 O2 41.732(14) . . ?
Fe O3 O2 81.01(2) 2 . ?
O2 O3 O2 93.277(14) 4 . ?
O2 O3 O2 124.98(2) 3_455 . ?
O1 O3 O2 60.839(18) 8_455 . ?
O1 O3 O2 66.85(2) 7_556 . ?
O2 O3 O2 119.03(2) 6_566 . ?
O2 O3 O2 85.390(16) 5_565 . ?
O2 O3 O2 46.08(2) 2 . ?
Fe O3 O1 120.60(2) . 3_455 ?
Fe O3 O1 41.763(11) 2 3_455 ?
O2 O3 O1 147.479(15) 4 3_455 ?
O2 O3 O1 47.331(14) 3_455 3_455 ?
O1 O3 O1 79.845(16) 8_455 3_455 ?
O1 O3 O1 86.861(19) 7_556 3_455 ?
O2 O3 O1 59.927(16) 6_566 3_455 ?
O2 O3 O1 127.398(15) 5_565 3_455 ?
O2 O3 O1 53.573(14) 2 3_455 ?
O2 O3 O1 98.59(2) . 3_455 ?
Fe O3 O1 41.763(11) . 4 ?
Fe O3 O1 120.60(2) 2 4 ?
O2 O3 O1 47.332(14) 4 4 ?
O2 O3 O1 147.480(15) 3_455 4 ?
O1 O3 O1 86.861(19) 8_455 4 ?
O1 O3 O1 79.845(16) 7_556 4 ?
O2 O3 O1 127.398(15) 6_566 4 ?
O2 O3 O1 59.927(15) 5_565 4 ?
O2 O3 O1 98.59(2) 2 4 ?
O2 O3 O1 53.572(14) . 4 ?
O1 O3 O1 152.05(3) 3_455 4 ?
Fe O3 H 108.1(11) . . ?
Fe O3 H 108.8(11) 2 . ?
O2 O3 H 23.4(11) 4 . ?
O2 O3 H 118.4(11) 3_455 . ?
O1 O3 H 146.5(11) 8_455 . ?
O1 O3 H 77.5(11) 7_556 . ?
O2 O3 H 73.1(11) 6_566 . ?
O2 O3 H 90.4(11) 5_565 . ?
O2 O3 H 138.2(11) 2 . ?
O2 O3 H 116.1(11) . . ?
O1 O3 H 131.1(11) 3_455 . ?
O1 O3 H 69.7(11) 4 . ?
Fe O3 H 108.8(11) . 2 ?
Fe O3 H 108.1(11) 2 2 ?
O2 O3 H 118.4(11) 4 2 ?
O2 O3 H 23.4(11) 3_455 2 ?
O1 O3 H 77.5(11) 8_455 2 ?
O1 O3 H 146.5(11) 7_556 2 ?
O2 O3 H 90.4(11) 6_566 2 ?
O2 O3 H 73.1(11) 5_565 2 ?
O2 O3 H 116.1(11) 2 2 ?
O2 O3 H 138.2(11) . 2 ?
O1 O3 H 69.7(11) 3_455 2 ?
O1 O3 H 131.1(11) 4 2 ?
H O3 H 100(2) . 2 ?
loop_
_geom_bond_atom_site_label_1
_geom_bond_atom_site_label_2
_geom_bond_distance
_geom_bond_site_symmetry_2
_geom_bond_publ_flag
Fe O2 2.0557(5) . ?
Fe O2 2.0558(5) 5_565 ?
Fe O1 2.1095(6) 8_455 ?
Fe O1 2.1095(6) 4 ?
Fe O3 2.2281(4) . ?
Fe O3 2.2281(4) 5_565 ?
Fe O2 3.4741(6) 8_455 ?
Fe O2 3.4741(6) 4 ?
Fe O2 3.5127(6) 6_565 ?
Fe O2 3.5127(6) 2 ?
S O1 1.4649(5) 2 ?
S O1 1.4649(5) . ?
S O2 1.4879(5) 2 ?
S O2 1.4879(5) . ?
O1 O2 2.4017(7) . ?
O1 O1 2.4063(10) 2 ?
O1 O2 2.4197(7) 2 ?
O1 O2 2.8163(7) 4_545 ?
O1 O3 2.9725(7) 7_556 ?
O1 O2 3.0693(8) 8_556 ?
O1 O3 3.1611(6) 3_545 ?
O1 O3 3.2486(9) 1_545 ?
O1 O2 3.2930(7) 6_556 ?
O1 O2 3.3386(9) 7_556 ?
O2 O2 2.4159(9) 2 ?
O2 O3 2.7469(6) 3_545 ?
O2 O3 2.9758(6) 5_565 ?
O2 O3 3.0863(8) . ?
O3 H 0.857(17) . ?
O3 H 0.857(17) 2 ?
loop_
_geom_hbond_atom_site_label_D
_geom_hbond_atom_site_label_H
_geom_hbond_atom_site_label_A
_geom_hbond_distance_DH
_geom_hbond_distance_HA
_geom_hbond_distance_DA
_geom_hbond_angle_DHA
_geom_hbond_site_symmetry_A
_geom_hbond_publ_flag
O3 H O2 0.857(17) 1.989(16) 2.7469(6) 146.8(16) 4 yes
