#------------------------------------------------------------------------------
#$Date: 2021-11-04 03:46:42 +0200 (Thu, 04 Nov 2021) $
#$Revision: 270296 $
#$URL: file:///home/coder/svn-repositories/cod/cif/1/56/51/1565121.cif $
#------------------------------------------------------------------------------
#
# This file is available in the Crystallography Open Database (COD),
# http://www.crystallography.net/
#
# All data on this site have been placed in the public domain by the
# contributors.
#
data_1565121
loop_
_publ_author_name
'Hu, Chen'
'Wang, Meiyi'
'Han, Xiao'
'Fan, Jingyi'
'Wei, Donghui'
'Ding, Jie'
'Ma, Zhiwei'
'Xiao, Guanjun'
'Zou, Bo'
'Hou, Hongwei'
_publ_section_title
;
 Fascinating Supramolecular Assembly through Noncovalent Interactions
 Involving Anions in Organic Ionic Crystals
;
_journal_issue                   40
_journal_name_full               'The Journal of Physical Chemistry C'
_journal_page_first              22346
_journal_page_last               22353
_journal_paper_doi               10.1021/acs.jpcc.1c07151
_journal_volume                  125
_journal_year                    2021
_chemical_formula_moiety         'Cl, C16 H13 N6 S'
_chemical_formula_sum            'C16 H13 Cl N6 S'
_chemical_formula_weight         356.83
_space_group_crystal_system      triclinic
_space_group_IT_number           2
_space_group_name_Hall           '-P 1'
_space_group_name_H-M_alt        'P -1'
_atom_sites_solution_hydrogens   geom
_atom_sites_solution_primary     dual
_audit_creation_date             2020-10-08
_audit_creation_method
;
Olex2 1.2-beta
(compiled 2018.05.29 svn.r3508 for OlexSys, GUI svn.r5506)
;
_cell_angle_alpha                81.667(9)
_cell_angle_beta                 80.676(8)
_cell_angle_gamma                65.115(7)
_cell_formula_units_Z            2
_cell_length_a                   8.1317(16)
_cell_length_b                   8.2472(19)
_cell_length_c                   13.369(3)
_cell_measurement_reflns_used    6317
_cell_measurement_temperature    273(2)
_cell_measurement_theta_max      27.42
_cell_measurement_theta_min      2.73
_cell_volume                     799.6(3)
_computing_cell_refinement       'SAINT v8.37A (Bruker, 2015)'
_computing_data_reduction        'SAINT v8.37A (Bruker, 2015)'
_computing_molecular_graphics    'Olex2 (Dolomanov et al., 2009)'
_computing_publication_material  'Olex2 (Dolomanov et al., 2009)'
_computing_structure_refinement  'ShelXL (Sheldrick, 2015)'
_computing_structure_solution    'ShelXT (Sheldrick, 2015)'
_diffrn_ambient_temperature      273.15
_diffrn_measured_fraction_theta_full 0.998
_diffrn_measured_fraction_theta_max 0.994
_diffrn_measurement_device_type  'Bruker APEX-II CCD'
_diffrn_measurement_method       '\f and \w scans'
_diffrn_radiation_type           MoK\a
_diffrn_radiation_wavelength     0.71073
_diffrn_reflns_av_R_equivalents  0.0294
_diffrn_reflns_av_unetI/netI     0.0297
_diffrn_reflns_Laue_measured_fraction_full 0.998
_diffrn_reflns_Laue_measured_fraction_max 0.994
_diffrn_reflns_limit_h_max       10
_diffrn_reflns_limit_h_min       -10
_diffrn_reflns_limit_k_max       10
_diffrn_reflns_limit_k_min       -10
_diffrn_reflns_limit_l_max       17
_diffrn_reflns_limit_l_min       -17
_diffrn_reflns_number            16506
_diffrn_reflns_point_group_measured_fraction_full 0.998
_diffrn_reflns_point_group_measured_fraction_max 0.994
_diffrn_reflns_theta_full        25.242
_diffrn_reflns_theta_max         27.587
_diffrn_reflns_theta_min         2.779
_diffrn_standards_number         0
_exptl_absorpt_coefficient_mu    0.380
_exptl_absorpt_correction_T_max  0.7456
_exptl_absorpt_correction_T_min  0.6992
_exptl_absorpt_correction_type   none
_exptl_absorpt_process_details
;
SADABS-2016/2 (Bruker,2016/2) was used for absorption correction.
wR2(int) was 0.1426 before and 0.0415 after correction.
The Ratio of minimum to maximum transmission is 0.9378.
The \l/2 correction factor is Not present.
;
_exptl_crystal_colour            orange
_exptl_crystal_colour_primary    orange
_exptl_crystal_density_diffrn    1.482
_exptl_crystal_description       plate
_exptl_crystal_F_000             368
_exptl_crystal_size_max          0.2
_exptl_crystal_size_mid          0.18
_exptl_crystal_size_min          0.15
_refine_diff_density_max         0.520
_refine_diff_density_min         -0.425
_refine_diff_density_rms         0.045
_refine_ls_extinction_method     none
_refine_ls_goodness_of_fit_ref   1.080
_refine_ls_hydrogen_treatment    constr
_refine_ls_matrix_type           full
_refine_ls_number_parameters     217
_refine_ls_number_reflns         3688
_refine_ls_number_restraints     0
_refine_ls_restrained_S_all      1.080
_refine_ls_R_factor_all          0.0496
_refine_ls_R_factor_gt           0.0399
_refine_ls_shift/su_max          0.001
_refine_ls_shift/su_mean         0.000
_refine_ls_structure_factor_coef Fsqd
_refine_ls_weighting_details
'w=1/[\s^2^(Fo^2^)+(0.0469P)^2^+0.2351P] where P=(Fo^2^+2Fc^2^)/3'
_refine_ls_weighting_scheme      calc
_refine_ls_wR_factor_gt          0.1054
_refine_ls_wR_factor_ref         0.1097
_reflns_Friedel_coverage         0.000
_reflns_number_gt                3011
_reflns_number_total             3688
_reflns_threshold_expression     'I > 2\s(I)'
_cod_data_source_file            jp1c07151_si_004.cif
_cod_data_source_block           a
_cod_database_code               1565121
_shelx_shelxl_version_number     2016/6
_shelx_space_group_comment
;
The symmetry employed for this shelxl refinement is uniquely defined
by the following loop, which should always be used as a source of
symmetry information in preference to the above space-group names.
They are only intended as comments.
;
_shelx_estimated_absorpt_t_max   0.945
_shelx_estimated_absorpt_t_min   0.928
_olex2_refinement_description
;
1. Fixed Uiso
 At 1.2 times of:
  All C(H) groups, All N(H) groups
2.a Aromatic/amide H refined with riding coordinates:
 N4(H4), N5(H5), N3(H3), C11(H11), C14(H14), C10(H10), C13(H13), C16(H16),
 C15(H15), C4(H4A), C2(H2), C1(H1), C3(H3A)
;
_shelx_res_file
;
TITL a_a.res in P-1
    a.res
    created by SHELXL-2016/6 at 10:17:54 on 08-Oct-2020
REM Old TITL a in P-1
REM SHELXT solution in P-1
REM R1 0.185, Rweak 0.017, Alpha 0.049, Orientation as input
REM Formula found by SHELXT: C17 Cl N5 S
CELL 0.71073 8.1317 8.2472 13.3691 81.667 80.676 65.115
ZERR 2 0.0016 0.0019 0.0031 0.009 0.008 0.007
LATT 1
SFAC C H Cl N S
UNIT 32 26 2 12 2

L.S. 10
PLAN  20
SIZE 0.2 0.18 0.15
TEMP 0
BOND $H
LIST 6
fmap 2
acta
OMIT -1 0 1
OMIT 0 1 0
OMIT 3 6 9
REM <olex2.extras>
REM <HklSrc "%.\\a.hkl">
REM </olex2.extras>

WGHT    0.046900    0.235100
FVAR       0.71314
CL1   3    0.709470    0.036291    0.909007    11.00000    0.05243    0.04125 =
         0.08580    0.00494   -0.02592   -0.01106
S1    5    0.011235    0.737620    0.625182    11.00000    0.04433    0.10567 =
         0.06424    0.00384   -0.01529   -0.03263
N6    4    0.776591    0.795513    0.416146    11.00000    0.04777    0.06600 =
         0.04271   -0.00312   -0.00778   -0.02075
N4    4    0.482044    0.800920    0.447287    11.00000    0.04550    0.07398 =
         0.04489    0.00538   -0.01473   -0.02318
AFIX  43
H4    2    0.377932    0.842904    0.424134    11.00000   -1.20000
AFIX   0
N5    4    0.334796    0.352037    0.993794    11.00000    0.06542    0.03385 =
         0.04879    0.00312   -0.01787   -0.01452
AFIX  43
H5    2    0.411366    0.242587    0.988180    11.00000   -1.20000
AFIX   0
N3    4    0.453272    0.417110    0.833131    11.00000    0.05643    0.03968 =
         0.05135    0.00398   -0.00962   -0.00701
AFIX  43
H3    2    0.533317    0.308187    0.838037    11.00000   -1.20000
AFIX   0
N2    4    0.162025    0.781896    0.545910    11.00000    0.04329    0.07366 =
         0.05109   -0.00125   -0.01523   -0.01983
N1    4    0.132448    0.619452    0.715094    11.00000    0.05124    0.07394 =
         0.05624    0.00233   -0.01083   -0.02999
C6    1    0.488018    0.706756    0.541758    11.00000    0.04361    0.04993 =
         0.04082   -0.00669   -0.00936   -0.01715
C7    1    0.318479    0.703529    0.588500    11.00000    0.04139    0.04668 =
         0.04265   -0.00548   -0.01214   -0.01346
C11   1    0.636629    0.612214    0.594429    11.00000    0.03990    0.06274 =
         0.04714   -0.00389   -0.00880   -0.01986
AFIX  43
H11   2    0.750628    0.607289    0.565866    11.00000   -1.20000
AFIX   0
C5    1    0.615900    0.839081    0.383524    11.00000    0.05009    0.04977 =
         0.04038   -0.00614   -0.00763   -0.01767
C12   1    0.333607    0.475904    0.915377    11.00000    0.04724    0.03922 =
         0.04350    0.00265   -0.01592   -0.01728
C8    1    0.302288    0.610077    0.685867    11.00000    0.04373    0.04706 =
         0.04696   -0.00510   -0.00730   -0.01743
C14   1    0.096708    0.695152    1.015131    11.00000    0.05593    0.04125 =
         0.05203   -0.00559   -0.01623   -0.01383
AFIX  43
H14   2    0.016026    0.813738    1.022854    11.00000   -1.20000
AFIX   0
C9    1    0.458690    0.519536    0.738927    11.00000    0.04908    0.04074 =
         0.04338   -0.00194   -0.01017   -0.01235
C10   1    0.619232    0.522756    0.690824    11.00000    0.04161    0.05364 =
         0.04976   -0.00252   -0.01504   -0.00998
AFIX  43
H10   2    0.723431    0.461980    0.723933    11.00000   -1.20000
AFIX   0
C13   1    0.210349    0.652617    0.927484    11.00000    0.05870    0.03573 =
         0.04815    0.00455   -0.01545   -0.01817
AFIX  43
H13   2    0.205854    0.741795    0.875362    11.00000   -1.20000
AFIX   0
C16   1    0.219964    0.393436    1.081089    11.00000    0.07827    0.04929 =
         0.04288    0.00546   -0.01532   -0.03038
AFIX  43
H16   2    0.224507    0.303573    1.132776    11.00000   -1.20000
AFIX   0
C15   1    0.099649    0.563506    1.093365    11.00000    0.06300    0.05457 =
         0.04619   -0.00471   -0.01007   -0.02644
AFIX  43
H15   2    0.020286    0.592256    1.152859    11.00000   -1.20000
AFIX   0
C4    1    0.573950    0.922340    0.286573    11.00000    0.06031    0.05805 =
         0.04903    0.00121   -0.01625   -0.02247
AFIX  43
H4A   2    0.459789    0.951900    0.266463    11.00000   -1.20000
AFIX   0
C2    1    0.872194    0.917409    0.254505    11.00000    0.06532    0.05915 =
         0.04928   -0.00680    0.00347   -0.02753
AFIX  43
H2    2    0.962539    0.943033    0.212267    11.00000   -1.20000
AFIX   0
C1    1    0.900263    0.837123    0.350781    11.00000    0.04892    0.06688 =
         0.05174   -0.00755   -0.00411   -0.02106
AFIX  43
H1    2    1.012710    0.809293    0.372659    11.00000   -1.20000
AFIX   0
C3    1    0.704948    0.959188    0.222102    11.00000    0.07851    0.05971 =
         0.04275    0.00468   -0.01165   -0.02984
AFIX  43
H3A   2    0.681587    1.012164    0.156693    11.00000   -1.20000
AFIX   0
HKLF 4




REM  a_a.res in P-1
REM R1 =  0.0399 for    3011 Fo > 4sig(Fo)  and  0.0496 for all    3688 data
REM    217 parameters refined using      0 restraints

END

WGHT      0.0469      0.2353

REM Highest difference peak  0.520,  deepest hole -0.425,  1-sigma level  0.045
Q1    1   0.7616  0.0417  0.8410  11.00000  0.05    0.52
Q2    1   0.3204  0.6595  0.6408  11.00000  0.05    0.21
Q3    1   0.2953  0.5708  0.9231  11.00000  0.05    0.17
Q4    1   0.3617  0.5972  0.7316  11.00000  0.05    0.16
Q5    1   0.1133  0.6837  0.5697  11.00000  0.05    0.16
Q6    1   0.4452  0.4687  0.7772  11.00000  0.05    0.14
Q7    1   0.3845  0.5385  0.7075  11.00000  0.05    0.14
Q8    1   0.8143  0.8611  0.3980  11.00000  0.05    0.14
Q9    1   0.7995  0.7834  0.4753  11.00000  0.05    0.14
Q10   1   0.2102  0.6705  0.9684  11.00000  0.05    0.14
Q11   1   0.5418  0.4707  0.6976  11.00000  0.05    0.13
Q12   1   0.7976  0.6946  0.4381  11.00000  0.05    0.13
Q13   1   0.4143  0.9786  0.4837  11.00000  0.05    0.13
Q14   1   0.6959  0.9161  0.4645  11.00000  0.05    0.13
Q15   1   0.6613  0.8793  0.2471  11.00000  0.05    0.12
Q16   1   0.6526  0.1645  0.9278  11.00000  0.05    0.12
Q17   1   0.7262  0.9898  0.4442  11.00000  0.05    0.12
Q18   1   0.6787  0.8562  0.4129  11.00000  0.05    0.12
Q19   1   0.1378  0.6276  1.0611  11.00000  0.05    0.12
Q20   1   0.2943  0.9322  0.6150  11.00000  0.05    0.12
;
_shelx_res_checksum              87957
_shelx_hkl_file
;
  -1   0   0  309.37    7.10
  -2   0   0   36.80    1.10
  -3   0   0  176.98    4.10
  -3   0   0  175.08    4.10
  -3   0   0  175.88    4.40
  -4   0   0   41.80    1.20
  -4   0   0   39.20    1.20
  -4   0   0   39.50    1.40
  -5   0   0   67.19    2.00
  -5   0   0   70.19    2.20
  -5   0   0   67.79    1.90
  -6   0   0   77.69    2.30
  -6   0   0   81.89    2.50
  -6   0   0   78.39    2.40
  -7   0   0   26.50    2.10
  -7   0   0   28.30    1.60
  -7   0   0   26.70    1.20
  -7   0   0   26.70    1.20
  -8   0   0    7.70    1.00
  -8   0   0    7.00    1.50
  -8   0   0    9.60    0.90
  -9   0   0    5.70    0.80
  -9   0   0    4.60    1.50
  -9   0   0    6.20    1.10
  -9   1   0   15.00    1.60
  -9   1   0   10.70    1.20
  -9   1   0    6.10    1.50
  -8   1   0   12.80    1.20
  -8   1   0   13.40    2.10
  -8   1   0   12.60    1.30
  -7   1   0    0.10    0.60
  -7   1   0    0.30    0.50
  -7   1   0   -0.20    0.80
  -6   1   0    2.60    0.50
  -6   1   0    2.90    0.50
  -6   1   0    2.40    0.90
  -5   1   0   43.00    1.60
  -5   1   0   41.80    1.40
  -5   1   0   38.90    2.20
  -5   1   0   41.90    1.50
  -4   1   0    3.70    0.50
  -4   1   0    4.40    0.40
  -4   1   0    3.60    0.70
  -4   1   0    3.90    0.50
  -3   1   0   11.00    0.90
  -3   1   0   12.10    0.60
  -2   1   0  890.31   19.70
  -2   1   0  839.12   20.30
  -2   1   0  864.31   19.70
   1  -1   0   18.30    0.60
   1  -1   0   17.30    0.60
  -1   1   0   17.60    0.80
  -1   1   0   18.50    0.60
  -1   1   0   19.00    0.60
  -1   1   0   17.50    0.70
   0  -1   0    0.00    0.10
   0  -1   0    0.00    0.10
  -1  -1   0  156.08    3.50
  -1  -1   0  149.69    3.50
  -1  -1   0  148.79    3.70
  -1  -1   0  139.89    3.50
   1   1   0  149.79    3.50
   1   1   0  150.88    3.50
  -2  -1   0  103.29    2.70
  -2  -1   0  104.19    2.40
  -2  -1   0  102.69    2.50
   2   1   0  102.49    2.40
   2   1   0  102.89    2.80
  -3  -1   0   29.80    1.20
  -3  -1   0   31.10    0.90
  -3  -1   0   31.50    0.90
   3   1   0   33.20    1.20
  -4  -1   0  219.78    5.20
  -4  -1   0  215.18    5.60
  -4  -1   0  222.28    5.20
   4   1   0  225.68    5.70
  -5  -1   0   11.50    0.80
  -5  -1   0   10.50    0.60
  -5  -1   0   11.60    0.60
  -6  -1   0   96.69    3.20
  -6  -1   0   96.39    2.70
  -6  -1   0   97.09    2.60
  -7  -1   0  212.98    5.50
  -7  -1   0  216.88    5.70
  -7  -1   0  213.18    5.30
  -8  -1   0    7.20    0.90
  -8  -1   0    7.90    0.70
  -8  -1   0    5.70    1.30
  -8  -1   0    8.10    0.90
  -9  -1   0    5.40    1.20
  -9  -1   0    4.90    0.70
  -9  -1   0    5.00    1.00
  -8   2   0   11.20    1.40
  -8   2   0   10.20    1.70
  -8   2   0   13.30    1.50
  -7   2   0   -0.10    0.70
  -7   2   0    0.20    0.70
  -6   2   0   47.80    1.90
  -6   2   0   49.60    2.10
  -5   2   0   78.59    2.40
  -5   2   0   78.49    3.40
  -5   2   0   80.69    2.50
  -5   2   0   82.99    2.50
  -5   2   0   86.49    2.70
  -4   2   0   40.40    1.40
  -4   2   0   34.20    1.50
  -4   2   0   38.70    1.40
  -4   2   0   40.30    2.10
  -3   2   0  238.88    5.90
  -3   2   0  236.78    6.00
  -3   2   0  242.68    5.90
   2  -2   0    3.80    0.30
  -2   2   0    5.30    0.80
  -2   2   0    4.40    0.40
  -2   2   0    5.00    0.50
  -2   2   0    4.40    0.50
   1  -2   0  288.47    7.90
   1  -2   0  322.07    7.40
   1  -2   0  321.37    7.60
  -1   2   0  311.27    7.90
  -1   2   0  322.27    7.50
  -1   2   0  326.37    7.60
  -1   2   0  312.17    7.50
   0  -2   0    4.10    0.40
   0  -2   0    2.40    0.30
   0  -2   0    3.70    0.40
   0  -2   0    4.30    0.50
   0   2   0    3.90    0.40
   0   2   0    2.90    0.30
   0   2   0    4.10    0.40
   0   2   0    3.90    0.40
  -1  -2   0 2020.20  106.49
   1   2   0 2215.98  106.99
  -2  -2   0 3185.88  137.59
   2   2   0 3400.76  138.69
  -3  -2   0    8.10    0.40
  -3  -2   0    8.30    0.60
  -3  -2   0    7.60    0.50
  -3  -2   0    7.90    0.50
   3   2   0    8.20    0.40
   3   2   0    8.80    0.40
   3   2   0    8.60    0.70
  -4  -2   0  188.38    4.50
  -4  -2   0  184.38    4.60
  -4  -2   0  191.18    5.10
   4   2   0  192.78    5.20
  -5  -2   0  223.98    6.00
  -5  -2   0  227.98    5.40
  -5  -2   0  225.88    5.50
   5   2   0  224.88    6.20
  -6  -2   0   55.39    1.80
  -6  -2   0   54.29    1.60
  -6  -2   0   54.89    2.10
   6   2   0   57.09    2.30
  -7  -2   0   49.00    2.10
  -7  -2   0   50.89    1.50
  -8  -2   0   30.90    1.50
  -8  -2   0   30.90    1.20
  -8  -2   0   32.60    1.70
  -9  -2   0    1.70    0.50
  -9  -2   0    2.00    0.80
  -9  -2   0    1.40    0.60
 -10  -2   0   13.90    2.00
 -10  -2   0   19.10    1.80
 -10  -2   0   17.50    1.10
 -10  -2   0   18.00    1.50
  -7   3   0   24.70    1.80
  -7   3   0   22.20    2.40
  -7   3   0   23.30    1.80
  -6   3   0   23.60    1.60
  -6   3   0   24.40    2.20
  -6   3   0   21.30    1.50
  -5   3   0   53.29    1.90
  -5   3   0   54.89    2.20
  -5   3   0   55.59    2.10
  -4   3   0    0.90    0.40
  -4   3   0    0.80    0.50
  -4   3   0    0.50    0.50
  -4   3   0    0.60    0.50
   3  -3   0  437.56   10.10
   3  -3   0  442.36   10.20
  -3   3   0  434.96   10.50
  -3   3   0  440.56   10.70
  -3   3   0  435.86   10.50
  -3   3   0  412.86   11.30
   2  -3   0  385.76    9.50
   2  -3   0  389.06    9.30
  -2   3   0  390.96    9.50
  -2   3   0  401.56    9.60
  -2   3   0  379.96   10.10
  -2   3   0  397.86    9.50
   1  -3   0   74.99    2.30
   1  -3   0   66.99    2.60
   1  -3   0   72.49    2.20
  -1   3   0   75.79    2.30
  -1   3   0   71.49    2.20
  -1   3   0   75.89    2.60
   0  -3   0  206.78    5.70
   0  -3   0  220.38    5.60
   0  -3   0  218.78    5.60
   0  -3   0  225.18    5.50
   0   3   0  218.28    5.60
   0   3   0  216.68    5.70
   0   3   0  224.58    5.50
   0   3   0  221.78    5.50
  -1  -3   0    7.40    0.60
  -1  -3   0    9.10    0.60
  -1  -3   0    7.30    0.60
  -1  -3   0    7.90    0.60
   1   3   0    8.20    0.50
   1   3   0    8.00    0.60
  -2  -3   0  203.18    5.10
  -2  -3   0  214.28    5.60
  -2  -3   0  208.38    5.20
  -2  -3   0  210.08    5.30
   2   3   0  213.28    5.10
   2   3   0  209.98    5.30
   2   3   0  219.28    5.10
  -3  -3   0    9.80    0.60
  -3  -3   0    9.40    0.70
  -3  -3   0    9.30    0.50
   3   3   0    8.70    0.50
   3   3   0    9.40    0.50
   3   3   0    9.60    0.60
  -4  -3   0  302.87    7.80
  -4  -3   0  305.87    7.30
  -4  -3   0  298.87    7.40
  -4  -3   0  304.77    7.20
   4   3   0  302.47    7.10
   4   3   0  308.47    7.30
   4   3   0  299.07    7.90
  -5  -3   0   84.69    2.60
  -5  -3   0   86.99    3.00
  -5  -3   0   89.99    2.30
   5   3   0   87.39    3.10
  -6  -3   0    5.60    0.70
  -6  -3   0    5.70    0.50
  -6  -3   0    6.20    0.80
   6   3   0    6.20    1.00
  -7  -3   0    0.40    0.50
  -7  -3   0    0.40    0.40
  -7  -3   0    0.20    0.30
   7   3   0    0.00    0.60
  -8  -3   0    2.80    0.70
  -8  -3   0    3.60    0.50
  -8  -3   0    4.10    0.70
  -9  -3   0   17.20    1.40
  -9  -3   0   16.70    1.40
  -9  -3   0   16.30    0.90
 -10  -3   0    1.60    0.80
 -10  -3   0    1.20    0.90
  -7   4   0    6.40    1.50
  -7   4   0    6.00    1.50
  -6   4   0    7.10    1.20
  -6   4   0    4.10    1.20
  -6   4   0    7.70    1.30
  -5   4   0    7.60    1.40
  -5   4   0    7.80    0.80
  -5   4   0    7.70    1.10
  -5   4   0    7.20    1.10
  -4   4   0   12.60    1.00
  -4   4   0   11.50    1.20
  -4   4   0   12.40    1.30
   3  -4   0   90.99    2.60
   3  -4   0   87.79    2.70
  -3   4   0   84.89    2.80
  -3   4   0   87.09    2.90
  -3   4   0   87.29    3.00
  -3   4   0   88.79    3.60
   2  -4   0   93.89    3.00
   2  -4   0   94.39    2.80
  -2   4   0   96.29    3.00
  -2   4   0   89.79    3.00
  -2   4   0   96.09    3.50
  -2   4   0   92.79    3.00
   1  -4   0  132.89    3.90
   1  -4   0  122.79    4.30
   1  -4   0  134.99    3.70
  -1   4   0  135.09    4.20
  -1   4   0  138.39    3.90
  -1   4   0  131.59    3.80
  -1   4   0  137.09    3.90
   0  -4   0   40.90    1.70
   0  -4   0   42.50    1.90
   0  -4   0   41.50    1.70
   0  -4   0   43.40    1.60
   0   4   0   40.50    1.70
   0   4   0   41.00    1.70
   0   4   0   44.70    1.60
   0   4   0   45.10    1.70
  -1  -4   0  226.08    6.00
  -1  -4   0  226.68    6.20
  -1  -4   0  245.88    6.30
   1   4   0  238.08    6.00
   1   4   0  242.08    6.30
   1   4   0  230.68    6.10
   1   4   0  234.98    5.90
  -2  -4   0    1.90    0.40
  -2  -4   0    1.70    0.40
  -2  -4   0    1.00    0.30
  -2  -4   0    1.10    0.30
   2   4   0    1.50    0.40
   2   4   0    2.00    0.30
   2   4   0    2.30    0.50
  -3  -4   0    8.20    0.70
  -3  -4   0    7.70    0.60
  -3  -4   0    7.90    0.80
  -3  -4   0    9.10    0.60
   3   4   0    7.90    0.70
   3   4   0    8.00    0.50
   3   4   0    9.10    0.50
  -4  -4   0  525.85   12.50
  -4  -4   0  544.25   12.40
  -4  -4   0  522.45   13.10
  -4  -4   0  527.75   12.70
   4   4   0  522.35   12.60
   4   4   0  523.95   13.30
   4   4   0  543.95   12.30
  -5  -4   0   26.90    1.50
  -5  -4   0   26.60    1.10
  -5  -4   0   26.60    1.20
   5   4   0   23.50    1.60
   5   4   0   26.30    1.10
   5   4   0   26.30    1.00
  -6  -4   0  118.69    3.90
  -6  -4   0  115.79    3.20
  -6  -4   0  115.99    3.30
  -6  -4   0  118.59    3.50
   6   4   0  113.59    2.90
   6   4   0  116.79    4.10
  -7  -4   0   31.00    1.80
  -7  -4   0   30.50    1.20
  -7  -4   0   31.60    1.50
  -7  -4   0   32.00    1.50
   7   4   0   32.70    2.60
  -8  -4   0   -0.50    0.50
  -8  -4   0    0.40    0.50
  -8  -4   0    0.40    0.50
  -8  -4   0    0.10    0.30
   8   4   0    0.10    0.80
  -9  -4   0    0.90    0.70
  -9  -4   0    1.60    0.70
  -9  -4   0    1.00    0.80
   9   4   0    2.30    1.20
 -10  -4   0    5.60    0.80
 -10  -4   0    5.50    1.20
 -10  -4   0    5.50    1.20
 -10  -4   0    6.00    1.20
  -6   5   0    2.10    1.00
  -6   5   0    1.10    1.20
  -6   5   0    1.50    1.30
  -5   5   0    1.70    0.70
  -5   5   0    0.80    1.00
  -5   5   0    1.40    1.00
  -4   5   0   13.60    1.40
  -4   5   0   12.80    1.20
  -4   5   0   13.70    1.50
  -4   5   0   16.40    2.10
   3  -5   0    0.20    0.40
   3  -5   0   -0.20    0.60
  -3   5   0    0.00    0.40
  -3   5   0    0.50    0.50
  -3   5   0    0.30    0.60
  -3   5   0    0.70    0.60
   2  -5   0   24.30    1.50
   2  -5   0   26.70    1.40
  -2   5   0   29.80    1.60
  -2   5   0   25.70    1.80
  -2   5   0   26.80    1.70
  -2   5   0   25.30    1.50
   1  -5   0   34.00    2.00
   1  -5   0   41.60    1.70
   1  -5   0   36.10    1.80
  -1   5   0   38.90    1.80
  -1   5   0   41.80    1.80
  -1   5   0   37.80    2.00
  -1   5   0   40.10    1.80
   0  -5   0   46.40    2.00
   0  -5   0   49.40    2.00
   0  -5   0   46.10    1.80
   0  -5   0   42.50    2.10
   0   5   0   44.90    2.00
   0   5   0   46.40    2.00
   0   5   0   44.70    1.80
   0   5   0   43.50    1.90
  -1  -5   0   47.00    2.00
  -1  -5   0   48.30    1.90
  -1  -5   0   47.90    2.10
  -1  -5   0   49.70    2.10
   1   5   0   49.70    1.90
   1   5   0   46.60    1.90
   1   5   0   46.20    1.80
  -2  -5   0  217.58    5.80
  -2  -5   0  218.98    6.10
  -2  -5   0  213.38    5.80
  -2  -5   0  210.38    5.80
   2   5   0  209.98    6.10
   2   5   0  217.38    5.50
   2   5   0  216.38    5.50
   2   5   0  209.28    5.80
  -3  -5   0   15.60    1.00
  -3  -5   0   16.00    1.20
  -3  -5   0   16.50    1.00
  -3  -5   0   16.80    1.00
   3   5   0   17.80    1.30
   3   5   0   16.50    0.90
   3   5   0   18.00    0.90
   3   5   0   14.60    1.00
  -4  -5   0  173.98    4.70
  -4  -5   0  185.18    5.30
  -4  -5   0  170.38    4.80
  -4  -5   0  169.58    4.50
   4   5   0  173.48    4.60
   4   5   0  166.58    4.80
   4   5   0  168.68    5.30
   4   5   0  172.08    4.40
  -5  -5   0    0.70    0.40
  -5  -5   0    0.60    0.40
  -5  -5   0    1.20    0.30
  -5  -5   0    1.10    0.50
   5   5   0    1.40    0.50
   5   5   0    1.00    0.30
  -6  -5   0   11.10    0.70
  -6  -5   0    9.00    1.10
  -6  -5   0   11.00    0.90
  -6  -5   0   12.50    1.00
   6   5   0   11.70    0.70
   6   5   0   15.20    1.80
   6   5   0   11.80    0.90
  -7  -5   0    1.50    0.40
  -7  -5   0    1.40    0.60
  -7  -5   0    2.30    0.70
  -7  -5   0    1.60    0.70
   7   5   0    1.70    0.90
  -8  -5   0    5.30    0.70
  -8  -5   0    6.30    1.00
  -8  -5   0    5.80    1.00
   8   5   0    7.10    1.40
  -9  -5   0    1.70    0.80
  -9  -5   0    2.10    0.90
  -9  -5   0    1.30    0.60
   9   5   0    2.20    1.30
 -10  -5   0    1.10    1.30
 -10  -5   0    1.70    0.80
 -10  -5   0    2.10    1.00
  -5   6   0   -0.10    0.90
  -5   6   0   -0.10    1.00
  -5   6   0    0.30    1.00
  -5   6   0    0.40    1.60
  -4   6   0   10.40    1.70
  -4   6   0   11.00    1.30
  -4   6   0   12.10    1.70
  -4   6   0   10.20    1.40
   3  -6   0   19.30    1.60
   3  -6   0   21.20    1.40
  -3   6   0   24.30    2.00
  -3   6   0   24.40    1.70
  -3   6   0   22.10    1.90
  -3   6   0   24.80    1.80
   2  -6   0    3.30    0.90
   2  -6   0    1.80    0.60
  -2   6   0    2.90    0.90
  -2   6   0    3.50    0.90
  -2   6   0    3.70    0.80
  -2   6   0    4.00    1.00
   1  -6   0   52.29    2.20
  -1   6   0   53.79    2.30
  -1   6   0   52.29    2.40
  -1   6   0   52.29    2.50
  -1   6   0   55.49    2.40
   0  -6   0    0.30    0.40
   0  -6   0    0.60    0.50
   0  -6   0    0.20    0.50
   0  -6   0    0.60    0.60
   0   6   0    0.90    0.50
   0   6   0    0.40    0.50
   0   6   0    0.20    0.40
   0   6   0    0.00    0.50
  -1  -6   0    4.10    0.90
  -1  -6   0    2.90    0.70
  -1  -6   0    2.60    0.70
  -1  -6   0    3.00    0.80
   1   6   0    3.70    0.70
   1   6   0    3.00    0.50
   1   6   0    2.40    0.70
  -2  -6   0   56.19    2.50
  -2  -6   0   62.49    2.50
  -2  -6   0   64.09    2.70
  -2  -6   0   62.79    2.40
   2   6   0   60.29    2.70
   2   6   0   64.79    2.20
   2   6   0   63.19    2.50
   2   6   0   62.69    2.20
  -3  -6   0    8.70    0.90
  -3  -6   0    7.00    1.00
  -3  -6   0    6.70    0.90
  -3  -6   0    7.00    0.90
   3   6   0    8.30    0.70
   3   6   0    7.60    0.90
   3   6   0    8.10    0.70
   3   6   0    7.60    1.10
  -4  -6   0    3.70    0.80
  -4  -6   0    3.90    0.70
  -4  -6   0    2.80    0.60
  -4  -6   0    4.30    0.80
   4   6   0    2.70    0.60
   4   6   0    3.80    0.60
   4   6   0    3.00    0.50
  -5  -6   0   55.09    2.60
  -5  -6   0   53.69    2.20
  -5  -6   0   50.59    2.10
  -5  -6   0   50.59    1.90
   5   6   0   48.40    2.60
   5   6   0   51.09    2.00
   5   6   0   54.29    1.80
   5   6   0   55.99    2.20
  -6  -6   0   54.99    2.20
  -6  -6   0   55.99    2.00
  -6  -6   0   54.79    2.30
  -6  -6   0   59.79    2.80
   6   6   0   56.89    2.90
   6   6   0   55.49    1.80
   6   6   0   55.39    2.20
  -7  -6   0   29.60    1.30
  -7  -6   0   29.40    2.00
  -7  -6   0   26.60    1.50
  -7  -6   0   31.20    1.70
   7   6   0   27.20    1.20
   7   6   0   24.90    2.20
   7   6   0   31.40    1.50
  -8  -6   0    9.80    0.90
  -8  -6   0   10.30    1.40
  -8  -6   0   10.30    1.10
  -8  -6   0   12.00    1.40
  -9  -6   0   11.40    1.50
  -9  -6   0   10.10    1.60
  -9  -6   0    9.40    1.20
  -9  -6   0    8.00    0.90
   9   6   0    9.90    2.10
 -10  -6   0    5.30    1.30
 -10  -6   0    3.60    0.80
 -10  -6   0    3.60    1.30
 -10  -6   0    5.50    1.20
  10   6   0    5.10    2.20
  -4   7   0   -0.90    1.10
  -4   7   0   -0.60    0.90
  -4   7   0   -0.20    1.20
   3  -7   0    5.10    1.00
   3  -7   0    5.50    1.30
  -3   7   0    6.10    1.40
  -3   7   0    6.10    1.20
  -3   7   0    6.90    1.40
  -3   7   0    5.00    1.40
   2  -7   0   14.60    1.40
   2  -7   0   15.80    1.70
  -2   7   0   16.90    1.50
  -2   7   0   17.40    1.90
  -2   7   0   14.00    1.70
  -2   7   0   16.70    1.80
   1  -7   0    5.50    1.20
   1  -7   0    4.80    1.00
  -1   7   0    6.20    1.20
  -1   7   0    4.90    1.10
  -1   7   0    4.80    0.90
  -1   7   0    2.30    1.20
   0  -7   0    3.60    0.80
   0  -7   0    7.50    1.20
   0  -7   0    5.50    1.20
   0  -7   0    6.60    1.20
   0   7   0    6.40    0.90
   0   7   0    6.00    1.20
   0   7   0    3.90    0.80
   0   7   0    5.10    1.00
  -1  -7   0   39.50    2.20
  -1  -7   0   35.90    1.90
  -1  -7   0   31.10    2.20
  -1  -7   0   38.70    2.20
   1   7   0   39.40    1.90
   1   7   0   38.70    2.30
   1   7   0   37.10    1.90
  -2  -7   0   23.40    1.70
  -2  -7   0   21.60    1.70
  -2  -7   0   24.00    1.60
  -2  -7   0   23.60    1.80
   2   7   0   23.70    1.40
   2   7   0   23.40    1.80
   2   7   0   21.30    1.60
   2   7   0   26.20    1.40
  -3  -7   0    1.10    0.70
  -3  -7   0    0.60    0.60
  -3  -7   0    0.70    0.60
  -3  -7   0    0.80    0.60
   3   7   0    0.90    0.40
   3   7   0    1.50    0.80
   3   7   0    0.90    0.40
   3   7   0    0.90    0.60
  -4  -7   0   -0.50    0.60
  -4  -7   0    0.20    0.50
  -4  -7   0   -0.40    0.50
  -4  -7   0    0.20    0.60
   4   7   0    0.20    0.30
   4   7   0   -0.40    0.30
   4   7   0    0.00    0.60
   4   7   0    0.00    0.60
  -5  -7   0    8.50    1.00
  -5  -7   0    7.60    1.10
  -5  -7   0    5.80    1.00
   5   7   0    7.50    0.80
   5   7   0    7.00    0.90
   5   7   0    9.10    1.60
   5   7   0    8.90    1.20
  -6  -7   0   26.60    1.80
  -6  -7   0   29.10    2.00
  -6  -7   0   25.00    1.40
   6   7   0   29.00    1.30
   6   7   0   25.70    1.70
  -7  -7   0    2.30    0.80
  -7  -7   0    1.90    0.80
  -7  -7   0    1.80    0.80
  -7  -7   0    1.70    0.60
   7   7   0    3.00    1.00
   7   7   0    2.50    0.50
  -8  -7   0   -0.50    0.80
  -8  -7   0    0.00    0.50
  -8  -7   0    0.70    0.90
  -8  -7   0    0.20    0.70
   8   7   0    0.50    1.30
   8   7   0   -0.20    0.60
   8   7   0    0.20    0.50
  -9  -7   0    0.50    1.00
  -9  -7   0    1.50    1.00
  -9  -7   0    1.10    0.60
  -9  -7   0    2.20    1.20
   9   7   0    1.10    1.60
   3  -8   0    8.00    1.30
   3  -8   0    8.60    1.70
  -3   8   0    7.70    1.80
  -3   8   0    6.80    1.70
  -3   8   0    6.50    1.40
   2  -8   0    5.10    1.20
   2  -8   0    5.90    1.70
  -2   8   0    5.00    1.50
  -2   8   0    5.90    1.20
  -2   8   0    6.10    1.40
   1  -8   0   13.90    1.60
  -1   8   0   11.80    1.50
  -1   8   0   14.20    1.50
  -1   8   0   13.20    1.90
  -1   8   0   16.90    2.10
   0  -8   0    3.20    1.00
   0   8   0    1.90    1.20
   0   8   0    3.00    1.10
   0   8   0    3.00    0.80
   0   8   0    2.20    0.70
  -1  -8   0   22.80    1.70
  -1  -8   0   24.90    1.90
  -1  -8   0   20.70    2.20
   1   8   0   24.40    1.50
   1   8   0   26.20    1.60
   1   8   0   23.00    2.90
   1   8   0   23.50    2.20
  -2  -8   0   24.60    1.90
  -2  -8   0   21.20    2.00
  -2  -8   0   23.90    1.80
   2   8   0   23.10    2.10
   2   8   0   23.60    1.50
  -3  -8   0    0.50    0.70
  -3  -8   0   -0.20    0.60
  -3  -8   0   -0.20    0.80
   3   8   0    0.00    0.40
   3   8   0   -0.70    0.80
   3   8   0    0.30    0.40
  -4  -8   0   72.49    3.10
  -4  -8   0   74.79    3.10
  -4  -8   0   69.29    3.40
   4   8   0   76.29    2.60
   4   8   0   74.59    2.60
  -5  -8   0    4.60    1.20
  -5  -8   0    6.10    1.30
  -5  -8   0    7.10    1.10
  -5  -8   0    6.40    1.20
   5   8   0    7.10    0.80
   5   8   0    7.00    0.90
   5   8   0    6.10    1.30
  -6  -8   0    1.70    1.10
  -6  -8   0    0.80    0.70
  -6  -8   0   -0.20    0.60
   6   8   0    0.80    0.50
   6   8   0    0.60    0.50
   6   8   0    0.60    1.20
   6   8   0    0.50    1.00
  -7  -8   0    4.30    1.20
  -7  -8   0    5.80    1.40
  -7  -8   0    4.30    1.10
   7   8   0    3.50    0.70
   7   8   0    3.50    1.50
   7   8   0    5.40    1.10
  -8  -8   0   11.80    1.80
  -8  -8   0   11.10    1.70
  -8  -8   0   10.50    1.50
  -8  -8   0   12.40    1.70
   8   8   0   11.60    1.40
   8   8   0   11.20    1.10
  -9  -8   0   -0.10    0.70
  -9  -8   0   -0.70    1.10
  -9  -8   0   -0.80    1.00
   9   8   0    0.10    0.70
   1  -9   0    2.10    1.90
   1  -9   0   -0.30    1.20
  -1   9   0    0.50    1.40
  -1   9   0   -0.60    1.60
  -1   9   0   -0.20    1.00
   0  -9   0   13.00    1.70
   0  -9   0   13.50    2.30
   0   9   0   16.30    1.70
   0   9   0   14.50    1.80
   0   9   0   18.90    2.50
  -1  -9   0   11.30    2.00
  -1  -9   0   10.80    1.50
   1   9   0   10.30    1.30
   1   9   0    8.20    1.20
   1   9   0   10.00    1.80
  -2  -9   0    1.70    1.40
  -2  -9   0    2.10    1.10
  -2  -9   0    0.50    0.90
  -2  -9   0    2.10    1.40
   2   9   0    2.10    0.70
   2   9   0    2.10    1.30
  -3  -9   0   27.80    2.60
  -3  -9   0   30.50    2.20
  -3  -9   0   29.70    2.60
  -3  -9   0   31.30    2.40
   3   9   0   30.10    1.70
   3   9   0   27.20    2.80
   3   9   0   29.00    2.50
   3   9   0   31.60    1.70
  -4  -9   0   18.40    2.10
  -4  -9   0   15.80    1.90
  -4  -9   0   16.60    2.00
  -4  -9   0   13.10    2.10
   4   9   0   12.00    1.80
   4   9   0   14.70    1.20
   4   9   0   14.90    2.00
   4   9   0   14.10    1.20
  -5  -9   0   30.80    2.40
  -5  -9   0   29.90    2.50
  -5  -9   0   33.00    2.30
   5   9   0   32.40    1.80
   5   9   0   33.70    1.70
   5   9   0   37.20    2.70
   5   9   0   21.20    4.30
  -6  -9   0    5.10    1.20
  -6  -9   0    9.80    1.50
  -6  -9   0    6.80    1.30
   6   9   0    6.20    1.00
   6   9   0    5.70    0.80
  -7  -9   0    2.60    1.10
  -7  -9   0    3.60    1.30
  -7  -9   0    3.90    1.10
   7   9   0    2.70    0.70
  -8  -9   0    1.80    1.00
  -8  -9   0    2.70    1.20
   8   9   0    1.40    1.40
  -1 -10   0    6.40    1.60
   1  10   0    8.30    1.50
  -2 -10   0    1.00    1.20
  -2 -10   0    1.00    1.20
   2  10   0    2.40    0.90
   2  10   0    1.30    0.90
  -3 -10   0    8.10    2.00
  -3 -10   0    9.10    1.60
  -3 -10   0    8.80    1.70
   3  10   0    8.40    1.10
  -4 -10   0    4.30    1.50
  -4 -10   0    6.10    1.80
  -4 -10   0    4.50    2.00
   4  10   0    3.10    0.80
   4  10   0    3.40    0.80
  -5 -10   0    2.00    1.50
   5  10   0    1.90    0.80
   5  10   0    3.30    0.90
  -6 -10   0    0.70    1.10
  -6 -10   0    1.30    1.50
  -6 -10   0    1.10    1.20
   6  10   0    0.30    0.70
   6  10   0   -0.50    0.70
  -7 -10   0    4.60    1.50
  -7 -10   0    5.20    1.90
  -7 -10   0    5.70    1.60
   7  10   0    6.30    1.00
   6  10  -1    2.40    0.90
   6  10  -1    1.40    0.80
  -6 -10   1    0.80    1.30
  -6 -10   1    2.80    1.40
   5  10  -1    7.60    1.10
   5  10  -1   12.50    1.40
  -5 -10   1   10.70    1.80
  -5 -10   1   10.70    2.00
   4  10  -1    1.30    0.90
   4  10  -1    1.60    0.80
  -4 -10   1    4.60    1.80
  -4 -10   1    0.80    1.30
   3  10  -1   10.90    1.50
   3  10  -1   11.10    1.30
  -3 -10   1   10.00    2.10
  -3 -10   1   10.70    1.80
   2  10  -1    6.90    1.30
   2  10  -1    6.90    1.20
  -2 -10   1    6.70    1.60
   8   9  -1   12.80    1.30
  -8  -9   1   13.80    1.70
  -8  -9   1   12.10    2.10
   7   9  -1   -0.50    0.60
  -7  -9   1    0.10    1.10
  -7  -9   1    0.50    0.90
  -7  -9   1    0.30    1.00
   6   9  -1   12.40    1.10
   6   9  -1   14.80    2.00
   6   9  -1   10.00    1.20
  -6  -9   1   14.10    2.00
  -6  -9   1   11.70    1.60
  -6  -9   1   18.90    2.10
   5   9  -1   18.40    1.30
   5   9  -1   20.00    3.60
   5   9  -1   17.00    2.10
  -5  -9   1   12.60    1.70
  -5  -9   1   13.20    1.70
  -5  -9   1   19.90    2.10
   4   9  -1    2.30    0.70
   4   9  -1    4.70    1.40
   4   9  -1    4.40    2.20
   4   9  -1    4.60    0.80
  -4  -9   1    5.90    1.30
  -4  -9   1    4.00    1.30
  -4  -9   1    4.70    1.30
   3   9  -1    8.40    1.10
   3   9  -1    9.40    1.10
  -3  -9   1    8.70    1.60
  -3  -9   1    9.10    1.70
  -3  -9   1    9.60    1.90
  -3  -9   1    8.20    1.40
   2   9  -1   16.50    1.40
   2   9  -1   20.60    1.50
   2   9  -1   14.80    2.00
  -2  -9   1   21.40    3.50
  -2  -9   1   16.10    1.90
  -2  -9   1   14.60    1.70
  -2  -9   1   16.10    2.10
   1   9  -1    1.00    1.40
   1   9  -1    1.00    0.70
  -1  -9   1    2.10    1.10
  -1  -9   1    0.60    1.60
  -1  -9   1    0.90    1.50
   0   9  -1    2.50    0.90
   0   9  -1    2.80    1.60
   0  -9   1    0.70    1.70
   0  -9   1    1.90    1.20
  -1   9  -1    3.40    1.20
  -1   9  -1    1.20    1.80
  -1   9  -1    2.80    1.10
   1  -9   1    2.90    1.30
   1  -9   1    2.80    2.10
   9   8  -1    0.10    0.70
  -9  -8   1    1.10    0.80
  -9  -8   1    1.80    1.20
  -9  -8   1    0.00    1.10
   8   8  -1    0.50    0.60
   8   8  -1    0.60    1.00
  -8  -8   1    1.30    1.10
  -8  -8   1    0.10    0.90
  -8  -8   1    0.70    0.70
   7   8  -1   10.60    1.50
   7   8  -1   12.90    2.20
   7   8  -1   11.80    1.10
  -7  -8   1   13.20    1.40
  -7  -8   1   11.60    1.80
  -7  -8   1   12.10    1.70
  -7  -8   1    8.60    1.40
   6   8  -1    1.30    1.10
   6   8  -1    2.10    1.10
   6   8  -1    1.10    0.60
  -6  -8   1    2.20    1.00
  -6  -8   1    2.10    1.90
  -6  -8   1    1.80    0.70
  -6  -8   1    1.90    0.90
   5   8  -1   -0.20    0.90
   5   8  -1    0.70    0.60
   5   8  -1    1.30    0.50
  -5  -8   1    0.70    0.70
  -5  -8   1    0.20    0.90
  -5  -8   1    1.50    0.90
  -5  -8   1    0.10    0.60
   4   8  -1   21.40    1.40
   4   8  -1   19.30    1.20
  -4  -8   1   23.40    1.80
  -4  -8   1   17.70    1.80
  -4  -8   1   20.00    1.70
   3   8  -1    0.80    0.50
   3   8  -1    1.50    0.60
   3   8  -1    0.70    0.80
  -3  -8   1    0.90    0.70
  -3  -8   1    0.50    0.70
  -3  -8   1    0.70    0.90
   2   8  -1   23.00    1.40
   2   8  -1   19.50    2.00
  -2  -8   1   21.00    2.00
  -2  -8   1   17.40    1.70
  -2  -8   1   25.20    1.80
   1   8  -1    8.90    1.10
   1   8  -1   11.90    1.80
  -1  -8   1   10.70    1.70
  -1  -8   1   10.20    1.40
   0   8  -1    9.10    1.20
   0   8  -1   12.40    1.80
   0   8  -1   11.00    1.30
   0   8  -1   14.70    1.90
   0  -8   1   11.00    1.40
   0  -8   1   11.00    1.90
  -1   8  -1    8.70    1.30
  -1   8  -1    9.80    1.70
  -1   8  -1    7.90    1.20
  -1   8  -1   10.70    1.80
   1  -8   1    9.70    1.60
   1  -8   1    7.40    1.70
  -2   8  -1    7.70    1.70
  -2   8  -1    3.70    0.90
  -2   8  -1    8.90    1.30
   2  -8   1    6.80    1.70
   2  -8   1    6.30    1.30
  -3   8  -1    1.00    1.60
  -3   8  -1    0.00    1.20
   9   7  -1    6.10    1.90
  -9  -7   1    6.90    1.40
  -9  -7   1    4.90    1.20
  -9  -7   1    7.70    1.50
  -9  -7   1    7.50    1.00
   8   7  -1    1.60    1.20
   8   7  -1    0.90    0.80
   8   7  -1    0.80    0.60
  -8  -7   1    0.70    0.90
  -8  -7   1    1.10    0.80
  -8  -7   1    0.70    0.90
  -8  -7   1    0.80    0.60
   7   7  -1   18.70    1.10
   7   7  -1   17.50    1.60
  -7  -7   1   17.50    1.60
  -7  -7   1   17.90    1.80
  -7  -7   1   20.90    1.60
  -7  -7   1   19.00    1.30
   6   7  -1   74.09    2.40
   6   7  -1   72.59    2.90
  -6  -7   1   66.39    2.60
  -6  -7   1   68.29    3.30
  -6  -7   1   74.59    2.90
  -6  -7   1   70.29    3.00
   5   7  -1   36.00    1.70
   5   7  -1   35.60    1.50
   5   7  -1   35.50    2.40
   5   7  -1   36.50    2.00
  -5  -7   1   35.40    1.80
  -5  -7   1   37.40    2.00
  -5  -7   1   36.30    2.20
   4   7  -1   10.00    0.90
   4   7  -1    9.00    0.80
   4   7  -1   10.30    1.30
  -4  -7   1   12.00    1.50
  -4  -7   1    5.50    1.00
  -4  -7   1   10.60    1.30
   3   7  -1  204.98    5.50
   3   7  -1  194.78    5.90
   3   7  -1  197.68    6.40
   3   7  -1  197.88    5.30
  -3  -7   1  198.28    6.00
  -3  -7   1  197.58    6.30
  -3  -7   1  196.08    5.90
   2   7  -1  135.69    4.10
   2   7  -1  138.39    4.00
   2   7  -1  130.69    4.80
  -2  -7   1  134.69    4.50
  -2  -7   1  141.59    4.40
  -2  -7   1  132.29    4.70
  -2  -7   1  134.79    4.80
   1   7  -1   69.59    2.60
   1   7  -1   67.49    3.10
  -1  -7   1   65.19    2.70
  -1  -7   1   60.99    3.10
  -1  -7   1   65.29    2.90
  -1  -7   1   68.89    3.00
   0   7  -1   59.49    2.40
   0   7  -1   58.79    2.90
   0   7  -1   61.39    2.80
   0   7  -1   65.29    3.10
   0  -7   1   60.99    2.80
   0  -7   1   60.39    2.60
   0  -7   1   57.99    3.20
  -1   7  -1   39.50    2.00
  -1   7  -1   42.80    2.40
  -1   7  -1   40.40    2.20
  -1   7  -1   42.40    2.40
   1  -7   1   38.70    2.40
   1  -7   1   40.00    2.10
  -2   7  -1    4.70    1.10
  -2   7  -1    5.10    1.30
  -2   7  -1    7.10    1.10
  -2   7  -1    5.60    1.10
   2  -7   1    5.00    1.20
   2  -7   1    6.20    1.00
  -3   7  -1    9.90    1.60
  -3   7  -1   12.50    1.90
  -3   7  -1   13.10    1.50
  -3   7  -1   10.90    1.70
   3  -7   1   11.10    1.40
   3  -7   1   11.10    1.20
  -4   7  -1    6.20    1.50
  -4   7  -1    4.10    1.30
  -4   7  -1    4.00    1.20
  10   6  -1    0.70    2.00
 -10  -6   1    1.50    1.20
 -10  -6   1    0.70    1.00
 -10  -6   1    0.90    1.20
 -10  -6   1    0.90    0.70
   9   6  -1    8.80    3.00
  -9  -6   1    7.10    1.30
  -9  -6   1    7.10    0.90
  -9  -6   1    8.90    1.50
  -9  -6   1    8.70    1.20
  -8  -6   1   23.40    1.30
  -8  -6   1   26.90    2.00
   7   6  -1   15.20    1.00
   7   6  -1   13.00    1.20
   7   6  -1   13.80    1.80
  -7  -6   1   12.90    1.80
  -7  -6   1   12.80    0.90
  -7  -6   1   14.10    1.20
  -7  -6   1   12.30    1.40
   6   6  -1    3.50    0.70
   6   6  -1    2.90    0.50
   6   6  -1    2.50    0.80
  -6  -6   1    1.90    0.70
  -6  -6   1    2.80    0.70
  -6  -6   1    3.00    0.80
  -6  -6   1    2.30    0.50
   5   6  -1   27.50    1.90
   5   6  -1   26.70    1.40
   5   6  -1   30.80    1.30
  -5  -6   1   30.40    1.40
  -5  -6   1   30.50    1.60
  -5  -6   1   27.90    1.80
  -5  -6   1   30.30    1.60
   4   6  -1    2.40    0.50
   4   6  -1    1.50    0.60
   4   6  -1    2.00    0.60
   4   6  -1    2.50    0.60
  -4  -6   1    3.20    0.70
  -4  -6   1    1.20    0.50
  -4  -6   1    2.40    0.60
  -4  -6   1    2.60    0.70
   3   6  -1   15.20    0.90
   3   6  -1   12.30    1.10
   3   6  -1   15.70    1.40
   3   6  -1   14.10    0.90
  -3  -6   1   12.90    1.10
  -3  -6   1   12.70    1.10
  -3  -6   1   14.90    1.30
  -3  -6   1   12.80    1.10
   2   6  -1  111.89    3.30
   2   6  -1  115.29    3.40
   2   6  -1  112.09    3.70
  -2  -6   1  114.29    3.70
  -2  -6   1  110.59    4.00
  -2  -6   1  115.69    3.70
  -2  -6   1  111.09    3.80
   1   6  -1  138.89    4.40
   1   6  -1  132.49    4.60
   1   6  -1  142.59    4.10
   1   6  -1  148.29    4.30
  -1  -6   1  139.89    4.70
  -1  -6   1  138.19    4.40
  -1  -6   1  141.99    4.30
  -1  -6   1  146.79    4.70
   0   6  -1    1.80    0.50
   0   6  -1    1.80    0.70
   0   6  -1    2.20    0.60
   0   6  -1    1.10    0.40
   0  -6   1    1.80    0.80
   0  -6   1    2.10    0.60
   0  -6   1    1.60    0.70
  -1   6  -1    0.00    0.60
  -1   6  -1    0.20    0.40
  -1   6  -1    0.20    0.50
  -1   6  -1   -0.40    0.60
   1  -6   1    0.00    0.70
   1  -6   1    0.20    0.50
  -2   6  -1   17.70    1.30
  -2   6  -1   16.40    1.40
  -2   6  -1   16.00    1.50
  -2   6  -1   16.40    1.50
   2  -6   1   18.30    1.30
   2  -6   1   16.60    1.50
  -3   6  -1   24.80    1.70
  -3   6  -1   18.30    1.60
  -3   6  -1   22.10    1.80
  -3   6  -1   16.90    1.70
   3  -6   1   21.30    1.30
   3  -6   1   20.60    1.60
  -4   6  -1   17.70    1.90
  -4   6  -1   17.80    1.70
  -4   6  -1   17.60    1.70
  -4   6  -1   18.10    1.90
  -5   6  -1    0.60    0.90
  -5   6  -1    0.50    1.10
 -10  -5   1    1.40    1.20
 -10  -5   1    1.40    0.80
 -10  -5   1    1.80    0.80
 -10  -5   1    1.40    0.90
   9   5  -1    0.60    1.20
  -9  -5   1   -0.10    0.60
  -9  -5   1   -0.10    0.80
  -9  -5   1    0.40    0.60
   8   5  -1    7.50    1.60
  -8  -5   1    9.20    1.20
  -8  -5   1    7.70    0.90
  -8  -5   1    8.90    0.90
  -8  -5   1    8.70    1.20
   7   5  -1    6.40    0.60
   7   5  -1    6.00    0.60
   7   5  -1    7.00    1.30
  -7  -5   1    7.70    0.80
  -7  -5   1    8.00    1.20
  -7  -5   1    5.30    0.90
  -7  -5   1    6.30    0.80
   6   5  -1   12.40    1.60
   6   5  -1   11.90    0.80
   6   5  -1   11.30    0.90
  -6  -5   1   10.10    1.10
  -6  -5   1   11.50    1.00
  -6  -5   1   10.60    0.80
   5   5  -1  101.09    4.20
   5   5  -1  105.39    2.90
   5   5  -1  103.49    3.20
  -5  -5   1   99.99    3.70
  -5  -5   1  101.29    3.00
  -5  -5   1  102.49    3.30
  -5  -5   1  101.69    3.10
   4   5  -1  220.68    6.00
   4   5  -1  226.88    5.90
   4   5  -1  227.38    5.60
  -4  -5   1  228.08    5.90
  -4  -5   1  217.98    6.10
  -4  -5   1  221.98    6.50
  -4  -5   1  232.08    5.80
   3   5  -1    1.60    0.50
   3   5  -1    2.10    0.40
   3   5  -1    1.00    0.40
   3   5  -1    2.80    0.50
  -3  -5   1    1.40    0.50
  -3  -5   1    1.20    0.50
  -3  -5   1    2.40    0.50
  -3  -5   1    3.00    0.50
   2   5  -1   38.80    1.70
   2   5  -1   39.30    1.50
   2   5  -1   40.30    1.50
  -2  -5   1   39.60    1.70
  -2  -5   1   37.00    1.70
  -2  -5   1   39.20    1.90
  -2  -5   1   42.00    1.70
   1   5  -1   31.40    1.70
   1   5  -1   36.20    1.50
   1   5  -1   33.10    1.40
   1   5  -1   32.50    1.60
  -1  -5   1   34.90    1.60
  -1  -5   1   35.90    1.80
  -1  -5   1   33.70    1.60
  -1  -5   1   33.30    1.70
   0   5  -1   34.60    1.80
   0   5  -1   38.80    1.70
   0   5  -1   33.50    1.60
   0   5  -1   34.20    1.50
   0  -5   1   33.90    1.70
   0  -5   1   34.20    1.90
   0  -5   1   37.50    1.90
   0  -5   1   36.80    1.60
  -1   5  -1   19.50    1.30
  -1   5  -1   17.70    1.30
  -1   5  -1   18.30    1.20
  -1   5  -1   17.60    1.20
   1  -5   1   16.40    1.30
   1  -5   1   17.40    1.10
  -2   5  -1  153.48    4.90
  -2   5  -1  148.79    4.60
  -2   5  -1  148.39    4.40
  -2   5  -1  142.69    4.60
   2  -5   1  140.69    4.40
   2  -5   1  151.78    4.20
  -3   5  -1   41.10    2.00
  -3   5  -1   40.50    1.90
  -3   5  -1   39.80    2.00
  -3   5  -1   42.40    2.40
   3  -5   1   43.80    1.80
  -4   5  -1    7.20    1.10
  -4   5  -1    8.50    1.40
  -4   5  -1    6.50    1.10
  -4   5  -1    6.00    1.10
  -5   5  -1    2.70    0.90
  -5   5  -1    1.80    0.80
  -5   5  -1    2.80    1.10
  -6   5  -1   15.50    1.50
  -6   5  -1   20.20    1.80
  -6   5  -1   17.60    2.00
  -6   5  -1   12.60    1.80
 -10  -4   1    6.70    0.90
 -10  -4   1    6.00    1.30
 -10  -4   1    6.30    1.10
   9   4  -1   12.40    1.80
  -9  -4   1   11.30    1.00
  -9  -4   1   12.20    1.40
  -9  -4   1    9.50    1.20
  -9  -4   1   11.00    1.30
   8   4  -1    5.10    1.20
  -8  -4   1    5.90    1.00
  -8  -4   1    7.20    1.00
  -8  -4   1    5.50    0.90
  -7  -4   1   35.20    1.40
  -7  -4   1   34.70    1.60
  -7  -4   1   35.30    1.70
  -7  -4   1   34.00    1.90
   6   4  -1  255.37    6.30
   6   4  -1  253.67    6.20
   6   4  -1  260.07    7.40
  -6  -4   1  260.57    7.20
  -6  -4   1  252.87    6.40
  -6  -4   1  264.77    6.80
  -6  -4   1  252.97    6.60
   5   4  -1   56.89    2.50
   5   4  -1   56.29    1.90
  -5  -4   1   55.09    1.90
  -5  -4   1   57.99    2.40
  -5  -4   1   57.69    2.10
  -5  -4   1   55.89    1.80
   4   4  -1   85.69    2.40
   4   4  -1   88.69    3.10
   4   4  -1   87.69    2.70
  -4  -4   1   89.39    3.10
  -4  -4   1   90.49    2.50
  -4  -4   1   84.69    2.70
   3   4  -1   12.40    1.00
   3   4  -1   12.00    0.80
   3   4  -1   13.00    0.70
  -3  -4   1   12.30    1.00
  -3  -4   1   13.00    0.90
  -3  -4   1   11.70    0.70
  -3  -4   1   12.80    0.70
   2   4  -1    8.60    0.80
   2   4  -1   10.60    0.60
   2   4  -1    9.90    0.60
   2   4  -1   10.70    0.80
  -2  -4   1    9.50    0.70
  -2  -4   1    9.50    0.80
  -2  -4   1   10.00    0.80
   1   4  -1   83.99    2.90
   1   4  -1   94.19    2.60
   1   4  -1   84.29    2.50
   1   4  -1   90.89    2.70
  -1  -4   1   85.89    2.70
  -1  -4   1   84.39    2.70
  -1  -4   1   85.89    2.80
  -1  -4   1   86.59    2.90
   0   4  -1   59.09    2.10
   0   4  -1   59.79    2.10
   0   4  -1   58.29    2.20
   0   4  -1   59.49    2.00
   0  -4   1   59.29    2.30
   0  -4   1   62.99    2.30
   0  -4   1   56.19    2.10
   0  -4   1   60.29    2.00
  -1   4  -1  168.58    4.80
  -1   4  -1  159.78    4.40
  -1   4  -1  166.58    4.70
  -1   4  -1  166.38    4.50
   1  -4   1  157.78    4.50
   1  -4   1  167.58    4.40
   1  -4   1  151.78    5.00
  -2   4  -1    0.20    0.40
  -2   4  -1    0.20    0.30
  -2   4  -1    0.30    0.50
  -2   4  -1   -0.30    0.30
   2  -4   1    0.00    0.40
  -3   4  -1   22.20    1.30
  -3   4  -1   19.10    1.50
  -3   4  -1   19.40    1.20
  -3   4  -1   16.90    1.10
   3  -4   1   19.30    0.90
   3  -4   1   19.40    1.00
  -4   4  -1   16.70    1.20
  -4   4  -1   16.00    1.20
  -4   4  -1   17.80    1.30
  -5   4  -1   13.90    1.20
  -5   4  -1   15.00    1.80
  -5   4  -1   15.70    1.30
  -6   4  -1   15.70    1.60
  -6   4  -1   14.20    2.10
  -6   4  -1   15.80    1.50
  -6   4  -1   13.40    1.20
  -7   4  -1    1.00    1.10
  -7   4  -1   -0.20    1.20
  -7   4  -1   -0.20    1.10
 -10  -3   1    4.00    0.70
 -10  -3   1    6.10    1.30
 -10  -3   1    5.70    1.00
  -9  -3   1    3.60    1.00
  -9  -3   1    3.90    0.90
   8   3  -1    2.80    1.00
  -8  -3   1    2.40    0.70
  -8  -3   1    2.50    0.50
  -8  -3   1    2.60    0.70
   7   3  -1   30.70    1.90
  -7  -3   1   29.50    1.60
  -7  -3   1   30.10    1.50
  -7  -3   1   30.30    1.20
   6   3  -1   91.29    3.30
  -6  -3   1   84.69    2.90
  -6  -3   1   93.19    2.90
  -6  -3   1   91.79    3.10
  -6  -3   1   90.69    2.50
   5   3  -1    0.50    0.20
   5   3  -1    0.70    0.30
   5   3  -1    1.10    0.40
  -5  -3   1    0.80    0.30
  -5  -3   1    1.40    0.40
  -5  -3   1    0.50    0.30
  -5  -3   1    0.70    0.40
   4   3  -1    4.50    0.70
   4   3  -1    5.10    0.50
   4   3  -1    5.10    0.40
  -4  -3   1    5.30    0.70
  -4  -3   1    5.20    0.40
  -4  -3   1    5.30    0.50
  -4  -3   1    5.70    0.60
   3   3  -1   51.09    2.00
   3   3  -1   52.79    1.70
   3   3  -1   50.09    1.70
   3   3  -1   53.99    1.50
  -3  -3   1   57.59    1.70
  -3  -3   1   54.69    2.00
  -3  -3   1   55.99    1.60
   2   3  -1  991.70   23.00
   2   3  -1  984.70   23.30
  -2  -3   1  998.30   23.10
  -2  -3   1  953.70   22.80
  -2  -3   1 1061.09   23.70
   1   3  -1   18.20    0.90
   1   3  -1   18.60    0.80
  -1  -3   1   18.10    0.90
  -1  -3   1   19.50    1.00
  -1  -3   1   18.50    0.80
  -1  -3   1   19.00    0.90
   0   3  -1   56.39    1.70
   0   3  -1   52.99    1.90
   0  -3   1   48.90    1.70
   0  -3   1   48.20    1.90
   0  -3   1   51.99    1.70
   0  -3   1   52.79    1.90
  -1   3  -1  170.48    4.60
  -1   3  -1  169.58    4.40
  -1   3  -1  166.08    4.70
   1  -3   1  165.98    4.30
   1  -3   1  163.78    4.80
   1  -3   1  167.68    4.40
  -2   3  -1  220.58    5.70
  -2   3  -1  213.98    5.50
  -2   3  -1  215.28    6.10
  -2   3  -1  228.28    5.60
   2  -3   1  218.68    5.50
   2  -3   1  217.58    5.40
   2  -3   1  189.58    6.10
  -3   3  -1   54.29    2.50
  -3   3  -1   55.79    2.00
  -3   3  -1   54.89    1.90
  -3   3  -1   55.29    2.00
   3  -3   1   55.29    1.50
   3  -3   1   55.59    1.70
  -4   3  -1   40.10    2.20
  -4   3  -1   38.70    1.60
  -4   3  -1   39.80    1.60
  -4   3  -1   42.30    1.70
  -5   3  -1    9.40    2.20
  -5   3  -1    8.50    0.90
  -5   3  -1    7.40    0.80
  -5   3  -1    6.90    0.90
  -6   3  -1   -0.50    0.50
  -6   3  -1    0.00    0.50
  -6   3  -1   -0.70    0.80
  -6   3  -1   -1.10    0.60
  -6   3  -1   -0.10    0.60
  -7   3  -1   16.60    2.10
  -7   3  -1   18.50    1.50
 -10  -2   1    4.10    1.40
 -10  -2   1    4.70    0.70
 -10  -2   1    4.70    1.30
  -9  -2   1    0.40    0.60
  -9  -2   1   -0.60    0.80
  -9  -2   1    0.60    0.50
  -8  -2   1   13.10    1.20
  -8  -2   1   13.90    1.10
  -8  -2   1   14.40    0.80
  -7  -2   1   10.80    0.70
  -7  -2   1   11.20    1.00
  -7  -2   1    9.30    0.90
   6   2  -1  134.79    4.20
  -6  -2   1  142.39    4.00
  -6  -2   1  137.09    3.90
  -6  -2   1  133.19    3.50
   5   2  -1    1.70    0.50
  -5  -2   1    1.50    0.30
  -5  -2   1    2.10    0.40
   4   2  -1 1236.98   29.10
   4   2  -1 1266.67   28.50
   4   2  -1 1256.17   28.40
  -4  -2   1 1267.57   28.50
  -4  -2   1 1267.97   28.70
  -4  -2   1 1238.08   28.90
   3   2  -1   89.49    2.70
   3   2  -1   87.99    2.30
   3   2  -1   91.39    2.40
  -3  -2   1   88.19    2.50
  -3  -2   1   91.19    2.70
  -3  -2   1   84.49    2.50
  -3  -2   1   92.29    2.30
   2   2  -1    0.20    0.10
   2   2  -1   -0.10    0.10
   2   2  -1    0.80    0.20
   2   2  -1    0.20    0.20
  -2  -2   1    0.20    0.10
  -2  -2   1    0.10    0.20
  -2  -2   1    0.30    0.20
  -2  -2   1   -0.10    0.20
   1   2  -1  737.23   17.00
   0   2  -1   21.70    0.80
   0   2  -1   21.40    0.90
   0   2  -1   23.00    1.00
   0   2  -1   22.80    0.90
   0  -2   1   21.70    0.90
   0  -2   1   23.80    1.00
   0  -2   1   21.70    0.90
   0  -2   1   22.10    0.80
  -1   2  -1  680.63   15.80
  -1   2  -1  670.93   15.90
  -1   2  -1  688.83   15.60
  -1   2  -1  698.43   15.60
   1  -2   1  666.93   15.60
   1  -2   1  634.84   16.00
   1  -2   1  693.93   15.60
  -2   2  -1  308.77    8.10
  -2   2  -1  317.07    7.50
  -2   2  -1  321.97    7.70
  -2   2  -1  318.27    7.60
   2  -2   1  322.17    7.50
   2  -2   1  286.37    8.10
   2  -2   1  322.87    7.40
  -3   2  -1  162.98    4.90
  -3   2  -1  155.68    4.10
  -3   2  -1  163.08    4.20
  -4   2  -1    8.50    0.70
  -4   2  -1    8.10    0.60
  -4   2  -1   11.10    1.10
  -5   2  -1    7.40    0.70
  -5   2  -1    4.60    0.80
  -6   2  -1   25.60    1.40
  -6   2  -1   27.60    1.30
  -6   2  -1   26.10    1.30
  -7   2  -1    4.90    0.90
  -7   2  -1    4.30    0.70
  -7   2  -1    4.90    0.80
  -7   2  -1    2.70    1.00
  -7   2  -1    4.20    0.80
  -8   2  -1   12.50    1.30
  -8   2  -1   11.10    1.20
  -8   2  -1   12.90    2.10
  -9  -1   1   16.60    1.10
  -9  -1   1   14.50    2.00
  -9  -1   1   15.90    1.50
  -8  -1   1   -0.40    0.40
  -8  -1   1   -0.10    0.60
  -7  -1   1   33.50    1.40
  -7  -1   1   31.00    1.50
  -7  -1   1   32.80    1.30
  -6  -1   1   22.10    1.10
  -6  -1   1   18.90    0.90
  -6  -1   1   20.00    1.00
   5   1  -1   43.50    1.70
  -5  -1   1   45.20    1.60
  -5  -1   1   45.60    1.60
  -5  -1   1   45.80    1.40
   4   1  -1  181.58    4.70
  -4  -1   1  179.28    4.60
  -4  -1   1  179.48    4.50
  -4  -1   1  178.98    4.40
   3   1  -1  233.38    5.40
   3   1  -1  228.08    5.40
   3   1  -1  232.68    5.70
  -3  -1   1  234.58    5.60
  -3  -1   1  232.28    5.70
  -3  -1   1  230.98    5.60
   2   1  -1   59.29    1.70
   2   1  -1   58.49    1.50
   2   1  -1   58.09    1.60
  -2  -1   1   60.19    1.60
  -2  -1   1   58.79    1.70
  -2  -1   1   58.09    1.60
   1   1  -1   72.49    1.90
   1   1  -1   73.39    1.90
   1   1  -1   71.69    2.00
   1   1  -1   70.99    1.80
  -1  -1   1   72.09    1.90
  -1  -1   1   73.89    2.00
  -1  -1   1   72.69    1.80
  -1  -1   1   73.49    1.90
   0   1  -1   18.90    0.60
   0   1  -1   18.60    0.70
   0   1  -1   19.50    0.60
   0  -1   1   15.60    0.60
   0  -1   1   20.00    0.70
  -1   1  -1   77.09    2.30
  -1   1  -1   78.39    2.00
  -1   1  -1   82.19    2.00
   1  -1   1   81.59    2.00
   1  -1   1   81.19    2.30
   1  -1   1   80.09    2.00
  -2   1  -1  175.28    4.80
  -2   1  -1  183.08    4.30
  -2   1  -1  183.88    4.30
  -3   1  -1  893.61   21.80
  -3   1  -1  938.31   21.10
  -3   1  -1  937.91   21.00
  -4   1  -1   83.69    2.30
  -4   1  -1   80.49    3.00
  -5   1  -1   29.10    1.80
  -5   1  -1   31.10    1.10
  -5   1  -1   29.70    1.20
  -5   1  -1   27.50    1.40
  -6   1  -1  148.89    4.40
  -6   1  -1  146.99    5.20
  -6   1  -1  150.58    3.90
  -6   1  -1  152.68    4.10
  -7   1  -1   81.99    3.80
  -7   1  -1   81.49    2.50
  -8   1  -1    7.50    1.00
  -8   1  -1    6.50    0.90
  -8   1  -1    7.90    1.70
  -9   1  -1   -0.10    0.80
  -9   1  -1    0.60    1.20
  -9   1  -1   -0.30    1.00
  -9   0   1    0.80    1.00
  -9   0   1    0.40    0.70
  -9   0   1    1.40    1.30
  -8   0   1   21.90    2.20
  -8   0   1   24.50    1.30
  -8   0   1   22.20    1.60
  -7   0   1   11.40    0.90
  -7   0   1   11.00    1.10
  -6   0   1   14.70    0.90
  -5   0   1  164.38    4.30
  -5   0   1  165.38    4.20
  -5   0   1  163.38    4.20
  -4   0   1    2.60    0.40
  -4   0   1    1.80    0.40
  -4   0   1    2.40    0.30
  -3   0   1   48.50    1.40
  -3   0   1   48.10    1.40
  -2   0   1 1494.15   77.59
   1   0  -1    0.00    0.10
  -1   0  -1 1147.29   40.10
   1   0   1 1281.97   39.60
  -2   0  -1  699.53   16.20
  -3   0  -1  566.64   13.90
  -3   0  -1  595.24   13.70
  -4   0  -1   79.99    2.50
  -4   0  -1   74.29    2.70
  -5   0  -1  122.19    3.60
  -5   0  -1  116.39    4.00
  -6   0  -1  152.98    3.90
  -6   0  -1  157.38    5.10
  -7   0  -1   25.80    2.00
  -7   0  -1   27.80    1.10
  -7   0  -1   25.40    1.20
  -7   0  -1   28.80    1.50
  -8   0  -1   41.70    1.60
  -8   0  -1   38.70    1.90
  -8   0  -1   43.20    1.90
  -8   0  -1   47.10    2.80
  -9   0  -1    0.00    1.00
  -9   0  -1    1.30    0.60
  -9   0  -1    2.90    0.90
  -9   1   1    1.90    1.30
  -9   1   1    0.80    1.30
  -8   1   1    0.60    0.90
  -8   1   1    0.80    0.80
  -8   1   1   -0.10    0.90
  -7   1   1  170.18    4.70
  -7   1   1  166.18    6.20
  -7   1   1  177.88    5.00
  -6   1   1  205.58    6.70
  -6   1   1  203.98    5.60
  -6   1   1  208.08    5.40
  -5   1   1   43.10    1.80
  -5   1   1   42.90    1.60
  -4   1   1    4.10    0.60
  -4   1   1    3.90    0.50
  -3   1   1    9.20    0.60
  -3   1   1   10.00    0.60
   2  -1  -1  431.06   10.30
   2  -1  -1  447.96   10.20
  -2   1   1  451.15   10.50
  -2   1   1  450.15   10.40
   1  -1  -1  620.24   14.00
   1  -1  -1  615.84   14.20
   1  -1  -1  620.64   14.20
  -1   1   1  616.94   14.00
  -1   1   1  622.94   14.20
  -1   1   1  617.64   14.30
   0  -1  -1  207.98    5.00
   0  -1  -1  212.78    5.00
   0   1   1  211.18    5.00
   0   1   1  208.08    5.00
  -1  -1  -1  470.25    9.40
   1   1   1  348.07    9.30
  -2  -1  -1   42.50    1.10
  -2  -1  -1   42.60    1.00
  -2  -1  -1   43.00    1.40
   2   1   1   43.60    1.50
  -3  -1  -1  195.08    5.00
   3   1   1  189.08    5.00
  -4  -1  -1    4.90    0.60
  -5  -1  -1  224.88    6.00
  -6  -1  -1   12.50    0.70
  -6  -1  -1   10.80    0.60
  -6  -1  -1   11.70    1.00
  -7  -1  -1  175.18    4.50
  -7  -1  -1  177.68    5.80
  -7  -1  -1  184.78    5.20
  -7  -1  -1  181.28    4.40
  -8  -1  -1   23.30    1.00
  -8  -1  -1   23.50    1.20
  -8  -1  -1   24.30    1.40
  -8  -1  -1   22.30    1.90
  -9  -1  -1   46.90    1.60
  -9  -1  -1   53.19    3.00
  -9  -1  -1   48.00    2.10
  -9  -1  -1   44.30    1.90
  -8   2   1    6.40    1.30
  -8   2   1    3.70    1.10
  -8   2   1    4.10    1.60
  -7   2   1    3.60    0.90
  -7   2   1    3.20    1.30
  -7   2   1    3.00    0.80
  -6   2   1  123.19    3.70
  -6   2   1  128.29    4.00
  -6   2   1  115.79    4.80
  -5   2   1   55.29    2.10
  -5   2   1   49.10    2.70
  -5   2   1   52.99    2.00
  -4   2   1   73.79    2.30
  -4   2   1   75.19    2.50
  -4   2   1   72.99    3.10
   3  -2  -1   70.69    1.90
   3  -2  -1   68.99    1.80
  -3   2   1   66.89    2.30
  -3   2   1   70.29    2.10
  -3   2   1   65.19    2.70
  -3   2   1   71.09    1.90
   2  -2  -1   17.90    0.80
   2  -2  -1   19.00    0.70
  -2   2   1   20.40    1.00
  -2   2   1   19.40    0.70
  -2   2   1   17.60    0.80
   1  -2  -1   33.40    1.10
   1  -2  -1   34.40    1.30
   1  -2  -1   35.90    1.10
  -1   2   1   34.10    1.30
  -1   2   1   32.30    1.40
  -1   2   1   35.00    1.20
  -1   2   1   35.20    1.10
   0  -2  -1 9533.75  320.17
   0   2   1 9999.00  319.67
  -1  -2  -1   27.30    0.90
  -1  -2  -1   29.70    1.00
  -1  -2  -1   28.90    1.10
  -1  -2  -1   27.20    1.00
   1   2   1   28.30    1.00
   1   2   1   29.40    0.90
   1   2   1   27.90    1.00
   1   2   1   27.50    1.10
  -2  -2  -1 1384.56   86.19
   2   2   1 1404.76   97.29
  -3  -2  -1   92.19    2.40
  -3  -2  -1   90.99    2.40
  -3  -2  -1   94.79    2.80
  -3  -2  -1   91.69    2.40
   3   2   1   96.59    2.30
   3   2   1   95.79    2.20
   3   2   1   92.69    2.90
  -4  -2  -1  131.39    3.80
  -4  -2  -1  125.09    3.10
  -4  -2  -1  124.79    3.20
   4   2   1  131.09    3.90
  -5  -2  -1   30.80    1.00
  -5  -2  -1   31.60    0.90
  -5  -2  -1   33.60    1.50
   5   2   1   31.60    1.60
  -6  -2  -1    2.60    0.40
  -6  -2  -1    2.30    0.60
  -6  -2  -1    2.50    0.30
   6   2   1    2.60    0.70
  -7  -2  -1  134.19    4.20
  -7  -2  -1  132.69    3.50
  -7  -2  -1  129.09    3.30
  -8  -2  -1    1.70    0.30
  -8  -2  -1    0.90    0.60
  -9  -2  -1    0.90    0.90
  -9  -2  -1    1.40    0.40
  -9  -2  -1    1.20    0.60
  -9  -2  -1    0.90    0.70
 -10  -2  -1   25.60    2.40
 -10  -2  -1   24.40    1.70
 -10  -2  -1   23.10    1.10
 -10  -2  -1   27.40    1.80
  -7   3   1    3.10    1.20
  -7   3   1    6.50    1.20
  -7   3   1    6.40    1.20
  -6   3   1    2.50    0.90
  -6   3   1    1.00    0.80
  -5   3   1    0.30    0.60
  -5   3   1    0.60    0.60
  -5   3   1    0.20    0.80
  -4   3   1    1.20    0.30
  -4   3   1    1.00    0.50
  -4   3   1    2.00    0.60
  -4   3   1    1.50    0.80
   3  -3  -1    0.90    0.30
   3  -3  -1    0.20    0.30
  -3   3   1    0.90    0.40
  -3   3   1    1.10    0.30
  -3   3   1    0.60    0.40
  -3   3   1    0.40    0.50
   2  -3  -1    9.10    0.60
   2  -3  -1    7.40    0.70
  -2   3   1    8.50    0.70
  -2   3   1    9.30    0.80
  -2   3   1    8.70    0.60
   1  -3  -1    2.70    0.40
   1  -3  -1    2.60    0.40
   1  -3  -1    1.90    0.50
  -1   3   1    2.30    0.40
  -1   3   1    2.40    0.50
  -1   3   1    1.50    0.40
  -1   3   1    2.40    0.40
   0  -3  -1 1606.74  124.59
   0   3   1 2181.68  139.29
  -1  -3  -1   78.69    2.40
  -1  -3  -1   79.89    2.40
  -1  -3  -1   75.99    2.30
  -1  -3  -1   77.09    2.30
   1   3   1   76.09    2.40
   1   3   1   77.49    2.20
   1   3   1   75.79    2.30
   1   3   1   76.99    2.30
  -2  -3  -1   13.00    0.80
  -2  -3  -1   13.00    0.70
  -2  -3  -1   13.50    0.70
  -2  -3  -1   13.60    0.60
   2   3   1   13.10    0.70
   2   3   1   13.50    0.50
   2   3   1   12.90    0.60
  -3  -3  -1   64.49    2.00
  -3  -3  -1   66.39    1.90
  -3  -3  -1   65.49    2.30
   3   3   1   65.89    2.30
   3   3   1   66.79    1.70
   3   3   1   64.09    1.90
   3   3   1   63.49    1.80
  -4  -3  -1  251.27    6.00
  -4  -3  -1  259.87    6.70
  -4  -3  -1  246.28    6.20
   4   3   1  246.58    6.00
   4   3   1  247.88    5.90
   4   3   1  252.37    6.80
  -5  -3  -1   24.60    1.40
  -5  -3  -1   23.30    1.00
  -5  -3  -1   25.70    0.90
  -5  -3  -1   23.30    1.00
   5   3   1   23.40    1.50
  -6  -3  -1    4.00    0.70
  -6  -3  -1    4.30    0.70
  -6  -3  -1    4.20    0.40
   6   3   1    4.10    0.90
  -7  -3  -1  119.79    4.00
  -7  -3  -1  118.89    3.10
  -7  -3  -1  120.69    3.30
   7   3   1  118.69    4.20
  -8  -3  -1   30.30    1.40
  -8  -3  -1   30.80    1.80
  -8  -3  -1   30.80    1.10
  -9  -3  -1    6.00    0.60
  -9  -3  -1    5.50    1.00
  -9  -3  -1    5.70    0.90
 -10  -3  -1    6.70    1.10
 -10  -3  -1    9.30    1.30
 -10  -3  -1    8.50    1.50
 -10  -3  -1    9.30    0.80
  -7   4   1    0.30    1.10
  -7   4   1    0.80    1.30
  -7   4   1   -0.50    1.30
  -6   4   1    1.70    1.00
  -6   4   1    1.40    1.20
  -6   4   1    0.30    0.90
  -5   4   1   69.49    3.60
  -5   4   1   69.39    2.90
  -5   4   1   66.89    2.80
  -4   4   1    9.30    1.10
  -4   4   1    9.30    0.80
  -4   4   1   13.00    1.30
  -4   4   1    9.20    1.70
   3  -4  -1   89.89    2.80
   3  -4  -1   95.59    2.80
  -3   4   1   91.29    2.80
  -3   4   1   91.19    3.70
  -3   4   1   95.69    3.10
  -3   4   1   92.39    3.20
   2  -4  -1  132.29    3.60
   2  -4  -1  124.79    3.80
  -2   4   1  136.99    4.00
  -2   4   1  127.99    3.80
  -2   4   1  126.19    4.40
  -2   4   1  126.19    3.70
   1  -4  -1   39.00    1.50
   1  -4  -1   40.50    1.70
  -1   4   1   39.40    1.70
  -1   4   1   40.20    1.60
  -1   4   1   37.20    1.60
  -1   4   1   39.30    1.90
   0  -4  -1    9.10    0.90
   0  -4  -1   10.10    0.80
   0  -4  -1    9.30    0.80
   0  -4  -1    9.30    0.80
   0   4   1    9.10    0.80
   0   4   1   10.20    0.90
   0   4   1    9.70    0.80
   0   4   1   10.20    0.80
  -1  -4  -1  152.38    4.30
  -1  -4  -1  154.98    4.40
  -1  -4  -1  152.68    4.20
  -1  -4  -1  147.59    4.30
   1   4   1  155.88    4.20
   1   4   1  149.09    4.40
   1   4   1  153.58    4.10
  -2  -4  -1  269.67    6.80
  -2  -4  -1  270.07    6.90
  -2  -4  -1  274.37    7.10
  -2  -4  -1  272.57    6.80
   2   4   1  273.67    6.70
   2   4   1  267.37    7.20
   2   4   1  265.27    6.90
   2   4   1  277.67    6.60
  -3  -4  -1    1.60    0.30
  -3  -4  -1    0.70    0.30
  -3  -4  -1    1.20    0.40
  -3  -4  -1    1.00    0.40
   3   4   1    1.20    0.40
   3   4   1    1.20    0.40
   3   4   1    2.00    0.30
  -4  -4  -1  267.67    6.80
  -4  -4  -1  271.37    6.40
  -4  -4  -1  268.17    7.30
  -4  -4  -1  266.47    6.70
   4   4   1  264.57    7.40
   4   4   1  265.37    6.70
   4   4   1  269.87    6.50
  -5  -4  -1   57.89    1.70
  -5  -4  -1   56.19    1.90
  -5  -4  -1   53.69    1.80
  -5  -4  -1   54.49    2.30
   5   4   1   54.39    1.70
   5   4   1   55.19    2.50
   5   4   1   55.89    1.60
  -6  -4  -1   66.89    2.70
  -6  -4  -1   67.39    2.20
  -6  -4  -1   65.49    2.00
   6   4   1   65.19    2.90
  -7  -4  -1  161.58    4.40
  -7  -4  -1  156.68    4.30
  -7  -4  -1  164.08    5.10
  -7  -4  -1  159.28    4.20
   7   4   1  154.28    5.30
  -8  -4  -1   11.70    1.50
  -8  -4  -1   10.20    1.00
  -8  -4  -1    8.60    0.70
  -8  -4  -1    8.60    0.90
   8   4   1    9.70    1.50
  -9  -4  -1   16.60    1.30
  -9  -4  -1   18.60    1.60
  -9  -4  -1   15.40    1.00
  -9  -4  -1   17.80    1.40
 -10  -4  -1    3.60    1.00
 -10  -4  -1    4.80    1.10
  -6   5   1    1.90    1.20
  -6   5   1    2.80    1.20
  -6   5   1    2.70    1.40
  -5   5   1   17.40    1.80
  -5   5   1   16.80    1.80
  -5   5   1   12.50    1.70
   4  -5  -1    0.20    0.40
  -4   5   1   -0.30    0.50
  -4   5   1    0.30    0.70
  -4   5   1   -0.20    0.60
  -4   5   1    1.20    0.80
   3  -5  -1   32.70    1.50
   3  -5  -1   35.00    1.70
  -3   5   1   32.00    2.20
  -3   5   1   32.10    1.80
  -3   5   1   32.00    1.60
  -3   5   1   33.00    1.80
   2  -5  -1   21.60    1.40
   2  -5  -1   18.50    1.20
  -2   5   1   20.50    1.40
  -2   5   1   21.00    1.60
  -2   5   1   19.10    1.30
  -2   5   1   18.10    1.40
   1  -5  -1   65.39    2.60
   1  -5  -1   66.99    2.30
   1  -5  -1   66.39    2.50
  -1   5   1   67.19    2.80
  -1   5   1   66.19    2.50
  -1   5   1   66.29    2.50
  -1   5   1   65.89    2.50
   0  -5  -1   35.50    1.80
   0  -5  -1   41.30    2.10
   0  -5  -1   39.00    1.80
   0  -5  -1   40.70    1.70
   0   5   1   38.30    1.70
   0   5   1   42.00    1.80
   0   5   1   40.20    1.90
   0   5   1   39.90    1.90
  -1  -5  -1    3.60    0.60
  -1  -5  -1    4.30    0.70
  -1  -5  -1    4.90    0.80
  -1  -5  -1    5.10    0.80
   1   5   1    6.00    0.90
   1   5   1    6.40    0.70
   1   5   1    4.10    0.60
   1   5   1    5.10    0.70
  -2  -5  -1  164.68    4.70
  -2  -5  -1  161.48    4.60
  -2  -5  -1  162.78    4.70
   2   5   1  164.18    4.40
   2   5   1  155.98    4.90
   2   5   1  169.28    4.40
   2   5   1  161.98    4.60
  -3  -5  -1   15.00    1.00
  -3  -5  -1   14.90    1.10
  -3  -5  -1   16.40    1.20
  -3  -5  -1   16.30    0.90
   3   5   1   13.50    1.20
   3   5   1   14.90    1.00
   3   5   1   16.20    0.90
  -4  -5  -1  194.78    5.70
  -4  -5  -1  188.88    5.20
  -4  -5  -1  195.28    4.90
  -4  -5  -1  183.98    5.20
   4   5   1  192.98    4.90
   4   5   1  190.08    4.80
   4   5   1  190.18    5.80
   4   5   1  186.98    5.20
  -5  -5  -1  146.59    3.80
  -5  -5  -1  147.99    4.10
  -5  -5  -1  144.49    4.20
  -5  -5  -1  142.69    4.70
   5   5   1  146.79    4.10
   5   5   1  145.49    3.70
  -6  -5  -1   76.59    2.20
  -6  -5  -1   73.99    3.00
  -6  -5  -1   74.79    2.40
  -6  -5  -1   71.79    2.50
   6   5   1   73.69    3.20
   6   5   1   73.89    2.30
   6   5   1   73.19    2.10
  -7  -5  -1    4.20    0.70
  -7  -5  -1    4.20    0.70
  -7  -5  -1    3.90    0.50
  -7  -5  -1    2.60    0.70
   7   5   1    3.80    1.00
  -8  -5  -1    8.50    1.00
  -8  -5  -1    7.70    1.20
  -8  -5  -1    8.60    0.80
   8   5   1   10.50    1.70
  -9  -5  -1   16.40    1.70
  -9  -5  -1   18.00    1.40
  -9  -5  -1   17.50    1.20
  -9  -5  -1   16.20    1.20
   9   5   1   14.50    2.00
 -10  -5  -1    0.90    0.90
 -10  -5  -1    0.50    0.90
 -10  -5  -1    0.50    0.80
 -10  -5  -1    0.60    0.70
  -5   6   1    1.30    0.90
  -5   6   1    1.80    1.10
  -5   6   1    1.60    1.30
  -5   6   1    2.10    1.50
   4  -6  -1   -0.30    0.60
   4  -6  -1    0.80    0.50
  -4   6   1    0.50    0.70
  -4   6   1    0.60    0.80
  -4   6   1    0.10    1.10
  -4   6   1    0.00    0.80
   3  -6  -1   87.99    2.90
   3  -6  -1   84.89    3.20
  -3   6   1   85.79    3.30
  -3   6   1   87.99    3.90
  -3   6   1   93.59    3.60
  -3   6   1   84.29    3.20
   2  -6  -1    1.90    0.90
   2  -6  -1    2.30    0.70
  -2   6   1    1.90    0.70
  -2   6   1    1.50    0.70
  -2   6   1    1.90    0.80
  -2   6   1    0.90    0.80
   1  -6  -1   20.70    1.30
   1  -6  -1   23.40    1.70
  -1   6   1   25.30    1.50
  -1   6   1   21.40    1.60
  -1   6   1   21.70    1.50
  -1   6   1   21.50    1.60
   0  -6  -1   65.09    2.40
   0  -6  -1   66.69    2.80
   0  -6  -1   63.09    2.60
   0   6   1   62.09    2.70
   0   6   1   65.79    2.50
   0   6   1   62.59    2.60
   0   6   1   59.69    2.50
  -1  -6  -1    8.10    1.00
  -1  -6  -1    7.10    0.90
  -1  -6  -1    6.90    1.00
  -1  -6  -1    9.00    1.20
   1   6   1    6.00    0.80
   1   6   1    5.70    0.90
   1   6   1    6.50    0.90
   1   6   1    5.70    0.90
  -2  -6  -1   81.79    2.80
  -2  -6  -1   80.19    3.00
  -2  -6  -1   75.19    2.90
  -2  -6  -1   77.39    3.00
   2   6   1   81.29    2.70
   2   6   1   82.09    2.60
   2   6   1   80.59    2.90
  -3  -6  -1    0.40    0.50
  -3  -6  -1    0.60    0.40
  -3  -6  -1    0.50    0.40
  -3  -6  -1    0.10    0.40
   3   6   1    0.90    0.30
   3   6   1    0.90    0.50
  -4  -6  -1  234.48    6.60
  -4  -6  -1  242.88    7.10
  -4  -6  -1  234.98    6.60
  -4  -6  -1  241.98    6.40
   4   6   1  246.58    6.20
   4   6   1  248.38    6.70
   4   6   1  254.47    6.20
   4   6   1  243.18    7.30
  -5  -6  -1    2.60    0.70
  -5  -6  -1    1.50    0.60
  -5  -6  -1    2.80    0.50
  -5  -6  -1    2.30    0.70
   5   6   1    3.20    0.60
   5   6   1    2.90    0.50
   5   6   1    2.70    0.70
   5   6   1    1.80    0.80
  -6  -6  -1   50.59    2.20
  -6  -6  -1   50.29    2.60
  -6  -6  -1   54.09    2.20
  -6  -6  -1   52.79    1.80
   6   6   1   48.20    2.70
   6   6   1   52.69    2.10
   6   6   1   53.99    1.70
  -7  -6  -1   29.60    1.60
  -7  -6  -1   35.80    2.40
  -7  -6  -1   30.00    1.60
  -7  -6  -1   29.10    1.20
   7   6   1   28.00    1.30
   7   6   1   30.40    2.40
  -8  -6  -1    5.60    1.00
  -8  -6  -1    7.70    1.00
  -8  -6  -1    6.30    0.70
  -8  -6  -1    6.00    1.00
  -9  -6  -1    0.50    0.80
  -9  -6  -1   -0.20    0.40
  -9  -6  -1   -0.20    0.80
  -9  -6  -1    0.40    0.90
   9   6   1    0.60    1.30
 -10  -6  -1    1.50    1.00
 -10  -6  -1    1.10    1.00
 -10  -6  -1    2.20    1.10
 -10  -6  -1    1.70    1.00
  10   6   1    2.80    2.00
  -4   7   1    0.70    1.20
  -4   7   1    2.10    1.10
  -4   7   1    7.50    1.60
   3  -7  -1    5.30    1.00
  -3   7   1    5.60    1.20
  -3   7   1    8.40    1.70
  -3   7   1    2.90    1.00
  -3   7   1    5.50    1.20
   2  -7  -1    2.30    0.80
   2  -7  -1    1.90    1.20
  -2   7   1    2.80    1.00
  -2   7   1    1.10    0.80
  -2   7   1    1.20    0.90
  -2   7   1    1.50    1.10
   1  -7  -1    1.00    0.60
   1  -7  -1    1.30    1.00
  -1   7   1   -0.10    0.70
  -1   7   1    0.70    0.70
  -1   7   1    0.20    0.80
  -1   7   1    0.40    0.70
   0  -7  -1   24.50    1.60
   0  -7  -1   26.00    1.70
   0  -7  -1   24.20    1.90
   0   7   1   25.40    1.60
   0   7   1   22.70    1.80
   0   7   1   26.10    1.80
   0   7   1   23.60    1.70
  -1  -7  -1   72.59    2.80
  -1  -7  -1   75.39    3.10
  -1  -7  -1   70.79    3.10
  -1  -7  -1   66.59    3.20
   1   7   1   72.09    2.80
   1   7   1   70.89    3.20
   1   7   1   79.19    2.90
  -2  -7  -1   20.30    1.60
  -2  -7  -1   22.40    1.70
  -2  -7  -1   22.20    1.70
  -2  -7  -1   24.10    1.50
   2   7   1   23.80    1.30
   2   7   1   23.30    1.60
   2   7   1   21.90    1.80
   2   7   1   23.40    1.30
  -3  -7  -1    6.20    1.10
  -3  -7  -1    4.80    1.00
  -3  -7  -1    4.50    0.90
  -3  -7  -1    3.80    0.80
   3   7   1    5.20    0.70
   3   7   1    3.60    1.00
   3   7   1    4.60    0.90
  -4  -7  -1   15.50    1.50
  -4  -7  -1   18.00    1.30
  -4  -7  -1   17.30    1.50
  -4  -7  -1   19.30    1.40
   4   7   1   18.40    1.00
   4   7   1   16.70    1.40
   4   7   1   18.60    1.10
  -5  -7  -1   -0.30    0.50
  -5  -7  -1   -0.50    0.60
  -5  -7  -1   -0.20    0.40
  -5  -7  -1   -0.10    0.60
   5   7   1    0.00    0.30
   5   7   1   -0.10    0.70
   5   7   1    0.10    0.40
   5   7   1   -0.30    0.60
  -6  -7  -1    5.20    1.10
  -6  -7  -1    3.70    0.90
  -6  -7  -1    2.40    0.80
  -6  -7  -1    3.40    0.60
   6   7   1    3.00    0.50
   6   7   1    3.80    0.90
   6   7   1   -0.10    0.90
  -7  -7  -1    7.50    1.20
  -7  -7  -1    5.60    1.10
  -7  -7  -1    6.20    0.80
  -7  -7  -1    5.60    1.10
   7   7   1    7.20    1.00
   7   7   1    7.20    0.70
  -8  -7  -1   12.30    1.40
  -8  -7  -1   15.30    1.90
  -8  -7  -1   14.10    1.60
  -8  -7  -1   13.10    1.00
   8   7   1   15.90    2.60
   8   7   1   14.90    1.10
  -9  -7  -1    1.50    0.90
  -9  -7  -1    2.20    1.00
  -9  -7  -1    2.50    0.60
  -9  -7  -1    1.60    1.10
   9   7   1    1.60    1.50
 -10  -7  -1   -0.70    1.60
 -10  -7  -1    0.40    1.20
 -10  -7  -1    0.50    1.10
 -10  -7  -1   -0.50    0.60
   3  -8  -1   -0.50    1.00
   3  -8  -1    1.10    1.60
  -3   8   1   -1.10    1.40
  -3   8   1    2.20    1.50
   2  -8  -1    2.10    1.60
   2  -8  -1    0.40    1.00
  -2   8   1    0.10    0.90
  -2   8   1    0.00    0.90
  -2   8   1    0.30    1.20
   1  -8  -1   37.00    2.20
  -1   8   1   42.70    2.30
  -1   8   1   39.90    2.80
  -1   8   1   36.30    2.40
  -1   8   1   41.50    2.90
   0  -8  -1    3.10    0.90
   0   8   1    3.40    1.20
   0   8   1    3.10    0.90
   0   8   1    3.10    0.80
   0   8   1    1.60    1.10
  -1  -8  -1    0.60    0.70
  -1  -8  -1    0.60    0.70
   1   8   1    0.80    0.60
   1   8   1    0.00    1.10
   1   8   1    0.70    1.00
   1   8   1    0.90    0.60
  -2  -8  -1   15.00    1.70
  -2  -8  -1   13.30    1.40
  -2  -8  -1   13.70    1.70
   2   8   1   14.10    1.20
   2   8   1   16.90    1.20
   2   8   1   14.90    1.80
  -3  -8  -1    2.00    0.90
  -3  -8  -1    2.40    0.80
  -3  -8  -1    1.90    0.80
   3   8   1    1.40    0.50
   3   8   1    3.70    1.20
  -4  -8  -1   90.39    3.40
  -4  -8  -1   86.09    3.50
  -4  -8  -1   93.19    3.90
   4   8   1   89.69    2.90
   4   8   1   87.39    2.90
  -5  -8  -1   13.50    1.70
  -5  -8  -1   11.20    1.40
  -5  -8  -1   11.60    1.30
  -5  -8  -1   10.60    1.50
   5   8   1   11.90    1.50
   5   8   1   12.30    1.00
  -6  -8  -1   31.90    2.00
  -6  -8  -1   35.10    2.40
  -6  -8  -1   32.10    1.80
  -6  -8  -1   33.60    2.20
   6   8   1   30.50    1.60
   6   8   1   34.20    1.50
   6   8   1   34.50    2.20
   6   8   1   33.90    3.30
  -7  -8  -1    1.80    1.00
  -7  -8  -1    1.00    0.60
  -7  -8  -1    1.20    0.80
   7   8   1    1.60    1.00
   7   8   1    0.70    0.50
   7   8   1    0.40    1.10
  -8  -8  -1    0.40    0.60
  -8  -8  -1    0.70    0.90
  -8  -8  -1   -0.70    1.10
  -8  -8  -1   -0.30    0.80
   8   8   1   -0.40    0.50
   8   8   1    1.20    2.30
  -9  -8  -1    5.90    1.70
  -9  -8  -1    3.20    1.20
  -9  -8  -1    3.80    1.30
   1  -9  -1    1.40    1.20
   1  -9  -1   -0.40    2.00
  -1   9   1    1.20    1.00
   0  -9  -1   -0.50    1.70
   0  -9  -1   -0.40    0.90
   0   9   1    3.20    1.00
   0   9   1   -2.00    2.70
   0   9   1   -1.30    0.80
  -1  -9  -1    0.20    1.50
  -1  -9  -1    0.50    0.90
  -1  -9  -1    0.30    0.90
   1   9   1   -0.10    0.70
   1   9   1    1.00    0.80
   1   9   1    5.80    1.90
  -2  -9  -1    8.20    1.40
  -2  -9  -1   10.00    1.90
  -2  -9  -1   10.50    1.50
   2   9   1   11.60    1.30
   2   9   1    9.80    1.20
   2   9   1   14.10    2.10
  -3  -9  -1    0.20    1.00
  -3  -9  -1    0.20    0.80
  -3  -9  -1   -0.70    1.20
  -3  -9  -1    0.10    0.80
   3   9   1    0.80    0.70
   3   9   1    1.00    1.30
   3   9   1   -0.20    1.10
  -4  -9  -1    7.30    1.70
  -4  -9  -1    6.10    1.20
  -4  -9  -1    7.60    1.50
  -4  -9  -1    6.10    1.40
   4   9   1    6.00    1.50
   4   9   1    5.80    0.90
   4   9   1    6.60    0.90
   4   9   1    5.50    1.60
  -5  -9  -1    0.60    0.90
  -5  -9  -1   -0.20    0.90
  -5  -9  -1    0.70    1.20
  -5  -9  -1    1.10    0.80
   5   9   1   -0.40    0.50
   5   9   1    0.20    0.50
   5   9   1    0.50    1.20
   5   9   1    0.00    1.20
  -6  -9  -1    2.40    1.10
  -6  -9  -1    2.10    1.00
  -6  -9  -1    2.00    1.00
   6   9   1    1.10    1.30
   6   9   1    2.10    0.60
   6   9   1    3.20    0.80
  -7  -9  -1   -0.40    0.90
  -7  -9  -1   -0.70    0.90
   7   9   1    1.10    0.60
  -8  -9  -1    0.60    1.10
  -8  -9  -1    1.80    1.00
  -8  -9  -1    2.30    1.50
   8   9   1    2.30    1.30
   8   9   1    1.00    0.60
  -1 -10  -1   10.50    1.70
   1  10   1   11.90    1.50
   1  10   1   14.10    2.20
  -2 -10  -1    0.40    1.10
  -2 -10  -1    1.00    1.10
   2  10   1    0.30    0.80
  -3 -10  -1    4.80    1.30
  -3 -10  -1    5.90    1.50
   3  10   1    7.20    1.40
   3  10   1    8.50    1.20
  -4 -10  -1   14.90    2.30
  -4 -10  -1   15.30    2.10
  -4 -10  -1   11.40    1.70
   4  10   1   13.60    1.30
   4  10   1   11.70    1.30
  -5 -10  -1    2.20    1.40
  -5 -10  -1    3.90    1.30
   5  10   1    2.50    0.70
   5  10   1    1.50    0.70
  -6 -10  -1   24.30    2.70
  -6 -10  -1   26.00    2.60
  -6 -10  -1   20.80    2.50
   6  10   1   24.20    1.70
   6  10   1   22.80    1.50
  -7 -10  -1    7.60    1.50
  -7 -10  -1    5.70    1.60
  -7 -10  -1    6.00    1.50
   7  10   1    5.80    0.90
   6  10  -2    1.50    0.90
   6  10  -2    0.80    0.80
  -6 -10   2    1.40    1.60
  -6 -10   2    3.20    1.40
  -6 -10   2    2.50    2.50
   5  10  -2    3.20    1.00
   5  10  -2    2.50    1.00
  -5 -10   2    3.40    1.70
  -5 -10   2    3.50    1.40
  -5 -10   2    1.80    1.20
   4  10  -2    0.60    0.90
   4  10  -2    0.20    0.90
  -4 -10   2    2.80    2.10
  -4 -10   2    0.70    1.30
  -4 -10   2    1.40    1.30
   3  10  -2    7.10    1.10
   3  10  -2    4.00    1.00
   2  10  -2    4.40    1.00
   2  10  -2    3.80    1.00
  -2 -10   2    7.10    2.60
   8   9  -2   -0.70    1.70
   8   9  -2   -1.00    0.80
  -8  -9   2    0.50    1.10
  -8  -9   2   -0.30    1.20
  -8  -9   2    0.10    1.30
   7   9  -2    5.50    1.70
   7   9  -2    4.60    0.90
  -7  -9   2    3.80    1.40
  -7  -9   2    5.80    1.50
  -7  -9   2    4.30    1.10
   6   9  -2    2.60    1.50
   6   9  -2    2.60    0.70
   6   9  -2    1.80    0.80
  -6  -9   2    3.30    1.20
  -6  -9   2    3.30    1.20
  -6  -9   2    4.10    1.10
   5   9  -2    0.30    0.60
   5   9  -2    0.10    0.60
   5   9  -2    0.40    1.30
  -5  -9   2    1.20    1.00
  -5  -9   2   -0.20    1.00
  -5  -9   2    0.10    1.00
   4   9  -2    3.10    1.90
   4   9  -2    3.80    0.80
   4   9  -2    4.60    0.80
  -4  -9   2    6.60    1.40
  -4  -9   2    5.00    1.40
  -4  -9   2    4.70    1.30
   3   9  -2   35.00    1.90
   3   9  -2   36.30    1.80
   3   9  -2   36.70    5.40
  -3  -9   2   35.60    2.50
  -3  -9   2   35.20    2.70
  -3  -9   2   31.40    3.30
   2   9  -2    9.10    1.20
   2   9  -2   10.10    1.20
   2   9  -2   12.10    3.00
  -2  -9   2    9.80    1.60
  -2  -9   2   10.80    2.00
   1   9  -2    4.50    0.90
   1   9  -2    5.30    1.10
  -1  -9   2    3.00    2.00
  -1  -9   2    4.60    1.30
  -1  -9   2    3.20    1.60
   0   9  -2    0.60    0.90
   0   9  -2    1.10    0.70
   0  -9   2    2.30    1.80
   0  -9   2    2.30    1.20
  -1   9  -2    6.80    1.40
   1  -9   2    8.60    2.30
   1  -9   2    8.80    1.70
   9   8  -2    0.30    0.80
   9   8  -2    0.10    1.10
  -9  -8   2    1.30    1.30
  -9  -8   2   -0.10    0.80
  -9  -8   2   -0.20    1.10
   8   8  -2    0.20    0.70
   8   8  -2   -0.20    1.10
  -8  -8   2    1.10    1.20
  -8  -8   2   -0.30    1.00
  -8  -8   2   -0.10    0.70
   7   8  -2   -0.30    1.20
   7   8  -2    0.40    1.10
  -7  -8   2   -0.30    0.70
  -7  -8   2    0.60    0.80
  -7  -8   2    0.20    0.90
  -7  -8   2    0.30    1.00
   6   8  -2   16.50    2.20
   6   8  -2   13.70    1.40
   6   8  -2   16.30    1.20
  -6  -8   2   14.10    1.70
  -6  -8   2   15.50    1.90
  -6  -8   2   12.80    1.60
  -6  -8   2   14.40    1.50
   5   8  -2   60.09    2.20
   5   8  -2   53.89    3.40
   5   8  -2   57.29    2.50
  -5  -8   2   57.19    3.10
  -5  -8   2   51.99    3.30
  -5  -8   2   54.79    2.60
  -5  -8   2   56.59    2.80
   4   8  -2   12.80    1.20
   4   8  -2   12.80    1.00
  -4  -8   2   10.60    1.40
  -4  -8   2    9.60    1.40
  -4  -8   2   16.20    1.70
   3   8  -2    3.30    0.70
   3   8  -2    6.70    1.30
   3   8  -2    3.40    0.80
   3   8  -2    4.00    1.20
  -3  -8   2    4.00    1.20
  -3  -8   2    4.10    1.10
  -3  -8   2    3.00    1.10
  -3  -8   2    2.40    1.00
   2   8  -2    1.00    0.90
   2   8  -2    2.00    0.60
   2   8  -2    1.60    0.60
  -2  -8   2    2.20    1.20
  -2  -8   2    1.20    0.90
  -2  -8   2    1.40    0.80
   1   8  -2    0.30    0.50
   1   8  -2    0.50    1.00
   1   8  -2    0.10    0.40
   1   8  -2   -0.10    1.00
  -1  -8   2   -0.10    1.00
  -1  -8   2    0.00    0.80
   0   8  -2   42.50    2.90
   0   8  -2   45.70    2.70
   0   8  -2   39.80    2.20
   0  -8   2   39.40    3.10
   0  -8   2   41.00    2.40
  -1   8  -2    1.70    1.30
  -1   8  -2    0.30    0.80
  -1   8  -2   -0.10    0.60
   1  -8   2    0.80    1.00
   1  -8   2   -0.30    1.30
  -2   8  -2   12.50    2.10
  -2   8  -2    9.50    1.30
  -2   8  -2   11.00    1.90
   2  -8   2    9.20    1.40
   2  -8   2    9.50    1.70
   9   7  -2    1.50    1.90
  -9  -7   2    0.30    1.20
  -9  -7   2    0.30    1.10
  -9  -7   2    0.70    1.10
  -9  -7   2    1.30    0.70
   8   7  -2   14.80    1.40
   8   7  -2   14.40    1.20
   8   7  -2   14.50    2.20
  -8  -7   2   17.90    2.00
  -8  -7   2   14.10    1.80
  -8  -7   2   14.80    1.20
   7   7  -2   -0.20    0.50
   7   7  -2    0.30    0.90
   7   7  -2   -0.40    0.90
  -7  -7   2   -0.80    0.80
  -7  -7   2    0.00    0.50
  -7  -7   2   -0.10    0.70
  -7  -7   2    0.20    0.80
   6   7  -2    1.80    0.80
   6   7  -2   -0.10    0.40
  -6  -7   2    0.80    0.70
  -6  -7   2   -0.30    1.20
  -6  -7   2    0.30    0.70
  -6  -7   2    0.10    0.50
   5   7  -2    3.60    0.60
   5   7  -2    5.40    0.90
   5   7  -2    2.60    0.90
  -5  -7   2    4.00    1.00
  -5  -7   2    4.90    1.00
  -5  -7   2    3.50    0.70
  -5  -7   2    4.10    0.90
   4   7  -2   21.90    1.30
   4   7  -2   21.90    1.20
   4   7  -2   19.80    1.60
  -4  -7   2   21.50    1.50
  -4  -7   2   24.30    2.10
   3   7  -2   20.30    1.10
   3   7  -2   20.60    1.20
   3   7  -2   17.90    1.50
  -3  -7   2   19.80    1.60
  -3  -7   2   19.90    1.70
  -3  -7   2   18.90    1.50
  -3  -7   2   14.40    1.80
   2   7  -2  104.09    4.10
   2   7  -2  108.49    3.40
  -2  -7   2  105.99    3.80
  -2  -7   2   98.39    4.00
  -2  -7   2  105.99    4.00
  -2  -7   2  105.89    3.80
   1   7  -2   97.49    3.40
   1   7  -2  105.89    4.10
   1   7  -2  106.79    3.50
  -1  -7   2  105.69    3.80
  -1  -7   2   95.79    4.00
  -1  -7   2  103.19    3.70
   0   7  -2    3.20    0.70
   0   7  -2    2.30    0.90
   0   7  -2    3.60    0.70
   0   7  -2    4.70    1.10
   0  -7   2    4.00    1.00
   0  -7   2    2.90    0.90
   0  -7   2    3.60    1.00
  -1   7  -2   17.10    1.90
  -1   7  -2   14.20    1.40
  -1   7  -2   16.80    1.80
  -1   7  -2   13.60    1.20
   1  -7   2   15.00    1.70
   1  -7   2   15.70    1.50
   1  -7   2   13.10    1.90
  -2   7  -2   56.29    2.80
  -2   7  -2   52.99    2.40
  -2   7  -2   53.59    2.90
  -2   7  -2   55.39    2.90
   2  -7   2   59.79    2.90
   2  -7   2   55.69    2.50
  -3   7  -2    4.70    1.40
  -3   7  -2    4.50    1.00
  -3   7  -2    3.70    1.40
  -3   7  -2    4.60    1.20
   3  -7   2    4.30    1.00
   3  -7   2    5.50    1.20
  -4   7  -2   25.50    2.40
  -4   7  -2   23.80    2.40
  -4   7  -2   19.20    1.80
   9   6  -2   11.90    2.40
  -9  -6   2    9.50    1.10
  -9  -6   2   10.60    1.60
  -9  -6   2   10.10    1.60
   8   6  -2   -0.10    1.10
   8   6  -2    5.40    0.70
  -8  -6   2    4.90    0.80
  -8  -6   2    4.40    1.00
  -8  -6   2    5.90    1.20
   7   6  -2   10.10    1.10
   7   6  -2    8.10    1.40
   7   6  -2    9.50    0.90
  -7  -6   2    9.90    1.10
  -7  -6   2    7.90    0.90
   6   6  -2    5.10    0.70
   6   6  -2    6.40    1.30
  -6  -6   2    4.50    1.00
  -6  -6   2    4.60    0.70
  -6  -6   2    5.10    1.00
  -6  -6   2    5.50    0.80
   5   6  -2   33.30    1.40
   5   6  -2   32.20    1.70
   5   6  -2   30.30    2.10
   5   6  -2   31.40    1.60
  -5  -6   2   32.50    1.50
  -5  -6   2   32.00    2.00
  -5  -6   2   34.90    1.60
  -5  -6   2   31.50    1.80
   4   6  -2    0.00    0.50
   4   6  -2    0.90    0.50
   4   6  -2   -0.10    0.50
   4   6  -2   -0.10    0.30
  -4  -6   2    0.10    0.40
  -4  -6   2   -0.20    0.50
  -4  -6   2    0.90    0.50
  -4  -6   2    0.20    0.50
   3   6  -2   21.60    1.20
   3   6  -2   21.30    1.60
   3   6  -2   19.20    1.40
   3   6  -2   20.90    1.10
  -3  -6   2   22.60    1.40
  -3  -6   2   21.40    1.40
  -3  -6   2   22.50    1.40
  -3  -6   2   21.90    1.60
   2   6  -2    0.60    0.50
   2   6  -2    0.70    0.40
   2   6  -2    0.20    0.50
   2   6  -2    0.70    0.30
  -2  -6   2    0.60    0.50
  -2  -6   2    1.90    0.70
  -2  -6   2    0.60    0.50
   1   6  -2    1.50    0.70
   1   6  -2    1.60    0.50
   1   6  -2    1.10    0.60
  -1  -6   2    0.70    0.60
  -1  -6   2    0.60    0.60
  -1  -6   2    1.30    0.70
  -1  -6   2    0.20    0.50
   0   6  -2   28.50    1.40
   0   6  -2   28.80    1.80
   0   6  -2   30.50    1.70
   0   6  -2   25.70    1.50
   0  -6   2   30.20    1.60
   0  -6   2   27.60    1.70
   0  -6   2   28.80    2.00
  -1   6  -2    1.40    0.50
  -1   6  -2    1.10    0.50
  -1   6  -2    0.20    0.50
  -1   6  -2    0.60    0.60
   1  -6   2    1.00    0.80
   1  -6   2    0.60    0.80
   1  -6   2    1.40    0.60
  -2   6  -2   51.29    2.20
  -2   6  -2   50.69    2.50
  -2   6  -2   49.20    2.40
  -2   6  -2   51.69    2.50
   2  -6   2   51.29    2.40
   2  -6   2   50.89    2.20
  -3   6  -2    1.20    0.80
  -3   6  -2    2.40    0.90
  -3   6  -2    1.30    0.80
  -3   6  -2    1.40    0.70
   3  -6   2    2.00    0.80
   3  -6   2    2.10    0.70
  -4   6  -2   -0.20    0.80
  -4   6  -2   -0.10    0.80
  -4   6  -2    0.00    1.00
  -4   6  -2    0.30    0.70
  -5   6  -2    0.30    1.00
  -5   6  -2   -0.40    0.80
  -5   6  -2   -0.60    1.00
 -10  -5   2   16.50    1.70
 -10  -5   2   13.80    1.70
 -10  -5   2   14.80    1.90
 -10  -5   2   15.00    1.40
   9   5  -2   11.10    1.90
  -9  -5   2   14.70    1.20
  -9  -5   2   12.30    1.60
  -9  -5   2   12.30    1.40
  -8  -5   2    2.10    0.70
  -8  -5   2    2.40    0.90
  -8  -5   2    2.60    0.60
  -8  -5   2    1.70    0.60
   7   5  -2   45.00    1.70
   7   5  -2   44.10    2.50
  -7  -5   2   44.90    2.20
  -7  -5   2   42.60    1.70
  -7  -5   2   39.80    1.90
  -7  -5   2   44.70    2.30
   6   5  -2   49.20    2.50
   6   5  -2   51.29    1.90
   6   5  -2   49.40    1.80
  -6  -5   2   49.90    1.90
  -6  -5   2   48.40    1.80
  -6  -5   2   49.30    2.20
  -6  -5   2   48.30    2.40
   5   5  -2    0.50    0.30
   5   5  -2    0.90    0.50
   5   5  -2    0.40    0.50
  -5  -5   2    0.80    0.50
  -5  -5   2    0.50    0.50
  -5  -5   2    0.50    0.30
   4   5  -2    8.70    0.60
   4   5  -2    9.20    1.00
   4   5  -2    9.80    0.80
   4   5  -2   11.90    1.60
  -4  -5   2    8.30    1.00
  -4  -5   2   10.50    1.10
  -4  -5   2   10.70    0.80
  -4  -5   2    7.80    0.70
   3   5  -2  354.36    9.10
   3   5  -2  354.66    9.60
   3   5  -2  358.46    8.70
   3   5  -2  373.26    9.00
  -3  -5   2  361.86    9.20
  -3  -5   2  358.26    9.00
  -3  -5   2  366.56    9.60
  -3  -5   2  361.66    9.00
   2   5  -2    0.10    0.20
   2   5  -2    0.40    0.40
   2   5  -2    0.30    0.40
   2   5  -2    0.10    0.20
  -2  -5   2    0.50    0.40
  -2  -5   2    0.20    0.40
  -2  -5   2    0.10    0.40
  -2  -5   2    0.80    0.50
   1   5  -2  165.38    4.40
   1   5  -2  149.59    4.50
   1   5  -2  156.38    4.80
  -1  -5   2  157.28    4.80
  -1  -5   2  151.98    4.70
  -1  -5   2  149.88    4.50
  -1  -5   2  153.08    4.50
   0   5  -2  286.77    7.60
   0   5  -2  294.47    7.30
   0   5  -2  282.97    7.90
   0   5  -2  295.57    7.60
   0  -5   2  281.97    8.00
   0  -5   2  286.17    7.60
   0  -5   2  297.17    7.60
  -1   5  -2  322.27    7.90
  -1   5  -2  314.77    8.40
  -1   5  -2  318.17    8.40
   1  -5   2  288.67    8.70
   1  -5   2  304.87    8.10
   1  -5   2  318.27    8.10
  -2   5  -2    7.80    1.00
  -2   5  -2    9.40    1.20
  -2   5  -2    9.30    1.00
  -2   5  -2    6.10    0.90
   2  -5   2    7.40    1.20
   2  -5   2    8.30    1.00
   2  -5   2    7.70    0.90
  -3   5  -2    4.90    0.90
  -3   5  -2    6.00    0.90
  -3   5  -2    6.90    1.10
  -3   5  -2    7.20    1.20
   3  -5   2    5.20    0.80
  -4   5  -2   40.50    2.10
  -4   5  -2   42.70    2.00
  -4   5  -2   45.00    2.60
  -4   5  -2   45.40    2.30
  -5   5  -2   28.90    2.00
  -5   5  -2   31.40    2.40
  -5   5  -2   29.50    1.90
  -6   5  -2    0.50    0.90
  -6   5  -2    1.10    1.20
  -6   5  -2    0.60    1.20
  -6   5  -2    1.30    0.90
 -10  -4   2    0.50    1.10
 -10  -4   2    0.70    0.70
 -10  -4   2    0.30    0.90
 -10  -4   2    1.00    1.20
   9   4  -2    0.60    1.20
  -9  -4   2    0.50    0.50
  -9  -4   2    0.60    0.90
  -9  -4   2    0.60    0.80
  -9  -4   2    0.50    0.70
   8   4  -2    2.60    1.00
  -8  -4   2    2.20    0.70
  -8  -4   2    2.60    0.50
  -8  -4   2    3.20    0.80
  -8  -4   2    1.20    0.70
  -7  -4   2   27.50    1.60
  -7  -4   2   29.10    1.70
  -7  -4   2   27.40    1.60
   6   4  -2    6.40    0.70
   6   4  -2    5.50    1.00
   6   4  -2    4.80    0.60
  -6  -4   2    6.90    0.90
  -6  -4   2    7.10    0.90
  -6  -4   2    5.10    0.70
  -6  -4   2    5.40    0.60
   5   4  -2   29.70    1.20
   5   4  -2   29.50    1.70
   5   4  -2   28.60    1.30
  -5  -4   2   29.80    1.30
  -5  -4   2   29.50    1.50
  -5  -4   2   29.90    1.20
  -5  -4   2   29.80    1.60
   4   4  -2   42.30    1.50
   4   4  -2   41.70    2.00
   4   4  -2   45.40    1.70
  -4  -4   2   44.20    1.60
  -4  -4   2   41.90    1.90
  -4  -4   2   43.80    1.50
  -4  -4   2   41.50    1.80
   3   4  -2  488.95   11.40
   3   4  -2  490.75   12.20
   3   4  -2  483.65   11.80
   3   4  -2  475.85   11.70
  -3  -4   2  489.95   12.20
  -3  -4   2  474.55   11.80
  -3  -4   2  500.05   11.60
   2   4  -2   36.50    1.50
   2   4  -2   37.70    1.30
   2   4  -2   40.60    1.40
  -2  -4   2   39.20    1.60
  -2  -4   2   38.60    1.50
  -2  -4   2   38.20    1.80
  -2  -4   2   35.90    1.40
   1   4  -2  409.06   10.60
   1   4  -2  420.46   10.00
   1   4  -2  435.06   10.10
   1   4  -2  414.06   10.20
  -1  -4   2  411.06   10.60
  -1  -4   2  423.76   10.30
  -1  -4   2  409.06   10.40
  -1  -4   2  428.16   10.20
   0   4  -2   49.60    1.80
   0   4  -2   46.00    2.00
   0   4  -2   47.60    1.80
   0   4  -2   49.20    1.70
   0  -4   2   46.90    2.00
   0  -4   2   48.90    1.80
   0  -4   2   47.40    1.80
  -1   4  -2   63.29    2.40
  -1   4  -2   64.89    2.10
  -1   4  -2   66.79    2.50
  -1   4  -2   68.79    2.30
   1  -4   2   64.79    2.30
   1  -4   2   64.19    2.70
   1  -4   2   66.69    2.20
  -2   4  -2   33.80    1.80
  -2   4  -2   35.00    1.50
  -2   4  -2   32.80    1.40
  -2   4  -2   36.20    1.70
   2  -4   2   30.00    1.90
   2  -4   2   34.20    1.50
  -3   4  -2    4.30    0.70
  -3   4  -2    6.20    0.90
  -3   4  -2    4.00    0.70
  -3   4  -2    5.60    1.10
   3  -4   2    4.40    0.60
   3  -4   2    4.80    0.50
  -4   4  -2   79.89    2.70
  -4   4  -2   77.19    2.70
  -4   4  -2   75.69    2.80
  -5   4  -2   12.20    1.20
  -5   4  -2   13.20    1.80
  -5   4  -2   11.50    1.20
  -6   4  -2    9.30    1.20
  -6   4  -2    6.50    1.20
  -6   4  -2   10.70    1.30
  -6   4  -2    8.40    1.10
  -7   4  -2    0.70    0.90
  -7   4  -2    1.20    1.20
  -7   4  -2    0.10    1.20
  -7   4  -2    0.50    0.80
  -7   4  -2    1.30    0.90
 -10  -3   2    7.00    1.50
 -10  -3   2    8.70    1.60
 -10  -3   2    6.20    0.80
 -10  -3   2    6.00    1.00
  -9  -3   2    2.30    1.00
  -9  -3   2    1.50    0.90
  -9  -3   2    1.20    0.70
  -9  -3   2    1.40    0.50
   8   3  -2   44.40    2.30
  -8  -3   2   43.80    2.00
  -8  -3   2   38.30    2.00
  -8  -3   2   37.50    2.10
  -8  -3   2   40.50    1.60
   7   3  -2   12.30    1.30
  -7  -3   2   10.20    1.10
  -7  -3   2    9.80    0.70
  -7  -3   2    9.30    1.00
  -7  -3   2    9.00    1.10
   6   3  -2    6.40    1.00
  -6  -3   2    7.50    0.90
  -6  -3   2    7.10    0.90
  -6  -3   2    5.00    0.80
  -6  -3   2    6.70    0.60
   5   3  -2  291.57    7.80
   5   3  -2  299.37    7.20
   5   3  -2  301.37    7.20
  -5  -3   2  299.57    7.10
  -5  -3   2  294.97    7.70
  -5  -3   2  290.27    7.50
  -5  -3   2  293.17    7.50
   4   3  -2  242.18    6.60
   4   3  -2  248.48    6.10
   4   3  -2  243.58    6.00
  -4  -3   2  243.38    6.50
  -4  -3   2  242.08    6.30
  -4  -3   2  253.07    6.00
  -4  -3   2  242.18    6.20
   3   3  -2    4.00    0.50
   3   3  -2    2.40    0.50
  -3  -3   2    3.10    0.50
  -3  -3   2    4.00    0.60
  -3  -3   2    4.50    0.50
  -3  -3   2    2.90    0.40
   2   3  -2    3.20    0.50
   2   3  -2    2.60    0.30
   2   3  -2    2.80    0.30
  -2  -3   2    3.60    0.50
  -2  -3   2    3.20    0.60
  -2  -3   2    3.40    0.40
  -2  -3   2    3.20    0.40
   1   3  -2  190.08    5.20
   1   3  -2  202.88    4.90
   1   3  -2  188.38    5.00
   1   3  -2  194.98    4.90
  -1  -3   2  189.48    5.30
  -1  -3   2  193.28    5.20
  -1  -3   2  192.88    4.90
   0   3  -2    0.20    0.20
   0   3  -2   -0.10    0.20
   0   3  -2    0.20    0.20
   0   3  -2    0.30    0.20
   0  -3   2    0.00    0.20
   0  -3   2    0.70    0.30
   0  -3   2    0.00    0.20
  -1   3  -2   16.70    1.00
  -1   3  -2   16.40    0.90
  -1   3  -2   16.50    1.00
  -1   3  -2   15.90    0.80
   1  -3   2   17.10    0.90
   1  -3   2   16.50    0.90
   1  -3   2   15.40    1.10
  -2   3  -2  494.45   11.60
  -2   3  -2  500.05   11.60
  -2   3  -2  502.25   11.90
   2  -3   2  496.85   11.50
   2  -3   2  440.56   12.30
   2  -3   2  485.05   11.50
  -3   3  -2   70.29    2.30
  -3   3  -2   75.69    2.90
  -3   3  -2   69.09    2.30
  -3   3  -2   72.49    2.50
  -4   3  -2   12.80    1.30
  -4   3  -2   11.90    0.90
  -4   3  -2   14.70    1.10
  -4   3  -2   12.60    0.90
  -5   3  -2    8.70    1.80
  -5   3  -2    5.70    0.80
  -5   3  -2    8.00    0.90
  -6   3  -2   52.99    2.20
  -6   3  -2   54.39    2.20
  -6   3  -2   54.09    3.00
  -6   3  -2   54.99    2.10
  -7   3  -2    2.60    0.90
  -7   3  -2    1.60    0.90
  -7   3  -2    1.80    0.80
  -7   3  -2    2.50    0.90
  -7   3  -2    2.00    0.80
  -9  -2   2    0.60    0.80
  -9  -2   2    0.50    0.50
  -8  -2   2   11.40    1.00
  -8  -2   2   11.70    0.90
  -8  -2   2   11.80    1.30
   7   2  -2    3.70    0.80
  -7  -2   2    3.60    0.50
  -7  -2   2    4.50    0.70
  -7  -2   2    2.70    0.70
   6   2  -2  214.38    5.90
  -6  -2   2  213.98    5.80
  -6  -2   2  212.88    5.40
  -6  -2   2  221.78    5.70
   5   2  -2   22.70    1.20
   5   2  -2   23.20    0.70
   5   2  -2   23.70    0.80
  -5  -2   2   19.50    1.20
  -5  -2   2   23.10    0.90
  -5  -2   2   24.20    1.20
   4   2  -2   23.80    0.90
   4   2  -2   25.30    1.00
   4   2  -2   23.50    1.20
  -4  -2   2   25.20    1.10
  -4  -2   2   25.80    0.90
   3   2  -2  118.19    3.00
   3   2  -2  117.59    3.30
   3   2  -2  118.39    3.10
  -3  -2   2  118.99    3.30
  -3  -2   2  113.49    3.00
  -3  -2   2  117.59    3.20
  -3  -2   2  116.99    3.20
   2   2  -2   47.00    1.70
   2   2  -2   49.70    1.40
   2   2  -2   50.29    1.60
   2   2  -2   49.20    1.60
  -2  -2   2   49.99    1.40
  -2  -2   2   52.59    1.70
  -2  -2   2   51.69    1.70
  -2  -2   2   50.19    1.50
   1   2  -2  427.66   10.20
   1   2  -2  432.46   10.00
   1   2  -2  437.36   10.10
  -1  -2   2  438.76   10.40
  -1  -2   2  425.86   10.20
  -1  -2   2  435.36   10.10
  -1  -2   2  423.86   10.00
   0   2  -2   64.99    1.70
   0   2  -2   62.89    1.90
   0   2  -2   65.59    1.90
   0   2  -2   60.79    2.00
   0  -2   2   63.09    1.80
   0  -2   2   62.69    1.90
   0  -2   2   62.69    1.90
  -1   2  -2  162.48    4.40
  -1   2  -2  163.38    4.10
  -1   2  -2  165.08    4.10
   1  -2   2  165.98    4.10
   1  -2   2  166.48    4.50
   1  -2   2  161.28    4.10
  -2   2  -2   75.29    2.10
  -2   2  -2   73.89    2.50
  -2   2  -2   72.49    2.10
   2  -2   2   73.19    2.00
   2  -2   2   70.39    2.60
   2  -2   2   75.69    2.00
  -3   2  -2  444.06   10.40
  -3   2  -2  448.16   10.40
  -3   2  -2  429.46   11.10
  -4   2  -2  169.08    4.30
  -4   2  -2  167.58    4.40
  -4   2  -2  171.98    5.30
  -5   2  -2   -0.10    0.40
  -5   2  -2    0.50    0.30
  -5   2  -2    0.90    0.50
  -6   2  -2   86.79    3.10
  -6   2  -2   84.79    2.60
  -6   2  -2   81.19    4.00
  -6   2  -2   93.39    2.80
  -7   2  -2    0.00    0.60
  -7   2  -2    0.20    0.80
  -7   2  -2   -0.10    0.60
  -7   2  -2    0.20    0.60
  -7   2  -2    0.00    0.60
  -8   2  -2    3.60    0.80
  -8   2  -2    3.30    0.90
  -8   2  -2    2.70    1.20
  -8   2  -2    3.70    0.90
  -8   2  -2    3.70    0.90
  -9  -1   2    9.60    1.00
  -9  -1   2    8.90    1.40
  -8  -1   2    0.50    0.70
  -8  -1   2    0.50    0.50
  -7  -1   2   18.30    1.30
  -7  -1   2   18.40    1.00
  -7  -1   2   17.30    0.90
  -6  -1   2  204.68    5.20
  -6  -1   2  207.28    5.50
  -6  -1   2  200.48    5.20
   5   1  -2    4.80    0.60
  -5  -1   2    4.70    0.50
  -5  -1   2    4.20    0.50
   4   1  -2    4.70    0.30
   4   1  -2    4.40    0.30
   4   1  -2    5.50    0.50
  -4  -1   2    5.20    0.60
  -4  -1   2    5.10    0.40
  -4  -1   2    4.80    0.50
   3   1  -2  274.07    6.80
   3   1  -2  282.87    6.60
   3   1  -2  280.67    6.60
  -3  -1   2  279.27    6.70
  -3  -1   2  280.57    6.60
  -3  -1   2  274.87    6.80
   2   1  -2  603.54   14.10
   2   1  -2  601.64   13.90
   2   1  -2  587.84   13.80
  -2  -1   2  601.14   13.80
  -2  -1   2  607.24   14.00
  -2  -1   2  613.54   14.00
   1   1  -2   42.30    1.20
   1   1  -2   41.20    1.30
   1   1  -2   40.90    1.30
  -1  -1   2   43.00    1.30
  -1  -1   2   41.70    1.30
  -1  -1   2   44.00    1.20
  -1  -1   2   39.90    1.30
   0  -1   2  655.73   15.10
  -1   1  -2 2394.46   98.59
   1  -1   2 2284.87   97.29
  -2   1  -2    4.20    0.30
  -2   1  -2    4.50    0.50
  -2   1  -2    4.70    0.30
   2  -1   2    4.70    0.60
  -3   1  -2  881.21   19.90
  -3   1  -2  868.11   19.90
  -3   1  -2  879.21   20.70
  -4   1  -2    1.40    0.30
  -4   1  -2    1.50    0.50
  -4   1  -2    1.50    0.20
  -5   1  -2    9.40    1.30
  -5   1  -2    6.60    0.90
  -5   1  -2    6.30    0.60
  -5   1  -2    6.90    0.80
  -6   1  -2   16.90    1.30
  -6   1  -2   17.10    0.90
  -6   1  -2   15.20    1.50
  -6   1  -2   17.70    0.80
  -7   1  -2   22.50    1.10
  -7   1  -2   21.30    1.50
  -7   1  -2   25.00    1.20
  -8   1  -2    5.70    1.00
  -8   1  -2    4.30    1.30
  -8   1  -2    6.50    0.90
  -8   1  -2    5.10    0.80
  -9   1  -2    2.30    1.20
  -9   1  -2    4.70    0.90
  -9   0   2    5.00    1.30
  -9   0   2    4.40    1.40
  -9   0   2    6.00    1.00
  -8   0   2   13.00    1.40
  -8   0   2   15.40    1.20
  -7   0   2   21.30    1.50
  -7   0   2   22.20    1.20
  -6   0   2    0.20    0.50
  -6   0   2    0.10    0.40
  -5   0   2    4.50    0.60
  -4   0   2  325.07    7.90
  -4   0   2  326.07    8.00
   3   0  -2   12.40    0.50
   3   0  -2   11.10    0.50
  -3   0   2    9.80    0.70
  -3   0   2   10.30    0.60
   2   0  -2   14.90    0.60
   2   0  -2   14.40    0.50
  -2   0   2   15.30    0.70
  -2   0   2   15.50    0.70
   1   0  -2 1542.25   86.19
  -1   0   2 1510.35   84.29
   0   0   2  312.37    7.30
  -1   0  -2 1407.66   65.49
   1   0   2 1468.65   64.59
  -2   0  -2 1199.28   52.39
   2   0   2 1379.96   49.60
  -3   0  -2   65.99    2.20
  -4   0  -2   38.10    1.60
  -4   0  -2   38.10    1.70
  -5   0  -2   79.49    2.90
  -5   0  -2   76.69    2.70
  -6   0  -2  121.29    4.30
  -6   0  -2  126.29    3.90
  -7   0  -2   46.80    2.50
  -7   0  -2   44.70    2.10
  -8   0  -2   32.60    1.40
  -8   0  -2   31.30    1.20
  -8   0  -2   30.50    2.20
  -8   0  -2   31.70    1.80
  -9   0  -2    1.70    0.80
  -9   0  -2    0.80    1.20
  -9   0  -2    1.00    0.50
  -8   1   2    2.10    1.00
  -8   1   2    5.20    1.60
  -8   1   2    2.60    1.40
  -7   1   2   49.30    2.30
  -7   1   2   45.60    3.00
  -7   1   2   48.40    2.00
  -6   1   2   99.79    3.10
  -6   1   2  102.99    3.40
  -5   1   2   11.60    0.90
  -5   1   2   10.30    1.00
  -4   1   2  162.38    4.70
  -4   1   2  171.18    4.40
   3  -1  -2   37.20    1.10
  -3   1   2   36.00    1.40
  -3   1   2   35.30    1.30
   2  -1  -2  140.19    3.50
   2  -1  -2  136.69    3.60
  -2   1   2  142.29    3.70
  -2   1   2  136.69    3.60
   1  -1  -2  362.36    8.30
   1  -1  -2  361.26    8.50
   1  -1  -2  354.76    8.60
  -1   1   2  358.86    8.60
  -1   1   2  366.36    8.50
   0  -1  -2  331.07    7.60
   0  -1  -2  328.87    7.60
   0   1   2  315.47    7.70
   0   1   2  315.47    7.60
  -1  -1  -2  362.36    8.50
  -1  -1  -2  354.36    8.70
  -1  -1  -2  366.46    8.40
   1   1   2  379.46    8.90
   1   1   2  358.26    8.40
   1   1   2  363.66    8.40
  -2  -1  -2 3661.13  131.79
   2   1   2 3729.43  128.69
  -3  -1  -2 1034.60   24.00
  -3  -1  -2 1061.69   24.40
  -4  -1  -2   23.70    1.10
  -4  -1  -2   24.10    1.30
  -5  -1  -2    0.00    0.30
  -5  -1  -2    0.20    0.30
  -6  -1  -2   99.59    3.30
  -6  -1  -2   92.49    3.40
  -7  -1  -2  195.58    6.10
  -7  -1  -2  201.18    5.80
  -8  -1  -2    0.30    0.60
  -8  -1  -2   -0.30    0.60
  -9  -1  -2    0.10    0.70
  -9  -1  -2    0.20    0.30
  -9  -1  -2    0.50    0.90
  -8   2   2    2.30    1.20
  -8   2   2    2.50    1.20
  -8   2   2    2.10    1.10
  -7   2   2    0.20    0.90
  -7   2   2   -0.20    0.90
  -7   2   2   -0.20    0.80
  -6   2   2   12.20    1.50
  -6   2   2   16.10    1.30
  -6   2   2   16.90    1.50
  -5   2   2   39.00    1.70
  -5   2   2   41.30    1.90
  -5   2   2   40.90    2.50
  -4   2   2   24.60    1.30
  -4   2   2   29.80    1.50
   3  -2  -2    3.60    0.50
   3  -2  -2    3.60    0.40
  -3   2   2    3.70    0.60
  -3   2   2    4.30    0.70
   2  -2  -2  306.37    7.60
   2  -2  -2  312.07    7.40
  -2   2   2  314.57    7.80
  -2   2   2  307.67    7.60
   1  -2  -2    9.20    0.50
   1  -2  -2    9.70    0.70
   1  -2  -2    8.80    0.60
  -1   2   2    8.10    0.60
  -1   2   2    9.50    0.70
  -1   2   2    9.10    0.50
   0  -2  -2 4832.52  213.98
   0   2   2 5200.48  216.48
  -1  -2  -2 2776.52  143.59
   1   2   2 3047.70  148.29
  -2  -2  -2 1748.03  106.89
   2   2   2 1704.83  104.29
  -3  -2  -2  625.74   14.50
  -3  -2  -2  633.54   15.10
   3   2   2  623.04   14.20
   3   2   2  625.74   15.10
   3   2   2  645.84   14.30
  -4  -2  -2  215.88    5.20
  -4  -2  -2  226.68    5.20
  -4  -2  -2  217.98    6.00
   4   2   2  215.58    6.00
  -5  -2  -2   48.50    1.30
  -5  -2  -2   46.60    2.00
  -5  -2  -2   44.90    1.30
   5   2   2   45.60    2.10
  -6  -2  -2    0.20    0.40
  -6  -2  -2   -0.20    0.20
  -7  -2  -2   66.59    2.00
  -7  -2  -2   65.59    2.80
  -7  -2  -2   67.89    1.80
  -7  -2  -2   81.49    2.90
  -8  -2  -2    7.30    0.70
  -8  -2  -2    4.70    0.90
  -8  -2  -2    5.80    1.00
  -8  -2  -2    7.40    0.40
  -9  -2  -2    6.10    0.80
  -9  -2  -2    6.80    1.10
  -9  -2  -2    6.10    0.50
  -9  -2  -2    6.40    1.20
 -10  -2  -2    9.00    0.70
 -10  -2  -2    8.40    1.60
 -10  -2  -2    9.00    1.30
 -10  -2  -2   10.50    1.10
  -7   3   2    4.70    1.20
  -7   3   2    7.00    1.40
  -7   3   2    5.80    1.50
  -6   3   2   46.30    2.30
  -6   3   2   45.40    2.40
  -6   3   2   48.50    3.10
  -5   3   2  101.39    3.50
  -5   3   2   95.79    4.20
  -5   3   2   97.59    3.30
   4  -3  -2   15.90    0.60
  -4   3   2   14.70    1.50
  -4   3   2   15.50    1.10
  -4   3   2   16.40    1.30
   3  -3  -2    5.80    0.60
   3  -3  -2    6.30    0.70
  -3   3   2    5.90    0.80
  -3   3   2    9.40    1.40
  -3   3   2    6.70    0.80
   2  -3  -2  266.17    7.10
   2  -3  -2  285.07    6.90
  -2   3   2  273.07    7.70
  -2   3   2  273.27    7.10
  -2   3   2  286.07    6.80
  -2   3   2  283.77    7.30
   1  -3  -2  168.98    4.30
   1  -3  -2  163.88    4.60
  -1   3   2  167.58    4.50
  -1   3   2  161.88    4.60
  -1   3   2  165.58    4.90
  -1   3   2  166.88    4.30
   0  -3  -2  455.55   11.00
   0  -3  -2  438.16   10.90
   0  -3  -2  455.45   10.80
   0   3   2  460.95   10.90
   0   3   2  467.15   10.90
   0   3   2  431.06   11.00
  -1  -3  -2 1043.70   23.60
  -1  -3  -2 1016.70   23.70
   1   3   2 1010.80   23.50
   1   3   2 1033.50   23.60
   1   3   2 1000.00   23.60
  -2  -3  -2   42.60    1.50
  -2  -3  -2   43.00    1.70
  -2  -3  -2   43.00    1.50
  -2  -3  -2   42.00    1.30
   2   3   2   43.90    1.50
   2   3   2   40.40    1.40
   2   3   2   43.10    1.20
   2   3   2   44.20    1.80
  -3  -3  -2  161.88    4.10
  -3  -3  -2  160.38    4.60
  -3  -3  -2  158.58    4.20
   3   3   2  160.88    3.90
   3   3   2  160.78    4.10
   3   3   2  161.88    4.70
  -4  -3  -2  432.86   11.00
  -4  -3  -2  442.16   10.30
  -4  -3  -2  435.06   10.40
   4   3   2  450.45   11.20
   4   3   2  434.46   10.00
  -5  -3  -2  198.38    5.70
  -5  -3  -2  201.58    4.90
  -5  -3  -2  192.98    5.00
  -5  -3  -2  202.88    5.00
   5   3   2  210.18    6.00
  -6  -3  -2    1.00    0.30
  -6  -3  -2    1.20    0.30
  -6  -3  -2    1.00    0.50
   6   3   2    0.40    0.60
  -7  -3  -2  202.38    6.00
  -7  -3  -2  193.98    4.90
  -7  -3  -2  197.58    5.20
   7   3   2  211.88    6.40
  -8  -3  -2   31.80    1.10
  -8  -3  -2   32.50    1.90
  -8  -3  -2   31.30    1.30
  -9  -3  -2   16.20    1.50
  -9  -3  -2   15.10    1.60
  -9  -3  -2   14.60    0.80
  -9  -3  -2   14.00    1.10
 -10  -3  -2    0.80    0.80
 -10  -3  -2    0.00    0.40
 -10  -3  -2   -0.20    1.00
 -10  -3  -2    0.40    0.80
  -7   4   2   14.90    1.90
  -7   4   2   15.70    1.90
  -7   4   2   13.70    2.10
  -6   4   2    2.70    1.80
  -6   4   2    3.50    1.20
  -6   4   2    1.80    1.10
  -5   4   2   27.60    1.90
  -5   4   2   24.30    1.80
  -5   4   2   22.90    2.20
   4  -4  -2    9.30    0.70
   4  -4  -2    9.40    0.70
  -4   4   2   10.50    1.70
  -4   4   2   11.80    1.30
  -4   4   2    8.10    1.10
   3  -4  -2    1.90    0.50
   3  -4  -2    2.20    0.60
  -3   4   2    3.00    1.00
  -3   4   2    1.90    0.40
  -3   4   2    1.20    0.60
  -3   4   2    1.60    0.60
   2  -4  -2   25.10    1.40
   2  -4  -2   26.50    1.20
  -2   4   2   24.50    1.70
  -2   4   2   22.90    1.40
  -2   4   2   26.00    1.20
  -2   4   2   26.70    1.50
   1  -4  -2    8.70    1.00
   1  -4  -2    8.70    0.70
   1  -4  -2    8.40    0.70
  -1   4   2    8.60    0.80
  -1   4   2    7.90    0.90
  -1   4   2    8.10    0.70
  -1   4   2    9.50    1.00
   0  -4  -2  236.08    6.20
   0  -4  -2  244.88    6.70
   0  -4  -2  243.58    6.50
   0   4   2  248.38    6.40
   0   4   2  242.88    6.60
   0   4   2  242.68    6.40
   0   4   2  242.48    6.40
  -1  -4  -2  234.48    6.00
  -1  -4  -2  218.08    6.10
  -1  -4  -2  231.18    6.10
   1   4   2  233.98    6.00
   1   4   2  232.58    6.20
   1   4   2  235.88    6.00
  -2  -4  -2   32.20    1.40
  -2  -4  -2   31.50    1.40
  -2  -4  -2   30.10    1.30
  -2  -4  -2   33.40    1.50
   2   4   2   33.00    1.40
   2   4   2   31.30    1.60
   2   4   2   31.30    1.30
   2   4   2   33.00    1.10
  -3  -4  -2    7.10    0.70
  -3  -4  -2    6.70    0.50
  -3  -4  -2    7.70    0.90
  -3  -4  -2    7.30    0.80
   3   4   2    7.30    0.70
   3   4   2    5.00    0.80
   3   4   2    7.30    0.40
   3   4   2    6.60    0.50
  -4  -4  -2  139.99    3.90
  -4  -4  -2  140.99    3.90
  -4  -4  -2  144.09    4.40
   4   4   2  142.79    3.60
   4   4   2  147.69    4.60
   4   4   2  141.69    3.90
  -5  -4  -2  222.58    5.20
  -5  -4  -2  218.08    6.30
  -5  -4  -2  218.38    5.60
  -5  -4  -2  216.18    5.50
   5   4   2  219.28    5.20
   5   4   2  216.48    5.40
   5   4   2  220.78    6.50
  -6  -4  -2    1.00    0.30
  -6  -4  -2    1.10    0.40
  -6  -4  -2    0.80    0.40
  -6  -4  -2    1.70    0.40
   6   4   2    1.50    0.70
  -7  -4  -2    2.70    0.50
  -7  -4  -2    2.60    0.50
  -7  -4  -2    3.20    0.60
  -7  -4  -2    2.60    0.70
   7   4   2    3.70    1.00
  -8  -4  -2    2.00    0.60
  -8  -4  -2    2.50    0.60
  -8  -4  -2    1.80    0.80
  -8  -4  -2    1.70    0.50
   8   4   2    3.00    1.10
  -9  -4  -2   29.10    2.00
  -9  -4  -2   29.50    1.60
  -9  -4  -2   31.80    1.60
  -9  -4  -2   28.90    1.30
 -10  -4  -2   18.00    1.60
 -10  -4  -2   19.30    1.50
 -10  -4  -2   18.30    2.00
 -10  -4  -2   18.40    1.20
 -10  -4  -2   16.40    1.80
  -6   5   2    3.10    1.50
  -6   5   2    4.00    1.30
  -5   5   2    3.60    1.50
  -5   5   2    2.70    1.10
  -5   5   2    3.90    1.20
   4  -5  -2    1.80    0.60
   4  -5  -2    2.20    0.50
  -4   5   2    2.40    0.90
  -4   5   2    1.80    0.90
  -4   5   2    2.70    0.60
  -4   5   2    0.60    0.80
   3  -5  -2   -0.20    0.60
   3  -5  -2   -0.20    0.40
  -3   5   2   -0.40    0.60
  -3   5   2    0.00    0.60
  -3   5   2    0.40    0.50
  -3   5   2   -0.20    0.60
   2  -5  -2    8.90    0.90
   2  -5  -2   10.90    1.20
  -2   5   2    9.90    1.00
  -2   5   2    8.20    1.10
  -2   5   2    9.60    1.20
  -2   5   2   12.00    1.60
   1  -5  -2    2.40    0.80
   1  -5  -2    2.80    0.60
   1  -5  -2    2.80    0.60
  -1   5   2    2.10    0.60
  -1   5   2    2.30    0.60
  -1   5   2    2.20    0.60
   0  -5  -2  613.44   14.80
   0  -5  -2  629.04   14.60
   0  -5  -2  587.14   14.90
   0   5   2  603.64   14.90
   0   5   2  598.74   14.90
   0   5   2  606.94   14.70
   0   5   2  596.94   14.70
  -1  -5  -2    2.20    0.50
  -1  -5  -2    1.30    0.40
  -1  -5  -2    2.20    0.60
  -1  -5  -2    2.00    0.50
   1   5   2    2.10    0.50
   1   5   2    1.90    0.50
   1   5   2    3.30    0.70
   1   5   2    1.70    0.50
  -2  -5  -2  121.59    3.90
  -2  -5  -2  118.49    3.70
  -2  -5  -2  117.99    3.80
  -2  -5  -2  122.79    3.70
   2   5   2  130.29    3.50
   2   5   2  121.99    4.00
   2   5   2  122.69    3.60
   2   5   2  125.49    3.80
  -3  -5  -2  197.88    5.30
  -3  -5  -2  196.38    5.50
  -3  -5  -2  198.18    5.40
  -3  -5  -2  192.98    5.80
   3   5   2  195.78    5.90
   3   5   2  198.78    5.40
   3   5   2  210.98    5.00
   3   5   2  203.78    5.20
  -4  -5  -2  101.59    3.20
  -4  -5  -2  102.79    2.90
  -4  -5  -2  100.19    3.10
  -4  -5  -2  101.99    3.60
   4   5   2   96.19    3.70
   4   5   2  101.49    2.70
   4   5   2  101.89    2.80
   4   5   2  101.59    3.20
  -5  -5  -2   19.90    0.80
  -5  -5  -2   19.30    1.10
  -5  -5  -2   19.20    1.20
   5   5   2   16.70    1.60
   5   5   2   19.20    0.80
   5   5   2   17.80    1.10
  -6  -5  -2    9.00    1.00
  -6  -5  -2   11.40    0.90
  -6  -5  -2   12.70    1.00
   6   5   2    9.40    1.20
   6   5   2   10.60    0.60
   6   5   2    9.70    0.70
  -7  -5  -2   71.79    2.50
  -7  -5  -2   71.39    3.20
  -7  -5  -2   72.09    2.40
  -7  -5  -2   74.59    2.10
   7   5   2   74.89    3.40
  -8  -5  -2   22.50    1.30
  -8  -5  -2   24.10    1.10
  -8  -5  -2   25.30    1.40
  -8  -5  -2   20.90    1.70
   8   5   2   22.20    2.10
  -9  -5  -2    7.90    1.00
  -9  -5  -2    5.30    1.10
  -9  -5  -2    6.40    0.80
 -10  -5  -2    5.50    1.30
 -10  -5  -2    6.30    1.10
 -10  -5  -2    6.20    1.20
 -10  -5  -2    8.10    1.10
 -10  -5  -2    5.90    0.90
  -5   6   2   11.90    1.70
  -5   6   2   11.60    2.00
  -5   6   2   14.70    2.10
   4  -6  -2    0.30    0.70
  -4   6   2   -0.50    1.10
  -4   6   2   -0.30    1.00
  -4   6   2    0.50    0.70
  -4   6   2    0.20    0.90
   3  -6  -2   39.30    1.80
   3  -6  -2   39.00    2.20
  -3   6   2   37.40    2.40
  -3   6   2   37.70    2.20
  -3   6   2   38.90    2.00
  -3   6   2   33.70    2.50
   2  -6  -2   39.60    1.80
   2  -6  -2   37.70    2.60
  -2   6   2   36.30    2.30
  -2   6   2   36.50    2.20
  -2   6   2   36.00    2.10
  -2   6   2   36.40    1.90
   1  -6  -2    1.80    0.60
   1  -6  -2    2.60    0.70
   1  -6  -2    1.60    0.80
  -1   6   2    2.50    0.70
  -1   6   2    1.70    0.60
  -1   6   2    1.30    0.70
  -1   6   2    3.30    0.90
   0  -6  -2   27.30    1.80
   0  -6  -2   32.30    1.60
   0  -6  -2   27.60    1.70
   0   6   2   30.90    1.80
   0   6   2   33.00    1.80
   0   6   2   34.20    1.80
   0   6   2   28.90    1.80
  -1  -6  -2    3.30    0.80
  -1  -6  -2    4.00    0.70
  -1  -6  -2    4.00    0.70
   1   6   2    5.50    0.90
   1   6   2    3.70    0.70
   1   6   2    5.40    0.90
   1   6   2    5.00    1.00
  -2  -6  -2   60.19    2.30
  -2  -6  -2   60.19    2.50
  -2  -6  -2   55.09    2.40
  -2  -6  -2   58.89    2.50
   2   6   2   56.79    2.40
   2   6   2   60.79    2.10
   2   6   2   54.79    2.20
   2   6   2   61.19    2.70
  -3  -6  -2   -0.50    0.40
  -3  -6  -2    0.10    0.40
  -3  -6  -2    0.00    0.40
  -3  -6  -2    0.20    0.40
   3   6   2    0.30    0.40
   3   6   2    0.20    0.50
   3   6   2    0.20    0.20
  -4  -6  -2   19.90    1.10
  -4  -6  -2   19.00    1.30
  -4  -6  -2   20.20    1.50
   4   6   2   19.40    1.00
   4   6   2   20.60    1.60
   4   6   2   18.90    1.30
  -5  -6  -2   25.30    1.70
  -5  -6  -2   26.50    1.50
  -5  -6  -2   26.20    1.50
  -5  -6  -2   24.20    1.20
   5   6   2   24.40    1.90
   5   6   2   24.10    1.10
   5   6   2   24.20    1.10
   5   6   2   23.40    1.40
  -6  -6  -2   -0.30    0.50
  -6  -6  -2    0.40    0.50
  -6  -6  -2    0.60    0.30
  -6  -6  -2   -0.20    0.40
   6   6   2    0.20    0.80
   6   6   2    0.10    0.30
   6   6   2    0.00    0.40
  -7  -6  -2  150.78    4.00
  -7  -6  -2  150.28    4.60
  -7  -6  -2  147.49    4.50
  -7  -6  -2  182.38    7.80
   7   6   2  146.49    3.80
   7   6   2  150.48    4.00
   7   6   2  153.38    5.60
  -8  -6  -2    0.60    0.30
  -8  -6  -2    1.10    0.80
  -8  -6  -2    1.20    0.60
  -8  -6  -2    1.70    0.70
  -9  -6  -2    7.30    1.10
  -9  -6  -2    7.80    1.30
  -9  -6  -2   10.20    1.30
   9   6   2    7.10    2.00
 -10  -6  -2   -0.20    1.00
 -10  -6  -2    0.40    0.90
 -10  -6  -2    0.30    1.00
  10   6   2   -0.10    1.70
   4  -7  -2    0.50    1.00
  -4   7   2   -0.10    1.30
  -4   7   2    0.50    1.10
  -4   7   2    0.70    1.00
   3  -7  -2    8.60    1.50
   3  -7  -2    7.10    1.10
  -3   7   2    6.00    1.30
  -3   7   2   10.60    1.70
  -3   7   2    9.80    1.50
  -3   7   2    8.20    1.40
   2  -7  -2    5.70    1.00
   2  -7  -2    5.60    1.40
  -2   7   2    6.60    1.20
  -2   7   2    3.40    1.40
  -2   7   2    5.80    1.20
  -2   7   2    5.90    1.20
   1  -7  -2   15.10    1.30
   1  -7  -2   16.10    1.80
  -1   7   2   15.90    1.60
  -1   7   2   15.20    1.60
  -1   7   2   17.10    1.50
  -1   7   2   17.00    1.80
   0  -7  -2   10.80    1.20
   0  -7  -2    9.80    1.20
   0  -7  -2    7.80    1.30
   0   7   2    9.60    1.30
   0   7   2   12.30    1.50
   0   7   2   11.40    1.40
   0   7   2   10.20    1.20
  -1  -7  -2   -0.20    0.50
  -1  -7  -2    0.20    0.50
  -1  -7  -2   -0.50    0.80
   1   7   2    0.00    0.40
   1   7   2   -0.40    0.50
   1   7   2    0.00    0.60
   1   7   2    0.20    0.60
  -2  -7  -2    7.90    1.00
  -2  -7  -2    8.50    1.20
  -2  -7  -2    9.80    1.20
  -2  -7  -2   10.60    1.50
   2   7   2    9.20    1.20
   2   7   2    7.50    1.10
   2   7   2   10.40    1.00
   2   7   2   11.30    1.00
  -3  -7  -2   13.10    1.30
  -3  -7  -2   11.60    1.20
  -3  -7  -2   12.20    1.20
  -3  -7  -2    9.50    1.30
   3   7   2   12.20    1.00
   3   7   2   12.10    0.90
   3   7   2   10.70    1.30
   3   7   2   11.50    1.30
  -4  -7  -2    0.30    0.50
  -4  -7  -2    0.50    0.50
  -4  -7  -2   -0.40    0.60
  -4  -7  -2    0.10    0.50
   4   7   2    0.40    0.40
   4   7   2   -0.40    0.60
   4   7   2    0.50    0.60
   4   7   2    0.20    0.30
  -5  -7  -2   57.79    3.20
  -5  -7  -2   59.89    2.50
  -5  -7  -2   59.59    2.60
  -5  -7  -2   57.49    2.20
   5   7   2   57.99    2.00
   5   7   2   57.29    2.00
   5   7   2   56.19    2.50
  -6  -7  -2   55.09    2.60
  -6  -7  -2   53.19    2.40
  -6  -7  -2   54.79    2.00
  -6  -7  -2   54.59    2.80
   6   7   2   57.59    3.30
   6   7   2   56.79    1.90
  -7  -7  -2    2.80    0.60
  -7  -7  -2    2.90    0.90
  -7  -7  -2    2.50    0.90
   7   7   2    3.60    0.80
   7   7   2    2.40    0.50
  -8  -7  -2    0.10    0.60
  -8  -7  -2   -0.10    0.90
  -8  -7  -2    0.00    0.80
   8   7   2   -0.30    0.50
   8   7   2    0.60    0.40
   8   7   2    1.40    1.30
  -9  -7  -2    9.80    1.30
  -9  -7  -2    9.10    1.60
  -9  -7  -2   10.20    1.50
   9   7   2   10.10    2.10
 -10  -7  -2    0.70    1.10
 -10  -7  -2    0.20    1.60
 -10  -7  -2    0.40    1.00
   3  -8  -2    0.50    1.10
   3  -8  -2    0.60    1.60
  -3   8   2   -1.10    1.40
  -3   8   2    0.90    1.30
   2  -8  -2   -0.20    1.50
  -2   8   2   -0.20    1.20
  -2   8   2   -0.60    0.90
  -2   8   2    0.80    1.00
   1  -8  -2   18.80    1.70
  -1   8   2   18.30    1.90
  -1   8   2   18.70    1.80
  -1   8   2   15.40    2.20
  -1   8   2   20.20    2.20
   0  -8  -2    7.50    1.20
   0  -8  -2    8.30    1.30
   0   8   2    7.80    1.50
   0   8   2    7.60    1.10
   0   8   2    9.80    1.30
   0   8   2    9.00    1.60
  -1  -8  -2    5.50    1.00
  -1  -8  -2    5.50    1.30
   1   8   2    5.80    1.00
   1   8   2    6.80    1.30
  -2  -8  -2   67.59    3.40
  -2  -8  -2   64.29    2.80
   2   8   2   59.99    3.20
   2   8   2   60.19    2.50
   2   8   2   61.29    2.50
  -3  -8  -2   10.50    1.50
  -3  -8  -2   10.40    1.50
  -3  -8  -2    7.90    1.10
   3   8   2    9.10    0.90
   3   8   2    8.40    1.40
   3   8   2    9.10    1.00
  -4  -8  -2  144.69    4.70
  -4  -8  -2  136.69    4.60
  -4  -8  -2  140.09    5.10
   4   8   2  134.69    5.30
   4   8   2  140.49    4.20
   4   8   2  144.59    4.00
  -5  -8  -2   -0.50    0.90
  -5  -8  -2    0.90    0.60
  -5  -8  -2    0.70    0.70
  -5  -8  -2    0.90    0.80
   5   8   2   -0.50    0.80
   5   8   2    0.00    0.40
   5   8   2   -0.10    0.40
  -6  -8  -2    3.80    1.20
  -6  -8  -2    3.80    1.10
  -6  -8  -2    2.80    0.90
  -6  -8  -2    4.20    0.90
   6   8   2    4.40    0.70
   6   8   2    4.30    0.70
   6   8   2    5.20    1.20
  -7  -8  -2   18.70    2.10
  -7  -8  -2   14.20    1.60
  -7  -8  -2   18.00    2.20
  -7  -8  -2   16.70    1.30
   7   8   2   16.20    1.60
   7   8   2   17.30    2.70
   7   8   2   17.40    1.10
  -8  -8  -2   15.10    1.70
  -8  -8  -2   15.80    2.00
  -8  -8  -2   17.00    2.10
   8   8   2   20.90    3.70
   8   8   2   15.50    1.10
   8   8   2   16.90    1.60
  -9  -8  -2    2.40    1.30
  -9  -8  -2    1.90    1.00
  -9  -8  -2    1.10    1.50
   1  -9  -2    6.40    2.20
   1  -9  -2    5.10    1.30
  -1   9   2    4.60    1.40
  -1   9   2    4.00    1.80
  -1   9   2    2.80    1.30
   0  -9  -2   15.90    2.40
   0  -9  -2   11.40    1.60
   0   9   2   14.10    2.20
   0   9   2    8.70    1.30
   0   9   2   11.10    1.50
  -1  -9  -2    3.60    1.00
  -1  -9  -2    1.70    1.60
  -1  -9  -2    1.80    1.00
   1   9   2    4.20    1.70
   1   9   2    4.00    1.00
   1   9   2    2.60    0.80
  -2  -9  -2   15.70    2.20
  -2  -9  -2   12.00    1.50
  -2  -9  -2   14.50    1.80
   2   9   2   15.90    1.60
   2   9   2   14.50    1.30
  -3  -9  -2    7.50    1.30
  -3  -9  -2    8.70    1.70
  -3  -9  -2    7.40    1.30
   3   9   2    9.40    1.80
   3   9   2    8.30    1.50
   3   9   2    6.80    1.10
   3   9   2    9.30    1.10
  -4  -9  -2    3.00    0.90
  -4  -9  -2    2.70    1.30
  -4  -9  -2    3.40    1.20
  -4  -9  -2    4.00    1.10
   4   9   2    4.70    0.90
   4   9   2    4.60    1.40
   4   9   2    3.40    1.30
   4   9   2    4.10    0.70
  -5  -9  -2    1.00    0.80
  -5  -9  -2    0.50    0.80
  -5  -9  -2    0.20    0.80
  -5  -9  -2   -0.30    1.20
   5   9   2    0.80    0.50
   5   9   2    0.10    0.50
   5   9   2    0.10    1.20
  -6  -9  -2    4.60    1.20
  -6  -9  -2    3.50    1.00
  -6  -9  -2    5.50    1.10
   6   9   2    5.90    0.90
   6   9   2    4.40    0.70
  -7  -9  -2    7.40    1.60
  -7  -9  -2    7.10    1.30
  -7  -9  -2    6.80    1.10
   7   9   2   -0.10    1.30
   7   9   2    5.70    0.80
  -8  -9  -2    7.50    1.40
  -8  -9  -2   10.00    2.10
   8   9   2   10.30    1.60
   8   9   2    8.30    1.00
  -1 -10  -2    2.70    1.30
  -1 -10  -2    4.60    1.50
   1  10   2    5.60    1.30
   1  10   2    4.60    1.10
  -2 -10  -2    1.50    1.10
  -2 -10  -2    1.10    1.10
   2  10   2    1.40    1.10
   2  10   2    1.60    0.80
  -3 -10  -2    1.40    1.20
  -3 -10  -2    1.30    1.10
   3  10   2    1.30    0.70
  -4 -10  -2   11.30    1.60
  -4 -10  -2   14.30    2.00
   4  10   2    9.10    1.20
  -5 -10  -2    2.70    1.30
  -5 -10  -2    1.70    1.40
  -5 -10  -2    1.80    1.10
   5  10   2    2.30    0.80
   5  10   2    2.00    0.70
  -6 -10  -2   22.30    2.80
  -6 -10  -2   21.30    2.30
   6  10   2   22.50    1.60
   6  10   2   25.90    1.60
  -7 -10  -2    0.30    1.20
  -7 -10  -2   -0.60    1.10
  -7 -10  -2    0.90    1.20
   7  10   2    3.00    1.80
   7  10   2    0.20    0.70
   5  10  -3    0.30    0.80
   5  10  -3    0.10    0.90
  -5 -10   3   -0.40    1.30
  -5 -10   3    0.50    1.60
   4  10  -3   17.80    1.50
   4  10  -3   19.10    1.80
  -4 -10   3   19.60    2.40
   3  10  -3    2.60    0.90
   3  10  -3    3.50    0.90
  -3 -10   3    1.00    1.50
   7   9  -3    7.00    1.90
   7   9  -3    7.30    1.10
  -7  -9   3    7.90    1.50
  -7  -9   3    8.50    2.00
  -7  -9   3    7.60    2.10
   6   9  -3    1.20    0.80
   6   9  -3    1.40    0.70
  -6  -9   3    1.20    1.20
  -6  -9   3   -0.60    1.00
  -6  -9   3    0.60    1.10
   5   9  -3    7.60    1.10
   5   9  -3    7.30    1.00
  -5  -9   3    7.00    1.40
  -5  -9   3    9.10    1.60
  -5  -9   3    5.90    1.40
   4   9  -3    1.90    0.70
   4   9  -3    1.80    0.60
  -4  -9   3    1.40    1.10
  -4  -9   3    2.30    1.20
   3   9  -3    0.00    0.60
   3   9  -3    0.10    0.50
  -3  -9   3    0.90    1.30
  -3  -9   3    0.30    1.10
   2   9  -3    7.50    1.20
   2   9  -3    5.60    0.90
  -2  -9   3    5.00    1.40
  -2  -9   3    5.80    1.70
   1   9  -3    6.00    1.10
   1   9  -3    4.40    0.90
  -1  -9   3    6.40    1.50
   0   9  -3   22.30    2.20
   0  -9   3   21.50    2.20
   0  -9   3   21.00    2.60
   8   8  -3    0.70    1.00
   8   8  -3    0.90    1.30
  -8  -8   3    1.90    1.20
  -8  -8   3    0.70    0.80
  -8  -8   3    2.10    1.20
   7   8  -3    0.30    0.60
   7   8  -3    0.10    1.60
  -7  -8   3   -0.40    1.00
  -7  -8   3   -0.10    0.80
  -7  -8   3    1.30    1.00
   6   8  -3   26.40    1.50
   6   8  -3   18.80    2.40
  -6  -8   3   23.10    2.00
  -6  -8   3   26.20    1.80
  -6  -8   3   24.00    2.20
  -6  -8   3   25.00    2.00
   5   8  -3    0.40    1.00
   5   8  -3    0.10    0.50
   5   8  -3    0.70    1.00
  -5  -8   3    0.90    0.90
  -5  -8   3    0.40    0.80
  -5  -8   3   -0.20    0.80
  -5  -8   3    0.60    0.90
   4   8  -3    3.00    0.70
   4   8  -3    1.80    1.10
   4   8  -3    0.90    0.60
  -4  -8   3    2.00    0.90
  -4  -8   3    0.60    0.70
  -4  -8   3    2.80    1.00
   3   8  -3    0.20    0.50
   3   8  -3    1.00    0.50
  -3  -8   3    0.10    0.80
  -3  -8   3    0.30    0.70
  -3  -8   3    1.00    0.90
   2   8  -3    2.10    0.60
   2   8  -3    1.60    0.60
  -2  -8   3    2.30    1.00
  -2  -8   3    1.20    0.90
  -2  -8   3    1.90    1.10
   1   8  -3    2.00    1.10
   1   8  -3    0.80    0.60
   1   8  -3    2.10    0.60
  -1  -8   3    2.00    0.90
   0   8  -3    0.10    1.10
   0   8  -3    0.20    0.60
   0   8  -3    0.20    0.60
   0  -8   3    1.40    1.20
   0  -8   3    0.30    0.90
  -1   8  -3   11.20    1.90
  -1   8  -3   11.50    1.40
   1  -8   3   14.40    1.60
  -2   8  -3   15.80    2.00
  -2   8  -3   25.30    2.80
   2  -8   3   22.10    2.20
   2  -8   3   18.60    1.80
   9   7  -3    6.30    0.90
  -9  -7   3    7.20    1.50
  -9  -7   3    6.90    1.10
  -9  -7   3    5.60    1.60
   8   7  -3    4.40    0.90
   8   7  -3    4.50    1.50
   8   7  -3    6.80    1.20
  -8  -7   3    5.40    1.00
  -8  -7   3    3.90    1.20
  -8  -7   3    6.60    1.20
  -8  -7   3    4.80    1.30
   7   7  -3    2.20    1.00
   7   7  -3    1.70    1.20
   7   7  -3    2.70    0.70
  -7  -7   3    3.10    1.10
  -7  -7   3    2.30    0.90
  -7  -7   3    4.20    0.80
   6   7  -3    9.20    1.30
   6   7  -3   10.60    1.00
  -6  -7   3    8.40    1.10
  -6  -7   3    9.90    1.50
  -6  -7   3    9.00    1.30
  -6  -7   3    8.70    1.40
   5   7  -3    1.10    0.60
   5   7  -3    0.20    0.80
   5   7  -3    1.30    0.50
  -5  -7   3    0.70    0.70
  -5  -7   3    0.90    0.70
  -5  -7   3    0.90    0.50
  -5  -7   3    0.90    0.80
   4   7  -3   11.90    1.40
   4   7  -3    9.40    1.00
  -4  -7   3    7.80    1.20
  -4  -7   3   10.30    1.40
  -4  -7   3    8.90    1.20
   3   7  -3   64.59    2.80
   3   7  -3   63.89    2.50
  -3  -7   3   63.99    3.10
  -3  -7   3   64.39    3.10
  -3  -7   3   61.99    2.80
   2   7  -3   50.69    2.10
   2   7  -3   42.30    2.50
   2   7  -3   48.80    1.90
  -2  -7   3   48.80    2.60
  -2  -7   3   48.90    2.40
  -2  -7   3   46.10    2.90
   1   7  -3   25.40    1.40
   1   7  -3   24.70    2.00
  -1  -7   3   25.30    1.80
  -1  -7   3   24.50    1.70
  -1  -7   3   24.70    2.10
   0   7  -3  142.89    4.60
   0   7  -3  146.69    4.40
   0   7  -3  148.19    4.90
   0   7  -3  146.89    5.20
   0  -7   3  145.19    5.50
   0  -7   3  142.29    4.80
   0  -7   3  148.39    4.80
  -1   7  -3   44.50    2.70
  -1   7  -3   50.49    2.40
  -1   7  -3   46.80    2.60
   1  -7   3   47.30    2.40
   1  -7   3   48.70    2.60
  -2   7  -3    3.50    0.80
  -2   7  -3    2.90    0.90
  -2   7  -3    2.70    1.00
   2  -7   3    2.60    0.90
   2  -7   3    2.30    1.10
   2  -7   3    2.10    1.80
  -3   7  -3    1.50    1.20
  -3   7  -3    1.30    0.90
  -3   7  -3    1.80    0.90
  -3   7  -3    2.20    1.30
   3  -7   3    1.90    0.90
   3  -7   3    1.60    1.10
  -4   7  -3    1.10    1.10
  -4   7  -3   -0.70    0.90
  -4   7  -3    1.30    1.50
   9   6  -3    0.40    1.50
  -9  -6   3    0.70    1.00
  -9  -6   3    0.80    1.10
  -9  -6   3    0.60    0.80
  -9  -6   3    0.20    0.80
   8   6  -3    2.40    0.70
   8   6  -3    2.30    0.70
  -8  -6   3    2.00    0.90
  -8  -6   3    1.80    0.70
  -8  -6   3    2.70    1.10
   7   6  -3   24.30    1.40
   7   6  -3   23.40    2.10
   7   6  -3   23.60    2.10
  -7  -6   3   24.50    1.80
  -7  -6   3   22.50    1.80
  -7  -6   3   23.80    1.40
   6   6  -3   40.40    1.70
   6   6  -3   36.20    2.50
   6   6  -3   47.50    2.10
  -6  -6   3   40.70    1.80
  -6  -6   3   42.40    1.90
  -6  -6   3   40.20    2.30
   5   6  -3   35.20    1.80
   5   6  -3   35.20    1.50
   5   6  -3   29.70    2.10
   5   6  -3   32.70    1.80
  -5  -6   3   34.30    1.60
  -5  -6   3   34.00    1.60
  -5  -6   3   33.40    2.10
  -5  -6   3   33.00    1.90
   4   6  -3  128.39    3.60
   4   6  -3  121.29    4.50
   4   6  -3  129.69    3.90
   4   6  -3  126.89    4.00
  -4  -6   3  115.79    3.80
  -4  -6   3  126.09    4.50
  -4  -6   3  130.59    3.90
  -4  -6   3  115.79    4.10
   3   6  -3   55.49    2.70
   3   6  -3   60.99    2.20
   3   6  -3   55.49    1.90
   3   6  -3   53.39    2.30
  -3  -6   3   54.59    2.60
  -3  -6   3   57.29    2.50
  -3  -6   3   51.09    2.20
  -3  -6   3   58.59    2.40
   2   6  -3    0.50    0.60
   2   6  -3    1.10    0.60
   2   6  -3    0.50    0.40
   2   6  -3    0.60    0.40
  -2  -6   3    0.70    0.50
  -2  -6   3    0.90    0.60
  -2  -6   3    1.10    0.60
  -2  -6   3    0.50    0.50
   1   6  -3   65.29    2.80
   1   6  -3   60.29    2.20
   1   6  -3   66.19    2.40
   1   6  -3   62.89    2.60
  -1  -6   3   63.89    2.60
  -1  -6   3   59.79    2.60
  -1  -6   3   62.29    2.80
   0   6  -3    0.60    0.50
   0   6  -3    0.30    0.50
   0   6  -3    0.40    0.60
   0  -6   3    0.90    0.70
   0  -6   3    0.80    0.60
   0  -6   3    1.30    0.70
  -1   6  -3   16.30    1.10
  -1   6  -3   16.60    1.40
  -1   6  -3   15.10    1.50
   1  -6   3   15.60    1.40
   1  -6   3   14.90    1.30
  -2   6  -3   11.90    1.70
  -2   6  -3   14.50    1.50
  -2   6  -3   13.40    1.60
  -2   6  -3    9.80    1.40
   2  -6   3   11.70    1.20
   2  -6   3   11.30    1.30
  -3   6  -3    7.70    1.30
  -3   6  -3    5.80    0.90
  -3   6  -3    7.70    1.30
  -3   6  -3    6.00    1.10
   3  -6   3    7.00    0.90
   3  -6   3    8.00    1.00
  -4   6  -3   36.70    2.40
  -4   6  -3   34.90    2.40
  -4   6  -3   36.10    2.40
  -4   6  -3   36.50    1.90
  -5   6  -3    2.30    1.20
  -5   6  -3    4.00    1.00
  -5   6  -3    2.80    1.30
   9   5  -3    2.80    1.50
  -9  -5   3    3.30    0.80
  -9  -5   3    1.90    1.10
  -9  -5   3    2.30    0.90
   8   5  -3    6.90    1.40
  -8  -5   3    6.70    1.20
  -8  -5   3    6.60    0.90
  -8  -5   3    5.00    0.80
   7   5  -3   29.40    2.10
   7   5  -3   32.90    1.50
   7   5  -3   30.30    1.40
  -7  -5   3   30.90    1.50
  -7  -5   3   30.90    1.90
  -7  -5   3   31.40    1.60
  -7  -5   3   31.70    1.90
   6   5  -3   11.90    0.90
   6   5  -3   10.10    1.30
   6   5  -3   11.10    1.00
  -6  -5   3    9.20    1.20
  -6  -5   3   11.60    0.90
  -6  -5   3   11.10    1.30
  -6  -5   3   11.10    0.90
   5   5  -3    7.10    0.80
   5   5  -3    3.90    0.80
   5   5  -3    5.80    0.80
  -5  -5   3    6.80    1.00
  -5  -5   3    6.40    0.70
  -5  -5   3    5.90    1.00
  -5  -5   3    6.30    0.70
   4   5  -3   86.29    2.50
   4   5  -3   79.59    2.80
   4   5  -3   80.79    3.20
   4   5  -3   81.79    2.80
  -4  -5   3   82.19    2.70
  -4  -5   3   85.69    3.20
  -4  -5   3   85.79    3.00
   3   5  -3    0.60    0.30
   3   5  -3    0.90    0.40
   3   5  -3    1.40    0.50
   3   5  -3    0.60    0.70
  -3  -5   3    1.00    0.40
  -3  -5   3    1.30    0.50
  -3  -5   3    0.70    0.50
   2   5  -3   17.10    1.20
   2   5  -3   17.80    1.00
   2   5  -3   18.50    0.90
  -2  -5   3   19.20    1.10
  -2  -5   3   19.50    1.30
  -2  -5   3   17.60    1.10
  -2  -5   3   18.60    1.40
   1   5  -3  195.28    5.60
   1   5  -3  189.48    5.00
   1   5  -3  197.88    5.20
   1   5  -3  191.68    5.70
  -1  -5   3  189.38    5.40
  -1  -5   3  191.38    5.60
  -1  -5   3  184.08    5.30
   0   5  -3   81.69    3.10
   0   5  -3   82.59    2.80
   0  -5   3   82.29    2.80
   0  -5   3   81.79    2.90
   0  -5   3   77.79    3.10
  -1   5  -3    5.10    0.70
  -1   5  -3    4.90    0.90
  -1   5  -3    4.30    0.80
  -1   5  -3    5.70    1.20
   1  -5   3    4.20    0.80
   1  -5   3    4.80    0.80
   1  -5   3    5.50    0.90
  -2   5  -3  133.29    4.40
  -2   5  -3  136.19    3.90
  -2   5  -3  136.69    4.20
  -2   5  -3  128.79    4.70
   2  -5   3  136.99    4.00
   2  -5   3  134.49    4.10
  -3   5  -3   -0.10    0.60
  -3   5  -3    0.10    0.60
  -3   5  -3    0.20    0.50
  -3   5  -3    0.20    0.60
   3  -5   3    0.00    0.50
   3  -5   3    0.00    0.50
  -4   5  -3   61.99    2.30
  -4   5  -3   54.99    2.60
  -4   5  -3   58.19    2.50
  -4   5  -3   57.49    2.90
  -5   5  -3   13.70    1.60
  -5   5  -3   13.70    1.60
  -5   5  -3   15.20    2.20
  -5   5  -3   15.30    1.70
  -6   5  -3    4.10    1.20
  -6   5  -3    4.00    0.90
  -6   5  -3    4.80    1.30
  -6   5  -3    4.70    1.40
   9   4  -3    2.60    1.20
  -9  -4   3    2.40    0.90
  -9  -4   3    2.40    0.90
  -9  -4   3    3.10    0.70
   8   4  -3   14.10    1.70
  -8  -4   3   13.80    1.40
  -8  -4   3   13.70    1.30
  -8  -4   3   15.60    1.00
  -8  -4   3   14.60    1.60
   7   4  -3   18.90    0.90
   7   4  -3   18.10    0.90
  -7  -4   3   17.50    1.40
  -7  -4   3   19.80    1.10
  -7  -4   3   20.10    1.40
  -7  -4   3   18.50    1.50
   6   4  -3   -0.10    0.30
   6   4  -3    0.10    0.40
   6   4  -3   -0.20    0.50
  -6  -4   3   -0.10    0.40
  -6  -4   3   -0.20    0.40
  -6  -4   3    0.40    0.50
   5   4  -3  150.78    4.10
   5   4  -3  152.08    4.20
   5   4  -3  149.29    4.70
  -5  -4   3  150.68    4.20
  -5  -4   3  145.19    4.00
  -5  -4   3  157.08    4.70
  -5  -4   3  147.09    4.50
   4   4  -3   91.49    3.30
   4   4  -3   98.19    2.90
   4   4  -3   91.99    2.70
  -4  -4   3   92.39    3.10
  -4  -4   3   92.39    2.80
  -4  -4   3   97.69    2.70
  -4  -4   3   94.99    3.30
   3   4  -3   10.30    0.80
   3   4  -3   10.70    0.70
   3   4  -3   11.00    0.80
  -3  -4   3    9.90    0.70
  -3  -4   3   11.50    0.90
  -3  -4   3   10.30    0.70
  -3  -4   3    9.60    0.90
   2   4  -3  698.73   15.80
   2   4  -3  671.33   16.60
   2   4  -3  679.73   16.20
   2   4  -3  695.33   16.10
  -2  -4   3  676.13   16.30
  -2  -4   3  655.23   16.00
  -2  -4   3  671.63   16.10
  -2  -4   3  698.53   16.60
   1   4  -3    5.80    0.70
   1   4  -3    5.70    0.50
   1   4  -3    4.50    0.70
   1   4  -3    4.80    0.50
  -1  -4   3    3.50    0.50
  -1  -4   3    3.90    0.60
  -1  -4   3    4.00    0.60
   0   4  -3   95.39    3.00
   0   4  -3   95.29    2.90
   0   4  -3   90.19    2.70
   0   4  -3   94.89    3.20
   0  -4   3   94.69    3.20
   0  -4   3   95.39    3.00
   0  -4   3   94.79    2.90
  -1   4  -3    2.80    0.60
  -1   4  -3    3.00    0.60
  -1   4  -3    3.60    0.50
  -1   4  -3    3.00    0.60
   1  -4   3    3.20    0.60
   1  -4   3    3.10    0.70
   1  -4   3    3.70    0.70
  -2   4  -3  163.68    4.30
  -2   4  -3  164.58    4.90
  -2   4  -3  155.88    4.50
  -2   4  -3  157.18    4.80
   2  -4   3  149.19    5.20
   2  -4   3  164.98    4.60
   2  -4   3  159.18    4.40
  -3   4  -3    0.90    0.40
  -3   4  -3    0.60    0.50
  -3   4  -3    0.60    0.50
  -3   4  -3    0.60    0.40
   3  -4   3    0.60    0.40
   3  -4   3    0.70    0.70
   3  -4   3    0.80    0.40
  -4   4  -3    0.90    0.50
  -4   4  -3    1.20    0.60
  -4   4  -3    1.20    0.60
  -4   4  -3    1.60    0.70
  -5   4  -3   19.80    1.60
  -5   4  -3   18.50    1.70
  -5   4  -3   15.80    1.20
  -6   4  -3    4.00    1.00
  -6   4  -3    3.20    1.10
  -6   4  -3    4.80    0.90
  -7   4  -3    1.00    0.80
  -7   4  -3    1.60    1.10
  -7   4  -3    1.50    1.10
  -7   4  -3    0.20    1.20
  -9  -3   3    0.70    1.00
  -9  -3   3    0.20    0.90
  -9  -3   3    0.30    0.50
  -9  -3   3   -0.30    0.60
   8   3  -3    0.10    0.80
  -8  -3   3    0.10    0.40
  -8  -3   3    0.10    0.70
  -8  -3   3   -0.30    0.60
  -8  -3   3   -0.30    0.50
   7   3  -3   54.19    2.40
  -7  -3   3   46.50    1.80
  -7  -3   3   48.50    2.10
  -7  -3   3   46.80    2.20
  -7  -3   3   48.70    2.30
   6   3  -3   86.99    3.20
   6   3  -3   91.79    2.50
   6   3  -3   85.79    2.50
  -6  -3   3   83.89    3.00
  -6  -3   3   89.49    2.60
  -6  -3   3   87.59    3.10
  -6  -3   3   90.79    3.50
   5   3  -3    2.50    0.40
   5   3  -3    2.30    0.60
  -5  -3   3    2.30    0.40
  -5  -3   3    2.90    0.60
  -5  -3   3    1.50    0.40
  -5  -3   3    1.80    0.60
   4   3  -3    0.20    0.30
   4   3  -3    0.10    0.30
   4   3  -3    0.40    0.30
  -4  -3   3    0.20    0.40
  -4  -3   3    0.40    0.20
  -4  -3   3    0.70    0.30
  -4  -3   3    0.30    0.30
   3   3  -3  444.86   11.20
   3   3  -3  462.35   10.90
   3   3  -3  461.45   11.10
   3   3  -3  464.25   11.40
  -3  -3   3  456.95   10.90
  -3  -3   3  467.55   11.50
  -3  -3   3  473.95   11.10
  -3  -3   3  471.95   11.30
   2   3  -3  133.39    3.50
   2   3  -3  133.09    3.70
   2   3  -3  131.99    3.70
   2   3  -3  128.99    3.90
  -2  -3   3  140.09    3.60
  -2  -3   3  136.19    4.00
  -2  -3   3  135.19    3.80
   1   3  -3  395.66    9.70
   1   3  -3  402.96    9.40
   1   3  -3  406.36    9.60
   1   3  -3  398.06   10.00
  -1  -3   3  390.56    9.70
  -1  -3   3  399.36    9.80
  -1  -3   3  405.66    9.50
   0   3  -3   69.79    2.20
   0   3  -3   68.29    2.20
   0   3  -3   68.79    2.00
   0   3  -3   65.69    2.40
   0  -3   3   69.69    2.30
   0  -3   3   66.79    2.30
   0  -3   3   68.49    2.10
  -1   3  -3  471.35   11.10
  -1   3  -3  470.55   11.50
  -1   3  -3  475.85   11.70
  -1   3  -3  469.85   11.30
   1  -3   3  463.65   11.80
   1  -3   3  475.35   11.30
   1  -3   3  475.75   11.30
  -2   3  -3    2.30    0.60
  -2   3  -3    1.30    0.40
  -2   3  -3    1.30    0.50
  -2   3  -3    0.90    0.30
   2  -3   3    1.10    0.50
   2  -3   3    0.90    0.30
   2  -3   3    1.10    0.30
  -3   3  -3    6.20    0.70
  -3   3  -3    7.50    1.10
  -3   3  -3    8.60    1.00
  -3   3  -3    6.40    0.70
  -4   3  -3   29.70    1.60
  -4   3  -3   28.90    1.30
  -4   3  -3   30.70    1.80
  -4   3  -3   26.30    1.30
  -5   3  -3   28.40    1.60
  -5   3  -3   28.00    1.40
  -5   3  -3   28.70    1.40
  -6   3  -3    7.00    1.20
  -6   3  -3    8.20    0.90
  -6   3  -3    8.80    0.90
  -6   3  -3    9.00    1.20
  -7   3  -3   12.60    1.30
  -7   3  -3   12.30    1.50
  -7   3  -3   10.10    1.50
  -7   3  -3   14.00    1.40
  -7   3  -3   11.40    1.10
  -9  -2   3    4.10    0.80
  -9  -2   3    3.20    1.10
  -8  -2   3    0.20    0.50
  -8  -2   3    1.00    0.50
  -8  -2   3    0.30    0.80
   7   2  -3   14.00    1.20
  -7  -2   3   13.60    1.30
  -7  -2   3   15.00    1.00
  -7  -2   3   14.00    0.90
   6   2  -3    1.80    0.60
  -6  -2   3    1.10    0.60
  -6  -2   3    2.80    0.60
  -6  -2   3    2.20    0.40
   5   2  -3   19.90    0.90
   5   2  -3   18.10    0.80
   5   2  -3   18.00    1.10
  -5  -2   3   19.40    0.90
  -5  -2   3   17.80    1.10
   4   2  -3  108.19    2.90
   4   2  -3  111.39    3.00
   4   2  -3  103.49    3.10
  -4  -2   3  103.89    3.10
  -4  -2   3   99.19    3.20
  -4  -2   3  106.09    2.80
  -4  -2   3  108.59    3.20
   3   2  -3 1364.16   31.20
   3   2  -3 1360.96   31.40
   2   2  -3    3.20    0.40
   2   2  -3    1.40    0.30
   2   2  -3    2.30    0.40
   2   2  -3    2.50    0.40
  -2  -2   3    2.90    0.50
  -2  -2   3    2.50    0.30
  -2  -2   3    2.00    0.30
  -2  -2   3    3.20    0.60
   1   2  -3  241.08    5.90
   1   2  -3  228.38    6.10
   1   2  -3  236.68    5.70
   1   2  -3  239.98    6.00
  -1  -2   3  239.48    5.70
  -1  -2   3  246.08    5.80
  -1  -2   3  232.98    6.00
   0   2  -3  585.94   14.10
   0   2  -3  591.64   13.90
   0   2  -3  595.84   13.60
   0  -2   3  597.44   13.90
   0  -2   3  594.44   13.70
  -1   2  -3  697.93   16.80
  -1   2  -3  718.53   16.50
   1  -2   3  712.33   16.80
   1  -2   3  707.13   16.50
   1  -2   3  706.13   16.30
  -2   2  -3  112.19    3.00
  -2   2  -3  111.49    3.30
  -2   2  -3  109.49    2.90
   2  -2   3  106.49    2.90
   2  -2   3  108.59    3.50
  -3   2  -3   25.60    1.00
  -3   2  -3   24.30    1.30
  -3   2  -3   25.50    1.00
   3  -2   3   25.00    1.50
  -4   2  -3  367.86    9.70
  -4   2  -3  376.16    8.80
  -4   2  -3  361.46    8.80
  -5   2  -3   21.50    1.60
  -5   2  -3   22.10    1.00
  -6   2  -3    0.00    0.60
  -6   2  -3    0.20    0.40
  -6   2  -3    0.40    0.40
  -6   2  -3    0.50    0.70
  -7   2  -3    9.10    1.30
  -7   2  -3    5.50    1.10
  -7   2  -3    6.60    0.80
  -7   2  -3    8.10    0.90
  -8   2  -3   11.40    1.30
  -8   2  -3    8.60    1.30
  -8   2  -3    9.30    1.10
  -8   2  -3    8.60    1.70
  -8   2  -3    8.30    0.90
  -9  -1   3    0.10    0.70
  -9  -1   3   -0.90    1.00
  -8  -1   3   21.60    1.70
  -7  -1   3   33.60    1.80
  -7  -1   3   33.20    1.50
  -6  -1   3    0.40    0.60
  -6  -1   3    0.20    0.40
  -6  -1   3    0.30    0.30
   5   1  -3  206.18    4.90
   5   1  -3  208.98    5.40
  -5  -1   3  209.38    5.60
  -5  -1   3  208.38    5.30
  -5  -1   3  211.08    5.20
   4   1  -3  522.45   12.30
   4   1  -3  511.15   12.20
   4   1  -3  525.65   12.10
  -4  -1   3  522.85   12.20
  -4  -1   3  522.65   12.50
  -4  -1   3  519.35   12.20
   3   1  -3  353.26    8.60
   3   1  -3  364.26    8.60
   3   1  -3  356.06    8.60
  -3  -1   3  360.96    8.60
  -3  -1   3  364.66    8.60
  -3  -1   3  363.06    8.80
   2   1  -3   89.29    2.50
   2   1  -3   94.89    2.60
   2   1  -3   90.09    2.50
  -2  -1   3   93.99    2.40
  -2  -1   3   97.19    2.70
  -2  -1   3   85.19    2.60
   1   1  -3  426.46   10.10
   1   1  -3  437.66   10.30
   1   1  -3  422.06   10.30
   1   1  -3  427.46   10.20
  -1  -1   3  448.36   10.20
  -1  -1   3  439.56   10.30
  -1  -1   3  432.56   10.00
   0   1  -3    6.80    0.30
   0   1  -3    5.30    0.50
   0   1  -3    5.90    0.40
   0  -1   3    5.70    0.50
   0  -1   3    6.60    0.40
   0  -1   3    6.30    0.30
  -1   1  -3    3.80    0.30
  -1   1  -3    4.50    0.40
  -1   1  -3    3.30    0.20
   1  -1   3    3.90    0.40
   1  -1   3    3.70    0.40
   1  -1   3    4.40    0.30
  -2   1  -3  732.33   16.50
  -2   1  -3  723.03   16.90
   2  -1   3  716.63   17.10
  -3   1  -3  109.29    3.20
  -3   1  -3  107.29    2.60
  -3   1  -3  105.79    2.70
   3  -1   3   97.79    3.30
  -4   1  -3   87.09    2.20
  -4   1  -3   83.49    2.90
  -4   1  -3   81.69    2.20
  -5   1  -3   24.90    0.90
  -5   1  -3   25.70    1.60
  -6   1  -3   86.79    3.40
  -6   1  -3   84.09    2.30
  -6   1  -3   86.09    3.20
  -6   1  -3   87.19    2.40
  -7   1  -3    3.20    0.50
  -7   1  -3    2.80    0.50
  -7   1  -3    2.90    0.90
  -7   1  -3    3.30    1.10
  -8   1  -3   22.10    1.70
  -8   1  -3   19.70    1.20
  -8   1  -3   22.50    2.10
  -8   1  -3   23.00    1.20
  -9   1  -3   20.40    1.30
  -9   1  -3   19.60    2.40
  -9   1  -3   18.30    1.20
  -9   1  -3   17.20    1.70
  -9   0   3    2.30    1.30
  -9   0   3    3.00    0.90
  -8   0   3   10.40    1.10
  -8   0   3    9.30    1.40
  -7   0   3   -0.10    0.50
  -7   0   3   -0.50    0.70
  -6   0   3  140.99    4.20
  -6   0   3  132.69    3.90
  -5   0   3   63.19    2.10
  -5   0   3   63.19    2.30
   4   0  -3   17.10    0.70
   4   0  -3   18.70    0.80
  -4   0   3   17.70    0.90
  -4   0   3   18.00    1.10
   3   0  -3  687.93   15.80
   3   0  -3  671.73   15.80
  -3   0   3  685.13   15.90
  -3   0   3  685.63   16.10
   2   0  -3    8.00    0.40
   2   0  -3    8.70    0.50
   2   0  -3    9.30    0.60
  -2   0   3    7.20    0.60
  -2   0   3    7.50    0.50
   1   0  -3 1072.49   84.19
  -1   0   3 1268.87   88.29
   0   0  -3 1082.09   76.99
   0   0   3  936.61   70.29
  -1   0  -3   22.70    0.90
  -1   0  -3   24.70    0.70
  -1   0  -3   24.30    0.80
   1   0   3   22.80    0.90
   1   0   3   24.50    0.70
   1   0   3   27.60    0.90
  -2   0  -3   28.40    1.00
  -2   0  -3   28.00    0.70
  -2   0  -3   29.00    0.90
   2   0   3   27.70    1.10
  -3   0  -3  464.25   10.80
   3   0   3  432.96   10.80
  -4   0  -3  306.57    8.00
  -4   0  -3  323.97    8.30
  -5   0  -3    3.00    0.60
  -5   0  -3    2.50    0.60
  -6   0  -3  244.58    7.20
  -6   0  -3  267.97    7.20
  -7   0  -3   21.70    1.70
  -7   0  -3   23.50    1.60
  -8   0  -3    2.80    0.90
  -9   0  -3   20.50    2.10
  -9   0  -3   18.70    1.70
  -8   1   3    0.50    0.90
  -8   1   3    0.30    1.00
  -8   1   3   -1.00    1.20
  -7   1   3    1.20    0.80
  -6   1   3  126.69    3.90
  -6   1   3  137.19    4.20
  -5   1   3   47.60    2.00
  -5   1   3   46.30    1.80
   4  -1  -3   11.50    0.60
   4  -1  -3   11.80    0.90
  -4   1   3   12.30    1.00
  -4   1   3   12.00    0.80
   3  -1  -3  457.75   10.90
   3  -1  -3  471.35   10.90
  -3   1   3  457.35   11.10
   2  -1  -3   84.39    2.50
   2  -1  -3   86.09    2.50
  -2   1   3   89.39    2.50
  -2   1   3   91.89    2.70
   1  -1  -3   83.89    2.40
   1  -1  -3   83.79    2.50
   1  -1  -3   88.09    2.20
  -1   1   3   84.89    2.40
  -1   1   3   83.29    2.50
   0  -1  -3  682.43   15.90
   0  -1  -3  671.23   15.80
   0  -1  -3  694.03   15.90
   0   1   3  683.63   15.90
   0   1   3  688.53   15.80
   1   1   3 1047.30   78.99
   2   1   3 1882.81   97.39
   2   1   3 1623.94   88.49
  -3  -1  -3   76.19    2.00
  -3  -1  -3   73.09    1.80
  -3  -1  -3   71.99    1.80
  -3  -1  -3   75.29    2.60
  -4  -1  -3  155.58    4.20
  -4  -1  -3  159.08    4.70
  -5  -1  -3    2.80    0.60
  -5  -1  -3    3.40    0.60
  -6  -1  -3   25.50    1.60
  -6  -1  -3   27.60    1.60
  -7  -1  -3   30.70    1.90
  -7  -1  -3   34.50    1.90
  -8  -1  -3   17.90    1.60
  -8  -1  -3   15.30    1.40
  -9  -1  -3    6.40    1.20
  -9  -1  -3    3.70    1.10
  -8   2   3    2.80    1.20
  -7   2   3    7.10    1.80
  -7   2   3    7.20    1.20
  -7   2   3    6.30    1.20
  -6   2   3   35.20    2.10
  -6   2   3   35.30    2.30
  -5   2   3   57.09    2.20
  -5   2   3   58.59    2.50
   4  -2  -3   27.00    0.90
   4  -2  -3   25.10    1.00
  -4   2   3   26.80    1.30
  -4   2   3   27.70    1.50
   3  -2  -3   13.60    0.70
   3  -2  -3   13.60    0.80
  -3   2   3   14.80    1.00
  -3   2   3   15.80    0.90
   2  -2  -3   29.90    1.30
   2  -2  -3   30.60    1.20
  -2   2   3   31.30    1.40
  -2   2   3   32.80    1.30
   1  -2  -3  178.28    4.80
   1  -2  -3  179.98    4.40
   1  -2  -3  184.08    4.70
  -1   2   3  183.08    4.90
  -1   2   3  178.38    4.50
  -1   2   3  184.68    4.70
   0  -2  -3   16.80    0.80
   0  -2  -3   17.10    0.80
   0  -2  -3   15.90    0.90
   0   2   3   17.10    0.80
   0   2   3   17.00    0.80
   0   2   3   17.00    0.90
  -1  -2  -3 6780.32  269.37
   1   2   3 6995.10  268.57
  -2  -2  -3  994.10   23.00
  -2  -2  -3  999.60   23.00
  -2  -2  -3 1018.50   23.40
   2   2   3  984.70   23.40
   2   2   3  997.80   22.90
   2   2   3 1016.10   22.90
  -3  -2  -3  201.68    4.90
  -3  -2  -3  203.18    5.90
  -3  -2  -3  198.08    4.90
   3   2   3  203.28    4.60
   3   2   3  199.08    4.70
   3   2   3  196.18    5.50
  -4  -2  -3   95.19    2.50
  -4  -2  -3   94.79    3.20
  -4  -2  -3   92.79    2.50
   4   2   3   93.29    3.20
  -5  -2  -3   35.80    1.80
  -5  -2  -3   34.20    1.40
  -5  -2  -3   35.90    1.10
  -6  -2  -3  141.39    3.50
  -6  -2  -3  143.69    3.40
  -6  -2  -3  141.89    4.60
  -6  -2  -3  146.29    4.20
  -7  -2  -3  169.18    5.20
  -7  -2  -3  159.78    4.00
  -7  -2  -3  163.38    4.90
  -8  -2  -3   28.90    0.90
  -8  -2  -3   27.50    1.80
  -8  -2  -3   31.10    1.90
  -9  -2  -3   15.90    1.60
  -9  -2  -3   13.80    0.60
  -9  -2  -3   14.70    1.70
 -10  -2  -3    2.20    1.00
 -10  -2  -3    2.60    1.00
  -7   3   3   -0.70    0.90
  -7   3   3    0.80    1.00
  -6   3   3   51.79    2.60
  -6   3   3   47.30    2.40
  -6   3   3   46.60    3.10
  -5   3   3   47.60    2.30
  -5   3   3   45.50    2.30
  -5   3   3   45.00    2.80
   4  -3  -3  112.89    3.10
   4  -3  -3  115.79    3.00
  -4   3   3  116.49    4.50
  -4   3   3  113.59    3.60
  -4   3   3  114.29    3.80
   3  -3  -3   22.80    1.20
  -3   3   3   25.00    1.30
  -3   3   3   24.50    1.50
   2  -3  -3   12.00    0.90
   2  -3  -3   13.90    0.70
   2  -3  -3   12.10    0.80
  -2   3   3   15.20    1.10
  -2   3   3   14.00    1.00
   1  -3  -3  653.63   15.70
   1  -3  -3  662.93   15.50
   1  -3  -3  668.13   15.40
  -1   3   3  667.63   15.80
  -1   3   3  643.44   15.60
  -1   3   3  654.13   15.40
   0  -3  -3  155.48    4.20
   0  -3  -3  155.68    4.40
   0  -3  -3  156.88    4.20
   0   3   3  151.68    4.40
   0   3   3  154.38    4.30
   0   3   3  161.68    4.40
   0   3   3  158.78    4.30
  -1  -3  -3   29.60    1.30
  -1  -3  -3   28.70    1.30
   1   3   3   27.40    1.30
   1   3   3   29.00    1.20
   1   3   3   30.00    1.20
  -2  -3  -3   67.99    2.20
  -2  -3  -3   65.89    2.10
   2   3   3   65.19    2.10
   2   3   3   66.69    1.80
   2   3   3   67.89    2.40
   2   3   3   64.39    2.00
  -3  -3  -3  309.87    8.00
  -3  -3  -3  302.77    7.40
  -3  -3  -3  312.07    7.40
   3   3   3  294.67    7.30
   3   3   3  298.57    8.00
   3   3   3  298.47    7.10
  -4  -3  -3  214.58    5.40
  -4  -3  -3  212.78    6.10
  -4  -3  -3  220.48    5.40
   4   3   3  212.48    6.20
   4   3   3  217.68    5.30
   4   3   3  217.58    5.00
  -5  -3  -3    9.70    0.60
  -5  -3  -3    8.90    0.60
  -5  -3  -3   10.20    1.00
   5   3   3   12.70    1.10
  -6  -3  -3   57.49    2.50
  -6  -3  -3   56.99    1.70
  -6  -3  -3   54.99    2.00
  -6  -3  -3   56.39    1.80
   6   3   3   59.99    2.70
  -7  -3  -3  262.07    6.40
  -7  -3  -3  259.97    6.30
  -7  -3  -3  260.87    7.00
  -7  -3  -3  269.77    7.60
  -8  -3  -3   38.20    1.50
  -8  -3  -3   36.60    2.20
  -8  -3  -3   38.50    1.30
  -8  -3  -3   37.80    1.90
  -9  -3  -3    6.60    0.80
  -9  -3  -3    6.90    1.20
  -9  -3  -3    6.70    0.60
  -9  -3  -3    5.40    1.00
 -10  -3  -3    1.60    0.90
 -10  -3  -3    2.50    1.20
 -10  -3  -3    1.00    0.70
 -10  -3  -3    1.70    0.50
  -6   4   3   19.70    2.10
  -6   4   3   21.80    2.00
  -5   4   3   42.60    2.40
  -5   4   3   43.00    2.30
   4  -4  -3    6.00    0.70
   4  -4  -3    5.20    0.60
  -4   4   3    5.30    1.00
  -4   4   3    7.10    1.20
  -4   4   3    3.10    0.80
   3  -4  -3    0.20    0.50
   3  -4  -3    0.00    0.40
  -3   4   3    0.50    0.60
  -3   4   3    0.70    0.40
  -3   4   3    0.40    0.50
   2  -4  -3   56.19    2.30
   2  -4  -3   57.59    2.00
  -2   4   3   55.69    2.30
  -2   4   3   53.79    2.60
  -2   4   3   56.69    2.20
  -2   4   3   54.29    1.90
   1  -4  -3    1.20    0.40
   1  -4  -3    1.50    0.40
   1  -4  -3    1.30    0.50
  -1   4   3    1.00    0.50
  -1   4   3    1.90    0.50
  -1   4   3    1.40    0.50
  -1   4   3    1.20    0.50
   0  -4  -3  607.54   14.30
   0  -4  -3  599.84   14.50
   0   4   3  568.44   14.50
   0   4   3  609.14   14.40
   0   4   3  594.34   14.40
   0   4   3  587.34   14.40
  -1  -4  -3  262.57    6.60
  -1  -4  -3  255.47    6.70
  -1  -4  -3  250.17    6.80
   1   4   3  252.97    6.60
   1   4   3  256.67    6.70
   1   4   3  257.27    6.90
   1   4   3  250.57    6.60
  -2  -4  -3  311.97    8.20
  -2  -4  -3  316.07    7.90
   2   4   3  307.87    8.30
   2   4   3  314.37    7.80
   2   4   3  322.17    7.90
   2   4   3  314.47    7.60
  -3  -4  -3  361.26    8.90
  -3  -4  -3  362.96    8.90
  -3  -4  -3  346.47    8.50
  -3  -4  -3  370.96    9.40
   3   4   3  350.56    9.40
   3   4   3  360.86    8.80
   3   4   3  356.16    8.60
  -4  -4  -3  105.29    3.10
  -4  -4  -3  108.29    3.70
  -4  -4  -3  105.89    3.10
   4   4   3  105.29    3.00
   4   4   3  108.69    2.80
   4   4   3  106.59    3.80
  -5  -4  -3    1.50    0.40
  -5  -4  -3    2.00    0.50
  -5  -4  -3    1.70    0.60
   5   4   3    1.50    0.20
   5   4   3    1.60    0.30
   5   4   3    2.20    0.70
  -6  -4  -3   58.49    2.00
  -6  -4  -3   56.79    1.90
  -6  -4  -3   55.19    2.60
  -7  -4  -3   17.80    1.00
  -7  -4  -3   17.20    1.50
  -7  -4  -3   16.00    1.00
   7   4   3   17.50    1.70
  -8  -4  -3   -0.10    0.40
  -8  -4  -3   -0.20    0.40
  -8  -4  -3   -0.40    0.40
  -8  -4  -3   -0.20    0.60
  -8  -4  -3    0.00    0.30
   8   4   3    0.10    1.00
  -9  -4  -3    3.70    0.70
  -9  -4  -3    2.90    0.80
  -9  -4  -3    3.30    0.70
  -9  -4  -3    2.50    0.70
 -10  -4  -3    4.60    1.10
 -10  -4  -3    4.70    0.90
 -10  -4  -3    4.30    0.80
 -10  -4  -3    3.70    1.20
  -6   5   3    1.60    1.50
  -6   5   3    0.10    1.20
  -6   5   3    2.80    1.50
  -5   5   3   23.70    3.00
  -5   5   3   21.80    2.10
  -5   5   3   21.10    2.00
   4  -5  -3   28.40    1.60
   4  -5  -3   28.50    1.40
  -4   5   3   29.60    2.00
  -4   5   3   26.90    2.30
   3  -5  -3    2.00    0.80
   3  -5  -3    3.40    0.60
  -3   5   3    2.50    0.80
  -3   5   3    2.20    0.60
  -3   5   3    2.20    0.90
  -3   5   3    1.90    0.80
   2  -5  -3  166.58    5.00
   2  -5  -3  169.78    4.60
  -2   5   3  160.28    5.50
  -2   5   3  163.58    5.10
  -2   5   3  159.48    4.70
  -2   5   3  159.88    5.00
   1  -5  -3    3.20    0.60
   1  -5  -3    3.50    0.70
   1  -5  -3    2.10    0.80
  -1   5   3    3.80    0.80
  -1   5   3    2.20    0.60
  -1   5   3    4.10    0.70
  -1   5   3    3.90    0.80
   0  -5  -3    1.90    0.60
   0  -5  -3    1.80    0.70
   0  -5  -3    2.80    0.60
   0   5   3    1.00    0.60
   0   5   3    1.30    0.60
   0   5   3    2.10    0.60
   0   5   3    2.50    0.60
  -1  -5  -3  129.19    4.10
  -1  -5  -3  134.19    4.00
  -1  -5  -3  130.49    3.90
   1   5   3  126.09    3.90
   1   5   3  132.19    4.00
   1   5   3  124.79    4.10
   1   5   3  124.59    3.90
  -2  -5  -3  140.39    4.40
  -2  -5  -3  141.09    4.30
  -2  -5  -3  144.79    4.20
   2   5   3  134.79    4.20
   2   5   3  143.69    4.50
   2   5   3  139.39    4.10
  -3  -5  -3   83.69    2.90
  -3  -5  -3   90.49    3.20
  -3  -5  -3   85.29    2.80
  -3  -5  -3   77.29    2.60
   3   5   3   87.29    2.40
   3   5   3   86.89    3.30
   3   5   3   88.89    2.60
   3   5   3   87.59    2.90
  -4  -5  -3   16.40    1.10
  -4  -5  -3   15.60    1.10
  -4  -5  -3   17.20    1.30
   4   5   3   17.00    1.10
   4   5   3   17.50    0.70
   4   5   3   17.60    1.50
  -5  -5  -3   48.10    1.90
  -5  -5  -3   52.29    2.40
  -5  -5  -3   46.00    1.90
   5   5   3   48.50    1.80
   5   5   3   49.30    2.50
   5   5   3   49.30    1.50
  -6  -5  -3   -0.10    0.50
  -6  -5  -3    0.50    0.50
  -6  -5  -3   -0.20    0.40
   6   5   3    0.70    0.70
   6   5   3    0.20    0.20
   6   5   3   -0.10    0.30
  -7  -5  -3   33.40    1.60
  -7  -5  -3   32.30    2.10
  -7  -5  -3   30.90    1.50
   7   5   3   26.90    2.10
  -8  -5  -3   19.10    3.10
  -8  -5  -3   20.80    1.30
  -8  -5  -3   20.20    1.30
   8   5   3   22.00    2.20
  -9  -5  -3    2.00    0.50
  -9  -5  -3    2.30    0.90
  -9  -5  -3    1.90    0.60
  -9  -5  -3    2.40    0.80
 -10  -5  -3    2.80    0.90
 -10  -5  -3    2.10    0.90
 -10  -5  -3    1.50    1.00
  -5   6   3    1.40    1.40
  -5   6   3    4.50    1.40
   4  -6  -3    4.90    0.80
   4  -6  -3    3.90    1.00
  -4   6   3    3.70    1.30
  -4   6   3    5.10    1.20
   3  -6  -3    0.30    0.60
  -3   6   3   -0.30    0.90
  -3   6   3   -0.60    0.70
  -3   6   3    0.70    0.70
  -3   6   3    0.70    0.90
   2  -6  -3    3.70    0.80
   2  -6  -3    2.60    1.00
  -2   6   3    2.50    0.70
  -2   6   3    3.00    1.00
  -2   6   3    2.10    0.90
   1  -6  -3   44.20    2.00
   1  -6  -3   43.40    2.30
   1  -6  -3   40.30    1.90
  -1   6   3   41.30    2.10
  -1   6   3   40.70    2.20
  -1   6   3   41.60    2.30
  -1   6   3   41.20    2.10
   0  -6  -3   72.69    2.90
   0  -6  -3   84.79    3.30
   0  -6  -3   81.19    2.90
   0   6   3   88.69    3.30
   0   6   3   85.59    3.10
   0   6   3   81.09    3.10
   0   6   3   74.29    3.10
  -1  -6  -3    3.60    0.70
  -1  -6  -3    3.90    0.70
  -1  -6  -3    5.40    1.00
   1   6   3    3.70    0.80
   1   6   3    3.40    0.70
   1   6   3    3.60    0.70
   1   6   3    3.50    0.70
  -2  -6  -3   16.50    1.20
  -2  -6  -3   14.50    1.40
  -2  -6  -3   16.00    1.30
   2   6   3   16.00    1.30
   2   6   3   17.10    1.20
   2   6   3   13.70    1.00
   2   6   3   14.60    1.30
  -3  -6  -3    8.20    1.10
  -3  -6  -3    8.30    1.00
  -3  -6  -3    8.10    1.10
  -3  -6  -3    6.90    0.90
   3   6   3    9.30    1.30
   3   6   3    7.70    0.80
   3   6   3    8.40    0.70
  -4  -6  -3    2.60    0.60
  -4  -6  -3    2.30    0.70
  -4  -6  -3    3.70    0.60
  -4  -6  -3    3.40    0.80
   4   6   3    4.10    0.60
   4   6   3    3.00    0.90
   4   6   3    3.60    0.80
   4   6   3    3.50    0.40
  -5  -6  -3  181.58    5.20
  -5  -6  -3  186.78    5.40
  -5  -6  -3  184.18    5.90
   5   6   3  181.28    6.10
   5   6   3  179.88    5.10
   5   6   3  184.18    4.70
  -6  -6  -3    4.00    0.80
  -6  -6  -3    5.80    0.90
  -6  -6  -3    4.20    0.90
   6   6   3    5.20    1.10
   6   6   3    3.50    0.40
   6   6   3    5.20    0.70
  -7  -6  -3   11.30    1.50
  -7  -6  -3   11.50    1.30
  -7  -6  -3   13.90    1.30
   7   6   3   11.20    1.60
   7   6   3   12.60    0.80
   7   6   3   12.90    0.70
  -8  -6  -3    8.70    1.20
  -8  -6  -3   10.60    1.20
  -8  -6  -3    6.30    1.30
  -9  -6  -3   13.40    1.50
  -9  -6  -3   12.30    1.80
  -9  -6  -3   14.10    1.40
   9   6   3   13.50    2.40
 -10  -6  -3    4.50    1.20
 -10  -6  -3    4.00    1.30
  10   6   3    3.40    2.10
   4  -7  -3    0.60    1.20
   4  -7  -3    1.40    0.90
  -4   7   3   -0.30    1.00
  -4   7   3   -0.10    1.20
   3  -7  -3    1.10    1.30
   3  -7  -3    2.20    0.90
  -3   7   3    1.70    1.40
  -3   7   3    1.20    1.00
  -3   7   3    1.30    1.00
  -3   7   3    1.70    1.00
   2  -7  -3    2.60    1.20
   2  -7  -3    3.20    0.90
  -2   7   3    1.30    0.90
  -2   7   3    1.30    0.90
  -2   7   3    2.70    1.00
   1  -7  -3   19.70    1.50
   1  -7  -3   16.90    1.90
   1  -7  -3   15.20    1.40
  -1   7   3   19.10    1.90
  -1   7   3   16.70    1.70
  -1   7   3   14.80    1.60
  -1   7   3   17.90    1.70
   0  -7  -3   55.99    2.50
   0  -7  -3   55.69    2.40
   0  -7  -3   55.49    2.90
   0   7   3   53.09    2.70
   0   7   3   56.59    2.70
   0   7   3   56.99    2.60
   0   7   3   55.99    2.70
  -1  -7  -3   -0.40    0.40
  -1  -7  -3    0.00    0.60
  -1  -7  -3   -0.10    0.80
   1   7   3   -0.10    0.50
   1   7   3    0.60    0.60
  -2  -7  -3   12.50    1.10
  -2  -7  -3   12.30    1.50
  -2  -7  -3   13.80    1.60
   2   7   3    9.50    1.40
   2   7   3   12.80    1.10
   2   7   3   11.10    1.30
   2   7   3   11.70    1.00
  -3  -7  -3   51.79    2.30
  -3  -7  -3   53.69    2.60
   3   7   3   52.49    2.10
   3   7   3   51.59    2.80
   3   7   3   50.59    2.50
   3   7   3   54.59    1.90
  -4  -7  -3    1.50    0.80
  -4  -7  -3    1.70    0.70
  -4  -7  -3    0.60    0.60
  -4  -7  -3    1.70    0.60
   4   7   3    1.20    0.50
   4   7   3    1.50    0.70
   4   7   3    1.60    0.40
   4   7   3    0.80    0.80
  -5  -7  -3    0.80    0.80
  -5  -7  -3    0.80    0.70
  -5  -7  -3    0.70    0.60
  -5  -7  -3    0.60    0.50
   5   7   3    0.70    0.60
   5   7   3    0.90    0.40
  -6  -7  -3    4.00    0.80
  -6  -7  -3    7.30    1.20
  -6  -7  -3    7.20    1.00
   6   7   3    6.40    0.70
  -7  -7  -3    7.90    1.80
  -7  -7  -3    9.10    1.30
  -7  -7  -3    7.40    1.30
   7   7   3    8.50    0.70
   7   7   3    9.60    1.10
  -8  -7  -3    3.50    1.00
  -8  -7  -3    8.70    1.20
  -8  -7  -3    7.60    1.30
   8   7   3    7.40    1.80
  -9  -7  -3    0.10    0.90
  -9  -7  -3    1.20    1.10
  -9  -7  -3    0.80    0.80
   9   7   3   -0.50    1.60
 -10  -7  -3    3.70    1.50
 -10  -7  -3    2.50    1.20
 -10  -7  -3    3.30    1.10
   2  -8  -3    2.80    1.00
  -2   8   3    3.80    1.50
  -2   8   3    3.70    1.30
  -2   8   3    2.70    1.30
   1  -8  -3    1.80    0.90
  -1   8   3    0.60    1.10
  -1   8   3    1.20    1.00
  -1   8   3    1.60    1.00
   0  -8  -3   11.40    1.40
   0  -8  -3   13.90    1.50
   0   8   3   13.70    1.80
   0   8   3   10.50    1.40
   0   8   3   16.90    2.00
   0   8   3   14.30    1.60
  -1  -8  -3    2.90    0.90
  -1  -8  -3    3.90    0.90
   1   8   3    3.20    1.20
   1   8   3    2.80    0.90
  -2  -8  -3   16.90    1.50
   2   8   3   15.40    1.80
   2   8   3   16.60    1.40
  -3  -8  -3    9.40    1.20
  -3  -8  -3    8.60    1.30
   3   8   3   10.10    1.10
   3   8   3    7.60    1.30
   3   8   3   11.10    1.00
  -4  -8  -3   14.10    1.90
  -4  -8  -3    9.80    1.30
   4   8   3   10.60    0.90
   4   8   3    9.70    1.80
  -5  -8  -3    4.10    1.20
  -5  -8  -3    4.30    0.90
  -5  -8  -3    5.80    1.10
   5   8   3    5.10    1.10
   5   8   3    5.30    0.70
   5   8   3    6.30    0.80
  -6  -8  -3    4.80    1.20
  -6  -8  -3    5.40    0.90
  -6  -8  -3    4.70    1.10
  -6  -8  -3    5.70    1.10
   6   8   3    5.60    0.70
   6   8   3    6.10    0.70
   6   8   3    6.20    1.20
  -7  -8  -3   39.40    2.20
  -7  -8  -3   44.20    2.80
  -7  -8  -3   38.10    2.50
   7   8   3   39.40    2.20
   7   8   3   44.00    1.60
   7   8   3   41.70    3.20
  -8  -8  -3    0.60    0.80
  -8  -8  -3    3.00    1.10
   8   8   3    3.80    0.90
   8   8   3    2.60    0.60
  -9  -8  -3    6.40    1.50
  -9  -8  -3    6.80    1.70
  -9  -8  -3    6.70    1.30
   1  -9  -3   10.00    2.50
   1  -9  -3   12.00    1.60
  -1   9   3   12.80    1.70
  -1   9   3   14.10    2.20
  -1   9   3   10.60    1.90
   0  -9  -3    9.60    1.60
   0  -9  -3    7.60    1.40
   0  -9  -3   11.20    2.20
   0   9   3    9.70    1.40
   0   9   3   11.70    1.90
   0   9   3    8.60    1.40
  -1  -9  -3    4.30    1.10
  -1  -9  -3    2.60    1.70
  -1  -9  -3    4.10    1.10
   1   9   3    5.00    1.10
   1   9   3    4.20    1.50
   1   9   3    3.00    0.90
  -2  -9  -3    1.20    0.80
  -2  -9  -3    2.90    1.00
  -2  -9  -3    1.50    1.50
   2   9   3    2.60    1.60
   2   9   3    1.80    0.70
   2   9   3    1.20    0.80
  -3  -9  -3    4.60    1.10
  -3  -9  -3    1.30    0.90
  -3  -9  -3    2.40    1.40
   3   9   3    2.20    0.60
   3   9   3    2.00    0.80
   3   9   3    5.40    1.40
   3   9   3    5.00    1.60
  -4  -9  -3    5.20    1.20
  -4  -9  -3    3.60    1.40
  -4  -9  -3    3.90    1.10
   4   9   3    3.10    1.40
   4   9   3    3.90    1.30
   4   9   3    4.20    0.70
  -5  -9  -3    4.80    1.20
  -5  -9  -3    4.90    1.50
  -5  -9  -3    5.90    1.20
   5   9   3    5.90    0.80
   5   9   3    7.50    2.00
   5   9   3    5.70    0.90
  -6  -9  -3    1.30    0.90
  -6  -9  -3    0.20    0.80
  -6  -9  -3    0.00    0.80
   6   9   3    0.50    0.50
   6   9   3    0.80    0.50
  -7  -9  -3    6.00    1.30
  -7  -9  -3    8.20    1.70
   7   9   3    6.60    0.90
   7   9   3    6.20    1.50
  -8  -9  -3    1.00    1.70
  -8  -9  -3    1.10    1.00
   8   9   3    0.30    0.60
   8   9   3   -0.60    1.20
  -1 -10  -3    3.70    1.40
  -1 -10  -3    3.70    1.50
   1  10   3    5.30    1.30
  -2 -10  -3   13.90    2.00
  -2 -10  -3    8.60    1.50
   2  10   3    8.40    1.30
   2  10   3   10.30    1.30
  -3 -10  -3    1.20    1.10
  -3 -10  -3    0.40    1.00
   3  10   3    0.20    0.90
   3  10   3    0.10    0.60
  -4 -10  -3    6.90    1.40
  -4 -10  -3    8.70    1.50
   4  10   3    5.40    1.00
   4  10   3    9.60    1.30
  -5 -10  -3    2.40    1.30
  -5 -10  -3    1.70    1.00
   5  10   3    2.60    0.70
   5  10   3    3.40    0.90
  -6 -10  -3   18.10    2.50
   6  10   3   17.70    1.40
   6  10   3   19.00    1.40
  -7 -10  -3    4.20    1.60
  -7 -10  -3    3.90    1.30
   7  10   3    3.60    0.80
   7  10   3    4.40    1.90
   7   9  -4    0.40    0.80
  -7  -9   4    1.00    1.20
  -7  -9   4    3.00    1.50
  -7  -9   4    1.30    1.10
   6   9  -4    0.20    0.80
   6   9  -4   -0.50    0.70
  -6  -9   4   -0.60    1.00
  -6  -9   4   -0.30    1.10
   5   9  -4   -0.50    0.60
   5   9  -4    0.10    0.70
  -5  -9   4   -0.60    1.00
  -5  -9   4   -0.50    1.00
  -5  -9   4    0.60    1.20
   4   9  -4    9.40    1.10
   4   9  -4    8.20    1.20
  -4  -9   4    8.60    1.70
  -4  -9   4    8.10    1.80
   3   9  -4   22.70    1.70
   3   9  -4   22.60    1.50
  -3  -9   4   24.80    2.20
  -3  -9   4   25.80    3.00
   2   9  -4    4.80    1.00
   2   9  -4    2.10    0.70
  -2  -9   4    2.00    1.30
   1   9  -4    5.50    1.10
  -1  -9   4    5.50    1.50
   0   9  -4    0.50    0.70
   0   9  -4    0.10    0.80
   0  -9   4   -0.30    1.20
   8   8  -4   12.10    1.40
  -8  -8   4    7.10    1.20
  -8  -8   4    6.90    1.50
   7   8  -4    3.60    0.90
   7   8  -4    5.10    1.50
  -7  -8   4    3.70    1.10
  -7  -8   4    4.70    1.00
  -7  -8   4    3.80    1.30
   6   8  -4    8.40    1.00
  -6  -8   4    9.80    1.60
  -6  -8   4   10.80    1.40
  -6  -8   4    9.30    1.70
   5   8  -4    0.50    0.70
   5   8  -4    1.60    0.60
   5   8  -4    1.70    1.10
   5   8  -4    0.50    1.10
  -5  -8   4    0.50    0.90
  -5  -8   4    1.00    1.00
  -5  -8   4    1.40    1.10
  -5  -8   4    0.60    1.00
   4   8  -4   48.90    2.40
   4   8  -4   48.00    2.70
   4   8  -4   48.60    2.00
   4   8  -4   52.69    3.20
  -4  -8   4   50.29    2.70
  -4  -8   4   47.40    2.70
  -4  -8   4   45.30    2.90
  -4  -8   4   52.29    2.80
   3   8  -4    7.80    1.10
   3   8  -4    7.00    1.30
   3   8  -4    6.10    0.90
   3   8  -4    6.20    1.30
  -3  -8   4    8.80    1.50
  -3  -8   4    7.80    1.50
  -3  -8   4   11.20    1.70
   2   8  -4    3.60    1.40
   2   8  -4    3.30    0.70
   2   8  -4    3.90    0.80
   2   8  -4    3.00    1.20
  -2  -8   4    4.00    2.20
  -2  -8   4    4.20    1.10
  -2  -8   4    2.00    1.20
   1   8  -4   21.30    1.60
   1   8  -4   24.70    2.60
   1   8  -4   20.50    1.40
   1   8  -4   22.00    2.20
  -1  -8   4   23.20    2.50
  -1  -8   4   20.90    2.30
  -1  -8   4   21.60    2.00
   0   8  -4    6.30    1.50
   0   8  -4    3.90    0.90
   0   8  -4    5.70    1.00
   0  -8   4    5.30    1.30
  -1   8  -4    5.20    1.00
  -1   8  -4    4.10    1.50
  -1   8  -4    4.50    1.10
   1  -8   4    2.90    1.20
  -2   8  -4   -0.20    0.80
  -2   8  -4    0.00    0.80
  -2   8  -4    2.80    1.80
   2  -8   4    0.60    1.50
   2  -8   4   -0.30    1.10
   9   7  -4    1.00    1.00
   9   7  -4    0.60    0.80
  -9  -7   4    0.10    1.10
  -9  -7   4   -0.50    0.80
   8   7  -4    2.30    0.80
   8   7  -4    2.60    1.40
  -8  -7   4    3.00    1.20
  -8  -7   4    2.10    0.80
  -8  -7   4    1.30    1.20
   7   7  -4    7.60    1.60
   7   7  -4   10.80    1.20
   7   7  -4   12.20    1.50
  -7  -7   4   10.50    1.70
  -7  -7   4   11.90    1.30
  -7  -7   4   13.40    1.80
  -7  -7   4    9.40    1.30
   6   7  -4    4.30    1.10
   6   7  -4    1.60    1.00
  -6  -7   4    2.90    1.00
  -6  -7   4    3.60    1.10
  -6  -7   4    3.10    0.80
   5   7  -4   49.80    2.00
   5   7  -4   37.50    2.30
   5   7  -4   46.70    2.30
  -5  -7   4   45.40    2.70
  -5  -7   4   52.39    2.60
  -5  -7   4   47.50    2.30
  -5  -7   4   42.60    2.10
   4   7  -4   -0.30    0.70
   4   7  -4    2.90    0.70
   4   7  -4    3.40    0.60
  -4  -7   4    4.90    1.10
  -4  -7   4    4.10    1.00
  -4  -7   4    5.50    1.00
   3   7  -4    9.70    0.90
   3   7  -4   10.10    1.10
  -3  -7   4    7.50    1.30
  -3  -7   4   11.90    1.60
  -3  -7   4    7.80    1.30
   2   7  -4    6.60    0.80
   2   7  -4    3.80    1.00
  -2  -7   4    2.70    0.90
  -2  -7   4    6.80    1.30
  -2  -7   4    6.40    1.10
   1   7  -4   -0.10    0.80
   1   7  -4    0.50    0.50
   1   7  -4    0.20    0.40
   1   7  -4    0.40    0.70
  -1  -7   4    0.60    0.70
  -1  -7   4   -0.10    0.70
   0   7  -4  100.19    4.20
   0   7  -4  100.69    3.30
   0   7  -4  105.69    3.70
   0   7  -4  101.99    3.90
   0  -7   4  105.19    3.90
   0  -7   4  102.59    3.90
   0  -7   4  103.49    4.50
  -1   7  -4    4.50    1.00
  -1   7  -4    3.40    0.70
  -1   7  -4    4.00    1.10
  -1   7  -4    4.70    1.20
   1  -7   4    2.80    1.10
   1  -7   4    3.80    1.40
   1  -7   4    5.00    1.10
  -2   7  -4    1.90    0.70
  -2   7  -4    3.90    1.30
  -2   7  -4    3.00    1.30
   2  -7   4    2.70    0.90
   2  -7   4    4.10    1.20
  -3   7  -4   54.29    3.10
  -3   7  -4   48.90    3.30
  -3   7  -4   46.20    2.80
   3  -7   4   52.19    2.50
   3  -7   4   51.89    2.30
   9   6  -4   17.90    4.40
  -9  -6   4   23.70    2.00
  -9  -6   4   23.50    2.10
  -9  -6   4   24.30    2.50
   8   6  -4   11.40    1.10
   8   6  -4   14.90    1.30
  -8  -6   4    8.60    1.10
  -8  -6   4   10.70    1.40
  -8  -6   4   11.10    1.30
  -8  -6   4   11.90    1.70
   7   6  -4   15.10    1.40
   7   6  -4   14.40    1.20
  -7  -6   4   16.50    1.90
  -7  -6   4   14.50    1.70
  -7  -6   4   14.60    1.30
  -7  -6   4   14.80    1.20
   6   6  -4   57.79    2.50
   6   6  -4   55.19    2.10
   6   6  -4   57.19    3.10
  -6  -6   4   50.19    2.70
  -6  -6   4   54.19    2.20
   5   6  -4    6.60    1.00
   5   6  -4    9.60    1.20
   5   6  -4    9.70    0.90
   5   6  -4   10.30    1.50
  -5  -6   4    6.30    1.00
  -5  -6   4    8.30    1.00
  -5  -6   4   10.00    1.10
   4   6  -4   36.00    1.50
   4   6  -4   36.50    2.20
   4   6  -4   35.60    1.80
   4   6  -4   37.80    2.00
  -4  -6   4   38.30    2.10
  -4  -6   4   34.70    2.10
  -4  -6   4   38.40    1.80
  -4  -6   4   34.60    1.70
   3   6  -4    0.20    0.40
   3   6  -4    0.50    0.60
   3   6  -4    0.30    0.40
   3   6  -4   -0.30    0.50
  -3  -6   4    0.90    0.60
  -3  -6   4   -0.30    0.40
  -3  -6   4    0.20    0.40
  -3  -6   4    1.20    0.60
   2   6  -4   45.00    1.70
   2   6  -4   44.50    1.90
   2   6  -4   42.10    2.30
   2   6  -4   41.40    2.00
  -2  -6   4   42.40    2.10
  -2  -6   4   41.90    2.00
  -2  -6   4   43.50    2.10
   1   6  -4   10.30    0.90
   1   6  -4   11.00    1.30
   1   6  -4   10.80    0.80
  -1  -6   4   10.70    1.30
  -1  -6   4    9.80    1.20
  -1  -6   4    8.50    1.10
   0   6  -4   22.40    1.50
   0   6  -4   23.80    1.40
   0   6  -4   22.40    1.20
   0   6  -4   20.80    1.70
   0  -6   4   21.50    1.80
   0  -6   4   24.00    1.60
   0  -6   4   22.50    1.60
  -1   6  -4   37.80    1.70
  -1   6  -4   39.00    2.00
  -1   6  -4   39.80    2.30
  -1   6  -4   38.10    2.00
   1  -6   4   38.50    2.00
   1  -6   4   33.40    1.90
  -2   6  -4   12.30    1.60
  -2   6  -4   11.80    1.30
  -2   6  -4   10.90    1.40
   2  -6   4   11.80    1.30
   2  -6   4   12.40    1.40
  -3   6  -4   10.70    1.40
  -3   6  -4   10.20    1.30
  -3   6  -4    7.70    1.30
   3  -6   4    9.00    1.10
   3  -6   4    7.50    1.60
   3  -6   4    9.70    1.00
  -4   6  -4   12.90    1.80
  -4   6  -4   13.60    1.80
  -4   6  -4   11.70    1.80
  -4   6  -4   13.80    1.30
  -5   6  -4    4.30    1.00
  -5   6  -4    2.90    1.50
  -5   6  -4    3.10    1.60
  -5   6  -4    2.90    1.20
   9   5  -4    1.70    1.50
  -9  -5   4    1.60    1.20
   8   5  -4    3.40    0.70
   8   5  -4    3.70    0.60
   8   5  -4    1.40    1.10
  -8  -5   4    3.40    0.70
  -8  -5   4    3.00    1.10
  -8  -5   4    2.90    0.90
  -8  -5   4    2.90    0.80
   7   5  -4    4.40    0.80
   7   5  -4    4.30    1.10
   7   5  -4    3.00    0.80
  -7  -5   4    5.40    1.10
  -7  -5   4    4.30    0.80
  -7  -5   4    4.10    0.70
   6   5  -4   33.40    1.60
   6   5  -4   34.20    1.70
   6   5  -4   33.20    2.10
  -6  -5   4   32.20    1.90
  -6  -5   4   31.20    1.50
  -6  -5   4   35.00    1.60
  -6  -5   4   31.40    1.90
   5   5  -4   42.10    2.30
   5   5  -4   40.90    2.20
   5   5  -4   40.70    1.70
  -5  -5   4   43.20    1.80
  -5  -5   4   44.00    2.20
  -5  -5   4   40.80    2.20
  -5  -5   4   40.50    1.70
   4   5  -4   79.29    2.90
   4   5  -4   79.79    2.80
   4   5  -4   80.89    3.20
   4   5  -4   78.29    2.50
  -4  -5   4   76.09    2.60
  -4  -5   4   77.89    3.20
  -4  -5   4   82.19    3.00
   3   5  -4    3.30    0.60
   3   5  -4    2.60    0.40
   3   5  -4    3.10    0.80
   3   5  -4    2.10    0.60
  -3  -5   4    3.20    0.60
  -3  -5   4    2.80    0.80
  -3  -5   4    2.60    0.70
  -3  -5   4    3.00    0.60
   2   5  -4   30.30    1.40
   2   5  -4   30.10    1.60
   2   5  -4   27.30    1.70
   2   5  -4   27.60    1.20
  -2  -5   4   32.10    1.50
  -2  -5   4   30.40    1.60
  -2  -5   4   30.30    1.70
   1   5  -4    0.50    0.30
   1   5  -4    0.30    0.50
   1   5  -4    0.40    0.50
   1   5  -4    0.30    0.40
  -1  -5   4    0.10    0.50
  -1  -5   4    0.10    0.30
   0   5  -4  243.88    6.20
   0   5  -4  245.88    6.60
   0   5  -4  238.78    7.00
   0   5  -4  248.48    6.50
   0  -5   4  247.68    6.60
   0  -5   4  240.18    6.70
   0  -5   4  233.98    7.00
  -1   5  -4   23.20    1.40
  -1   5  -4   24.20    1.20
  -1   5  -4   25.80    1.70
  -1   5  -4   22.00    1.40
   1  -5   4   25.00    1.50
   1  -5   4   23.90    1.40
   1  -5   4   24.40    1.80
  -2   5  -4   33.70    1.80
  -2   5  -4   31.60    1.70
  -2   5  -4   29.10    1.90
   2  -5   4   32.20    1.70
   2  -5   4   30.80    1.60
  -3   5  -4   13.20    1.30
  -3   5  -4   12.00    1.40
  -3   5  -4   13.50    1.40
  -3   5  -4   12.90    1.00
   3  -5   4   12.10    1.10
   3  -5   4   12.90    1.00
  -4   5  -4   13.60    1.50
  -4   5  -4   13.50    1.10
  -4   5  -4   15.30    1.70
  -4   5  -4   15.00    1.60
  -5   5  -4    9.30    1.50
  -5   5  -4    7.60    1.30
  -5   5  -4    6.70    1.30
  -6   5  -4    0.20    1.10
  -6   5  -4   -1.00    0.80
  -6   5  -4    0.10    0.90
  -6   5  -4    0.90    1.20
   9   4  -4    6.20    1.50
  -9  -4   4    9.00    1.00
  -9  -4   4    5.90    1.20
  -9  -4   4    8.30    1.50
  -9  -4   4    6.60    1.10
   8   4  -4    1.10    1.00
  -8  -4   4    1.30    0.60
  -8  -4   4    0.70    0.70
  -8  -4   4    0.70    0.70
   7   4  -4   81.09    2.50
   7   4  -4   81.99    3.40
  -7  -4   4   83.39    3.10
  -7  -4   4   84.79    2.60
  -7  -4   4   78.99    3.30
  -7  -4   4   77.99    3.10
   6   4  -4   32.80    1.50
   6   4  -4   34.40    1.90
   6   4  -4   34.20    1.50
  -6  -4   4   31.30    1.40
  -6  -4   4   34.60    1.80
  -6  -4   4   33.50    1.70
  -6  -4   4   33.20    1.90
   5   4  -4    1.10    0.50
   5   4  -4    0.80    0.50
   5   4  -4    0.70    0.40
  -5  -4   4    0.40    0.40
  -5  -4   4    1.00    0.40
  -5  -4   4    0.50    0.50
  -5  -4   4    0.80    0.50
   4   4  -4   89.79    3.20
   4   4  -4   89.19    2.70
   4   4  -4   90.49    2.90
  -4  -4   4   93.39    3.30
  -4  -4   4   88.99    2.70
  -4  -4   4   86.09    3.10
  -4  -4   4   89.09    2.80
   3   4  -4  109.99    3.50
   3   4  -4  111.39    3.10
   3   4  -4  110.49    3.40
  -3  -4   4  113.09    3.80
  -3  -4   4  115.79    3.20
  -3  -4   4  107.49    3.60
   2   4  -4   54.89    2.30
   2   4  -4   55.29    2.00
   2   4  -4   53.69    2.00
   2   4  -4   54.19    1.80
  -2  -4   4   55.39    2.20
  -2  -4   4   52.79    1.90
   1   4  -4    4.30    0.50
   1   4  -4    2.60    0.50
   1   4  -4    3.90    0.50
   1   4  -4    5.40    0.80
  -1  -4   4    4.40    0.60
  -1  -4   4    4.40    0.60
  -1  -4   4    4.20    0.70
   0   4  -4  428.16   10.70
   0   4  -4  445.96   10.70
   0   4  -4  441.46   11.10
   0   4  -4  441.36   10.40
   0  -4   4  431.76   10.60
   0  -4   4  421.96   11.00
   0  -4   4  421.36   10.80
  -1   4  -4   33.10    1.80
  -1   4  -4   36.80    1.60
  -1   4  -4   37.00    1.60
  -1   4  -4   33.90    1.30
   1  -4   4   36.10    2.20
   1  -4   4   33.90    1.60
   1  -4   4   36.60    1.60
  -2   4  -4   23.80    1.30
  -2   4  -4   25.80    1.50
  -2   4  -4   26.30    1.60
   2  -4   4   26.30    1.30
   2  -4   4   23.80    1.30
   2  -4   4   24.70    1.80
  -3   4  -4   76.39    3.30
  -3   4  -4   73.09    2.60
  -3   4  -4   79.79    3.00
  -3   4  -4   79.59    2.50
   3  -4   4   71.09    3.30
   3  -4   4   76.99    2.30
   3  -4   4   73.59    2.30
  -4   4  -4   79.39    3.10
  -4   4  -4   78.89    3.20
  -4   4  -4   70.29    2.70
  -4   4  -4   77.69    2.50
  -5   4  -4   32.40    1.90
  -5   4  -4   31.70    1.50
  -5   4  -4   29.70    2.00
  -5   4  -4   32.20    2.20
  -6   4  -4    9.80    1.40
  -6   4  -4   12.30    1.10
  -6   4  -4    9.50    1.40
  -6   4  -4    9.60    1.20
  -7   4  -4    5.20    1.30
  -7   4  -4    2.40    1.30
  -7   4  -4    4.60    1.20
  -7   4  -4    4.90    0.90
  -7   4  -4    5.80    1.60
  -9  -3   4    2.30    0.70
  -9  -3   4    3.00    1.10
  -9  -3   4    2.70    1.20
   8   3  -4    0.60    0.90
  -8  -3   4    0.80    0.50
  -8  -3   4    1.30    0.80
  -8  -3   4    0.20    0.80
  -8  -3   4    0.50    0.60
   7   3  -4   11.40    1.30
  -7  -3   4   11.00    0.90
  -7  -3   4   10.50    1.40
  -7  -3   4   13.50    1.50
  -7  -3   4   10.40    1.10
   6   3  -4    1.00    0.50
   6   3  -4    1.50    0.40
  -6  -3   4    0.80    0.40
  -6  -3   4    1.20    0.60
  -6  -3   4    0.60    0.40
   5   3  -4   11.20    0.80
   5   3  -4    9.90    1.00
   5   3  -4   10.20    0.80
  -5  -3   4   13.30    1.30
  -5  -3   4   11.70    0.70
  -5  -3   4   10.60    1.00
  -5  -3   4    9.80    0.90
   4   3  -4   14.00    0.90
   4   3  -4   13.50    1.00
   4   3  -4   15.50    0.90
  -4  -3   4   13.90    0.80
  -4  -3   4   13.90    1.00
  -4  -3   4   15.30    1.10
  -4  -3   4   14.20    1.00
   3   3  -4   17.30    1.10
   3   3  -4   18.20    1.10
   3   3  -4   21.10    0.90
   3   3  -4   20.70    1.10
  -3  -3   4   18.60    1.20
  -3  -3   4   18.90    1.00
  -3  -3   4   20.10    1.20
  -3  -3   4   17.60    0.80
   2   3  -4  104.49    3.10
   2   3  -4  106.19    3.30
   2   3  -4  105.99    3.10
   2   3  -4  103.69    2.90
  -2  -3   4  107.19    3.00
  -2  -3   4   96.79    2.80
  -2  -3   4  103.99    3.20
   1   3  -4    5.00    0.70
   1   3  -4    3.10    0.50
   1   3  -4    4.50    0.40
  -1  -3   4    4.70    0.70
  -1  -3   4    4.70    0.50
  -1  -3   4    4.60    0.50
   0   3  -4   61.39    2.30
   0   3  -4   58.99    1.80
   0   3  -4   61.59    2.00
   0   3  -4   56.19    2.00
   0  -3   4   60.69    2.10
   0  -3   4   58.29    1.90
   0  -3   4   56.39    2.10
  -1   3  -4   87.49    2.50
  -1   3  -4   85.19    2.70
  -1   3  -4   89.39    3.00
  -1   3  -4   91.19    2.80
   1  -3   4   87.09    3.00
   1  -3   4   87.89    2.60
   1  -3   4   86.49    2.90
  -2   3  -4  104.19    3.30
  -2   3  -4  103.59    3.10
   2  -3   4  101.99    3.00
   2  -3   4  101.99    2.90
   2  -3   4   98.59    3.60
  -3   3  -4   41.60    1.90
  -3   3  -4   44.10    1.50
  -3   3  -4   41.10    1.60
   3  -3   4   35.30    2.10
  -4   3  -4  171.98    5.20
  -4   3  -4  165.18    4.40
  -4   3  -4  163.58    4.50
  -5   3  -4    1.70    0.60
  -5   3  -4    2.40    1.10
  -5   3  -4    2.10    0.50
  -6   3  -4    7.10    0.90
  -6   3  -4    7.80    1.20
  -6   3  -4    6.10    1.10
  -6   3  -4    7.70    0.80
  -7   3  -4   45.70    2.10
  -7   3  -4   43.50    2.60
  -7   3  -4   44.90    2.40
  -7   3  -4   42.70    2.80
  -7   3  -4   46.10    1.80
  -9  -2   4    3.70    0.80
  -8  -2   4   27.10    2.00
  -8  -2   4   25.10    1.40
   7   2  -4    5.60    0.90
  -7  -2   4    5.60    1.00
  -7  -2   4    4.80    0.70
   6   2  -4   41.20    1.80
   6   2  -4   42.40    1.30
   6   2  -4   40.00    1.40
  -6  -2   4   42.10    1.70
  -6  -2   4   38.70    2.00
  -6  -2   4   42.00    1.60
   5   2  -4  167.18    4.70
   5   2  -4  174.78    4.90
   5   2  -4  171.98    4.40
  -5  -2   4  172.48    5.00
  -5  -2   4  170.18    4.40
  -5  -2   4  158.08    4.90
  -5  -2   4  172.18    4.70
   4   2  -4  204.38    5.30
   4   2  -4  202.18    5.30
   4   2  -4  200.88    5.40
  -4  -2   4  202.28    5.60
  -4  -2   4  199.88    5.60
  -4  -2   4  209.38    5.10
   3   2  -4  117.99    3.30
   3   2  -4  114.19    3.40
   3   2  -4  117.79    3.40
  -3  -2   4  120.09    3.10
  -3  -2   4  119.79    3.50
  -3  -2   4  120.59    3.60
   2   2  -4  132.39    3.70
   2   2  -4  130.29    3.50
   2   2  -4  129.09    3.70
   2   2  -4  127.29    3.70
  -2  -2   4  134.89    3.60
  -2  -2   4  129.09    3.40
  -2  -2   4  135.19    3.80
   1   2  -4   22.90    1.10
   1   2  -4   22.30    1.00
   1   2  -4   22.80    0.90
   1   2  -4   23.00    1.10
  -1  -2   4   22.50    0.80
  -1  -2   4   22.40    1.20
   0   2  -4   21.20    1.00
   0   2  -4   22.40    0.90
   0  -2   4   22.80    0.90
   0  -2   4   23.20    1.00
   0  -2   4   21.70    1.10
  -1   2  -4   43.30    1.50
  -1   2  -4   38.70    1.50
  -1   2  -4   41.50    1.30
   1  -2   4   39.30    1.50
   1  -2   4   39.30    1.30
  -2   2  -4  673.83   15.50
  -2   2  -4  676.73   15.70
  -2   2  -4  684.13   16.00
   2  -2   4  678.03   15.60
   2  -2   4  654.03   16.20
   2  -2   4  666.23   15.50
  -3   2  -4   91.79    3.00
  -3   2  -4   91.59    2.50
  -3   2  -4   91.19    2.60
   3  -2   4   89.59    3.30
  -4   2  -4    2.00    0.60
  -4   2  -4    2.50    0.50
  -4   2  -4    2.70    0.60
  -5   2  -4   56.29    2.50
  -5   2  -4   54.19    1.90
  -5   2  -4   55.59    1.80
  -6   2  -4   10.10    0.80
  -6   2  -4   11.60    0.80
  -6   2  -4    9.10    1.40
  -7   2  -4    0.80    0.50
  -7   2  -4    1.20    0.90
  -7   2  -4    0.90    0.60
  -7   2  -4    1.10    0.80
  -8   2  -4    5.20    1.30
  -8   2  -4    7.00    0.80
  -8   2  -4    8.10    1.40
  -8   2  -4    7.60    0.90
  -9  -1   4    0.70    0.80
  -8  -1   4   -0.30    0.60
  -8  -1   4    0.20    0.90
  -7  -1   4   16.00    1.60
  -6  -1   4   19.90    1.10
  -6  -1   4   18.50    1.40
   5   1  -4    7.50    0.70
   5   1  -4    7.40    0.60
   5   1  -4    7.50    0.60
  -5  -1   4    7.10    0.90
  -5  -1   4    8.40    0.70
   4   1  -4   73.49    2.20
   4   1  -4   69.99    2.20
   4   1  -4   77.59    2.30
  -4  -1   4   78.79    2.60
  -4  -1   4   73.49    2.30
   3   1  -4  332.37    8.30
   3   1  -4  349.87    8.40
   3   1  -4  336.77    8.30
  -3  -1   4  352.66    8.60
  -3  -1   4  339.47    8.20
   2   1  -4   12.80    0.80
   2   1  -4   12.20    0.70
   2   1  -4   11.80    0.70
  -2  -1   4   12.20    0.60
  -2  -1   4   10.30    0.70
   1   1  -4  433.16   10.60
   1   1  -4  444.36   10.40
   1   1  -4  451.25   10.70
  -1  -1   4  447.66   10.70
  -1  -1   4  447.66   10.50
   0   1  -4    2.20    0.30
   0   1  -4    1.70    0.30
   0   1  -4    2.00    0.40
   0  -1   4    1.60    0.40
   0  -1   4    2.40    0.30
  -1   1  -4  390.26    9.00
  -1   1  -4  399.36    9.20
  -1   1  -4  387.46    9.30
   1  -1   4  385.66    9.00
   1  -1   4  377.76    9.30
   1  -1   4  394.36    9.30
  -2   1  -4    0.60    0.20
  -2   1  -4    0.10    0.10
  -2   1  -4    0.00    0.20
   2  -1   4    0.10    0.10
   2  -1   4    0.10    0.20
   2  -1   4    0.50    0.30
  -3   1  -4    5.10    0.50
  -3   1  -4    5.10    0.60
   3  -1   4    4.30    0.60
  -4   1  -4    3.00    0.50
  -4   1  -4    3.10    0.40
  -4   1  -4    3.30    0.30
  -5   1  -4  179.98    4.50
  -5   1  -4  180.88    4.40
  -5   1  -4  180.18    5.30
  -6   1  -4   15.70    0.70
  -6   1  -4   15.70    1.50
  -6   1  -4   15.60    0.70
  -6   1  -4   16.10    1.40
  -7   1  -4    4.90    0.50
  -7   1  -4    6.40    1.10
  -7   1  -4    5.40    1.20
  -7   1  -4    5.30    0.60
  -8   1  -4    2.40    0.50
  -8   1  -4    2.50    0.60
  -8   1  -4    1.40    0.90
  -8   1  -4    1.80    1.10
  -9   1  -4   12.90    1.70
  -9   1  -4   14.20    2.10
  -9   0   4    2.60    1.40
  -8   0   4    2.50    1.00
  -8   0   4   -0.10    0.70
  -7   0   4    2.00    0.60
  -7   0   4    2.30    0.90
  -6   0   4   10.80    1.10
  -6   0   4   10.40    1.20
   5   0  -4   20.20    0.80
   5   0  -4   20.90    0.80
  -5   0   4   18.20    1.30
  -5   0   4   19.20    1.10
   4   0  -4   75.19    2.20
   4   0  -4   70.79    2.20
  -4   0   4   71.99    2.30
  -4   0   4   68.59    2.50
   3   0  -4  897.91   20.80
   3   0  -4  893.51   20.50
   3   0  -4  922.01   20.80
  -3   0   4  887.51   21.10
  -3   0   4  886.71   20.80
   2   0  -4   10.10    0.70
   2   0  -4    9.80    0.70
   2   0  -4   10.80    0.60
  -2   0   4   10.00    0.80
  -2   0   4   10.40    0.60
   1   0  -4    5.00    0.50
  -1   0   4    5.00    0.40
  -1   0   4    6.30    0.70
   0   0  -4  415.16    9.90
   0   0  -4  401.66    9.70
   0   0  -4  406.36    9.70
   0   0   4  423.86    9.90
   0   0   4  417.16    9.60
   0   0   4  403.86    9.70
  -1   0  -4 1019.20   23.70
   1   0   4 1042.20   23.70
  -2   0  -4   20.00    0.80
  -2   0  -4   18.60    0.90
  -2   0  -4   19.50    0.60
   2   0   4   20.20    0.90
   2   0   4   21.10    0.70
  -3   0  -4  328.27    7.80
  -3   0  -4  325.97    7.60
  -3   0  -4  325.97    7.40
   3   0   4  309.57    8.00
  -4   0  -4  247.98    6.40
  -4   0  -4  252.07    5.90
  -5   0  -4  161.18    4.70
  -5   0  -4  169.68    5.20
  -6   0  -4    0.30    0.50
  -6   0  -4    0.80    0.50
  -7   0  -4   11.80    1.40
  -7   0  -4   11.70    1.30
  -8   0  -4   28.10    2.20
  -8   0  -4   25.40    1.90
  -9   0  -4   -0.60    0.80
  -9   0  -4   -0.10    0.90
  -8   1   4   11.40    1.40
  -8   1   4   12.20    1.80
  -7   1   4   23.20    1.90
  -7   1   4   22.20    1.60
  -6   1   4   -0.10    0.70
  -6   1   4   -0.20    0.60
  -5   1   4    3.50    0.70
  -5   1   4    3.70    0.80
   4  -1  -4   46.20    1.60
   4  -1  -4   47.10    1.60
  -4   1   4   43.80    1.80
  -4   1   4   48.20    2.00
   3  -1  -4  216.28    5.60
   3  -1  -4  220.18    5.60
  -3   1   4  218.08    5.90
  -3   1   4  220.28    5.70
   2  -1  -4   10.50    0.80
   2  -1  -4   11.60    0.70
  -2   1   4   12.50    0.90
  -2   1   4   12.80    0.80
   1  -1  -4  480.55   11.50
   1  -1  -4  490.65   11.40
   1  -1  -4  472.25   11.60
  -1   1   4  483.45   11.70
  -1   1   4  486.75   11.50
   0  -1  -4   12.50    0.70
   0  -1  -4   11.30    0.70
   0   1   4   11.90    0.80
   0   1   4   12.90    0.70
  -1  -1  -4   47.80    1.50
  -1  -1  -4   45.20    1.60
   1   1   4   46.30    1.40
   1   1   4   46.90    1.60
   1   1   4   49.90    1.50
  -2  -1  -4  636.24   15.30
  -2  -1  -4  625.74   14.50
  -2  -1  -4  626.44   14.70
   2   1   4  636.74   14.40
   2   1   4  632.14   14.50
   2   1   4  632.74   14.40
  -3  -1  -4  933.21   22.00
  -3  -1  -4  946.31   21.00
  -3  -1  -4  938.51   21.10
   3   1   4  877.11   21.20
  -4  -1  -4 1467.65   33.20
  -4  -1  -4 1476.95   33.30
  -4  -1  -4 1479.15   34.50
  -5  -1  -4    8.10    1.10
  -6  -1  -4   50.99    2.50
  -6  -1  -4   51.89    2.10
  -7  -1  -4   82.49    3.40
  -7  -1  -4   88.29    3.20
  -8  -1  -4   52.79    2.70
  -8  -1  -4   54.79    2.60
  -9  -1  -4    3.70    1.00
  -8   2   4    1.60    1.30
  -8   2   4    3.00    1.40
  -8   2   4    0.70    1.50
  -7   2   4    6.30    1.40
  -7   2   4    8.80    1.40
  -7   2   4   10.40    1.40
  -6   2   4   17.30    1.50
  -6   2   4   16.40    1.70
  -5   2   4  114.29    3.90
  -5   2   4  112.29    3.60
   4  -2  -4   38.60    1.50
   4  -2  -4   39.40    1.40
  -4   2   4   36.20    1.70
  -4   2   4   34.50    1.80
   3  -2  -4    0.40    0.40
  -3   2   4    0.70    0.40
  -3   2   4    0.80    0.50
   2  -2  -4    5.40    0.70
   2  -2  -4    5.60    0.60
  -2   2   4    6.30    0.80
  -2   2   4    4.00    0.60
   1  -2  -4  303.17    7.20
   1  -2  -4  290.47    7.60
  -1   2   4  298.17    7.70
  -1   2   4  306.97    7.50
   0  -2  -4  515.75   12.50
   0  -2  -4  520.35   12.30
   0  -2  -4  518.45   12.30
   0   2   4  537.45   12.60
   0   2   4  512.15   12.40
   0   2   4  504.45   12.30
  -1  -2  -4   61.99    2.20
  -1  -2  -4   62.99    2.00
  -1  -2  -4   65.99    2.10
   1   2   4   61.09    2.20
   1   2   4   61.69    2.00
   1   2   4   62.39    1.90
  -2  -2  -4  127.79    3.50
  -2  -2  -4  138.29    3.60
  -2  -2  -4  126.69    3.90
   2   2   4  137.79    4.00
   2   2   4  135.09    3.40
   2   2   4  131.29    3.50
  -3  -2  -4    1.50    0.40
  -3  -2  -4    1.70    0.30
  -3  -2  -4    1.70    0.30
   3   2   4    1.90    0.20
   3   2   4    2.10    0.60
   3   2   4    1.70    0.20
  -4  -2  -4   45.50    2.10
  -4  -2  -4   45.80    1.40
  -4  -2  -4   44.40    1.40
  -5  -2  -4   96.49    2.50
  -5  -2  -4  100.49    3.50
  -5  -2  -4   97.49    2.70
  -6  -2  -4  139.09    4.60
  -6  -2  -4  135.59    3.40
  -6  -2  -4  137.89    3.40
  -7  -2  -4  194.08    6.00
  -7  -2  -4  184.48    5.30
  -8  -2  -4    1.10    0.70
  -8  -2  -4    2.60    0.70
  -9  -2  -4   26.50    1.80
  -9  -2  -4   22.60    2.00
 -10  -2  -4   20.00    1.90
 -10  -2  -4   22.70    2.30
  -7   3   4    4.20    1.50
  -7   3   4    3.40    1.20
  -7   3   4    4.80    2.10
  -6   3   4   79.29    3.50
  -6   3   4   78.09    4.10
  -6   3   4   79.49    3.20
  -5   3   4    0.60    0.70
  -5   3   4    0.70    0.70
  -5   3   4    0.80    0.70
   4  -3  -4    1.90    0.50
  -4   3   4    1.50    0.70
   3  -3  -4    0.30    0.40
   3  -3  -4   -0.10    0.40
  -3   3   4    0.40    0.50
  -3   3   4    0.10    0.50
   2  -3  -4    0.90    0.40
   2  -3  -4    1.30    0.30
   2  -3  -4    1.00    0.50
  -2   3   4    1.00    0.30
  -2   3   4    0.90    0.50
  -2   3   4    1.40    0.50
   1  -3  -4   74.49    2.60
   1  -3  -4   78.09    2.50
   1  -3  -4   76.69    2.20
  -1   3   4   73.09    2.50
  -1   3   4   71.19    2.60
  -1   3   4   76.09    2.40
   0  -3  -4    2.40    0.50
   0  -3  -4    1.70    0.40
   0  -3  -4    1.70    0.50
   0   3   4    2.90    0.60
   0   3   4    2.50    0.40
   0   3   4    2.00    0.50
  -1  -3  -4   42.10    1.70
  -1  -3  -4   42.20    1.60
  -1  -3  -4   44.90    1.80
   1   3   4   43.80    1.80
   1   3   4   40.10    1.60
   1   3   4   42.50    1.70
  -2  -3  -4   15.60    1.00
  -2  -3  -4   14.90    1.00
  -2  -3  -4   17.80    1.00
   2   3   4   16.00    0.70
   2   3   4   16.30    0.90
   2   3   4   15.60    0.90
   2   3   4   18.80    1.10
  -3  -3  -4  144.79    4.40
  -3  -3  -4  143.79    3.90
  -3  -3  -4  144.29    4.00
   3   3   4  139.59    3.70
   3   3   4  143.89    3.80
   3   3   4  144.09    4.50
  -4  -3  -4  792.52   18.50
  -4  -3  -4  807.32   18.50
  -4  -3  -4  789.42   19.30
   4   3   4  798.32   18.00
   4   3   4  789.42   19.40
  -5  -3  -4   39.40    1.40
  -5  -3  -4   44.00    2.10
  -5  -3  -4   42.90    1.50
   5   3   4   41.50    2.20
  -6  -3  -4  101.69    2.80
  -6  -3  -4  101.69    2.80
  -6  -3  -4   99.39    3.80
  -7  -3  -4   40.00    2.20
  -7  -3  -4   35.50    1.30
  -7  -3  -4   36.20    1.70
  -7  -3  -4   36.40    1.40
  -8  -3  -4   12.00    1.60
  -8  -3  -4   11.10    0.70
  -8  -3  -4   11.20    1.00
  -8  -3  -4   10.10    0.70
  -9  -3  -4   46.50    2.20
  -9  -3  -4   43.70    1.60
  -9  -3  -4   43.70    2.60
  -9  -3  -4   40.30    1.50
 -10  -3  -4   12.10    1.00
 -10  -3  -4   12.10    1.40
 -10  -3  -4   14.40    1.90
  -6   4   4   13.50    1.80
  -6   4   4   12.80    1.70
  -6   4   4   15.40    2.50
  -5   4   4   15.90    1.70
   4  -4  -4   24.20    1.20
   4  -4  -4   21.80    1.40
  -4   4   4   25.00    1.70
  -4   4   4   23.40    2.10
  -4   4   4   21.30    1.80
   3  -4  -4   70.89    2.60
   3  -4  -4   71.09    2.30
  -3   4   4   65.19    2.70
  -3   4   4   63.29    3.20
  -3   4   4   73.59    3.00
   2  -4  -4   24.70    1.30
   2  -4  -4   26.50    1.10
   2  -4  -4   25.40    1.50
  -2   4   4   26.20    1.20
  -2   4   4   26.80    1.60
  -2   4   4   25.10    1.80
  -2   4   4   29.60    1.70
   1  -4  -4   38.40    1.50
   1  -4  -4   39.00    1.90
   1  -4  -4   40.70    1.70
  -1   4   4   33.30    1.90
  -1   4   4   37.30    1.90
  -1   4   4   34.50    1.60
  -1   4   4   38.20    1.80
   0  -4  -4   73.29    2.50
   0  -4  -4   69.09    2.70
   0   4   4   66.49    2.60
   0   4   4   71.29    2.60
   0   4   4   75.29    2.60
   0   4   4   73.69    2.70
  -1  -4  -4 2996.60  220.28
   1   4   4 3422.96  224.28
  -2  -4  -4  250.07    6.60
  -2  -4  -4  251.17    6.90
  -2  -4  -4  248.58    6.80
   2   4   4  259.97    6.60
   2   4   4  256.07    7.00
   2   4   4  263.57    6.30
   2   4   4  255.37    6.60
  -3  -4  -4   71.59    2.80
  -3  -4  -4   78.59    2.60
  -3  -4  -4   77.79    2.60
   3   4   4   75.49    2.50
   3   4   4   81.89    3.00
   3   4   4   77.29    2.30
  -4  -4  -4   13.90    0.90
  -4  -4  -4   12.20    1.20
  -4  -4  -4   13.80    0.90
   4   4   4   13.30    0.80
   4   4   4   12.30    0.60
   4   4   4   12.50    1.20
  -5  -4  -4    4.80    0.90
  -5  -4  -4    3.10    0.60
  -5  -4  -4    2.30    0.50
   5   4   4    2.70    0.30
   5   4   4    3.70    0.40
   5   4   4    2.80    0.70
  -6  -4  -4    0.70    0.40
  -6  -4  -4    0.70    0.50
  -6  -4  -4    0.60    0.40
   6   4   4    0.90    0.70
  -7  -4  -4   86.39    3.50
  -7  -4  -4   84.89    2.60
  -7  -4  -4   86.19    2.60
   7   4   4   78.09    3.70
  -8  -4  -4   60.89    2.10
  -8  -4  -4   57.69    2.10
  -8  -4  -4   60.79    3.00
  -9  -4  -4   14.70    1.00
  -9  -4  -4   15.60    1.10
  -9  -4  -4   13.10    1.60
  -9  -4  -4   13.70    1.10
  -9  -4  -4   14.90    1.20
 -10  -4  -4   -0.70    0.90
 -10  -4  -4    0.70    0.70
 -10  -4  -4    0.00    0.70
 -10  -4  -4    0.40    0.70
  -6   5   4   -0.60    2.10
  -6   5   4    1.20    1.40
  -5   5   4    3.40    1.30
  -5   5   4    4.70    1.40
  -5   5   4    1.70    0.90
   4  -5  -4    4.20    0.70
   4  -5  -4    3.20    0.90
  -4   5   4    4.10    1.10
  -4   5   4    2.80    0.90
  -4   5   4    5.10    1.20
   3  -5  -4    2.40    0.90
   3  -5  -4    2.90    0.70
  -3   5   4    3.40    0.60
  -3   5   4    3.10    1.00
  -3   5   4    4.60    1.00
  -3   5   4    3.80    1.10
   2  -5  -4    9.90    1.10
   2  -5  -4   11.50    1.40
   2  -5  -4   10.80    1.40
  -2   5   4    8.60    1.20
  -2   5   4    7.60    1.10
  -2   5   4   12.00    1.40
  -2   5   4   10.30    1.00
   1  -5  -4  108.39    3.80
   1  -5  -4  111.89    3.50
   1  -5  -4  113.29    3.40
  -1   5   4  118.89    3.90
  -1   5   4  110.29    3.70
  -1   5   4  107.19    4.00
  -1   5   4  112.79    3.60
   0  -5  -4    0.10    0.40
   0  -5  -4    0.00    0.60
   0  -5  -4    0.10    0.40
   0   5   4    0.10    0.40
   0   5   4   -0.10    0.30
   0   5   4    0.10    0.40
  -1  -5  -4   37.50    2.00
  -1  -5  -4   42.40    1.80
  -1  -5  -4   42.80    1.90
   1   5   4   38.10    1.80
   1   5   4   39.00    2.00
   1   5   4   37.30    1.80
   1   5   4   40.90    1.90
  -2  -5  -4  199.68    5.60
  -2  -5  -4  198.68    5.80
  -2  -5  -4  210.58    5.90
   2   5   4  206.78    5.60
   2   5   4  201.18    5.60
   2   5   4  198.28    5.60
   2   5   4  204.08    6.00
  -3  -5  -4   57.49    2.40
  -3  -5  -4   53.19    2.10
  -3  -5  -4   53.09    2.20
   3   5   4   53.29    1.60
   3   5   4   53.29    2.10
   3   5   4   54.39    2.00
   3   5   4   52.69    2.50
  -4  -5  -4    7.80    1.10
  -4  -5  -4    9.10    1.00
  -4  -5  -4    8.00    0.90
   4   5   4    9.80    1.40
   4   5   4    9.80    0.70
   4   5   4   10.00    0.90
  -5  -5  -4   51.89    2.50
  -5  -5  -4   47.10    1.90
  -5  -5  -4   47.70    2.00
   5   5   4   50.19    2.60
   5   5   4   50.19    1.50
   5   5   4   46.80    1.80
  -6  -5  -4   62.69    2.30
  -6  -5  -4   64.89    2.40
  -6  -5  -4   63.29    2.90
   6   5   4   63.09    1.70
   6   5   4   63.89    3.10
   6   5   4   62.49    1.80
  -7  -5  -4   64.99    2.30
  -7  -5  -4   61.49    2.30
  -7  -5  -4   62.29    3.00
   7   5   4   57.79    3.10
  -8  -5  -4   66.09    3.20
  -8  -5  -4   73.19    2.50
  -8  -5  -4   59.39    2.30
   8   5   4   57.99    3.40
  -9  -5  -4    1.10    0.70
  -9  -5  -4    0.20    0.60
  -9  -5  -4    1.40    0.90
 -10  -5  -4    1.30    0.80
 -10  -5  -4   -0.50    0.90
  -5   6   4    1.30    1.40
  -5   6   4    0.70    1.30
   4  -6  -4   15.30    1.30
   4  -6  -4   15.30    1.50
  -4   6   4   15.30    2.00
  -4   6   4   12.60    1.90
  -4   6   4   13.90    1.90
   3  -6  -4    3.70    0.80
   3  -6  -4    4.60    1.20
  -3   6   4    2.40    1.10
  -3   6   4    3.60    1.00
  -3   6   4    4.60    0.90
  -3   6   4    2.80    1.20
   2  -6  -4    9.20    1.40
   2  -6  -4    8.90    1.00
  -2   6   4    8.00    1.40
  -2   6   4    8.00    1.20
  -2   6   4   10.00    1.20
  -2   6   4    8.40    1.40
   1  -6  -4    9.30    1.10
   1  -6  -4   11.70    1.30
   1  -6  -4   11.00    1.40
  -1   6   4    9.80    1.30
  -1   6   4    9.20    1.40
  -1   6   4    8.90    1.30
  -1   6   4    9.90    1.20
   0  -6  -4    3.40    0.70
   0  -6  -4    3.10    1.00
   0  -6  -4    5.80    0.90
   0   6   4    4.70    1.00
   0   6   4    3.20    0.70
   0   6   4    3.60    0.80
   0   6   4    5.70    1.00
  -1  -6  -4    7.50    1.00
  -1  -6  -4    7.70    1.10
  -1  -6  -4    9.50    1.00
   1   6   4    8.20    1.00
   1   6   4    9.30    1.20
   1   6   4    8.10    1.10
   1   6   4   10.50    1.30
  -2  -6  -4  176.08    5.50
  -2  -6  -4  177.78    5.20
  -2  -6  -4  185.38    5.50
   2   6   4  181.58    5.20
   2   6   4  178.48    5.00
   2   6   4  183.68    5.80
   2   6   4  178.78    5.30
  -3  -6  -4   97.79    3.50
  -3  -6  -4  100.09    3.70
  -3  -6  -4   94.29    3.30
   3   6   4   92.99    3.80
   3   6   4  105.09    3.10
   3   6   4   91.19    3.50
   3   6   4   99.29    3.10
  -4  -6  -4   23.60    1.60
  -4  -6  -4   26.00    1.70
  -4  -6  -4   22.40    1.40
   4   6   4   26.40    1.30
   4   6   4   24.30    1.90
   4   6   4   24.90    0.90
   4   6   4   25.30    1.50
  -5  -6  -4   22.70    1.40
  -5  -6  -4   22.00    1.70
   5   6   4   21.80    1.00
   5   6   4   19.80    1.30
  -6  -6  -4   58.89    2.90
  -6  -6  -4   60.79    2.40
  -6  -6  -4   64.49    2.60
   6   6   4   61.19    2.20
   6   6   4   66.69    1.90
   6   6   4   58.99    3.20
  -7  -6  -4   34.50    1.80
  -7  -6  -4   34.70    2.30
  -7  -6  -4   30.70    1.80
   7   6   4   34.70    1.10
   7   6   4   32.50    1.00
  -8  -6  -4    8.80    1.10
  -8  -6  -4    8.30    1.20
  -8  -6  -4    6.10    1.30
  -9  -6  -4    4.10    1.10
  -9  -6  -4    3.00    1.10
  -9  -6  -4    2.90    0.80
   9   6   4    2.70    1.40
 -10  -6  -4    0.80    0.80
 -10  -6  -4    2.40    1.20
 -10  -6  -4    0.80    1.00
   4  -7  -4    7.40    1.60
   4  -7  -4    6.20    1.10
  -4   7   4    6.20    1.70
  -4   7   4    5.70    1.60
   3  -7  -4    1.20    1.30
   3  -7  -4    0.80    0.80
  -3   7   4   -0.60    1.10
  -3   7   4   -0.70    1.00
  -3   7   4    0.50    1.00
   2  -7  -4   39.70    2.80
   2  -7  -4   35.70    2.00
  -2   7   4   36.20    2.60
  -2   7   4   36.80    2.30
  -2   7   4   39.60    2.70
  -2   7   4   40.30    2.40
   1  -7  -4   22.00    1.60
   1  -7  -4   25.40    2.30
   1  -7  -4   26.40    1.70
  -1   7   4   25.70    2.00
  -1   7   4   24.10    2.30
  -1   7   4   27.20    2.20
  -1   7   4   25.10    1.90
   0  -7  -4    1.10    0.60
   0  -7  -4    1.20    0.70
   0  -7  -4    0.30    1.00
   0   7   4    0.20    0.60
   0   7   4    0.90    0.60
   0   7   4    0.10    0.80
   0   7   4    1.00    0.80
  -1  -7  -4   18.40    1.50
  -1  -7  -4   18.20    1.50
   1   7   4   16.90    1.50
   1   7   4   17.50    1.70
   1   7   4   17.40    1.40
  -2  -7  -4    2.30    1.00
  -2  -7  -4    2.00    0.60
  -2  -7  -4    2.60    0.70
   2   7   4    3.70    0.90
   2   7   4    3.90    0.80
   2   7   4    2.30    0.80
   2   7   4    3.10    0.70
  -3  -7  -4   20.70    1.60
  -3  -7  -4   19.40    1.40
   3   7   4   20.50    1.60
   3   7   4   21.60    1.10
   3   7   4   23.90    1.40
   3   7   4   23.50    1.90
  -4  -7  -4    1.80    0.70
  -4  -7  -4    2.60    0.90
  -4  -7  -4    1.50    0.80
   4   7   4    2.80    0.60
   4   7   4    3.00    1.00
   4   7   4    3.20    0.50
   4   7   4    2.70    0.80
  -5  -7  -4   53.19    2.50
  -5  -7  -4   54.59    2.40
  -5  -7  -4   55.29    3.90
   5   7   4   49.80    2.30
   5   7   4   52.19    1.90
   5   7   4   51.99    1.70
  -6  -7  -4   19.40    1.70
  -6  -7  -4   19.80    1.50
  -6  -7  -4   19.10    1.70
   6   7   4   19.00    1.00
   6   7   4   18.60    1.60
  -7  -7  -4    1.40    0.90
  -7  -7  -4    1.40    1.20
  -7  -7  -4    2.30    0.90
   7   7   4    1.70    0.60
   7   7   4    2.40    1.40
   7   7   4    2.30    0.40
  -8  -7  -4    3.50    1.20
  -8  -7  -4    4.10    1.00
  -8  -7  -4    3.60    1.10
   8   7   4    3.40    1.50
  -9  -7  -4    0.20    0.80
  -9  -7  -4    0.30    1.00
  -9  -7  -4    0.90    1.20
   9   7   4    0.90    1.90
 -10  -7  -4    3.10    1.50
 -10  -7  -4    3.10    1.50
 -10  -7  -4    2.10    1.00
   2  -8  -4    4.90    1.20
  -2   8   4    5.50    1.50
  -2   8   4    7.00    1.50
  -2   8   4    3.90    1.20
   1  -8  -4   13.40    1.60
  -1   8   4   10.60    1.70
  -1   8   4    6.90    1.40
  -1   8   4    8.60    1.60
   0  -8  -4    5.80    1.90
   0  -8  -4    6.40    1.20
   0  -8  -4    8.30    1.30
   0   8   4    9.30    1.40
   0   8   4    7.90    1.60
   0   8   4    8.80    1.30
   0   8   4    7.30    1.40
  -1  -8  -4   -0.20    0.70
  -1  -8  -4   -0.50    0.60
   1   8   4    1.30    1.00
   1   8   4   -0.10    0.70
   1   8   4   -0.50    0.70
  -2  -8  -4    3.30    0.90
   2   8   4    4.70    0.90
   2   8   4    4.20    1.00
   2   8   4    4.90    1.30
  -3  -8  -4   18.00    1.70
  -3  -8  -4   16.70    1.50
   3   8   4   18.00    2.20
   3   8   4   19.00    1.40
   3   8   4   19.10    1.20
  -4  -8  -4   -0.20    0.90
  -4  -8  -4    1.40    0.80
  -4  -8  -4    2.10    0.80
   4   8   4    1.10    0.90
   4   8   4    2.40    0.70
   4   8   4    3.20    0.60
   4   8   4    2.80    1.10
  -5  -8  -4   46.10    2.70
  -5  -8  -4   48.90    2.40
  -5  -8  -4   46.50    2.80
   5   8   4   52.99    2.70
   5   8   4   48.40    2.00
   5   8   4   51.59    1.80
  -6  -8  -4    2.10    1.00
  -6  -8  -4    1.50    0.80
  -6  -8  -4    3.20    1.20
   6   8   4    2.60    1.00
   6   8   4    3.00    0.60
  -7  -8  -4   12.20    1.80
  -7  -8  -4   10.10    1.50
  -7  -8  -4   13.30    1.50
   7   8   4   12.70    2.20
   7   8   4   14.70    1.50
   7   8   4   13.70    0.90
  -8  -8  -4    7.90    1.50
  -8  -8  -4    8.20    1.30
   8   8   4    9.00    1.00
   8   8   4    9.10    0.80
  -9  -8  -4    1.60    1.00
  -9  -8  -4    1.90    1.60
  -9  -8  -4    0.30    1.10
   1  -9  -4    1.20    1.10
  -1   9   4   -1.60    1.70
  -1   9   4    0.10    1.20
  -1   9   4   -0.90    1.20
   0  -9  -4    5.10    1.30
   0  -9  -4    3.10    1.10
   0   9   4    3.40    1.20
   0   9   4    4.40    1.30
   0   9   4    5.50    1.80
  -1  -9  -4    5.90    1.30
  -1  -9  -4    7.30    1.30
   1   9   4    4.70    1.60
   1   9   4    5.30    1.20
   1   9   4    2.90    1.00
  -2  -9  -4   14.40    1.80
  -2  -9  -4   11.20    1.70
  -2  -9  -4    8.40    2.10
   2   9   4    8.10    1.10
   2   9   4   13.40    2.20
   2   9   4   10.80    1.40
  -3  -9  -4   21.90    1.90
  -3  -9  -4   15.30    1.80
  -3  -9  -4   24.10    2.70
   3   9   4   20.60    2.30
   3   9   4   19.20    1.40
   3   9   4   20.70    2.60
   3   9   4   18.60    1.60
  -4  -9  -4    0.60    1.30
  -4  -9  -4    1.50    0.90
  -4  -9  -4    0.10    0.80
   4   9   4    1.20    0.70
   4   9   4    1.10    1.30
   4   9   4    0.60    0.50
   4   9   4    0.70    1.40
  -5  -9  -4    1.60    1.50
  -5  -9  -4   -0.20    0.80
  -5  -9  -4    0.40    0.80
   5   9   4    0.50    0.50
   5   9   4    0.40    1.30
   5   9   4    0.60    0.60
  -6  -9  -4   13.00    1.90
   6   9   4    8.60    1.00
   6   9   4    7.00    0.80
  -7  -9  -4    1.50    1.00
  -7  -9  -4    1.00    1.00
   7   9   4    3.40    1.30
  -8  -9  -4   -0.20    1.00
   8   9   4    1.90    1.20
   8   9   4    1.90    0.60
  -1 -10  -4   -0.60    1.20
   1  10   4    0.40    1.00
  -2 -10  -4    1.30    1.30
  -2 -10  -4    1.00    1.10
   2  10   4   -0.60    1.00
   2  10   4    0.10    0.80
  -3 -10  -4   -0.10    1.10
  -3 -10  -4   -0.70    1.00
   3  10   4    0.50    1.00
   3  10   4   -0.80    0.60
  -4 -10  -4    2.00    1.20
  -4 -10  -4    1.60    1.10
   4  10   4    1.00    0.60
  -5 -10  -4    4.90    1.40
   5  10   4    5.80    0.90
   5  10   4    5.40    1.00
  -6 -10  -4    7.60    1.90
   6  10   4    7.80    1.00
   6  10   4    7.00    1.00
  -7 -10  -4    5.00    1.70
  -7 -10  -4    3.10    1.30
   7  10   4    4.60    0.90
   7  10   4    5.80    2.00
   6   9  -5   -1.00    0.70
   6   9  -5   -0.40    0.80
  -6  -9   5   -0.80    1.40
   5   9  -5    0.10    0.80
   5   9  -5    0.10    0.70
  -5  -9   5   -0.30    1.40
   4   9  -5    2.10    0.80
   4   9  -5    3.00    1.00
  -4  -9   5    1.80    1.30
   3   9  -5    1.00    0.70
   3   9  -5   -0.70    0.60
  -3  -9   5   -0.90    1.20
   2   9  -5    0.10    0.70
  -2  -9   5    0.70    1.20
   1   9  -5   21.00    1.50
  -1  -9   5   21.10    2.30
   0   9  -5    0.00    0.80
   0   9  -5    0.10    0.80
   0  -9   5    0.30    1.50
   7   8  -5    0.60    0.80
   7   8  -5    1.40    1.50
  -7  -8   5    2.00    1.30
  -7  -8   5    0.50    1.30
  -7  -8   5    0.40    0.90
   6   8  -5   12.40    1.30
   6   8  -5   14.50    2.00
  -6  -8   5   10.60    1.70
  -6  -8   5   11.90    1.70
  -6  -8   5   12.40    1.90
   5   8  -5   -1.20    1.40
   5   8  -5    0.40    0.70
   5   8  -5    0.20    0.60
   5   8  -5    0.50    1.10
  -5  -8   5   -0.20    1.00
  -5  -8   5    0.30    1.00
   4   8  -5   11.30    1.80
   4   8  -5   17.30    2.00
   4   8  -5   15.10    1.20
   4   8  -5   13.40    1.40
  -4  -8   5   13.80    1.70
  -4  -8   5   13.30    2.70
  -4  -8   5    9.60    1.60
   3   8  -5    1.50    1.20
   3   8  -5    1.80    0.60
   3   8  -5    2.30    1.40
   3   8  -5    2.30    0.90
  -3  -8   5    2.60    1.10
  -3  -8   5    3.10    1.80
  -3  -8   5    0.90    1.00
   2   8  -5   54.49    3.30
   2   8  -5   53.99    2.50
   2   8  -5   57.19    3.30
   2   8  -5   49.40    2.20
  -2  -8   5   57.89    3.30
  -2  -8   5   53.29    2.90
  -2  -8   5   56.79    3.10
   1   8  -5   14.70    1.20
   1   8  -5   15.90    2.20
   1   8  -5   15.50    1.50
  -1  -8   5   15.50    1.90
  -1  -8   5   15.00    1.90
  -1  -8   5   15.00    2.10
   0   8  -5    0.60    0.70
   0   8  -5    0.00    1.50
   0   8  -5   -0.20    0.50
   0  -8   5   -0.40    1.40
   0  -8   5   -0.70    1.00
  -1   8  -5    2.00    0.90
  -1   8  -5    3.60    0.80
   1  -8   5    2.60    1.20
  -2   8  -5    2.00    1.10
   2  -8   5    1.20    1.60
   2  -8   5    0.60    1.20
   8   7  -5    0.80    2.80
   8   7  -5    0.60    1.20
   8   7  -5   -0.10    0.80
  -8  -7   5    1.00    1.30
  -8  -7   5    0.20    1.00
  -8  -7   5    0.40    0.80
   7   7  -5    0.30    1.00
   7   7  -5    1.90    1.20
   7   7  -5    5.80    1.00
  -7  -7   5    2.70    0.80
  -7  -7   5    3.80    1.30
  -7  -7   5    2.50    1.10
   6   7  -5    1.60    0.70
   6   7  -5    1.30    1.10
  -6  -7   5    2.70    1.00
  -6  -7   5    0.80    0.80
  -6  -7   5    1.30    1.00
  -6  -7   5    2.00    0.80
   5   7  -5    0.70    0.50
   5   7  -5    0.50    0.60
   5   7  -5    0.00    0.70
  -5  -7   5    1.00    0.80
  -5  -7   5    1.00    0.90
  -5  -7   5    0.50    0.60
   4   7  -5    7.10    1.10
   4   7  -5    6.80    0.90
  -4  -7   5    5.60    1.20
  -4  -7   5    6.90    1.20
   3   7  -5   45.10    1.90
   3   7  -5   43.70    2.10
  -3  -7   5   45.70    2.50
  -3  -7   5   37.20    2.20
   2   7  -5   40.70    2.00
   2   7  -5   41.90    1.80
  -2  -7   5   41.90    2.40
  -2  -7   5   41.20    2.40
   1   7  -5    1.20    0.90
   1   7  -5    1.90    1.00
   1   7  -5    1.90    0.60
   1   7  -5    0.60    0.50
  -1  -7   5    0.60    0.80
  -1  -7   5    0.90    0.70
  -1  -7   5    2.50    1.00
   0   7  -5    2.00    0.70
   0   7  -5    2.30    1.00
   0   7  -5    2.20    1.00
   0   7  -5    3.50    0.70
   0  -7   5    3.00    1.00
  -1   7  -5    0.60    0.60
  -1   7  -5    0.10    0.50
  -1   7  -5    0.90    1.20
  -1   7  -5    0.90    1.00
   1  -7   5    0.30    1.00
   1  -7   5    0.50    1.20
   1  -7   5    0.60    0.90
  -2   7  -5    2.40    0.90
  -2   7  -5    1.40    1.20
  -2   7  -5    2.00    0.70
  -2   7  -5    2.60    1.30
   2  -7   5    2.20    1.00
   2  -7   5    2.70    1.20
  -3   7  -5   28.10    1.70
  -3   7  -5   28.20    2.70
  -3   7  -5   30.00    2.80
   3  -7   5   26.90    2.00
   3  -7   5   25.00    1.70
   9   6  -5    0.10    1.80
  -9  -6   5    0.70    1.40
  -9  -6   5   -0.10    1.20
   8   6  -5    0.70    1.40
   8   6  -5    0.30    0.80
   8   6  -5    1.80    1.10
  -8  -6   5    1.00    0.80
  -8  -6   5    1.00    1.20
  -8  -6   5    1.10    0.90
   7   6  -5   21.80    1.80
   7   6  -5   24.50    1.50
  -7  -6   5   21.80    2.00
  -7  -6   5   22.20    1.50
  -7  -6   5   20.30    1.90
   6   6  -5    2.10    0.60
   6   6  -5    1.60    1.00
   6   6  -5    3.10    0.90
  -6  -6   5    2.80    1.00
  -6  -6   5    1.80    0.60
  -6  -6   5    3.70    0.80
  -6  -6   5    2.00    0.90
   5   6  -5    4.40    1.10
   5   6  -5    6.00    0.80
   5   6  -5    6.10    1.10
  -5  -6   5    4.60    1.20
  -5  -6   5    5.80    1.10
  -5  -6   5    5.90    0.80
   4   6  -5  182.48    5.50
   4   6  -5  182.08    6.00
   4   6  -5  188.98    5.50
   4   6  -5  184.78    5.10
  -4  -6   5  183.78    5.30
  -4  -6   5  176.98    6.10
   3   6  -5   17.80    1.10
   3   6  -5   17.20    1.60
   3   6  -5   16.20    1.20
   3   6  -5   17.70    1.40
  -3  -6   5   15.30    1.20
  -3  -6   5   17.40    1.50
   2   6  -5   32.00    1.40
  -2  -6   5   31.10    1.80
  -2  -6   5   30.50    1.70
  -2  -6   5   33.90    2.00
   1   6  -5   50.19    1.90
   1   6  -5   53.69    2.20
   1   6  -5   49.00    2.60
   1   6  -5   47.80    2.30
  -1  -6   5   52.19    2.30
  -1  -6   5   48.60    2.50
  -1  -6   5   49.60    2.40
   0   6  -5    4.90    0.90
   0   6  -5    3.00    0.80
   0   6  -5    3.50    0.90
   0   6  -5    3.90    0.70
   0  -6   5    5.40    1.00
   0  -6   5    4.80    0.90
  -1   6  -5  265.17    7.50
  -1   6  -5  258.77    8.00
  -1   6  -5  277.67    7.50
   1  -6   5  272.27    7.40
   1  -6   5  268.37    7.50
  -2   6  -5   66.29    2.90
  -2   6  -5   64.29    2.80
  -2   6  -5   66.89    2.40
  -2   6  -5   68.79    3.20
   2  -6   5   64.79    2.70
   2  -6   5   60.09    2.90
  -3   6  -5   20.80    1.40
  -3   6  -5   23.60    1.80
  -3   6  -5   21.70    1.90
  -3   6  -5   22.60    2.10
   3  -6   5   20.20    1.50
   3  -6   5   20.90    1.40
  -4   6  -5    0.40    0.60
  -4   6  -5    1.00    1.10
  -4   6  -5    0.30    0.70
  -4   6  -5    0.40    1.20
   9   5  -5    0.50    1.50
  -9  -5   5    1.30    0.80
  -9  -5   5    1.00    1.40
  -9  -5   5    0.50    0.90
   8   5  -5   14.20    1.90
   8   5  -5   14.20    1.30
   8   5  -5   12.20    1.10
  -8  -5   5   13.70    1.70
  -8  -5   5   13.70    1.40
  -8  -5   5   14.20    1.90
   7   5  -5   10.60    1.60
   7   5  -5    9.90    1.10
  -7  -5   5    9.30    1.10
  -7  -5   5    9.50    1.00
  -7  -5   5   10.50    1.50
  -7  -5   5    9.80    1.50
   6   5  -5    1.00    0.80
   6   5  -5    1.00    0.50
   6   5  -5    0.80    0.70
  -6  -5   5    0.50    0.60
  -6  -5   5    0.90    0.50
  -6  -5   5    0.90    0.50
   5   5  -5    3.00    0.60
   5   5  -5    3.10    0.80
   5   5  -5    3.30    0.80
  -5  -5   5    2.60    0.60
  -5  -5   5    2.90    0.90
  -5  -5   5    3.90    0.70
  -5  -5   5    3.40    0.90
   4   5  -5   36.80    2.10
   4   5  -5   39.50    1.90
   4   5  -5   41.40    1.70
   4   5  -5   36.80    1.90
  -4  -5   5   38.80    2.10
  -4  -5   5   39.40    1.70
  -4  -5   5   40.40    2.20
   3   5  -5    2.80    0.50
   3   5  -5    2.00    0.50
   3   5  -5    3.20    0.70
   3   5  -5    3.70    0.80
  -3  -5   5    5.00    0.90
  -3  -5   5    3.00    0.60
   2   5  -5   10.00    1.20
   2   5  -5    8.30    0.80
   2   5  -5    8.10    0.70
   2   5  -5    8.90    1.30
  -2  -5   5    7.70    0.80
  -2  -5   5    7.50    1.10
  -2  -5   5    9.10    0.90
   1   5  -5   85.69    3.30
   1   5  -5   87.99    2.60
   1   5  -5   83.49    3.00
   1   5  -5   88.19    2.90
  -1  -5   5   85.49    3.20
  -1  -5   5   82.59    2.80
  -1  -5   5   84.49    3.10
   0   5  -5   90.09    3.50
   0   5  -5   89.49    2.70
   0   5  -5   87.89    3.00
   0   5  -5   87.89    3.10
   0  -5   5   88.69    3.20
   0  -5   5   88.69    3.40
  -1   5  -5  155.78    4.60
  -1   5  -5  150.88    4.60
  -1   5  -5  143.19    4.90
  -1   5  -5  149.59    4.10
   1  -5   5  145.19    5.10
   1  -5   5  147.09    4.50
   1  -5   5  149.59    4.40
  -2   5  -5  129.09    4.10
  -2   5  -5  138.19    4.40
  -2   5  -5  125.39    4.50
  -2   5  -5  122.79    3.70
   2  -5   5  125.09    3.90
   2  -5   5  121.79    3.90
  -3   5  -5  119.19    4.10
  -3   5  -5  115.79    4.30
  -3   5  -5  111.79    3.80
  -3   5  -5  123.69    3.60
   3  -5   5  118.19    3.80
   3  -5   5  113.09    3.40
  -4   5  -5    3.00    1.00
  -4   5  -5    2.10    1.00
  -4   5  -5    2.20    0.90
  -5   5  -5   23.00    2.20
  -5   5  -5   20.90    1.90
  -5   5  -5   20.40    1.90
  -6   5  -5    4.60    1.60
  -6   5  -5    4.20    1.40
  -6   5  -5    4.90    1.50
   9   4  -5    5.80    1.60
  -9  -4   5    7.50    1.20
  -9  -4   5    6.80    1.60
  -9  -4   5    5.80    1.50
   8   4  -5    2.60    1.10
  -8  -4   5    3.20    0.90
  -8  -4   5    3.00    1.10
  -8  -4   5    1.90    0.60
   7   4  -5    7.40    0.90
   7   4  -5    8.40    0.90
   7   4  -5    7.20    1.20
  -7  -4   5    7.80    0.90
  -7  -4   5    6.10    1.00
  -7  -4   5    6.30    1.00
  -7  -4   5    6.50    1.60
   6   4  -5   20.70    1.80
   6   4  -5   17.40    1.20
   6   4  -5   17.20    1.20
  -6  -4   5   21.00    1.70
  -6  -4   5   20.70    1.50
  -6  -4   5   19.00    1.10
  -6  -4   5   20.10    1.40
   5   4  -5   20.00    1.20
   5   4  -5   19.10    1.30
   5   4  -5   22.70    1.60
  -5  -4   5   18.80    1.40
  -5  -4   5   20.60    1.50
  -5  -4   5   18.90    1.00
  -5  -4   5   19.30    1.20
   4   4  -5   76.49    2.70
   4   4  -5   75.09    2.50
   4   4  -5   72.69    2.90
  -4  -4   5   79.89    3.00
  -4  -4   5   76.39    2.40
  -4  -4   5   83.29    3.00
   3   4  -5    3.50    0.80
   3   4  -5    2.60    0.50
   3   4  -5    2.00    0.50
   3   4  -5    2.40    0.60
  -3  -4   5    1.50    0.40
  -3  -4   5    2.80    0.70
   2   4  -5  158.58    4.70
   2   4  -5  164.98    4.30
   2   4  -5  166.38    4.70
  -2  -4   5  162.18    4.40
  -2  -4   5  168.18    4.60
  -2  -4   5  160.58    4.90
   1   4  -5    7.00    1.00
   1   4  -5    9.00    0.80
   1   4  -5    7.80    0.60
   1   4  -5    9.20    1.00
  -1  -4   5    9.00    1.00
  -1  -4   5    6.70    0.90
  -1  -4   5    7.70    0.70
   0   4  -5   82.09    2.60
   0   4  -5   83.59    3.10
   0   4  -5   78.69    2.40
   0   4  -5   77.59    2.70
   0  -4   5   76.79    2.50
   0  -4   5   77.29    2.80
   0  -4   5   77.09    2.90
  -1   4  -5  160.68    5.40
  -1   4  -5  160.08    4.50
  -1   4  -5  150.48    4.10
  -1   4  -5  156.68    4.50
   1  -4   5  152.08    4.50
   1  -4   5  151.18    4.30
   1  -4   5  146.99    4.90
  -2   4  -5   17.40    0.90
  -2   4  -5   16.70    1.20
  -2   4  -5   14.50    1.30
   2  -4   5   16.40    1.10
   2  -4   5   14.90    1.10
   2  -4   5   16.50    1.50
  -3   4  -5  145.89    4.50
  -3   4  -5  139.29    4.70
  -3   4  -5  135.59    4.20
   3  -4   5  130.49    5.00
   3  -4   5  136.69    3.70
   3  -4   5  144.09    3.70
  -4   4  -5   65.79    3.00
  -4   4  -5   70.09    2.90
  -5   4  -5    5.50    1.00
  -5   4  -5    8.10    1.20
  -5   4  -5   10.10    1.20
  -6   4  -5    1.60    1.10
  -6   4  -5    1.60    0.90
  -6   4  -5    1.60    0.90
  -9  -3   5    9.80    1.10
  -9  -3   5   13.40    1.80
   8   3  -5    3.90    1.10
  -8  -3   5    3.00    1.10
  -8  -3   5    1.90    0.60
  -8  -3   5    2.70    1.10
   7   3  -5    8.10    0.70
   7   3  -5    8.00    0.70
   7   3  -5    7.10    1.10
  -7  -3   5    8.70    1.30
  -7  -3   5    7.80    1.30
  -7  -3   5    7.80    0.90
   6   3  -5   74.69    2.50
   6   3  -5   73.59    2.40
   6   3  -5   70.29    2.80
  -6  -3   5   73.09    2.40
  -6  -3   5   74.29    3.10
  -6  -3   5   71.39    2.80
   5   3  -5   48.30    1.90
   5   3  -5   46.10    2.10
   5   3  -5   50.79    1.90
  -5  -3   5   49.40    2.30
  -5  -3   5   47.20    1.80
  -5  -3   5   49.40    2.10
   4   3  -5   93.19    2.80
   4   3  -5   90.89    2.90
   4   3  -5   92.79    3.10
  -4  -3   5   88.49    2.60
  -4  -3   5   88.39    3.20
  -4  -3   5   91.49    3.00
   3   3  -5   17.60    1.10
   3   3  -5   17.00    1.10
   3   3  -5   16.70    0.90
  -3  -3   5   18.90    0.90
  -3  -3   5   17.50    1.20
  -3  -3   5   18.50    1.00
   2   3  -5  312.87    7.70
   2   3  -5  312.57    8.00
   2   3  -5  308.47    8.20
   2   3  -5  307.47    8.00
  -2  -3   5  326.07    7.90
  -2  -3   5  308.77    8.20
  -2  -3   5  323.27    7.60
   1   3  -5   99.19    2.80
   1   3  -5   94.29    3.10
   1   3  -5   99.79    3.30
   1   3  -5  104.39    3.00
  -1  -3   5   99.19    3.00
  -1  -3   5   98.89    3.20
  -1  -3   5   99.59    2.80
   0   3  -5   10.20    0.70
   0   3  -5    8.70    0.80
   0   3  -5    8.60    0.60
   0  -3   5   11.30    0.70
   0  -3   5    8.40    0.70
   0  -3   5   10.40    0.90
  -1   3  -5  152.98    3.90
  -1   3  -5  155.28    4.20
  -1   3  -5  147.29    4.20
   1  -3   5  147.39    4.20
   1  -3   5  144.09    4.40
   1  -3   5  145.59    4.00
  -2   3  -5  215.58    5.70
  -2   3  -5  216.38    5.30
  -2   3  -5  216.98    5.80
   2  -3   5  212.48    5.40
   2  -3   5  201.18    6.10
   2  -3   5  210.98    5.50
  -3   3  -5   41.20    1.40
  -3   3  -5   40.80    1.70
  -3   3  -5   42.70    1.90
   3  -3   5   40.90    1.30
   3  -3   5   39.40    2.20
  -4   3  -5   55.99    2.50
  -4   3  -5   59.19    2.10
   4  -3   5   51.19    2.80
  -5   3  -5   25.50    1.40
  -5   3  -5   26.20    1.80
  -6   3  -5    3.00    0.80
  -6   3  -5    2.40    0.90
  -7   3  -5    6.10    1.00
  -7   3  -5    3.10    1.20
  -7   3  -5    5.10    1.30
  -7   3  -5    2.40    1.00
  -9  -2   5    7.40    1.00
  -9  -2   5    5.80    1.50
  -8  -2   5    2.60    1.40
  -8  -2   5    3.40    0.80
   7   2  -5    6.20    0.90
  -7  -2   5    7.50    1.20
  -7  -2   5    6.00    0.80
   6   2  -5   27.10    1.20
   6   2  -5   26.30    1.40
  -6  -2   5   24.20    1.60
  -6  -2   5   27.90    1.80
  -6  -2   5   25.10    1.30
   5   2  -5   13.30    0.90
   5   2  -5   14.80    1.00
   5   2  -5   15.30    1.00
  -5  -2   5   12.90    0.90
  -5  -2   5   12.90    1.10
  -5  -2   5   12.50    1.30
   4   2  -5  169.58    4.70
   4   2  -5  175.48    4.80
   4   2  -5  176.58    4.80
  -4  -2   5  176.08    5.00
  -4  -2   5  181.28    4.60
  -4  -2   5  174.68    5.10
   3   2  -5   27.90    1.40
   3   2  -5   32.50    1.30
   3   2  -5   28.70    1.40
  -3  -2   5   30.90    1.20
  -3  -2   5   31.80    1.60
  -3  -2   5   30.50    1.40
   2   2  -5    5.30    0.70
   2   2  -5    6.50    0.60
   2   2  -5    4.00    0.60
   2   2  -5    4.90    0.70
  -2  -2   5    5.50    0.60
  -2  -2   5    5.40    0.50
  -2  -2   5    6.50    0.80
   1   2  -5  172.28    4.60
   1   2  -5  162.38    4.70
   1   2  -5  168.68    4.30
   1   2  -5  168.98    4.60
  -1  -2   5  169.38    4.40
  -1  -2   5  165.78    4.20
  -1  -2   5  166.58    4.70
   0   2  -5 2718.43  169.58
   0  -2   5 3081.19  165.68
  -1   2  -5   19.60    1.00
  -1   2  -5   19.70    0.80
  -1   2  -5   19.80    1.00
   1  -2   5   19.50    1.10
   1  -2   5   21.40    1.10
   1  -2   5   19.60    0.80
  -2   2  -5    0.60    0.30
  -2   2  -5    0.70    0.20
  -2   2  -5    0.80    0.30
   2  -2   5    1.00    0.30
   2  -2   5    0.40    0.30
   2  -2   5    0.50    0.30
  -3   2  -5   41.10    1.60
  -3   2  -5   42.00    1.80
  -3   2  -5   40.60    1.30
   3  -2   5   42.80    2.10
  -4   2  -5    9.00    0.80
  -4   2  -5    9.40    0.90
  -5   2  -5   46.10    2.20
  -5   2  -5   46.10    1.70
  -6   2  -5    1.50    0.50
  -7   2  -5   14.00    1.80
  -7   2  -5   17.20    1.70
  -7   2  -5   22.20    1.20
  -8   2  -5    0.40    1.10
  -8   2  -5    0.50    0.90
  -8   2  -5    0.60    0.70
  -9  -1   5    0.00    1.30
  -9  -1   5    1.40    0.90
  -8  -1   5    0.10    0.60
  -8  -1   5    0.50    1.10
  -7  -1   5    8.90    1.00
  -7  -1   5    9.10    1.30
   6   1  -5    2.40    0.40
   6   1  -5    2.20    0.40
  -6  -1   5    2.30    0.80
   5   1  -5    6.60    0.70
   5   1  -5    5.90    0.60
   5   1  -5    7.70    1.30
  -5  -1   5    6.90    0.80
  -5  -1   5    5.40    0.90
   4   1  -5   57.59    1.90
   4   1  -5   58.49    2.00
   4   1  -5   60.19    2.10
  -4  -1   5   61.79    2.00
  -4  -1   5   59.39    2.40
   3   1  -5  131.09    3.80
   3   1  -5  134.19    3.80
   3   1  -5  134.89    3.70
  -3  -1   5  138.49    3.70
  -3  -1   5  132.49    4.00
   2   1  -5   63.09    2.10
   2   1  -5   63.49    2.20
   2   1  -5   66.59    2.10
  -2  -1   5   64.79    2.00
  -2  -1   5   63.19    2.20
  -2  -1   5   63.99    2.30
   1   1  -5  169.58    4.60
   1   1  -5  161.18    4.50
   1   1  -5  167.38    4.30
  -1  -1   5  173.18    4.60
   0   1  -5   10.40    0.70
   0   1  -5    8.50    0.70
   0  -1   5    9.10    0.60
   0  -1   5   10.30    0.80
   0  -1   5    9.70    0.50
  -1   1  -5  255.07    6.70
  -1   1  -5  259.47    6.30
  -1   1  -5  302.67    6.90
   1  -1   5  256.47    6.60
   1  -1   5  262.57    6.70
   1  -1   5  261.27    6.30
  -2   1  -5   56.09    1.80
  -2   1  -5   54.19    1.50
  -2   1  -5   54.09    1.80
   2  -1   5   53.69    1.70
   2  -1   5   52.99    1.90
   2  -1   5   56.89    1.50
  -3   1  -5  562.54   12.90
  -3   1  -5  558.74   13.20
  -3   1  -5  562.94   13.40
   3  -1   5  555.04   13.70
  -4   1  -5  275.37    6.40
  -4   1  -5  271.27    6.60
  -4   1  -5  281.07    7.10
   4  -1   5  254.17    7.40
  -5   1  -5    1.10    0.40
  -5   1  -5    1.10    0.50
  -6   1  -5    4.80    1.10
  -6   1  -5    5.30    0.90
  -6   1  -5    6.50    0.60
  -7   1  -5   80.49    2.30
  -7   1  -5   83.49    3.50
  -7   1  -5   80.79    3.60
  -8   1  -5    0.50    1.00
  -8   1  -5    0.10    0.90
  -8   1  -5    0.00    0.50
  -8   0   5    7.10    2.20
  -8   0   5    7.10    1.10
  -7   0   5    7.60    1.30
  -7   0   5    6.10    1.00
  -6   0   5   13.00    1.50
  -6   0   5   13.00    1.10
   5   0  -5  169.08    4.40
   5   0  -5  169.48    4.40
  -5   0   5  166.08    5.10
  -5   0   5  162.98    4.70
   4   0  -5   76.69    2.50
   4   0  -5   79.69    2.50
  -4   0   5   77.29    2.50
  -4   0   5   77.19    2.80
   3   0  -5  199.28    5.40
   3   0  -5  210.08    5.40
   3   0  -5  200.48    5.00
  -3   0   5  201.68    5.30
  -3   0   5  204.28    5.60
   2   0  -5  110.09    3.20
   2   0  -5  110.99    3.30
  -2   0   5  108.59    3.10
  -2   0   5  111.59    3.40
   1   0  -5    1.40    0.40
  -1   0   5    2.50    0.40
  -1   0   5    1.80    0.40
  -1   0   5    2.50    0.50
   0   0  -5   19.70    0.90
   0   0  -5   20.40    0.90
   0   0  -5   19.50    1.00
   0   0   5   19.40    1.00
   0   0   5   22.20    0.80
   0   0   5   22.30    0.90
  -1   0  -5  229.98    5.70
  -1   0  -5  231.28    5.60
  -1   0  -5  228.58    5.90
   1   0   5  229.88    5.90
   1   0   5  235.48    5.60
   1   0   5  230.38    5.50
  -2   0  -5  575.64   13.20
  -2   0  -5  564.04   13.50
  -2   0  -5  596.04   13.30
   2   0   5  575.54   13.10
   2   0   5  565.24   13.30
   2   0   5  566.74   13.40
  -3   0  -5   76.89    2.20
  -3   0  -5   79.69    2.30
  -3   0  -5   75.69    2.00
   3   0   5   75.29    2.40
  -4   0  -5   37.20    1.00
  -4   0  -5   33.80    1.30
  -4   0  -5   38.70    1.50
   4   0   5   33.30    1.60
  -5   0  -5   20.50    1.60
  -5   0  -5   17.50    1.10
  -5   0  -5   18.50    0.60
  -5   0  -5   20.00    0.90
  -6   0  -5   27.40    1.90
  -6   0  -5   26.10    1.50
  -6   0  -5   27.30    1.00
  -7   0  -5   11.50    1.50
  -7   0  -5    8.20    1.10
  -8   0  -5    5.40    1.20
  -8   0  -5    5.50    1.20
  -9   0  -5   14.00    1.80
  -9   0  -5   16.20    1.90
  -8   1   5    1.70    1.40
  -8   1   5    0.80    1.00
  -7   1   5    1.20    1.00
  -7   1   5    1.40    0.80
  -6   1   5    0.50    0.80
  -6   1   5    0.20    0.60
   5  -1  -5    6.40    0.60
   5  -1  -5    4.10    0.50
  -5   1   5    4.30    0.90
  -5   1   5    4.90    0.80
   4  -1  -5    5.30    0.70
   4  -1  -5    5.40    0.70
  -4   1   5    3.60    0.80
  -4   1   5    4.90    0.80
   3  -1  -5    7.50    0.80
   3  -1  -5    6.50    0.70
  -3   1   5   10.00    0.80
  -3   1   5    7.40    1.00
   2  -1  -5   13.40    0.90
   2  -1  -5   16.30    1.00
   2  -1  -5   14.40    0.70
  -2   1   5   13.70    1.00
  -2   1   5   14.80    0.90
   1  -1  -5  703.93   16.60
   1  -1  -5  704.13   16.50
  -1   1   5  673.83   16.70
  -1   1   5  716.53   16.40
   0  -1  -5   31.30    1.30
   0  -1  -5   29.70    1.40
   0   1   5   31.70    1.50
   0   1   5   32.20    1.20
  -1  -1  -5    1.10    0.30
  -1  -1  -5    0.90    0.30
   1   1   5    1.30    0.30
   1   1   5    0.70    0.30
   1   1   5    1.10    0.20
  -2  -1  -5  422.36   10.30
  -2  -1  -5  426.76   10.10
  -2  -1  -5  441.36   10.00
   2   1   5  432.36    9.90
   2   1   5  431.36   10.20
   2   1   5  417.46    9.90
  -3  -1  -5  112.59    3.10
  -3  -1  -5  114.99    3.80
  -3  -1  -5  112.19    2.90
  -3  -1  -5  116.09    2.90
   3   1   5  110.39    3.00
  -4  -1  -5   38.90    2.00
  -4  -1  -5   36.20    1.30
  -4  -1  -5   36.00    1.30
  -4  -1  -5   36.30    1.10
  -5  -1  -5  153.78    3.70
  -5  -1  -5  160.38    3.90
  -5  -1  -5  156.18    5.10
  -6  -1  -5   22.30    1.70
  -6  -1  -5   23.10    1.30
  -7  -1  -5    1.60    0.80
  -7  -1  -5    2.00    0.60
  -8  -1  -5   53.39    2.80
  -8  -1  -5   56.59    2.50
  -9  -1  -5   16.20    2.00
  -9  -1  -5   15.00    1.50
  -7   2   5    3.00    1.30
  -7   2   5    2.90    1.10
  -6   2   5    1.50    0.90
  -6   2   5   -0.60    0.80
   5  -2  -5    0.60    0.40
   5  -2  -5    1.00    0.40
  -5   2   5    0.90    0.80
  -5   2   5    0.80    0.60
   4  -2  -5    6.80    0.80
   4  -2  -5    6.70    0.70
  -4   2   5    7.70    1.10
  -4   2   5    6.80    0.90
   3  -2  -5  891.01   21.00
   3  -2  -5  902.01   20.90
  -3   2   5  894.71   21.40
  -3   2   5  880.81   21.10
   2  -2  -5   24.70    1.20
   2  -2  -5   24.30    0.90
   2  -2  -5   24.90    1.30
  -2   2   5   24.30    1.30
  -2   2   5   24.00    1.40
   1  -2  -5   70.89    2.50
   1  -2  -5   69.79    2.20
   1  -2  -5   70.49    2.40
  -1   2   5   74.79    2.60
  -1   2   5   70.39    2.40
   0  -2  -5  596.94   14.20
   0  -2  -5  604.54   14.40
   0  -2  -5  597.74   14.30
   0   2   5  601.24   14.40
   0   2   5  584.34   14.20
  -1  -2  -5  212.68    5.80
  -1  -2  -5  217.18    5.90
   1   2   5  214.08    5.60
   1   2   5  232.98    6.00
  -2  -2  -5    5.20    0.60
  -2  -2  -5    5.60    0.80
  -2  -2  -5    5.90    0.70
   2   2   5    6.00    0.30
   2   2   5    5.70    0.50
   2   2   5    5.80    0.60
  -3  -2  -5   91.59    3.30
  -3  -2  -5   92.69    2.60
  -3  -2  -5   89.59    2.70
   3   2   5   94.19    2.40
   3   2   5   92.49    2.40
  -4  -2  -5   45.40    1.60
  -4  -2  -5   46.40    1.50
  -4  -2  -5   44.90    2.20
  -5  -2  -5    0.80    0.20
  -5  -2  -5    0.70    0.30
  -5  -2  -5    0.90    0.60
  -5  -2  -5    0.40    0.30
  -6  -2  -5    7.70    0.60
  -6  -2  -5    8.10    0.60
  -6  -2  -5    7.60    0.70
  -6  -2  -5    7.40    1.10
  -7  -2  -5   29.40    2.00
  -7  -2  -5   29.20    1.40
  -7  -2  -5   28.40    1.00
  -8  -2  -5   12.40    1.10
  -8  -2  -5   18.00    1.80
  -9  -2  -5    5.10    0.90
 -10  -2  -5    4.30    1.20
 -10  -2  -5    3.10    1.20
  -7   3   5    0.40    1.60
  -7   3   5    0.40    1.30
  -7   3   5   -0.60    1.30
  -6   3   5    3.20    1.50
  -6   3   5    2.40    1.00
  -6   3   5    2.50    1.20
   5  -3  -5   15.00    0.90
   5  -3  -5   13.90    0.80
  -5   3   5   17.30    1.60
  -5   3   5   14.30    1.70
   4  -3  -5    3.50    0.60
   4  -3  -5    4.40    0.80
  -4   3   5    4.90    1.00
  -4   3   5    2.50    0.80
   3  -3  -5    6.30    0.80
   3  -3  -5    6.30    0.90
  -3   3   5    4.90    0.90
  -3   3   5    4.80    0.90
   2  -3  -5   18.60    1.30
   2  -3  -5   20.00    1.20
   2  -3  -5   21.60    0.80
  -2   3   5   24.70    1.50
  -2   3   5   22.40    1.30
   1  -3  -5   57.59    2.10
   1  -3  -5   53.79    2.20
   1  -3  -5   56.39    1.90
  -1   3   5   54.69    2.00
  -1   3   5   57.39    2.10
  -1   3   5   56.89    2.30
   0  -3  -5    8.10    0.70
   0  -3  -5    7.20    0.90
   0  -3  -5    8.40    0.80
   0   3   5    8.40    0.90
   0   3   5    8.50    0.80
   0   3   5    8.30    1.00
  -1  -3  -5  377.66   10.00
  -1  -3  -5  380.26    9.60
  -1  -3  -5  391.06    9.40
   1   3   5  368.96    9.30
   1   3   5  382.46    9.50
   1   3   5  375.06    9.60
  -2  -3  -5    1.40    0.50
  -2  -3  -5    1.00    0.40
  -2  -3  -5    1.30    0.40
   2   3   5    1.40    0.40
   2   3   5    2.00    0.40
   2   3   5    1.10    0.40
  -3  -3  -5   88.79    2.70
  -3  -3  -5   89.29    3.20
  -3  -3  -5   87.99    2.80
   3   3   5   85.79    2.50
   3   3   5   86.79    3.20
   3   3   5   89.29    2.50
  -4  -3  -5 1506.65   34.70
  -4  -3  -5 1497.05   35.50
   4   3   5 1534.25   35.70
   4   3   5 1508.05   34.20
  -5  -3  -5   92.99    3.50
  -5  -3  -5   91.09    2.70
  -5  -3  -5   93.79    2.80
  -6  -3  -5  124.99    3.40
  -6  -3  -5  127.79    4.50
  -6  -3  -5  121.09    3.40
  -7  -3  -5   78.59    2.40
  -7  -3  -5   79.89    2.40
  -7  -3  -5   83.79    3.50
  -7  -3  -5   82.29    2.40
  -8  -3  -5   74.59    3.40
  -8  -3  -5   72.39    2.20
  -8  -3  -5   69.29    2.10
  -8  -3  -5   69.49    2.40
  -9  -3  -5    2.40    0.50
  -9  -3  -5    1.50    0.70
  -9  -3  -5    2.60    1.10
 -10  -3  -5    7.50    1.60
 -10  -3  -5    7.00    1.10
  -6   4   5    1.20    1.20
  -6   4   5   -0.20    1.70
   5  -4  -5    0.50    0.50
   5  -4  -5    0.70    0.40
  -5   4   5   -0.10    1.00
  -5   4   5    1.30    1.20
  -5   4   5    1.00    1.00
   4  -4  -5   17.90    1.50
   4  -4  -5   17.60    1.10
  -4   4   5   20.20    1.80
  -4   4   5   18.60    2.00
  -4   4   5   17.00    1.60
   3  -4  -5   97.79    3.10
   3  -4  -5   96.19    3.40
  -3   4   5   96.29    3.40
  -3   4   5   95.79    3.60
  -3   4   5   88.49    4.00
   2  -4  -5    3.50    0.70
   2  -4  -5    2.60    0.80
   2  -4  -5    3.40    0.50
  -2   4   5    2.30    0.70
  -2   4   5    3.50    0.60
  -2   4   5    3.00    0.80
   1  -4  -5  166.98    4.80
   1  -4  -5  162.58    5.00
   1  -4  -5  167.28    4.50
  -1   4   5  169.48    4.70
  -1   4   5  165.28    4.90
  -1   4   5  170.98    5.10
   0  -4  -5   35.10    1.70
   0  -4  -5   36.60    1.90
   0  -4  -5   38.30    1.60
   0   4   5   35.80    1.70
   0   4   5   37.50    1.70
   0   4   5   39.10    1.90
  -1  -4  -5  558.34   14.10
  -1  -4  -5  579.64   13.90
  -1  -4  -5  585.84   14.00
   1   4   5  560.04   13.90
   1   4   5  568.04   14.00
   1   4   5  573.64   14.10
  -2  -4  -5   28.00    1.40
  -2  -4  -5   31.60    1.60
   2   4   5   27.50    1.20
   2   4   5   30.80    1.40
   2   4   5   27.00    1.60
  -3  -4  -5   86.49    2.80
  -3  -4  -5   90.99    3.30
  -3  -4  -5   86.59    3.00
   3   4   5   90.09    2.70
   3   4   5   86.09    2.70
   3   4   5   88.79    3.40
  -4  -4  -5   56.49    2.20
  -4  -4  -5   60.09    2.10
  -4  -4  -5   61.39    2.60
   4   4   5   59.79    2.70
   4   4   5   57.89    1.90
  -5  -4  -5   48.10    2.40
  -5  -4  -5   45.20    1.80
  -5  -4  -5   45.10    1.80
   5   4   5   45.70    1.40
   5   4   5   47.00    1.30
  -6  -4  -5    0.30    0.60
  -6  -4  -5    1.50    0.50
  -6  -4  -5    1.10    0.50
   6   4   5    0.90    0.70
  -7  -4  -5   70.39    2.30
  -7  -4  -5   71.29    3.30
  -7  -4  -5   69.79    2.40
  -8  -4  -5   22.00    1.30
  -8  -4  -5   21.70    1.20
  -9  -4  -5   20.70    1.30
  -9  -4  -5   21.40    1.20
  -9  -4  -5   21.30    2.00
 -10  -4  -5    1.80    0.90
 -10  -4  -5    2.70    0.70
 -10  -4  -5    2.00    1.20
  -5   5   5   38.10    2.90
  -5   5   5   39.80    3.20
  -5   5   5   45.50    2.90
   4  -5  -5    0.20    0.60
   4  -5  -5   -0.80    0.80
  -4   5   5   -0.10    1.00
  -4   5   5   -0.40    0.90
  -4   5   5    0.00    1.00
   3  -5  -5   -0.50    0.50
  -3   5   5    0.10    0.60
  -3   5   5    0.00    0.80
   2  -5  -5    0.20    0.40
   2  -5  -5   -0.60    0.50
   2  -5  -5    0.90    0.80
  -2   5   5   -0.30    0.60
  -2   5   5   -0.20    0.60
  -2   5   5    0.00    0.70
  -2   5   5    0.20    0.50
   1  -5  -5    3.00    0.60
   1  -5  -5    3.00    0.70
   1  -5  -5    2.60    0.80
  -1   5   5    2.60    0.80
  -1   5   5    2.90    0.70
  -1   5   5    2.70    0.80
  -1   5   5    2.20    0.70
   0  -5  -5   43.70    2.00
   0  -5  -5   44.80    2.40
   0  -5  -5   46.30    1.90
   0   5   5   43.30    2.20
   0   5   5   47.10    2.20
   0   5   5   42.40    2.00
   0   5   5   41.70    2.00
  -1  -5  -5   64.09    2.40
  -1  -5  -5   62.09    2.50
   1   5   5   59.49    2.40
   1   5   5   64.09    2.60
   1   5   5   62.79    2.50
  -2  -5  -5   32.80    1.60
  -2  -5  -5   32.70    1.80
  -2  -5  -5   29.10    1.70
   2   5   5   31.50    1.60
   2   5   5   30.60    1.60
   2   5   5   31.80    1.90
   2   5   5   32.60    1.60
  -3  -5  -5   50.69    2.10
  -3  -5  -5   47.90    2.30
  -3  -5  -5   49.30    2.20
   3   5   5   49.80    1.60
   3   5   5   51.09    2.00
   3   5   5   46.00    2.40
   3   5   5   50.99    1.90
  -4  -5  -5   11.70    1.00
  -4  -5  -5   12.20    1.40
  -4  -5  -5   11.90    1.10
   4   5   5   11.30    0.90
   4   5   5   10.50    1.30
   4   5   5   12.30    0.80
  -5  -5  -5    1.50    0.70
  -5  -5  -5    1.10    0.50
  -5  -5  -5    0.70    0.50
   5   5   5    0.70    0.70
   5   5   5    0.50    0.40
   5   5   5    0.30    0.30
  -6  -5  -5  163.68    4.70
  -6  -5  -5  158.28    4.80
  -6  -5  -5  178.28    5.70
   6   5   5  161.78    5.80
   6   5   5  166.98    3.90
   6   5   5  163.68    4.10
  -7  -5  -5   14.40    1.70
  -7  -5  -5   16.50    1.30
  -7  -5  -5   14.80    1.10
   7   5   5   19.90    2.20
  -8  -5  -5   38.20    1.80
  -8  -5  -5   36.50    2.50
  -8  -5  -5   38.70    1.90
  -9  -5  -5   21.00    1.60
  -9  -5  -5   21.30    1.40
  -9  -5  -5   23.30    2.20
 -10  -5  -5   16.80    1.40
 -10  -5  -5   13.90    1.80
   4  -6  -5   30.70    1.70
  -4   6   5   27.60    2.40
  -4   6   5   31.70    2.90
  -4   6   5   30.40    2.80
   3  -6  -5    2.70    0.80
   3  -6  -5    3.90    1.20
  -3   6   5    2.90    0.70
  -3   6   5    3.30    1.10
  -3   6   5    0.90    0.80
   2  -6  -5    3.30    1.10
   2  -6  -5    4.80    0.90
  -2   6   5    4.20    1.20
  -2   6   5    2.70    1.00
  -2   6   5    2.70    1.00
  -2   6   5    3.90    0.90
   1  -6  -5   24.50    1.40
   1  -6  -5   19.90    1.90
   1  -6  -5   26.50    1.60
  -1   6   5   22.10    1.90
  -1   6   5   23.70    1.80
  -1   6   5   19.10    1.50
   0  -6  -5   10.70    1.50
   0  -6  -5   11.30    1.20
   0  -6  -5    9.40    1.10
   0   6   5    7.30    1.20
   0   6   5   10.50    1.30
   0   6   5   10.60    1.40
   0   6   5   10.00    1.40
  -1  -6  -5  417.76   10.30
  -1  -6  -5  388.46   10.60
  -1  -6  -5  390.06   10.30
   1   6   5  389.76   10.30
   1   6   5  391.06   10.60
   1   6   5  377.56   10.20
   1   6   5  394.76   10.30
  -2  -6  -5    7.40    1.00
  -2  -6  -5    7.50    1.10
  -2  -6  -5    5.80    1.10
   2   6   5    5.80    1.00
   2   6   5    5.70    0.90
   2   6   5    8.80    0.90
  -3  -6  -5   -0.20    0.40
  -3  -6  -5   -0.60    0.40
  -3  -6  -5   -0.50    0.60
   3   6   5    0.00    0.40
   3   6   5   -0.30    0.60
   3   6   5   -0.10    0.50
  -4  -6  -5  146.39    4.50
  -4  -6  -5  148.99    5.00
  -4  -6  -5  139.59    4.60
   4   6   5  143.99    5.20
   4   6   5  145.19    4.10
   4   6   5  141.09    4.50
  -5  -6  -5    8.90    1.10
  -5  -6  -5    6.20    1.10
  -5  -6  -5   10.80    1.50
   5   6   5    7.90    1.00
   5   6   5    8.90    1.40
  -6  -6  -5    7.90    1.20
  -6  -6  -5    7.90    1.10
  -6  -6  -5    9.90    1.10
   6   6   5    9.40    1.50
   6   6   5    9.10    0.60
   6   6   5   10.00    0.90
  -7  -6  -5    0.70    0.70
  -7  -6  -5    0.20    0.60
  -7  -6  -5    0.70    0.80
   7   6   5   -0.10    0.90
  -8  -6  -5   29.30    2.30
  -8  -6  -5   31.80    1.70
  -8  -6  -5   30.30    1.90
   8   6   5   32.30    2.80
  -9  -6  -5    0.40    0.70
  -9  -6  -5    0.20    1.00
  -9  -6  -5    0.00    0.90
   9   6   5    0.00    1.40
 -10  -6  -5    1.60    1.20
 -10  -6  -5    2.00    0.90
 -10  -6  -5    1.20    1.20
   3  -7  -5    0.60    1.50
   3  -7  -5    0.20    0.80
  -3   7   5    1.00    1.20
  -3   7   5    0.60    0.90
  -3   7   5   -1.20    1.10
   2  -7  -5    0.00    1.30
  -2   7   5   -0.40    0.90
  -2   7   5    1.20    1.20
  -2   7   5    0.40    0.90
  -2   7   5   -0.90    0.90
   1  -7  -5   10.10    1.20
   1  -7  -5   12.50    1.90
   1  -7  -5   10.00    1.40
  -1   7   5   11.80    1.60
  -1   7   5   10.00    1.50
  -1   7   5   13.30    1.60
   0  -7  -5    9.60    1.60
   0  -7  -5    9.20    1.70
   0  -7  -5   12.30    1.40
   0   7   5   14.70    1.60
   0   7   5   10.20    1.50
   0   7   5   13.30    1.70
   0   7   5    9.90    1.30
  -1  -7  -5   88.39    3.80
  -1  -7  -5   87.39    3.40
   1   7   5   86.29    3.40
   1   7   5   86.99    3.70
   1   7   5   89.79    3.40
  -2  -7  -5   10.20    1.50
  -2  -7  -5    9.10    1.20
  -2  -7  -5   13.40    1.50
   2   7   5   13.50    1.20
   2   7   5   12.40    1.50
   2   7   5   12.00    1.60
   2   7   5   14.10    1.50
  -3  -7  -5   10.00    1.20
  -3  -7  -5   13.90    1.60
   3   7   5   12.10    1.40
   3   7   5   11.90    0.90
   3   7   5    9.00    1.40
   3   7   5   12.70    1.30
  -4  -7  -5   -0.10    0.50
  -4  -7  -5    0.20    0.50
  -4  -7  -5    0.20    0.70
   4   7   5    0.50    0.70
   4   7   5    0.30    0.80
   4   7   5    0.40    0.40
  -5  -7  -5   23.50    1.60
  -5  -7  -5   26.60    2.00
  -5  -7  -5   23.00    1.90
   5   7   5   24.60    1.60
  -6  -7  -5    1.30    0.70
  -6  -7  -5    0.70    0.70
  -6  -7  -5    0.20    0.80
   6   7   5    1.30    0.80
   6   7   5    1.80    0.40
  -7  -7  -5    3.40    1.10
  -7  -7  -5    4.60    1.10
   7   7   5    3.70    0.70
   7   7   5    2.00    1.30
   7   7   5    3.00    0.50
  -8  -7  -5   19.60    1.60
  -8  -7  -5   18.70    2.00
  -8  -7  -5   20.30    2.30
   8   7   5   16.00    2.30
  -9  -7  -5    0.60    1.00
  -9  -7  -5    1.50    1.20
  -9  -7  -5    0.00    0.80
 -10  -7  -5    2.00    1.00
 -10  -7  -5    0.20    1.40
 -10  -7  -5    2.70    1.60
   2  -8  -5    7.90    1.30
   2  -8  -5    8.00    2.50
  -2   8   5    7.60    1.90
  -2   8   5    8.20    1.80
  -2   8   5    8.50    1.60
   1  -8  -5   11.50    1.50
   1  -8  -5   11.00    1.50
  -1   8   5   11.80    1.80
  -1   8   5    8.30    1.40
  -1   8   5   11.70    1.60
   0  -8  -5    2.80    0.90
   0  -8  -5    2.10    0.80
   0   8   5    3.00    1.00
   0   8   5    3.80    1.50
   0   8   5    8.80    1.70
   0   8   5    2.30    0.90
  -1  -8  -5    2.00    0.80
  -1  -8  -5    2.20    0.90
  -1  -8  -5    3.50    1.50
   1   8   5    1.90    0.90
   1   8   5    2.40    1.00
   1   8   5    2.80    1.20
  -2  -8  -5   16.40    1.50
  -2  -8  -5   15.70    2.10
   2   8   5   18.60    1.40
   2   8   5   16.50    1.50
   2   8   5   20.90    2.30
   2   8   5   16.40    2.00
  -3  -8  -5   16.40    1.90
  -3  -8  -5   16.40    1.50
   3   8   5   15.70    1.10
   3   8   5   14.00    1.80
   3   8   5   15.90    1.30
  -4  -8  -5    0.90    1.00
  -4  -8  -5    2.60    0.90
  -4  -8  -5    1.40    0.80
   4   8   5    2.20    0.70
   4   8   5    2.10    0.50
   4   8   5    2.70    1.20
   4   8   5   -0.30    0.80
  -5  -8  -5    5.60    1.10
  -5  -8  -5    5.10    1.10
  -5  -8  -5    4.80    1.30
   5   8   5    6.10    1.20
   5   8   5    5.90    1.50
  -6  -8  -5    6.60    1.30
  -6  -8  -5    9.90    1.60
  -6  -8  -5   10.60    1.40
   6   8   5   13.20    1.50
   6   8   5   12.30    1.00
  -7  -8  -5   12.80    1.50
  -7  -8  -5   13.70    2.00
  -7  -8  -5   15.10    2.00
   7   8   5   13.00    0.90
   7   8   5   13.50    2.20
   7   8   5   14.60    1.50
  -8  -8  -5   23.10    1.80
  -8  -8  -5   23.00    2.30
   8   8   5   22.60    1.00
   8   8   5   23.60    1.40
  -9  -8  -5    0.10    1.60
  -9  -8  -5    0.00    1.20
  -9  -8  -5    0.20    0.90
  -1   9   5    1.00    1.70
  -1   9   5   -0.40    1.40
   0  -9  -5    1.50    1.10
   0  -9  -5    1.90    1.10
   0   9   5    1.60    1.60
   0   9   5    1.20    1.00
  -1  -9  -5   15.50    1.80
  -1  -9  -5   12.40    1.70
   1   9   5   14.20    1.70
   1   9   5    8.90    1.50
   1   9   5   13.30    2.20
  -2  -9  -5    0.30    0.90
  -2  -9  -5    0.00    0.90
   2   9   5   -0.40    0.60
   2   9   5   -0.20    1.50
   2   9   5   -0.20    0.80
  -3  -9  -5   13.30    1.80
  -3  -9  -5   12.20    1.70
   3   9   5   11.60    1.20
   3   9   5   12.90    2.20
   3   9   5   11.20    2.00
   3   9   5   10.60    1.30
  -4  -9  -5   -0.30    0.80
  -4  -9  -5    0.00    0.80
   4   9   5   -0.20    0.40
   4   9   5    0.10    0.60
   4   9   5    2.30    1.40
   4   9   5   -2.00    1.20
  -5  -9  -5    8.20    1.50
  -5  -9  -5    7.00    1.30
   5   9   5   10.60    2.10
   5   9   5    8.00    0.80
  -6  -9  -5   43.00    2.60
  -6  -9  -5   44.00    3.00
   6   9   5   45.40    1.90
  -7  -9  -5    0.60    1.00
  -7  -9  -5    1.40    1.10
   7   9   5    2.60    1.30
  -8  -9  -5    5.20    1.30
  -8  -9  -5    4.50    1.60
   8   9   5    6.00    0.80
   8   9   5    4.90    1.20
  -2 -10  -5    0.30    1.20
   2  10   5    0.10    1.00
   2  10   5   -0.40    0.80
  -3 -10  -5    1.50    1.20
   3  10   5    0.00    0.70
  -4 -10  -5   -0.10    1.00
   4  10   5   -0.80    0.90
   4  10   5    0.10    0.60
  -5 -10  -5   10.60    1.80
   5  10   5   11.30    1.10
  -6 -10  -5    4.30    1.60
  -6 -10  -5    2.20    1.10
   6  10   5    3.30    0.90
  -7 -10  -5    2.00    1.20
  -7 -10  -5    1.50    1.30
   7  10   5    2.00    1.80
   7  10   5    1.00    0.70
   5   9  -6    0.00    0.90
  -5  -9   6    0.70    1.40
   4   9  -6    2.10    1.00
   4   9  -6    1.70    1.00
  -4  -9   6    1.90    1.50
   3   9  -6    8.00    1.20
   3   9  -6    8.20    1.40
  -3  -9   6    8.10    2.80
   2   9  -6    5.30    1.00
  -2  -9   6    3.60    1.60
   1   9  -6    6.50    1.10
   1   9  -6    7.40    1.20
  -1  -9   6    6.20    1.70
   7   8  -6    1.50    0.90
  -7  -8   6    2.70    1.50
   6   8  -6    6.10    1.10
  -6  -8   6    8.00    1.30
  -6  -8   6    6.70    1.80
   5   8  -6    0.60    0.70
   5   8  -6    0.70    0.80
  -5  -8   6    0.80    0.90
  -5  -8   6    0.30    1.10
   4   8  -6    2.40    0.90
  -4  -8   6    1.80    1.10
  -4  -8   6    1.30    1.20
   3   8  -6    7.20    1.00
   3   8  -6    5.20    0.90
  -3  -8   6    6.50    1.40
  -3  -8   6    8.20    1.50
   2   8  -6    0.90    0.60
   2   8  -6    1.10    0.60
  -2  -8   6   -0.80    1.20
  -2  -8   6    1.20    1.20
  -2  -8   6    2.50    1.20
   1   8  -6    0.70    0.60
   1   8  -6   -0.10    0.50
  -1  -8   6   -0.30    1.10
  -1  -8   6    0.50    1.30
   0   8  -6   -0.40    0.60
   0   8  -6   -0.20    0.60
   0  -8   6    0.00    1.10
   0  -8   6    1.00    1.50
  -1   8  -6    2.50    0.80
  -1   8  -6    1.00    0.80
   1  -8   6    1.80    1.30
   8   7  -6    5.20    1.20
   7   7  -6    0.60    0.80
   7   7  -6   -0.80    1.50
  -7  -7   6   -0.60    1.10
  -7  -7   6    0.00    0.80
   6   7  -6    0.50    1.30
   6   7  -6    0.10    1.20
   6   7  -6    0.20    0.70
  -6  -7   6    0.60    1.10
   5   7  -6    4.00    0.80
   5   7  -6    3.40    1.30
   5   7  -6    4.50    1.40
   5   7  -6    4.10    1.00
  -5  -7   6    5.20    1.10
  -5  -7   6    3.10    0.80
  -5  -7   6    4.20    1.20
   4   7  -6   -0.60    0.60
   4   7  -6   -0.20    0.50
   4   7  -6   -0.10    1.70
   4   7  -6    0.90    1.20
  -4  -7   6    0.60    0.80
  -4  -7   6    0.00    0.70
   3   7  -6   31.80    1.60
   3   7  -6   31.70    1.90
  -3  -7   6   31.40    2.10
  -3  -7   6   35.40    3.10
  -3  -7   6   31.80    2.30
   2   7  -6    0.10    0.40
   2   7  -6    0.60    0.50
  -2  -7   6    1.40    0.80
  -2  -7   6    1.20    1.00
   1   7  -6   40.90    1.90
   1   7  -6   45.80    2.20
  -1  -7   6   47.10    2.60
   0   7  -6    0.70    1.00
   0   7  -6    2.70    1.10
   0   7  -6    1.60    0.70
   0   7  -6    1.50    0.60
   0  -7   6    0.70    0.90
   0  -7   6    1.80    1.10
   0  -7   6    1.20    0.90
  -1   7  -6   24.70    2.40
  -1   7  -6   28.40    2.20
  -1   7  -6   27.50    1.50
  -1   7  -6   27.80    1.80
   1  -7   6   27.70    2.30
   1  -7   6   33.50    3.80
   1  -7   6   25.20    2.00
  -2   7  -6    9.40    1.10
  -2   7  -6    8.90    1.70
  -2   7  -6    8.30    1.70
  -2   7  -6    8.80    1.30
   2  -7   6    9.50    1.50
   2  -7   6    9.90    1.50
  -3   7  -6   27.50    1.70
  -3   7  -6   24.70    3.50
  -3   7  -6   25.00    2.00
   3  -7   6   24.20    1.80
   3  -7   6   29.00    2.00
   8   6  -6    0.70    1.10
   8   6  -6    0.90    0.90
  -8  -6   6    2.40    1.30
  -8  -6   6    1.40    0.80
   7   6  -6   10.80    1.20
   7   6  -6   16.40    1.70
  -7  -6   6   10.70    1.30
  -7  -6   6   10.80    1.70
  -7  -6   6   11.10    1.80
   6   6  -6    0.40    0.90
  -6  -6   6    0.20    0.50
  -6  -6   6   -0.70    0.80
   5   6  -6   -0.30    0.50
   5   6  -6    0.90    0.80
   5   6  -6    0.80    0.80
  -5  -6   6    0.90    0.80
  -5  -6   6    0.30    0.50
   4   6  -6   18.40    1.60
   4   6  -6   24.10    1.50
  -4  -6   6   21.30    1.80
  -4  -6   6   18.40    1.40
   3   6  -6    4.20    0.70
   3   6  -6    4.40    0.70
   3   6  -6    5.00    1.00
   3   6  -6    3.40    0.80
  -3  -6   6    4.50    1.00
  -3  -6   6    5.10    0.90
   2   6  -6   27.70    1.50
   2   6  -6   30.40    1.90
  -2  -6   6   28.00    1.70
  -2  -6   6   25.90    2.30
  -2  -6   6   25.90    1.70
   1   6  -6   29.00    1.90
   1   6  -6   32.50    1.50
  -1  -6   6   31.70    1.80
  -1  -6   6   33.20    2.10
  -1  -6   6   30.20    2.00
   0   6  -6    0.30    0.40
   0   6  -6    0.20    0.70
   0   6  -6    0.10    0.70
   0   6  -6    0.70    0.50
   0  -6   6    0.40    0.70
   0  -6   6    0.10    0.70
  -1   6  -6   23.80    1.80
  -1   6  -6   25.30    2.10
  -1   6  -6   22.50    1.50
  -1   6  -6   23.70    1.30
   1  -6   6   20.60    1.70
   1  -6   6   24.20    1.70
  -2   6  -6    3.10    0.70
  -2   6  -6    3.30    0.80
  -2   6  -6    4.20    1.20
  -2   6  -6    3.00    1.00
   2  -6   6    4.00    1.00
   2  -6   6    2.50    1.20
  -3   6  -6    3.50    1.10
  -3   6  -6    2.40    0.80
  -3   6  -6    2.80    0.70
  -3   6  -6    4.30    1.40
   3  -6   6    3.60    0.90
   3  -6   6    2.70    0.80
  -4   6  -6    2.10    1.30
  -4   6  -6    0.90    0.60
  -4   6  -6   -0.90    1.30
  -4   6  -6    0.40    0.90
   9   5  -6   12.30    2.20
  -9  -5   6   11.00    2.00
   8   5  -6   -1.00    0.80
   8   5  -6    0.30    1.20
   8   5  -6   -0.10    0.70
  -8  -5   6   -0.30    1.10
  -8  -5   6    0.30    0.70
  -8  -5   6   -0.10    0.70
   7   5  -6   27.00    2.20
   7   5  -6   27.40    1.70
   7   5  -6   30.10    1.90
  -7  -5   6   27.90    2.30
  -7  -5   6   29.10    1.70
  -7  -5   6   29.40    1.80
   6   5  -6   56.59    2.30
   6   5  -6   57.69    2.50
   6   5  -6   54.79    2.90
  -6  -5   6   58.99    2.20
  -6  -5   6   57.79    2.40
  -6  -5   6   52.99    2.90
   5   5  -6   50.49    2.30
   5   5  -6   49.00    2.10
   5   5  -6   50.69    2.60
  -5  -5   6   51.39    2.10
  -5  -5   6   49.30    2.70
  -5  -5   6   50.59    2.00
   4   5  -6    0.80    0.50
   4   5  -6    0.50    0.50
   4   5  -6    0.40    0.50
   4   5  -6    0.10    0.60
  -4  -5   6    0.20    0.70
  -4  -5   6    0.30    0.40
  -4  -5   6    0.00    0.40
   3   5  -6   13.40    1.30
   3   5  -6   14.90    1.20
   3   5  -6   16.00    1.40
   3   5  -6   16.10    1.00
  -3  -5   6   15.50    1.10
  -3  -5   6   13.30    1.50
   2   5  -6  179.18    5.10
   2   5  -6  166.68    5.50
   2   5  -6  168.48    5.10
   2   5  -6  173.48    4.70
  -2  -5   6  167.48    5.10
  -2  -5   6  181.58    5.40
  -2  -5   6  169.98    4.80
   1   5  -6    0.10    0.30
   1   5  -6   -0.40    0.40
   1   5  -6   -0.20    0.30
   1   5  -6    0.60    0.50
  -1  -5   6   -0.10    0.40
  -1  -5   6   -0.30    0.60
  -1  -5   6    0.40    0.40
   0   5  -6   11.50    0.80
   0   5  -6   12.70    1.00
   0   5  -6   13.70    1.40
   0   5  -6   14.50    1.40
   0  -5   6   14.40    1.50
   0  -5   6   12.60    1.20
  -1   5  -6    1.60    0.50
  -1   5  -6    3.10    0.90
  -1   5  -6    4.50    0.90
  -1   5  -6    2.40    0.60
   1  -5   6    0.00    0.60
   1  -5   6    1.50    0.70
  -2   5  -6    3.90    0.90
  -2   5  -6    3.60    0.80
  -2   5  -6    5.50    1.20
  -2   5  -6    4.60    0.60
   2  -5   6    4.80    0.90
   2  -5   6    4.20    0.90
  -3   5  -6   16.30    1.60
  -3   5  -6   12.90    1.30
  -3   5  -6   13.90    1.00
  -3   5  -6   16.10    1.80
   3  -5   6    9.60    1.70
   3  -5   6   12.70    1.10
  -4   5  -6    2.30    1.00
  -4   5  -6    2.00    0.70
  -4   5  -6    2.40    1.10
   4  -5   6    2.30    1.30
  -5   5  -6   14.00    1.20
  -5   5  -6   17.90    2.00
  -5   5  -6   13.90    1.60
  -5   5  -6   14.40    1.70
   9   4  -6    1.10    1.40
  -9  -4   6    0.50    1.40
   8   4  -6    0.40    1.00
   8   4  -6    0.60    0.60
  -8  -4   6   -0.20    1.10
  -8  -4   6    0.00    0.80
   7   4  -6    7.40    0.90
   7   4  -6    5.90    0.90
   7   4  -6    6.10    1.10
  -7  -4   6    9.30    1.30
  -7  -4   6    7.80    1.40
  -7  -4   6    7.10    0.90
   6   4  -6   17.10    1.40
   6   4  -6   18.30    1.60
   6   4  -6   19.90    1.30
  -6  -4   6   17.90    1.40
  -6  -4   6   19.20    1.20
   5   4  -6  153.58    4.50
   5   4  -6  152.18    4.90
   5   4  -6  150.08    4.40
  -5  -4   6  150.48    4.20
  -5  -4   6  153.28    4.50
  -5  -4   6  145.69    5.00
   4   4  -6  196.48    5.90
   4   4  -6  203.08    5.40
   4   4  -6  187.88    5.50
  -4  -4   6  183.48    5.80
  -4  -4   6  186.78    5.30
  -4  -4   6  200.58    5.10
   3   4  -6  103.99    4.10
   3   4  -6  102.49    3.60
   3   4  -6  106.59    3.20
   3   4  -6  106.09    3.50
  -3  -4   6  104.89    3.70
  -3  -4   6  107.19    3.10
  -3  -4   6  110.09    3.30
   2   4  -6   94.99    2.90
   2   4  -6   98.79    3.20
   2   4  -6   90.59    3.20
   2   4  -6   90.39    3.70
  -2  -4   6   95.19    3.10
  -2  -4   6   94.39    2.90
  -2  -4   6   93.19    3.40
   1   4  -6    7.70    0.80
   1   4  -6    9.80    1.20
   1   4  -6    8.20    1.10
   1   4  -6    8.80    0.70
  -1  -4   6   11.60    1.10
  -1  -4   6    9.50    1.10
  -1  -4   6    8.20    0.80
   0   4  -6    9.90    0.90
   0   4  -6    9.80    0.70
   0   4  -6   13.80    1.40
   0  -4   6    8.90    1.00
   0  -4   6    9.50    1.00
   0  -4   6    8.70    0.80
  -1   4  -6  288.07    8.30
  -1   4  -6  287.17    7.30
  -1   4  -6  299.87    7.70
   1  -4   6  300.17    8.30
   1  -4   6  307.77    7.90
   1  -4   6  292.47    7.60
  -2   4  -6   58.79    3.30
  -2   4  -6   68.59    2.50
  -2   4  -6   64.19    2.10
  -2   4  -6   59.69    2.80
   2  -4   6   61.99    2.90
   2  -4   6   60.39    2.20
   2  -4   6   63.69    2.30
  -3   4  -6  144.89    5.00
  -3   4  -6  144.29    4.00
  -3   4  -6  147.09    5.00
  -3   4  -6  155.88    4.50
   3  -4   6  134.69    5.20
   3  -4   6  152.78    4.00
   3  -4   6  148.99    4.00
  -4   4  -6    9.00    1.10
  -4   4  -6    8.20    1.30
  -4   4  -6    8.20    1.00
  -4   4  -6   10.10    0.80
  -5   4  -6   67.39    3.20
  -5   4  -6   63.09    2.60
  -5   4  -6   61.99    2.90
  -5   4  -6   61.79    2.20
  -6   4  -6    3.60    1.30
  -6   4  -6    4.70    0.80
  -6   4  -6    4.20    1.10
  -6   4  -6    3.30    1.10
  -9  -3   6    0.30    0.80
  -9  -3   6    1.30    1.40
   8   3  -6   12.20    1.50
  -8  -3   6   10.30    1.50
  -8  -3   6   12.20    1.10
  -8  -3   6   12.10    1.80
   7   3  -6   52.49    2.00
   7   3  -6   51.59    1.90
   7   3  -6   52.99    2.50
  -7  -3   6   55.19    4.00
  -7  -3   6   52.89    2.00
  -7  -3   6   49.90    2.50
   6   3  -6    3.30    0.70
   6   3  -6    3.90    0.80
   6   3  -6    2.70    0.70
  -6  -3   6    2.60    0.50
  -6  -3   6    1.50    0.60
  -6  -3   6    1.50    0.90
   5   3  -6   59.99    2.30
   5   3  -6   63.09    2.50
   5   3  -6   61.49    2.30
  -5  -3   6   63.19    2.50
  -5  -3   6   64.99    2.80
  -5  -3   6   62.99    2.10
   4   3  -6   48.80    2.00
   4   3  -6   49.20    1.90
   4   3  -6   52.19    2.20
  -4  -3   6   45.90    2.00
  -4  -3   6   47.60    1.70
  -4  -3   6   48.40    2.30
   3   3  -6   28.90    1.60
   3   3  -6   26.90    1.30
   3   3  -6   30.50    1.50
  -3  -3   6   29.60    1.70
  -3  -3   6   28.50    1.30
   2   3  -6    0.30    0.30
   2   3  -6    0.00    0.40
   2   3  -6    0.60    0.30
   2   3  -6    0.20    0.30
  -2  -3   6    0.40    0.30
  -2  -3   6    0.20    0.20
  -2  -3   6    0.50    0.50
   1   3  -6  105.59    3.00
   1   3  -6   94.39    3.40
   1   3  -6  102.99    3.30
   1   3  -6  108.09    3.20
  -1  -3   6  106.09    3.50
  -1  -3   6  105.99    3.10
  -1  -3   6   96.99    2.90
   0   3  -6   23.80    1.30
   0   3  -6   24.20    1.50
   0   3  -6   25.90    1.10
   0   3  -6   26.20    1.20
   0  -3   6   23.30    1.30
   0  -3   6   21.10    1.40
  -1   3  -6   40.50    1.80
  -1   3  -6   43.30    1.70
  -1   3  -6   45.60    1.50
   1  -3   6   42.30    1.90
   1  -3   6   45.70    1.60
   1  -3   6   41.50    1.80
  -2   3  -6    6.70    0.60
  -2   3  -6    7.90    0.80
  -2   3  -6    9.40    1.00
   2  -3   6    9.60    1.00
   2  -3   6    9.70    1.40
   2  -3   6    7.90    0.80
  -3   3  -6  249.88    6.60
  -3   3  -6  254.07    6.20
  -3   3  -6  261.87    6.90
   3  -3   6  235.28    7.30
   3  -3   6  255.47    6.20
   3  -3   6  250.27    6.10
  -4   3  -6   21.20    1.00
  -4   3  -6   21.10    1.40
  -4   3  -6   19.90    1.30
   4  -3   6   18.60    1.70
  -5   3  -6   14.00    0.90
  -5   3  -6   14.60    1.30
  -5   3  -6   13.80    1.10
  -6   3  -6   30.00    2.00
  -6   3  -6   28.40    1.60
  -6   3  -6   27.10    1.20
  -7   3  -6    2.20    0.90
  -7   3  -6    3.70    0.60
  -7   3  -6    3.00    1.20
  -9  -2   6    2.70    1.50
  -9  -2   6    3.60    1.00
  -8  -2   6    0.20    1.00
  -8  -2   6    0.70    1.00
  -8  -2   6   -0.20    0.60
   7   2  -6    0.50    0.40
   7   2  -6    0.60    0.40
   7   2  -6    0.30    0.60
  -7  -2   6   -0.20    0.80
  -7  -2   6    0.10    0.50
  -7  -2   6    0.40    0.70
   6   2  -6    9.60    1.00
   6   2  -6    7.40    0.80
   6   2  -6    8.10    0.90
  -6  -2   6    7.80    0.90
  -6  -2   6    8.30    1.20
  -6  -2   6    9.20    1.30
   5   2  -6   35.10    1.60
   5   2  -6   37.70    1.60
   5   2  -6   36.30    1.60
  -5  -2   6   35.80    2.00
  -5  -2   6   34.90    1.50
  -5  -2   6   34.70    1.90
   4   2  -6    6.80    0.80
   4   2  -6    6.70    0.80
   4   2  -6    7.30    0.90
  -4  -2   6    7.70    1.10
  -4  -2   6    8.60    0.70
  -4  -2   6    7.00    0.90
   3   2  -6    6.20    0.70
   3   2  -6    6.70    0.80
   3   2  -6    6.10    0.70
  -3  -2   6    4.70    0.60
  -3  -2   6    7.60    1.00
  -3  -2   6    7.20    0.60
   2   2  -6   15.70    1.10
   2   2  -6   13.30    1.00
   2   2  -6   15.70    0.90
   2   2  -6   12.60    1.00
  -2  -2   6   14.80    0.80
  -2  -2   6   14.40    1.10
  -2  -2   6   15.50    0.90
   1   2  -6  140.99    4.20
   1   2  -6  140.89    4.30
   1   2  -6  145.09    3.90
   1   2  -6  145.39    4.10
  -1  -2   6  142.39    3.90
  -1  -2   6  140.49    3.70
  -1  -2   6  141.69    4.30
   0   2  -6   69.79    2.40
   0   2  -6   72.19    2.30
   0   2  -6   67.89    2.10
   0  -2   6   65.79    2.40
   0  -2   6   66.39    2.00
  -1   2  -6   17.90    0.90
  -1   2  -6   17.90    1.10
  -1   2  -6   18.80    0.80
   1  -2   6   18.60    1.10
   1  -2   6   17.40    1.00
  -2   2  -6   48.40    1.90
  -2   2  -6   47.40    1.80
  -2   2  -6   47.10    1.50
   2  -2   6   48.00    1.50
   2  -2   6   43.00    1.90
   2  -2   6   49.50    1.80
  -3   2  -6  297.57    7.10
  -3   2  -6  288.27    7.50
  -3   2  -6  302.27    7.70
   3  -2   6  304.17    7.00
   3  -2   6  292.27    8.10
  -4   2  -6   55.69    2.00
  -4   2  -6   60.19    2.30
  -4   2  -6   59.79    1.80
   4  -2   6   53.99    2.60
  -5   2  -6    2.10    0.60
  -5   2  -6    2.80    0.40
  -5   2  -6    2.50    0.70
  -6   2  -6    7.50    1.10
  -6   2  -6    7.10    0.90
  -6   2  -6    7.20    0.60
  -7   2  -6   19.60    1.70
  -7   2  -6   22.30    2.20
  -7   2  -6   18.30    1.20
  -7   2  -6   16.40    0.90
  -8   2  -6    8.80    1.50
  -8   2  -6    8.00    1.60
  -8   2  -6    8.60    1.00
  -8   2  -6    7.70    0.70
  -8  -1   6    3.30    0.90
  -8  -1   6    3.00    1.30
  -7  -1   6   14.90    1.20
  -7  -1   6   19.60    2.00
   6   1  -6   73.59    2.30
  -6  -1   6   71.19    3.10
  -6  -1   6   75.79    2.60
   5   1  -6  103.49    3.20
   5   1  -6  103.99    3.20
   5   1  -6  106.89    3.10
  -5  -1   6  108.69    3.40
  -5  -1   6  101.19    3.70
   4   1  -6    4.60    0.60
   4   1  -6    5.30    0.70
   4   1  -6    4.40    0.70
  -4  -1   6    5.00    0.90
  -4  -1   6    5.80    0.70
   3   1  -6   17.70    1.10
   3   1  -6   15.50    0.90
   3   1  -6   16.30    1.00
  -3  -1   6   16.60    1.20
  -3  -1   6   17.00    0.90
  -3  -1   6   14.10    1.00
   2   1  -6  359.36    9.10
   2   1  -6  358.46    8.90
  -2  -1   6  359.36    9.00
  -2  -1   6  362.36    9.30
  -2  -1   6  361.86    8.70
   1   1  -6   10.50    0.80
   1   1  -6   10.70    0.90
   1   1  -6   12.10    0.80
  -1  -1   6   12.10    0.80
  -1  -1   6   11.50    0.60
  -1  -1   6   12.70    1.00
   0   1  -6  127.39    3.70
   0   1  -6  126.79    3.60
   0   1  -6  125.69    3.40
   0  -1   6  125.19    3.40
   0  -1   6  124.09    3.20
   0  -1   6  126.29    3.70
  -1   1  -6  379.16    9.40
  -1   1  -6  375.76    9.00
  -1   1  -6  397.66    9.20
   1  -1   6  386.46    9.60
   1  -1   6  358.06    8.80
   1  -1   6  372.96    9.20
  -2   1  -6  134.49    3.80
  -2   1  -6  135.39    3.50
  -2   1  -6  143.09    3.70
   2  -1   6  130.49    3.40
   2  -1   6  134.59    3.70
   2  -1   6  136.49    3.90
  -3   1  -6    9.40    0.70
  -3   1  -6    9.20    0.80
   3  -1   6   10.10    0.90
  -4   1  -6  225.28    5.30
  -4   1  -6  219.18    5.60
  -4   1  -6  224.48    5.90
   4  -1   6  209.68    6.30
  -5   1  -6  132.99    4.00
  -5   1  -6  130.89    3.30
  -5   1  -6  128.09    3.60
  -6   1  -6   14.20    1.20
  -6   1  -6   16.50    0.90
  -6   1  -6   14.20    0.60
  -7   1  -6    0.00    0.30
  -7   1  -6    0.20    0.40
  -7   1  -6   -0.60    0.80
  -8   1  -6    8.10    0.80
  -8   1  -6    7.10    1.20
  -8   0   6   -0.10    0.90
  -8   0   6    0.40    1.20
  -7   0   6    0.30    0.70
   6   0  -6   22.40    1.00
   6   0  -6   23.50    1.00
  -6   0   6   22.10    1.40
  -6   0   6   22.40    1.80
   5   0  -6    2.30    0.60
   5   0  -6    2.20    0.60
  -5   0   6    1.60    0.70
  -5   0   6    1.90    0.60
   4   0  -6   94.69    3.10
   4   0  -6   96.79    3.00
  -4   0   6  101.69    3.50
  -4   0   6   95.39    3.00
   3   0  -6    8.60    0.80
   3   0  -6    5.10    0.50
   3   0  -6    6.50    0.80
  -3   0   6    8.40    0.70
  -3   0   6    7.30    0.90
   2   0  -6  694.13   16.30
   2   0  -6  686.93   16.40
  -2   0   6  667.93   16.10
  -2   0   6  691.73   16.60
   1   0  -6    0.20    0.30
   1   0  -6   -0.20    0.30
  -1   0   6   -0.10    0.20
  -1   0   6    0.30    0.30
  -1   0   6    0.40    0.30
   0   0  -6 1012.20   23.20
   0   0  -6 1004.40   23.40
   0   0   6  996.90   23.50
   0   0   6  996.00   23.00
  -1   0  -6   46.10    1.60
  -1   0  -6   48.20    1.80
  -1   0  -6   46.00    1.60
   1   0   6   43.70    1.70
   1   0   6   44.30    1.40
   1   0   6   43.70    1.50
  -2   0  -6  145.99    4.00
  -2   0  -6  147.59    3.80
  -2   0  -6  143.29    3.70
   2   0   6  145.09    3.90
   2   0   6  141.39    3.80
   2   0   6  138.99    3.50
  -3   0  -6   14.00    0.60
  -3   0  -6   15.90    0.90
  -3   0  -6   14.00    0.80
   3   0   6   16.40    0.90
  -4   0  -6    5.30    0.40
  -4   0  -6    6.30    0.60
  -4   0  -6    6.10    0.60
   4   0   6    5.40    0.80
  -5   0  -6   78.89    2.60
  -5   0  -6   76.29    2.00
  -5   0  -6   74.59    2.30
  -6   0  -6   11.10    1.00
  -6   0  -6    8.90    0.40
  -6   0  -6   10.20    0.70
  -6   0  -6   11.30    1.50
  -7   0  -6    1.20    0.20
  -7   0  -6    0.50    0.60
  -7   0  -6    1.50    0.90
  -7   0  -6    0.90    0.40
  -8   0  -6    8.00    1.20
  -8   0  -6    8.90    1.50
  -9   0  -6    0.60    0.80
  -9   0  -6    0.50    1.10
  -8   1   6    1.00    1.40
  -7   1   6   11.00    1.40
  -7   1   6   12.10    1.80
  -6   1   6    2.20    1.00
  -6   1   6    3.60    0.90
   5  -1  -6    3.90    0.60
   5  -1  -6    3.10    0.60
  -5   1   6    3.90    1.00
  -5   1   6    3.50    0.80
   4  -1  -6  148.19    4.20
   4  -1  -6  147.39    4.30
  -4   1   6  148.59    4.50
  -4   1   6  146.09    4.70
   3  -1  -6   73.59    2.60
   3  -1  -6   72.99    2.50
  -3   1   6   74.89    2.80
  -3   1   6   68.09    2.50
   2  -1  -6   65.39    2.40
   2  -1  -6   67.59    2.30
  -2   1   6   65.79    2.30
  -2   1   6   67.59    2.60
   1  -1  -6    6.60    0.80
   1  -1  -6    7.80    0.90
  -1   1   6    7.50    0.80
  -1   1   6    4.60    0.70
   0  -1  -6   40.30    1.50
   0  -1  -6   36.20    1.60
   0   1   6   40.00    1.70
   0   1   6   38.40    1.50
  -1  -1  -6   75.59    2.30
  -1  -1  -6   75.19    2.50
   1   1   6   74.19    2.20
   1   1   6   77.69    2.20
  -2  -1  -6    8.80    0.50
  -2  -1  -6    8.90    0.70
  -2  -1  -6    8.90    0.80
   2   1   6    9.10    0.50
   2   1   6    8.50    0.50
   2   1   6    8.70    0.70
  -3  -1  -6  736.93   16.70
  -3  -1  -6  717.93   17.10
  -3  -1  -6  727.03   16.90
   3   1   6  726.33   16.70
   3   1   6  742.53   16.50
   3   1   6  717.23   16.90
  -4  -1  -6  298.37    8.40
  -4  -1  -6  300.47    7.30
  -4  -1  -6  294.97    7.10
  -4  -1  -6  302.77    7.10
   4   1   6  281.57    7.40
  -5  -1  -6    0.50    0.40
  -5  -1  -6    0.40    0.20
  -5  -1  -6   -0.10    0.40
  -5  -1  -6    0.80    0.30
  -6  -1  -6   22.50    1.70
  -6  -1  -6   20.10    0.80
  -6  -1  -6   19.80    1.00
  -6  -1  -6   20.40    1.10
  -7  -1  -6  173.98    5.80
  -7  -1  -6  167.38    4.90
  -8  -1  -6    2.00    0.90
  -8  -1  -6    1.70    0.70
  -9  -1  -6    1.70    1.10
  -9  -1  -6    1.30    0.80
  -7   2   6    3.30    1.20
  -7   2   6    4.90    1.50
  -6   2   6    0.90    0.80
   5  -2  -6  105.79    3.20
   5  -2  -6  108.89    3.10
  -5   2   6  103.49    3.70
  -5   2   6  110.99    4.10
   4  -2  -6   12.80    1.00
   4  -2  -6   12.00    1.10
  -4   2   6   11.20    1.20
  -4   2   6   11.80    1.40
   3  -2  -6    0.50    0.40
   3  -2  -6    0.30    0.50
  -3   2   6    0.20    0.60
  -3   2   6    0.30    0.50
   2  -2  -6    5.50    0.50
   2  -2  -6    6.10    0.80
   2  -2  -6    6.20    0.90
  -2   2   6    5.30    0.90
  -2   2   6    5.70    0.80
   1  -2  -6    6.60    0.70
   1  -2  -6    6.30    0.80
   1  -2  -6    5.70    0.80
  -1   2   6    7.40    1.00
  -1   2   6    6.40    0.80
   0  -2  -6  267.57    7.00
   0  -2  -6  271.87    7.10
   0  -2  -6  267.37    7.20
   0   2   6  273.27    6.90
   0   2   6  270.67    7.20
  -1  -2  -6  175.78    4.90
  -1  -2  -6  177.28    5.00
  -1  -2  -6  168.08    4.70
   1   2   6  173.48    4.60
   1   2   6  171.18    4.80
  -2  -2  -6   25.70    1.30
  -2  -2  -6   25.80    1.50
  -2  -2  -6   26.10    1.20
   2   2   6   25.10    1.30
   2   2   6   25.60    0.90
   2   2   6   25.10    1.10
  -3  -2  -6    0.40    0.40
  -3  -2  -6    0.40    0.40
   3   2   6    0.60    0.30
   3   2   6    0.40    0.20
  -4  -2  -6   32.00    1.90
  -4  -2  -6   30.40    1.20
  -4  -2  -6   28.60    1.30
  -5  -2  -6  195.48    5.10
  -5  -2  -6  195.08    6.10
  -5  -2  -6  200.88    4.80
  -5  -2  -6  194.98    5.00
  -6  -2  -6    4.70    0.50
  -6  -2  -6    4.30    0.60
  -6  -2  -6    3.30    0.90
  -6  -2  -6    4.60    0.50
  -7  -2  -6   66.89    3.20
  -7  -2  -6   66.29    2.00
  -7  -2  -6   68.09    2.30
  -7  -2  -6   68.09    2.10
  -8  -2  -6    0.10    0.80
  -8  -2  -6   -0.10    0.50
  -8  -2  -6   -0.20    0.40
  -9  -2  -6    1.00    0.60
  -9  -2  -6    0.00    1.00
 -10  -2  -6    4.40    1.40
 -10  -2  -6    6.00    1.10
  -7   3   6    0.60    1.40
  -7   3   6    2.80    1.90
  -7   3   6    1.60    1.60
  -6   3   6    0.90    1.20
  -6   3   6    1.00    1.10
   5  -3  -6   17.90    1.10
   5  -3  -6   17.80    1.30
  -5   3   6   18.60    1.70
   4  -3  -6    1.00    0.50
   4  -3  -6    1.20    0.70
  -4   3   6    1.10    0.90
  -4   3   6    1.80    0.80
   3  -3  -6   93.79    3.00
   3  -3  -6   89.69    3.20
  -3   3   6   90.19    3.20
  -3   3   6   93.59    3.50
   2  -3  -6   72.19    2.60
   2  -3  -6   76.69    2.90
   2  -3  -6   75.69    2.20
  -2   3   6   74.69    3.00
  -2   3   6   74.99    3.00
   1  -3  -6   19.20    1.40
   1  -3  -6   19.30    1.20
   1  -3  -6   22.40    1.10
  -1   3   6   22.70    1.30
  -1   3   6   20.00    1.40
   0  -3  -6    6.60    0.80
   0  -3  -6    6.60    0.80
   0  -3  -6    7.70    1.00
   0   3   6    6.60    0.80
   0   3   6    6.20    0.90
  -1  -3  -6    5.90    0.80
  -1  -3  -6    5.40    0.80
  -1  -3  -6    5.40    0.80
   1   3   6    5.50    0.70
   1   3   6    5.20    0.80
  -2  -3  -6  201.78    5.90
  -2  -3  -6  210.48    5.70
  -2  -3  -6  204.98    5.50
   2   3   6  204.38    5.40
   2   3   6  203.88    5.50
  -3  -3  -6   25.90    1.30
  -3  -3  -6   25.00    1.40
   3   3   6   26.10    1.10
  -4  -3  -6   67.19    2.40
  -4  -3  -6   70.59    2.30
   4   3   6   65.59    1.90
   4   3   6   66.19    1.90
  -5  -3  -6    0.00    0.40
  -5  -3  -6    0.00    0.30
  -5  -3  -6   -0.10    0.40
  -6  -3  -6  157.08    4.30
  -6  -3  -6  157.68    5.40
  -6  -3  -6  158.58    4.70
  -7  -3  -6   37.00    1.60
  -7  -3  -6   36.70    2.40
  -8  -3  -6   47.70    1.80
  -8  -3  -6   43.30    1.70
  -9  -3  -6   33.80    2.50
  -9  -3  -6   38.30    1.70
 -10  -3  -6    8.20    0.70
 -10  -3  -6    6.70    1.00
 -10  -3  -6    8.30    1.00
 -10  -3  -6    7.60    1.70
  -6   4   6   -0.10    1.30
  -6   4   6    0.30    1.10
  -6   4   6    2.10    1.40
   5  -4  -6   -0.20    0.70
   5  -4  -6    0.70    0.60
  -5   4   6    0.60    1.00
  -5   4   6    1.20    1.10
  -5   4   6    1.00    1.10
   4  -4  -6    0.00    0.50
   4  -4  -6    0.00    0.80
  -4   4   6    0.20    0.80
  -4   4   6   -0.60    0.80
   3  -4  -6  196.78    5.40
   3  -4  -6  192.78    6.10
  -3   4   6  189.38    6.10
  -3   4   6  191.98    5.80
   2  -4  -6    1.60    0.40
   2  -4  -6    0.80    0.80
   2  -4  -6    2.40    0.60
  -2   4   6    0.90    0.70
  -2   4   6    1.80    0.70
   1  -4  -6   49.00    2.30
   1  -4  -6   48.90    2.10
   1  -4  -6   50.19    1.90
  -1   4   6   47.70    2.30
  -1   4   6   50.19    2.00
  -1   4   6   47.90    2.10
   0  -4  -6  136.79    4.40
   0  -4  -6  140.69    4.10
   0  -4  -6  135.89    4.20
   0   4   6  134.99    4.20
   0   4   6  141.99    4.40
  -1  -4  -6    2.00    0.50
  -1  -4  -6    1.40    0.70
  -1  -4  -6    1.30    0.50
   1   4   6    2.90    0.60
   1   4   6    0.90    0.60
   1   4   6    2.50    0.60
  -2  -4  -6  185.78    5.60
  -2  -4  -6  197.08    5.70
  -2  -4  -6  192.58    5.40
   2   4   6  190.98    5.40
   2   4   6  192.18    5.30
   2   4   6  198.68    5.80
  -3  -4  -6   37.70    1.70
  -3  -4  -6   38.40    1.80
  -3  -4  -6   38.60    2.00
   3   4   6   36.70    2.00
   3   4   6   36.50    1.60
   3   4   6   39.00    1.60
  -4  -4  -6    2.80    0.70
  -4  -4  -6    2.60    0.60
  -4  -4  -6    2.50    0.70
   4   4   6    2.50    0.50
   4   4   6    2.00    0.70
   4   4   6    3.20    0.50
  -5  -4  -6   35.00    1.70
  -5  -4  -6   37.60    2.20
  -5  -4  -6   34.90    1.60
   5   4   6   32.10    2.20
   5   4   6   36.10    1.10
   5   4   6   37.00    1.20
  -6  -4  -6   39.40    1.70
  -6  -4  -6   33.70    2.20
  -6  -4  -6   39.00    1.70
  -7  -4  -6  156.78    4.50
  -7  -4  -6  156.48    4.40
  -7  -4  -6  159.28    5.60
  -8  -4  -6   42.80    2.00
  -8  -4  -6   47.10    1.80
  -8  -4  -6   49.00    2.90
  -9  -4  -6    9.30    1.60
  -9  -4  -6    8.90    1.10
  -9  -4  -6   10.10    1.00
 -10  -4  -6    0.60    0.90
 -10  -4  -6   -0.10    0.60
 -10  -4  -6    0.30    1.10
   5  -5  -6    1.70    0.90
   5  -5  -6    2.50    1.10
  -5   5   6    0.10    1.30
  -5   5   6    2.10    1.60
   4  -5  -6    1.20    0.70
  -4   5   6    2.60    1.20
  -4   5   6    0.40    1.00
  -4   5   6    0.80    1.40
   3  -5  -6   14.40    1.20
   3  -5  -6   15.00    1.60
  -3   5   6   10.20    1.60
  -3   5   6   13.00    1.60
  -3   5   6   14.50    1.70
   2  -5  -6    2.00    0.90
   2  -5  -6    1.90    0.50
   2  -5  -6    2.20    0.70
  -2   5   6    2.00    0.90
  -2   5   6    1.10    0.80
  -2   5   6    1.20    0.70
  -2   5   6    2.30    0.60
   1  -5  -6    9.00    1.10
   1  -5  -6    9.30    1.30
   1  -5  -6    8.40    0.80
  -1   5   6    8.80    1.20
  -1   5   6    9.60    1.10
  -1   5   6    8.50    1.40
  -1   5   6   10.50    1.40
   0  -5  -6   48.80    2.20
   0  -5  -6   51.69    2.50
   0  -5  -6   53.39    2.10
   0   5   6   52.79    2.40
   0   5   6   53.09    2.30
   0   5   6   46.70    2.40
   0   5   6   49.40    2.30
  -1  -5  -6  110.49    3.70
  -1  -5  -6  111.39    3.70
   1   5   6  107.89    3.90
   1   5   6  113.99    3.80
   1   5   6  107.79    3.70
   1   5   6  110.79    3.70
  -2  -5  -6    2.60    0.70
  -2  -5  -6    3.30    1.00
  -2  -5  -6    3.60    0.70
   2   5   6    2.60    0.60
   2   5   6    2.30    0.60
   2   5   6    3.50    0.80
   2   5   6    4.00    0.90
  -3  -5  -6    5.40    1.00
  -3  -5  -6    4.50    1.00
  -3  -5  -6    2.60    0.60
   3   5   6    4.00    0.50
   3   5   6    2.90    0.80
   3   5   6    2.70    0.60
   3   5   6    3.00    0.70
  -4  -5  -6   29.00    1.60
  -4  -5  -6   30.10    1.70
  -4  -5  -6   31.50    1.90
   4   5   6   27.70    2.00
   4   5   6   29.50    1.40
   4   5   6   31.70    1.40
  -5  -5  -6   14.90    1.50
  -5  -5  -6   11.40    1.20
  -5  -5  -6   13.30    1.10
   5   5   6   14.30    0.80
   5   5   6   14.10    0.90
   5   5   6   12.40    1.50
  -6  -5  -6   19.80    1.50
  -6  -5  -6   19.60    1.30
  -6  -5  -6   21.00    1.80
   6   5   6   19.50    0.70
   6   5   6   20.50    1.90
   6   5   6   21.60    0.80
  -7  -5  -6    3.90    0.80
  -7  -5  -6    4.40    0.90
  -7  -5  -6    5.90    1.30
   7   5   6    3.60    1.10
  -8  -5  -6  168.78    5.00
  -8  -5  -6  162.28    5.90
  -8  -5  -6  167.58    4.80
  -9  -5  -6    1.70    0.90
  -9  -5  -6    0.70    0.70
  -9  -5  -6    0.40    1.00
 -10  -5  -6    3.70    0.90
 -10  -5  -6    2.50    1.20
   4  -6  -6    0.30    1.30
   4  -6  -6    0.30    0.80
  -4   6   6    2.80    1.50
  -4   6   6   -0.10    1.10
   3  -6  -6   -0.10    0.70
   3  -6  -6   -1.00    1.20
  -3   6   6   -0.10    1.00
  -3   6   6    0.80    1.20
  -3   6   6   -0.20    1.00
   2  -6  -6    0.70    0.60
   2  -6  -6   -0.20    0.40
   2  -6  -6    0.40    1.10
  -2   6   6    0.00    0.60
  -2   6   6   -0.20    0.80
  -2   6   6   -0.10    0.90
  -2   6   6   -0.60    0.90
   1  -6  -6   29.60    1.80
   1  -6  -6   30.30    1.60
   1  -6  -6   30.30    2.30
  -1   6   6   30.00    1.90
  -1   6   6   35.10    2.10
  -1   6   6   29.30    2.10
  -1   6   6   32.70    2.10
   0  -6  -6   14.50    1.70
   0  -6  -6   12.00    1.10
   0   6   6   17.50    1.60
   0   6   6   16.40    1.50
   0   6   6   10.10    1.40
  -1  -6  -6  168.18    5.70
  -1  -6  -6  180.88    5.40
  -1  -6  -6  178.08    5.40
   1   6   6  170.68    5.30
   1   6   6  166.48    5.30
   1   6   6  180.18    5.40
   1   6   6  172.68    5.60
  -2  -6  -6   20.20    1.80
  -2  -6  -6   26.30    1.60
  -2  -6  -6   23.30    1.60
   2   6   6   24.80    1.90
   2   6   6   26.20    1.70
   2   6   6   25.70    1.50
   2   6   6   26.60    1.60
  -3  -6  -6   36.10    2.10
  -3  -6  -6   36.80    2.20
  -3  -6  -6   34.60    1.80
   3   6   6   38.30    2.00
   3   6   6   34.30    2.20
   3   6   6   37.50    1.60
   3   6   6   35.70    1.80
  -4  -6  -6  190.78    6.20
  -4  -6  -6  195.98    6.00
  -4  -6  -6  196.58    5.70
   4   6   6  203.28    5.40
   4   6   6  196.18    6.50
  -5  -6  -6    0.90    0.50
  -5  -6  -6    1.00    0.70
  -5  -6  -6    1.00    0.60
   5   6   6    1.20    0.60
   5   6   6    1.10    0.40
   5   6   6    0.20    0.70
  -6  -6  -6   26.60    1.60
  -6  -6  -6   26.20    1.80
   6   6   6   26.50    1.30
   6   6   6   18.40    2.20
   6   6   6   23.30    1.00
  -7  -6  -6    0.10    0.60
  -7  -6  -6   -0.60    0.70
  -7  -6  -6    0.00    0.60
  -8  -6  -6    1.10    1.00
  -8  -6  -6    1.10    0.70
  -8  -6  -6    1.30    0.90
   8   6   6    5.00    1.90
  -9  -6  -6    3.10    1.10
  -9  -6  -6    4.50    0.90
 -10  -6  -6   -0.40    1.10
 -10  -6  -6    0.20    0.90
 -10  -6  -6   -0.20    1.30
   3  -7  -6   20.80    2.40
  -3   7   6   14.80    2.00
  -3   7   6   14.40    2.00
   2  -7  -6    1.00    0.90
  -2   7   6    0.70    1.10
  -2   7   6    0.50    1.00
  -2   7   6    1.00    0.90
   1  -7  -6   12.70    1.30
   1  -7  -6   15.40    1.60
  -1   7   6   13.90    1.70
  -1   7   6   12.90    1.80
  -1   7   6   11.00    1.50
  -1   7   6   14.50    1.70
   0  -7  -6   18.30    1.50
   0  -7  -6   18.10    1.50
   0   7   6   17.00    1.80
   0   7   6   17.90    1.70
   0   7   6   14.60    1.70
  -1  -7  -6   17.40    1.50
  -1  -7  -6   16.80    1.50
   1   7   6   14.70    1.60
   1   7   6   15.30    1.50
   1   7   6   14.80    1.70
  -2  -7  -6   54.49    2.60
  -2  -7  -6   54.29    2.50
   2   7   6   59.89    2.80
   2   7   6   57.89    3.00
   2   7   6   54.79    2.40
   2   7   6   56.89    2.80
  -3  -7  -6    5.80    1.00
   3   7   6    4.50    1.20
   3   7   6    6.00    1.10
   3   7   6    5.50    0.70
   3   7   6    5.00    0.90
  -4  -7  -6    1.50    0.90
  -4  -7  -6    2.50    0.90
   4   7   6    1.80    0.80
   4   7   6    2.60    0.70
   4   7   6    2.80    0.40
   4   7   6    1.50    0.90
  -5  -7  -6    7.10    1.30
  -5  -7  -6    6.20    1.20
   5   7   6    7.20    1.10
   5   7   6    8.20    0.90
  -6  -7  -6    2.40    1.10
  -6  -7  -6    2.40    0.90
   6   7   6    2.50    0.50
  -7  -7  -6    3.10    1.00
  -7  -7  -6    3.60    1.20
  -7  -7  -6    2.60    1.00
   7   7   6    2.80    0.40
   7   7   6    2.30    0.70
   7   7   6    2.40    1.30
  -8  -7  -6   15.30    1.60
  -8  -7  -6   13.70    1.90
  -8  -7  -6   20.80    2.10
   8   7   6   12.70    2.10
  -9  -7  -6   11.80    1.80
  -9  -7  -6   10.60    1.40
  -9  -7  -6    9.60    1.90
   2  -8  -6    1.00    1.10
   2  -8  -6    1.70    2.10
  -2   8   6    1.00    1.30
  -2   8   6    1.50    1.50
  -2   8   6    0.50    2.20
   1  -8  -6    1.20    1.00
   1  -8  -6    1.20    1.80
   1  -8  -6    0.80    0.90
  -1   8   6    1.20    1.20
  -1   8   6   -0.60    1.20
  -1   8   6    1.70    1.20
   0  -8  -6    0.60    1.50
   0  -8  -6    1.10    0.90
   0  -8  -6    2.10    0.80
   0   8   6    2.60    1.10
   0   8   6    1.60    0.90
   0   8   6    1.50    1.20
  -1  -8  -6   12.60    1.60
  -1  -8  -6   10.00    1.40
  -1  -8  -6    8.60    1.90
   1   8   6   11.20    1.50
   1   8   6   12.10    1.80
   1   8   6   12.20    1.90
  -2  -8  -6    0.20    0.70
  -2  -8  -6    0.10    0.70
   2   8   6    0.60    1.00
   2   8   6    0.90    0.80
   2   8   6   -0.20    0.60
  -3  -8  -6    2.20    0.90
  -3  -8  -6    5.00    1.10
   3   8   6    3.70    0.90
   3   8   6    5.00    0.80
   3   8   6    4.60    1.30
  -4  -8  -6   20.90    2.40
  -4  -8  -6   20.20    1.70
  -4  -8  -6   23.80    2.00
   4   8   6   21.90    1.50
   4   8   6   22.00    1.10
   4   8   6   20.80    2.40
  -5  -8  -6    9.80    1.40
  -5  -8  -6   11.40    1.80
  -5  -8  -6   11.70    1.70
   5   8   6    8.40    1.80
   5   8   6   13.30    1.70
  -6  -8  -6   29.10    2.70
  -6  -8  -6   27.50    1.90
  -6  -8  -6   27.30    2.20
   6   8   6   30.50    2.00
   6   8   6   26.40    1.40
   6   8   6   24.40    2.70
  -7  -8  -6    0.70    0.90
  -7  -8  -6    0.60    0.80
   7   8   6    0.80    0.50
   7   8   6   -0.30    0.80
  -8  -8  -6    3.50    1.10
  -8  -8  -6    3.10    1.60
  -8  -8  -6    2.60    1.30
   8   8   6    3.80    0.50
  -9  -8  -6   -1.00    1.30
  -9  -8  -6    2.00    1.70
  -9  -8  -6    0.80    1.00
   0  -9  -6    4.40    1.30
   0  -9  -6    2.70    1.10
   0   9   6    2.40    1.80
   0   9   6    1.70    1.10
   0   9   6    0.90    1.20
  -1  -9  -6   29.10    2.30
  -1  -9  -6   31.10    2.40
   1   9   6   27.60    2.20
   1   9   6   28.30    2.90
   1   9   6   27.60    2.20
  -2  -9  -6    0.70    1.00
  -2  -9  -6    0.70    0.90
   2   9   6    1.30    0.80
   2   9   6    0.90    0.90
   2   9   6    2.00    1.70
  -3  -9  -6    9.50    1.60
  -3  -9  -6   10.20    1.50
   3   9   6    7.10    1.20
   3   9   6   11.60    2.10
   3   9   6   11.20    1.20
  -4  -9  -6    5.30    1.30
  -4  -9  -6    3.80    1.20
   4   9   6    5.50    1.80
   4   9   6    4.70    1.00
   4   9   6    4.90    0.80
   4   9   6    4.90    1.50
  -5  -9  -6    0.50    0.90
  -5  -9  -6   -0.40    0.80
   5   9   6    1.70    1.30
   5   9   6   -0.60    2.60
   5   9   6    0.50    0.70
  -6  -9  -6    0.40    0.90
  -6  -9  -6    1.20    1.00
   6   9   6    0.50    0.60
  -7  -9  -6    3.10    1.10
  -7  -9  -6    2.70    1.10
   7   9   6    5.90    1.40
  -8  -9  -6    6.60    1.60
  -8  -9  -6    7.90    1.50
   8   9   6    7.40    1.30
   8   9   6    6.50    0.80
  -2 -10  -6    0.60    1.10
   2  10   6    0.50    1.10
   2  10   6    0.40    0.90
  -3 -10  -6    0.00    1.20
  -3 -10  -6    0.60    1.10
   3  10   6    0.40    1.10
   3  10   6    0.60    0.70
  -4 -10  -6    2.70    1.30
  -4 -10  -6    0.70    1.20
   4  10   6    1.40    0.70
   4  10   6    0.90    1.00
  -5 -10  -6    0.30    1.20
  -5 -10  -6    0.70    1.10
   5  10   6    0.70    0.50
  -6 -10  -6   -0.10    1.20
  -6 -10  -6    0.70    1.10
   6  10   6    0.70    0.80
  -7 -10  -6    1.70    1.20
  -7 -10  -6    0.60    1.70
   7  10   6    2.80    1.80
   7  10   6    2.90    0.80
   4   9  -7   -0.10    0.80
   4   9  -7   -0.10    0.90
  -4  -9   7   -0.50    1.50
   3   9  -7    5.10    1.10
   3   9  -7    6.10    1.40
  -3  -9   7    4.00    1.70
   2   9  -7    7.30    1.40
   6   8  -7    0.30    0.90
  -6  -8   7    0.40    1.40
   5   8  -7    6.90    1.10
   5   8  -7    8.40    1.50
  -5  -8   7    5.50    1.90
   4   8  -7    1.40    0.70
   4   8  -7    1.80    0.80
  -4  -8   7    0.60    1.20
   3   8  -7    6.40    1.00
   3   8  -7    4.20    1.00
  -3  -8   7    7.80    1.70
   2   8  -7    1.10    0.70
  -2  -8   7    0.30    1.20
   1   8  -7    1.00    0.70
   1   8  -7    1.80    0.80
  -1  -8   7    2.50    1.30
   0   8  -7   -0.10    0.70
   0  -8   7   -1.00    1.50
   0  -8   7   -0.60    1.20
  -1   8  -7    4.00    0.90
  -1   8  -7    4.90    1.10
   1  -8   7    2.60    1.40
   7   7  -7    0.90    1.40
   7   7  -7   -0.30    0.90
   6   7  -7    7.70    1.20
   6   7  -7    4.80    2.20
   6   7  -7    4.60    1.40
  -6  -7   7    4.60    1.10
  -6  -7   7    3.10    1.40
   5   7  -7   -0.10    1.10
   5   7  -7    0.30    1.10
   5   7  -7    0.30    0.70
   5   7  -7    0.90    0.70
  -5  -7   7    0.20    1.10
  -5  -7   7    0.50    0.80
   4   7  -7   15.60    1.30
   4   7  -7   15.10    1.50
   4   7  -7   15.10    2.00
   4   7  -7   16.40    1.90
  -4  -7   7   15.50    1.60
  -4  -7   7   17.00    2.00
  -4  -7   7   16.20    1.60
   3   7  -7   29.20    1.90
   3   7  -7   29.60    1.60
   3   7  -7   33.40    2.30
  -3  -7   7   30.90    2.10
  -3  -7   7   35.70    2.50
  -3  -7   7   27.70    2.20
   2   7  -7   18.00    2.20
   2   7  -7   20.00    1.30
   2   7  -7   17.50    2.10
   2   7  -7   18.20    1.50
  -2  -7   7   19.40    2.10
  -2  -7   7   20.00    1.90
   1   7  -7    9.70    1.70
   1   7  -7    9.80    1.10
   1   7  -7   10.90    1.20
   1   7  -7   12.80    1.60
  -1  -7   7    9.90    1.50
  -1  -7   7   11.00    1.90
  -1  -7   7   12.80    1.80
   0   7  -7    4.80    1.40
   0   7  -7    5.70    0.90
   0   7  -7    7.20    1.20
   0   7  -7    3.70    1.30
   0  -7   7    4.60    1.20
  -1   7  -7    2.10    0.70
  -1   7  -7    2.00    0.80
   1  -7   7    4.20    1.30
  -2   7  -7    4.30    1.10
  -2   7  -7    4.60    0.90
   2  -7   7    4.30    1.20
   2  -7   7    4.60    1.40
  -3   7  -7    0.00    0.70
   3  -7   7    0.10    1.00
   3  -7   7   -0.20    1.10
   8   6  -7   -1.40    1.40
   8   6  -7    1.50    1.30
   8   6  -7    0.50    1.00
  -8  -6   7    2.10    1.60
   7   6  -7    8.70    1.20
  -7  -6   7   11.50    1.90
  -7  -6   7   12.00    1.30
   6   6  -7    2.10    0.80
   6   6  -7    4.10    1.50
  -6  -6   7    4.20    0.90
  -6  -6   7    4.00    1.30
   5   6  -7   -0.40    0.50
  -5  -6   7   -0.30    0.60
  -5  -6   7   -0.20    0.50
  -5  -6   7   -0.40    0.90
   4   6  -7   -0.50    0.50
   4   6  -7    0.30    0.50
  -4  -6   7    0.00    0.60
  -4  -6   7    0.60    0.80
   3   6  -7   63.69    2.80
   3   6  -7   59.69    2.40
  -3  -6   7   67.49    3.10
  -3  -6   7   64.29    2.70
   2   6  -7    2.70    0.60
   2   6  -7    5.50    0.80
  -2  -6   7    4.70    1.00
  -2  -6   7    3.10    1.00
  -2  -6   7   -0.10    0.50
   1   6  -7    4.30    0.70
   1   6  -7    3.80    0.80
   1   6  -7    3.80    1.00
  -1  -6   7    5.80    1.00
   0   6  -7    7.20    1.30
   0   6  -7    6.60    1.20
   0   6  -7    5.80    0.80
   0   6  -7    5.20    0.80
   0  -6   7    6.50    1.20
   0  -6   7    6.10    1.20
  -1   6  -7   26.40    2.30
  -1   6  -7   25.70    1.70
  -1   6  -7   23.30    1.90
  -1   6  -7   24.70    1.30
   1  -6   7   24.50    1.80
   1  -6   7   26.90    1.90
  -2   6  -7   10.20    1.50
  -2   6  -7    9.80    1.10
  -2   6  -7   10.20    2.00
  -2   6  -7    8.40    0.90
   2  -6   7    9.90    1.30
   2  -6   7   13.10    1.50
   2  -6   7    9.50    1.90
  -3   6  -7   -0.40    1.20
  -3   6  -7   -0.50    0.60
  -3   6  -7    0.10    1.20
   3  -6   7    0.50    0.80
   3  -6   7    1.00    0.90
  -4   6  -7   37.70    1.80
  -4   6  -7   34.60    2.30
  -4   6  -7   39.50    2.70
   8   5  -7   -0.30    1.30
   8   5  -7    2.20    0.90
   8   5  -7    2.80    1.10
  -8  -5   7    4.00    1.50
   7   5  -7   -0.10    1.10
   7   5  -7    0.20    0.70
   7   5  -7    0.30    0.90
  -7  -5   7    0.50    0.70
  -7  -5   7    0.40    0.70
  -7  -5   7    1.90    1.30
   6   5  -7   28.10    1.80
   6   5  -7   27.30    2.30
   6   5  -7   27.30    1.70
  -6  -5   7   26.20    2.10
  -6  -5   7   27.30    1.90
  -6  -5   7   26.10    1.70
   5   5  -7   13.40    1.40
   5   5  -7   10.40    1.40
   5   5  -7   10.40    1.20
  -5  -5   7   11.10    1.60
  -5  -5   7   10.60    1.10
  -5  -5   7   11.10    1.00
   4   5  -7   30.80    1.60
   4   5  -7   27.80    1.80
   4   5  -7   26.40    1.80
   4   5  -7   26.60    1.90
  -4  -5   7   27.80    2.00
  -4  -5   7   31.00    1.60
   3   5  -7   37.90    2.30
   3   5  -7   37.60    2.00
   3   5  -7   39.30    2.00
   3   5  -7   38.90    1.70
  -3  -5   7   42.30    2.40
  -3  -5   7   35.70    1.80
   2   5  -7   29.50    1.40
   2   5  -7   29.60    1.80
   2   5  -7   29.80    1.70
   2   5  -7   25.90    1.90
  -2  -5   7   31.10    1.90
  -2  -5   7   31.40    1.50
  -2  -5   7   29.60    1.70
   1   5  -7   55.39    2.00
   1   5  -7   52.09    2.40
   1   5  -7   56.19    2.30
  -1  -5   7   58.69    2.20
  -1  -5   7   52.89    2.60
   0   5  -7    8.10    1.00
   0   5  -7    7.40    0.80
   0   5  -7    8.30    1.30
   0   5  -7    9.10    1.20
   0  -5   7    7.50    1.20
   0  -5   7    9.20    1.10
  -1   5  -7   55.09    2.50
  -1   5  -7   54.89    2.90
  -1   5  -7   59.69    2.40
  -1   5  -7   54.49    2.00
   1  -5   7   55.99    2.30
   1  -5   7   57.99    2.60
  -2   5  -7   30.10    2.20
  -2   5  -7   29.60    1.70
  -2   5  -7   28.20    1.80
  -2   5  -7   27.90    1.50
   2  -5   7   27.30    1.70
   2  -5   7   30.50    1.70
  -3   5  -7    8.90    1.20
  -3   5  -7   10.80    1.30
  -3   5  -7    9.90    1.30
  -3   5  -7   10.00    1.60
   3  -5   7   10.60    1.00
   3  -5   7    9.70    1.60
  -4   5  -7    6.40    1.20
  -4   5  -7    6.60    0.90
  -4   5  -7    7.30    1.30
  -4   5  -7    6.40    1.50
   4  -5   7    5.90    2.10
  -5   5  -7    1.90    0.60
  -5   5  -7    1.40    0.80
  -5   5  -7    1.80    1.20
  -5   5  -7   -0.90    1.30
   8   4  -7    6.40    1.00
   8   4  -7    7.80    1.50
  -8  -4   7    5.30    1.00
  -8  -4   7    5.70    1.60
   7   4  -7    8.40    1.40
   7   4  -7    5.90    1.00
   7   4  -7    7.20    1.10
  -7  -4   7    5.80    1.40
   6   4  -7    1.40    0.70
   6   4  -7    2.30    0.80
   6   4  -7    2.10    0.80
  -6  -4   7    1.20    0.60
  -6  -4   7    1.30    1.00
  -6  -4   7    1.80    0.60
   5   4  -7    1.80    0.70
   5   4  -7    1.30    0.60
   5   4  -7    2.80    0.80
  -5  -4   7    0.80    0.60
  -5  -4   7    1.10    0.50
   4   4  -7   27.90    1.80
   4   4  -7   33.10    1.60
   4   4  -7   31.70    1.80
  -4  -4   7   33.30    1.50
  -4  -4   7   31.00    1.60
  -4  -4   7   29.60    2.00
   3   4  -7  112.29    4.00
   3   4  -7  121.69    4.20
   3   4  -7  118.49    3.60
   3   4  -7  113.59    3.90
  -3  -4   7  121.19    3.70
  -3  -4   7  122.29    3.50
  -3  -4   7  122.09    4.20
   2   4  -7    1.40    0.60
   2   4  -7    1.40    0.40
   2   4  -7    2.10    0.70
   2   4  -7    2.80    0.60
  -2  -4   7    1.20    0.60
  -2  -4   7    3.10    0.60
  -2  -4   7    1.80    0.50
   1   4  -7   83.59    2.90
   1   4  -7   80.49    3.00
   1   4  -7   78.59    2.60
   1   4  -7   79.39    3.20
  -1  -4   7   80.49    2.90
  -1  -4   7   81.89    3.20
   0   4  -7   12.10    1.10
   0   4  -7   13.30    1.00
   0   4  -7   13.70    1.30
   0   4  -7   12.10    0.80
   0  -4   7   12.80    1.30
   0  -4   7   14.00    1.20
  -1   4  -7   13.30    1.20
  -1   4  -7   15.20    1.40
  -1   4  -7   17.20    1.10
  -1   4  -7   15.10    0.90
   1  -4   7   15.10    1.40
   1  -4   7   16.10    1.30
   1  -4   7   17.30    1.10
  -2   4  -7    1.90    0.80
  -2   4  -7    2.00    0.70
  -2   4  -7    2.50    0.50
  -2   4  -7    1.30    0.50
   2  -4   7    2.70    0.70
   2  -4   7    1.50    0.50
   2  -4   7    2.30    0.90
  -3   4  -7  196.18    5.60
  -3   4  -7  190.58    5.50
  -3   4  -7  190.38    5.00
  -3   4  -7  186.68    6.20
   3  -4   7  185.88    5.00
   3  -4   7  192.68    5.00
  -4   4  -7   22.30    1.20
  -4   4  -7   19.70    1.90
  -4   4  -7   22.10    1.60
  -4   4  -7   24.60    1.60
   4  -4   7   21.80    2.30
  -5   4  -7    3.50    0.60
  -5   4  -7    4.20    1.00
  -5   4  -7    5.60    1.40
  -5   4  -7    1.70    0.70
  -6   4  -7   20.90    1.80
  -6   4  -7   32.30    3.90
  -6   4  -7   19.90    1.40
  -6   4  -7   21.70    1.90
   8   3  -7    5.50    1.30
  -8  -3   7    5.60    1.00
  -8  -3   7    5.20    1.50
   7   3  -7    5.90    0.90
   7   3  -7    7.90    1.20
   7   3  -7    6.40    0.90
  -7  -3   7    5.30    1.30
  -7  -3   7    5.00    0.80
  -7  -3   7    6.90    1.40
   6   3  -7   22.70    1.60
   6   3  -7   18.80    1.40
  -6  -3   7   15.90    2.10
  -6  -3   7   21.00    1.60
  -6  -3   7   19.00    1.20
   5   3  -7   38.40    1.90
   5   3  -7   40.40    1.90
   5   3  -7   37.40    1.90
  -5  -3   7   32.60    2.10
  -5  -3   7   37.40    1.90
  -5  -3   7   38.00    1.60
   4   3  -7   49.40    2.10
   4   3  -7   49.99    2.20
   4   3  -7   51.19    2.30
  -4  -3   7   49.10    1.80
  -4  -3   7   46.80    2.40
  -4  -3   7   49.80    2.10
   3   3  -7   73.89    2.80
   3   3  -7   76.99    2.90
   3   3  -7   76.99    2.60
  -3  -3   7   74.99    2.40
  -3  -3   7   75.09    2.60
  -3  -3   7   73.39    3.00
   2   3  -7  313.27    8.40
   2   3  -7  312.17    7.80
   2   3  -7  306.97    8.20
  -2  -3   7  317.97    8.50
  -2  -3   7  304.87    8.10
  -2  -3   7  301.37    7.80
   1   3  -7    0.10    0.40
   1   3  -7    0.00    0.30
   1   3  -7    0.20    0.50
   1   3  -7    0.50    0.40
  -1  -3   7   -0.30    0.40
  -1  -3   7    0.20    0.20
  -1  -3   7    0.10    0.20
   0   3  -7   44.10    2.00
   0   3  -7   47.10    1.70
   0   3  -7   45.90    1.90
   0   3  -7   48.70    2.60
   0  -3   7   41.80    2.00
   0  -3   7   45.80    2.20
  -1   3  -7  301.07    8.10
  -1   3  -7  318.77    7.90
  -1   3  -7  305.97    7.60
   1  -3   7  296.77    7.60
   1  -3   7  313.97    8.30
   1  -3   7  314.57    8.10
  -2   3  -7  151.68    4.00
  -2   3  -7  156.48    4.40
  -2   3  -7  145.49    4.40
   2  -3   7  143.09    4.80
   2  -3   7  151.48    4.10
   2  -3   7  147.09    4.30
  -3   3  -7  160.38    4.70
  -3   3  -7  161.18    4.80
  -3   3  -7  161.98    4.30
   3  -3   7  168.58    4.30
   3  -3   7  160.68    4.20
   3  -3   7  163.28    5.40
  -4   3  -7   22.70    1.50
  -4   3  -7   24.90    1.10
  -4   3  -7   24.10    1.50
   4  -3   7   22.30    1.90
  -5   3  -7   18.70    1.00
  -5   3  -7   19.00    1.50
  -5   3  -7   19.60    1.50
  -6   3  -7    7.40    1.20
  -6   3  -7    6.90    0.70
  -7   3  -7    4.40    0.70
  -7   3  -7    5.40    1.10
  -7   3  -7    4.80    1.10
  -8  -2   7    0.00    1.20
  -8  -2   7    1.10    1.30
   7   2  -7    3.40    0.80
   7   2  -7    3.90    0.70
   7   2  -7    3.80    0.70
  -7  -2   7    3.50    1.00
  -7  -2   7    3.20    1.20
  -7  -2   7    3.40    0.80
   6   2  -7    8.40    1.00
   6   2  -7    6.40    0.90
   6   2  -7    7.10    0.90
  -6  -2   7    9.60    1.00
  -6  -2   7    7.30    1.20
  -6  -2   7    8.50    1.40
   5   2  -7   37.50    1.80
   5   2  -7   36.00    1.70
   5   2  -7   41.70    1.90
  -5  -2   7   42.10    2.30
  -5  -2   7   34.90    1.90
  -5  -2   7   36.10    1.60
   4   2  -7   32.80    1.70
   4   2  -7   34.90    1.70
   4   2  -7   37.90    1.70
  -4  -2   7   30.50    1.70
  -4  -2   7   36.20    2.00
  -4  -2   7   34.50    1.50
   3   2  -7   68.79    2.40
   3   2  -7   67.99    2.50
   3   2  -7   67.29    2.60
  -3  -2   7   69.89    2.60
  -3  -2   7   70.19    2.80
   2   2  -7   78.59    2.80
   2   2  -7   80.79    2.60
   2   2  -7   83.09    2.90
  -2  -2   7   81.19    3.00
  -2  -2   7   78.49    2.40
  -2  -2   7   76.39    2.60
   1   2  -7    0.90    0.30
   1   2  -7    1.10    0.50
   1   2  -7    0.80    0.30
  -1  -2   7    1.60    0.50
  -1  -2   7    1.10    0.30
  -1  -2   7    1.30    0.30
   0   2  -7   15.90    0.90
   0   2  -7   14.50    1.10
   0   2  -7   15.70    1.00
   0  -2   7   15.80    0.90
   0  -2   7   15.20    1.10
   0  -2   7   16.60    0.80
  -1   2  -7   98.99    3.20
  -1   2  -7  105.09    3.10
  -1   2  -7  101.29    2.90
   1  -2   7   98.49    3.20
   1  -2   7   98.99    3.20
   1  -2   7  101.59    2.80
  -2   2  -7  145.29    3.80
  -2   2  -7  147.79    4.10
  -2   2  -7  141.39    4.20
   2  -2   7  144.89    4.40
   2  -2   7  138.09    3.70
  -3   2  -7   18.50    1.20
  -3   2  -7   19.40    1.10
  -3   2  -7   17.40    0.80
   3  -2   7   19.60    0.90
   3  -2   7   19.00    1.60
   3  -2   7   18.60    0.80
  -4   2  -7   27.90    1.40
  -4   2  -7   27.60    1.10
  -4   2  -7   31.00    1.50
   4  -2   7   26.10    1.80
  -5   2  -7  263.87    6.30
  -5   2  -7  253.07    6.70
  -5   2  -7  259.07    7.10
   5  -2   7  244.68    7.70
  -6   2  -7   25.00    1.00
  -6   2  -7   24.30    1.60
  -6   2  -7   23.70    1.40
  -7   2  -7    3.80    0.90
  -7   2  -7    3.40    1.30
  -7   2  -7    4.50    0.60
  -7   2  -7    3.70    0.80
  -8   2  -7   25.20    1.10
  -8   2  -7   24.90    1.60
  -8   2  -7   27.30    2.10
  -8   2  -7   25.50    2.60
  -8  -1   7    3.50    1.50
  -8  -1   7    4.10    1.70
   7   1  -7   18.30    0.90
   7   1  -7   20.30    1.00
  -7  -1   7   18.10    1.40
  -7  -1   7   17.10    1.90
   6   1  -7   30.00    1.50
   6   1  -7   28.10    1.50
  -6  -1   7   29.10    1.60
  -6  -1   7   27.20    2.10
   5   1  -7    0.70    0.50
   5   1  -7    0.80    0.40
   5   1  -7    0.60    0.50
  -5  -1   7    0.80    0.60
  -5  -1   7    0.60    0.50
  -5  -1   7    0.60    0.70
   4   1  -7   13.80    1.20
   4   1  -7   14.20    1.10
   4   1  -7   16.30    1.00
  -4  -1   7   12.10    1.20
  -4  -1   7   14.50    1.00
  -4  -1   7   15.70    1.40
   3   1  -7   26.70    1.30
   3   1  -7   25.60    1.40
   3   1  -7   26.60    1.50
  -3  -1   7   24.90    1.20
  -3  -1   7   22.10    1.50
   2   1  -7    1.30    0.40
   2   1  -7    1.30    0.50
   2   1  -7    1.20    0.50
  -2  -1   7    1.40    0.40
  -2  -1   7    1.70    0.50
  -2  -1   7    1.40    0.60
   1   1  -7    0.10    0.40
   1   1  -7    0.00    0.30
  -1  -1   7    0.40    0.20
  -1  -1   7    0.30    0.30
  -1  -1   7    0.50    0.40
   0   1  -7  165.28    4.70
   0   1  -7  163.58    4.80
   0   1  -7  170.18    4.50
   0  -1   7  173.98    4.50
   0  -1   7  174.68    4.90
   0  -1   7  165.58    4.30
  -1   1  -7    1.80    0.40
  -1   1  -7    1.00    0.50
  -1   1  -7    1.10    0.30
   1  -1   7    1.30    0.30
   1  -1   7    1.20    0.40
   1  -1   7    2.00    0.40
  -2   1  -7  301.77    7.90
  -2   1  -7  306.37    7.50
  -2   1  -7  322.07    7.70
   2  -1   7  308.27    7.80
   2  -1   7  300.37    7.80
  -3   1  -7  481.45   12.10
  -3   1  -7  510.55   12.00
  -3   1  -7  487.85   11.60
   3  -1   7  513.85   11.50
   3  -1   7  490.45   12.40
   3  -1   7  498.95   11.60
  -4   1  -7    0.30    0.40
  -4   1  -7    0.30    0.30
  -4   1  -7    0.30    0.20
   4  -1   7    0.30    0.50
  -5   1  -7   69.09    2.30
  -5   1  -7   70.29    2.00
  -5   1  -7   74.49    2.60
   5  -1   7   64.99    3.00
  -6   1  -7    0.60    0.30
  -6   1  -7    0.50    0.50
  -6   1  -7    0.50    0.50
  -7   1  -7    2.30    1.30
  -7   1  -7    2.50    0.40
  -7   1  -7    1.80    0.60
  -7   1  -7    2.50    0.80
  -8   1  -7    4.60    1.40
  -8   1  -7    4.50    0.70
  -8   1  -7    4.30    1.00
  -8   1  -7    4.70    0.50
  -8   0   7    0.80    1.10
  -7   0   7    5.80    1.40
  -7   0   7    5.20    1.10
   6   0  -7    9.00    0.90
   6   0  -7    9.40    0.90
  -6   0   7   10.90    1.60
  -6   0   7    9.50    1.10
   5   0  -7    1.30    0.60
   5   0  -7    1.30    0.60
  -5   0   7    0.80    0.80
  -5   0   7    1.70    0.60
   4   0  -7   58.29    2.30
   4   0  -7   58.69    1.90
   4   0  -7   59.89    2.30
  -4   0   7   59.69    2.30
  -4   0   7   63.59    2.70
   3   0  -7   23.50    1.30
   3   0  -7   23.90    1.10
   3   0  -7   25.30    1.40
  -3   0   7   21.70    1.20
  -3   0   7   23.70    1.60
   2   0  -7   12.50    1.10
   2   0  -7   13.30    1.00
  -2   0   7   12.40    1.00
  -2   0   7   13.20    0.90
  -2   0   7   16.10    1.20
   1   0  -7  409.76    9.90
   1   0  -7  389.46   10.10
  -1   0   7  406.06   10.20
  -1   0   7  377.96    9.80
  -1   0   7  409.86    9.70
   0   0  -7   31.30    1.40
   0   0  -7   34.30    1.60
   0   0   7   31.80    1.60
   0   0   7   33.60    1.30
   0   0   7   34.10    1.30
  -1   0  -7  168.48    4.40
  -1   0  -7  166.98    4.50
  -1   0  -7  170.28    4.80
   1   0   7  170.08    4.30
   1   0   7  159.58    4.20
   1   0   7  164.88    4.70
  -2   0  -7   26.60    1.40
  -2   0  -7   27.50    1.10
  -2   0  -7   28.60    1.20
   2   0   7   30.00    1.30
   2   0   7   27.60    1.10
   2   0   7   28.00    0.90
  -3   0  -7  467.35   11.10
  -3   0  -7  476.35   11.50
  -3   0  -7  480.35   11.20
   3   0   7  456.85   11.40
   3   0   7  473.65   11.00
  -4   0  -7   52.89    2.00
  -4   0  -7   56.19    1.90
   4   0   7   52.99    2.20
  -5   0  -7    6.30    0.70
  -5   0  -7    6.00    0.50
  -5   0  -7    7.60    0.80
   5   0   7    6.80    1.00
  -6   0  -7   63.79    2.40
  -6   0  -7   62.59    2.10
  -6   0  -7   68.49    3.30
  -6   0  -7   64.99    1.80
  -7   0  -7   10.90    1.10
  -7   0  -7   10.70    0.60
  -7   0  -7   10.70    0.90
  -7   0  -7   11.30    1.60
  -8   0  -7    2.80    0.40
  -8   0  -7    3.20    0.60
  -8   0  -7    2.90    1.20
  -8   0  -7    2.70    0.80
  -9   0  -7    9.70    1.70
  -9   0  -7    6.40    1.20
  -7   1   7    1.30    1.00
  -7   1   7    1.00    1.20
   6  -1  -7   17.20    1.10
  -6   1   7   17.70    2.00
  -6   1   7   16.70    1.60
   5  -1  -7   50.69    2.00
   5  -1  -7   52.19    2.10
  -5   1   7   52.49    2.30
  -5   1   7   56.19    2.80
   4  -1  -7    2.70    0.60
   4  -1  -7    2.30    0.70
  -4   1   7    2.60    0.70
  -4   1   7    2.20    0.80
   3  -1  -7    0.10    0.30
   3  -1  -7   -0.20    0.40
   3  -1  -7    0.00    0.20
   3  -1  -7    0.10    0.50
  -3   1   7    0.20    0.60
   2  -1  -7   95.19    3.30
   2  -1  -7  101.39    3.20
  -2   1   7  104.89    3.60
  -2   1   7  102.69    3.20
   1  -1  -7   45.70    2.00
   1  -1  -7   44.40    1.80
  -1   1   7   47.30    2.10
  -1   1   7   44.10    1.70
   0  -1  -7   60.89    2.10
   0  -1  -7   57.29    2.30
   0   1   7   57.69    2.00
   0   1   7   60.79    2.00
   0   1   7   55.59    2.30
  -1  -1  -7   71.09    2.60
  -1  -1  -7   79.69    2.50
   1   1   7   76.79    2.30
   1   1   7   76.49    2.30
   1   1   7   76.69    2.60
  -2  -1  -7  285.27    7.50
  -2  -1  -7  297.57    7.30
  -2  -1  -7  295.97    7.20
   2   1   7  289.87    7.00
   2   1   7  287.77    7.90
   2   1   7  295.57    7.00
  -3  -1  -7    1.80    0.50
  -3  -1  -7    2.30    0.40
  -3  -1  -7    1.80    0.30
   3   1   7    2.30    0.20
   3   1   7    1.40    0.30
   3   1   7    1.90    0.40
  -4  -1  -7  160.58    5.30
  -4  -1  -7  157.78    4.40
  -4  -1  -7  160.18    4.10
   4   1   7  155.58    4.40
  -5  -1  -7   79.59    2.30
  -5  -1  -7   82.69    2.40
  -5  -1  -7   80.69    2.60
  -5  -1  -7   78.29    3.50
  -6  -1  -7   39.20    1.60
  -6  -1  -7   37.00    1.30
  -6  -1  -7   37.00    2.40
  -6  -1  -7   40.30    1.50
  -7  -1  -7   10.60    0.90
  -7  -1  -7   10.20    0.90
  -7  -1  -7   10.80    0.70
  -7  -1  -7   12.30    1.80
  -8  -1  -7   11.90    1.90
  -8  -1  -7    9.90    1.10
  -8  -1  -7    9.90    0.90
  -9  -1  -7   19.10    1.50
  -9  -1  -7   16.30    2.20
  -7   2   7   -0.40    1.40
  -7   2   7    0.50    1.20
   6  -2  -7    1.30    0.50
   6  -2  -7    2.00    0.60
  -6   2   7    1.30    1.10
  -6   2   7    1.70    1.00
   5  -2  -7    4.80    0.90
   5  -2  -7    3.40    0.70
  -5   2   7    4.20    1.00
  -5   2   7    3.20    1.30
   4  -2  -7    5.30    0.80
   4  -2  -7    4.80    0.90
  -4   2   7    5.50    0.90
  -4   2   7    4.50    1.10
   3  -2  -7   -0.10    0.60
   3  -2  -7    0.10    0.50
  -3   2   7    1.40    0.60
  -3   2   7    0.80    0.70
   2  -2  -7  292.57    7.30
   2  -2  -7  297.57    7.70
   2  -2  -7  286.17    7.80
  -2   2   7  282.37    7.60
  -2   2   7  296.17    8.00
   1  -2  -7    5.60    0.90
   1  -2  -7    5.40    0.70
   1  -2  -7    4.10    0.70
  -1   2   7    4.00    0.70
  -1   2   7    4.60    0.90
   0  -2  -7  401.26   10.10
   0  -2  -7  405.46   10.20
   0   2   7  394.26   10.20
   0   2   7  394.26    9.90
  -1  -2  -7  120.29    3.90
  -1  -2  -7  130.19    3.70
  -1  -2  -7  122.39    3.90
   1   2   7  123.79    3.80
   1   2   7  122.49    3.50
   1   2   7  116.59    3.40
  -2  -2  -7  275.87    7.60
  -2  -2  -7  272.57    7.30
  -2  -2  -7  271.77    7.00
   2   2   7  264.67    6.80
   2   2   7  285.17    6.60
   2   2   7  271.97    7.10
  -3  -2  -7    3.70    0.70
  -3  -2  -7    6.60    0.80
  -3  -2  -7    6.10    0.70
   3   2   7    5.70    0.40
   3   2   7    6.60    0.50
   3   2   7    5.80    0.60
  -4  -2  -7  206.18    6.40
  -4  -2  -7  205.68    5.30
  -4  -2  -7  204.78    5.50
   4   2   7  202.18    4.80
  -5  -2  -7  217.68    5.30
  -5  -2  -7  212.48    6.80
  -5  -2  -7  221.68    5.80
  -6  -2  -7    8.20    0.90
  -6  -2  -7    6.20    0.70
  -6  -2  -7    4.80    1.10
  -6  -2  -7    8.50    0.60
  -7  -2  -7    5.60    0.60
  -7  -2  -7    6.60    1.40
  -7  -2  -7    6.00    0.80
  -7  -2  -7    7.50    0.70
  -8  -2  -7   16.30    1.20
  -8  -2  -7   16.00    1.00
  -8  -2  -7   17.10    2.20
  -8  -2  -7   14.50    0.90
  -9  -2  -7    3.70    1.40
  -9  -2  -7    3.80    0.70
  -9  -2  -7    2.60    0.70
  -6   3   7    1.10    1.20
  -6   3   7    1.50    1.30
   5  -3  -7    1.40    0.80
   5  -3  -7    1.90    0.70
  -5   3   7    1.10    1.00
  -5   3   7    1.20    0.90
   4  -3  -7   30.20    1.90
   4  -3  -7   28.60    1.60
  -4   3   7   31.60    1.90
  -4   3   7   27.40    2.30
   3  -3  -7    3.40    0.70
   3  -3  -7    2.20    0.90
  -3   3   7    2.70    1.00
  -3   3   7    3.20    0.90
   2  -3  -7   85.79    3.20
   2  -3  -7   85.29    3.00
   2  -3  -7   84.69    2.50
  -2   3   7   83.09    3.00
  -2   3   7   88.99    3.40
   1  -3  -7  101.59    3.50
   1  -3  -7   92.89    3.20
   1  -3  -7   94.69    3.00
  -1   3   7   96.99    3.50
   0  -3  -7   73.39    2.70
   0  -3  -7   73.89    2.90
   0  -3  -7   76.59    2.70
   0   3   7   79.09    2.90
   0   3   7   74.89    2.70
  -1  -3  -7    0.20    0.30
  -1  -3  -7   -0.40    0.40
  -1  -3  -7   -0.40    0.30
   1   3   7    0.00    0.40
   1   3   7   -0.10    0.30
  -2  -3  -7   11.50    1.30
  -2  -3  -7   12.00    0.90
  -2  -3  -7   11.10    1.00
   2   3   7   10.30    0.90
   2   3   7    9.40    0.60
   2   3   7   10.20    0.80
  -3  -3  -7  252.47    6.60
  -3  -3  -7  248.18    6.80
  -3  -3  -7  256.27    7.40
   3   3   7  248.28    6.30
   3   3   7  256.07    6.50
  -4  -3  -7  275.47    7.20
  -4  -3  -7  262.87    7.80
  -4  -3  -7  269.57    6.90
   4   3   7  265.57    6.40
   4   3   7  266.37    6.50
  -5  -3  -7    4.70    0.80
  -5  -3  -7    7.10    0.90
  -5  -3  -7    5.50    0.70
  -6  -3  -7    5.10    0.80
  -6  -3  -7    6.50    1.30
  -6  -3  -7    5.60    0.70
  -7  -3  -7   51.79    2.90
  -7  -3  -7   50.09    1.90
  -7  -3  -7   50.79    2.10
  -8  -3  -7    0.30    0.50
  -8  -3  -7    0.60    0.80
  -8  -3  -7    0.90    0.70
  -9  -3  -7   17.90    1.50
  -9  -3  -7   16.20    1.10
  -9  -3  -7   20.10    2.40
 -10  -3  -7   24.50    1.70
 -10  -3  -7   21.10    2.50
  -6   4   7    3.40    1.50
  -6   4   7    2.80    1.50
   5  -4  -7   12.80    1.40
   5  -4  -7   11.10    1.10
  -5   4   7   18.50    2.00
  -5   4   7   14.40    2.00
   4  -4  -7    9.90    1.40
   4  -4  -7    7.60    1.00
  -4   4   7    6.50    1.40
  -4   4   7    7.10    1.40
   3  -4  -7    2.40    1.00
   3  -4  -7    2.90    0.80
  -3   4   7    2.40    0.90
   2  -4  -7   53.29    2.60
   2  -4  -7   54.29    1.80
   2  -4  -7   52.49    2.30
  -2   4   7   53.49    2.50
  -2   4   7   52.19    2.70
   1  -4  -7   87.09    3.10
   1  -4  -7   85.29    3.10
   1  -4  -7   84.69    3.40
  -1   4   7   86.09    3.40
  -1   4   7   89.39    3.20
   0  -4  -7   35.40    1.80
   0  -4  -7   34.60    2.10
   0  -4  -7   34.90    1.70
   0   4   7   33.60    1.80
   0   4   7   33.70    1.90
  -1  -4  -7    0.20    0.60
  -1  -4  -7    0.50    0.40
  -1  -4  -7    0.50    0.40
   1   4   7    0.60    0.50
   1   4   7   -0.40    0.50
   1   4   7    1.90    0.70
  -2  -4  -7   12.90    1.40
  -2  -4  -7   11.20    1.30
  -2  -4  -7   11.80    1.00
   2   4   7   12.50    1.50
   2   4   7   11.70    1.00
   2   4   7   13.20    1.10
  -3  -4  -7  100.89    3.30
  -3  -4  -7   98.09    3.80
  -3  -4  -7  104.29    3.60
   3   4   7   98.59    3.90
   3   4   7  105.69    3.20
   3   4   7  103.19    3.20
  -4  -4  -7   75.59    2.70
  -4  -4  -7   76.79    3.20
  -4  -4  -7   67.39    2.70
   4   4   7   73.59    2.30
   4   4   7   73.19    2.30
  -5  -4  -7   69.19    2.50
  -5  -4  -7   70.39    2.70
  -5  -4  -7   70.79    3.20
   5   4   7   67.89    1.90
  -6  -4  -7   71.69    3.40
  -6  -4  -7   72.29    2.50
  -6  -4  -7   70.89    2.70
  -7  -4  -7  195.78    7.70
  -7  -4  -7  181.78    5.30
  -7  -4  -7  176.48    5.10
  -8  -4  -7    1.40    0.80
  -8  -4  -7    0.90    0.90
  -8  -4  -7    1.00    0.60
  -9  -4  -7    2.50    1.00
  -9  -4  -7    0.30    1.00
  -9  -4  -7    1.70    0.60
 -10  -4  -7    6.80    1.70
 -10  -4  -7    5.10    0.80
   5  -5  -7   20.70    1.40
   5  -5  -7   22.30    2.00
  -5   5   7   19.90    2.40
   4  -5  -7    1.50    1.20
   4  -5  -7    1.00    0.80
  -4   5   7    2.10    1.30
  -4   5   7    0.40    1.20
  -4   5   7   -0.10    1.10
   3  -5  -7   -0.20    0.60
   3  -5  -7   -1.00    1.00
  -3   5   7    1.00    1.00
  -3   5   7    0.10    0.80
  -3   5   7    0.20    0.90
   2  -5  -7   46.40    1.80
   2  -5  -7   48.40    2.60
   2  -5  -7   53.69    2.30
  -2   5   7   44.00    2.80
  -2   5   7   47.70    2.50
  -2   5   7   49.30    2.70
   1  -5  -7   30.30    1.50
   1  -5  -7   32.30    2.10
   1  -5  -7   34.70    1.80
  -1   5   7   30.90    2.00
  -1   5   7   32.40    1.90
   0  -5  -7   26.50    1.70
   0  -5  -7   24.30    1.90
   0  -5  -7   27.30    1.50
   0   5   7   26.00    1.70
   0   5   7   30.50    1.80
   0   5   7   28.30    1.80
  -1  -5  -7   78.19    2.90
  -1  -5  -7   73.29    3.10
  -1  -5  -7   76.69    3.00
   1   5   7   73.69    3.10
   1   5   7   81.29    3.10
   1   5   7   71.09    2.90
   1   5   7   75.29    2.90
  -2  -5  -7   18.80    1.40
  -2  -5  -7   17.00    1.50
  -2  -5  -7   20.90    1.40
   2   5   7   17.90    1.50
   2   5   7   17.00    1.30
   2   5   7   16.60    1.30
   2   5   7   17.80    1.20
  -3  -5  -7    6.10    1.10
  -3  -5  -7    5.60    0.90
  -3  -5  -7    4.90    1.00
   3   5   7    3.90    0.70
   3   5   7    5.90    0.60
   3   5   7    4.10    0.80
   3   5   7    4.80    1.00
  -4  -5  -7   70.89    3.50
  -4  -5  -7   75.49    3.30
  -4  -5  -7   74.99    2.80
   4   5   7   74.89    2.50
   4   5   7   73.99    3.40
   4   5   7   68.99    2.50
  -5  -5  -7   26.80    1.90
  -5  -5  -7   24.80    1.50
   5   5   7   24.10    2.00
   5   5   7   24.60    1.20
   5   5   7   25.40    1.10
  -6  -5  -7   31.10    2.20
  -6  -5  -7   33.80    2.10
  -6  -5  -7   32.00    1.70
   6   5   7   30.60    1.00
   6   5   7   30.70    0.90
   6   5   7   29.10    2.30
  -7  -5  -7   25.20    2.10
  -7  -5  -7   25.40    1.90
  -7  -5  -7   22.10    1.50
  -8  -5  -7    3.20    1.10
  -8  -5  -7    2.90    1.20
  -8  -5  -7    2.40    0.70
  -9  -5  -7    4.00    1.30
  -9  -5  -7    4.10    0.80
 -10  -5  -7   -0.50    1.40
 -10  -5  -7   -0.10    1.20
 -10  -5  -7    1.10    0.80
   4  -6  -7   -0.90    0.80
   4  -6  -7    1.00    1.50
  -4   6   7   -0.80    1.40
  -4   6   7    0.30    1.50
   3  -6  -7    0.00    1.40
   3  -6  -7    0.60    0.80
  -3   6   7   -1.20    1.10
  -3   6   7    0.20    1.40
  -3   6   7   -0.70    0.90
   2  -6  -7    0.80    1.20
   2  -6  -7    0.50    0.50
  -2   6   7   -0.70    0.70
  -2   6   7   -0.30    0.90
   1  -6  -7   25.20    1.50
   1  -6  -7   25.00    2.30
   1  -6  -7   27.50    2.20
  -1   6   7   28.30    2.10
  -1   6   7   25.30    1.80
  -1   6   7   26.60    2.00
   0  -6  -7   15.00    1.80
   0  -6  -7   14.40    1.50
   0  -6  -7   15.20    1.30
   0   6   7   15.80    1.60
   0   6   7   13.90    1.60
   0   6   7   17.60    1.60
  -1  -6  -7   52.89    2.50
  -1  -6  -7   55.39    2.50
  -1  -6  -7   45.50    2.60
   1   6   7   51.89    2.50
   1   6   7   55.09    2.60
   1   6   7   49.80    2.40
   1   6   7   54.09    3.10
  -2  -6  -7  243.98    6.80
  -2  -6  -7  249.08    7.10
  -2  -6  -7  208.48    7.00
   2   6   7  231.68    6.80
   2   6   7  240.68    6.80
   2   6   7  247.48    7.40
   2   6   7  236.28    6.60
  -3  -6  -7    3.80    0.90
  -3  -6  -7    3.90    0.80
  -3  -6  -7    4.00    1.00
   3   6   7    4.10    0.90
   3   6   7    4.40    1.10
   3   6   7    5.30    0.90
   3   6   7    3.00    0.90
  -4  -6  -7    3.70    0.80
  -4  -6  -7    4.40    1.10
  -4  -6  -7    4.10    0.90
   4   6   7    4.50    0.80
   4   6   7    4.50    0.80
   4   6   7    6.70    1.30
  -5  -6  -7   13.30    1.20
  -5  -6  -7   13.50    1.70
  -5  -6  -7   10.30    1.40
   5   6   7   12.00    1.10
   5   6   7   10.50    0.90
  -6  -6  -7   11.50    1.30
  -6  -6  -7   12.50    1.60
  -6  -6  -7    9.80    1.40
   6   6   7    9.60    0.90
   6   6   7   10.40    0.70
  -7  -6  -7   65.89    3.00
  -7  -6  -7   61.19    3.30
  -7  -6  -7   60.69    2.60
   7   6   7   58.09    3.70
  -8  -6  -7   91.89    4.30
  -8  -6  -7   93.09    3.70
  -8  -6  -7   86.99    3.30
  -9  -6  -7   10.60    1.30
  -9  -6  -7    8.70    1.60
  -9  -6  -7   13.20    1.70
 -10  -6  -7    3.00    1.30
 -10  -6  -7    3.30    1.50
 -10  -6  -7    3.30    1.40
   3  -7  -7   21.10    1.90
  -3   7   7   24.80    3.80
   2  -7  -7   -0.20    0.90
  -2   7   7   -0.60    1.10
  -2   7   7    0.00    1.10
   1  -7  -7    4.50    1.10
   1  -7  -7    5.50    0.90
  -1   7   7    7.10    1.60
  -1   7   7    6.70    1.30
  -1   7   7    4.40    1.40
  -1   7   7    4.90    1.20
   0  -7  -7   35.50    2.10
   0  -7  -7   31.30    1.90
   0   7   7   33.70    2.30
   0   7   7   37.40    2.40
  -1  -7  -7   -0.20    0.70
  -1  -7  -7    0.00    0.50
   1   7   7    0.00    0.70
   1   7   7    0.20    0.60
   1   7   7   -0.40    0.90
  -2  -7  -7    0.00    0.60
  -2  -7  -7   -0.20    0.60
   2   7   7    0.00    0.80
   2   7   7   -0.20    0.80
   2   7   7    0.30    0.50
   2   7   7    1.10    0.70
  -3  -7  -7    2.10    0.80
  -3  -7  -7    3.30    0.90
   3   7   7    4.10    1.10
   3   7   7    4.20    1.00
   3   7   7    3.00    1.00
   3   7   7    3.40    0.70
  -4  -7  -7   -0.20    0.90
  -4  -7  -7    0.20    0.60
  -4  -7  -7   -0.50    0.60
   4   7   7    1.10    0.60
   4   7   7    1.30    1.00
   4   7   7    1.40    0.80
  -5  -7  -7   -1.10    0.90
  -5  -7  -7    0.50    0.70
  -5  -7  -7    0.40    0.70
   5   7   7    0.10    0.90
   5   7   7    0.60    0.50
   5   7   7    1.60    0.80
  -6  -7  -7    6.50    1.10
  -6  -7  -7    6.00    1.30
  -6  -7  -7    4.20    1.10
   6   7   7    5.90    0.70
  -7  -7  -7    3.90    0.90
  -7  -7  -7    5.00    1.30
  -7  -7  -7    5.40    1.30
   7   7   7    4.10    0.70
   7   7   7    3.00    1.60
   7   7   7    2.60    0.40
  -8  -7  -7   60.49    2.70
  -8  -7  -7   60.29    3.60
  -8  -7  -7   58.79    3.20
   8   7   7   44.70    4.30
  -9  -7  -7    4.50    1.60
  -9  -7  -7    5.40    1.10
  -9  -7  -7    3.70    1.60
   2  -8  -7    4.40    2.30
   2  -8  -7    1.10    1.20
  -2   8   7    0.20    1.40
  -2   8   7    0.10    1.30
  -2   8   7   -0.90    1.30
   1  -8  -7   -0.10    1.00
   1  -8  -7   -0.30    0.90
   1  -8  -7   -2.00    1.90
  -1   8   7    0.10    1.20
  -1   8   7   -0.10    1.30
  -1   8   7   -0.20    1.10
   0  -8  -7    1.10    0.90
   0  -8  -7    2.50    1.70
   0  -8  -7    2.40    0.90
   0   8   7    1.30    1.30
   0   8   7    1.60    1.10
   0   8   7    1.30    1.00
  -1  -8  -7   19.70    1.80
  -1  -8  -7   17.40    1.80
  -1  -8  -7   20.40    2.40
   1   8   7   23.60    2.40
   1   8   7   20.50    2.50
   1   8   7   18.70    2.20
   1   8   7   19.80    1.80
  -2  -8  -7    0.90    1.30
  -2  -8  -7    0.10    0.70
  -2  -8  -7    1.80    0.90
   2   8   7    1.40    0.80
   2   8   7    1.40    0.70
   2   8   7    1.50    1.20
   2   8   7    1.20    1.20
  -3  -8  -7    1.20    0.90
  -3  -8  -7    0.20    0.80
   3   8   7    0.90    0.80
   3   8   7   -0.40    1.20
   3   8   7    1.70    1.20
   3   8   7    0.60    0.60
  -4  -8  -7   30.20    2.10
  -4  -8  -7   28.90    2.30
  -4  -8  -7   22.70    2.90
   4   8   7   31.10    1.30
   4   8   7   34.00    1.90
   4   8   7   33.10    2.90
  -5  -8  -7   -0.80    0.70
  -5  -8  -7    1.00    0.90
   5   8   7    0.10    0.60
   5   8   7   -0.60    0.90
   5   8   7    0.10    1.20
  -6  -8  -7    9.40    1.40
  -6  -8  -7    7.30    1.40
  -6  -8  -7    7.80    2.80
   6   8   7   10.50    1.40
   6   8   7    8.20    1.80
  -7  -8  -7    6.60    1.50
  -7  -8  -7    6.80    1.30
  -7  -8  -7    5.50    1.70
   7   8   7    7.00    0.70
   7   8   7    6.70    1.10
  -8  -8  -7    2.10    1.60
  -8  -8  -7    2.20    1.30
  -8  -8  -7    1.00    0.90
   8   8   7    2.50    0.60
  -9  -8  -7   -1.50    1.90
  -9  -8  -7   -0.30    1.20
  -9  -8  -7    1.40    1.10
   0  -9  -7    0.20    1.20
   0  -9  -7    1.70    1.10
   0   9   7    2.10    1.90
   0   9   7    1.00    1.10
   0   9   7    0.50    1.20
  -1  -9  -7   -0.10    0.90
  -1  -9  -7   -0.90    1.00
   1   9   7    0.20    1.00
   1   9   7    1.00    1.70
  -2  -9  -7    1.90    1.00
  -2  -9  -7    3.20    1.20
   2   9   7    1.70    0.90
   2   9   7    2.30    1.10
  -3  -9  -7    3.40    1.20
  -3  -9  -7    3.60    1.10
   3   9   7    4.70    1.10
   3   9   7    4.10    0.90
   3   9   7    1.40    1.50
  -4  -9  -7    3.00    1.10
  -4  -9  -7    2.30    1.20
   4   9   7    2.90    0.70
   4   9   7    3.50    1.60
   4   9   7    1.90    1.60
   4   9   7    3.40    1.00
  -5  -9  -7    0.00    0.90
  -5  -9  -7    1.10    1.00
   5   9   7    0.80    0.70
   5   9   7    1.90    1.40
   5   9   7    2.20    2.30
  -6  -9  -7    2.30    1.00
  -6  -9  -7    2.00    1.10
   6   9   7    2.70    0.80
  -7  -9  -7    1.00    1.20
  -7  -9  -7    2.70    1.10
   7   9   7    1.60    1.20
  -8  -9  -7    0.90    1.30
  -8  -9  -7    2.40    1.20
   8   9   7    0.40    1.10
   8   9   7    1.30    0.60
  -3 -10  -7    0.20    1.20
  -3 -10  -7   -0.70    1.20
   3  10   7    0.20    1.00
   3  10   7   -0.40    0.70
  -4 -10  -7    7.40    1.60
  -4 -10  -7    7.80    1.60
   4  10   7    8.20    1.50
   4  10   7    6.80    0.90
  -5 -10  -7    0.00    1.20
   5  10   7    0.60    0.90
  -6 -10  -7    4.00    1.50
  -6 -10  -7    3.10    1.40
   6  10   7    3.90    1.00
   5   8  -8    0.30    1.00
   5   8  -8    0.50    0.90
  -5  -8   8    1.30    1.40
   4   8  -8    2.50    1.20
   4   8  -8    1.30    0.90
   3   8  -8    3.30    1.10
   3   8  -8    2.50    0.90
  -3  -8   8    2.80    1.40
   2   8  -8    1.00    0.70
  -2  -8   8    1.50    1.30
   1   8  -8    0.90    1.00
  -1  -8   8    2.50    1.40
   0   8  -8    5.70    1.20
   0   8  -8    6.30    1.10
   0  -8   8    4.00    1.60
   7   7  -8   -0.60    1.00
  -7  -7   8   -0.10    1.60
   6   7  -8    2.00    1.00
   5   7  -8    0.30    0.80
  -5  -7   8    0.50    1.10
  -5  -7   8    0.70    1.20
   4   7  -8    4.20    0.90
   4   7  -8    2.90    0.90
  -4  -7   8    7.70    1.70
  -4  -7   8    5.10    1.10
   3   7  -8   11.60    1.30
   3   7  -8    8.40    1.20
  -3  -7   8   12.40    1.80
  -3  -7   8   12.90    1.70
  -3  -7   8   10.90    2.20
   2   7  -8    4.80    1.00
   2   7  -8    7.30    1.00
  -2  -7   8    3.40    1.20
  -2  -7   8    5.20    1.20
  -2  -7   8    7.40    1.60
   1   7  -8    1.60    0.60
   1   7  -8    2.20    0.90
   1   7  -8    2.20    1.40
  -1  -7   8    2.90    1.60
  -1  -7   8    0.50    1.00
  -1  -7   8    1.20    1.10
   0   7  -8   32.70    2.00
   0   7  -8   36.10    1.80
   0  -7   8   33.50    2.50
   0  -7   8   32.60    2.50
  -1   7  -8   -0.20    0.60
  -1   7  -8    0.60    0.60
   1  -7   8    0.20    1.10
  -2   7  -8    9.10    1.20
  -2   7  -8   11.70    1.50
   2  -7   8   10.00    1.60
   2  -7   8   12.30    1.80
   7   6  -8    1.10    0.90
   7   6  -8    2.90    1.70
   7   6  -8    2.70    1.60
  -7  -6   8    1.10    1.50
   6   6  -8    0.30    0.80
   6   6  -8    0.00    1.20
  -6  -6   8    0.40    1.20
  -6  -6   8    0.00    0.70
   5   6  -8   12.10    1.40
  -5  -6   8   12.80    1.80
  -5  -6   8   14.80    1.50
  -5  -6   8   15.00    1.50
   4   6  -8   14.60    2.00
   4   6  -8   12.10    1.30
   4   6  -8    9.20    1.20
  -4  -6   8   12.20    2.00
  -4  -6   8   12.10    1.80
   3   6  -8    4.50    1.20
   3   6  -8    2.70    0.70
   3   6  -8    5.10    1.10
   3   6  -8    2.30    0.90
  -3  -6   8    2.70    1.10
  -3  -6   8    4.00    0.90
   2   6  -8    2.60    0.60
   2   6  -8    1.60    0.70
  -2  -6   8    2.30    1.00
  -2  -6   8    2.30    0.80
   1   6  -8   42.30    2.20
   1   6  -8   46.50    2.70
   1   6  -8   41.70    1.90
  -1  -6   8   44.90    2.60
   0   6  -8    7.30    1.10
   0   6  -8    6.50    1.50
   0   6  -8    5.40    0.80
   0  -6   8    4.80    1.10
  -1   6  -8    6.50    1.50
  -1   6  -8    6.80    1.00
  -1   6  -8    6.10    0.90
   1  -6   8    4.40    1.40
   1  -6   8    5.60    1.20
   1  -6   8    5.90    1.20
  -2   6  -8   13.60    1.70
  -2   6  -8   10.70    1.80
  -2   6  -8   11.40    1.40
  -2   6  -8   11.60    1.10
   2  -6   8   12.90    1.50
   2  -6   8   10.30    1.40
  -3   6  -8   -0.30    0.50
  -3   6  -8   -0.10    0.70
  -3   6  -8    1.00    1.30
  -3   6  -8   -0.30    1.70
   3  -6   8    0.80    0.90
   3  -6   8    1.20    0.90
  -4   6  -8    5.60    0.90
  -4   6  -8    4.40    1.00
   8   5  -8    3.20    1.20
   8   5  -8    0.80    1.00
  -8  -5   8    0.70    1.60
   7   5  -8   -0.10    1.10
  -7  -5   8    1.60    1.30
  -7  -5   8    0.40    1.20
   6   5  -8    0.50    1.10
   6   5  -8    6.00    1.10
   6   5  -8    0.20    1.00
  -6  -5   8    6.10    0.90
  -6  -5   8    4.80    1.40
  -6  -5   8    3.90    0.90
   5   5  -8    7.70    1.10
   5   5  -8    5.60    1.10
  -5  -5   8    9.70    1.60
  -5  -5   8    8.30    1.10
   4   5  -8    0.30    0.70
   4   5  -8    0.30    0.50
   4   5  -8   -0.20    0.70
  -4  -5   8    0.60    0.80
  -4  -5   8   -0.40    0.40
   3   5  -8  119.59    4.20
   3   5  -8  114.19    4.40
   3   5  -8  115.69    3.70
  -3  -5   8  120.29    4.50
  -3  -5   8  123.49    4.00
   2   5  -8  112.79    3.50
   2   5  -8  107.69    3.90
   2   5  -8  108.19    4.20
   1   5  -8    6.40    0.80
   1   5  -8    9.10    1.00
  -1  -5   8    9.60    1.00
  -1  -5   8   12.20    1.60
   0   5  -8    0.00    0.80
   0   5  -8    0.20    0.70
   0   5  -8    0.10    0.40
   0   5  -8    0.30    0.50
   0  -5   8   -0.60    0.50
   0  -5   8    0.00    0.70
  -1   5  -8    9.70    1.50
  -1   5  -8    9.60    1.40
  -1   5  -8    6.40    0.90
  -1   5  -8    8.60    0.80
   1  -5   8    8.00    1.10
   1  -5   8    9.20    1.30
  -2   5  -8    3.30    0.90
  -2   5  -8    7.70    1.10
  -2   5  -8    5.90    1.30
  -2   5  -8    5.00    0.70
   2  -5   8    3.70    1.40
   2  -5   8    5.40    1.00
  -3   5  -8   17.90    1.80
  -3   5  -8   16.10    1.10
  -3   5  -8   16.20    1.40
   3  -5   8   17.00    1.40
   3  -5   8   20.90    2.50
   3  -5   8   14.00    1.30
  -4   5  -8   -0.40    0.60
  -4   5  -8    0.20    1.20
  -4   5  -8   -0.90    1.00
  -4   5  -8    0.00    0.50
  -5   5  -8   -0.40    0.60
  -5   5  -8    0.10    0.70
  -5   5  -8   -1.30    2.00
   8   4  -8    0.10    1.20
   8   4  -8    0.00    0.90
  -8  -4   8    0.30    1.40
   7   4  -8   22.60    2.30
   7   4  -8   23.30    1.90
   7   4  -8   22.30    1.70
  -7  -4   8   23.90    1.90
  -7  -4   8   20.10    1.40
  -7  -4   8   18.80    2.20
   6   4  -8    6.80    1.10
   6   4  -8    5.20    1.10
   6   4  -8    2.70    0.80
  -6  -4   8    3.50    1.30
  -6  -4   8    8.00    1.80
   5   4  -8    8.10    1.30
   5   4  -8    5.40    0.90
   5   4  -8    6.90    1.10
  -5  -4   8    6.20    0.80
  -5  -4   8    6.60    1.00
  -5  -4   8    6.90    1.30
   4   4  -8   81.79    3.10
   4   4  -8   76.79    3.20
   4   4  -8   79.59    2.90
  -4  -4   8   75.59    2.90
  -4  -4   8   81.79    3.70
   3   4  -8   97.59    3.70
   3   4  -8  103.59    3.90
   3   4  -8  109.89    3.70
   3   4  -8   99.59    3.40
  -3  -4   8  108.79    4.10
  -3  -4   8  106.09    3.50
   2   4  -8    4.10    0.70
   2   4  -8    2.60    0.80
   2   4  -8    2.60    0.70
   2   4  -8    3.00    0.80
  -2  -4   8    3.60    0.60
  -2  -4   8    1.70    0.80
  -2  -4   8    2.50    0.60
   1   4  -8    0.40    0.50
   1   4  -8    0.10    0.50
   1   4  -8    0.10    0.60
   1   4  -8   -0.10    0.40
  -1  -4   8    0.00    0.30
  -1  -4   8    0.20    0.60
   0   4  -8   21.60    1.70
   0   4  -8   22.70    1.60
   0   4  -8   23.80    1.40
   0   4  -8   23.70    1.20
   0  -4   8   20.80    1.20
   0  -4   8   21.60    1.50
   0  -4   8   26.30    1.70
  -1   4  -8   44.60    2.10
  -1   4  -8   44.50    1.70
  -1   4  -8   43.30    2.40
  -1   4  -8   47.70    2.00
   1  -4   8   45.80    2.20
   1  -4   8   44.30    2.30
  -2   4  -8   71.49    2.80
  -2   4  -8   70.39    3.00
  -2   4  -8   68.99    3.30
  -2   4  -8   74.49    2.40
   2  -4   8   71.39    2.70
   2  -4   8   71.59    3.30
   2  -4   8   71.69    2.50
  -3   4  -8    0.30    0.40
  -3   4  -8    0.00    0.50
  -3   4  -8   -0.10    0.70
  -3   4  -8    0.20    0.90
   3  -4   8   -0.20    0.50
  -4   4  -8  115.99    4.70
  -4   4  -8  114.39    3.40
  -4   4  -8  115.69    4.00
  -4   4  -8  114.89    3.90
   4  -4   8  111.09    5.30
  -5   4  -8    2.60    0.90
  -5   4  -8    3.80    1.60
  -5   4  -8    3.70    1.10
  -6   4  -8   -0.90    1.10
  -6   4  -8   -0.20    0.50
  -6   4  -8   -0.10    0.80
  -6   4  -8   -0.20    1.50
   8   3  -8    0.20    1.10
   8   3  -8    0.40    0.70
   8   3  -8    0.00    0.70
  -8  -3   8   -0.70    1.40
   7   3  -8    1.30    0.80
   7   3  -8    0.30    0.80
   7   3  -8    0.90    0.90
  -7  -3   8    1.90    0.80
  -7  -3   8    1.40    0.90
  -7  -3   8    0.50    1.10
   6   3  -8   20.90    1.60
   6   3  -8   22.20    2.60
   6   3  -8   19.90    1.50
  -6  -3   8   20.70    1.60
  -6  -3   8   22.90    2.00
  -6  -3   8   21.60    1.30
   5   3  -8   -0.20    0.60
   5   3  -8    0.50    0.60
  -5  -3   8   -0.50    0.80
  -5  -3   8    0.20    0.50
  -5  -3   8   -0.30    0.40
   4   3  -8  138.89    4.40
   4   3  -8  148.59    4.60
  -4  -3   8  145.19    4.50
  -4  -3   8  145.69    5.00
  -4  -3   8  139.39    4.00
   3   3  -8   38.20    2.00
   3   3  -8   36.30    2.20
   3   3  -8   41.00    1.90
  -3  -3   8   40.10    1.60
  -3  -3   8   42.40    1.90
  -3  -3   8   40.40    2.30
   2   3  -8   24.60    1.60
   2   3  -8   26.70    1.40
   2   3  -8   24.00    1.60
  -2  -3   8   24.20    1.20
  -2  -3   8   25.70    1.40
  -2  -3   8   28.50    1.80
   1   3  -8    5.00    0.90
   1   3  -8    5.20    0.90
   1   3  -8    4.90    0.70
  -1  -3   8    5.10    1.00
  -1  -3   8    5.70    0.70
  -1  -3   8    6.50    0.70
   0   3  -8   69.89    2.60
   0   3  -8   68.79    2.30
   0   3  -8   67.39    2.70
   0  -3   8   68.49    2.80
   0  -3   8   71.99    2.20
   0  -3   8   66.69    2.50
  -1   3  -8  123.79    3.70
  -1   3  -8  121.59    3.90
  -1   3  -8  120.29    3.40
   1  -3   8  116.39    3.40
   1  -3   8  117.99    3.90
   1  -3   8  119.29    3.90
  -2   3  -8    9.40    0.70
  -2   3  -8   10.10    1.30
  -2   3  -8    8.80    0.90
   2  -3   8    9.30    1.00
   2  -3   8   10.60    1.40
   2  -3   8    7.40    0.80
  -3   3  -8    0.80    0.50
  -3   3  -8    0.90    0.40
  -3   3  -8    0.30    0.60
   3  -3   8    0.60    0.40
   3  -3   8    0.80    0.50
   3  -3   8    0.70    0.60
  -4   3  -8   54.19    2.30
  -4   3  -8   51.89    2.30
  -4   3  -8   53.99    1.80
   4  -3   8   51.79    2.90
  -5   3  -8   41.00    1.60
  -5   3  -8   41.90    2.10
  -5   3  -8   39.50    2.00
  -6   3  -8    0.40    0.60
  -6   3  -8    0.10    0.40
  -6   3  -8   -0.10    0.80
  -7   3  -8    1.20    0.60
  -7   3  -8    0.20    0.80
  -7   3  -8    1.20    1.00
  -8  -2   8   11.10    2.00
   7   2  -8    0.60    0.70
   7   2  -8    1.10    0.70
   7   2  -8    0.80    0.70
  -7  -2   8    1.10    1.10
  -7  -2   8    1.30    1.40
   6   2  -8    2.80    0.80
   6   2  -8    2.50    0.70
   6   2  -8    3.90    0.90
  -6  -2   8    4.00    0.80
  -6  -2   8    2.90    0.90
  -6  -2   8    2.40    1.00
   5   2  -8   93.59    3.20
   5   2  -8   81.79    3.10
   5   2  -8   88.79    3.10
  -5  -2   8   84.69    3.30
  -5  -2   8   90.69    4.00
  -5  -2   8   86.09    2.90
   4   2  -8   75.29    2.80
   4   2  -8   69.39    2.80
   4   2  -8   70.29    2.70
  -4  -2   8   73.39    3.20
  -4  -2   8   68.09    2.40
  -4  -2   8   72.69    2.80
   3   2  -8  448.36   11.60
   3   2  -8  439.16   11.50
   3   2  -8  457.55   11.40
  -3  -2   8  452.85   11.00
  -3  -2   8  474.75   11.50
  -3  -2   8  465.85   12.00
   2   2  -8  107.59    3.90
   2   2  -8  113.39    3.50
   2   2  -8  112.39    3.80
  -2  -2   8  111.59    3.20
  -2  -2   8  116.29    4.00
  -2  -2   8  112.69    3.50
   1   2  -8  125.09    4.10
   1   2  -8  136.89    4.90
   1   2  -8  131.39    3.80
  -1  -2   8  133.29    3.90
  -1  -2   8  129.49    3.60
  -1  -2   8  130.59    4.30
   0   2  -8   22.20    1.30
   0   2  -8   24.70    1.50
   0   2  -8   22.30    1.10
   0  -2   8   25.30    1.20
   0  -2   8   22.90    1.00
   0  -2   8   22.80    1.50
  -1   2  -8   25.20    1.50
  -1   2  -8   26.70    1.30
  -1   2  -8   27.20    1.20
   1  -2   8   25.60    1.40
   1  -2   8   25.50    1.10
   1  -2   8   25.30    1.50
  -2   2  -8    1.00    0.40
  -2   2  -8    1.00    0.40
  -2   2  -8    0.90    0.60
   2  -2   8    0.80    0.50
   2  -2   8    1.30    0.60
   2  -2   8    1.00    0.30
  -3   2  -8   38.40    1.80
  -3   2  -8   35.50    1.40
  -3   2  -8   39.10    1.70
   3  -2   8   38.40    1.50
   3  -2   8   42.80    2.10
   3  -2   8   36.00    1.30
  -4   2  -8   19.30    1.30
  -4   2  -8   18.20    1.20
  -4   2  -8   17.90    0.90
   4  -2   8   17.30    1.60
  -5   2  -8   14.80    1.20
  -5   2  -8   14.90    1.20
  -5   2  -8   15.60    0.90
   5  -2   8   14.30    1.70
  -6   2  -8   49.60    1.70
  -6   2  -8   48.40    2.10
  -6   2  -8   51.49    2.30
  -7   2  -8    7.10    1.10
  -7   2  -8    7.90    1.30
  -7   2  -8    6.90    0.70
  -8  -1   8   -0.10    1.40
   7   1  -8    0.20    0.60
   7   1  -8    0.40    0.60
  -7  -1   8   -0.60    1.20
   6   1  -8    2.30    0.80
   6   1  -8    3.30    0.80
  -6  -1   8    2.20    0.70
  -6  -1   8    1.30    0.90
   5   1  -8    0.50    0.40
   5   1  -8   -0.10    0.50
  -5  -1   8    2.10    0.60
  -5  -1   8   -0.20    0.60
  -5  -1   8    1.00    0.80
   4   1  -8   68.79    2.40
   4   1  -8   68.39    2.60
   4   1  -8   71.59    2.90
  -4  -1   8   69.19    3.00
  -4  -1   8   65.29    2.40
  -4  -1   8   55.59    2.60
   3   1  -8   86.99    3.00
   3   1  -8   87.29    3.10
  -3  -1   8   89.69    3.40
  -3  -1   8   90.09    2.80
   2   1  -8   59.49    2.20
   2   1  -8   57.89    2.40
  -2  -1   8   50.29    2.40
   1   1  -8   71.19    2.40
   1   1  -8   69.09    2.70
  -1  -1   8   74.19    2.40
  -1  -1   8   66.99    2.70
  -1  -1   8   68.99    2.20
   0   1  -8    6.90    0.80
   0   1  -8    7.30    0.80
   0   1  -8    9.70    1.10
   0  -1   8    8.50    0.60
   0  -1   8    8.10    0.70
   0  -1   8    7.30    0.90
  -1   1  -8  159.48    4.50
  -1   1  -8  161.38    4.70
  -1   1  -8  158.08    4.30
   1  -1   8  158.88    4.10
   1  -1   8  161.68    4.70
   1  -1   8  156.88    4.40
  -2   1  -8  346.47    9.00
  -2   1  -8  358.76    8.70
  -2   1  -8  350.86    8.60
   2  -1   8  343.97    8.90
   2  -1   8  353.16    8.90
   2  -1   8  350.06    8.30
  -3   1  -8    2.70    0.60
  -3   1  -8    2.30    0.40
  -3   1  -8    2.50    0.40
   3  -1   8    3.50    0.50
   3  -1   8    2.90    0.40
   3  -1   8    2.60    0.60
  -4   1  -8    5.30    0.60
  -4   1  -8    4.70    0.60
  -4   1  -8    5.90    0.80
   4  -1   8    3.70    0.80
  -5   1  -8   75.29    2.70
  -5   1  -8   78.79    2.70
  -5   1  -8   80.59    2.30
   5  -1   8   73.79    3.20
  -6   1  -8    8.40    0.60
  -6   1  -8    9.50    1.10
  -6   1  -8    9.50    1.00
  -7   1  -8    1.80    0.70
  -7   1  -8    1.10    1.10
  -7   1  -8    2.30    0.50
  -7   1  -8    1.40    0.70
  -8   1  -8    4.30    0.80
  -8   1  -8    4.00    1.00
  -8   1  -8    4.00    0.60
  -8   1  -8    3.40    1.40
   7   0  -8    3.10    0.60
  -7   0   8    1.90    1.10
  -7   0   8    2.50    1.30
   6   0  -8   14.50    1.20
   6   0  -8   14.10    1.30
  -6   0   8   15.30    1.50
  -6   0   8   14.00    1.80
   5   0  -8    0.70    0.70
   5   0  -8    0.20    0.60
  -5   0   8    0.40    0.80
  -5   0   8    0.30    0.60
   4   0  -8    1.40    0.60
   4   0  -8    0.40    0.30
  -4   0   8    1.50    0.80
  -4   0   8    1.50    0.60
   3   0  -8   89.59    3.10
   3   0  -8   90.49    2.80
   3   0  -8   96.39    3.50
  -3   0   8   94.89    3.50
  -3   0   8   80.99    3.20
  -3   0   8   92.29    3.00
   2   0  -8  176.28    5.00
   2   0  -8  175.68    5.20
  -2   0   8  167.78    5.10
  -2   0   8  175.38    5.40
   1   0  -8   19.60    1.20
   1   0  -8   20.30    1.40
  -1   0   8   20.90    1.20
  -1   0   8   19.80    1.10
  -1   0   8   20.00    1.40
   0   0  -8    2.20    0.50
   0   0  -8    1.60    0.60
   0   0   8    1.50    0.50
   0   0   8    0.70    0.30
  -1   0  -8  570.34   14.20
  -1   0  -8  587.94   14.10
  -1   0  -8  589.94   14.50
   1   0   8  614.14   14.50
   1   0   8  587.64   13.80
   1   0   8  603.44   14.00
  -2   0  -8   76.19    2.40
  -2   0  -8   70.69    2.60
  -2   0  -8   73.39    2.40
   2   0   8   75.59    2.50
   2   0   8   73.39    2.00
   2   0   8   74.09    2.30
  -3   0  -8   80.29    2.80
  -3   0  -8   86.79    2.60
  -3   0  -8   87.29    2.50
   3   0   8   80.09    2.50
   3   0   8   83.59    2.70
  -4   0  -8    1.20    0.40
  -4   0  -8    1.90    0.40
  -4   0  -8    2.30    0.60
   4   0   8    2.60    0.60
  -5   0  -8  109.59    3.40
  -5   0  -8  112.29    3.30
  -5   0  -8  112.89    3.00
   5   0   8  103.69    3.70
  -6   0  -8   24.00    1.00
  -6   0  -8   21.90    2.10
  -6   0  -8   25.90    1.30
  -6   0  -8   23.60    1.30
  -7   0  -8   24.40    2.60
  -7   0  -8   22.10    1.00
  -7   0  -8   21.30    1.30
  -7   0  -8   22.40    1.40
  -8   0  -8   27.20    2.50
  -8   0  -8   26.40    1.10
  -8   0  -8   26.40    1.40
  -7   1   8    1.10    1.20
  -7   1   8    1.40    1.40
   6  -1  -8   12.70    1.20
   6  -1  -8   11.00    1.10
  -6   1   8   10.90    1.70
  -6   1   8    9.40    1.30
   5  -1  -8    1.80    0.70
   5  -1  -8    2.00    0.80
  -5   1   8    2.70    0.80
   4  -1  -8    5.60    0.90
  -4   1   8    5.80    1.20
  -4   1   8    7.10    1.00
   3  -1  -8    1.10    0.40
   3  -1  -8    1.70    0.60
   3  -1  -8    1.50    0.50
  -3   1   8    0.00    0.50
  -3   1   8    0.60    0.60
   2  -1  -8    6.30    0.90
   2  -1  -8    6.00    0.90
  -2   1   8    6.60    1.00
  -2   1   8    7.60    1.00
   1  -1  -8    1.10    0.50
   1  -1  -8    1.10    0.60
  -1   1   8    1.20    0.40
  -1   1   8    1.20    0.40
  -1   1   8    1.50    0.60
   0  -1  -8   96.59    3.40
   0  -1  -8  100.89    3.20
   0   1   8  102.09    3.00
   0   1   8   98.09    3.40
   0   1   8   93.79    3.00
  -1  -1  -8   17.40    1.20
  -1  -1  -8   14.10    1.00
   1   1   8   14.10    1.10
   1   1   8   15.10    0.80
   1   1   8   13.30    0.80
  -2  -1  -8  119.89    3.40
  -2  -1  -8  109.69    3.20
  -2  -1  -8  109.19    3.60
   2   1   8  115.09    3.10
   2   1   8  112.99    3.00
   2   1   8  113.89    3.50
  -3  -1  -8  158.38    4.70
  -3  -1  -8  160.88    4.40
   3   1   8  162.88    4.30
   3   1   8  160.08    4.30
   3   1   8  159.08    3.90
  -4  -1  -8   49.70    2.10
  -4  -1  -8   53.49    1.70
  -4  -1  -8   54.39    1.80
   4   1   8   49.90    1.90
  -5  -1  -8  199.48    5.10
  -5  -1  -8  202.98    5.50
  -5  -1  -8  204.88    5.10
  -5  -1  -8  201.68    6.60
   5   1   8  188.68    5.50
  -6  -1  -8    2.60    0.70
  -6  -1  -8    2.40    0.80
  -6  -1  -8    3.90    0.60
  -6  -1  -8    2.90    0.50
  -7  -1  -8    6.30    0.90
  -7  -1  -8    5.40    0.70
  -7  -1  -8    4.20    1.20
  -8  -1  -8   28.00    2.40
  -8  -1  -8   25.60    1.40
  -8  -1  -8   27.30    1.30
  -8  -1  -8   25.20    1.40
  -9  -1  -8    0.50    0.70
  -9  -1  -8    0.30    1.20
  -7   2   8    3.60    1.70
   6  -2  -8    5.40    0.80
  -6   2   8    5.10    1.40
  -6   2   8    4.90    1.50
   5  -2  -8    4.60    0.90
   5  -2  -8    4.10    0.90
  -5   2   8    4.20    1.00
  -5   2   8    3.20    1.10
   4  -2  -8   29.20    2.00
   4  -2  -8   25.70    1.60
  -4   2   8   26.40    1.70
  -4   2   8   26.00    2.00
   3  -2  -8   48.70    2.40
   3  -2  -8   49.99    2.20
  -3   2   8   46.40    2.20
  -3   2   8   52.89    2.60
   2  -2  -8   25.30    1.30
   2  -2  -8   26.00    1.50
  -2   2   8   25.70    1.80
  -2   2   8   24.30    1.50
   1  -2  -8   54.89    2.50
   1  -2  -8   57.99    2.30
   1  -2  -8   58.59    2.30
  -1   2   8   54.09    2.50
   0  -2  -8   46.20    2.20
   0  -2  -8   45.10    2.00
   0  -2  -8   43.00    2.00
   0   2   8   46.70    1.90
   0   2   8   46.30    2.20
  -1  -2  -8    9.70    1.10
  -1  -2  -8   11.80    1.30
  -1  -2  -8   10.00    0.90
   1   2   8   12.10    1.20
   1   2   8    9.20    0.70
   1   2   8   11.20    0.80
  -2  -2  -8    0.90    0.40
  -2  -2  -8    1.40    0.60
  -2  -2  -8    1.20    0.60
   2   2   8    1.40    0.40
   2   2   8    1.40    0.30
   2   2   8    1.10    0.50
  -3  -2  -8  421.06   10.40
  -3  -2  -8  404.66   11.00
  -3  -2  -8  405.06   10.10
   3   2   8  414.76    9.70
   3   2   8  399.56    9.70
   3   2   8  411.06   10.20
  -4  -2  -8   76.89    3.40
  -4  -2  -8   74.39    2.20
  -4  -2  -8   76.19    2.50
  -4  -2  -8   73.69    2.70
   4   2   8   77.49    1.90
   4   2   8   76.99    2.30
   4   2   8   74.79    2.10
  -5  -2  -8    0.20    0.20
  -5  -2  -8    0.10    0.40
  -5  -2  -8    0.00    0.50
  -5  -2  -8    0.50    0.60
   5   2   8    0.20    0.30
  -6  -2  -8   64.99    2.40
  -6  -2  -8   67.59    3.40
  -6  -2  -8   67.29    2.20
  -6  -2  -8   65.89    2.00
  -7  -2  -8    8.30    1.40
  -7  -2  -8    9.30    1.00
  -7  -2  -8    9.00    0.80
  -7  -2  -8    8.80    0.70
  -8  -2  -8    1.30    0.70
  -8  -2  -8    1.30    1.10
  -8  -2  -8    0.60    0.40
  -8  -2  -8    0.50    0.50
  -9  -2  -8   16.80    1.20
  -9  -2  -8   16.50    1.30
  -9  -2  -8   17.00    1.40
  -9  -2  -8   15.90    2.20
   6  -3  -8    2.90    0.80
  -6   3   8    2.60    1.50
   5  -3  -8   12.30    1.20
  -5   3   8   10.50    1.80
   4  -3  -8    0.30    0.90
   4  -3  -8    0.00    0.60
  -4   3   8   -0.10    0.90
  -4   3   8   -0.30    0.80
   3  -3  -8    1.40    0.90
   3  -3  -8    2.30    0.70
  -3   3   8    1.00    0.70
  -3   3   8    0.90    0.90
   2  -3  -8   50.39    2.50
   2  -3  -8   50.39    2.20
   2  -3  -8   48.80    1.80
  -2   3   8   48.90    2.50
  -2   3   8   49.30    2.30
   1  -3  -8   13.90    1.10
   1  -3  -8   13.30    1.50
   1  -3  -8   12.30    1.10
  -1   3   8   13.40    1.20
  -1   3   8   13.60    1.50
   0  -3  -8   47.00    2.00
   0  -3  -8   43.00    2.00
   0   3   8   41.60    2.10
  -1  -3  -8    0.10    0.50
  -1  -3  -8    0.30    0.40
  -1  -3  -8    0.10    0.40
   1   3   8   -0.10    0.30
   1   3   8   -0.20    0.40
  -2  -3  -8    1.80    0.50
  -2  -3  -8    1.20    0.60
  -2  -3  -8    1.80    0.60
   2   3   8    2.60    0.70
   2   3   8    1.60    0.40
  -3  -3  -8    0.90    0.50
  -3  -3  -8    0.10    0.50
  -3  -3  -8    1.10    0.60
   3   3   8    0.00    0.40
   3   3   8    1.00    0.20
   3   3   8    1.50    0.40
  -4  -3  -8    1.70    0.50
  -4  -3  -8    0.70    0.60
  -4  -3  -8    0.90    0.60
   4   3   8    1.50    0.30
   4   3   8    2.00    0.40
  -5  -3  -8    3.30    0.90
  -5  -3  -8    6.50    0.80
  -5  -3  -8    5.30    0.90
  -6  -3  -8   23.70    1.50
  -6  -3  -8   23.90    1.30
  -6  -3  -8   23.40    2.00
  -7  -3  -8    0.20    0.50
  -7  -3  -8    0.30    0.80
  -7  -3  -8   -0.30    0.70
  -8  -3  -8    0.20    0.80
  -8  -3  -8    0.50    0.60
  -8  -3  -8    0.20    0.90
  -9  -3  -8    0.80    0.60
  -9  -3  -8    0.60    0.90
  -9  -3  -8    0.50    1.10
   5  -4  -8   -0.30    0.70
  -5   4   8   -0.10    1.20
   4  -4  -8    0.10    1.00
   4  -4  -8    0.20    0.80
  -4   4   8    1.90    1.10
   3  -4  -8    6.30    1.10
   3  -4  -8    7.20    1.30
  -3   4   8    6.10    1.30
  -3   4   8    6.30    1.20
   2  -4  -8   83.09    3.10
   2  -4  -8   79.49    2.50
   2  -4  -8   80.69    3.40
  -2   4   8   78.99    4.20
  -2   4   8   80.49    3.20
   1  -4  -8   50.49    2.60
   1  -4  -8   51.59    2.40
   1  -4  -8   51.39    2.10
  -1   4   8   52.49    2.40
  -1   4   8   50.29    2.60
   0  -4  -8    1.10    0.60
   0  -4  -8    0.50    0.40
   0  -4  -8    0.80    0.70
   0   4   8    0.40    0.60
   0   4   8    0.50    0.60
  -1  -4  -8   10.30    1.10
  -1  -4  -8   12.30    1.20
  -1  -4  -8   13.60    1.50
   1   4   8   11.30    1.20
   1   4   8   14.00    1.40
  -2  -4  -8  206.28    6.70
  -2  -4  -8  226.58    6.20
  -2  -4  -8  226.08    6.60
   2   4   8  219.28    6.20
   2   4   8  210.68    6.00
  -3  -4  -8   27.00    1.90
  -3  -4  -8   26.60    1.80
  -3  -4  -8   27.50    1.50
   3   4   8   25.10    1.30
   3   4   8   27.10    1.50
   3   4   8   27.10    1.00
  -4  -4  -8   81.59    3.10
  -4  -4  -8   78.49    2.90
  -4  -4  -8   84.99    3.60
   4   4   8   80.59    2.60
   4   4   8   79.59    2.50
  -5  -4  -8   42.50    2.50
  -5  -4  -8   40.20    1.90
  -5  -4  -8   41.90    2.10
   5   4   8   40.70    1.30
   5   4   8   40.30    1.30
  -6  -4  -8    0.00    0.50
  -6  -4  -8    0.00    0.70
  -6  -4  -8    0.10    0.70
  -7  -4  -8    1.40    0.60
  -7  -4  -8    0.40    0.80
  -7  -4  -8    1.80    0.80
  -8  -4  -8   37.00    2.10
  -8  -4  -8   35.90    1.70
  -8  -4  -8   34.30    2.60
  -9  -4  -8   19.30    1.40
  -9  -4  -8   19.20    2.20
  -9  -4  -8   24.60    2.00
 -10  -4  -8    0.10    1.20
 -10  -4  -8    1.00    0.80
 -10  -4  -8    0.10    1.30
   5  -5  -8    0.00    2.10
   5  -5  -8    1.20    0.90
  -5   5   8   -1.40    2.90
  -5   5   8    0.30    1.60
   4  -5  -8    2.50    0.90
   4  -5  -8    0.60    1.30
  -4   5   8    2.10    1.40
  -4   5   8    2.00    1.40
   3  -5  -8    5.10    1.00
   3  -5  -8    5.70    1.50
  -3   5   8    3.30    1.30
   2  -5  -8   31.20    2.40
   2  -5  -8   25.90    1.30
   2  -5  -8   25.20    1.80
  -2   5   8   22.40    2.00
  -2   5   8   26.90    2.10
   1  -5  -8   33.90    2.00
   1  -5  -8   33.80    2.30
   1  -5  -8   35.90    1.70
  -1   5   8   33.50    2.20
  -1   5   8   30.90    2.10
   0  -5  -8  113.19    3.90
   0  -5  -8  110.69    4.30
   0  -5  -8  110.69    3.70
   0   5   8  109.89    4.10
  -1  -5  -8   37.40    2.00
  -1  -5  -8   38.00    2.00
  -1  -5  -8   34.50    2.20
   1   5   8   36.00    2.10
   1   5   8   40.50    2.00
   1   5   8   34.60    2.20
  -2  -5  -8   18.30    1.70
  -2  -5  -8   18.50    1.50
  -2  -5  -8   20.20    1.60
   2   5   8   19.50    1.40
   2   5   8   16.70    1.40
  -3  -5  -8    6.60    1.00
  -3  -5  -8    5.40    1.00
  -3  -5  -8    4.00    1.00
   3   5   8    4.00    1.00
   3   5   8    4.20    0.80
   3   5   8    5.50    0.90
   3   5   8    4.80    0.60
  -4  -5  -8   44.20    2.50
  -4  -5  -8   40.20    2.30
  -4  -5  -8   38.60    2.00
   4   5   8   42.90    1.80
   4   5   8   38.90    1.80
   4   5   8   43.00    2.60
  -5  -5  -8  112.39    3.80
  -5  -5  -8  108.89    4.50
  -5  -5  -8  115.39    4.00
   5   5   8  113.59    3.20
   5   5   8  110.49    3.30
  -6  -5  -8   -0.10    0.50
  -6  -5  -8    0.00    0.80
  -6  -5  -8    0.50    0.70
   6   5   8    0.40    0.20
   6   5   8    0.30    0.20
  -7  -5  -8   10.50    1.60
  -7  -5  -8   12.30    1.30
  -7  -5  -8   11.20    1.40
  -8  -5  -8   -0.30    0.70
  -8  -5  -8   -0.60    0.90
  -8  -5  -8   -0.80    0.90
  -9  -5  -8    1.80    0.80
  -9  -5  -8    1.90    1.30
  -9  -5  -8    2.60    1.20
 -10  -5  -8    2.60    1.50
 -10  -5  -8    1.40    1.40
 -10  -5  -8    1.60    0.90
   4  -6  -8    0.10    1.70
   4  -6  -8    1.40    1.20
  -4   6   8    0.10    1.50
   3  -6  -8    1.40    0.90
  -3   6   8    3.10    1.60
  -3   6   8    1.60    1.30
   2  -6  -8    0.40    0.50
   2  -6  -8   -0.10    0.80
  -2   6   8   -0.60    0.90
  -2   6   8    0.60    1.10
  -2   6   8   -0.40    1.10
   1  -6  -8    3.60    0.90
   1  -6  -8    2.70    0.70
   1  -6  -8    0.00    1.20
  -1   6   8    4.10    1.20
  -1   6   8    3.30    1.20
   0  -6  -8    2.30    1.10
   0  -6  -8    1.70    0.60
   0  -6  -8    1.30    0.70
   0   6   8    1.90    0.90
   0   6   8    0.40    0.80
   0   6   8    1.80    0.80
  -1  -6  -8   49.20    2.80
  -1  -6  -8   49.99    2.40
   1   6   8   47.50    2.70
   1   6   8   45.00    2.40
   1   6   8   35.80    2.30
   1   6   8   51.09    2.70
  -2  -6  -8    7.80    1.30
  -2  -6  -8    6.70    1.20
   2   6   8    7.60    1.40
   2   6   8    6.60    1.00
   2   6   8    6.70    1.10
   2   6   8    8.20    1.30
  -3  -6  -8   62.09    2.70
  -3  -6  -8   53.79    2.80
  -3  -6  -8   57.79    2.80
   3   6   8   52.09    2.40
   3   6   8   55.19    2.20
   3   6   8   56.69    2.50
   3   6   8   58.89    3.10
  -4  -6  -8   27.90    1.80
  -4  -6  -8   28.50    2.10
  -4  -6  -8   30.30    2.10
   4   6   8   29.90    2.30
   4   6   8   28.30    1.60
   4   6   8   30.70    1.70
  -5  -6  -8    6.70    1.10
  -5  -6  -8    6.90    1.30
  -5  -6  -8   10.10    1.60
   5   6   8    6.80    1.00
   5   6   8    7.70    0.90
  -6  -6  -8   -0.10    0.70
  -6  -6  -8    0.50    0.90
  -6  -6  -8   -0.20    0.60
   6   6   8   -0.30    0.40
  -7  -6  -8   30.10    2.30
  -7  -6  -8   27.80    2.40
  -7  -6  -8   25.60    1.70
  -8  -6  -8   12.20    1.40
  -8  -6  -8   12.00    1.90
  -8  -6  -8   11.10    1.60
  -9  -6  -8    7.10    1.70
  -9  -6  -8    8.90    1.30
  -9  -6  -8   15.10    1.90
  -3   7   8    3.80    1.80
  -3   7   8   -0.20    1.50
   2  -7  -8    1.30    1.80
   2  -7  -8    2.50    1.00
   2  -7  -8    3.30    0.80
  -2   7   8    1.70    1.20
  -2   7   8    2.40    1.30
   1  -7  -8    2.40    1.70
   1  -7  -8    3.20    0.90
   1  -7  -8    1.00    0.90
  -1   7   8    2.20    1.10
  -1   7   8    1.90    1.20
   0  -7  -8    8.40    1.40
   0  -7  -8   10.90    1.40
   0   7   8    7.70    1.30
   0   7   8    9.90    1.60
   0   7   8    6.10    1.50
   0   7   8    8.20    1.40
  -1  -7  -8   18.50    1.80
  -1  -7  -8   18.20    1.60
   1   7   8   16.40    1.80
   1   7   8   17.60    1.70
   1   7   8   20.60    2.20
  -2  -7  -8    3.90    1.00
  -2  -7  -8    3.70    1.00
   2   7   8    3.60    1.20
   2   7   8    3.20    0.90
   2   7   8    4.70    1.00
  -3  -7  -8    5.70    1.30
  -3  -7  -8    5.90    1.10
   3   7   8    3.40    1.10
   3   7   8    8.60    1.60
   3   7   8   13.30    1.50
   3   7   8    6.90    0.90
  -4  -7  -8   -0.20    0.90
  -4  -7  -8    0.00    0.60
  -4  -7  -8   -0.20    0.60
   4   7   8   -0.30    0.90
   4   7   8    0.10    0.60
   4   7   8   -0.30    0.70
  -5  -7  -8   16.80    2.10
  -5  -7  -8   22.70    1.90
  -5  -7  -8   23.30    2.30
   5   7   8   19.70    1.30
   5   7   8   16.70    1.60
   5   7   8   21.00    2.40
  -6  -7  -8    3.00    1.20
  -6  -7  -8    5.30    1.40
  -6  -7  -8    3.70    0.90
   6   7   8    4.00    0.90
  -7  -7  -8    7.40    1.60
  -7  -7  -8    7.20    1.70
  -7  -7  -8    6.90    1.20
   7   7   8    7.90    1.90
   7   7   8    8.00    0.80
   7   7   8    8.10    0.60
  -8  -7  -8   16.90    2.30
  -8  -7  -8   18.70    1.80
  -8  -7  -8   22.50    2.40
  -9  -7  -8    3.60    1.70
  -9  -7  -8    1.30    1.00
  -9  -7  -8    2.20    2.40
   1  -8  -8    3.50    1.30
   1  -8  -8    0.50    0.90
  -1   8   8    0.10    1.40
  -1   8   8    1.50    1.30
  -1   8   8   -0.60    1.30
   0  -8  -8    3.60    1.00
   0   8   8    5.20    1.50
   0   8   8    4.30    1.30
   0   8   8    4.60    1.30
  -1  -8  -8    6.60    1.30
  -1  -8  -8    8.40    2.70
   1   8   8    9.00    1.50
   1   8   8    8.40    1.80
   1   8   8   11.40    1.70
  -2  -8  -8   99.59    4.10
  -2  -8  -8  109.49    4.30
  -2  -8  -8  115.49    5.00
   2   8   8  100.89    3.90
   2   8   8  120.39    5.00
   2   8   8  113.09    4.50
   2   8   8  107.49    4.20
  -3  -8  -8   13.00    2.10
  -3  -8  -8    8.40    1.40
  -3  -8  -8    6.80    1.20
   3   8   8    8.20    1.30
   3   8   8   11.40    1.20
   3   8   8    8.10    1.60
   3   8   8    9.60    1.90
  -4  -8  -8    1.80    1.30
  -4  -8  -8    1.90    0.90
  -4  -8  -8    0.90    0.90
   4   8   8    2.40    1.50
   4   8   8    1.80    0.80
   4   8   8    1.10    0.40
  -5  -8  -8    8.80    1.30
  -5  -8  -8   10.00    1.70
  -5  -8  -8    7.80    1.80
   5   8   8   15.20    2.30
   5   8   8    9.30    1.10
  -6  -8  -8    9.30    1.70
  -6  -8  -8    8.10    1.40
  -6  -8  -8    8.90    1.80
   6   8   8   11.10    3.00
   6   8   8    6.80    1.20
  -7  -8  -8    6.30    1.50
  -7  -8  -8    6.10    1.80
  -7  -8  -8    3.40    1.20
   7   8   8    4.70    0.70
   7   8   8    4.50    1.00
  -8  -8  -8    4.60    1.90
  -8  -8  -8    4.00    1.20
  -8  -8  -8    4.30    2.10
   8   8   8    3.50    0.60
  -9  -8  -8    5.30    1.30
  -9  -8  -8    4.80    1.70
  -1  -9  -8   -0.20    1.10
  -1  -9  -8   -0.10    1.00
   1   9   8    0.30    1.00
   1   9   8    0.60    1.80
   1   9   8    0.40    1.20
  -2  -9  -8   -0.30    0.90
  -2  -9  -8    0.80    1.00
   2   9   8   -0.70    1.70
   2   9   8   -0.10    0.80
   2   9   8   -0.30    1.00
  -3  -9  -8    6.90    1.40
  -3  -9  -8    6.90    1.40
   3   9   8    7.90    1.40
   3   9   8    7.30    1.10
   3   9   8    8.60    2.10
  -4  -9  -8    0.40    1.00
  -4  -9  -8    1.50    1.00
   4   9   8   -1.60    3.20
   4   9   8   -0.10    0.50
   4   9   8    0.20    0.80
  -5  -9  -8   -0.40    0.90
  -5  -9  -8   -0.90    1.00
   5   9   8   -0.30    1.40
   5   9   8    0.30    0.80
  -6  -9  -8    0.30    1.00
  -6  -9  -8    0.30    1.10
   6   9   8    0.20    1.50
  -7  -9  -8    2.70    1.20
  -7  -9  -8    1.70    1.30
   7   9   8    3.60    1.30
  -8  -9  -8    2.60    1.70
  -8  -9  -8    3.30    1.30
   8   9   8    2.60    1.10
   8   9   8    2.60    0.60
  -3 -10  -8    4.90    1.40
   3  10   8    4.30    1.10
  -4 -10  -8    5.40    1.70
  -4 -10  -8    4.80    1.50
   4  10   8    3.90    2.20
   4  10   8    4.20    0.90
  -5 -10  -8    1.60    1.30
  -5 -10  -8    0.80    1.40
   5  10   8    0.80    1.00
  -6 -10  -8   -0.60    1.10
   4   8  -9    1.30    0.90
   4   8  -9    3.50    1.00
  -4  -8   9    2.00    1.60
   3   8  -9    1.60    0.90
   3   8  -9    0.30    0.80
  -3  -8   9    1.80    1.70
   2   8  -9    5.20    1.00
   2   8  -9    5.60    1.30
  -2  -8   9    5.00    1.80
   1   8  -9   -0.20    0.80
   1   8  -9    0.70    0.80
  -1  -8   9   -0.60    1.40
   6   7  -9    4.20    1.20
  -6  -7   9    4.80    1.80
   5   7  -9   18.00    1.60
   4   7  -9    2.00    1.00
   4   7  -9    1.50    0.80
  -4  -7   9    2.40    1.40
   3   7  -9    0.40    0.80
   3   7  -9    0.40    0.70
  -3  -7   9    0.30    1.20
   2   7  -9   10.40    1.20
   2   7  -9    6.70    1.00
  -2  -7   9    7.70    1.70
   1   7  -9    1.60    0.70
   1   7  -9    2.00    0.70
  -1  -7   9    2.00    1.20
  -1  -7   9    1.90    1.20
   0   7  -9    4.70    0.90
   0   7  -9    7.00    1.00
   0  -7   9   10.00    1.70
   0  -7   9    6.10    1.50
  -1   7  -9    0.40    0.70
  -1   7  -9   -0.20    0.60
   1  -7   9    0.90    1.20
   7   6  -9    9.50    1.50
   7   6  -9   10.70    1.90
  -7  -6   9   11.50    2.10
   6   6  -9    2.10    1.40
   6   6  -9    1.10    0.90
   6   6  -9    0.40    1.40
  -6  -6   9    1.70    1.50
   5   6  -9    0.80    0.80
   5   6  -9    0.50    1.10
   5   6  -9    1.40    1.30
  -5  -6   9   -0.20    1.20
   4   6  -9   -0.60    0.60
   4   6  -9   -0.80    1.00
   4   6  -9    0.90    1.10
   4   6  -9   -0.20    0.60
  -4  -6   9   -0.50    1.00
  -4  -6   9    0.00    0.70
   3   6  -9    4.20    0.80
   3   6  -9    1.50    1.00
   3   6  -9    1.50    0.70
   3   6  -9    1.90    1.30
  -3  -6   9    1.50    1.00
  -3  -6   9    2.10    0.90
  -3  -6   9    1.10    0.80
   2   6  -9    0.80    0.70
   2   6  -9    1.00    0.60
   2   6  -9    1.00    1.10
   2   6  -9    0.70    1.50
  -2  -6   9    0.80    1.00
  -2  -6   9    0.40    0.80
  -2  -6   9   -0.10    0.70
   1   6  -9    1.00    1.00
   1   6  -9    0.40    0.50
   1   6  -9    0.40    0.90
   1   6  -9    1.10    0.60
  -1  -6   9    1.30    0.90
  -1  -6   9    1.00    1.00
  -1  -6   9    0.40    0.80
   0   6  -9   10.30    1.30
   0   6  -9    9.30    1.50
   0   6  -9   12.20    1.80
   0   6  -9   11.70    1.20
   0  -6   9    8.30    1.40
   0  -6   9    9.50    1.60
  -1   6  -9    2.00    0.60
  -1   6  -9    1.40    0.60
  -1   6  -9    2.00    1.10
   1  -6   9    1.80    1.10
   1  -6   9    2.90    1.00
  -2   6  -9    3.20    0.90
  -2   6  -9    2.50    1.60
  -2   6  -9    4.30    0.80
   2  -6   9    4.40    1.20
   2  -6   9    3.10    1.10
  -3   6  -9   11.60    1.20
  -3   6  -9   15.90    1.70
   3  -6   9   16.90    1.50
   3  -6   9   13.90    1.40
   7   5  -9    1.90    1.10
   7   5  -9    4.40    2.50
  -7  -5   9    3.30    1.50
   6   5  -9    0.90    1.10
   6   5  -9   -0.20    0.80
  -6  -5   9   -0.40    1.20
   5   5  -9    0.50    1.00
   5   5  -9    1.80    0.90
  -5  -5   9    1.70    1.10
  -5  -5   9    0.30    0.60
  -5  -5   9    0.00    0.60
   4   5  -9    1.70    0.70
  -4  -5   9    0.10    0.90
  -4  -5   9    0.90    0.70
   3   5  -9   20.00    1.40
   3   5  -9   21.00    1.70
  -3  -5   9   20.80    2.00
  -3  -5   9   19.00    1.50
   2   5  -9    1.00    0.60
   2   5  -9    1.30    0.70
  -2  -5   9    1.00    0.90
   1   5  -9    0.20    0.70
   1   5  -9    0.20    0.50
   1   5  -9    0.70    0.50
  -1  -5   9    1.10    0.90
  -1  -5   9    0.40    0.50
   0   5  -9  125.89    3.70
   0   5  -9  119.19    4.30
   0   5  -9  118.19    4.10
   0  -5   9  118.89    3.90
   0  -5   9  116.69    4.40
  -1   5  -9    0.70    0.50
  -1   5  -9    0.40    0.40
  -1   5  -9    1.80    1.10
  -1   5  -9    0.50    0.90
   1  -5   9    0.70    0.70
   1  -5   9    0.70    0.80
  -2   5  -9   18.90    1.20
  -2   5  -9   29.90    2.10
  -2   5  -9   16.90    2.00
  -2   5  -9   19.20    1.50
   2  -5   9   18.40    2.20
   2  -5   9   19.00    1.70
   2  -5   9   21.30    1.60
  -3   5  -9   10.60    1.60
  -3   5  -9    8.50    1.20
  -3   5  -9    8.70    1.70
  -3   5  -9    7.50    0.90
   3  -5   9    7.00    2.00
   3  -5   9    9.00    1.20
   3  -5   9    8.70    1.10
  -4   5  -9   29.40    2.00
  -4   5  -9   31.50    1.60
   7   4  -9    4.50    1.40
   7   4  -9    7.70    1.40
   6   4  -9    0.10    1.00
   6   4  -9    0.20    0.80
   6   4  -9   -0.20    0.80
  -6  -4   9   -0.20    0.70
  -6  -4   9    0.40    0.60
  -6  -4   9    0.20    1.00
   5   4  -9    7.80    1.30
   5   4  -9    7.90    1.20
  -5  -4   9    7.70    1.50
   4   4  -9   -0.60    0.70
   4   4  -9    0.00    0.70
   4   4  -9    0.20    0.60
  -4  -4   9    0.10    0.80
  -4  -4   9   -0.20    0.50
   3   4  -9    1.20    0.70
   3   4  -9    1.30    0.70
   3   4  -9    1.80    0.90
  -3  -4   9    1.00    0.90
  -3  -4   9    1.90    0.60
   2   4  -9    1.60    0.80
  -2  -4   9    1.20    0.50
  -2  -4   9    1.10    0.80
   1   4  -9   72.99    3.30
   1   4  -9   76.49    2.90
   1   4  -9   73.39    3.20
  -1  -4   9   76.09    3.30
  -1  -4   9   77.89    2.60
   0   4  -9   11.90    1.00
   0   4  -9   12.90    1.40
   0  -4   9   13.60    1.50
   0  -4   9   11.40    1.00
   0  -4   9   12.10    1.20
  -1   4  -9    6.60    1.10
  -1   4  -9    3.00    0.60
  -1   4  -9    5.90    0.80
  -1   4  -9    0.10    0.60
   1  -4   9    4.70    1.00
   1  -4   9    4.80    0.80
   1  -4   9    2.70    0.70
  -2   4  -9   17.50    2.00
  -2   4  -9   18.20    1.30
  -2   4  -9   15.30    1.10
  -2   4  -9   15.90    1.50
   2  -4   9   16.30    1.50
   2  -4   9   16.90    1.30
  -3   4  -9    1.30    1.00
  -3   4  -9    0.60    0.80
  -3   4  -9    0.80    0.60
   3  -4   9    0.80    0.90
   3  -4   9    0.70    0.60
   3  -4   9    0.30    0.60
  -4   4  -9   -0.40    0.40
  -4   4  -9    0.10    0.70
  -4   4  -9    0.30    1.10
  -4   4  -9   -0.40    0.90
   4  -4   9    0.90    1.20
  -5   4  -9   -0.10    1.00
  -5   4  -9    0.50    0.50
  -5   4  -9    2.10    1.50
  -5   4  -9   -0.20    0.70
   8   3  -9    8.60    1.20
   8   3  -9    8.10    1.50
  -8  -3   9    8.80    2.00
   7   3  -9   -0.30    0.90
   7   3  -9    0.00    0.90
   7   3  -9    0.70    1.00
  -7  -3   9    0.20    1.30
   6   3  -9    7.10    1.10
   6   3  -9    7.60    1.20
   6   3  -9    5.40    1.20
  -6  -3   9    6.30    1.20
  -6  -3   9    4.60    1.40
  -6  -3   9    5.00    0.90
   5   3  -9   19.20    1.60
   5   3  -9   19.10    1.50
   5   3  -9   22.60    1.80
  -5  -3   9   18.20    2.10
  -5  -3   9   19.90    1.60
  -5  -3   9   18.80    1.30
   4   3  -9    7.70    1.10
   4   3  -9    8.50    1.10
   4   3  -9   10.80    1.40
  -4  -3   9    8.90    0.90
  -4  -3   9    8.10    1.30
   3   3  -9  146.19    4.70
   3   3  -9  137.29    4.50
   3   3  -9  142.19    4.40
  -3  -3   9  126.69    4.80
   2   3  -9   11.00    1.40
   2   3  -9    8.30    1.10
   2   3  -9    8.80    1.20
   2   3  -9   10.60    1.10
  -2  -3   9    9.40    0.90
  -2  -3   9   10.80    1.40
  -2  -3   9    8.20    0.80
   1   3  -9   84.59    3.40
   1   3  -9   88.59    3.00
   1   3  -9   90.99    3.40
   1   3  -9   89.29    3.30
  -1  -3   9   87.89    3.50
  -1  -3   9   85.69    3.00
  -1  -3   9   89.19    2.70
   0   3  -9   11.70    0.90
   0   3  -9   11.80    1.30
   0   3  -9   12.10    1.10
   0  -3   9   10.00    0.80
   0  -3   9   11.70    1.00
   0  -3   9   11.80    1.40
  -1   3  -9   44.90    1.80
  -1   3  -9   43.40    2.20
  -1   3  -9   48.20    2.10
   1  -3   9   48.00    2.20
   1  -3   9   46.50    2.20
  -2   3  -9   16.50    1.40
  -2   3  -9   14.60    1.00
  -2   3  -9   17.20    1.20
   2  -3   9   15.80    1.00
   2  -3   9   15.50    1.40
   2  -3   9   15.90    1.30
  -3   3  -9    2.80    0.50
  -3   3  -9    1.70    0.90
  -3   3  -9    2.30    0.80
   3  -3   9    1.50    0.90
   3  -3   9    2.60    0.50
  -4   3  -9    1.10    0.50
  -4   3  -9    1.00    0.40
  -4   3  -9    0.60    0.80
  -5   3  -9   82.09    3.10
  -5   3  -9   82.19    3.10
  -5   3  -9   80.99    2.60
  -6   3  -9   13.20    1.50
  -6   3  -9   11.40    1.00
  -6   3  -9   12.70    1.40
   7   2  -9    6.40    1.10
   7   2  -9    8.30    1.20
   7   2  -9    9.50    1.20
  -7  -2   9    7.30    1.70
  -7  -2   9   10.70    1.40
   6   2  -9   12.40    1.40
   6   2  -9   11.50    1.30
   6   2  -9   11.20    1.40
  -6  -2   9   12.00    1.80
  -6  -2   9   11.10    1.50
   5   2  -9    1.10    0.60
   5   2  -9    1.60    0.70
   5   2  -9    0.70    0.80
  -5  -2   9    1.60    1.00
  -5  -2   9    2.80    0.70
  -5  -2   9    1.10    0.70
   4   2  -9    1.70    0.80
   4   2  -9    2.50    0.70
   4   2  -9    2.20    0.70
  -4  -2   9    0.10    0.40
  -4  -2   9    1.20    0.50
   3   2  -9  215.18    6.10
   3   2  -9  218.28    6.00
   3   2  -9  217.08    6.20
  -3  -2   9  214.98    5.60
  -3  -2   9  179.38    5.80
  -3  -2   9  217.58    6.60
   2   2  -9  114.89    4.00
   2   2  -9  126.79    3.90
   2   2  -9  118.29    4.50
  -2  -2   9  120.59    4.30
  -2  -2   9  118.99    3.40
  -2  -2   9  119.69    3.80
   1   2  -9   -0.20    0.30
   1   2  -9   -0.10    0.50
   1   2  -9    0.00    0.40
  -1  -2   9   -0.10    0.30
  -1  -2   9   -0.20    0.50
  -1  -2   9   -0.10    0.30
   0   2  -9   56.39    2.50
   0   2  -9   60.19    2.20
   0   2  -9   60.29    2.40
   0  -2   9   63.99    2.30
   0  -2   9   60.09    2.60
  -1   2  -9   59.49    2.10
  -1   2  -9   62.79    2.40
  -1   2  -9   57.79    2.50
   1  -2   9   56.69    1.90
   1  -2   9   61.39    2.60
   1  -2   9   58.19    2.30
  -2   2  -9  169.88    4.80
  -2   2  -9  158.58    4.50
   2  -2   9  168.38    5.00
   2  -2   9  162.98    4.90
   2  -2   9  166.08    4.40
  -3   2  -9  115.19    3.30
  -3   2  -9  117.39    3.60
   3  -2   9  115.09    4.10
   3  -2   9  110.49    3.10
   3  -2   9  114.09    3.50
  -4   2  -9   46.40    1.70
  -4   2  -9   48.20    2.00
   4  -2   9   41.70    2.40
  -5   2  -9   31.00    1.40
  -5   2  -9   37.60    2.30
   5  -2   9   46.40    2.70
  -6   2  -9    8.00    0.80
  -6   2  -9    7.80    1.10
  -7   2  -9    0.60    0.50
  -7   2  -9    1.80    0.80
  -7   2  -9    0.90    0.90
   7   1  -9    1.10    0.80
   7   1  -9    2.00    0.90
  -7  -1   9    1.30    1.30
  -7  -1   9    0.10    0.90
   6   1  -9   23.50    1.80
   6   1  -9   21.00    1.60
  -6  -1   9   20.80    2.20
  -6  -1   9   21.80    2.00
  -6  -1   9   19.80    2.20
   5   1  -9   15.00    1.10
   5   1  -9   17.10    1.60
   5   1  -9   16.50    1.40
  -5  -1   9   14.80    1.20
  -5  -1   9   17.80    2.00
   4   1  -9    0.50    0.70
   4   1  -9    0.30    0.60
   4   1  -9    0.40    0.50
  -4  -1   9    0.20    0.70
  -4  -1   9   -0.20    0.50
   3   1  -9   27.60    1.60
   3   1  -9   27.80    1.80
   3   1  -9   24.40    1.50
  -3  -1   9   23.20    1.30
  -3  -1   9   30.50    1.90
  -3  -1   9   26.10    1.60
   2   1  -9    0.50    0.60
   2   1  -9    0.80    0.50
  -2  -1   9    0.70    0.40
  -2  -1   9    2.10    0.60
  -2  -1   9    1.50    0.70
   1   1  -9    5.30    0.80
   1   1  -9    4.20    0.90
  -1  -1   9    6.20    0.70
  -1  -1   9    6.20    0.90
  -1  -1   9    6.00    1.10
   0   1  -9   28.00    1.40
   0   1  -9   26.60    1.50
   0  -1   9   26.70    1.10
   0  -1   9   28.10    1.70
   0  -1   9   28.60    1.30
  -1   1  -9   47.40    2.00
  -1   1  -9   42.40    2.10
  -1   1  -9   45.70    1.80
   1  -1   9   45.70    1.80
   1  -1   9   43.30    2.10
   1  -1   9   44.90    1.50
  -2   1  -9   39.30    1.90
  -2   1  -9   37.40    1.60
  -2   1  -9   38.10    1.60
   2  -1   9   38.50    1.30
   2  -1   9   34.30    1.70
   2  -1   9   37.10    1.70
  -3   1  -9  102.29    3.40
  -3   1  -9  102.99    3.20
  -3   1  -9  102.39    3.00
   3  -1   9   95.99    3.00
   3  -1   9  100.99    2.70
   3  -1   9   98.29    3.40
  -4   1  -9  565.04   13.50
  -4   1  -9  560.84   13.20
  -4   1  -9  548.75   13.70
   4  -1   9  553.84   14.10
  -5   1  -9    0.30    0.40
  -5   1  -9    1.10    0.60
  -5   1  -9    0.90    0.40
   5  -1   9    0.40    0.70
  -6   1  -9    0.60    0.70
  -6   1  -9   -0.10    0.40
  -6   1  -9    0.20    0.50
  -7   1  -9   46.50    3.20
  -7   1  -9   45.30    2.10
  -7   1  -9   46.10    1.70
  -7   1  -9   47.70    2.20
  -8   1  -9   14.70    2.50
  -8   1  -9   15.50    1.50
  -8   1  -9   14.80    1.00
   7   0  -9    0.20    0.70
   7   0  -9    0.00    0.70
  -7   0   9    0.40    1.40
   6   0  -9    1.80    0.80
   6   0  -9    0.70    0.90
  -6   0   9    0.80    1.10
   5   0  -9   45.90    2.20
   5   0  -9   47.30    2.30
  -5   0   9   45.40    2.70
  -5   0   9   42.40    2.20
   4   0  -9    0.50    0.60
   4   0  -9    2.00    0.80
   4   0  -9    1.40    0.40
  -4   0   9    1.60    0.90
  -4   0   9    1.00    0.60
   3   0  -9   47.40    2.20
   3   0  -9   51.39    2.40
   3   0  -9   46.30    1.90
  -3   0   9   50.59    2.60
  -3   0   9   46.60    2.00
  -3   0   9   46.20    2.20
   2   0  -9   47.70    2.30
   2   0  -9   45.80    2.00
  -2   0   9   43.30    2.00
  -2   0   9   47.50    2.40
  -2   0   9   46.10    1.90
   1   0  -9   39.70    1.90
   1   0  -9   38.10    2.20
  -1   0   9   40.60    1.80
  -1   0   9   38.60    2.10
  -1   0   9   41.10    1.70
   0   0  -9    2.70    0.60
   0   0  -9    2.30    0.70
   0   0   9    1.50    0.40
   0   0   9    2.70    0.50
   0   0   9    3.80    0.80
  -1   0  -9    9.30    0.90
  -1   0  -9    7.60    1.00
  -1   0  -9    7.40    0.80
   1   0   9    7.90    0.70
   1   0   9   10.10    1.20
   1   0   9    7.60    0.60
  -2   0  -9   90.79    2.90
  -2   0  -9   92.79    3.00
  -2   0  -9   95.89    3.30
   2   0   9   94.69    3.10
   2   0   9   92.59    2.80
   2   0   9   89.99    2.50
  -3   0  -9    7.80    0.70
  -3   0  -9    7.60    1.00
  -3   0  -9    7.00    0.80
   3   0   9    7.70    0.80
   3   0   9    8.30    0.90
   3   0   9    6.50    0.50
  -4   0  -9    1.70    0.50
  -4   0  -9    1.30    0.60
  -4   0  -9    2.10    0.50
   4   0   9    1.60    0.60
  -5   0  -9  142.09    3.90
  -5   0  -9  133.59    3.70
  -5   0  -9  132.09    4.10
   5   0   9  127.99    4.40
  -6   0  -9    1.00    0.70
  -6   0  -9    1.70    0.50
  -6   0  -9    0.80    0.80
  -6   0  -9    2.10    0.50
  -7   0  -9    5.20    1.40
  -7   0  -9    8.60    0.80
  -7   0  -9    7.80    0.90
  -7   0  -9    6.80    1.00
  -8   0  -9    1.10    1.30
  -8   0  -9    1.60    0.80
  -8   0  -9    2.00    0.80
  -8   0  -9    2.70    0.60
  -7   1   9    1.70    1.60
   6  -1  -9    6.70    1.10
  -6   1   9    8.40    1.40
  -6   1   9    8.70    1.70
   5  -1  -9   10.60    1.40
   5  -1  -9    7.40    1.00
  -5   1   9    7.70    1.20
  -5   1   9    8.30    1.60
   4  -1  -9   28.00    1.90
   4  -1  -9   26.80    1.70
  -4   1   9   29.80    3.80
  -4   1   9   22.80    1.60
   3  -1  -9    0.00    0.50
   3  -1  -9    0.20    0.40
   3  -1  -9   -0.30    0.50
   3  -1  -9   -0.60    0.70
  -3   1   9    0.30    0.70
  -3   1   9    0.50    0.50
   2  -1  -9   16.70    1.50
   2  -1  -9   16.00    1.30
  -2   1   9   17.00    1.60
  -2   1   9   15.20    1.10
   1  -1  -9   84.19    3.00
   1  -1  -9   90.09    3.20
  -1   1   9   85.99    3.30
  -1   1   9   77.59    2.90
   0  -1  -9   39.70    1.80
   0  -1  -9   44.40    2.30
   0   1   9   41.50    1.70
   0   1   9   40.50    1.70
   0   1   9   40.50    2.10
  -1  -1  -9   13.40    1.20
  -1  -1  -9   13.70    1.00
   1   1   9   13.10    0.80
   1   1   9   12.00    0.80
   1   1   9   12.10    1.10
  -2  -1  -9   84.39    3.10
  -2  -1  -9   80.39    2.80
   2   1   9   81.29    2.90
   2   1   9   84.19    2.40
   2   1   9   84.29    2.50
  -3  -1  -9   28.70    1.70
  -3  -1  -9   29.00    1.40
  -3  -1  -9   29.20    1.30
   3   1   9   30.50    1.40
   3   1   9   28.30    1.20
   3   1   9   28.60    1.00
  -4  -1  -9    0.70    0.40
  -4  -1  -9    0.10    0.30
  -4  -1  -9    0.30    0.50
   4   1   9    0.80    0.30
   4   1   9    1.30    0.50
  -5  -1  -9  109.09    3.50
  -5  -1  -9  107.89    3.20
  -5  -1  -9  108.99    4.50
  -5  -1  -9  107.39    3.10
   5   1   9  105.39    3.50
  -6  -1  -9  111.59    3.60
  -6  -1  -9  115.69    4.90
  -6  -1  -9  116.09    3.30
  -6  -1  -9  113.89    3.30
  -7  -1  -9   -0.10    0.40
  -7  -1  -9    0.30    0.70
  -7  -1  -9    0.30    0.40
  -7  -1  -9    0.70    1.00
  -8  -1  -9   -0.10    1.10
  -8  -1  -9    0.20    0.50
  -8  -1  -9    2.00    0.60
  -8  -1  -9   -0.10    0.80
  -9  -1  -9    9.90    1.90
  -9  -1  -9   12.00    1.00
  -9  -1  -9   12.20    1.10
  -9  -1  -9   11.40    1.20
   6  -2  -9    0.00    0.80
   6  -2  -9   -0.30    1.00
  -6   2   9   -0.10    1.40
   5  -2  -9    2.40    1.00
   5  -2  -9    2.30    0.80
  -5   2   9    2.90    1.20
   4  -2  -9    0.60    0.90
   4  -2  -9    0.20    0.60
  -4   2   9    0.30    0.90
  -4   2   9    0.40    0.70
   3  -2  -9   37.70    2.00
   3  -2  -9   37.50    1.50
   3  -2  -9   38.70    2.20
  -3   2   9   37.10    2.00
  -3   2   9   36.90    2.30
   2  -2  -9   45.40    2.30
   2  -2  -9   47.20    2.20
  -2   2   9   46.50    2.10
  -2   2   9   42.70    2.30
   1  -2  -9    4.40    0.80
   1  -2  -9    1.60    0.70
   1  -2  -9    2.70    0.70
  -1   2   9    2.40    0.60
  -1   2   9    2.40    0.80
   0  -2  -9   75.39    2.80
   0  -2  -9   74.99    3.00
   0  -2  -9   73.39    2.90
   0   2   9   67.59    2.50
   0   2   9   70.89    2.90
   0   2   9   70.99    2.70
  -1  -2  -9  573.94   14.10
  -1  -2  -9  585.24   14.70
  -1  -2  -9  571.94   14.40
   1   2   9  562.14   13.70
   1   2   9  582.34   14.40
   1   2   9  566.64   13.80
  -2  -2  -9   16.00    1.10
  -2  -2  -9   15.70    1.40
  -2  -2  -9   17.10    1.40
   2   2   9   16.60    0.90
   2   2   9   16.60    0.80
   2   2   9   16.70    1.30
  -3  -2  -9   49.50    2.00
  -3  -2  -9   47.70    2.20
  -3  -2  -9   43.00    2.50
   3   2   9   53.49    2.00
   3   2   9   49.50    1.60
   3   2   9   48.20    1.60
  -4  -2  -9    1.40    0.50
  -4  -2  -9    1.60    0.70
  -4  -2  -9    1.50    0.70
  -4  -2  -9    1.50    0.40
   4   2   9    2.10    0.30
   4   2   9    2.00    0.40
   4   2   9    0.80    0.30
  -5  -2  -9    3.30    0.40
  -5  -2  -9    3.00    0.60
  -5  -2  -9    3.00    0.80
  -5  -2  -9    3.70    1.00
   5   2   9    3.20    0.60
  -6  -2  -9    6.50    0.80
  -6  -2  -9    6.50    1.00
  -7  -2  -9    7.30    0.90
  -7  -2  -9    4.90    1.30
  -7  -2  -9    5.10    1.00
  -7  -2  -9    4.90    0.60
  -8  -2  -9   18.40    2.40
  -8  -2  -9   17.00    1.20
  -8  -2  -9   17.90    1.50
  -8  -2  -9   15.50    1.00
  -9  -2  -9    0.20    0.50
  -9  -2  -9   -0.10    0.90
  -9  -2  -9    1.00    0.70
  -9  -2  -9   -0.60    1.20
   6  -3  -9    1.30    1.00
   6  -3  -9   -0.30    0.80
  -6   3   9    2.50    1.60
   5  -3  -9    0.20    0.80
   5  -3  -9    0.40    1.10
  -5   3   9    1.80    1.20
  -5   3   9   -0.40    1.20
   4  -3  -9   -0.10    0.70
   4  -3  -9    1.20    1.10
  -4   3   9    0.10    0.90
  -4   3   9   -0.20    1.00
   3  -3  -9   20.80    1.90
   3  -3  -9   22.30    1.60
  -3   3   9   20.00    2.10
  -3   3   9   18.00    1.60
   2  -3  -9   19.10    1.10
   2  -3  -9   20.30    1.50
  -2   3   9   16.70    1.40
  -2   3   9   17.20    1.80
   1  -3  -9    1.70    0.70
   1  -3  -9    1.00    0.80
   1  -3  -9    0.80    0.50
  -1   3   9    0.60    0.60
  -1   3   9    0.60    0.70
   0  -3  -9   55.69    2.70
   0  -3  -9   55.09    2.40
   0  -3  -9   57.69    2.50
   0   3   9   55.79    2.60
   0   3   9   56.19    2.30
  -1  -3  -9    1.20    0.50
  -1  -3  -9    1.40    0.50
  -1  -3  -9    0.50    0.70
   1   3   9    0.40    0.40
   1   3   9    0.30    0.50
   1   3   9    0.30    0.40
  -2  -3  -9  118.39    3.70
  -2  -3  -9  113.49    4.20
   2   3   9  110.39    3.20
   2   3   9  109.69    3.40
   2   3   9  107.59    3.70
  -3  -3  -9    5.10    0.80
  -3  -3  -9    6.90    1.20
  -3  -3  -9    4.20    0.90
   3   3   9    2.70    0.40
   3   3   9    5.40    0.80
   3   3   9    4.40    0.60
  -4  -3  -9   76.79    3.50
  -4  -3  -9   79.29    3.00
  -4  -3  -9   79.29    2.80
   4   3   9   77.29    2.20
   4   3   9   77.99    2.50
  -5  -3  -9  122.59    4.00
  -5  -3  -9  115.89    3.70
  -5  -3  -9  112.69    4.60
   5   3   9  120.49    2.90
  -6  -3  -9   16.60    2.00
  -6  -3  -9   20.90    1.30
  -6  -3  -9   18.60    1.50
  -7  -3  -9    7.60    1.20
  -7  -3  -9    7.20    0.90
  -7  -3  -9    9.70    1.70
  -8  -3  -9   37.30    1.80
  -8  -3  -9   37.20    2.90
  -8  -3  -9   44.00    2.30
  -9  -3  -9    0.80    1.10
  -9  -3  -9    0.80    0.70
  -9  -3  -9    0.20    1.30
   5  -4  -9    1.90    1.30
   5  -4  -9    1.50    0.90
  -5   4   9    1.10    1.50
   4  -4  -9    5.90    1.00
   4  -4  -9    7.70    1.60
  -4   4   9    7.60    1.60
  -4   4   9    6.00    1.50
   3  -4  -9   13.90    1.50
   3  -4  -9   14.70    1.80
  -3   4   9   13.70    1.80
  -3   4   9   12.40    1.80
   2  -4  -9    9.60    1.30
   2  -4  -9   11.30    1.60
   2  -4  -9   10.30    0.90
  -2   4   9   11.60    1.60
  -2   4   9    9.10    1.30
   1  -4  -9    4.90    0.90
   1  -4  -9    3.50    1.10
   1  -4  -9    3.10    0.70
  -1   4   9    3.60    1.10
   0  -4  -9   13.60    1.40
   0  -4  -9   11.90    1.60
   0  -4  -9   11.70    1.20
   0   4   9    9.30    1.40
   0   4   9   12.40    1.40
  -1  -4  -9    4.60    1.00
  -1  -4  -9    2.40    0.90
  -1  -4  -9    4.20    0.80
   1   4   9    5.10    0.90
   1   4   9    3.40    0.90
  -2  -4  -9   13.20    1.60
  -2  -4  -9   10.70    1.40
  -2  -4  -9   11.10    1.20
   2   4   9   10.20    1.10
   2   4   9   10.90    1.20
  -3  -4  -9  113.19    4.30
  -3  -4  -9  105.39    3.90
  -3  -4  -9  113.29    3.80
   3   4   9  112.69    3.00
   3   4   9  111.09    3.70
   3   4   9  108.99    3.40
  -4  -4  -9   65.69    2.90
  -4  -4  -9   67.59    2.70
  -4  -4  -9   64.09    3.20
   4   4   9   64.79    2.40
   4   4   9   70.49    2.30
  -5  -4  -9   12.50    1.20
  -5  -4  -9    6.90    1.20
   5   4   9   10.60    0.60
  -6  -4  -9   56.69    2.40
  -6  -4  -9   58.89    2.80
  -6  -4  -9   56.59    3.20
  -7  -4  -9   21.40    1.80
  -7  -4  -9   19.60    1.40
  -7  -4  -9   21.00    2.30
  -8  -4  -9   12.00    1.80
  -8  -4  -9   17.40    1.70
  -8  -4  -9   15.00    1.30
  -9  -4  -9    0.00    1.20
  -9  -4  -9    0.40    1.20
  -9  -4  -9    1.00    0.80
   4  -5  -9    5.70    1.70
  -4   5   9    3.80    1.50
   3  -5  -9   -0.20    1.50
   3  -5  -9    1.10    0.90
  -3   5   9    0.80    1.00
  -3   5   9    1.60    1.20
   2  -5  -9   -0.50    1.10
   2  -5  -9    0.80    0.80
  -2   5   9    0.40    0.90
   1  -5  -9   15.40    1.20
   1  -5  -9   15.00    1.90
   1  -5  -9   20.40    1.90
  -1   5   9   14.30    1.80
   0  -5  -9   68.29    3.30
   0  -5  -9   66.19    3.10
   0  -5  -9   69.69    2.80
   0   5   9   67.29    3.40
  -1  -5  -9   23.30    1.70
  -1  -5  -9   20.70    1.60
  -1  -5  -9   22.30    1.90
   1   5   9   23.80    1.70
   1   5   9   24.00    1.80
  -2  -5  -9    5.70    1.00
  -2  -5  -9    4.80    1.00
  -2  -5  -9    6.30    1.30
   2   5   9    5.90    1.10
   2   5   9    6.50    1.00
  -3  -5  -9   13.30    1.60
  -3  -5  -9   13.90    1.30
  -3  -5  -9   10.50    1.50
   3   5   9   11.00    1.20
   3   5   9   12.10    1.30
   3   5   9   10.40    0.70
  -4  -5  -9   10.20    1.20
  -4  -5  -9    7.30    1.20
  -4  -5  -9    9.90    1.40
   4   5   9   11.90    1.20
   4   5   9   11.80    1.10
  -5  -5  -9    2.90    1.00
  -5  -5  -9    3.20    1.30
  -5  -5  -9    4.00    0.90
   5   5   9    3.50    0.60
   5   5   9    3.80    0.60
  -6  -5  -9   18.10    1.40
  -6  -5  -9   18.70    1.80
  -6  -5  -9   18.70    2.20
   6   5   9   17.60    0.70
   6   5   9   16.90    0.80
  -7  -5  -9   -0.50    0.90
  -7  -5  -9    0.40    0.90
  -7  -5  -9    0.30    0.70
  -8  -5  -9   15.90    1.80
  -8  -5  -9   12.30    1.40
  -8  -5  -9    9.70    1.70
  -9  -5  -9   30.10    1.90
  -9  -5  -9   23.80    2.60
  -9  -5  -9   28.30    2.60
   3  -6  -9    0.20    1.00
  -3   6   9    1.20    1.40
  -3   6   9    0.80    1.40
   2  -6  -9   37.90    1.80
   2  -6  -9   43.40    2.40
   2  -6  -9   44.70    3.20
  -2   6   9   43.30    3.10
  -2   6   9   43.30    2.90
   1  -6  -9    0.00    0.50
   1  -6  -9   -0.10    0.80
  -1   6   9   -0.10    1.00
  -1   6   9   -0.10    0.90
  -1   6   9   -0.30    0.90
   0  -6  -9    4.50    1.00
   0  -6  -9    4.40    1.00
   0   6   9    4.20    1.20
   0   6   9    5.90    1.20
  -1  -6  -9    1.00    0.80
  -1  -6  -9    2.10    0.80
   1   6   9    2.60    0.90
   1   6   9    0.80    0.80
  -2  -6  -9    0.30    0.70
  -2  -6  -9    1.70    0.80
   2   6   9    0.50    0.80
   2   6   9    0.60    0.60
   2   6   9    0.90    1.00
  -3  -6  -9   21.20    1.80
   3   6   9   19.80    1.20
   3   6   9   15.70    2.00
  -4  -6  -9    0.50    0.90
   4   6   9    1.50    1.00
   4   6   9    1.00    0.60
   4   6   9    1.10    0.70
  -5  -6  -9    9.50    1.50
  -5  -6  -9   11.70    1.80
  -5  -6  -9   11.70    1.70
   5   6   9    9.30    1.00
   5   6   9   10.30    1.20
  -6  -6  -9    4.10    1.20
  -6  -6  -9    5.10    1.30
  -6  -6  -9    4.20    1.10
   6   6   9    4.20    0.60
   6   6   9    4.40    0.70
  -7  -6  -9    0.80    1.20
  -7  -6  -9    1.40    1.30
  -7  -6  -9    1.50    1.00
  -8  -6  -9   33.20    2.90
  -8  -6  -9   29.20    2.60
  -9  -6  -9   15.20    2.30
  -9  -6  -9   10.80    1.90
  -9  -6  -9    9.70    1.40
   2  -7  -9    1.40    0.80
   2  -7  -9    0.90    1.10
   2  -7  -9    1.50    2.10
  -2   7   9    1.20    1.20
   1  -7  -9    8.00    1.40
   1  -7  -9    9.00    2.10
   1  -7  -9    8.30    1.20
  -1   7   9    7.00    1.60
  -1   7   9    7.70    1.60
   0  -7  -9   10.20    1.50
   0  -7  -9   10.00    1.30
   0  -7  -9    9.00    2.00
   0   7   9    9.50    1.40
   0   7   9    7.80    1.50
  -1  -7  -9   10.30    1.40
  -1  -7  -9   13.00    2.00
  -1  -7  -9   11.40    1.50
   1   7   9    8.90    1.70
   1   7   9   14.80    1.90
   1   7   9    9.60    1.50
   1   7   9   10.00    1.40
  -2  -7  -9   51.69    2.70
  -2  -7  -9   51.79    2.80
   2   7   9   52.79    2.70
   2   7   9   51.99    2.50
   2   7   9   49.60    2.90
   2   7   9   52.49    3.20
  -3  -7  -9   16.00    1.70
  -3  -7  -9   15.10    1.90
   3   7   9   16.40    1.50
   3   7   9   17.80    2.30
   3   7   9   17.00    1.30
  -4  -7  -9    5.00    1.00
  -4  -7  -9    4.80    1.10
  -4  -7  -9    5.20    1.40
   4   7   9    4.70    1.10
   4   7   9    5.80    1.50
  -5  -7  -9   26.90    2.20
  -5  -7  -9   26.30    2.40
  -5  -7  -9   24.90    1.90
   5   7   9   19.40    2.60
   5   7   9   25.70    1.80
   5   7   9   23.10    1.50
  -6  -7  -9    3.80    1.00
  -6  -7  -9    2.80    1.10
  -6  -7  -9    2.10    1.30
   6   7   9    4.50    1.70
   6   7   9    5.00    0.90
   6   7   9    4.20    0.70
  -7  -7  -9    7.80    1.80
  -7  -7  -9    7.70    1.30
  -7  -7  -9    8.60    1.70
   7   7   9    9.10    0.70
   7   7   9   11.00    1.00
  -8  -7  -9    4.60    1.30
  -8  -7  -9    6.20    1.90
  -8  -7  -9    4.70    1.20
  -9  -7  -9    5.40    1.70
  -9  -7  -9    3.30    1.20
   1  -8  -9    6.10    1.50
   1  -8  -9    5.50    1.20
  -1   8   9    6.00    1.80
  -1   8   9    4.40    1.80
   0  -8  -9    0.70    0.90
   0  -8  -9    1.60    1.00
   0   8   9    0.90    1.30
  -1  -8  -9    0.00    0.80
  -1  -8  -9    0.90    1.00
   1   8   9    0.70    1.40
   1   8   9    1.50    1.10
   1   8   9    0.50    1.00
  -2  -8  -9   13.10    1.70
  -2  -8  -9   15.40    1.90
   2   8   9   15.20    1.60
   2   8   9   14.60    2.10
   2   8   9   11.20    1.70
  -3  -8  -9    0.80    0.90
  -3  -8  -9    1.70    1.00
   3   8   9    1.10    1.40
   3   8   9    0.00    0.80
   3   8   9    2.40    1.30
   3   8   9    0.30    0.70
  -4  -8  -9    8.60    2.10
  -4  -8  -9    7.60    1.50
  -4  -8  -9    5.80    1.20
   4   8   9    7.10    1.20
   4   8   9   10.80    2.10
  -5  -8  -9    7.30    1.40
  -5  -8  -9    7.40    1.50
  -5  -8  -9    8.90    1.80
   5   8   9    7.60    1.10
   5   8   9    6.80    1.70
  -6  -8  -9    3.00    1.70
  -6  -8  -9    4.00    1.10
  -6  -8  -9    1.70    1.10
   6   8   9    2.30    0.70
   6   8   9    1.90    1.00
  -7  -8  -9    1.20    1.20
  -7  -8  -9    1.40    0.90
  -7  -8  -9    1.40    1.80
   7   8   9    0.50    0.90
   7   8   9    1.40    0.50
  -8  -8  -9   20.00    2.40
  -8  -8  -9   22.60    2.10
   8   8   9   22.40    1.00
   8   8   9   23.00    1.10
  -1  -9  -9    2.80    1.30
  -1  -9  -9    4.20    1.40
   1   9   9    2.00    1.40
   1   9   9    3.10    1.40
   1   9   9    4.00    2.40
  -2  -9  -9    2.00    1.00
   2   9   9    2.60    1.00
   2   9   9    3.30    1.90
  -3  -9  -9    6.50    1.50
  -3  -9  -9    6.70    1.60
   3   9   9    8.80    1.20
   3   9   9    8.80    1.50
   3   9   9    9.70    2.30
  -4  -9  -9   -0.30    1.00
  -4  -9  -9   -0.80    1.00
   4   9   9    0.20    0.50
   4   9   9   -0.20    0.90
  -5  -9  -9    3.40    1.30
  -5  -9  -9    3.00    1.30
   5   9   9    4.40    1.00
   5   9   9    5.30    1.70
  -6  -9  -9    2.10    1.40
  -6  -9  -9    1.10    1.10
   6   9   9    1.80    0.80
  -7  -9  -9    4.70    2.20
  -7  -9  -9    5.00    1.70
   7   9   9    1.00    1.40
   7   9   9    4.60    0.90
  -5  -7  10    3.10    1.70
  -4  -7  10    2.50    2.00
   3   7 -10   -0.10    0.90
  -3  -7  10    1.10    1.30
   2   7 -10    0.00    0.70
  -2  -7  10    0.40    1.40
  -1  -7  10    4.30    1.50
   0   7 -10    0.60    0.80
   0   7 -10    0.90    0.90
   0  -7  10    1.10    1.40
  -1   7 -10    3.60    0.90
   1  -7  10    1.80    1.50
   6   6 -10    0.50    1.10
  -6  -6  10   -1.20    1.50
   5   6 -10    0.40    1.70
   5   6 -10    0.20    0.90
  -5  -6  10   -0.50    1.30
   4   6 -10    0.00    0.80
  -4  -6  10    0.30    1.20
   3   6 -10    0.60    0.70
   3   6 -10    0.30    0.70
  -3  -6  10    0.90    1.20
   2   6 -10    0.20    0.60
   2   6 -10   -0.10    0.50
  -2  -6  10   -0.10    1.10
  -2  -6  10    0.00    0.80
  -2  -6  10    0.00    0.80
   1   6 -10    0.10    0.60
   1   6 -10    1.20    0.60
   1   6 -10    0.90    1.40
  -1  -6  10    1.00    1.00
  -1  -6  10    1.50    0.90
   0   6 -10   -0.10    0.70
   0   6 -10    0.20    0.60
   0  -6  10    1.20    1.00
   0  -6  10    0.10    1.00
  -1   6 -10    4.90    0.90
  -1   6 -10    5.10    1.10
   1  -6  10    4.00    1.30
  -2   6 -10    4.60    0.90
   2  -6  10    3.10    1.30
   2  -6  10    6.00    1.40
   7   5 -10    1.10    1.70
   7   5 -10   -0.20    1.10
   7   5 -10    1.10    1.60
  -7  -5  10    0.40    1.60
   6   5 -10    4.00    2.30
   6   5 -10    4.00    1.20
   6   5 -10    1.50    1.40
  -6  -5  10    4.80    1.60
   5   5 -10   18.30    1.90
   5   5 -10   19.30    1.80
  -5  -5  10   18.10    2.30
   4   5 -10   -0.40    1.00
   4   5 -10    0.20    1.10
   4   5 -10   -0.70    0.60
  -4  -5  10   -0.20    0.60
  -4  -5  10    0.00    1.00
  -4  -5  10    0.60    0.70
   3   5 -10    3.40    1.00
   3   5 -10    4.70    1.40
   3   5 -10    5.10    1.30
   3   5 -10    3.50    0.80
  -3  -5  10    3.40    0.80
  -3  -5  10    4.50    1.30
  -3  -5  10    5.00    0.90
   2   5 -10   46.40    3.30
  -2  -5  10   41.50    2.70
   1   5 -10    5.00    0.90
   1   5 -10    6.70    2.00
   1   5 -10    4.30    0.90
  -1  -5  10    4.80    1.20
   0   5 -10    6.50    0.90
   0   5 -10    6.40    1.00
   0  -5  10    6.50    1.10
   0  -5  10    6.00    1.30
  -1   5 -10    0.70    1.10
  -1   5 -10    1.00    0.60
  -1   5 -10    0.70    1.70
  -1   5 -10    1.10    0.60
   1  -5  10    0.10    0.90
   1  -5  10    1.00    0.90
   1  -5  10    1.20    0.80
  -2   5 -10    6.60    2.70
  -2   5 -10   12.40    1.70
  -2   5 -10   12.90    1.10
  -2   5 -10   12.70    1.30
   2  -5  10   15.10    1.70
   2  -5  10   12.30    1.40
  -3   5 -10    0.10    1.20
  -3   5 -10    0.10    0.70
  -3   5 -10   -0.10    0.50
   3  -5  10    0.30    0.80
   3  -5  10    0.70    0.80
  -4   5 -10    0.40    0.60
  -4   5 -10    1.60    1.50
  -4   5 -10    1.30    0.90
   7   4 -10    6.10    1.70
   7   4 -10    6.90    1.40
   6   4 -10    1.10    0.90
   6   4 -10    2.20    1.20
   6   4 -10    1.60    1.10
  -6  -4  10    2.10    1.40
   5   4 -10    1.30    0.90
   5   4 -10    0.90    1.10
   5   4 -10    1.20    0.80
  -5  -4  10    1.20    0.70
  -5  -4  10    1.50    1.10
  -5  -4  10    2.00    0.80
   4   4 -10    5.90    1.30
   4   4 -10    4.00    0.90
  -4  -4  10    4.30    1.30
  -4  -4  10    4.30    1.00
   3   4 -10    1.70    0.90
   3   4 -10    1.50    0.70
  -3  -4  10    1.50    1.00
   2   4 -10   25.40    1.60
   2   4 -10   24.80    1.80
  -2  -4  10   28.20    2.00
   1   4 -10    7.10    1.10
   1   4 -10    9.80    1.10
  -1  -4  10   11.00    1.00
   0   4 -10    5.30    0.80
   0   4 -10    8.20    1.30
   0   4 -10    8.50    1.00
   0  -4  10    8.30    1.40
   0  -4  10    9.10    1.10
  -1   4 -10    4.50    1.10
  -1   4 -10    2.70    0.60
  -1   4 -10    1.50    0.50
   1  -4  10    2.20    0.70
   1  -4  10    3.50    1.00
  -2   4 -10    9.60    1.40
  -2   4 -10    8.30    2.30
  -2   4 -10    7.40    0.90
  -2   4 -10    9.30    1.20
   2  -4  10    6.80    1.00
   2  -4  10    9.40    1.30
   2  -4  10   10.80    1.60
  -3   4 -10    4.60    0.80
  -3   4 -10    6.10    0.80
  -3   4 -10    8.00    1.40
  -3   4 -10    4.00    1.50
   3  -4  10    5.30    0.90
   3  -4  10    7.60    1.70
  -4   4 -10   -0.10    0.60
  -4   4 -10    0.30    1.00
  -4   4 -10    0.60    1.80
  -4   4 -10    0.40    0.50
  -5   4 -10    0.80    0.60
  -5   4 -10    0.60    1.20
  -5   4 -10    0.00    0.70
   7   3 -10    4.00    1.30
   7   3 -10    3.50    1.30
  -7  -3  10    4.50    1.50
   6   3 -10    0.60    0.80
   6   3 -10   -0.20    0.90
  -6  -3  10    0.30    1.20
   5   3 -10    0.20    0.70
   5   3 -10   -0.10    0.70
  -5  -3  10    0.20    1.00
  -5  -3  10    0.60    0.70
   4   3 -10    0.00    0.60
   4   3 -10    0.70    0.80
   4   3 -10    0.80    0.60
  -4  -3  10   -0.30    0.80
  -4  -3  10   -0.20    0.50
   3   3 -10   16.50    1.40
   3   3 -10   14.60    1.60
   3   3 -10   14.90    1.50
  -3  -3  10   15.90    1.80
   2   3 -10  227.98    6.70
   2   3 -10  215.58    6.50
  -2  -3  10  208.98    5.70
   1   3 -10    0.00    0.70
   1   3 -10   -0.40    0.40
   1   3 -10    0.20    0.50
   1   3 -10   -0.20    0.60
  -1  -3  10    0.00    0.40
  -1  -3  10    0.30    0.70
  -1  -3  10   -0.50    0.30
   0   3 -10  201.98    5.80
   0   3 -10  217.18    6.20
   0   3 -10  210.58    6.30
   0  -3  10  211.88    6.10
   0  -3  10  219.48    5.60
   0  -3  10  212.28    6.50
  -1   3 -10    0.70    0.50
  -1   3 -10    1.20    0.80
  -1   3 -10    0.70    0.40
   1  -3  10    1.10    0.70
   1  -3  10    1.90    0.60
  -2   3 -10   58.89    2.20
  -2   3 -10   55.99    2.60
   2  -3  10   58.19    2.10
   2  -3  10   54.49    2.70
   2  -3  10   63.29    2.60
  -3   3 -10   26.10    1.50
  -3   3 -10   25.60    1.30
  -3   3 -10   24.20    1.80
   3  -3  10   26.50    1.50
   3  -3  10   25.80    1.30
  -4   3 -10   43.70    2.40
  -4   3 -10   38.90    2.00
  -4   3 -10   39.90    1.70
   4  -3  10   43.90    3.40
  -5   3 -10   40.90    2.40
  -5   3 -10   40.60    2.10
   5  -3  10   39.60    3.10
  -6   3 -10   16.10    1.70
  -6   3 -10   13.10    1.40
  -6   3 -10   13.30    1.20
   7   2 -10    1.00    1.00
   7   2 -10    2.40    1.10
   7   2 -10    1.80    0.90
  -7  -2  10   -0.20    1.50
   6   2 -10    1.80    0.90
   6   2 -10    1.10    1.00
   6   2 -10    0.60    0.90
  -6  -2  10    2.80    0.90
  -6  -2  10    1.10    1.20
   5   2 -10    6.50    1.20
   5   2 -10   10.70    1.50
  -5  -2  10    7.90    1.50
  -5  -2  10    9.20    1.30
   4   2 -10    3.10    0.80
   4   2 -10    2.60    0.90
   4   2 -10    2.90    1.00
  -4  -2  10    1.70    1.00
  -4  -2  10    2.10    0.60
   3   2 -10    2.20    0.70
   3   2 -10    3.00    0.80
   3   2 -10    2.00    0.90
  -3  -2  10    2.20    1.00
   2   2 -10   16.70    1.70
   2   2 -10   16.30    1.30
   2   2 -10   16.10    1.40
  -2  -2  10   17.20    1.20
  -2  -2  10   15.20    1.70
  -2  -2  10   17.20    1.10
   1   2 -10   -0.10    0.40
   1   2 -10    0.50    0.50
   1   2 -10    0.00    0.70
  -1  -2  10    1.70    0.50
  -1  -2  10   -0.60    0.60
  -1  -2  10    0.10    0.30
   0   2 -10   98.89    3.30
   0   2 -10  100.09    3.70
   0   2 -10   96.59    3.50
   0  -2  10  107.49    3.40
   0  -2  10  101.69    3.00
   0  -2  10   99.39    3.70
  -1   2 -10    0.90    0.50
  -1   2 -10    1.90    0.80
  -1   2 -10    0.40    0.40
   1  -2  10    0.10    0.40
   1  -2  10    0.70    0.70
  -2   2 -10   11.20    1.00
  -2   2 -10   11.90    1.40
  -2   2 -10   12.90    1.00
   2  -2  10   11.30    1.20
   2  -2  10   10.20    1.10
  -3   2 -10    1.50    0.80
  -3   2 -10    2.20    0.60
  -3   2 -10    1.20    0.40
   3  -2  10    0.90    0.60
   3  -2  10    1.70    0.50
   3  -2  10    1.40    0.70
  -4   2 -10    1.80    0.90
  -4   2 -10    2.00    0.60
  -4   2 -10    1.70    0.50
   4  -2  10    0.80    0.70
  -5   2 -10    3.70    0.60
  -5   2 -10    3.80    0.80
  -5   2 -10    4.20    1.00
   5  -2  10   -0.10    1.00
  -6   2 -10    0.70    0.60
  -6   2 -10    1.30    0.50
  -6   2 -10    1.20    1.00
  -7   2 -10    2.50    0.90
  -7   2 -10    2.20    0.70
  -7   2 -10    3.70    1.20
   7   1 -10    1.20    1.00
   7   1 -10    0.60    1.10
  -7  -1  10    0.40    1.50
   6   1 -10   11.20    1.10
   6   1 -10   12.10    1.50
   6   1 -10   12.10    1.40
  -6  -1  10   10.10    1.80
  -6  -1  10    8.30    1.30
   5   1 -10    9.10    1.30
   5   1 -10   10.70    1.10
   5   1 -10    9.10    1.40
  -5  -1  10    5.90    1.40
  -5  -1  10    9.00    1.40
   4   1 -10   11.90    1.20
   4   1 -10   12.30    1.50
   4   1 -10   10.80    1.30
  -4  -1  10   10.20    1.10
  -4  -1  10   10.20    1.60
   3   1 -10    2.30    0.70
   3   1 -10    1.80    0.70
   3   1 -10    3.20    1.00
  -3  -1  10    0.00    0.40
  -3  -1  10    1.40    0.70
  -3  -1  10    0.10    1.50
   2   1 -10   10.90    1.20
   2   1 -10   16.10    1.60
  -2  -1  10   11.60    0.90
  -2  -1  10   12.60    1.10
  -2  -1  10    8.50    1.30
   1   1 -10  327.47    8.80
   1   1 -10  307.37    8.40
  -1  -1  10  321.97    8.30
  -1  -1  10  312.97    7.90
  -1  -1  10  320.77    8.90
   0   1 -10  115.49    4.00
   0   1 -10  117.99    3.70
   0   1 -10  103.79    3.70
   0  -1  10  112.69    4.00
   0  -1  10  115.19    3.50
   0  -1  10  115.29    3.20
  -1   1 -10   51.99    2.40
  -1   1 -10   51.69    2.20
  -1   1 -10   49.99    2.10
   1  -1  10   49.00    1.70
   1  -1  10   51.89    2.40
   1  -1  10   56.39    2.10
  -2   1 -10  101.79    3.30
  -2   1 -10  100.59    3.20
  -2   1 -10   92.99    3.50
   2  -1  10   95.19    2.80
   2  -1  10  103.59    3.50
   2  -1  10   99.39    3.30
  -3   1 -10    0.20    0.70
  -3   1 -10    0.00    0.40
  -3   1 -10    0.60    0.40
   3  -1  10    0.60    0.30
   3  -1  10    0.60    0.50
   3  -1  10    0.30    0.50
  -4   1 -10    6.40    0.80
  -4   1 -10    7.10    0.90
   4  -1  10    5.10    1.00
  -5   1 -10   27.50    1.50
  -5   1 -10   25.80    1.30
   5  -1  10   25.90    2.00
  -6   1 -10   14.30    1.00
   6  -1  10   13.80    1.80
  -7   1 -10   38.90    3.20
  -7   1 -10   37.40    1.60
  -7   1 -10   37.80    1.90
   7   0 -10    0.20    0.90
  -7   0  10    2.20    1.60
   6   0 -10   -0.40    1.10
   6   0 -10    0.20    0.80
  -6   0  10    0.30    1.20
  -6   0  10    0.60    1.20
   5   0 -10   -0.20    0.90
   5   0 -10   -0.20    0.80
  -5   0  10    0.40    0.90
  -5   0  10    0.10    1.00
   4   0 -10   38.00    2.10
   4   0 -10   43.90    2.40
   4   0 -10   43.90    1.80
  -4   0  10   43.00    2.10
  -4   0  10   46.50    2.80
   3   0 -10  395.96   10.50
   3   0 -10  396.16   10.70
   3   0 -10  388.26   10.20
  -3   0  10  406.36   10.20
  -3   0  10  383.76   10.60
  -3   0  10  462.45   14.10
   2   0 -10   71.99    3.00
   2   0 -10   69.89    2.80
  -2   0  10   69.69    2.50
  -2   0  10   69.39    3.10
  -2   0  10   70.99    2.80
   1   0 -10    9.30    1.30
   1   0 -10    8.80    1.10
  -1   0  10   10.00    1.00
  -1   0  10    9.70    1.00
  -1   0  10    6.90    1.10
   0   0 -10   66.39    2.80
   0   0 -10   66.39    2.50
   0   0  10   62.19    2.20
   0   0  10   64.39    2.80
  -1   0 -10    0.40    0.60
  -1   0 -10    0.00    0.40
   1   0  10    0.10    0.30
   1   0  10    0.20    0.60
   1   0  10    0.00    0.30
  -2   0 -10  178.38    5.10
  -2   0 -10  185.68    5.10
   2   0  10  167.78    5.20
   2   0  10  185.58    4.90
   2   0  10  171.88    4.50
  -3   0 -10    7.80    0.80
  -3   0 -10    9.50    1.20
  -3   0 -10    8.00    0.90
   3   0  10    8.70    0.90
   3   0  10    7.00    0.90
   3   0  10    7.60    0.50
  -4   0 -10    2.20    0.60
  -4   0 -10    1.90    0.50
  -4   0 -10    1.20    0.80
   4   0  10    1.90    0.40
   4   0  10    1.60    0.60
  -5   0 -10    2.60    0.60
  -5   0 -10    3.80    0.90
  -5   0 -10    1.80    0.50
  -6   0 -10   25.20    1.30
  -6   0 -10   26.10    1.80
  -6   0 -10   19.00    2.20
  -6   0 -10   26.40    1.40
   6   0  10   24.90    1.90
  -7   0 -10    0.90    0.50
  -7   0 -10    0.20    0.80
  -7   0 -10    0.40    0.50
  -7   0 -10    0.80    1.10
  -8   0 -10    0.60    0.60
  -8   0 -10    0.40    0.60
  -8   0 -10    0.90    0.90
  -8   0 -10    0.90    1.40
   6  -1 -10   10.40    1.30
   6  -1 -10   11.80    1.50
  -6   1  10   12.00    2.10
   5  -1 -10    5.40    1.10
  -5   1  10    5.00    1.50
  -5   1  10    4.20    1.10
   4  -1 -10   21.00    1.20
   4  -1 -10   23.50    2.00
   4  -1 -10   25.10    1.70
   4  -1 -10   22.20    1.10
  -4   1  10   25.40    2.20
  -4   1  10   21.50    1.60
   3  -1 -10    1.80    0.90
   3  -1 -10    2.00    0.50
   3  -1 -10    1.00    0.70
   3  -1 -10    1.80    0.70
  -3   1  10    0.30    0.60
  -3   1  10    0.90    0.70
  -3   1  10    1.70    1.00
   2  -1 -10    2.40    0.90
   2  -1 -10    1.80    0.70
  -2   1  10    2.20    0.60
  -2   1  10    2.40    1.00
  -2   1  10    1.70    0.70
   1  -1 -10    1.80    0.60
   1  -1 -10    2.50    0.90
  -1   1  10    1.60    0.50
  -1   1  10    1.80    0.80
  -1   1  10    1.90    0.60
   0  -1 -10   13.80    1.10
   0  -1 -10   16.00    1.40
   0   1  10   15.50    1.40
   0   1  10   15.20    1.00
   0   1  10   14.00    1.00
  -1  -1 -10   78.29    3.10
  -1  -1 -10   78.99    2.90
   1   1  10   76.89    2.50
   1   1  10   80.19    2.60
   1   1  10   78.19    3.10
  -2  -1 -10   43.90    2.00
   2   1  10   46.30    1.70
   2   1  10   42.50    1.60
   2   1  10   45.70    2.10
  -3  -1 -10    4.90    0.80
  -3  -1 -10    4.50    0.70
  -3  -1 -10    5.00    1.00
   3   1  10    4.40    0.50
   3   1  10    3.60    0.60
   3   1  10    3.30    0.70
  -4  -1 -10  606.24   14.60
  -4  -1 -10  613.44   14.40
  -4  -1 -10  604.94   15.00
   4   1  10  596.34   14.10
   4   1  10  594.34   14.60
   4   1  10  603.54   13.80
  -5  -1 -10   38.20    1.60
  -5  -1 -10   40.70    1.70
  -5  -1 -10   41.50    3.20
  -5  -1 -10   40.90    2.10
   5   1  10   36.60    1.90
  -6  -1 -10   18.10    1.20
  -6  -1 -10   18.10    1.00
  -6  -1 -10   19.40    1.60
  -6  -1 -10   14.10    1.80
   6   1  10   16.90    1.50
  -7  -1 -10   20.70    1.30
  -7  -1 -10   20.60    1.20
  -7  -1 -10   23.40    2.70
  -7  -1 -10   22.80    1.80
  -8  -1 -10    2.90    0.70
  -8  -1 -10    2.10    1.30
  -8  -1 -10    3.80    1.00
  -8  -1 -10    2.20    0.70
   6  -2 -10    0.90    1.00
   6  -2 -10    1.10    1.20
  -6   2  10    0.90    1.50
   5  -2 -10    3.90    1.30
   5  -2 -10    4.10    1.00
  -5   2  10    4.30    1.20
  -5   2  10    2.40    1.40
   4  -2 -10    7.20    1.40
   4  -2 -10    7.10    1.10
  -4   2  10    7.40    1.50
  -4   2  10    4.50    1.30
   3  -2 -10    5.50    0.80
   3  -2 -10    4.90    1.00
   3  -2 -10    4.80    1.20
  -3   2  10    5.30    1.20
  -3   2  10    5.30    1.00
   2  -2 -10    5.40    0.90
   2  -2 -10    7.90    1.10
   2  -2 -10    4.80    1.10
  -2   2  10    5.80    1.30
  -2   2  10    2.10    0.70
   1  -2 -10   32.00    1.80
   1  -2 -10   27.70    1.90
   1  -2 -10   33.50    1.80
  -1   2  10   28.20    1.70
  -1   2  10   29.70    2.00
  -1   2  10   31.80    1.70
   0  -2 -10   11.60    1.40
   0  -2 -10   10.00    1.40
   0  -2 -10   11.80    1.30
   0   2  10    8.90    0.90
   0   2  10   10.30    1.00
   0   2  10    8.30    1.20
  -1  -2 -10    4.20    0.90
  -1  -2 -10    4.30    1.00
  -1  -2 -10    3.60    0.80
   1   2  10    4.50    0.70
   1   2  10    3.90    0.70
   1   2  10    3.30    0.80
  -2  -2 -10    1.20    0.70
  -2  -2 -10    0.20    0.50
  -2  -2 -10    0.60    0.50
   2   2  10    1.20    0.40
   2   2  10    1.80    0.60
   2   2  10    0.60    0.40
  -3  -2 -10   -0.60    0.50
  -3  -2 -10   -0.10    0.40
   3   2  10    0.20    0.30
   3   2  10    0.10    0.50
   3   2  10    0.50    0.30
  -4  -2 -10  100.99    3.60
  -4  -2 -10  104.49    4.30
  -4  -2 -10   99.49    3.30
   4   2  10  100.39    3.00
   4   2  10   96.79    2.60
  -5  -2 -10   39.20    1.80
  -5  -2 -10   36.80    1.50
  -5  -2 -10   37.50    2.10
  -5  -2 -10   38.30    3.00
   5   2  10   38.20    1.70
  -6  -2 -10   15.60    2.10
  -6  -2 -10   15.60    1.20
  -6  -2 -10   14.30    1.50
  -6  -2 -10   13.50    0.90
  -7  -2 -10    3.30    0.70
  -7  -2 -10    3.20    1.00
  -7  -2 -10    3.00    1.30
  -7  -2 -10    2.40    0.50
  -8  -2 -10    4.60    1.60
  -8  -2 -10    5.10    1.20
  -8  -2 -10    5.40    0.70
  -8  -2 -10    6.90    1.00
  -9  -2 -10    5.70    0.70
  -9  -2 -10    3.80    1.70
  -9  -2 -10    5.50    1.00
  -9  -2 -10    8.70    1.30
   5  -3 -10    5.20    1.50
   5  -3 -10    6.20    1.20
  -5   3  10    6.70    1.80
   4  -3 -10   10.40    1.50
   4  -3 -10   11.60    1.70
  -4   3  10    9.20    1.50
  -4   3  10   11.60    1.90
   3  -3 -10    1.30    0.90
   3  -3 -10    1.20    1.10
  -3   3  10    0.20    0.80
  -3   3  10    0.70    1.10
   2  -3 -10   10.60    1.30
   2  -3 -10    9.40    1.00
   2  -3 -10   10.20    1.50
  -2   3  10    6.70    1.10
  -2   3  10    9.40    1.60
   1  -3 -10   38.20    2.00
   1  -3 -10   30.40    1.80
   1  -3 -10   32.90    2.20
  -1   3  10   29.40    2.10
   0  -3 -10    5.20    1.00
   0  -3 -10    3.70    0.80
   0  -3 -10    4.50    1.10
   0   3  10    3.40    0.80
   0   3  10    4.00    0.90
  -1  -3 -10   33.80    2.10
  -1  -3 -10   37.60    2.00
  -1  -3 -10   37.20    2.20
   1   3  10   35.80    1.60
   1   3  10   37.20    2.10
   1   3  10   36.30    1.80
  -2  -3 -10  146.89    4.90
  -2  -3 -10  143.39    4.60
  -2  -3 -10  147.59    5.10
   2   3  10  144.19    4.60
   2   3  10  137.69    4.30
   2   3  10  145.29    4.00
  -3  -3 -10   26.70    1.90
  -3  -3 -10   29.40    1.70
  -3  -3 -10   26.90    2.00
   3   3  10   25.60    1.60
   3   3  10   26.60    1.30
   3   3  10   29.10    1.10
  -4  -3 -10    0.50    0.50
  -4  -3 -10   -0.10    0.60
  -4  -3 -10    0.20    0.70
   4   3  10    0.50    0.50
   4   3  10    0.20    0.30
  -5  -3 -10  114.49    3.70
   5   3  10  113.99    2.80
   5   3  10  115.19    3.00
  -6  -3 -10   89.79    3.10
  -6  -3 -10   87.79    4.20
  -6  -3 -10   89.29    3.60
  -7  -3 -10    5.00    1.40
  -7  -3 -10    3.60    1.10
  -7  -3 -10    3.30    0.80
  -8  -3 -10    1.90    1.10
  -8  -3 -10    1.90    1.20
  -8  -3 -10    1.70    0.80
  -9  -3 -10    5.20    1.70
  -9  -3 -10    5.60    1.40
  -9  -3 -10    6.00    1.10
   5  -4 -10   -0.20    1.10
   5  -4 -10   -0.80    1.60
  -5   4  10   -0.30    3.00
   4  -4 -10   -0.30    1.60
   4  -4 -10   -0.50    0.90
  -4   4  10    0.10    1.30
   3  -4 -10    9.90    1.40
  -3   4  10    7.10    1.40
  -3   4  10    9.50    1.70
   2  -4 -10    4.60    0.80
   2  -4 -10    2.40    0.90
   2  -4 -10    1.70    1.20
  -2   4  10    2.20    1.00
  -2   4  10    4.60    1.20
   1  -4 -10    7.50    1.10
   1  -4 -10    5.80    1.30
  -1   4  10    6.60    1.30
   0  -4 -10   -0.20    0.60
   0  -4 -10    0.50    0.80
   0  -4 -10    0.70    0.60
   0   4  10    0.20    0.70
   0   4  10    0.90    0.70
  -1  -4 -10   69.69    3.00
  -1  -4 -10   72.79    3.10
   1   4  10   72.69    2.80
   1   4  10   75.69    3.20
  -2  -4 -10    0.40    0.60
  -2  -4 -10    0.10    0.50
  -2  -4 -10    1.00    0.90
   2   4  10   -0.10    0.30
   2   4  10   -0.20    0.50
   2   4  10    0.50    0.60
  -3  -4 -10    1.20    0.80
  -3  -4 -10    1.50    0.90
  -3  -4 -10    0.30    0.60
   3   4  10    1.00    0.30
   3   4  10    0.20    0.60
   3   4  10    0.90    0.50
  -4  -4 -10    2.40    0.70
  -4  -4 -10    3.20    0.80
  -4  -4 -10    4.00    1.10
   4   4  10    4.60    0.60
   4   4  10    4.10    0.80
  -5  -4 -10   16.50    2.00
  -5  -4 -10   15.60    1.30
  -5  -4 -10   13.70    1.60
   5   4  10   15.80    0.80
   5   4  10   15.80    0.90
  -6  -4 -10   20.40    1.80
  -6  -4 -10   13.50    1.80
  -6  -4 -10   20.20    1.50
  -7  -4 -10    1.80    0.90
  -7  -4 -10    5.00    1.00
  -7  -4 -10    3.80    1.10
  -8  -4 -10    8.50    1.20
  -8  -4 -10    7.00    1.70
  -8  -4 -10    6.30    1.40
  -9  -4 -10    0.90    1.30
  -9  -4 -10    1.60    0.90
  -9  -4 -10    0.60    1.30
   4  -5 -10   -1.90    1.00
  -4   5  10    2.20    2.80
   3  -5 -10    3.50    1.10
   3  -5 -10    2.50    1.70
  -3   5  10    3.80    1.30
   2  -5 -10    4.50    1.10
  -2   5  10    6.50    1.40
  -2   5  10    3.60    1.30
   1  -5 -10   12.20    1.20
   1  -5 -10   11.00    1.50
  -1   5  10   11.50    1.70
   0  -5 -10    0.20    0.60
   0  -5 -10    0.10    0.70
   0   5  10   -0.20    0.80
  -1  -5 -10   57.59    2.70
  -1  -5 -10   53.19    2.70
   1   5  10   55.99    2.60
   1   5  10   58.79    3.20
  -2  -5 -10    0.00    0.80
  -2  -5 -10    1.60    0.80
   2   5  10    0.90    0.70
   2   5  10    0.60    0.70
  -3  -5 -10    0.20    0.60
  -3  -5 -10    1.10    0.90
  -3  -5 -10    1.40    0.80
   3   5  10    0.40    0.70
   3   5  10    1.20    0.40
   3   5  10    1.70    0.70
  -4  -5 -10   80.99    3.20
  -4  -5 -10   88.49    3.60
  -4  -5 -10   76.59    4.20
   4   5  10   81.79    3.00
   4   5  10   79.29    2.80
  -5  -5 -10   26.70    1.80
  -5  -5 -10   24.40    2.20
  -5  -5 -10   25.50    2.10
   5   5  10   24.30    1.30
   5   5  10   24.60    1.30
  -6  -5 -10    0.20    0.70
  -6  -5 -10    2.40    1.10
  -6  -5 -10    1.40    1.00
   6   5  10    1.10    0.30
  -7  -5 -10    5.80    1.10
  -7  -5 -10    4.10    1.30
  -7  -5 -10    3.70    1.20
  -8  -5 -10   21.80    2.20
  -8  -5 -10   14.30    1.60
  -8  -5 -10   16.40    2.30
  -9  -5 -10    1.20    1.40
  -9  -5 -10    2.80    1.60
  -9  -5 -10    0.90    0.90
   3  -6 -10    0.20    2.10
   3  -6 -10    0.00    1.10
  -3   6  10    1.40    1.60
   2  -6 -10    2.20    1.80
   2  -6 -10    0.80    0.60
  -2   6  10    0.70    1.40
  -2   6  10    1.20    1.20
   1  -6 -10    0.80    0.90
   1  -6 -10    1.00    0.70
   1  -6 -10    1.30    1.50
  -1   6  10    1.80    1.20
  -1   6  10    2.70    1.30
   0  -6 -10    1.90    0.90
   0  -6 -10    1.80    0.80
   0   6  10    3.40    1.20
  -1  -6 -10    6.50    1.20
  -1  -6 -10    5.50    1.70
  -1  -6 -10    6.00    1.10
   1   6  10    5.60    1.20
   1   6  10    6.40    1.30
   1   6  10    5.50    1.30
  -2  -6 -10   57.59    2.90
  -2  -6 -10   54.69    2.70
   2   6  10   56.09    2.60
   2   6  10   57.69    2.80
  -3  -6 -10   -1.10    0.60
  -3  -6 -10    0.90    1.10
  -3  -6 -10    0.20    0.80
   3   6  10    0.40    0.50
   3   6  10    0.30    0.80
  -4  -6 -10    3.70    1.30
  -4  -6 -10    4.30    1.00
  -4  -6 -10    2.50    1.00
   4   6  10    3.30    0.90
   4   6  10    2.60    0.70
  -5  -6 -10   22.10    2.10
  -5  -6 -10   21.10    2.20
  -5  -6 -10   22.90    1.80
   5   6  10   22.50    1.50
   5   6  10   24.10    1.50
  -6  -6 -10    6.80    1.50
  -6  -6 -10    6.00    1.40
  -6  -6 -10    5.50    1.10
   6   6  10    5.80    0.70
   6   6  10    4.80    0.70
  -7  -6 -10    0.20    1.00
  -7  -6 -10    0.10    0.80
  -7  -6 -10    1.80    1.30
  -8  -6 -10   26.10    2.50
  -8  -6 -10   18.30    2.50
  -8  -6 -10   24.00    1.90
  -9  -6 -10    3.00    1.80
  -9  -6 -10    1.30    1.10
  -9  -6 -10    0.90    1.40
   2  -7 -10    1.30    1.20
  -2   7  10   -1.20    1.70
  -2   7  10    0.00    1.50
   1  -7 -10    0.00    0.70
   1  -7 -10    0.10    1.10
  -1   7  10    1.20    1.40
  -1   7  10    0.10    1.20
   0  -7 -10    1.00    0.80
   0  -7 -10    0.20    0.90
   0   7  10    0.60    1.00
   0   7  10    6.10    1.50
  -1  -7 -10    3.60    1.20
  -1  -7 -10    4.20    1.10
  -1  -7 -10    6.00    1.90
   1   7  10    5.60    1.60
   1   7  10    4.40    1.30
   1   7  10    7.10    1.40
  -2  -7 -10    4.00    1.10
  -2  -7 -10    2.40    1.00
  -2  -7 -10    2.40    1.50
   2   7  10    2.20    1.00
   2   7  10    2.70    1.20
   2   7  10    2.20    0.90
  -3  -7 -10   31.30    2.30
  -3  -7 -10   32.50    2.20
  -3  -7 -10   31.40    2.80
   3   7  10   34.00    2.10
   3   7  10   30.90    2.50
   3   7  10   28.50    1.70
  -4  -7 -10   -0.30    0.80
  -4  -7 -10   -0.30    1.30
  -4  -7 -10   -0.50    0.80
   4   7  10    0.30    0.70
   4   7  10   -0.30    0.90
  -5  -7 -10   10.60    1.50
  -5  -7 -10    9.30    1.60
   5   7  10   10.60    1.40
   5   7  10   10.60    1.20
  -6  -7 -10    9.90    1.50
  -6  -7 -10    9.80    1.80
   6   7  10   11.00    1.20
  -7  -7 -10    0.40    2.60
  -7  -7 -10    1.30    0.90
  -7  -7 -10    1.00    1.00
   7   7  10    1.00    0.40
   7   7  10    0.70    0.50
  -8  -7 -10    2.80    1.90
  -8  -7 -10    2.10    1.40
  -8  -7 -10    1.20    1.10
   0  -8 -10    1.40    1.20
   0  -8 -10    1.60    1.00
   0   8  10    0.70    1.30
   0   8  10    2.10    1.40
  -1  -8 -10    7.90    1.30
  -1  -8 -10    6.30    1.50
   1   8  10    7.60    1.60
   1   8  10    6.40    1.40
  -2  -8 -10   -0.30    0.90
  -2  -8 -10   -0.50    1.00
   2   8  10   -0.10    0.80
   2   8  10    0.60    1.60
   2   8  10    0.30    1.00
  -3  -8 -10   -0.10    0.90
   3   8  10   -0.90    0.90
   3   8  10    0.60    0.70
   3   8  10   -0.90    1.60
  -4  -8 -10    0.80    1.00
  -4  -8 -10   -0.30    0.90
   4   8  10    1.10    0.90
   4   8  10    0.30    1.70
   4   8  10    2.50    1.30
  -5  -8 -10    1.50    1.10
  -5  -8 -10    0.90    0.90
   5   8  10    0.40    2.30
   5   8  10    2.10    0.80
   5   8  10    0.60    1.20
  -6  -8 -10   -0.80    0.90
  -6  -8 -10    0.30    1.10
   6   8  10   -0.50    1.00
  -7  -8 -10   -0.50    1.50
  -7  -8 -10    1.70    1.10
   7   8  10   -0.20    0.50
   7   8  10   -0.10    0.90
  -8  -8 -10    3.50    1.40
  -8  -8 -10    5.00    1.40
  -2  -9 -10    3.50    1.30
  -2  -9 -10    3.90    1.50
   2   9  10    4.70    1.50
   2   9  10    4.20    2.30
   2   9  10    4.70    1.30
  -3  -9 -10    1.30    1.20
  -3  -9 -10    3.30    1.30
   3   9  10    1.20    0.90
   3   9  10    0.50    1.10
  -4  -9 -10    0.90    1.20
  -4  -9 -10    0.30    1.30
   4   9  10    0.80    1.00
   4   9  10    0.20    0.60
  -5  -9 -10    1.90    1.30
   5   9  10    2.20    1.00
  -6  -9 -10    0.30    1.20
  -6  -9 -10    0.40    1.30
   6   9  10    0.30    1.50
   6   9  10    0.30    0.90
  -7  -9 -10    2.50    1.30
   3   7 -11    2.20    1.20
   3   7 -11    1.30    1.00
  -3  -7  11   -0.20    1.60
   2   7 -11    0.50    0.90
   2   7 -11    0.60    0.90
  -2  -7  11    0.80    1.70
   1   7 -11    6.10    1.30
   1   7 -11    5.30    1.20
  -1  -7  11    7.50    1.90
   5   6 -11   10.30    1.60
  -5  -6  11   10.70    2.10
   4   6 -11   -0.80    0.90
   3   6 -11    7.40    1.20
   3   6 -11    6.40    1.40
  -3  -6  11    8.80    1.90
   2   6 -11    1.10    0.80
   2   6 -11    1.40    0.90
  -2  -6  11    0.70    1.20
   1   6 -11    4.10    1.10
   1   6 -11    5.00    1.00
  -1  -6  11    5.00    1.50
   0   6 -11    0.30    0.80
   0   6 -11   -0.30    0.70
   0  -6  11    1.00    1.10
   0  -6  11    0.00    1.20
  -1   6 -11   26.40    2.60
  -1   6 -11   27.30    1.80
   1  -6  11   32.50    2.90
   1  -6  11   29.80    2.60
  -2   6 -11    0.20    0.70
   2  -6  11    1.90    1.40
   2  -6  11   -0.10    1.30
   6   5 -11    0.70    1.10
   6   5 -11    0.50    1.50
  -6  -5  11    1.80    1.60
   5   5 -11   10.90    1.50
   5   5 -11   12.90    2.10
  -5  -5  11   13.60    2.20
   4   5 -11    4.20    1.10
   4   5 -11    4.00    1.40
  -4  -5  11    5.50    1.50
   3   5 -11   -0.60    0.70
   3   5 -11   -0.10    1.00
   3   5 -11   -0.40    0.70
  -3  -5  11    0.80    1.10
  -3  -5  11   -0.10    1.00
   2   5 -11    6.60    1.40
   2   5 -11    5.90    1.10
   2   5 -11    6.40    1.60
   2   5 -11    7.00    1.30
  -2  -5  11    7.20    1.40
  -2  -5  11    5.60    1.40
   1   5 -11    8.90    1.50
   1   5 -11    8.10    1.60
   1   5 -11    7.20    1.10
   1   5 -11    6.30    1.10
  -1  -5  11   10.40    1.50
  -1  -5  11    6.70    1.40
  -1  -5  11    8.90    1.40
   0   5 -11    8.10    1.10
   0   5 -11    6.10    1.00
   0   5 -11    6.20    2.50
   0   5 -11    9.00    1.60
   0  -5  11    9.50    1.60
   0  -5  11    8.70    1.80
  -1   5 -11    2.10    0.70
  -1   5 -11    1.20    0.50
  -1   5 -11   -0.10    1.20
   1  -5  11    0.30    0.80
   1  -5  11    2.30    1.30
  -2   5 -11    0.40    0.70
  -2   5 -11   -0.50    0.60
   2  -5  11   -0.40    1.00
   2  -5  11   -0.20    0.90
  -3   5 -11    3.40    1.00
  -3   5 -11    3.90    0.80
   3  -5  11    3.20    1.00
   3  -5  11    3.60    1.10
   6   4 -11    3.10    1.50
   6   4 -11    2.40    1.20
   5   4 -11   -0.10    0.90
   5   4 -11   -1.10    1.20
  -5  -4  11   -0.50    1.10
   4   4 -11   15.20    1.90
  -4  -4  11   12.10    1.90
  -4  -4  11   11.60    1.40
  -4  -4  11   15.80    1.80
   3   4 -11    2.40    0.80
   3   4 -11    1.10    1.10
  -3  -4  11    1.30    1.00
  -3  -4  11    2.20    0.70
  -3  -4  11    2.60    1.10
   2   4 -11    0.80    0.80
   2   4 -11   -0.40    0.60
  -2  -4  11    0.60    0.60
  -2  -4  11    1.20    1.00
   1   4 -11   11.80    1.30
   1   4 -11   14.20    1.70
   1   4 -11   13.60    1.40
  -1  -4  11   12.60    1.60
  -1  -4  11   10.00    1.50
   0   4 -11   -0.10    0.50
   0   4 -11    0.00    0.50
   0   4 -11   -0.50    0.90
   0  -4  11   -0.40    0.50
   0  -4  11   -0.10    0.90
   0  -4  11   -0.60    0.70
  -1   4 -11    1.80    0.70
  -1   4 -11    1.50    0.70
  -1   4 -11    1.00    1.00
   1  -4  11    1.40    0.70
   1  -4  11    1.40    1.00
  -2   4 -11   17.70    1.50
  -2   4 -11   20.20    2.10
  -2   4 -11   19.50    1.30
  -2   4 -11   17.10    2.20
   2  -4  11   17.60    1.90
   2  -4  11   21.20    1.90
   2  -4  11   18.50    1.50
  -3   4 -11   20.50    1.60
  -3   4 -11   38.50    4.70
  -3   4 -11   21.30    1.40
   3  -4  11   20.90    2.50
   3  -4  11   22.60    1.70
   3  -4  11   21.50    1.50
  -4   4 -11   -0.10    1.30
  -4   4 -11    0.10    0.70
  -4   4 -11   -0.20    0.60
   6   3 -11   -0.20    1.00
   6   3 -11    0.30    1.00
  -6  -3  11    1.70    1.40
   5   3 -11    9.70    1.40
   5   3 -11   10.10    1.50
  -5  -3  11   10.70    1.80
   4   3 -11   -0.30    0.70
   4   3 -11    0.70    1.10
   4   3 -11    0.20    0.80
  -4  -3  11    1.10    1.00
  -4  -3  11    0.20    0.60
  -4  -3  11    0.60    0.60
   3   3 -11    3.20    0.90
   3   3 -11    2.30    0.90
  -3  -3  11    1.80    1.10
   2   3 -11   17.90    1.80
   2   3 -11   18.10    1.50
  -2  -3  11   15.50    1.90
   1   3 -11    0.30    0.70
   1   3 -11    1.20    0.60
   1   3 -11    1.10    0.60
  -1  -3  11    1.10    0.90
  -1  -3  11    1.20    0.50
  -1  -3  11    0.10    0.50
   0   3 -11    0.30    0.80
   0   3 -11    0.00    0.50
   0   3 -11    0.20    0.50
   0  -3  11    0.10    0.50
   0  -3  11    0.00    0.50
   0  -3  11    0.90    0.90
  -1   3 -11    0.50    0.50
  -1   3 -11    0.00    0.50
  -1   3 -11    0.60    0.80
   1  -3  11    0.00    0.80
   1  -3  11   -0.30    0.50
  -2   3 -11    5.90    1.00
  -2   3 -11    5.70    0.80
  -2   3 -11    6.30    1.30
   2  -3  11    5.80    0.80
   2  -3  11    6.10    1.10
  -3   3 -11    0.10    0.50
  -3   3 -11    0.40    0.60
  -3   3 -11   -0.10    0.90
   3  -3  11    1.90    0.80
   3  -3  11    0.90    0.60
  -4   3 -11   17.00    1.40
  -4   3 -11   19.50    1.30
  -4   3 -11   21.40    2.00
   4  -3  11   20.60    2.20
  -5   3 -11    2.40    1.20
  -5   3 -11    0.30    0.60
  -5   3 -11    0.40    0.60
   5  -3  11   -0.30    1.80
   6   2 -11    7.80    1.40
  -6  -2  11    8.50    1.80
   5   2 -11    7.50    1.20
   5   2 -11    6.40    1.20
  -5  -2  11    5.10    1.00
  -5  -2  11    5.90    1.50
   4   2 -11   -0.50    0.70
   4   2 -11    0.10    0.70
  -4  -2  11    0.50    0.60
  -4  -2  11    0.50    0.90
   3   2 -11   19.10    1.60
   3   2 -11   16.80    1.50
  -3  -2  11   16.90    2.00
   2   2 -11  204.48    6.00
   2   2 -11  187.18    6.10
  -2  -2  11  201.68    6.50
  -1  -2  11   14.10    1.70
  -1  -2  11   12.90    1.10
  -1  -2  11   12.20    0.90
   0   2 -11   -0.90    0.70
   0   2 -11    0.50    0.60
   0   2 -11   -0.20    0.50
   0  -2  11    0.10    0.40
   0  -2  11    0.00    0.70
   0  -2  11   -0.20    0.40
  -1   2 -11   11.80    1.20
  -1   2 -11   14.90    1.70
  -1   2 -11   12.30    1.10
   1  -2  11   12.10    1.10
   1  -2  11   14.20    1.60
   1  -2  11   12.70    0.90
  -2   2 -11   11.20    1.00
  -2   2 -11   14.90    1.20
  -2   2 -11   13.20    1.60
   2  -2  11   13.70    1.40
   2  -2  11   13.10    1.30
  -3   2 -11    7.50    0.90
  -3   2 -11    5.50    0.90
  -3   2 -11    8.00    1.30
   3  -2  11    8.20    1.30
   3  -2  11    8.00    1.00
   3  -2  11    7.40    0.80
  -4   2 -11    1.80    1.00
  -4   2 -11    1.50    0.60
  -4   2 -11    2.20    0.70
   4  -2  11    1.20    0.90
  -5   2 -11   32.20    1.60
  -5   2 -11   35.30    1.80
  -5   2 -11   33.10    2.20
  -6   2 -11   -0.20    0.60
  -6   2 -11    0.20    1.10
  -6   2 -11    0.60    1.10
   6  -2  11    1.10    1.50
   6   1 -11    3.40    0.80
   6   1 -11    0.70    1.40
   6   1 -11    3.50    1.10
  -6  -1  11    2.50    1.50
   5   1 -11    0.80    0.70
   5   1 -11    2.40    0.90
  -5  -1  11    1.30    1.20
  -5  -1  11    0.70    0.70
  -5  -1  11    0.00    1.10
   4   1 -11   -0.10    0.60
   4   1 -11    1.30    0.80
   4   1 -11   -0.50    1.00
  -4  -1  11   -0.60    1.00
   3   1 -11    2.70    0.80
   3   1 -11    2.80    0.90
   3   1 -11    1.90    1.00
  -3  -1  11    5.00    1.30
   2   1 -11  115.59    4.20
  -2  -1  11  114.79    3.90
  -2  -1  11  116.19    5.00
   1   1 -11    0.60    0.80
   1   1 -11    3.10    0.80
  -1  -1  11    0.90    0.80
  -1  -1  11    1.80    0.50
  -1  -1  11    1.20    0.40
   0   1 -11    5.10    0.90
   0   1 -11    6.30    1.20
   0  -1  11    7.20    0.90
   0  -1  11    7.50    0.80
   0  -1  11    6.80    1.20
  -1   1 -11    1.30    0.80
  -1   1 -11    0.40    0.50
  -1   1 -11    0.40    0.50
   1  -1  11    0.20    0.30
   1  -1  11    0.50    0.70
   1  -1  11    0.20    0.40
  -2   1 -11   48.10    2.20
  -2   1 -11   49.40    2.10
  -2   1 -11   48.90    2.50
   2  -1  11   48.60    2.30
   2  -1  11   51.49    1.70
   2  -1  11   48.70    2.10
  -3   1 -11   39.30    1.80
  -3   1 -11   40.30    1.90
  -3   1 -11   44.90    2.30
   3  -1  11   41.60    2.10
   3  -1  11   41.10    1.90
  -4   1 -11   16.40    1.70
  -4   1 -11   16.90    1.20
  -4   1 -11   14.60    1.20
   4  -1  11   17.50    0.80
   4  -1  11   18.40    1.60
  -5   1 -11    1.60    0.60
  -5   1 -11    0.80    0.60
  -5   1 -11    0.20    0.90
   5  -1  11    1.90    1.00
  -6   1 -11    3.10    0.70
  -6   1 -11    2.70    0.70
  -6   1 -11    6.20    1.30
   6  -1  11    1.20    1.10
  -7   1 -11   22.80    2.10
  -7   1 -11   21.20    1.50
  -7   1 -11   17.60    2.60
  -7   1 -11   20.60    1.50
   6   0 -11    1.30    1.40
  -6   0  11    1.40    1.50
   5   0 -11    0.70    1.20
   5   0 -11    3.40    1.00
  -5   0  11    4.40    1.50
  -5   0  11    1.60    1.00
   4   0 -11    0.70    1.00
   4   0 -11    1.30    0.60
   4   0 -11    0.70    0.80
  -4   0  11    0.70    1.00
  -4   0  11    0.60    0.70
   3   0 -11    5.80    0.90
   3   0 -11    5.40    1.30
  -3   0  11    4.30    1.20
   2   0 -11   83.69    3.20
   2   0 -11   81.39    3.40
  -2   0  11   78.89    3.10
   1   0 -11   11.10    1.30
   1   0 -11   11.50    1.50
  -1   0  11   13.30    1.00
  -1   0  11    9.80    1.30
  -1   0  11   10.20    1.00
   0   0 -11  233.98    6.50
   0   0 -11  224.88    6.80
   0   0  11  226.18    5.90
   0   0  11  222.18    6.10
   0   0  11  223.38    6.80
  -1   0 -11    0.80    0.70
  -1   0 -11    0.80    0.50
   1   0  11    0.80    0.40
   1   0  11    1.20    0.70
   1   0  11    1.60    0.50
  -2   0 -11   16.30    1.60
  -2   0 -11   14.00    1.10
  -2   0 -11   14.30    1.10
   2   0  11   14.80    0.80
   2   0  11   14.80    1.30
  -3   0 -11   19.50    1.30
  -3   0 -11   20.30    1.70
  -3   0 -11   19.70    1.30
   3   0  11   21.90    1.40
   3   0  11   19.00    0.90
  -4   0 -11   22.40    1.40
  -4   0 -11   23.70    1.40
  -4   0 -11   23.30    1.80
   4   0  11   23.20    1.10
   4   0  11   24.50    0.90
   4   0  11   23.10    1.70
  -5   0 -11   14.90    1.50
  -5   0 -11   12.40    1.00
  -5   0 -11   13.50    1.10
   5   0  11   13.10    1.60
  -6   0 -11   20.10    2.50
  -6   0 -11   23.40    1.90
  -6   0 -11   23.00    1.40
  -6   0 -11   22.70    1.40
   6   0  11   20.70    1.90
  -7   0 -11   18.80    2.40
  -7   0 -11   22.10    2.00
  -7   0 -11   21.10    1.40
  -7   0 -11   21.80    1.40
  -8   0 -11   15.20    2.60
  -8   0 -11   15.10    1.40
  -8   0 -11   16.30    1.70
  -8   0 -11   15.50    1.40
   6  -1 -11    5.30    1.50
  -6   1  11    3.10    1.90
   5  -1 -11    2.20    1.30
   5  -1 -11    2.90    1.10
  -5   1  11    3.40    1.40
   4  -1 -11    0.30    0.80
   4  -1 -11    0.40    0.60
   4  -1 -11    0.10    1.10
   4  -1 -11    0.20    0.50
  -4   1  11    0.40    1.10
  -4   1  11    0.20    0.80
  -4   1  11   -0.30    0.80
   3  -1 -11    0.20    1.00
   3  -1 -11    1.10    0.70
   3  -1 -11    0.60    0.50
  -3   1  11   -0.30    0.90
  -3   1  11    0.90    0.80
   2  -1 -11   13.20    1.60
   2  -1 -11   11.50    1.50
  -2   1  11   13.20    1.80
  -2   1  11   11.60    1.40
   1  -1 -11   52.29    2.40
   1  -1 -11   52.19    2.70
  -1   1  11   54.69    2.70
  -1   1  11   54.69    2.20
  -1   1  11   47.20    2.20
   0  -1 -11    9.60    1.40
   0  -1 -11   10.20    1.20
   0   1  11    9.50    1.30
   0   1  11    9.40    1.00
   0   1  11    8.30    0.90
  -1  -1 -11    5.70    1.20
  -1  -1 -11    4.40    0.80
   1   1  11    6.00    1.10
   1   1  11    4.50    0.60
   1   1  11    6.90    0.80
  -2  -1 -11   76.19    2.90
  -2  -1 -11   77.09    3.20
   2   1  11   84.49    3.20
   2   1  11   85.79    2.60
   2   1  11   79.19    2.60
  -3  -1 -11   69.59    2.60
  -3  -1 -11   68.09    3.00
  -3  -1 -11   60.59    2.40
   3   1  11   66.19    2.00
   3   1  11   70.09    2.40
   3   1  11   66.29    2.60
  -4  -1 -11   99.99    3.70
  -4  -1 -11   98.59    3.20
  -4  -1 -11  101.89    3.40
   4   1  11   99.49    2.60
   4   1  11   98.79    3.30
  -5  -1 -11    7.00    1.00
  -5  -1 -11    6.00    0.80
  -5  -1 -11    5.50    1.10
  -5  -1 -11    4.40    1.20
   5   1  11    5.90    1.00
  -6  -1 -11    9.00    1.80
  -6  -1 -11   10.80    1.10
  -6  -1 -11    8.50    0.90
  -6  -1 -11    9.00    1.70
   6   1  11    8.50    1.20
  -7  -1 -11    3.40    0.80
  -7  -1 -11    3.00    1.30
  -7  -1 -11    3.90    0.70
  -8  -1 -11    3.90    0.70
  -8  -1 -11    5.40    1.70
  -8  -1 -11    7.10    1.10
   5  -2 -11    0.80    1.00
   5  -2 -11    0.60    1.60
  -5   2  11    1.80    1.40
   4  -2 -11    3.60    1.00
   4  -2 -11    0.00    1.40
  -4   2  11    5.40    1.50
  -4   2  11    5.60    1.30
   3  -2 -11   76.39    3.20
   3  -2 -11   76.59    2.70
  -3   2  11   74.29    3.70
  -3   2  11   66.69    3.70
   2  -2 -11    4.00    1.20
   2  -2 -11    6.80    1.00
  -2   2  11    4.60    1.00
  -2   2  11    6.00    1.30
   1  -2 -11   82.79    3.50
   1  -2 -11   79.09    3.20
   1  -2 -11   80.09    3.20
  -1   2  11   76.29    3.00
   0  -2 -11    0.90    0.60
   0  -2 -11    1.00    0.80
   0  -2 -11    1.40    0.70
   0   2  11    1.30    0.50
   0   2  11    1.50    0.80
   0   2  11    1.10    0.50
  -1  -2 -11    8.80    1.10
  -1  -2 -11    9.10    1.50
  -1  -2 -11    8.80    1.40
   1   2  11   10.20    1.00
   1   2  11    8.80    0.90
   1   2  11    7.90    1.20
  -2  -2 -11   32.80    1.80
  -2  -2 -11   35.10    2.40
  -2  -2 -11   34.60    2.20
   2   2  11   37.60    1.50
   2   2  11   36.70    1.60
   2   2  11   32.00    1.90
  -3  -2 -11   44.60    2.50
  -3  -2 -11   51.69    2.90
  -3  -2 -11   50.99    2.30
   3   2  11   50.09    2.20
   3   2  11   48.20    1.70
   3   2  11   48.00    1.70
  -4  -2 -11    0.60    0.60
  -4  -2 -11    2.20    0.90
  -4  -2 -11    0.40    1.00
   4   2  11    0.50    0.50
   4   2  11    1.20    0.40
   4   2  11    0.90    0.30
  -5  -2 -11    5.70    1.20
  -5  -2 -11    7.20    1.00
  -5  -2 -11    5.80    0.70
  -5  -2 -11    5.00    1.20
   5   2  11    6.80    0.90
  -6  -2 -11   43.80    1.70
  -6  -2 -11   43.30    2.50
  -6  -2 -11   43.40    3.00
  -6  -2 -11   41.60    2.00
   6   2  11   42.00    2.00
  -7  -2 -11   27.10    1.30
  -7  -2 -11   27.60    1.70
  -7  -2 -11   28.40    2.70
  -7  -2 -11   28.50    2.80
  -8  -2 -11   17.70    2.40
  -8  -2 -11   16.40    1.50
  -8  -2 -11   15.60    1.00
   5  -3 -11    8.80    1.50
   4  -3 -11    2.00    1.00
  -4   3  11    0.60    1.30
   3  -3 -11    0.80    0.80
  -3   3  11    1.90    1.00
  -3   3  11    0.70    1.10
   2  -3 -11   -0.30    1.10
   2  -3 -11    1.10    0.70
   2  -3 -11    0.90    0.80
  -2   3  11    1.80    1.10
  -2   3  11    1.80    0.90
   1  -3 -11   -0.10    0.60
   1  -3 -11   -1.00    0.60
   1  -3 -11    0.50    1.00
  -1   3  11    0.10    0.80
   0  -3 -11    2.00    1.00
   0  -3 -11    2.90    0.90
   0  -3 -11    3.10    0.90
   0   3  11    3.60    0.90
   0   3  11    4.20    0.80
   0   3  11    4.10    1.20
  -1  -3 -11    8.70    1.20
  -1  -3 -11    8.10    1.20
   1   3  11    8.10    0.90
   1   3  11    6.40    1.10
   1   3  11    8.70    1.00
  -2  -3 -11    6.00    1.10
  -2  -3 -11    7.70    1.40
  -2  -3 -11    6.20    1.20
   2   3  11    4.80    1.00
   2   3  11    7.50    0.90
   2   3  11    5.90    0.70
  -3  -3 -11    6.40    1.00
  -3  -3 -11    6.40    1.20
   3   3  11    6.60    1.00
   3   3  11    5.80    0.60
  -4  -3 -11  236.38    7.00
  -4  -3 -11  238.48    6.60
   4   3  11  225.88    6.20
   4   3  11  225.48    5.80
   4   3  11  229.98    5.80
  -5  -3 -11   16.20    1.40
  -5  -3 -11   20.70    2.00
  -5  -3 -11   21.10    2.10
   5   3  11   14.10    0.80
   5   3  11   16.50    0.70
  -6  -3 -11   17.00    1.40
  -6  -3 -11   16.60    2.20
  -6  -3 -11   16.80    1.80
  -7  -3 -11   -0.50    0.70
  -7  -3 -11    0.80    1.10
  -7  -3 -11    0.60    0.90
  -8  -3 -11    6.60    1.50
  -8  -3 -11    5.60    1.80
  -8  -3 -11    5.40    1.10
  -9  -3 -11    1.10    1.50
  -9  -3 -11   -0.10    0.90
  -9  -3 -11    0.20    1.80
   4  -4 -11   -0.90    1.10
   4  -4 -11   -1.50    2.00
  -4   4  11    0.50    1.60
   3  -4 -11    5.80    2.00
   3  -4 -11    5.40    1.20
  -3   4  11    7.50    1.60
   2  -4 -11    0.10    0.60
   2  -4 -11   -0.70    0.80
  -2   4  11   -0.50    1.00
  -2   4  11   -0.40    0.90
   1  -4 -11   -0.10    0.60
   1  -4 -11    0.30    0.70
  -1   4  11    0.20    0.90
   0  -4 -11   24.60    1.80
   0  -4 -11   23.90    1.80
   0   4  11   24.70    2.00
  -1  -4 -11    8.30    1.30
  -1  -4 -11    8.90    1.30
   1   4  11    8.80    1.20
   1   4  11   11.60    1.80
  -2  -4 -11   11.00    1.60
  -2  -4 -11   11.70    1.60
  -2  -4 -11   10.80    2.10
   2   4  11   10.10    0.90
   2   4  11   12.10    1.50
   2   4  11   11.80    1.20
  -3  -4 -11    0.50    1.00
  -3  -4 -11    0.10    0.60
  -3  -4 -11   -0.90    0.60
   3   4  11    0.30    0.50
   3   4  11    0.90    0.70
   3   4  11    0.90    0.40
  -4  -4 -11   57.39    3.30
  -4  -4 -11   61.89    2.70
  -4  -4 -11   61.59    3.10
   4   4  11   60.19    2.20
   4   4  11   60.59    2.50
  -5  -4 -11    0.90    0.70
  -5  -4 -11    0.70    1.00
  -5  -4 -11    1.00    0.90
   5   4  11    0.90    0.50
   5   4  11    0.70    0.40
  -6  -4 -11    1.40    1.00
  -6  -4 -11    2.10    1.10
  -6  -4 -11    2.20    0.80
  -7  -4 -11   15.10    1.90
  -7  -4 -11   14.50    1.50
  -7  -4 -11   14.20    2.20
  -8  -4 -11    1.70    1.00
  -8  -4 -11    2.00    1.40
  -8  -4 -11    2.80    1.50
  -9  -4 -11    0.80    1.60
  -9  -4 -11    0.10    1.50
  -9  -4 -11   -0.90    0.90
   3  -5 -11    0.90    1.10
   3  -5 -11    2.10    1.90
  -3   5  11    0.60    1.60
   2  -5 -11   -0.60    1.60
   2  -5 -11   -0.10    0.60
   2  -5 -11    0.60    1.00
  -2   5  11    0.40    1.10
   1  -5 -11   14.60    1.40
   1  -5 -11   18.60    2.00
  -1   5  11   12.80    1.70
  -1   5  11   16.70    2.10
   0  -5 -11   10.70    1.40
   0  -5 -11    8.10    1.40
   0  -5 -11    7.80    1.60
   0   5  11    9.00    1.60
  -1  -5 -11   49.99    2.60
  -1  -5 -11   49.70    2.70
   1   5  11   56.79    2.90
  -2  -5 -11    2.10    0.80
  -2  -5 -11    1.20    0.80
   2   5  11    1.10    0.90
   2   5  11    0.70    0.80
   2   5  11    1.60    0.60
  -3  -5 -11   11.20    1.70
  -3  -5 -11   13.60    1.60
  -3  -5 -11   12.50    1.70
   3   5  11   13.90    1.40
   3   5  11   15.30    1.60
   3   5  11   12.70    0.90
  -4  -5 -11   10.20    1.60
  -4  -5 -11   11.10    1.40
  -4  -5 -11    7.40    1.60
   4   5  11    7.60    1.10
   4   5  11    8.80    1.00
  -5  -5 -11   31.70    2.60
  -5  -5 -11   36.40    2.50
  -5  -5 -11   32.10    2.60
   5   5  11   31.50    1.60
   5   5  11   31.40    1.50
  -6  -5 -11   38.90    2.90
  -6  -5 -11   39.40    2.70
   6   5  11   38.20    1.30
  -7  -5 -11    3.90    1.30
  -8  -5 -11    1.70    1.50
  -8  -5 -11    1.30    1.40
  -8  -5 -11    2.40    1.20
  -9  -5 -11    6.20    1.80
  -9  -5 -11    8.90    1.30
  -9  -5 -11   12.90    2.10
   2  -6 -11    0.00    1.10
   1  -6 -11    8.80    1.50
   1  -6 -11   10.30    2.40
   1  -6 -11    9.40    1.20
  -1   6  11    9.40    1.90
   0  -6 -11    0.50    1.00
   0  -6 -11    0.50    0.70
   0  -6 -11    2.00    1.50
   0   6  11    0.20    1.10
  -1  -6 -11   -0.80    0.80
  -1  -6 -11    0.40    1.30
  -1  -6 -11    0.00    0.80
   1   6  11    0.70    1.00
   1   6  11    0.50    0.90
  -2  -6 -11   24.20    2.00
  -2  -6 -11   25.00    2.10
   2   6  11   27.20    2.50
   2   6  11   24.00    1.90
  -3  -6 -11   -0.70    1.20
  -3  -6 -11   -0.80    0.70
  -3  -6 -11   -0.70    0.80
   3   6  11    0.00    0.80
   3   6  11    0.30    0.40
   3   6  11    0.10    0.50
   3   6  11   -0.60    0.80
  -4  -6 -11   10.10    1.80
  -4  -6 -11    9.00    1.40
  -4  -6 -11    8.50    1.50
   4   6  11    6.70    1.10
   4   6  11    9.50    1.30
  -5  -6 -11   19.30    2.30
  -5  -6 -11   24.10    1.90
  -5  -6 -11   18.60    2.20
   5   6  11   21.50    1.50
   5   6  11   20.90    1.50
  -6  -6 -11   -0.40    0.80
  -6  -6 -11    2.10    1.40
  -6  -6 -11    1.70    1.10
   6   6  11    0.80    0.60
   6   6  11    1.40    0.50
  -7  -6 -11    0.20    0.90
  -7  -6 -11    0.30    1.10
  -7  -6 -11    1.10    1.50
  -8  -6 -11    0.00    1.50
  -8  -6 -11   -0.90    0.90
  -8  -6 -11   -1.30    1.70
   1  -7 -11    0.80    0.80
   1  -7 -11    1.10    1.20
  -1   7  11   -0.20    1.50
  -1   7  11    0.50    1.20
   0  -7 -11    1.40    1.20
   0  -7 -11    1.80    0.90
   0   7  11    3.20    1.40
   0   7  11    1.10    1.20
  -1  -7 -11   16.60    1.90
   1   7  11   15.20    2.00
  -2  -7 -11    2.40    1.10
  -2  -7 -11    3.90    1.20
   2   7  11    3.20    1.30
   2   7  11    1.80    1.10
   2   7  11    4.40    1.10
  -3  -7 -11   14.60    2.40
  -3  -7 -11   12.10    1.80
  -3  -7 -11   11.50    1.70
   3   7  11   15.40    1.90
   3   7  11   12.90    1.60
   3   7  11   13.70    1.40
  -4  -7 -11   -2.50    1.50
  -4  -7 -11    0.70    0.90
  -4  -7 -11   -0.80    0.90
   4   7  11    0.20    0.70
  -5  -7 -11    5.60    1.40
  -5  -7 -11    7.90    1.40
  -5  -7 -11   12.40    2.10
   5   7  11   11.80    1.50
  -6  -7 -11    7.00    1.60
  -6  -7 -11    4.40    1.80
  -6  -7 -11    6.40    1.40
   6   7  11    6.40    1.10
   6   7  11    6.50    0.90
  -7  -7 -11   -1.30    1.70
  -7  -7 -11    0.10    1.00
  -7  -7 -11    0.70    1.20
   7   7  11   -0.20    0.60
   7   7  11    0.40    0.40
  -8  -7 -11   15.80    2.70
  -8  -7 -11   14.70    1.80
  -8  -7 -11   14.00    2.30
   0   8  11   -0.60    1.50
  -1  -8 -11    3.20    1.20
   1   8  11    3.70    1.40
   1   8  11    3.40    1.50
  -2  -8 -11    2.20    1.10
  -2  -8 -11    1.20    1.20
   2   8  11    1.10    1.10
   2   8  11    2.50    1.10
  -3  -8 -11    1.00    1.00
  -3  -8 -11    1.20    1.10
   3   8  11    0.70    1.00
   3   8  11    1.70    0.80
  -4  -8 -11    9.50    1.70
  -4  -8 -11   10.90    1.70
   4   8  11   12.80    2.00
   4   8  11   12.50    1.60
  -5  -8 -11    0.40    1.00
  -5  -8 -11    0.20    1.20
   5   8  11    1.10    0.90
   5   8  11    1.50    1.30
  -6  -8 -11    0.90    1.10
  -6  -8 -11    2.20    1.10
   6   8  11    1.70    0.80
  -7  -8 -11   -0.30    1.10
  -7  -8 -11   -0.40    1.10
   7   8  11    0.30    0.60
   7   8  11   -0.20    0.90
  -3  -9 -11   -0.30    1.20
   3   9  11    0.40    1.00
   3   9  11    1.40    1.30
  -4  -9 -11    0.60    1.30
  -4  -9 -11   -0.30    1.30
   4   9  11   -0.20    0.60
   4   9  11    1.60    1.20
  -5  -9 -11    1.30    1.30
   5   9  11    0.00    1.00
   4   6 -12    0.80    1.10
  -4  -6  12    1.10    1.60
   3   6 -12    0.00    1.00
   3   6 -12    0.90    1.00
  -3  -6  12    1.90    1.80
   2   6 -12    1.90    1.00
   2   6 -12    2.40    0.80
  -2  -6  12   -0.30    1.30
   1   6 -12    2.00    1.00
   1   6 -12    3.10    1.10
  -1  -6  12    2.20    1.50
   0   6 -12   -0.30    0.80
   0   6 -12   -0.40    0.80
   0  -6  12    1.80    1.40
  -1   6 -12    2.90    1.00
  -1   6 -12    5.20    1.10
   1  -6  12    5.60    1.70
   1  -6  12    4.40    1.70
   5   5 -12    4.10    1.30
  -5  -5  12    3.80    1.80
   4   5 -12   18.50    1.90
   3   5 -12    1.60    1.00
  -3  -5  12    0.50    1.30
   2   5 -12   11.20    1.70
   2   5 -12   11.40    1.50
  -2  -5  12   13.80    2.00
   1   5 -12    2.10    0.90
   1   5 -12    1.20    0.80
  -1  -5  12    1.90    1.20
  -1  -5  12    2.20    1.00
   0   5 -12    3.60    1.00
   0  -5  12    2.60    1.10
   0  -5  12    2.50    1.30
  -1   5 -12    7.70    1.20
  -1   5 -12    8.70    1.20
   1  -5  12    6.20    1.50
  -2   5 -12    8.30    1.50
  -2   5 -12    9.80    1.30
   2  -5  12   12.70    1.80
   2  -5  12    9.90    1.50
  -3   5 -12   -0.20    0.70
   6   4 -12    5.20    1.40
   6   4 -12    6.60    1.90
   5   4 -12    6.50    1.80
   5   4 -12    5.20    1.40
   4   4 -12    0.70    1.10
   4   4 -12    0.40    1.00
  -4  -4  12    3.40    1.40
   3   4 -12    4.70    1.20
   3   4 -12    7.50    1.60
  -3  -4  12    5.40    1.30
  -3  -4  12    5.20    1.30
  -3  -4  12    4.70    1.40
   2   4 -12    4.00    0.90
   2   4 -12    2.90    1.00
   2   4 -12    5.90    1.50
   2   4 -12    3.60    1.30
  -2  -4  12    3.70    0.90
  -2  -4  12    3.30    0.80
  -2  -4  12    2.20    1.20
   1   4 -12    4.10    1.40
   1   4 -12    4.40    1.40
   1   4 -12    4.40    0.90
   1   4 -12    4.50    1.00
  -1  -4  12    4.70    1.40
  -1  -4  12    5.70    1.10
   0   4 -12   10.50    1.50
   0   4 -12    9.80    1.30
   0   4 -12   12.10    1.90
   0   4 -12   10.60    1.80
   0  -4  12    5.50    1.40
   0  -4  12    9.30    1.40
  -1   4 -12   44.20    2.90
  -1   4 -12   45.60    2.40
  -1   4 -12   44.40    2.20
   1  -4  12   48.50    2.80
  -2   4 -12   -0.10    1.20
  -2   4 -12   -0.40    0.60
  -2   4 -12    0.20    0.70
   2  -4  12   -0.20    0.80
   2  -4  12    0.30    1.00
  -3   4 -12    7.30    1.70
  -3   4 -12    7.50    1.30
  -3   4 -12    5.90    1.00
   3  -4  12    8.90    1.20
   3  -4  12    6.50    1.10
  -4   4 -12    9.70    1.20
  -4   4 -12    7.50    1.20
   6   3 -12   -0.40    1.10
   6   3 -12    0.00    1.30
  -6  -3  12   -0.60    1.60
   5   3 -12    8.80    1.80
   5   3 -12    6.70    1.60
   5   3 -12    4.10    1.20
  -5  -3  12    6.80    1.80
   4   3 -12    0.50    0.90
   4   3 -12    0.80    1.00
   4   3 -12    0.00    1.20
  -4  -3  12    1.10    1.10
   3   3 -12   -0.40    1.10
   3   3 -12    0.00    0.70
  -3  -3  12    0.00    0.60
  -3  -3  12    0.70    1.10
  -3  -3  12    0.00    0.60
   2   3 -12   -0.50    1.10
   2   3 -12    1.60    0.80
  -2  -3  12    0.70    1.00
  -2  -3  12    0.90    0.60
   1   3 -12    2.10    0.70
   1   3 -12    3.30    0.90
  -1  -3  12    3.50    0.80
  -1  -3  12    4.10    1.20
   0   3 -12   -0.60    0.50
   0   3 -12    1.00    1.00
   0   3 -12    0.10    0.60
   0  -3  12   -0.30    0.90
   0  -3  12   -0.10    0.60
   0  -3  12   -0.20    0.50
  -1   3 -12   21.70    2.00
  -1   3 -12   18.90    1.40
  -1   3 -12   23.10    1.70
   1  -3  12   19.80    2.00
   1  -3  12   22.60    1.90
  -2   3 -12    3.90    0.80
  -2   3 -12    3.70    0.80
  -2   3 -12    3.80    1.30
   2  -3  12    3.80    1.10
   2  -3  12    5.60    0.90
   2  -3  12    1.80    1.00
  -3   3 -12    2.40    0.70
  -3   3 -12    3.30    1.20
  -3   3 -12    3.20    0.80
   3  -3  12    4.70    0.90
   3  -3  12    3.00    0.90
   3  -3  12    3.70    1.30
  -4   3 -12    1.90    0.70
  -4   3 -12    3.00    1.40
  -4   3 -12    2.30    0.70
   4  -3  12    1.80    1.50
  -5   3 -12    8.60    1.10
  -5   3 -12   11.80    1.30
  -5   3 -12   16.70    3.10
   6   2 -12    4.90    1.30
   6   2 -12    2.60    1.30
   6   2 -12    6.40    1.80
  -6  -2  12    5.10    1.90
   5   2 -12   -1.50    1.30
   5   2 -12    0.00    0.90
   5   2 -12    0.10    0.90
  -5  -2  12    0.40    1.40
   4   2 -12   13.20    1.90
   4   2 -12   13.50    1.60
   4   2 -12   13.90    1.70
  -4  -2  12   12.60    2.00
   3   2 -12    5.30    1.10
   3   2 -12    4.60    1.10
  -3  -2  12    4.80    1.00
  -3  -2  12    6.80    1.60
   2   2 -12    2.80    0.90
   2   2 -12    2.40    0.90
   2   2 -12    2.50    1.90
  -2  -2  12    3.30    1.20
  -2  -2  12    1.90    1.10
   1   2 -12   12.50    1.40
  -1  -2  12    7.50    1.40
   0   2 -12  110.49    3.80
   0   2 -12  109.39    4.20
   0   2 -12   97.09    3.80
   0  -2  12  106.29    3.20
   0  -2  12  100.49    4.40
  -1   2 -12    8.20    1.40
  -1   2 -12    8.60    1.20
  -1   2 -12    7.90    1.10
   1  -2  12    4.80    0.80
   1  -2  12    9.20    1.30
   1  -2  12    9.30    0.90
  -2   2 -12   25.10    2.10
  -2   2 -12   24.70    1.60
  -2   2 -12   26.60    1.60
   2  -2  12   25.60    1.90
  -3   2 -12   38.90    2.00
  -3   2 -12   36.30    2.40
  -3   2 -12   36.90    1.90
   3  -2  12   38.20    2.00
   3  -2  12   35.70    1.60
  -4   2 -12    0.70    1.10
  -4   2 -12    0.80    0.60
  -4   2 -12    0.50    0.50
  -5   2 -12    0.10    0.60
  -5   2 -12   -0.10    1.20
  -5   2 -12    0.00    0.60
   5  -2  12   -0.40    1.20
  -6   2 -12   35.40    2.70
  -6   2 -12   34.10    2.00
  -6   2 -12   34.60    1.90
   6  -2  12   34.30    4.30
   6   1 -12    0.00    0.90
   6   1 -12    0.30    1.20
  -6  -1  12   -1.50    1.70
   5   1 -12    0.30    0.80
   5   1 -12   -0.50    0.90
  -5  -1  12   -0.30    1.30
   4   1 -12    1.80    0.90
   4   1 -12    2.00    1.40
   4   1 -12    2.60    0.90
  -4  -1  12    3.20    0.90
  -4  -1  12    3.50    1.10
  -4  -1  12    2.70    1.30
   3   1 -12    0.80    0.70
   3   1 -12    1.00    0.80
  -3  -1  12    0.70    1.00
   2   1 -12   66.59    3.00
  -2  -1  12   64.19    3.30
   1   1 -12   12.80    1.50
  -1  -1  12   11.60    1.60
  -1  -1  12    9.40    1.10
   0   1 -12   83.19    3.20
   0  -1  12   79.09    2.60
   0  -1  12   84.39    3.60
   0  -1  12   77.99    2.90
  -1   1 -12   18.00    1.40
  -1   1 -12   20.20    1.80
   1  -1  12   20.10    1.30
   1  -1  12   18.20    1.10
   1  -1  12   22.10    1.80
  -2   1 -12   31.90    1.80
  -2   1 -12   32.30    2.20
   2  -1  12   34.30    2.00
   2  -1  12   34.00    1.80
   2  -1  12   31.40    1.40
  -3   1 -12    0.50    0.50
  -3   1 -12    0.70    0.90
  -3   1 -12    1.00    0.60
   3  -1  12    0.70    0.70
   3  -1  12    0.60    0.60
  -4   1 -12    1.20    1.00
  -4   1 -12    2.70    0.70
  -4   1 -12    1.60    0.70
   4  -1  12    1.50    0.40
   4  -1  12    1.90    0.90
  -5   1 -12    4.40    0.90
  -5   1 -12    2.40    0.80
  -5   1 -12    4.10    1.20
   5  -1  12    2.80    1.30
  -6   1 -12    0.70    1.10
  -6   1 -12    0.70    0.60
  -7   1 -12   22.00    3.20
   6   0 -12    5.90    2.10
   6   0 -12    3.50    1.30
  -6   0  12    8.00    2.20
   5   0 -12    3.20    1.70
   5   0 -12    3.50    0.80
   5   0 -12    2.90    1.00
   5   0 -12    2.80    1.20
  -5   0  12    2.00    1.40
   4   0 -12    0.00    1.30
   4   0 -12    0.50    0.70
   4   0 -12    0.70    0.90
  -4   0  12    1.40    1.50
  -4   0  12    0.50    1.20
  -4   0  12    0.40    0.90
   3   0 -12    6.40    1.20
  -3   0  12    5.00    1.30
  -3   0  12    5.00    1.00
   2   0 -12   79.99    3.30
  -2   0  12   75.29    3.60
   1   0 -12    0.60    0.70
  -1   0  12    0.30    0.80
  -1   0  12    0.30    0.50
  -1   0  12    0.80    0.50
   0   0  12   16.90    1.20
   0   0  12   18.70    1.80
   0   0  12   17.60    1.10
  -1   0 -12   34.60    2.30
  -1   0 -12   34.70    2.10
   1   0  12   37.90    1.60
   1   0  12   40.20    1.80
   1   0  12   42.00    2.30
  -2   0 -12  133.79    4.70
  -2   0 -12  131.99    4.30
  -2   0 -12  122.59    4.20
   2   0  12  129.09    4.00
   2   0  12  132.99    3.60
   2   0  12  130.49    4.40
  -3   0 -12   35.60    1.90
  -3   0 -12   37.10    1.90
  -3   0 -12   34.70    2.30
   3   0  12   36.10    1.40
   3   0  12   39.60    2.00
   3   0  12   40.00    1.90
  -4   0 -12   36.60    1.80
  -4   0 -12   39.30    2.40
  -4   0 -12   39.40    1.90
   4   0  12   38.40    1.30
   4   0  12   36.50    2.00
  -5   0 -12   75.69    2.80
  -5   0 -12   76.69    2.80
  -5   0 -12   73.09    3.30
   5   0  12   73.89    3.20
  -6   0 -12   -0.20    1.10
  -6   0 -12    0.10    0.50
  -6   0 -12    0.00    0.60
  -6   0 -12    0.00    1.00
   6   0  12    0.10    1.00
  -7   0 -12   14.80    1.40
  -7   0 -12   14.20    2.60
  -7   0 -12   14.90    1.80
  -7   0 -12   15.00    1.50
   5  -1 -12    5.60    1.30
   5  -1 -12    5.90    2.00
  -5   1  12    3.40    1.60
   4  -1 -12    2.70    1.50
   4  -1 -12    3.90    0.90
   4  -1 -12    2.70    1.10
   4  -1 -12    3.90    0.80
  -4   1  12    5.00    1.60
   3  -1 -12   -0.20    0.70
   3  -1 -12    0.90    0.90
   3  -1 -12    0.20    0.60
  -3   1  12   -0.40    1.00
  -3   1  12   -0.10    0.80
  -3   1  12   -0.10    0.70
   2  -1 -12    5.20    1.10
  -2   1  12    9.90    1.70
   0  -1 -12    1.00    0.80
   0   1  12    0.20    0.80
   0   1  12    0.50    0.50
   0   1  12    0.50    0.40
  -1  -1 -12    0.00    0.60
  -1  -1 -12    0.90    0.80
   1   1  12    0.80    0.50
   1   1  12    0.00    0.40
   1   1  12   -0.10    0.60
  -2  -1 -12    0.40    0.90
  -2  -1 -12    0.20    0.60
   2   1  12    0.30    0.70
   2   1  12    0.30    0.40
   2   1  12    0.30    0.40
  -3  -1 -12    0.60    0.90
  -3  -1 -12   -0.10    0.60
   3   1  12    0.20    0.30
   3   1  12    0.10    0.40
   3   1  12   -0.30    0.60
  -4  -1 -12   13.40    1.60
  -4  -1 -12   11.30    1.30
  -4  -1 -12   11.00    1.00
   4   1  12   11.70    0.70
   4   1  12   13.10    1.10
   4   1  12   12.60    1.10
  -5  -1 -12   31.70    1.80
  -5  -1 -12   30.50    2.70
  -5  -1 -12   27.70    1.50
  -5  -1 -12   30.10    2.10
   5   1  12   27.30    1.70
  -6  -1 -12    2.40    0.80
  -6  -1 -12    3.00    0.60
  -6  -1 -12    3.40    1.20
  -6  -1 -12    1.60    1.20
   6   1  12    2.10    1.50
  -7  -1 -12    3.30    0.70
  -7  -1 -12    1.20    1.30
  -7  -1 -12    3.20    1.00
  -7  -1 -12    4.60    1.60
  -8  -1 -12   -0.90    1.70
  -8  -1 -12    0.70    1.30
  -8  -1 -12   -0.20    0.60
  -8  -1 -12    1.10    0.90
   5  -2 -12    1.00    1.20
  -5   2  12   -0.30    1.90
   4  -2 -12   10.60    1.60
  -4   2  12   10.20    1.90
   3  -2 -12   19.80    1.80
   3  -2 -12   18.30    1.50
   3  -2 -12   20.10    2.30
  -3   2  12   17.80    1.80
  -3   2  12   19.10    1.80
  -3   2  12   14.90    2.00
   2  -2 -12  126.59    4.50
   2  -2 -12  118.09    4.20
  -2   2  12  119.89    4.80
   1  -2 -12   -0.20    0.60
   1  -2 -12    0.10    0.60
  -1   2  12    0.10    0.80
  -1   2  12    0.00    0.60
   0  -2 -12   20.50    1.60
   0  -2 -12   21.90    1.80
   0   2  12   21.50    1.50
   0   2  12   21.90    1.40
  -1  -2 -12   13.90    1.70
  -1  -2 -12    8.00    1.40
   1   2  12   15.10    1.10
   1   2  12   11.60    1.10
   1   2  12   15.60    1.70
  -2  -2 -12    1.70    0.70
  -2  -2 -12    2.30    1.10
  -2  -2 -12    3.10    1.00
   2   2  12    1.80    0.90
   2   2  12    1.70    0.60
   2   2  12    1.10    0.40
  -3  -2 -12    7.00    1.40
  -3  -2 -12    7.00    1.10
   3   2  12    7.80    1.10
   3   2  12    7.10    0.70
  -4  -2 -12   10.00    1.50
  -4  -2 -12   12.20    1.40
  -4  -2 -12   12.50    1.90
   4   2  12   13.00    1.20
   4   2  12   13.20    0.80
   4   2  12   13.10    1.00
  -5  -2 -12    3.30    1.30
  -5  -2 -12    3.90    1.20
  -5  -2 -12    2.70    0.80
   5   2  12    3.00    0.70
   5   2  12    2.70    0.40
  -6  -2 -12   58.19    2.90
  -6  -2 -12   49.10    1.90
  -6  -2 -12   46.60    3.30
  -6  -2 -12   49.00    2.30
   6   2  12   49.50    2.20
  -7  -2 -12   30.20    2.90
  -7  -2 -12   31.70    1.90
  -7  -2 -12   28.30    1.40
  -7  -2 -12   30.10    2.50
  -8  -2 -12    4.30    1.80
  -8  -2 -12    3.30    1.00
  -8  -2 -12    3.30    1.50
   4  -3 -12   -0.40    1.00
   4  -3 -12   -0.80    1.70
  -4   3  12    0.40    1.70
   3  -3 -12   11.60    2.20
   3  -3 -12   10.20    1.50
  -3   3  12    8.60    1.80
   2  -3 -12    9.00    1.50
   2  -3 -12    6.40    1.90
   2  -3 -12    7.40    1.10
  -2   3  12   10.40    1.80
  -2   3  12    8.60    1.30
   1  -3 -12    1.00    0.80
   1  -3 -12    0.40    0.70
  -1   3  12    0.60    0.60
  -1   3  12    0.70    1.00
   0  -3 -12   18.50    1.70
   0  -3 -12   20.10    1.70
   0   3  12   19.10    2.10
   0   3  12   17.60    1.40
  -1  -3 -12   17.00    1.60
  -1  -3 -12   15.10    1.70
   1   3  12   18.00    1.40
   1   3  12   25.10    3.30
   1   3  12   18.40    1.20
  -2  -3 -12   38.50    2.50
  -2  -3 -12   36.00    2.70
  -2  -3 -12   39.30    2.50
   2   3  12   38.10    1.80
   2   3  12   39.40    2.30
   2   3  12   40.30    1.70
  -3  -3 -12   25.20    1.90
  -3  -3 -12   21.70    2.10
   3   3  12   22.10    1.60
   3   3  12   23.40    1.10
   3   3  12   25.10    1.30
  -4  -3 -12   29.00    2.30
  -4  -3 -12   29.80    2.40
  -4  -3 -12   29.40    1.90
   4   3  12   30.20    1.30
   4   3  12   29.60    1.30
  -5  -3 -12    7.50    1.50
  -5  -3 -12    5.50    1.40
  -5  -3 -12    6.20    1.10
   5   3  12    6.80    0.90
   5   3  12    5.70    0.50
  -6  -3 -12    5.10    1.00
  -6  -3 -12    4.80    1.40
  -6  -3 -12    4.60    1.40
  -7  -3 -12    5.60    1.50
  -7  -3 -12    4.60    1.00
  -7  -3 -12    5.60    1.70
  -8  -3 -12    1.50    1.50
  -8  -3 -12    4.40    1.60
  -8  -3 -12    1.40    1.00
   4  -4 -12    1.00    2.20
  -4   4  12    2.30    1.70
   3  -4 -12    2.20    1.20
   3  -4 -12    3.90    1.90
  -3   4  12    1.20    1.50
   2  -4 -12    1.10    1.00
   2  -4 -12   -0.10    0.70
   2  -4 -12    0.40    1.50
  -2   4  12   -0.10    1.10
   1  -4 -12   24.40    2.00
   1  -4 -12   24.90    1.80
   1  -4 -12   29.80    4.00
  -1   4  12   20.10    2.30
  -1   4  12   26.10    2.40
   0  -4 -12    3.40    1.00
   0  -4 -12    2.20    1.20
   0  -4 -12    2.60    1.00
   0   4  12    2.40    1.00
   0   4  12    2.00    1.00
  -1  -4 -12    2.50    0.90
  -1  -4 -12    2.70    0.90
   1   4  12    2.40    1.00
   1   4  12    2.60    0.70
  -2  -4 -12   39.70    2.60
  -2  -4 -12   40.10    2.30
  -2  -4 -12   41.50    2.70
   2   4  12   49.40    3.00
   2   4  12   39.10    2.00
   2   4  12   42.40    1.80
  -3  -4 -12   14.80    1.90
  -3  -4 -12   12.80    1.50
  -3  -4 -12   12.20    1.80
   3   4  12   13.00    0.90
   3   4  12   13.60    1.50
   3   4  12   13.10    1.20
  -4  -4 -12   29.00    2.50
  -4  -4 -12   31.70    2.00
  -4  -4 -12   32.70    2.50
   4   4  12   32.40    1.50
   4   4  12   31.80    1.80
  -5  -4 -12    2.40    1.10
  -5  -4 -12    0.60    1.20
   5   4  12    1.30    0.60
   5   4  12    1.50    0.40
  -6  -4 -12   16.10    2.00
  -6  -4 -12   15.20    2.20
  -7  -4 -12   16.30    2.00
  -7  -4 -12   13.20    2.00
  -8  -4 -12    9.70    1.90
  -8  -4 -12   10.60    2.20
   3  -5 -12   -0.80    1.20
  -3   5  12    0.10    1.50
   2  -5 -12    0.30    1.10
   2  -5 -12    0.10    0.70
  -2   5  12   -0.70    1.20
   1  -5 -12    2.90    1.10
   1  -5 -12    3.90    1.00
   1  -5 -12    3.60    1.80
  -1   5  12    2.60    1.20
   0  -5 -12   -0.10    1.40
   0  -5 -12    0.30    0.90
   0  -5 -12    0.00    0.80
   0   5  12    0.00    1.00
   0   5  12    0.80    1.00
  -1  -5 -12    0.80    0.90
  -1  -5 -12    0.60    0.80
   1   5  12    0.10    1.00
  -2  -5 -12    3.90    1.30
  -2  -5 -12    4.30    1.10
   2   5  12    3.60    1.10
   2   5  12    4.10    0.90
  -3  -5 -12    0.70    0.90
  -3  -5 -12   -0.40    1.20
  -3  -5 -12    0.90    0.80
   3   5  12    0.20    0.70
   3   5  12    0.40    0.40
  -4  -5 -12   42.00    2.40
  -4  -5 -12   38.30    2.80
  -4  -5 -12   37.80    2.90
   4   5  12   35.60    1.90
   4   5  12   37.50    2.10
  -5  -5 -12    3.60    1.10
  -5  -5 -12    3.70    1.50
  -5  -5 -12    3.20    1.20
   5   5  12    2.20    0.70
   5   5  12    3.10    0.80
  -6  -5 -12   28.60    2.10
  -6  -5 -12   28.70    2.70
  -6  -5 -12   25.10    2.50
   6   5  12   25.70    1.20
   6   5  12   27.30    1.10
  -7  -5 -12    1.00    1.00
  -7  -5 -12    4.90    1.70
  -7  -5 -12    2.00    1.60
  -8  -5 -12    0.00    1.80
  -8  -5 -12    0.50    1.00
  -8  -5 -12    1.50    1.50
   2  -6 -12    0.10    1.20
  -2   6  12    2.50    3.00
   1  -6 -12    0.00    0.80
   1  -6 -12    0.00    1.10
   0  -6 -12    2.80    1.00
   0  -6 -12    2.00    1.10
   0   6  12    2.20    1.30
  -1  -6 -12    8.30    1.50
  -1  -6 -12    3.90    1.20
   1   6  12    9.70    1.80
   1   6  12    4.20    1.70
  -2  -6 -12    5.30    1.80
  -2  -6 -12    5.40    1.30
  -2  -6 -12    4.10    1.10
   2   6  12    4.30    1.20
   2   6  12    4.90    1.30
  -3  -6 -12    2.90    1.70
  -3  -6 -12    3.00    1.10
  -3  -6 -12    3.00    1.00
   3   6  12    2.10    1.00
   3   6  12    4.10    0.70
  -4  -6 -12   59.39    3.70
  -4  -6 -12   57.79    3.40
  -4  -6 -12   66.89    3.20
   4   6  12   62.29    2.80
  -5  -6 -12    4.80    1.40
  -5  -6 -12    3.30    1.70
  -5  -6 -12    6.60    1.30
   5   6  12    5.20    0.90
   5   6  12    5.00    1.00
  -6  -6 -12    2.80    1.80
  -6  -6 -12    1.30    1.00
  -6  -6 -12    1.30    1.20
   6   6  12    1.10    0.60
  -7  -6 -12   10.20    2.20
  -7  -6 -12    9.60    1.60
  -7  -6 -12   10.40    2.00
  -8  -6 -12    0.10    1.40
  -8  -6 -12    0.60    1.00
  -8  -6 -12    0.60    2.00
   0  -7 -12   -0.20    1.30
   0  -7 -12   -0.50    1.00
   0   7  12   -0.50    1.30
   0   7  12    0.40    1.20
  -1  -7 -12    8.70    1.60
  -1  -7 -12    7.20    1.40
   1   7  12   11.40    1.80
   1   7  12    6.90    1.60
  -2  -7 -12   -1.00    1.00
  -2  -7 -12    1.30    1.00
   2   7  12    0.30    1.00
   2   7  12    0.20    0.90
  -3  -7 -12   10.00    1.70
  -3  -7 -12    7.60    1.50
   3   7  12   11.30    1.80
   3   7  12   13.80    1.30
   3   7  12   10.90    1.40
   3   7  12    8.30    1.50
  -4  -7 -12    4.40    1.30
  -4  -7 -12    5.10    1.50
   4   7  12    4.90    1.10
  -5  -7 -12    1.20    1.00
  -5  -7 -12    1.30    1.10
   5   7  12    0.20    0.80
  -6  -7 -12    4.50    1.60
  -6  -7 -12    4.40    1.30
   6   7  12    7.10    1.10
   6   7  12    6.50    1.00
  -7  -7 -12    3.40    1.70
   7   7  12    4.00    0.70
   7   7  12    2.20    0.60
  -1  -8 -12    1.40    1.20
   1   8  12    0.40    1.30
  -2  -8 -12    0.50    1.10
  -2  -8 -12    0.60    1.20
   2   8  12    0.90    1.30
   2   8  12    1.00    1.70
  -3  -8 -12    0.60    1.20
  -3  -8 -12   -0.30    1.20
   3   8  12    1.10    1.10
   3   8  12    0.80    0.90
  -4  -8 -12   28.40    2.80
   4   8  12   23.90    2.10
  -5  -8 -12   15.30    2.20
   5   8  12   14.20    1.60
   5   8  12   16.30    2.00
  -6  -8 -12    0.70    1.20
   6   8  12    2.10    0.90
   4   5 -13    1.30    1.30
  -4  -5  13    0.90    1.60
   3   5 -13    1.50    1.20
  -2  -5  13    1.60    1.50
  -1  -5  13   -0.70    1.30
   0  -5  13    2.20    2.60
   0  -5  13    1.10    1.40
  -1   5 -13    9.20    1.30
   1  -5  13   10.60    1.90
   1  -5  13   13.40    1.80
   5   4 -13    3.90    2.00
   5   4 -13    0.40    1.40
   4   4 -13    0.30    1.60
   4   4 -13    0.30    1.10
  -4  -4  13    1.00    1.60
   3   4 -13    2.50    1.10
   3   4 -13    2.60    2.00
  -3  -4  13    1.10    1.40
   2   4 -13    0.70    0.90
  -2  -4  13   -0.20    1.20
   1   4 -13    1.30    0.90
  -1  -4  13    2.40    0.90
  -1  -4  13    1.80    1.30
   0   4 -13    0.20    0.60
   0   4 -13   -0.70    0.70
   0  -4  13    1.60    1.20
  -1   4 -13    0.50    0.70
  -1   4 -13    0.10    0.60
   1  -4  13   -0.50    1.10
  -2   4 -13    6.20    1.10
  -2   4 -13    7.60    1.20
   2  -4  13    9.50    1.40
   2  -4  13    8.90    1.60
  -3   4 -13    1.00    0.70
  -3   4 -13    0.70    0.80
   3  -4  13    1.30    1.10
   5   3 -13    0.90    1.20
   5   3 -13    3.00    1.60
  -5  -3  13    2.30    1.80
   4   3 -13   26.20    2.50
   4   3 -13   27.30    2.40
  -4  -3  13   30.90    2.80
   3   3 -13    0.70    0.90
  -3  -3  13    0.70    1.20
   2   3 -13    1.20    0.90
   2   3 -13    2.30    1.20
  -2  -3  13    1.30    0.80
  -2  -3  13    1.10    0.90
  -2  -3  13    1.00    1.20
   1   3 -13    8.30    1.70
   1   3 -13    8.90    1.60
   1   3 -13    7.60    1.20
  -1  -3  13    7.80    1.20
  -1  -3  13    7.80    1.60
  -1  -3  13    7.80    1.00
   0   3 -13   11.00    1.80
   0   3 -13   10.40    1.40
   0   3 -13   10.90    1.50
   0   3 -13    8.80    1.70
   0  -3  13   11.60    1.40
   0  -3  13   11.50    1.70
  -1   3 -13    0.60    0.80
  -1   3 -13    0.20    0.60
  -1   3 -13    0.20    1.20
   1  -3  13    1.00    0.90
   1  -3  13    1.40    1.00
  -2   3 -13    2.30    1.30
  -2   3 -13    1.90    0.80
  -2   3 -13    1.60    0.80
   2  -3  13    2.40    1.10
   2  -3  13    2.50    0.80
   2  -3  13    1.70    1.00
  -3   3 -13    2.50    0.70
  -3   3 -13    3.20    1.50
  -3   3 -13    3.20    0.90
   3  -3  13    3.40    1.10
   3  -3  13    2.80    1.80
  -4   3 -13    5.80    1.80
  -4   3 -13    3.30    0.90
  -4   3 -13    3.80    1.00
   5   2 -13    2.90    1.30
   5   2 -13    1.70    1.20
  -5  -2  13    4.10    1.80
   4   2 -13   -0.10    1.00
   4   2 -13    0.40    1.00
  -4  -2  13    0.50    1.30
   3   2 -13    3.70    1.10
   3   2 -13    3.00    1.30
   3   2 -13   -0.90    0.90
  -3  -2  13    2.90    1.30
   2   2 -13    8.50    1.60
   2   2 -13    9.30    1.40
  -2  -2  13   10.20    1.80
  -2  -2  13    8.50    1.20
  -2  -2  13    9.70    1.10
   1   2 -13    4.30    1.10
  -1  -2  13    3.50    0.80
  -1  -2  13    5.60    1.40
   0   2 -13    2.00    0.80
   0   2 -13    3.10    1.50
   0  -2  13    1.20    0.70
   0  -2  13    3.90    1.30
  -1   2 -13   28.70    1.90
  -1   2 -13   30.30    1.90
   1  -2  13   28.90    1.50
  -2   2 -13   -0.40    1.20
  -2   2 -13   -0.40    0.50
  -2   2 -13   -0.60    0.60
   2  -2  13    0.40    1.00
  -3   2 -13    7.70    1.20
  -3   2 -13    9.00    1.20
  -3   2 -13    8.80    1.70
   3  -2  13    7.10    1.20
   3  -2  13    9.50    1.50
  -4   2 -13   15.10    1.40
  -4   2 -13   15.80    1.50
  -4   2 -13   17.80    3.40
   4  -2  13   19.30    2.30
  -5   2 -13    4.20    1.00
  -5   2 -13    3.40    1.00
   5  -2  13    7.20    1.90
   5   1 -13    1.40    1.20
   5   1 -13   -0.10    1.00
  -5  -1  13    3.30    2.20
   4   1 -13    0.10    0.90
   4   1 -13    0.60    1.10
   4   1 -13   -0.30    1.40
  -4  -1  13    0.10    1.20
   3   1 -13    1.60    0.90
   3   1 -13    1.70    0.90
   3   1 -13    1.10    1.40
  -3  -1  13    1.60    1.30
  -3  -1  13    2.00    0.80
   2   1 -13    2.20    1.00
   2   1 -13    4.60    1.10
   2   1 -13    2.70    1.40
  -2  -1  13    4.30    1.00
  -2  -1  13    3.20    0.80
  -2  -1  13    2.90    1.20
   1   1 -13    6.40    1.20
  -1  -1  13    6.80    1.50
   0   1 -13   19.00    2.00
  -1   1 -13   76.69    3.20
  -1   1 -13   76.69    3.60
   1  -1  13   77.49    3.50
   1  -1  13   81.29    2.60
  -2   1 -13   -0.70    1.00
  -2   1 -13    0.80    0.70
  -2   1 -13    0.70    0.70
   2  -1  13    1.30    0.50
   2  -1  13    0.40    0.50
   2  -1  13    2.10    0.90
  -3   1 -13    5.80    1.10
  -3   1 -13    4.80    1.00
  -3   1 -13    4.90    1.30
   3  -1  13    6.10    1.20
   3  -1  13    5.30    1.10
  -4   1 -13   -0.10    0.70
  -4   1 -13    0.10    1.10
  -4   1 -13    0.40    0.60
   4  -1  13    0.00    0.90
   4  -1  13    0.40    0.40
  -5   1 -13   44.00    2.20
  -5   1 -13   42.20    2.80
  -5   1 -13   42.60    2.20
  -6   1 -13    5.50    1.00
  -6   1 -13    7.50    1.20
   5   0 -13   -0.50    0.90
   5   0 -13   -0.60    1.20
   5   0 -13   -0.10    1.90
   5   0 -13    0.10    0.80
  -5   0  13    1.60    1.80
   4   0 -13    6.50    1.30
   4   0 -13    6.80    1.20
   4   0 -13    8.20    1.90
  -4   0  13    5.10    1.60
   3   0 -13   16.20    1.90
   3   0 -13   16.50    1.60
   3   0 -13   16.50    2.20
  -3   0  13   17.30    2.30
  -3   0  13   17.20    1.80
   2   0 -13    3.70    1.10
  -2   0  13    3.50    0.90
  -2   0  13    3.10    1.30
   1   0 -13    0.80    0.80
  -1   0  13    0.70    1.00
   0   0 -13   96.19    3.70
   0   0  13   90.29    3.30
   0   0  13   98.39    4.10
  -1   0 -13   25.00    1.80
  -1   0 -13   24.40    2.30
   1   0  13   23.70    1.40
   1   0  13   22.60    2.00
   1   0  13   23.50    1.30
  -2   0 -13   13.40    1.80
  -2   0 -13   11.60    1.40
   2   0  13   13.40    1.60
   2   0  13   13.90    1.20
   2   0  13   12.10    0.90
  -3   0 -13   10.20    1.40
  -3   0 -13   12.60    1.80
  -3   0 -13   11.10    1.30
   3   0  13   11.40    1.40
   3   0  13   10.50    1.30
  -4   0 -13    0.20    0.50
  -4   0 -13   -0.10    0.60
  -4   0 -13   -0.80    1.10
   4   0  13   -0.50    0.70
   4   0  13    0.10    0.40
   4   0  13    0.50    0.60
  -5   0 -13   -0.30    0.70
  -5   0 -13   -0.20    1.20
  -5   0 -13    1.00    0.60
   5   0  13    1.50    0.90
  -6   0 -13   13.10    2.40
  -6   0 -13   20.30    2.10
  -6   0 -13   16.10    1.60
   6   0  13   16.90    2.10
  -7   0 -13    7.20    2.20
  -7   0 -13    7.30    1.30
  -7   0 -13    7.00    1.80
  -7   0 -13    6.80    1.00
   5  -1 -13    0.20    2.10
   5  -1 -13   -0.30    1.20
  -5   1  13    0.00    1.70
   4  -1 -13    3.60    1.00
   4  -1 -13    4.30    0.90
   4  -1 -13    3.50    1.20
  -4   1  13    2.60    1.50
   3  -1 -13    1.40    1.50
   3  -1 -13    1.80    1.00
   3  -1 -13    1.60    1.00
  -3   1  13    2.00    1.10
  -3   1  13    0.90    1.30
   2  -1 -13   35.10    2.30
   2  -1 -13   37.80    3.00
  -2   1  13   34.50    2.60
  -2   1  13   32.90    2.20
   1  -1 -13   25.00    2.50
   1  -1 -13   20.00    1.70
  -1   1  13   20.80    1.60
  -1   1  13   18.20    2.10
   0  -1 -13    1.10    0.80
   0   1  13    1.00    0.50
   0   1  13    0.50    0.90
  -1  -1 -13   19.00    2.10
  -1  -1 -13   21.80    1.70
   1   1  13   18.40    1.20
   1   1  13   16.00    1.20
   1   1  13   17.50    2.10
  -2  -1 -13  137.89    4.80
  -2  -1 -13  147.09    5.20
   2   1  13  141.19    4.20
   2   1  13  147.79    5.00
   2   1  13  145.59    4.00
  -3  -1 -13    4.90    1.30
  -3  -1 -13    2.70    0.90
   3   1  13    3.80    0.60
   3   1  13    2.70    0.70
   3   1  13    4.80    1.00
  -4  -1 -13   -0.10    0.70
  -4  -1 -13   -0.10    1.00
   4   1  13    0.50    0.70
   4   1  13    0.60    0.40
  -5  -1 -13    1.00    1.10
  -5  -1 -13   -0.10    1.10
  -5  -1 -13    0.40    0.60
   5   1  13    2.00    0.90
  -6  -1 -13   18.70    2.10
  -6  -1 -13   12.40    1.90
  -6  -1 -13   15.40    1.30
   6   1  13   14.00    1.60
  -7  -1 -13    6.70    0.90
  -7  -1 -13    6.80    3.00
  -7  -1 -13    6.40    1.50
  -7  -1 -13    5.30    1.60
   4  -2 -13    1.70    1.20
   4  -2 -13    0.20    2.10
   3  -2 -13    1.40    0.80
   3  -2 -13    1.40    1.10
   3  -2 -13    1.40    0.90
   3  -2 -13    1.30    1.60
  -3   2  13    0.90    1.30
   2  -2 -13   95.99    4.40
   2  -2 -13   87.19    3.80
   2  -2 -13   88.09    3.60
  -2   2  13   89.59    3.50
  -2   2  13   91.69    4.20
  -2   2  13   87.09    3.70
   1  -2 -13    0.00    0.80
   1  -2 -13    1.70    0.80
  -1   2  13   -0.30    1.00
   0  -2 -13    2.60    1.00
   0  -2 -13    3.80    1.00
   0   2  13    5.00    1.30
   0   2  13    3.30    0.80
  -1  -2 -13    0.30    1.00
  -1  -2 -13    2.00    0.90
  -1  -2 -13    3.50    1.10
   1   2  13    3.90    0.70
   1   2  13    3.40    0.80
   1   2  13    4.30    1.20
  -2  -2 -13   47.50    2.50
  -2  -2 -13   47.00    2.80
  -2  -2 -13   44.40    2.90
   2   2  13   45.40    2.50
   2   2  13   49.20    2.00
   2   2  13   47.70    1.90
  -3  -2 -13   80.39    3.30
  -3  -2 -13   84.69    4.20
  -3  -2 -13   83.89    3.80
   3   2  13   79.19    3.20
   3   2  13   79.79    2.50
   3   2  13   77.79    3.00
  -4  -2 -13   20.40    2.60
  -4  -2 -13   17.20    1.60
  -4  -2 -13   19.00    2.10
   4   2  13   16.40    1.20
   4   2  13   18.20    0.90
   4   2  13   15.00    1.40
  -5  -2 -13    7.90    1.60
  -5  -2 -13   12.10    2.10
  -5  -2 -13    7.80    1.60
   5   2  13    9.10    1.10
   5   2  13    7.70    0.70
  -6  -2 -13    1.20    1.30
  -6  -2 -13    0.90    1.30
   6   2  13    0.50    0.70
  -7  -2 -13    0.40    0.60
  -7  -2 -13   -1.00    1.30
  -7  -2 -13    0.80    1.50
   4  -3 -13    2.20    1.30
  -4   3  13    1.10    1.70
   3  -3 -13    3.80    1.40
   3  -3 -13    3.90    0.90
  -3   3  13    5.50    1.80
   2  -3 -13    1.90    1.10
   2  -3 -13    2.20    1.60
   2  -3 -13    2.20    0.90
  -2   3  13    2.00    1.40
   1  -3 -13    7.10    1.40
   1  -3 -13   10.40    1.90
   1  -3 -13    9.20    1.50
  -1   3  13    9.90    1.80
  -1   3  13    9.20    1.40
   0  -3 -13    6.40    1.20
   0  -3 -13    6.70    1.40
   0   3  13    5.10    1.30
   0   3  13    4.50    1.40
   0   3  13    6.90    1.10
  -1  -3 -13   15.60    2.00
  -1  -3 -13   11.90    1.60
   1   3  13   10.60    1.10
   1   3  13   12.30    1.70
  -2  -3 -13    5.20    1.40
  -2  -3 -13    5.80    1.10
  -2  -3 -13    4.70    1.10
   2   3  13    6.30    0.80
   2   3  13    7.30    1.00
  -3  -3 -13   21.70    2.50
  -3  -3 -13   17.90    2.10
  -3  -3 -13   17.70    2.20
   3   3  13   19.80    1.70
   3   3  13   18.70    1.10
   3   3  13   18.60    1.20
  -4  -3 -13   27.70    2.50
  -4  -3 -13   28.40    1.90
  -4  -3 -13   26.40    2.40
   4   3  13   27.30    1.30
   4   3  13   30.10    1.40
   4   3  13   27.50    1.80
  -5  -3 -13  121.19    4.70
  -5  -3 -13  111.09    5.20
  -5  -3 -13  118.09    4.30
   5   3  13  116.89    3.50
   5   3  13  118.39    3.50
   5   3  13  118.49    3.10
  -6  -3 -13    2.60    1.50
  -6  -3 -13    3.70    1.00
  -6  -3 -13    1.80    1.20
  -7  -3 -13    4.50    1.70
  -7  -3 -13    2.60    1.00
  -7  -3 -13    3.30    1.50
  -8  -3 -13    1.80    1.10
  -8  -3 -13    0.60    1.50
  -8  -3 -13    2.30    1.80
   3  -4 -13    0.50    1.20
  -3   4  13   -1.50    1.50
   2  -4 -13   10.80    1.30
   2  -4 -13    6.80    1.50
  -2   4  13    8.90    1.90
   1  -4 -13    1.50    0.90
   1  -4 -13    4.40    1.10
   1  -4 -13    3.00    1.90
  -1   4  13    2.00    1.20
   0  -4 -13    1.60    0.90
   0  -4 -13    1.10    1.40
   0  -4 -13    1.10    0.90
   0   4  13    2.50    1.00
   0   4  13    1.40    0.70
   0   4  13    1.00    1.00
  -1  -4 -13    9.80    1.70
  -1  -4 -13    5.60    1.30
   1   4  13    8.20    1.40
   1   4  13    5.60    0.90
   1   4  13    4.20    1.20
  -2  -4 -13    1.70    0.90
  -2  -4 -13    1.10    0.80
   2   4  13    1.10    0.90
   2   4  13    1.00    0.50
  -3  -4 -13   20.00    2.00
  -3  -4 -13   21.30    2.40
  -3  -4 -13   18.10    2.40
   3   4  13   19.30    1.50
   3   4  13   20.00    1.80
   3   4  13   18.80    1.10
  -4  -4 -13    6.60    1.40
  -4  -4 -13    7.30    1.30
  -4  -4 -13   10.10    1.90
   4   4  13    8.90    1.00
   4   4  13    7.20    0.70
   4   4  13    7.20    1.20
  -5  -4 -13    7.00    1.30
  -5  -4 -13    6.70    1.70
  -5  -4 -13    5.90    1.60
   5   4  13    3.70    0.80
   5   4  13    5.30    0.70
  -6  -4 -13   30.70    2.10
  -6  -4 -13   26.10    2.60
  -6  -4 -13   28.40    2.70
  -7  -4 -13    0.50    1.30
  -7  -4 -13    0.40    0.90
  -7  -4 -13    0.00    1.60
  -8  -4 -13    5.10    2.00
  -8  -4 -13    0.40    1.50
  -8  -4 -13    3.80    1.20
   2  -5 -13   -0.20    1.20
   2  -5 -13    0.00    0.80
  -2   5  13   -0.40    1.40
   1  -5 -13    2.90    1.30
   1  -5 -13    3.50    1.00
  -1   5  13    2.40    1.30
   0  -5 -13    6.60    1.30
   0  -5 -13    6.90    1.40
   0   5  13    5.60    1.50
  -1  -5 -13    1.00    0.90
  -1  -5 -13    0.10    1.00
  -1  -5 -13    0.70    1.60
   1   5  13    1.00    0.70
   1   5  13    0.90    1.00
   1   5  13    1.20    1.10
  -2  -5 -13    2.60    1.00
  -2  -5 -13    2.20    1.10
   2   5  13    3.10    0.80
   2   5  13    3.20    1.20
  -3  -5 -13    5.60    1.30
  -3  -5 -13    6.10    1.40
  -3  -5 -13    7.10    1.80
   3   5  13    6.90    1.40
   3   5  13    5.80    0.80
  -4  -5 -13   -1.00    1.50
  -4  -5 -13    0.10    1.00
  -4  -5 -13   -0.90    0.80
   4   5  13    0.90    0.80
   4   5  13    0.30    0.70
  -5  -5 -13    0.80    1.00
  -5  -5 -13    0.50    2.50
  -5  -5 -13    0.10    1.00
   5   5  13    0.80    0.70
   5   5  13    1.50    0.70
  -6  -5 -13    4.70    1.20
  -6  -5 -13    5.70    1.70
   6   5  13    5.00    0.60
   6   5  13    4.10    0.70
  -7  -5 -13   13.30    1.70
  -7  -5 -13   12.20    2.50
  -8  -5 -13   -0.80    1.10
  -8  -5 -13   -0.90    1.60
  -8  -5 -13   -1.30    2.30
   1  -6 -13    7.40    2.00
   1  -6 -13    6.90    1.30
  -1   6  13    6.90    1.90
   0  -6 -13    0.00    1.00
   0  -6 -13   -0.70    1.10
   0   6  13   -0.40    1.40
  -1  -6 -13    0.20    1.00
  -1  -6 -13    1.20    1.10
   1   6  13   -0.10    1.10
  -2  -6 -13   30.70    2.50
  -2  -6 -13   37.60    2.50
   2   6  13   31.10    1.90
   2   6  13   31.60    3.40
   2   6  13   36.20    2.70
  -3  -6 -13    0.00    1.00
  -3  -6 -13    0.50    1.00
   3   6  13   -0.30    1.00
   3   6  13    1.00    1.10
   3   6  13    1.50    0.60
  -4  -6 -13    2.80    1.20
  -4  -6 -13    3.50    1.40
   4   6  13    2.20    1.10
  -5  -6 -13   -1.40    1.00
  -5  -6 -13    0.50    1.00
   5   6  13   -0.40    0.70
   5   6  13    0.20    0.80
  -6  -6 -13    2.40    2.50
  -6  -6 -13    1.50    1.10
  -6  -6 -13    0.00    1.10
   6   6  13    1.10    0.70
   6   6  13    0.50    0.70
  -7  -6 -13    2.70    1.60
  -7  -6 -13    4.30    1.40
  -1  -7 -13    2.90    1.30
  -1  -7 -13    1.30    1.40
   1   7  13    2.10    1.60
   1   7  13    0.80    1.30
  -2  -7 -13    0.80    1.10
   2   7  13    1.10    1.30
   2   7  13    0.40    1.10
  -3  -7 -13    4.40    1.60
  -3  -7 -13    2.00    1.20
   3   7  13    4.40    1.30
   3   7  13    4.20    0.90
   3   7  13    3.50    1.10
  -4  -7 -13    3.50    1.40
  -4  -7 -13    2.40    1.30
   4   7  13    2.50    1.30
   4   7  13    2.40    1.10
  -5  -7 -13   -0.20    1.30
  -5  -7 -13    0.70    1.10
   5   7  13    0.80    0.90
   5   7  13    0.40    1.10
  -6  -7 -13    2.40    1.30
  -6  -7 -13    3.30    2.10
   6   7  13    3.90    1.10
   6   7  13    2.60    0.90
  -7  -7 -13   -0.20    1.60
  -7  -7 -13   -0.90    1.20
   7   7  13    1.00    0.70
  -3  -8 -13    4.10    2.60
  -3  -8 -13    2.10    1.40
   3   8  13    5.70    1.10
   3   8  13    3.20    1.20
  -4  -8 -13   14.90    2.20
  -4  -8 -13   17.80    2.40
   4   8  13   14.60    1.90
  -5  -8 -13    0.90    1.50
  -5  -8 -13    1.50    1.40
   5   8  13    0.70    1.10
   1   5 -14   -0.30    1.10
  -1  -5  14    2.30    1.60
   3   4 -14   -0.90    1.10
  -3  -4  14    0.10    1.50
  -2  -4  14   12.70    2.20
   1   4 -14    0.40    0.90
  -1  -4  14    1.30    1.50
   0   4 -14    3.40    1.00
   0  -4  14    4.90    1.60
  -1   4 -14   12.30    2.00
  -1   4 -14   10.80    2.50
   1  -4  14   13.60    2.00
   1  -4  14   10.10    1.50
  -2   4 -14   13.40    1.80
   2  -4  14   13.50    2.00
   4   3 -14    2.30    1.50
  -4  -3  14    0.10    1.70
   3   3 -14    0.60    1.10
   3   3 -14    0.90    1.50
  -3  -3  14    1.90    1.80
   2   3 -14    1.10    1.00
   2   3 -14    1.60    1.60
  -2  -3  14    0.60    1.30
   1   3 -14    0.90    0.90
   1   3 -14    3.90    2.20
  -1  -3  14    2.40    1.40
   0   3 -14    2.80    1.10
   0   3 -14    3.30    1.10
   0  -3  14    2.70    0.90
   0  -3  14    2.50    1.40
  -1   3 -14    3.70    1.00
  -1   3 -14    3.00    1.10
   1  -3  14    3.10    1.30
  -2   3 -14   13.50    1.60
  -2   3 -14   15.70    1.70
   2  -3  14   14.70    1.50
  -3   3 -14    1.20    0.80
  -3   3 -14    1.10    0.90
   3  -3  14    1.30    1.10
   3  -3  14    0.60    0.90
   4   2 -14   -0.20    1.20
  -4  -2  14   -0.80    1.50
   3   2 -14   -0.90    1.00
   3   2 -14    0.50    1.20
  -3  -2  14   -0.50    1.30
   2   2 -14    0.00    0.90
   2   2 -14    0.00    1.80
  -2  -2  14   -0.70    1.20
   1   2 -14   -0.20    1.10
   1   2 -14   -0.10    0.90
  -1  -2  14   -0.10    0.60
  -1  -2  14    0.00    1.10
  -1  -2  14    0.80    0.70
   0   2 -14    0.60    0.80
   0  -2  14    0.70    1.10
   0  -2  14    0.40    0.70
  -1   2 -14    2.40    0.90
  -1   2 -14   -0.10    0.80
  -1   2 -14    1.10    1.40
   1  -2  14    0.40    0.80
   1  -2  14    0.70    1.10
  -2   2 -14    3.40    1.00
  -2   2 -14    3.50    1.00
  -2   2 -14    3.70    1.60
   2  -2  14    4.00    1.10
   2  -2  14    4.80    1.30
  -3   2 -14   -0.10    0.60
  -3   2 -14   -1.10    1.40
  -3   2 -14   -0.10    0.80
   3  -2  14   -0.40    1.00
   3  -2  14   -0.90    1.00
   3  -2  14    0.30    0.70
  -4   2 -14    9.30    1.30
  -4   2 -14   15.70    1.70
  -4   2 -14   13.20    2.20
   4  -2  14   15.90    2.60
   4  -2  14   13.70    1.30
   4   1 -14   10.30    1.80
   4   1 -14   15.60    1.80
  -4  -1  14   10.50    2.20
   3   1 -14    0.20    0.90
   3   1 -14    0.40    1.00
  -3  -1  14   -0.90    1.30
   2   1 -14    0.60    1.00
  -2  -1  14    0.10    1.20
  -2  -1  14    0.20    1.00
   1   1 -14    4.60    1.20
   1   1 -14    6.00    1.60
  -1  -1  14    5.90    0.90
  -1  -1  14    6.80    1.10
  -1  -1  14    5.60    1.40
   0   1 -14    1.20    1.30
   0   1 -14    0.60    0.80
   0  -1  14    0.80    0.70
   0  -1  14    1.20    0.70
   0  -1  14    1.80    1.20
  -1   1 -14    3.30    1.40
  -1   1 -14    4.10    1.10
   1  -1  14    3.50    1.20
  -2   1 -14   20.80    1.70
  -2   1 -14   18.90    2.20
  -2   1 -14   21.90    1.80
   2  -1  14   18.40    1.20
   2  -1  14   20.80    2.00
  -3   1 -14    3.00    0.90
  -3   1 -14    3.30    0.90
  -3   1 -14    2.50    1.50
   3  -1  14    4.00    1.10
  -4   1 -14    5.80    1.10
  -4   1 -14    3.60    0.90
  -4   1 -14    4.30    1.70
   4  -1  14    4.10    0.80
   4  -1  14    6.70    0.80
   4  -1  14    5.60    1.40
  -5   1 -14   19.00    1.70
  -5   1 -14   18.90    1.60
  -5   1 -14   22.50    2.40
   5  -1  14   22.40    2.90
   4   0 -14    0.00    1.00
   4   0 -14    2.50    1.30
  -4   0  14   -0.30    1.60
   3   0 -14    0.50    1.10
   3   0 -14   -0.30    0.90
  -3   0  14    0.20    1.40
   2   0 -14    0.60    1.00
  -2   0  14    0.40    0.80
  -2   0  14   -0.30    1.20
   1   0 -14   11.70    1.90
   1   0 -14   12.60    1.70
  -1   0  14   15.20    2.00
  -1   0  14   12.80    1.30
  -1   0  14   11.50    1.80
   0   0 -14    1.50    0.90
   0   0 -14    2.60    1.40
   0   0  14    1.60    0.70
   0   0  14    1.20    1.00
  -1   0 -14    0.10    1.30
  -1   0 -14   -0.70    0.70
   1   0  14   -0.40    0.90
   1   0  14    0.10    0.40
  -2   0 -14   28.40    2.00
   2   0  14   30.90    2.30
   2   0  14   28.30    1.80
   2   0  14   33.40    1.50
  -3   0 -14    4.30    1.00
  -3   0 -14    1.90    1.50
   3   0  14    5.30    1.20
   3   0  14    5.10    0.70
   3   0  14    4.40    1.00
  -4   0 -14   -1.40    1.30
  -4   0 -14    0.30    0.80
   4   0  14   -0.40    0.80
   4   0  14    0.70    0.80
  -5   0 -14    3.70    1.10
  -5   0 -14    3.60    1.70
  -5   0 -14    1.80    0.80
   5   0  14    2.70    1.30
  -6   0 -14    4.50    3.10
  -6   0 -14    2.40    0.80
  -6   0 -14    1.70    1.00
  -6   0 -14    4.00    1.90
   4  -1 -14    0.40    1.00
   4  -1 -14   -0.80    1.30
   4  -1 -14   -0.30    0.90
  -4   1  14    0.60    1.70
   3  -1 -14    0.20    1.00
   3  -1 -14    0.20    0.90
   3  -1 -14   -1.20    1.00
  -3   1  14   -0.30    1.40
   2  -1 -14    0.00    0.90
   2  -1 -14    1.40    1.10
  -2   1  14    0.90    1.20
  -2   1  14    0.40    0.90
   1  -1 -14   15.60    2.20
  -1   1  14   16.30    2.20
  -1   1  14   17.50    1.60
   0  -1 -14   -0.30    0.70
   0   1  14    0.20    1.00
  -1  -1 -14   86.69    5.60
  -1  -1 -14   88.29    3.70
   1   1  14   91.19    4.00
   1   1  14   90.29    3.20
  -2  -1 -14   11.50    2.30
  -2  -1 -14   13.50    1.60
   2   1  14   13.10    1.70
   2   1  14   13.10    1.10
   2   1  14   13.80    1.20
  -3  -1 -14   17.70    2.10
  -3  -1 -14   14.40    1.60
   3   1  14   13.40    1.00
   3   1  14   14.80    1.60
   3   1  14   11.90    1.20
  -4  -1 -14   40.80    2.90
  -4  -1 -14   34.10    2.20
  -4  -1 -14   35.50    3.00
   4   1  14   36.80    2.00
   4   1  14   38.80    2.10
   4   1  14   40.00    1.50
  -5  -1 -14   34.10    1.90
  -5  -1 -14   36.80    2.30
  -5  -1 -14   41.20    3.10
  -5  -1 -14   44.20    3.40
   5   1  14   37.90    2.20
  -6  -1 -14   -0.20    1.50
  -6  -1 -14    1.40    0.70
  -6  -1 -14   -0.20    0.90
  -6  -1 -14    0.10    1.80
   6   1  14    0.10    1.10
   3  -2 -14    2.20    1.10
   3  -2 -14    3.00    1.30
   3  -2 -14    3.00    1.10
   2  -2 -14    0.90    1.10
   2  -2 -14    0.60    1.00
  -2   2  14    0.70    1.20
   1  -2 -14    2.40    1.00
   1  -2 -14    2.30    1.00
   1  -2 -14    3.90    1.80
  -1   2  14    3.00    1.30
  -1   2  14    1.90    1.00
   0  -2 -14    0.20    1.00
   0  -2 -14    0.70    1.40
   0  -2 -14    0.20    0.80
   0   2  14    0.20    0.80
   0   2  14    2.20    1.30
  -1  -2 -14    8.80    1.60
  -1  -2 -14    7.90    1.40
  -1  -2 -14   10.20    1.90
   1   2  14    8.30    1.00
   1   2  14    8.20    1.50
  -2  -2 -14    4.70    1.10
  -2  -2 -14    4.20    1.30
   2   2  14    5.10    1.20
   2   2  14    3.80    0.80
   2   2  14    6.90    0.90
  -3  -2 -14    2.30    1.00
  -3  -2 -14    0.90    1.00
  -3  -2 -14    1.70    1.30
   3   2  14    2.70    1.00
   3   2  14    1.60    0.60
   3   2  14    2.00    0.60
  -4  -2 -14   42.70    3.10
  -4  -2 -14   39.50    2.30
  -4  -2 -14   36.90    2.90
   4   2  14   38.30    2.10
   4   2  14   38.10    1.90
  -5  -2 -14    4.00    1.60
  -5  -2 -14    0.20    0.90
  -5  -2 -14    1.60    1.00
   5   2  14   -0.10    0.80
  -6  -2 -14    2.50    1.00
  -6  -2 -14    2.80    1.60
  -6  -2 -14    0.80    1.40
   6   2  14    2.30    1.00
  -7  -2 -14    3.80    1.20
  -7  -2 -14    4.70    1.90
  -7  -2 -14    4.70    1.80
   3  -3 -14    0.10    0.80
   3  -3 -14   -0.20    0.90
   3  -3 -14    0.40    1.30
  -3   3  14    1.70    1.70
   2  -3 -14    1.10    1.00
   2  -3 -14   -0.80    1.10
  -2   3  14    1.60    1.50
   1  -3 -14   -0.90    1.00
   1  -3 -14    1.10    1.00
  -1   3  14    0.10    0.80
  -1   3  14    0.70    1.30
   0  -3 -14   30.70    3.20
   0  -3 -14   28.90    2.20
   0  -3 -14   29.50    2.40
   0   3  14   30.50    2.50
   0   3  14   33.10    2.20
  -1  -3 -14    0.10    0.80
  -1  -3 -14    0.20    0.90
  -1  -3 -14    1.20    1.40
   1   3  14   -0.30    1.00
   1   3  14   -0.30    0.60
  -2  -3 -14    7.60    1.40
  -2  -3 -14    8.40    1.90
  -2  -3 -14    6.00    1.40
   2   3  14    5.90    0.90
   2   3  14    5.00    1.20
  -3  -3 -14   19.70    3.70
  -3  -3 -14   17.60    2.30
  -3  -3 -14   20.40    2.00
   3   3  14   21.70    1.40
   3   3  14   18.90    2.00
   3   3  14   19.50    1.20
  -4  -3 -14   10.10    1.50
  -4  -3 -14   12.50    2.00
   4   3  14   13.10    1.50
   4   3  14   10.70    1.00
   4   3  14   10.70    1.00
  -5  -3 -14   10.70    2.00
  -5  -3 -14   12.80    1.70
  -5  -3 -14   12.20    2.20
   5   3  14   12.50    0.80
   5   3  14   11.40    1.20
   5   3  14   13.30    1.20
  -6  -3 -14   18.20    2.40
  -6  -3 -14   12.60    2.30
  -7  -3 -14    3.80    1.30
  -7  -3 -14    5.00    2.20
  -7  -3 -14    5.10    2.00
   2  -4 -14   51.59    2.60
   2  -4 -14   52.99    3.20
  -2   4  14   50.49    3.70
   1  -4 -14    2.10    1.10
   1  -4 -14    3.50    1.30
  -1   4  14    1.80    1.40
  -1   4  14    4.70    1.20
   0  -4 -14    0.80    1.00
   0  -4 -14   -0.20    0.90
   0   4  14   -0.60    1.20
  -1  -4 -14    0.00    1.00
  -1  -4 -14    0.30    1.00
   1   4  14   -0.90    0.90
   1   4  14    0.00    1.00
   1   4  14    0.10    0.60
  -2  -4 -14    2.80    1.10
  -2  -4 -14    3.00    1.10
  -2  -4 -14    4.90    1.70
   2   4  14    3.20    0.70
   2   4  14    3.60    1.20
  -3  -4 -14    9.00    2.00
  -3  -4 -14    8.90    1.70
  -3  -4 -14   10.90    1.60
   3   4  14    8.50    1.40
  -4  -4 -14    0.00    1.50
  -4  -4 -14    1.40    1.00
  -4  -4 -14    0.10    1.10
   4   4  14    0.60    0.50
   4   4  14    1.20    0.60
   4   4  14    0.90    0.90
  -5  -4 -14    3.70    1.80
  -5  -4 -14    4.70    1.60
  -5  -4 -14    3.60    1.20
   5   4  14    3.40    0.90
  -6  -4 -14    0.10    1.10
  -6  -4 -14    0.10    1.00
  -6  -4 -14   -1.10    1.70
   6   4  14    0.00    0.40
  -7  -4 -14    5.50    2.30
  -7  -4 -14    3.50    1.30
  -7  -4 -14    2.40    1.60
   1  -5 -14    0.70    1.50
   1  -5 -14    0.00    1.00
  -1   5  14    1.50    1.40
   0  -5 -14    0.40    1.10
   0  -5 -14    2.50    1.20
   0   5  14    0.70    1.30
   0   5  14    0.70    1.00
  -1  -5 -14    1.80    1.10
  -1  -5 -14   -1.20    1.00
   1   5  14    0.10    0.70
   1   5  14   -0.80    1.10
  -2  -5 -14    4.10    1.30
  -2  -5 -14    5.30    1.40
   2   5  14    7.10    1.40
   2   5  14    5.60    0.90
   2   5  14    6.40    1.50
  -3  -5 -14    1.30    1.10
  -3  -5 -14   -0.10    1.10
   3   5  14    0.00    1.00
  -4  -5 -14   10.90    1.70
  -4  -5 -14    8.10    1.70
   4   5  14   12.20    0.90
   4   5  14    8.50    1.40
  -5  -5 -14   53.79    3.70
  -5  -5 -14   55.09    3.10
  -5  -5 -14   64.69    5.30
   5   5  14   52.19    2.50
   5   5  14   56.39    2.20
  -6  -5 -14    8.80    2.00
  -6  -5 -14    9.30    2.50
  -6  -5 -14    5.90    1.50
   6   5  14    6.40    0.90
   6   5  14    7.30    0.70
  -7  -5 -14    1.00    1.20
  -7  -5 -14   -0.30    1.60
   0  -6 -14   -0.10    1.10
   0  -6 -14   -0.70    1.30
   0   6  14    1.30    1.60
  -1  -6 -14    1.20    1.10
   1   6  14    1.50    1.50
  -2  -6 -14    1.50    1.30
  -2  -6 -14   -0.70    1.10
   2   6  14    1.40    1.30
   2   6  14    1.30    0.80
  -3  -6 -14    3.50    1.30
  -3  -6 -14    2.80    1.30
   3   6  14    2.70    1.40
   3   6  14    2.40    0.70
   3   6  14    0.80    1.20
  -4  -6 -14   -0.30    1.20
  -4  -6 -14    0.10    1.10
   4   6  14    0.60    1.00
  -5  -6 -14    8.50    1.60
  -5  -6 -14   10.60    2.10
   5   6  14    8.80    1.30
  -6  -6 -14    5.10    1.50
  -6  -6 -14    3.70    1.70
   6   6  14    6.50    0.90
   6   6  14    5.90    1.00
  -2  -7 -14    3.90    1.60
  -2  -7 -14    1.80    1.40
   2   7  14    3.20    1.10
   2   7  14    5.40    1.60
   2   7  14    3.80    1.60
  -3  -7 -14    0.80    1.30
  -3  -7 -14    0.30    1.30
   3   7  14    0.80    0.70
   3   7  14    2.60    1.40
   3   7  14    0.60    1.00
  -4  -7 -14    4.70    1.70
  -4  -7 -14    2.80    1.50
   4   7  14    5.60    1.40
  -5  -7 -14   -0.60    1.30
  -5  -7 -14   -0.90    1.50
   5   7  14   -0.60    1.20
   5   7  14    0.20    1.00
  -6  -7 -14    8.20    2.00
   3   3 -15    3.60    1.40
  -3  -3  15    5.00    2.20
   2   3 -15    0.00    1.20
   1   3 -15    7.40    1.60
  -1  -3  15    4.60    1.80
   0  -3  15    0.70    1.50
  -1   3 -15    6.20    1.30
   1  -3  15    8.00    1.80
  -2   3 -15    1.50    0.90
   2  -3  15    0.40    1.40
   3   2 -15   -0.10    1.30
   3   2 -15    0.20    1.40
  -3  -2  15    2.00    1.60
   2   2 -15   13.70    2.80
  -2  -2  15   10.80    2.00
   1   2 -15    2.70    2.00
   1   2 -15    1.10    1.10
  -1  -2  15    2.30    1.50
   0   2 -15    4.80    1.20
   0  -2  15    5.40    1.70
   0  -2  15    4.40    1.10
  -1   2 -15   -0.30    0.90
   1  -2  15   -0.60    1.10
   1  -2  15    0.30    0.70
   1  -2  15   -1.00    1.20
  -2   2 -15   17.40    1.80
  -2   2 -15   20.50    2.10
   2  -2  15   19.40    2.10
  -3   2 -15    6.90    1.40
  -3   2 -15    7.80    1.40
   3  -2  15    6.20    1.10
   3  -2  15    3.80    1.30
   3   1 -15    1.90    2.00
   3   1 -15    1.20    1.40
  -3  -1  15    1.90    1.60
   2   1 -15   -0.20    1.30
   2   1 -15    0.10    1.10
  -2  -1  15   -0.20    1.40
   1   1 -15   -0.10    1.00
  -1  -1  15    1.70    1.40
   0   1 -15   11.30    1.70
   0  -1  15   12.70    1.30
   0  -1  15   14.70    2.20
   0  -1  15   10.50    1.30
  -1   1 -15    4.10    1.20
   1  -1  15    4.00    0.90
   1  -1  15    2.30    1.20
  -2   1 -15    1.90    1.00
   2  -1  15    1.30    0.70
   2  -1  15    2.20    1.20
   2  -1  15    1.30    0.90
  -3   1 -15    0.60    1.00
  -3   1 -15    0.90    0.90
   3  -1  15    1.70    1.10
   3  -1  15    0.70    1.00
  -4   1 -15    3.20    1.00
  -4   1 -15    8.30    1.40
   4  -1  15    4.30    1.50
   4  -1  15    4.60    1.00
   4  -1  15    6.40    0.90
   3   0 -15    0.40    1.20
   3   0 -15    1.00    1.20
  -3   0  15    1.40    1.60
   2   0 -15    1.20    1.10
  -2   0  15    0.40    1.40
   1   0 -15    2.00    1.10
  -1   0  15    2.90    1.20
  -1   0  15    0.90    1.30
   0   0 -15    0.00    0.90
   0   0  15    1.00    0.70
   0   0  15    1.10    0.70
   0   0  15    1.30    1.20
  -1   0 -15    5.20    1.30
   1   0  15    4.60    1.00
   1   0  15    5.00    1.40
  -2   0 -15   12.60    1.70
  -2   0 -15   20.50    3.30
   2   0  15   14.30    1.80
  -3   0 -15    8.70    2.00
  -3   0 -15    6.70    1.40
   3   0  15    8.40    0.90
   3   0  15    6.70    1.30
  -4   0 -15    3.60    1.10
  -4   0 -15    4.80    1.80
  -4   0 -15    3.80    1.00
   4   0  15    5.80    1.10
  -5   0 -15    1.20    0.80
  -5   0 -15   -0.70    1.80
  -5   0 -15    1.00    1.10
   3  -1 -15    0.50    1.10
   3  -1 -15   -0.30    1.20
   3  -1 -15   -0.40    1.20
  -3   1  15    0.90    1.60
   2  -1 -15    0.10    1.10
  -2   1  15    0.40    1.30
   1  -1 -15   11.00    1.70
  -1   1  15   14.70    2.20
  -1   1  15   13.90    1.60
   0  -1 -15    2.00    1.00
   0   1  15    2.10    0.90
   0   1  15    1.20    1.20
  -1  -1 -15    6.90    1.40
   1   1  15    8.00    1.60
  -2  -1 -15   15.70    1.80
  -2  -1 -15   17.50    2.40
   2   1  15   15.50    2.00
  -3  -1 -15    0.00    1.50
  -3  -1 -15    0.00    0.90
   3   1  15    0.20    0.70
   3   1  15   -0.10    1.00
   3   1  15    0.10    0.50
  -4  -1 -15   11.90    1.70
  -4  -1 -15    9.90    2.20
  -4  -1 -15    9.50    2.00
   4   1  15   11.80    1.40
   4   1  15    9.20    1.30
  -5  -1 -15   18.30    2.50
  -5  -1 -15   19.00    2.00
  -5  -1 -15   16.90    3.90
   5   1  15   17.40    1.90
  -6  -1 -15    2.60    2.00
  -6  -1 -15    1.20    1.10
  -6  -1 -15    1.50    0.80
  -6  -1 -15    1.30    1.80
   6   1  15    2.40    1.40
   3  -2 -15    3.20    1.20
   3  -2 -15    1.60    1.20
   2  -2 -15    0.40    1.20
   2  -2 -15    2.50    1.20
   1  -2 -15    5.00    1.30
   1  -2 -15    6.30    1.50
  -1   2  15    6.30    1.80
  -1   2  15    7.50    1.30
   0  -2 -15    1.60    1.00
   0  -2 -15    0.10    1.00
   0   2  15    1.10    1.30
  -1  -2 -15    5.10    1.30
  -1  -2 -15    3.50    1.30
   1   2  15    6.90    1.60
   1   2  15    6.80    1.10
  -2  -2 -15    0.20    1.10
  -2  -2 -15    1.10    1.50
  -2  -2 -15    0.10    1.00
   2   2  15    0.20    0.60
   2   2  15    2.00    1.20
  -3  -2 -15    3.20    1.70
  -3  -2 -15    1.80    1.10
  -3  -2 -15    3.80    1.20
   3   2  15    4.20    0.80
   3   2  15    7.90    1.10
  -4  -2 -15   10.60    1.60
  -4  -2 -15   12.20    2.20
  -4  -2 -15   13.10    2.20
   4   2  15   12.20    1.30
   4   2  15   13.10    1.50
   4   2  15   13.30    1.00
  -5  -2 -15    0.50    1.30
  -5  -2 -15    1.20    1.80
  -5  -2 -15    0.70    1.00
   5   2  15    0.30    0.90
   5   2  15    0.50    0.70
  -6  -2 -15    7.70    2.10
  -6  -2 -15    5.40    1.80
  -6  -2 -15    7.90    1.50
   6   2  15    5.90    1.30
   2  -3 -15   -0.10    1.10
  -2   3  15    0.10    1.60
   1  -3 -15    1.30    1.20
   1  -3 -15    1.20    1.20
  -1   3  15   -0.10    1.40
   0  -3 -15    0.30    1.10
   0  -3 -15   -0.50    1.10
   0   3  15    0.10    1.20
   0   3  15    1.10    1.20
  -1  -3 -15   30.00    2.40
  -1  -3 -15   34.10    2.80
   1   3  15   35.10    2.80
   1   3  15   35.20    2.20
  -2  -3 -15    3.20    1.20
  -2  -3 -15    4.40    1.30
   2   3  15    4.10    1.30
   2   3  15    6.90    1.00
  -3  -3 -15   13.00    1.70
  -3  -3 -15   10.40    2.00
   3   3  15   13.50    1.80
   3   3  15   11.80    1.10
  -4  -3 -15   26.10    2.20
  -4  -3 -15   24.90    2.90
  -4  -3 -15   17.80    2.50
   4   3  15   20.80    1.30
   4   3  15   23.30    1.90
   4   3  15   22.40    1.40
  -5  -3 -15    7.90    2.00
  -5  -3 -15    8.90    1.60
  -5  -3 -15    7.70    2.20
   5   3  15    9.40    1.20
   5   3  15    8.10    0.70
   5   3  15    7.40    1.10
  -6  -3 -15    0.40    2.10
  -6  -3 -15    1.30    1.50
  -6  -3 -15    1.00    1.10
   1  -4 -15   11.40    1.70
  -1   4  15    7.10    1.90
   0  -4 -15    0.90    1.30
   0  -4 -15    0.50    1.10
   0   4  15   -0.90    1.30
   0   4  15    1.50    1.00
  -1  -4 -15    2.60    1.30
  -1  -4 -15    3.50    1.40
   1   4  15    2.20    1.30
  -2  -4 -15    1.00    1.00
  -2  -4 -15    1.40    1.10
   2   4  15    1.70    0.70
   2   4  15    1.50    1.20
   2   4  15    2.10    1.00
  -3  -4 -15   12.60    1.80
  -3  -4 -15    9.90    2.00
   3   4  15   12.00    1.60
   3   4  15   12.30    1.80
   3   4  15   12.20    1.10
  -4  -4 -15    6.80    1.50
  -4  -4 -15    6.90    1.80
   4   4  15    5.60    1.40
   4   4  15    5.70    1.00
   4   4  15    6.40    0.90
  -5  -4 -15    9.20    2.00
  -5  -4 -15    7.90    1.70
   5   4  15    8.00    1.20
   5   4  15    9.50    0.90
  -6  -4 -15    0.00    1.50
  -6  -4 -15   -0.40    1.10
   0  -5 -15    2.30    1.30
   0  -5 -15    2.50    1.50
   0   5  15    1.80    1.50
   0   5  15    2.20    1.50
   1   5  15    2.30    1.30
   1   5  15    2.00    1.50
  -2  -5 -15   -0.10    1.20
  -2  -5 -15    1.10    1.20
   2   5  15    0.40    0.80
   2   5  15   -0.10    1.20
  -3  -5 -15   17.80    2.20
  -3  -5 -15   17.40    2.10
   3   5  15   17.50    2.10
   3   5  15   16.70    1.80
   3   5  15   18.30    1.30
  -4  -5 -15    3.00    1.40
  -4  -5 -15    6.20    1.50
   4   5  15    6.20    1.20
   4   5  15    4.10    1.20
   4   5  15    5.20    0.80
  -5  -5 -15   18.60    2.80
  -5  -5 -15   27.40    2.50
   5   5  15   21.30    2.00
   5   5  15   23.40    1.60
  -6  -5 -15    2.10    1.30
  -6  -5 -15   -0.50    1.50
   6   5  15    0.00    0.50
   6   5  15    0.10    0.70
  -1  -6 -15    0.00    1.30
   1   6  15    0.20    1.10
   1   6  15    1.90    1.70
  -2  -6 -15    0.10    1.30
  -2  -6 -15   -0.20    1.30
   2   6  15    0.50    1.50
   2   6  15    0.60    0.90
  -3  -6 -15    1.40    1.40
  -3  -6 -15    0.20    1.40
   3   6  15    1.10    1.40
   3   6  15    1.60    0.80
  -4  -6 -15    7.20    1.80
  -4  -6 -15    2.30    1.50
   4   6  15    5.00    1.40
   4   6  15    4.10    1.40
  -5  -6 -15   -0.20    1.50
  -5  -6 -15    1.20    1.70
   5   6  15    0.70    1.10
   1   2 -16    0.20    1.30
   0   2 -16    6.20    1.60
   0  -2  16   10.80    2.20
  -1   2 -16    0.30    1.10
   1  -2  16    1.00    1.50
  -2   2 -16    2.30    1.00
   2  -2  16    2.20    1.60
   2   1 -16    0.70    1.30
  -2  -1  16    0.50    1.80
   1   1 -16    7.20    1.60
  -1  -1  16    4.70    2.00
   0  -1  16   -0.20    1.40
   1  -1  16    1.40    0.90
   1  -1  16   -0.10    1.40
  -2   1 -16    2.40    1.40
   2  -1  16    2.80    1.00
   2  -1  16    2.20    1.40
   2  -1  16    2.90    1.50
  -3   1 -16   13.70    2.00
   3  -1  16   14.30    2.30
   2   0 -16    8.30    1.80
   2   0 -16    5.50    1.60
  -2   0  16    6.60    2.20
  -1   0  16    3.80    1.70
   0   0 -16    2.90    1.40
   0   0  16    2.20    1.40
  -1   0 -16    0.70    1.10
   1   0  16    0.10    0.80
   1   0  16    1.70    0.80
   1   0  16   -0.40    1.30
   2   0  16    2.10    1.00
   2   0  16    2.50    1.40
  -3   0 -16    1.40    1.20
   3   0  16    3.20    1.10
   3   0  16    3.80    0.80
  -4   0 -16    1.40    1.20
   4   0  16    0.90    1.10
   4   0  16    0.40    1.20
   2  -1 -16   -0.40    1.40
   2  -1 -16    1.40    1.30
  -2   1  16   -0.40    1.70
   1  -1 -16    4.10    1.50
   0  -1 -16    1.70    1.20
   0   1  16    2.60    1.50
   0   1  16    2.60    1.20
  -1  -1 -16   -0.60    0.90
   1   1  16   -0.20    0.70
   1   1  16    1.30    1.40
   1   1  16   -0.20    0.90
  -2  -1 -16   14.60    1.90
   2   1  16   18.80    2.20
   2   1  16   18.30    1.60
  -3  -1 -16    0.90    1.50
  -3  -1 -16    1.10    1.10
   3   1  16    0.50    1.20
   3   1  16    0.20    0.70
  -4  -1 -16   26.40    3.60
  -4  -1 -16   28.00    2.30
   4   1  16   24.80    1.40
   4   1  16   25.10    2.00
  -5  -1 -16   21.60    3.90
  -5  -1 -16    1.00    1.20
   1  -2 -16    5.50    1.70
   1  -2 -16    2.80    1.40
  -1   2  16    4.10    1.90
   0  -2 -16    0.00    1.20
   0   2  16    2.10    1.50
   0   2  16    0.70    0.90
  -1  -2 -16    4.10    1.40
  -1  -2 -16    8.40    1.60
   1   2  16    5.80    1.60
  -2  -2 -16    0.00    1.10
  -2  -2 -16    0.20    1.30
   2   2  16    0.40    0.80
   2   2  16    0.30    1.20
  -3  -2 -16    3.40    1.40
  -3  -2 -16    6.00    1.40
   3   2  16    4.20    1.00
   3   2  16    4.40    1.30
  -4  -2 -16    1.50    1.50
  -4  -2 -16   -0.40    1.00
   4   2  16    1.00    0.60
   4   2  16    1.10    1.10
   4   2  16    1.00    0.80
  -5  -2 -16    1.10    1.20
  -5  -2 -16    0.50    1.40
   5   2  16    0.20    1.10
   5   2  16    1.30    0.80
   1  -3 -16    7.90    1.80
   1  -3 -16    5.60    1.60
  -1   3  16    9.70    2.10
   0  -3 -16    2.20    1.30
   0  -3 -16    1.90    1.40
   0   3  16    2.60    2.70
   0   3  16    1.30    1.40
  -1  -3 -16    5.20    2.60
  -1  -3 -16    4.50    1.60
   1   3  16    2.90    1.40
  -2  -3 -16    5.70    1.70
  -2  -3 -16    5.10    1.40
   2   3  16    7.20    1.60
   2   3  16    5.40    1.30
  -3  -3 -16    2.90    1.50
  -3  -3 -16    4.50    1.30
   3   3  16    2.90    0.80
   3   3  16    4.20    1.40
  -4  -3 -16    4.60    1.40
  -4  -3 -16    2.30    1.50
   4   3  16    1.90    0.80
   4   3  16    2.80    0.80
  -5  -3 -16    2.70    1.30
  -5  -3 -16    0.90    1.50
   5   3  16    3.30    1.00
   5   3  16    1.70    1.00
   0  -4 -16    1.60    1.40
   0  -4 -16    1.80    1.50
   0   4  16    1.40    1.50
  -1  -4 -16    1.80    1.40
  -1  -4 -16    1.40    1.40
   1   4  16    1.60    1.40
   1   4  16    1.30    1.10
  -2  -4 -16    4.70    2.00
  -2  -4 -16    8.20    2.00
   2   4  16    6.80    1.80
  -3  -4 -16    1.10    1.30
  -3  -4 -16    3.20    2.20
   3   4  16    1.80    0.70
   3   4  16    1.70    1.10
   3   4  16    1.60    1.30
  -4  -4 -16    7.80    2.20
  -4  -4 -16    6.80    1.70
   4   4  16    6.50    1.50
   4   4  16    7.60    1.00
  -5  -4 -16    6.80    2.00
  -5  -4 -16    7.30    1.80
   5   4  16    5.70    1.20
   5   4  16    4.50    0.80
  -2  -5 -16    2.40    1.50
  -2  -5 -16    4.40    1.60
   2   5  16    2.40    1.60
  -3  -5 -16    2.20    1.50
  -3  -5 -16    2.40    1.50
   3   5  16    3.20    0.80
   3   5  16    4.50    1.50
  -4  -5 -16    4.70    1.60
   4   5  16    2.00    1.30
   4   5  16    2.70    1.20
  -1   0 -17   -0.30    1.30
   1   0  17    0.90    1.60
  -2   0 -17    1.10    1.30
   2   0  17    1.60    1.60
   2   0  17    1.50    0.90
   0  -1 -17    0.00    1.40
   0  -1 -17    1.00    1.70
  -1  -1 -17    0.70    1.60
  -1  -1 -17    0.70    1.30
   1   1  17    3.20    1.60
  -2  -1 -17    0.30    1.30
  -2  -1 -17   -1.90    1.80
   2   1  17    1.10    1.40
   2   1  17   -1.00    0.90
  -3  -1 -17    5.40    1.60
  -3  -1 -17    5.10    1.90
   3   1  17    5.40    1.50
   3   1  17    5.40    1.30
   3   1  17    6.60    1.20
   0  -2 -17    0.30    1.60
   0   2  17    1.70    1.80
  -1  -2 -17    3.20    1.70
  -1  -2 -17    4.30    1.50
   1   2  17    1.40    1.60
  -2  -2 -17    1.20    1.40
  -2  -2 -17    2.50    1.70
   2   2  17    3.40    1.10
   2   2  17    0.40    1.40
  -3  -2 -17    1.00    1.30
  -3  -2 -17    1.00    1.50
   3   2  17    1.90    1.30
   3   2  17    1.60    0.90
   3   2  17   -0.10    1.00
  -1  -3 -17    1.80    1.60
   1   3  17    2.10    1.40
  -2  -3 -17    8.70    2.10
  -2  -3 -17    5.90    1.70
   2   3  17    6.20    1.70
   2   3  17    5.90    1.90
  -3  -3 -17    0.40    3.10
  -3  -3 -17    1.20    1.30
   3   3  17    0.20    0.90
   3   3  17    2.70    1.40
   0   0   0    0.00    0.00

_computing_structure_solution     'SHELXT 2014/5 (Sheldrick, 2014)'
;
_shelx_hkl_checksum              140
_olex2_submission_special_instructions 'No special instructions were received'
loop_
_space_group_symop_operation_xyz
'x, y, z'
'-x, -y, -z'
loop_
_atom_site_label
_atom_site_type_symbol
_atom_site_fract_x
_atom_site_fract_y
_atom_site_fract_z
_atom_site_U_iso_or_equiv
_atom_site_adp_type
_atom_site_occupancy
_atom_site_site_symmetry_order
_atom_site_calc_flag
_atom_site_refinement_flags_posn
_atom_site_refinement_flags_adp
_atom_site_refinement_flags_occupancy
_atom_site_disorder_assembly
_atom_site_disorder_group
Cl1 Cl 0.70947(6) 0.03629(6) 0.90901(4) 0.06150(17) Uani 1 1 d . . . . .
S1 S 0.01124(7) 0.73762(9) 0.62518(4) 0.07078(19) Uani 1 1 d . . . . .
N6 N 0.7766(2) 0.7955(2) 0.41615(11) 0.0528(4) Uani 1 1 d . . . . .
N4 N 0.4820(2) 0.8009(2) 0.44729(12) 0.0551(4) Uani 1 1 d . . . . .
H4 H 0.377932 0.842904 0.424134 0.066 Uiso 1 1 calc R . . . .
N5 N 0.3348(2) 0.35204(18) 0.99379(11) 0.0506(4) Uani 1 1 d . . . . .
H5 H 0.411366 0.242587 0.988180 0.061 Uiso 1 1 calc R . . . .
N3 N 0.4533(2) 0.41711(19) 0.83313(12) 0.0539(4) Uani 1 1 d . . . . .
H3 H 0.533317 0.308187 0.838037 0.065 Uiso 1 1 calc R . . . .
N2 N 0.1620(2) 0.7819(2) 0.54591(12) 0.0566(4) Uani 1 1 d . . . . .
N1 N 0.1324(2) 0.6195(2) 0.71509(13) 0.0592(4) Uani 1 1 d . . . . .
C6 C 0.4880(2) 0.7068(2) 0.54176(13) 0.0446(4) Uani 1 1 d . . . . .
C7 C 0.3185(2) 0.7035(2) 0.58850(13) 0.0440(4) Uani 1 1 d . . . . .
C11 C 0.6366(2) 0.6122(3) 0.59443(14) 0.0499(4) Uani 1 1 d . . . . .
H11 H 0.750628 0.607289 0.565866 0.060 Uiso 1 1 calc R . . . .
C5 C 0.6159(2) 0.8391(2) 0.38352(13) 0.0471(4) Uani 1 1 d . . . . .
C12 C 0.3336(2) 0.4759(2) 0.91538(13) 0.0428(4) Uani 1 1 d . . . . .
C8 C 0.3023(2) 0.6101(2) 0.68587(13) 0.0459(4) Uani 1 1 d . . . . .
C14 C 0.0967(3) 0.6952(2) 1.01513(14) 0.0504(4) Uani 1 1 d . . . . .
H14 H 0.016026 0.813738 1.022854 0.060 Uiso 1 1 calc R . . . .
C9 C 0.4587(2) 0.5195(2) 0.73893(13) 0.0460(4) Uani 1 1 d . . . . .
C10 C 0.6192(2) 0.5228(2) 0.69082(14) 0.0506(4) Uani 1 1 d . . . . .
H10 H 0.723431 0.461980 0.723933 0.061 Uiso 1 1 calc R . . . .
C13 C 0.2103(3) 0.6526(2) 0.92748(14) 0.0476(4) Uani 1 1 d . . . . .
H13 H 0.205854 0.741795 0.875362 0.057 Uiso 1 1 calc R . . . .
C16 C 0.2200(3) 0.3934(2) 1.08109(14) 0.0553(5) Uani 1 1 d . . . . .
H16 H 0.224507 0.303573 1.132776 0.066 Uiso 1 1 calc R . . . .
C15 C 0.0996(3) 0.5635(3) 1.09336(14) 0.0532(4) Uani 1 1 d . . . . .
H15 H 0.020286 0.592256 1.152859 0.064 Uiso 1 1 calc R . . . .
C4 C 0.5740(3) 0.9223(3) 0.28657(14) 0.0558(5) Uani 1 1 d . . . . .
H4A H 0.459789 0.951900 0.266463 0.067 Uiso 1 1 calc R . . . .
C2 C 0.8722(3) 0.9174(3) 0.25451(15) 0.0581(5) Uani 1 1 d . . . . .
H2 H 0.962539 0.943033 0.212267 0.070 Uiso 1 1 calc R . . . .
C1 C 0.9003(3) 0.8371(3) 0.35078(15) 0.0566(5) Uani 1 1 d . . . . .
H1 H 1.012710 0.809293 0.372659 0.068 Uiso 1 1 calc R . . . .
C3 C 0.7049(3) 0.9592(3) 0.22210(15) 0.0601(5) Uani 1 1 d . . . . .
H3A H 0.681587 1.012164 0.156693 0.072 Uiso 1 1 calc R . . . .
loop_
_atom_site_aniso_label
_atom_site_aniso_U_11
_atom_site_aniso_U_22
_atom_site_aniso_U_33
_atom_site_aniso_U_23
_atom_site_aniso_U_13
_atom_site_aniso_U_12
Cl1 0.0524(3) 0.0413(2) 0.0858(4) 0.0049(2) -0.0259(2) -0.01106(19)
S1 0.0443(3) 0.1057(5) 0.0642(3) 0.0038(3) -0.0153(2) -0.0326(3)
N6 0.0478(8) 0.0660(10) 0.0427(8) -0.0031(7) -0.0078(6) -0.0208(7)
N4 0.0455(8) 0.0740(10) 0.0449(8) 0.0054(7) -0.0147(7) -0.0232(8)
N5 0.0654(10) 0.0339(7) 0.0488(8) 0.0031(6) -0.0179(7) -0.0145(7)
N3 0.0564(9) 0.0397(7) 0.0514(9) 0.0040(6) -0.0096(7) -0.0070(7)
N2 0.0433(8) 0.0737(10) 0.0511(9) -0.0013(8) -0.0152(7) -0.0198(8)
N1 0.0512(9) 0.0739(11) 0.0562(10) 0.0023(8) -0.0108(7) -0.0300(8)
C6 0.0436(9) 0.0499(9) 0.0408(9) -0.0067(7) -0.0094(7) -0.0172(7)
C7 0.0414(9) 0.0467(9) 0.0427(9) -0.0055(7) -0.0121(7) -0.0135(7)
C11 0.0399(9) 0.0627(11) 0.0471(10) -0.0039(8) -0.0088(7) -0.0199(8)
C5 0.0501(10) 0.0498(9) 0.0404(9) -0.0061(7) -0.0076(7) -0.0177(8)
C12 0.0472(9) 0.0392(8) 0.0435(9) 0.0026(7) -0.0159(7) -0.0173(7)
C8 0.0437(9) 0.0471(9) 0.0470(9) -0.0051(7) -0.0073(7) -0.0174(7)
C14 0.0559(10) 0.0412(9) 0.0520(10) -0.0056(7) -0.0162(8) -0.0138(8)
C9 0.0491(9) 0.0407(8) 0.0434(9) -0.0019(7) -0.0102(7) -0.0123(7)
C10 0.0416(9) 0.0536(10) 0.0498(10) -0.0025(8) -0.0150(8) -0.0100(8)
C13 0.0587(10) 0.0357(8) 0.0481(10) 0.0045(7) -0.0154(8) -0.0182(7)
C16 0.0783(13) 0.0493(10) 0.0429(10) 0.0055(8) -0.0153(9) -0.0304(10)
C15 0.0630(12) 0.0546(10) 0.0462(10) -0.0047(8) -0.0101(8) -0.0264(9)
C4 0.0603(11) 0.0580(11) 0.0490(10) 0.0012(8) -0.0163(9) -0.0225(9)
C2 0.0653(12) 0.0592(11) 0.0493(11) -0.0068(9) 0.0035(9) -0.0275(10)
C1 0.0489(10) 0.0669(12) 0.0517(11) -0.0075(9) -0.0041(8) -0.0211(9)
C3 0.0785(14) 0.0597(11) 0.0428(10) 0.0047(8) -0.0117(9) -0.0298(10)
loop_
_atom_type_symbol
_atom_type_description
_atom_type_scat_dispersion_real
_atom_type_scat_dispersion_imag
_atom_type_scat_source
C C 0.0033 0.0016 'International Tables Vol C Tables 4.2.6.8 and 6.1.1.4'
H H 0.0000 0.0000 'International Tables Vol C Tables 4.2.6.8 and 6.1.1.4'
Cl Cl 0.1484 0.1585 'International Tables Vol C Tables 4.2.6.8 and 6.1.1.4'
N N 0.0061 0.0033 'International Tables Vol C Tables 4.2.6.8 and 6.1.1.4'
S S 0.1246 0.1234 'International Tables Vol C Tables 4.2.6.8 and 6.1.1.4'
loop_
_geom_angle_atom_site_label_1
_geom_angle_atom_site_label_2
_geom_angle_atom_site_label_3
_geom_angle
_geom_angle_site_symmetry_1
_geom_angle_site_symmetry_3
_geom_angle_publ_flag
N1 S1 N2 100.84(8) . . ?
C5 N6 C1 116.51(16) . . ?
C6 N4 H4 114.6 . . ?
C6 N4 C5 130.73(15) . . ?
C5 N4 H4 114.6 . . ?
C12 N5 H5 118.7 . . ?
C12 N5 C16 122.66(15) . . ?
C16 N5 H5 118.7 . . ?
C12 N3 H3 117.3 . . ?
C12 N3 C9 125.44(14) . . ?
C9 N3 H3 117.3 . . ?
C7 N2 S1 106.29(13) . . ?
C8 N1 S1 106.51(13) . . ?
N4 C6 C7 115.25(15) . . ?
C11 C6 N4 128.24(17) . . ?
C11 C6 C7 116.48(16) . . ?
N2 C7 C6 124.33(16) . . ?
N2 C7 C8 113.54(16) . . ?
C6 C7 C8 122.10(15) . . ?
C6 C11 H11 119.4 . . ?
C6 C11 C10 121.10(17) . . ?
C10 C11 H11 119.4 . . ?
N6 C5 N4 119.45(16) . . ?
N6 C5 C4 123.09(18) . . ?
N4 C5 C4 117.46(16) . . ?
N5 C12 C13 117.32(16) . . ?
N3 C12 N5 116.71(15) . . ?
N3 C12 C13 125.96(15) . . ?
N1 C8 C7 112.81(15) . . ?
N1 C8 C9 127.91(17) . . ?
C9 C8 C7 119.28(16) . . ?
C13 C14 H14 119.6 . . ?
C13 C14 C15 120.75(17) . . ?
C15 C14 H14 119.6 . . ?
N3 C9 C8 121.83(16) . . ?
C10 C9 N3 121.07(16) . . ?
C10 C9 C8 116.87(16) . . ?
C11 C10 H10 117.9 . . ?
C9 C10 C11 124.11(16) . . ?
C9 C10 H10 117.9 . . ?
C12 C13 H13 119.9 . . ?
C14 C13 C12 120.25(16) . . ?
C14 C13 H13 119.9 . . ?
N5 C16 H16 119.7 . . ?
C15 C16 N5 120.50(17) . . ?
C15 C16 H16 119.7 . . ?
C14 C15 H15 120.8 . . ?
C16 C15 C14 118.49(18) . . ?
C16 C15 H15 120.8 . . ?
C5 C4 H4A 120.8 . . ?
C3 C4 C5 118.34(18) . . ?
C3 C4 H4A 120.8 . . ?
C1 C2 H2 121.1 . . ?
C1 C2 C3 117.70(19) . . ?
C3 C2 H2 121.1 . . ?
N6 C1 C2 124.59(19) . . ?
N6 C1 H1 117.7 . . ?
C2 C1 H1 117.7 . . ?
C4 C3 C2 119.74(18) . . ?
C4 C3 H3A 120.1 . . ?
C2 C3 H3A 120.1 . . ?
loop_
_geom_bond_atom_site_label_1
_geom_bond_atom_site_label_2
_geom_bond_distance
_geom_bond_site_symmetry_2
_geom_bond_publ_flag
S1 N2 1.6136(17) . ?
S1 N1 1.6131(17) . ?
N6 C5 1.331(2) . ?
N6 C1 1.346(2) . ?
N4 H4 0.8600 . ?
N4 C6 1.380(2) . ?
N4 C5 1.386(2) . ?
N5 H5 0.8600 . ?
N5 C12 1.352(2) . ?
N5 C16 1.358(2) . ?
N3 H3 0.8600 . ?
N3 C12 1.342(2) . ?
N3 C9 1.417(2) . ?
N2 C7 1.340(2) . ?
N1 C8 1.345(2) . ?
C6 C7 1.428(2) . ?
C6 C11 1.374(2) . ?
C7 C8 1.430(2) . ?
C11 H11 0.9300 . ?
C11 C10 1.407(3) . ?
C5 C4 1.399(2) . ?
C12 C13 1.393(2) . ?
C8 C9 1.421(2) . ?
C14 H14 0.9300 . ?
C14 C13 1.358(3) . ?
C14 C15 1.389(3) . ?
C9 C10 1.368(3) . ?
C10 H10 0.9300 . ?
C13 H13 0.9300 . ?
C16 H16 0.9300 . ?
C16 C15 1.346(3) . ?
C15 H15 0.9300 . ?
C4 H4A 0.9300 . ?
C4 C3 1.367(3) . ?
C2 H2 0.9300 . ?
C2 C1 1.367(3) . ?
C2 C3 1.382(3) . ?
C1 H1 0.9300 . ?
C3 H3A 0.9300 . ?
